data_functionalizedCrystal
_audit_creation_method	'MofGen! by Chris Wilmer'
_symmetry_space_group_name_H-M	'P1'
_symmetry_Int_Tables_number	1
_symmetry_cell_setting	triclinic
loop_
_symmetry_equiv_pos_as_xyz
  x,y,z
_cell_length_a	14.519731
_cell_length_b	23.532409
_cell_length_c	12.996460
_cell_angle_alpha	89.996917
_cell_angle_beta	90.006690
_cell_angle_gamma	96.730794
loop_
_atom_site_label
_atom_site_type_symbol
_atom_site_fract_x
_atom_site_fract_y
_atom_site_fract_z
O1	O	-1.222974	0.074712	-0.085586
O2	O	-0.954396	0.083490	-0.085581
O3	O	-1.096783	-0.003794	-0.085585
O4	O	-1.080587	0.161996	-0.085582
O5	O	-1.096768	-0.003799	0.085549
O6	O	-0.954381	0.083486	0.085552
O7	O	-1.222959	0.074707	0.085548
Cu8	Cu	-1.088669	0.079096	0.101176
Cu9	Cu	-1.088686	0.079101	-0.101210
O10	O	-1.080572	0.161991	0.085552
C11	C	-0.920034	0.083077	-0.000014
C12	C	-0.817668	0.081844	-0.000013
C13	C	-0.734536	0.080842	-0.000015
C14	C	-0.630242	0.079591	-0.000013
C15	C	-0.547114	0.078598	-0.000012
C16	C	-0.442814	0.077346	-0.000012
C17	C	-1.096362	-0.025014	-0.000021
C18	C	-1.095122	-0.088237	-0.000028
C19	C	-1.089852	-0.361503	-0.093318
C20	C	-1.091005	-0.302098	-0.093318
O21	O	-1.091640	-0.271368	-0.172650
N22	N	-1.091567	-0.272396	-0.000031
C23	C	-1.090986	-0.302103	0.093262
O24	O	-1.091571	-0.271384	0.172609
C25	C	-1.089841	-0.361508	0.093261
C26	C	-1.089269	-0.391206	-0.000032
C27	C	-1.089282	-0.391201	-0.186603
C28	C	-1.088128	-0.450603	-0.186602
C29	C	-1.087544	-0.480306	-0.093316
C30	C	-1.088115	-0.450607	-0.000031
C31	C	-1.089267	-0.391214	0.186552
C32	C	-1.088122	-0.450623	0.186544
C33	C	-1.087550	-0.480322	0.093251
C34	C	-1.086378	-0.539711	0.093255
N35	N	-1.085815	-0.569413	-0.000032
C36	C	-1.086399	-0.539710	-0.093317
C37	C	-1.093394	-0.177349	0.093256
C38	C	-1.094533	-0.117944	0.093258
C39	C	-1.094553	-0.117943	-0.093322
C40	C	-1.093407	-0.177348	-0.093323
C41	C	-1.092832	-0.207051	-0.000030
C42	C	-1.083974	-0.664457	-0.093309
C43	C	-1.082816	-0.723863	-0.093300
C44	C	-1.082801	-0.723859	0.093279
C45	C	-1.083954	-0.664458	0.093271
C46	C	-1.084544	-0.634759	-0.000032
O47	O	-1.085746	-0.570479	0.172547
O48	O	-1.085826	-0.570437	-0.172651
C49	C	-0.257321	0.075121	-0.000017
C50	C	-0.359687	0.076353	-0.000010
C51	C	-1.080992	0.183211	-0.000015
C52	C	-1.082233	0.246434	-0.000014
N53	N	-1.088663	0.079091	0.243523
N54	N	-1.088699	0.079101	-0.243557
C55	C	-1.088685	0.079102	0.663337
C56	C	-1.088676	0.079101	0.546532
C57	C	-1.088674	0.079097	0.453434
C58	C	-1.088665	0.079095	0.336621
H59	H	-1.082347	-0.748041	-0.169274
O60	O	-1.087424	-0.479456	-0.277206
C61	C	-1.006290	-0.540180	-0.385517
C62	C	-1.006950	-0.507527	-0.282874
H63	H	-0.941243	-0.562894	-0.390124
H64	H	-1.006851	-0.508754	-0.452214
H65	H	-1.070334	-0.573101	-0.390172
H66	H	-0.942918	-0.474607	-0.278118
H67	H	-1.006437	-0.538988	-0.216226
O68	O	-1.087432	-0.479527	0.277106
C69	C	-1.006188	-0.540203	0.385430
C70	C	-1.006868	-0.507510	0.282824
H71	H	-0.941049	-0.562826	0.390096
H72	H	-1.070148	-0.573187	0.390114
H73	H	-1.006838	-0.508760	0.452082
H74	H	-1.006186	-0.538909	0.216113
H75	H	-0.942914	-0.474517	0.278230
O76	O	-1.089802	-0.362438	-0.277320
C77	C	-1.089738	-0.368730	-0.462379
C78	C	-1.089136	-0.401368	-0.359708
H79	H	-1.089220	-0.400192	-0.529017
H80	H	-1.025711	-0.335800	-0.467118
H81	H	-1.154804	-0.346034	-0.467006
H82	H	-1.024114	-0.424098	-0.355013
H83	H	-1.153207	-0.434265	-0.355013
H84	H	-1.092940	-0.201525	-0.169290
O85	O	-1.094948	-0.089025	-0.183896
C86	C	-1.016201	-0.015656	-0.292189
C87	C	-1.015688	-0.048345	-0.189564
H88	H	-0.952116	0.017233	-0.296814
H89	H	-1.081219	0.007080	-0.296944
H90	H	-1.015620	-0.047116	-0.358823
H91	H	-1.016235	-0.016924	-0.122871
H92	H	-0.950675	-0.071090	-0.184898
O93	O	-1.095115	-0.089189	0.183975
C94	C	-1.094912	-0.095471	0.369034
C95	C	-1.094269	-0.128105	0.266369
H96	H	-1.094209	-0.126919	0.435677
H97	H	-1.160011	-0.072814	0.373779
H98	H	-1.030920	-0.062509	0.373646
H99	H	-1.158217	-0.161095	0.261689
H100	H	-1.029127	-0.150724	0.261668
H101	H	-1.084383	-0.640274	0.169237
O102	O	-1.092686	-0.206247	0.183825
C103	C	-1.011418	-0.266912	0.292146
C104	C	-1.012119	-0.234228	0.189531
H105	H	-0.946277	-0.289533	0.296803
H106	H	-1.075376	-0.299897	0.296853
H107	H	-1.012056	-0.235463	0.358790
H108	H	-1.011449	-0.265634	0.122829
H109	H	-0.948167	-0.201235	0.184914
O110	O	-1.084499	-0.635697	-0.184033
C111	C	-1.084437	-0.641985	-0.369092
C112	C	-1.083828	-0.674625	-0.266424
H113	H	-1.083915	-0.673445	-0.435732
H114	H	-1.020414	-0.609052	-0.373831
H115	H	-1.149507	-0.619293	-0.373716
H116	H	-1.018802	-0.697351	-0.261732
H117	H	-1.147894	-0.707525	-0.261729
H118	H	-1.089742	-0.367045	0.262522
O119	O	-1.082118	-0.752774	0.183825
C120	C	-1.000907	-0.813477	0.292131
C121	C	-1.001562	-0.780765	0.189542
H122	H	-0.935775	-0.836106	0.296795
H123	H	-1.064874	-0.846457	0.296785
H124	H	-1.001562	-0.782045	0.358799
H125	H	-1.000876	-0.812153	0.122815
H126	H	-0.937601	-0.747776	0.184977
