data_functionalizedCrystal
_audit_creation_method	'MofGen! by Chris Wilmer'
_symmetry_space_group_name_H-M	'P1'
_symmetry_Int_Tables_number	1
_symmetry_cell_setting	triclinic
loop_
_symmetry_equiv_pos_as_xyz
  x,y,z
_cell_length_a	17.077404
_cell_length_b	29.839132
_cell_length_c	17.077396
_cell_angle_alpha	89.965873
_cell_angle_beta	90.018362
_cell_angle_gamma	89.956766
loop_
_atom_site_label
_atom_site_type_symbol
_atom_site_fract_x
_atom_site_fract_y
_atom_site_fract_z
Zn1	Zn	1.199933	0.178878	0.443788
Zn2	Zn	1.699933	0.678878	0.943788
Zn3	Zn	1.199788	0.254008	0.312509
Zn4	Zn	1.699788	0.754008	0.812509
Zn5	Zn	1.068664	0.178890	0.312539
Zn6	Zn	1.568664	0.678890	0.812539
Zn7	Zn	1.068581	0.253979	0.443735
Zn8	Zn	1.568581	0.753979	0.943735
O9	O	1.134242	0.216439	0.378143
O10	O	1.634242	0.716439	0.878143
O11	O	1.309760	0.188851	0.426383
O12	O	1.809760	0.688851	0.926383
O13	O	1.182369	0.244062	0.202666
O14	O	1.682369	0.744062	0.702666
O15	O	1.086173	0.116022	0.329984
O16	O	1.586173	0.616022	0.829984
O17	O	1.309654	0.244049	0.329933
O18	O	1.809654	0.744049	0.829933
O19	O	1.182615	0.116012	0.426412
O20	O	1.682615	0.616012	0.926412
O21	O	1.086033	0.188873	0.202688
O22	O	1.586033	0.688873	0.702688
O23	O	0.958806	0.188844	0.329932
O24	O	1.458806	0.688844	0.829932
O25	O	1.086031	0.243999	0.553589
O26	O	1.586031	0.743999	1.053589
O27	O	0.958745	0.244011	0.426322
O28	O	1.458745	0.744011	0.926322
O29	O	1.182534	0.188822	0.553628
O30	O	1.682534	0.688822	1.053628
O31	O	1.182288	0.316872	0.329882
O32	O	1.682288	0.816872	0.829882
O33	O	1.085891	0.316850	0.426293
O34	O	1.585891	0.816850	0.926293
C35	C	0.930294	0.216426	0.378125
C36	C	1.430294	0.716426	0.878125
C37	C	0.843044	0.216431	0.378136
C38	C	1.343044	0.716431	0.878136
C39	C	0.802110	0.187741	0.428434
C40	C	1.302110	0.687741	0.928434
C41	C	0.720129	0.187744	0.428438
C42	C	1.220129	0.687744	0.928438
C43	C	0.679084	0.216440	0.378147
C44	C	1.179084	0.716440	0.878147
C45	C	0.720025	0.245132	0.327843
C46	C	1.220025	0.745132	0.827843
C47	C	0.802003	0.245126	0.327836
C48	C	1.302003	0.745126	0.827836
C49	C	0.549154	0.245142	0.327863
C50	C	1.049154	0.745142	0.827863
C51	C	0.467170	0.245148	0.327870
C52	C	0.967170	0.745148	0.827870
C53	C	0.467280	0.187759	0.428464
C54	C	0.967280	0.687759	0.928464
C55	C	0.549259	0.187754	0.428457
C56	C	1.049259	0.687754	0.928457
C57	C	0.590193	0.216447	0.378155
C58	C	1.090193	0.716447	0.878155
C59	C	1.134086	0.333161	0.378096
C60	C	1.634086	0.833161	0.878096
C61	C	1.134091	0.383096	0.378102
C62	C	1.634091	0.883096	0.878102
C63	C	1.184471	0.692738	0.327983
C64	C	1.684471	1.192738	0.827983
C65	C	1.184546	0.880411	0.328000
C66	C	1.684546	1.380411	0.828000
O67	O	1.227296	0.904675	0.285373
O68	O	1.727296	1.404675	0.785373
N69	N	1.134324	0.903881	0.378155
N70	N	1.634324	1.403881	0.878155
C71	C	1.084083	0.880430	0.428313
C72	C	1.584083	1.380430	0.928313
O73	O	1.041373	0.904699	0.470980
O74	O	1.541373	1.404699	0.970980
C75	C	1.084012	0.692757	0.428299
C76	C	1.584012	1.192757	0.928299
C77	C	1.134232	0.669290	0.378135
C78	C	1.634232	1.169290	0.878135
C79	C	1.234688	0.669270	0.277823
C80	C	1.734688	1.169270	0.777823
C81	C	1.234665	0.622355	0.277816
C82	C	1.734665	1.122355	0.777816
C83	C	1.184427	0.598907	0.327969
C84	C	1.684427	1.098907	0.827969
C85	C	1.134210	0.622375	0.378128
C86	C	1.634210	1.122375	0.878128
C87	C	1.033776	0.669307	0.478460
C88	C	1.533776	1.169307	0.978460
C89	C	1.033764	0.622386	0.478454
C90	C	1.533764	1.122386	0.978454
C91	C	1.083984	0.598919	0.428290
C92	C	1.583984	1.098919	0.928290
C93	C	1.083949	0.552011	0.428273
C94	C	1.583949	1.052011	0.928273
N95	N	1.134171	0.528541	0.378118
N96	N	1.634171	1.028541	0.878118
C97	C	1.184410	0.551989	0.327966
C98	C	1.684410	1.051989	0.827966
C99	C	1.084122	0.978960	0.428316
C100	C	1.584122	1.478960	0.928316
C101	C	1.084139	1.025878	0.428319
C102	C	1.584139	1.525878	0.928319
C103	C	1.184603	1.025856	0.328007
C104	C	1.684603	1.525856	0.828007
C105	C	1.184582	0.978937	0.328001
C106	C	1.684582	1.478937	0.828001
C107	C	1.134344	0.955490	0.378161
C108	C	1.634344	1.455490	0.878161
C109	C	1.184359	0.453463	0.327955
C110	C	1.684359	0.953463	0.827955
C111	C	1.184330	0.406544	0.327950
C112	C	1.684330	0.906544	0.827950
C113	C	1.083869	0.406570	0.428265
C114	C	1.583869	0.906570	0.928265
C115	C	1.083895	0.453485	0.428267
C116	C	1.583895	0.953485	0.928267
C117	C	1.134146	0.476931	0.378109
C118	C	1.634146	0.976931	0.878109
O119	O	1.041228	0.527719	0.470885
O120	O	1.541228	1.027719	0.970885
O121	O	1.227126	0.527712	0.285318
O122	O	1.727126	1.027712	0.785318
C123	C	1.184493	0.739653	0.327989
C124	C	1.684493	1.239653	0.827989
C125	C	1.134277	0.763121	0.378149
C126	C	1.634277	1.263121	0.878149
C127	C	1.084038	0.739673	0.428301
C128	C	1.584038	1.239673	0.928301
C129	C	1.134293	0.810039	0.378152
C130	C	1.634293	1.310039	0.878152
C131	C	1.184532	0.833487	0.327999
C132	C	1.684532	1.333487	0.827999
C133	C	1.234754	0.810017	0.277844
C134	C	1.734754	1.310017	0.777844
C135	C	1.234732	0.763101	0.277837
C136	C	1.734732	1.263101	0.777837
C137	C	1.033816	0.763143	0.478456
C138	C	1.533816	1.263143	0.978456
C139	C	1.033842	0.810058	0.478459
C140	C	1.533842	1.310058	0.978459
C141	C	1.084080	0.833506	0.428306
C142	C	1.584080	1.333506	0.928306
C143	C	1.338986	0.216452	0.378161
C144	C	1.838986	0.716452	0.878161
C145	C	1.426236	0.216458	0.378169
C146	C	1.926236	0.716458	0.878169
C147	C	1.134289	0.216406	0.582887
C148	C	1.634289	0.716406	1.082887
C149	C	1.134309	0.216392	0.670137
C150	C	1.634309	0.716392	1.170137
C151	C	1.134390	1.099260	0.378190
C152	C	1.634390	1.599260	0.878190
C153	C	1.134377	1.049326	0.378167
C154	C	1.634377	1.549326	0.878167
C155	C	1.134239	0.216439	0.174195
C156	C	1.634239	0.716439	0.674195
C157	C	1.134371	0.216327	0.086946
C158	C	1.634371	0.716327	0.586946
C159	C	1.184560	0.187659	0.711149
C160	C	1.684560	0.687659	1.211149
C161	C	1.184570	0.187644	0.793129
C162	C	1.684570	0.687644	1.293129
C163	C	1.134332	0.216364	0.834096
C164	C	1.634332	0.716364	1.334096
C165	C	1.084075	0.245098	0.793079
C166	C	1.584075	0.745098	1.293079
C167	C	1.084062	0.245111	0.711100
C168	C	1.584062	0.745111	1.211100
C169	C	1.084107	0.245071	0.963949
C170	C	1.584107	0.745071	1.463949
C171	C	1.084120	0.245060	1.045934
C172	C	1.584120	0.745060	1.545934
C173	C	1.184614	0.187605	1.045978
C174	C	1.684614	0.687605	1.545978
C175	C	1.184602	0.187617	0.963999
C176	C	1.684602	0.687617	1.463999
C177	C	1.134346	0.216352	0.922988
C178	C	1.634346	0.716352	1.422988
H179	H	0.582676	0.164390	0.469414
H180	H	1.082676	0.664390	0.969414
H181	H	1.043211	0.959873	0.469164
H182	H	1.543211	1.459873	0.969164
F183	F	0.423489	0.275698	0.274360
F184	F	0.923489	0.775698	0.774360
F185	F	1.288126	0.597385	0.224433
F186	F	1.788126	1.097385	0.724433
H187	H	1.043004	0.472594	0.469117
H188	H	1.543004	0.972594	0.969117
F189	F	1.030406	0.381607	0.481640
F190	F	1.530406	0.881607	0.981640
H191	H	1.225533	0.164207	1.079374
H192	H	1.725533	0.664207	1.579374
H193	H	0.686599	0.268494	0.286891
H194	H	1.186599	0.768494	0.786891
F195	F	0.592718	0.275682	0.274327
F196	F	1.092718	0.775682	0.774327
H197	H	1.043237	1.044981	0.469160
H198	H	1.543237	1.544981	0.969160
H199	H	1.275626	0.743997	0.236989
H200	H	1.775626	1.243997	0.736989
F201	F	0.980343	0.738194	0.531839
F202	F	1.480343	1.238194	1.031839
F203	F	0.845568	0.275663	0.274302
F204	F	1.345568	0.775663	0.774302
H205	H	1.043210	0.268445	1.079287
H206	H	1.543210	0.768445	1.579287
H207	H	1.043135	0.268503	0.677709
H208	H	1.543135	0.768503	1.177709
H209	H	1.275658	0.829116	0.237006
H210	H	1.775658	1.329116	0.737006
F211	F	1.030617	0.275653	0.920303
F212	F	1.530617	0.775653	1.420303
H213	H	0.686804	0.164382	0.469397
H214	H	1.186804	0.664382	0.969397
H215	H	1.275602	0.688357	0.236983
H216	H	1.775602	1.188357	0.736983
F217	F	0.980385	0.835029	0.531852
F218	F	1.480385	1.335029	1.031852
H219	H	1.043167	0.268481	0.826441
H220	H	1.543167	0.768481	1.326441
H221	H	0.835522	0.164374	0.469390
H222	H	1.335522	0.664374	0.969390
F223	F	0.423714	0.157221	0.481999
F224	F	0.923714	0.657221	0.981999
H225	H	1.225476	0.959833	0.287153
H226	H	1.725476	1.459833	0.787153
F227	F	1.237783	0.381570	0.274556
F228	F	1.737783	0.881570	0.774556
H229	H	1.225280	0.472547	0.287113
H230	H	1.725280	0.972547	0.787113
H231	H	1.225514	0.164233	0.930646
H232	H	1.725514	0.664233	1.430646
F233	F	1.238069	1.050819	0.274629
F234	F	1.738069	1.550819	0.774629
H235	H	1.225491	0.164248	0.826517
H236	H	1.725491	0.664248	1.326517
F237	F	0.980331	0.694273	0.531860
F238	F	1.480331	1.194273	1.031860
F239	F	0.980294	0.597435	0.531845
F240	F	1.480294	1.097435	1.031845
F241	F	1.238036	0.157092	0.667555
F242	F	1.738036	0.657092	1.167555
