data_functionalizedCrystal
_audit_creation_method	'MofGen! by Chris Wilmer'
_symmetry_space_group_name_H-M	'P1'
_symmetry_Int_Tables_number	1
_symmetry_cell_setting	triclinic
loop_
_symmetry_equiv_pos_as_xyz
  x,y,z
_cell_length_a	13.897448
_cell_length_b	13.033385
_cell_length_c	13.032268
_cell_angle_alpha	105.160384
_cell_angle_beta	82.851959
_cell_angle_gamma	97.153102
loop_
_atom_site_label
_atom_site_type_symbol
_atom_site_fract_x
_atom_site_fract_y
_atom_site_fract_z
Zn1	Zn	-0.611412	-1.547436	0.393984
Zn2	Zn	-0.754546	-1.569889	0.216387
Zn3	Zn	-0.575126	-1.392389	0.238985
Zn4	Zn	-0.754504	-1.369808	0.416530
O5	O	-0.673897	-1.469880	0.316471
O6	O	-0.645602	-1.699037	0.351532
O7	O	-0.715577	-1.565191	0.070757
O8	O	-0.444966	-1.413010	0.259568
O9	O	-0.750762	-1.715533	0.221053
O10	O	-0.471625	-1.526922	0.373445
O11	O	-0.583758	-1.434782	0.087359
O12	O	-0.583717	-1.240771	0.281430
O13	O	-0.750691	-1.374523	0.562167
O14	O	-0.715506	-1.224181	0.411871
O15	O	-0.645562	-1.505026	0.545602
O16	O	-0.889513	-1.543294	0.242915
O17	O	-0.889483	-1.396295	0.389959
C18	C	-0.645670	-1.193940	0.351549
C19	C	-0.633620	-1.075888	0.366581
C20	C	-0.667725	-0.909415	0.324161
C21	C	-0.680182	-1.031429	0.308620
C22	C	-0.924500	-1.469807	0.316451
C23	C	-1.031723	-1.469868	0.316465
C24	C	-1.228036	-1.469971	0.316517
C25	C	-1.118794	-1.469910	0.316492
C26	C	-0.422320	-1.469980	0.316512
C27	C	-0.315113	-1.470023	0.316529
C28	C	-0.702169	-1.434751	0.593500
C29	C	-0.714217	-1.419781	0.711553
C30	C	-0.702227	-0.746900	0.281246
C31	C	-0.714281	-0.864953	0.266208
C32	C	-0.645671	-1.504934	0.040513
C33	C	-0.633373	-1.520110	-0.077565
C34	C	-0.667573	-1.477677	0.755989
C35	C	-0.680024	-1.462206	0.878002
H36	H	-0.729272	-1.083688	0.247500
O37	O	-0.574638	-1.592771	0.859985
C38	C	-0.433110	-1.622850	0.732916
C39	C	-0.499568	-1.540464	0.803562
H40	H	-0.372388	-1.580589	0.687297
H41	H	-0.477726	-1.684911	0.673837
H42	H	-0.399978	-1.664042	0.785382
H43	H	-0.532715	-1.499194	0.751182
H44	H	-0.454905	-1.478471	0.862648
O45	O	-0.738667	-1.389485	0.940518
C46	C	-0.804469	-1.307693	1.119138
C47	C	-0.738044	-1.390098	1.048463
H48	H	-0.803972	-1.308145	1.206427
H49	H	-0.881976	-1.329049	1.095087
H50	H	-0.776579	-1.224816	1.108218
H51	H	-0.765847	-1.473004	1.059346
H52	H	-0.660549	-1.368651	1.072531
H53	H	-0.763362	-1.358754	0.763840
O54	O	-0.609175	-0.846924	0.397002
C55	C	-0.543452	-0.668328	0.478983
C56	C	-0.609774	-0.738973	0.396435
H57	H	-0.543931	-0.581034	0.478567
H58	H	-0.465935	-0.692352	0.457736
H59	H	-0.571448	-0.679303	0.561819
H60	H	-0.581866	-0.728034	0.313568
H61	H	-0.687280	-0.714932	0.417773
H62	H	-0.763367	-0.917215	0.205092
O63	O	-0.575069	-1.013401	0.439430
C64	C	-0.509351	-0.834807	0.521421
C65	C	-0.575668	-0.905449	0.438867
H66	H	-0.509829	-0.747512	0.521009
H67	H	-0.431833	-0.858829	0.500178
H68	H	-0.537351	-0.845786	0.604255
H69	H	-0.547755	-0.894506	0.356003
H70	H	-0.653175	-0.881410	0.460202
H71	H	-0.618417	-1.538693	0.703702
