data_functionalizedCrystal
_audit_creation_method	'MofGen! by Chris Wilmer'
_symmetry_space_group_name_H-M	'P1'
_symmetry_Int_Tables_number	1
_symmetry_cell_setting	triclinic
loop_
_symmetry_equiv_pos_as_xyz
  x,y,z
_cell_length_a	6.817900
_cell_length_b	11.168121
_cell_length_c	17.110486
_cell_angle_alpha	95.206488
_cell_angle_beta	99.060439
_cell_angle_gamma	108.508496
loop_
_atom_site_label
_atom_site_type_symbol
_atom_site_fract_x
_atom_site_fract_y
_atom_site_fract_z
V1	V	-4.002456	-0.174329	-0.246727
O2	O	-3.964089	0.008764	-0.242023
O3	O	-3.979476	-0.346036	-0.245046
O4	O	-3.931896	-0.171477	-0.354330
O5	O	-4.011998	-0.167003	-0.131983
V6	V	-4.485662	-0.152449	-0.233002
O7	O	-4.264411	-0.222324	-0.276834
O8	O	-4.673904	-0.104453	-0.202895
O9	O	-4.285436	0.019259	-0.234683
O10	O	-4.641426	-0.335541	-0.237705
O11	O	-4.593517	-0.159774	-0.347746
O12	O	-4.333015	-0.155300	-0.125399
C13	C	-3.831377	-0.387900	-0.241155
C14	C	-3.893727	-0.528273	-0.240498
C15	C	-4.094729	-0.596960	-0.243958
C16	C	-4.159175	-0.742042	-0.243279
C17	C	-3.770684	-0.165231	-0.380557
C18	C	-3.794445	-0.164036	-0.468523
C19	C	-3.987827	-0.169777	-0.513881
C20	C	-4.010141	-0.168653	-0.596534
C21	C	-3.839074	-0.161798	-0.633829
C22	C	-3.645674	-0.156053	-0.588464
C23	C	-3.623358	-0.157168	-0.505812
C24	C	-3.897332	-0.158109	-0.883183
C25	C	-3.919665	-0.156998	-0.965842
C26	C	-4.284131	-0.169596	-0.973907
C27	C	-4.261801	-0.170718	-0.891253
C28	C	-4.068401	-0.164966	-0.845895
C29	C	-3.861880	-0.160653	-0.718314
C30	C	-4.045594	-0.166102	-0.761410
C31	C	-4.096877	0.061117	-0.238571
C32	C	-4.013765	0.201488	-0.239233
C33	C	-4.157571	-0.161550	-0.099167
C34	C	-4.113048	-0.162739	-0.011200
H35	H	-4.127137	-0.175367	-0.483523
N36	N	-4.250749	-0.535983	-0.248311
N37	N	-4.198178	-0.418215	-0.248859
H38	H	-4.308371	-0.375150	-0.251933
H39	H	-4.184872	-0.171679	-0.731041
N40	N	-4.375183	-0.816120	-0.246985
N41	N	-4.427227	-0.933870	-0.246425
H42	H	-4.579790	-0.986192	-0.249041
H43	H	-3.506386	-0.150464	-0.618835
N44	N	-3.737656	-0.589211	-0.236157
N45	N	-3.630914	-0.584129	-0.289617
H46	H	-3.520678	-0.627162	-0.286551
N47	N	-3.699817	-0.152250	-0.836843
N48	N	-3.604271	-0.062068	-0.781078
H49	H	-3.464772	-0.057936	-0.748344
N50	N	-3.797734	-0.724454	-0.235500
N51	N	-3.702686	-0.635544	-0.178925
H52	H	-3.550109	-0.583230	-0.176286
N53	N	-4.207673	-0.174490	-0.642857
N54	N	-4.284760	-0.089421	-0.627575
H55	H	-4.424276	-0.093538	-0.660288
N56	N	-3.425814	-0.151320	-0.459491
N57	N	-3.348713	-0.236387	-0.474761
H58	H	-3.209188	-0.232254	-0.442048
H59	H	-4.401106	-0.176299	-0.860894
H60	H	-4.441590	-0.174277	-1.010845
H61	H	-3.780349	-0.151412	-0.996204
H62	H	-3.722602	-0.155076	-0.748689
