data_functionalizedCrystal
_audit_creation_method	'MofGen! by Chris Wilmer'
_symmetry_space_group_name_H-M	'P1'
_symmetry_Int_Tables_number	1
_symmetry_cell_setting	triclinic
loop_
_symmetry_equiv_pos_as_xyz
  x,y,z
_cell_length_a	17.699104
_cell_length_b	9.065218
_cell_length_c	8.140239
_cell_angle_alpha	89.998670
_cell_angle_beta	90.002352
_cell_angle_gamma	95.846299
loop_
_atom_site_label
_atom_site_type_symbol
_atom_site_fract_x
_atom_site_fract_y
_atom_site_fract_z
O1	O	1.005519	-0.186701	0.136640
O2	O	1.505519	0.313299	0.636640
O3	O	0.785332	-0.210941	0.136635
O4	O	1.285332	0.289059	0.636635
O5	O	0.899976	0.015956	0.136635
O6	O	1.399976	0.515956	0.636635
O7	O	0.890874	-0.413598	0.136641
O8	O	1.390874	0.086402	0.636641
O9	O	0.899973	0.015957	-0.136593
O10	O	1.399973	0.515957	0.363407
O11	O	0.785328	-0.210939	-0.136592
O12	O	1.285328	0.289061	0.363408
O13	O	1.005515	-0.186699	-0.136587
O14	O	1.505515	0.313301	0.363413
Zn15	Zn	0.895421	-0.198819	-0.179970
Zn16	Zn	1.395421	0.301181	0.320030
Zn17	Zn	0.895426	-0.198821	0.180018
Zn18	Zn	1.395426	0.301179	0.680018
O19	O	0.890870	-0.413596	-0.136586
O20	O	1.390870	0.086404	0.363414
C21	C	0.757126	-0.210066	0.000021
C22	C	1.257126	0.289934	0.500021
C23	C	0.673088	-0.207445	0.000020
C24	C	1.173088	0.292555	0.500020
C25	C	0.149141	-0.325845	0.000039
C26	C	0.649141	0.174155	0.500039
C27	C	0.228104	-0.328299	0.000043
C28	C	0.728104	0.171701	0.500043
C29	C	0.275682	-0.195102	0.000041
C30	C	0.775682	0.304898	0.500041
C31	C	0.244295	-0.059442	0.000051
C32	C	0.744295	0.440558	0.500051
C33	C	0.165333	-0.056990	0.000058
C34	C	0.665333	0.443010	0.500058
C35	C	0.562738	-0.069331	0.000024
C36	C	1.062738	0.430669	0.500024
C37	C	0.641704	-0.071794	0.000012
C38	C	1.141704	0.428206	0.500012
C39	C	0.625508	-0.340640	0.000010
C40	C	1.125508	0.159360	0.500010
C41	C	0.546547	-0.338188	0.000017
C42	C	1.046547	0.161812	0.500017
C43	C	0.515166	-0.202529	0.000035
C44	C	1.015166	0.297471	0.500035
C45	C	0.429545	-0.199869	0.000033
C46	C	0.929545	0.300131	0.500033
C47	C	0.361302	-0.197760	0.000031
C48	C	0.861302	0.302240	0.500031
C49	C	0.899100	0.070917	0.000024
C50	C	1.399100	0.570917	0.500024
C51	C	0.896484	0.234683	0.000031
C52	C	1.396484	0.734683	0.500031
C53	C	1.033720	-0.187574	0.000031
C54	C	1.533720	0.312426	0.500031
C55	C	1.117758	-0.190195	0.000043
C56	C	1.617758	0.309805	0.500043
C57	C	0.891747	-0.468558	0.000028
C58	C	1.391747	0.031442	0.500028
C59	C	0.894363	-0.632323	0.000031
C60	C	1.394363	-0.132323	0.500031
N61	N	0.895423	-0.198817	-0.425653
N62	N	1.395423	0.301183	0.074347
N63	N	0.895429	-0.198812	0.425701
N64	N	1.395429	0.301188	0.925701
H65	H	0.507811	-0.446650	0.000011
H66	H	1.007811	0.053350	0.500011
C67	C	0.296629	0.087072	0.000043
C68	C	0.796629	0.587072	0.500043
H69	H	0.348151	0.066185	0.000020
H70	H	0.848151	0.566185	0.500020
H71	H	0.287021	0.142711	0.095322
H72	H	0.787021	0.642711	0.595322
H73	H	0.287008	0.142701	-0.095250
H74	H	0.787008	0.642701	0.404750
H75	H	0.139783	0.053470	0.000064
H76	H	0.639783	0.553470	0.500064
H77	H	0.110407	-0.434310	0.000028
H78	H	0.610407	0.065690	0.500028
C79	C	0.660029	-0.489865	0.000016
C80	C	1.160029	0.010135	0.500016
H81	H	0.713870	-0.472257	0.000031
H82	H	1.213870	0.027743	0.500031
H83	H	0.643760	-0.544695	-0.095264
H84	H	1.143760	-0.044695	0.404736
H85	H	0.643762	-0.544693	0.095309
H86	H	1.143762	-0.044693	0.595309
C87	C	0.694040	0.074730	0.000032
C88	C	1.194040	0.574730	0.500032
H89	H	0.664043	0.155875	0.000063
H90	H	1.164043	0.655875	0.500063
H91	H	0.725178	0.079373	-0.095249
H92	H	1.225178	0.579373	0.404751
H93	H	0.725181	0.079339	0.095324
H94	H	1.225181	0.579339	0.595324
C95	C	0.528228	0.079887	0.000016
C96	C	1.028228	0.579887	0.500016
H97	H	0.567875	0.158858	-0.000009
H98	H	1.067875	0.658858	0.499991
H99	H	0.497765	0.086447	0.095296
H100	H	0.997765	0.586447	0.595296
H101	H	0.497761	0.086428	-0.095277
H102	H	0.997761	0.586428	0.404723
H103	H	0.253651	-0.438758	0.000055
H104	H	0.753651	0.061242	0.500055
