data_functionalizedCrystal
_audit_creation_method	'MofGen! by Chris Wilmer'
_symmetry_space_group_name_H-M	'P1'
_symmetry_Int_Tables_number	1
_symmetry_cell_setting	triclinic
loop_
_symmetry_equiv_pos_as_xyz
  x,y,z
_cell_length_a	13.635800
_cell_length_b	12.095388
_cell_length_c	7.076093
_cell_angle_alpha	117.540724
_cell_angle_beta	62.298535
_cell_angle_gamma	148.803837
loop_
_atom_site_label
_atom_site_type_symbol
_atom_site_fract_x
_atom_site_fract_y
_atom_site_fract_z
V1	V	1.968420	0.291701	0.663510
O2	O	1.765817	-0.017518	0.652431
O3	O	2.134160	0.581760	0.657480
O4	O	1.838075	0.285678	0.953571
O5	O	2.063951	0.280614	0.354291
V6	V	2.199376	0.254896	0.626707
O7	O	2.122752	0.372435	0.744243
O8	O	2.270142	0.174162	0.545974
O9	O	1.922032	-0.035163	0.632737
O10	O	2.460677	0.564115	0.637786
O11	O	2.162543	0.265983	0.935926
O12	O	2.218117	0.260919	0.336646
V13	V	2.468420	0.291701	0.663510
O14	O	2.265817	-0.017518	0.652431
O15	O	2.634160	0.581760	0.657480
O16	O	2.338075	0.285678	0.953571
O17	O	2.563951	0.280614	0.354291
V18	V	2.699376	0.254896	0.626707
O19	O	2.622752	0.372435	0.744243
O20	O	2.770142	0.174162	0.545974
O21	O	2.422032	-0.035163	0.632737
O22	O	2.960677	0.564115	0.637786
O23	O	2.662543	0.265983	0.935926
O24	O	2.718117	0.260919	0.336646
C25	C	2.106308	0.652521	0.646638
C26	C	2.285053	0.894096	0.643590
C27	C	2.228617	0.274825	1.024318
C28	C	2.162727	0.271761	1.265891
C29	C	1.728617	0.274825	1.024318
C30	C	1.662727	0.271761	1.265891
C31	C	1.781576	-0.105911	0.643585
C32	C	1.592248	-0.347478	0.646683
