data_functionalizedCrystal
_audit_creation_method	'MofGen! by Chris Wilmer'
_symmetry_space_group_name_H-M	'P1'
_symmetry_Int_Tables_number	1
_symmetry_cell_setting	triclinic
loop_
_symmetry_equiv_pos_as_xyz
  x,y,z
_cell_length_a	6.817900
_cell_length_b	16.256208
_cell_length_c	16.255661
_cell_angle_alpha	95.350611
_cell_angle_beta	103.488922
_cell_angle_gamma	103.499088
loop_
_atom_site_label
_atom_site_type_symbol
_atom_site_fract_x
_atom_site_fract_y
_atom_site_fract_z
V1	V	-4.026770	-0.117778	-0.264174
O2	O	-4.014188	0.004956	-0.258835
O3	O	-3.978378	-0.232858	-0.262666
O4	O	-3.978331	-0.116275	-0.379254
O5	O	-4.014235	-0.112433	-0.141440
V6	V	-4.510402	-0.103061	-0.249458
O7	O	-4.287789	-0.150061	-0.296455
O8	O	-4.699579	-0.070778	-0.217177
O9	O	-4.335587	0.012018	-0.250966
O10	O	-4.640380	-0.225796	-0.254797
O11	O	-4.640333	-0.108406	-0.372192
O12	O	-4.335634	-0.104564	-0.134379
C13	C	-3.823382	-0.260902	-0.258575
C14	C	-3.865103	-0.354983	-0.258109
C15	C	-3.823321	-0.112188	-0.407294
C16	C	-3.865001	-0.111721	-0.501374
C17	C	-4.180993	-0.643087	-0.261101
C18	C	-4.024588	-0.573415	-0.189040
C19	C	-4.015127	-0.693616	-0.256396
C20	C	-4.097310	-0.595653	-0.329275
C21	C	-3.941426	-0.527235	-0.257239
C22	C	-3.859240	-0.625174	-0.184270
C23	C	-3.932023	-0.647427	-0.324568
C24	C	-3.775481	-0.577774	-0.252486
C25	C	-4.057590	-0.789464	-0.255909
C26	C	-3.898947	-0.431387	-0.257719
C27	C	-3.775555	-0.106138	-0.724178
C28	C	-3.932006	-0.178197	-0.793840
C29	C	-3.941385	-0.110845	-0.673620
C30	C	-3.859223	-0.037961	-0.771594
C31	C	-4.015152	-0.109994	-0.840001
C32	C	-4.097318	-0.182968	-0.742052
C33	C	-4.024473	-0.042668	-0.719790
C34	C	-4.181062	-0.114748	-0.789432
C35	C	-3.898884	-0.111335	-0.577772
C36	C	-4.057670	-0.109510	-0.935849
C37	C	-4.153925	0.040058	-0.255055
C38	C	-4.091442	0.134138	-0.255526
C39	C	-4.153986	-0.108654	-0.106334
C40	C	-4.091545	-0.109117	-0.012253
H41	H	-4.352750	-0.671603	-0.264649
H42	H	-3.893415	-0.679666	-0.381870
H43	H	-3.603799	-0.102591	-0.695688
H44	H	-4.197565	-0.244317	-0.728743
C45	C	-3.527367	-0.501653	-0.320491
C46	C	-3.543463	-0.539453	-0.247550
H47	H	-3.384127	-0.477998	-0.317441
H48	H	-3.597694	-0.457558	-0.323317
H49	H	-3.589336	-0.543772	-0.370183
H50	H	-3.481506	-0.497333	-0.197858
H51	H	-3.473107	-0.583553	-0.244715
C52	C	-3.725533	-0.226625	-0.879446
C53	C	-3.879848	-0.255544	-0.837365
H54	H	-3.693334	-0.274375	-0.906317
H55	H	-3.603315	-0.191677	-0.839071
H56	H	-3.775315	-0.194220	-0.921498
H57	H	-3.830059	-0.287944	-0.795307
H58	H	-4.002089	-0.290506	-0.877743
C59	C	-3.599657	0.095013	-0.712153
C60	C	-3.723890	0.044776	-0.789709
H61	H	-3.516111	0.146090	-0.723337
H62	H	-3.511751	0.063917	-0.682267
H63	H	-3.686865	0.109112	-0.678265
H64	H	-3.636682	0.030670	-0.823595
H65	H	-3.811805	0.075877	-0.819609
C66	C	-4.444336	-0.610658	-0.416348
C67	C	-4.232636	-0.577543	-0.412004
H68	H	-4.527885	-0.599481	-0.467421
H69	H	-4.475820	-0.584231	-0.368191
H70	H	-4.472879	-0.670723	-0.416392
H71	H	-4.204089	-0.517476	-0.411954
H72	H	-4.201139	-0.603967	-0.460174
C73	C	-4.288652	-0.563056	-0.116312
C74	C	-4.076806	-0.529909	-0.111695
H75	H	-4.320898	-0.536194	-0.068567
H76	H	-4.316894	-0.623016	-0.115736
H77	H	-4.371836	-0.552424	-0.167760
H78	H	-3.993621	-0.540547	-0.060250
H79	H	-4.048544	-0.469935	-0.112262
C80	C	-4.516693	-0.123868	-0.762685
C81	C	-4.413081	-0.119686	-0.827720
H82	H	-4.659933	-0.126926	-0.786327
H83	H	-4.454706	-0.074174	-0.720585
H84	H	-4.505736	-0.173352	-0.737048
H85	H	-4.424024	-0.070199	-0.853353
H86	H	-4.475087	-0.169386	-0.869835
H87	H	-4.063040	0.014633	-0.687534
C88	C	-3.764536	-0.731664	-0.101727
C89	C	-3.723940	-0.643119	-0.101444
H90	H	-3.681026	-0.742741	-0.050591
H91	H	-3.731959	-0.757693	-0.149797
H92	H	-3.908155	-0.754603	-0.104972
H93	H	-3.580324	-0.620181	-0.098206
H94	H	-3.756503	-0.617079	-0.053361
