data_functionalizedCrystal
_audit_creation_method	'MofGen! by Chris Wilmer'
_symmetry_space_group_name_H-M	'P1'
_symmetry_Int_Tables_number	1
_symmetry_cell_setting	triclinic
loop_
_symmetry_equiv_pos_as_xyz
  x,y,z
_cell_length_a	21.606444
_cell_length_b	17.917603
_cell_length_c	21.606444
_cell_angle_alpha	90.001472
_cell_angle_beta	60.011779
_cell_angle_gamma	63.036310
loop_
_atom_site_label
_atom_site_type_symbol
_atom_site_fract_x
_atom_site_fract_y
_atom_site_fract_z
Zr1	Zr	0.670289	-0.093828	0.599923
O2	O	0.790766	-0.208023	0.505436
O3	O	0.543833	-0.058830	0.628867
O4	O	0.661672	-0.208040	0.634522
O5	O	0.681811	0.058897	0.495345
O6	O	0.661676	-0.208044	0.736372
O7	O	0.672928	-0.058812	0.499781
O8	O	0.450884	0.058866	0.726256
O9	O	0.892602	-0.208013	0.505461
O10	O	0.598064	-0.043896	0.717247
O11	O	0.604690	0.043952	0.637927
O12	O	0.743430	-0.131724	0.644585
O13	O	0.750056	-0.043876	0.565265
Zr14	Zr	0.684463	0.093898	0.755287
Zr15	Zr	0.670296	-0.093835	0.762362
Zr16	Zr	0.684457	0.093904	0.592849
Zr17	Zr	0.832706	-0.093813	0.599963
Zr18	Zr	0.522047	0.093883	0.755248
O19	O	0.810919	0.058899	0.726344
O20	O	0.790775	-0.208032	0.736403
O21	O	0.810910	0.058909	0.495376
O22	O	0.563987	0.208092	0.849775
O23	O	0.543842	-0.058839	0.859834
O24	O	0.563977	0.208102	0.618808
O25	O	0.672942	-0.058827	0.859865
O26	O	0.693081	0.208110	0.720689
O27	O	0.693077	0.208114	0.618839
O28	O	0.681825	0.058882	0.855430
O29	O	0.892607	-0.208018	0.634578
O30	O	0.462145	0.208088	0.720633
O31	O	0.462151	0.208083	0.849750
O32	O	0.450889	0.058860	0.855374
O33	O	0.903863	-0.058791	0.499837
O34	O	0.903868	-0.058796	0.628954
O35	O	0.611323	0.131794	0.710626
O36	O	0.604696	0.043945	0.789946
O37	O	0.750062	-0.043882	0.717284
O38	O	0.756689	0.043966	0.637964
C39	C	0.474218	0.000016	0.677556
C40	C	0.405268	0.000009	0.677540
C41	C	-0.069301	0.064899	0.731314
C42	C	-0.004494	0.064890	0.731298
C43	C	0.079099	0.000045	0.677636
C44	C	0.097885	-0.064800	0.623990
C45	C	0.033078	-0.064794	0.624009
C46	C	0.359246	-0.064827	0.623909
C47	C	0.424053	-0.064827	0.623892
C48	C	0.321674	0.064857	0.731199
C49	C	0.256867	0.064863	0.731218
C50	C	0.275657	0.000016	0.677575
C51	C	0.205385	0.000025	0.677594
C52	C	0.149371	0.000038	0.677613
C53	C	0.659655	-0.234790	0.686455
C54	C	0.653641	-0.314487	0.689458
C55	C	0.642654	-0.460421	0.694960
C56	C	0.712095	-0.539513	0.660252
C57	C	0.705982	-0.620715	0.663314
C58	C	0.648765	-0.379209	0.691900
C59	C	0.880535	0.000054	0.677655
C60	C	0.949485	0.000060	0.677671
C61	C	0.677368	0.000043	0.474419
C62	C	0.677365	0.000046	0.405460
C63	C	0.695098	0.234860	0.668756
C64	C	0.701112	0.314557	0.665752
C65	C	0.601486	0.045888	0.410989
C66	C	0.601489	0.045889	0.346192
C67	C	0.677371	0.000042	0.275866
C68	C	0.753256	-0.045801	0.270338
C69	C	0.753253	-0.045796	0.335134
C70	C	0.753270	-0.045821	0.009020
C71	C	0.753267	-0.045824	-0.055778
C72	C	0.601506	0.045865	0.020078
C73	C	0.601503	0.045869	0.084875
C74	C	0.677387	0.000030	0.079341
C75	C	0.677384	0.000031	0.149602
C76	C	0.677375	0.000035	0.205606
C77	C	0.677384	0.000026	0.880792
C78	C	0.677387	0.000023	0.949751
C79	C	0.474226	0.000007	0.880742
C80	C	0.405278	-0.000002	0.949685
C81	C	0.491939	0.234841	0.668707
C82	C	0.429003	0.314532	0.665687
C83	C	0.491947	0.234832	0.871893
C84	C	0.429014	0.314520	0.937832
C85	C	0.862805	-0.234763	0.483318
C86	C	0.925738	-0.314451	0.417378
C87	C	0.880527	0.000062	0.474468
C88	C	0.949474	0.000072	0.405525
C89	C	0.862814	-0.234771	0.686504
C90	C	0.925749	-0.314462	0.689524
C91	C	0.369437	-0.045867	0.944114
C92	C	0.304662	-0.045893	1.008887
C93	C	0.275724	-0.000049	1.079231
C94	C	0.311572	0.045817	1.084801
C95	C	0.376350	0.045838	1.020029
C96	C	0.402911	0.397816	0.702216
C97	C	0.343786	0.472701	0.699375
C98	C	0.310750	0.464300	0.660009
C99	C	0.336848	0.381007	0.623475
C100	C	0.395977	0.306124	0.626312
C101	C	0.396001	0.306087	1.010209
C102	C	0.336878	0.380955	1.072173
C103	C	0.310763	0.464256	1.061758
C104	C	0.343783	0.472688	0.989373
C105	C	0.402910	0.397820	0.927411
C106	C	0.958759	-0.306017	0.345002
C107	C	1.017903	-0.380885	0.283038
C108	C	1.044021	-0.464186	0.293453
C109	C	1.010997	-0.472618	0.365837
C110	C	0.951859	-0.397751	0.427799
C111	C	0.985321	0.045929	0.411097
C112	C	1.050114	0.045934	0.346324
C113	C	1.079053	0.000087	0.275980
C114	C	1.043203	-0.045775	0.270410
C115	C	0.978416	-0.045785	0.335183
C116	C	0.958767	-0.306033	0.728897
C117	C	1.017893	-0.380904	0.731749
C118	C	1.044006	-0.464203	0.695224
C119	C	1.010982	-0.472630	0.655849
C120	C	0.951852	-0.397760	0.653002
H121	H	-0.137364	0.117707	0.775010
O122	O	-0.024753	0.134825	0.789153
H123	H	-0.093767	0.179924	0.826465
H124	H	1.066775	-0.083102	0.213127
H125	H	0.539711	0.083200	0.142135
H126	H	0.815042	-0.083115	0.330627
O127	O	0.400649	-0.095326	0.868247
H128	H	0.364845	-0.127229	0.875267
H129	H	0.776135	-0.546240	0.628237
H130	H	0.924973	-0.404628	0.486730
H131	H	0.417254	0.238266	1.018703
O132	O	0.424123	0.216268	0.586959
H133	H	0.408932	0.180010	0.628427
H134	H	0.262604	0.525282	0.657705
O135	O	0.557827	-0.451500	0.737356
H136	H	0.566284	-0.517612	0.733126
O137	O	0.519642	0.095338	0.486841
H138	H	0.466880	0.127221	0.479797
H139	H	0.924976	-0.404635	0.620937
H140	H	0.306380	0.117657	0.774879
O141	O	0.414994	0.095324	1.026041
H142	H	0.383976	0.127205	1.085839
H143	H	0.539701	0.083220	0.350701
O144	O	0.280351	0.095271	1.160674
H145	H	0.229277	0.087555	1.204772
O146	O	0.930595	-0.216176	0.333757
H147	H	0.945756	-0.179860	0.360025
O148	O	1.088758	0.095419	0.352345
H149	H	1.156727	0.049146	0.326505
O150	O	0.265998	-0.095357	1.002872
H151	H	0.296996	-0.127214	0.943073
O152	O	0.835115	-0.095268	-0.131635
H153	H	0.887883	-0.127135	-0.124599
H154	H	1.032270	-0.540451	0.374309
O155	O	1.039129	-0.562480	0.616482
H156	H	1.006226	-0.555773	0.588635
O157	O	0.301260	0.371852	1.150239
H158	H	0.329343	0.301348	1.147065
O159	O	0.315605	0.562539	0.978151
H160	H	0.348494	0.555837	0.917413
H161	H	0.961765	0.083268	0.468369
H162	H	1.092154	-0.525160	0.697548
H163	H	1.092175	-0.525141	0.242993
O164	O	0.939753	-0.095246	0.329166
H165	H	0.871783	-0.048962	0.355023
H166	H	1.131807	0.000103	0.223245
H167	H	0.429803	0.404673	0.734272
H168	H	1.044776	-0.374025	0.763811
O169	O	0.519653	0.095313	0.026051
H170	H	0.519671	0.146003	-0.003474
O171	O	0.166704	0.134793	0.789105
H172	H	0.164528	0.179872	0.826412
O173	O	0.835112	-0.095271	0.003052
H174	H	0.887874	-0.127161	-0.056737
H175	H	0.815041	-0.083126	0.213072
H176	H	0.222976	-0.000072	1.131968
H177	H	0.937516	-0.238214	0.758641
H178	H	0.322544	0.540514	0.729129
H179	H	0.492122	-0.117631	0.580188
H180	H	0.374556	-0.117628	0.580228
O181	O	1.053510	-0.371782	0.204971
H182	H	1.038679	-0.403717	0.174748
O183	O	0.246981	0.545004	1.128591
H184	H	0.228408	0.525136	1.180667
O185	O	0.301189	0.371951	0.581041
H186	H	0.255677	0.438019	0.585226
O187	O	0.438492	0.406930	0.849350
H188	H	0.470741	0.443306	0.841396
O189	O	0.188044	-0.134744	0.566108
H190	H	0.229954	-0.123851	0.575100
H191	H	0.048379	-0.117594	0.580329
