data_functionalizedCrystal
_audit_creation_method	'MofGen! by Chris Wilmer'
_symmetry_space_group_name_H-M	'P1'
_symmetry_Int_Tables_number	1
_symmetry_cell_setting	triclinic
loop_
_symmetry_equiv_pos_as_xyz
  x,y,z
_cell_length_a	15.625950
_cell_length_b	15.625429
_cell_length_c	16.176319
_cell_angle_alpha	71.916053
_cell_angle_beta	108.065996
_cell_angle_gamma	89.777900
loop_
_atom_site_label
_atom_site_type_symbol
_atom_site_fract_x
_atom_site_fract_y
_atom_site_fract_z
O1	O	1.196199	0.117770	0.254431
O2	O	0.933777	0.131777	0.171589
O3	O	1.071997	-0.006456	0.254449
O4	O	1.057979	0.256003	0.171571
O5	O	1.071978	-0.006464	0.391939
O6	O	0.933758	0.131768	0.309079
O7	O	1.196180	0.117761	0.391921
Cu8	Cu	1.064967	0.124764	0.363054
Cu9	Cu	1.064990	0.124774	0.200456
O10	O	1.057960	0.255994	0.309061
C11	C	0.900183	0.131136	0.230460
C12	C	0.800114	0.129227	0.201043
C13	C	0.470853	0.122973	0.478907
C14	C	0.376820	0.121197	0.451221
C15	C	0.376887	0.121207	0.301348
C16	C	0.470921	0.122988	0.329020
C17	C	0.517897	0.123870	0.417801
C18	C	0.517966	0.123885	0.267914
C19	C	0.611992	0.125660	0.295586
C20	C	0.658975	0.126539	0.384364
C21	C	0.611923	0.125645	0.445472
C22	C	0.470989	0.122996	0.179136
C23	C	0.518033	0.123893	0.118030
C24	C	0.612061	0.125675	0.145699
C25	C	0.659043	0.126554	0.234477
C26	C	0.659112	0.126569	0.084591
C27	C	0.753139	0.128345	0.112262
C28	C	0.753070	0.128330	0.262149
C29	C	1.071352	-0.040049	0.333071
C30	C	1.069448	-0.140132	0.362497
C31	C	1.063212	-0.469272	0.084570
C32	C	1.061418	-0.563315	0.112245
C33	C	1.061398	-0.563311	0.262127
C34	C	1.063196	-0.469267	0.234467
C35	C	1.064101	-0.422254	0.145687
C36	C	1.064085	-0.422249	0.295583
C37	C	1.065878	-0.328212	0.267922
C38	C	1.066781	-0.281193	0.179145
C39	C	1.065894	-0.328217	0.118026
C40	C	1.063173	-0.469262	0.384360
C41	C	1.064063	-0.422244	0.445477
C42	C	1.065862	-0.328206	0.417819
C43	C	1.066765	-0.281187	0.329042
C44	C	1.066749	-0.281182	0.478938
C45	C	1.068542	-0.187145	0.451277
C46	C	1.068558	-0.187150	0.301381
C47	C	1.229773	0.118403	0.333048
C48	C	1.329843	0.120312	0.362460
C49	C	1.058605	0.289587	0.230437
C50	C	1.060509	0.389671	0.201005
N51	N	1.064958	0.124756	0.477419
N52	N	1.065006	0.124775	0.086095
C53	C	1.126180	0.063572	0.557372
C54	C	1.126185	0.063571	0.643920
C55	C	1.064971	0.124759	0.650514
C56	C	1.003742	0.185947	0.570552
C57	C	1.003734	0.185942	0.484006
C58	C	1.003773	0.185964	0.919585
C59	C	1.003787	0.185965	1.006141
C60	C	1.126224	0.063592	1.079500
C61	C	1.126216	0.063588	0.992953
C62	C	1.064984	0.124771	0.912999
C63	C	1.064979	0.124770	0.819153
C64	C	1.064980	0.124765	0.744358
H65	H	0.620852	0.125842	0.012308
O66	O	0.798726	0.129353	0.348326
C67	C	0.843037	0.208385	0.342399
H68	H	0.807664	0.262381	0.273071
H69	H	0.916589	0.192092	0.349207
C70	C	0.883313	0.177470	0.505529
C71	C	0.839862	0.243790	0.420382
H72	H	0.881359	0.199308	0.553635
H73	H	0.853463	0.124222	0.509524
H74	H	0.944602	0.163897	0.511190
H75	H	0.778572	0.257353	0.414718
H76	H	0.869702	0.297041	0.416388
H77	H	0.791442	0.129080	0.062502
O78	O	0.331008	0.120452	0.510462
C79	C	0.266540	0.197455	0.472540
H80	H	0.249114	0.223204	0.394522
H81	H	0.295695	0.252767	0.501691
C82	C	0.201675	0.140445	0.592952
C83	C	0.180267	0.172066	0.497128
H84	H	0.148459	0.124786	0.608122
H85	H	0.245110	0.088568	0.618503
H86	H	0.225973	0.186544	0.617233
H87	H	0.155981	0.125964	0.472851
H88	H	0.136826	0.223935	0.471574
H89	H	0.338628	0.120485	0.229064
H90	H	1.063322	-0.460534	0.517760
H91	H	1.061703	-0.545832	0.406875
H92	H	1.066640	-0.289938	0.045735
H93	H	1.069304	-0.148871	0.229090
H94	H	1.068231	-0.204620	0.156622
H95	H	0.953879	0.235764	0.418905
H96	H	1.063957	-0.430993	0.012280
H97	H	1.066003	-0.319472	0.551219
O98	O	0.379639	0.121367	0.152102
C99	C	0.338129	0.198789	0.075338
H100	H	0.388968	0.225846	0.038725
H101	H	0.314318	0.253096	0.099289
C102	C	0.193833	0.140217	0.053556
C103	C	0.256273	0.173444	0.008583
H104	H	0.143338	0.124585	0.012380
H105	H	0.221798	0.088058	0.105276
H106	H	0.174001	0.185478	0.073513
H107	H	0.276112	0.128179	-0.011362
H108	H	0.228309	0.225595	-0.043141
H109	H	1.060686	-0.601593	0.062467
O110	O	0.472460	0.122884	0.031834
C111	C	0.505568	0.045323	0.019397
H112	H	0.538450	-0.008730	0.089309
H113	H	0.557888	0.064003	-0.017237
C114	C	0.386255	0.074772	-0.125007
C115	C	0.426634	0.008380	-0.039141
H116	H	0.337567	0.051985	-0.161120
H117	H	0.363951	0.127028	-0.116631
H118	H	0.429864	0.090333	-0.155524
H119	H	0.383029	-0.007171	-0.008621
H120	H	0.448929	-0.043879	-0.047514
H121	H	1.060657	-0.601601	0.334411
O122	O	1.185658	0.004023	1.157106
C123	C	1.170881	-0.085250	1.158314
H124	H	1.136134	-0.085203	1.085055
H125	H	1.125982	-0.113215	1.201960
C126	C	1.305005	-0.145114	1.289616
C127	C	1.262335	-0.145057	1.199636
H128	H	1.361417	-0.182007	1.315109
H129	H	1.314960	-0.084969	1.288805
H130	H	1.267580	-0.168416	1.325976
H131	H	1.299755	-0.121745	1.163276
H132	H	1.252389	-0.205200	1.200442
O133	O	1.069426	-0.141608	0.510765
C134	C	1.068211	-0.203262	0.595044
H135	H	1.095471	-0.273991	0.602460
H136	H	0.995753	-0.203908	0.596552
C137	C	1.094458	-0.087325	0.665942
C138	C	1.127947	-0.174194	0.675055
H139	H	1.131302	-0.069393	0.715297
H140	H	1.095274	-0.045786	0.609161
H141	H	1.034077	-0.087874	0.667196
H142	H	1.188322	-0.173641	0.673789
H143	H	1.127143	-0.215732	0.731838
O144	O	1.185503	0.004058	0.550878
C145	C	1.137126	-0.051666	0.503082
H146	H	1.066655	-0.015860	0.458254
H147	H	1.130880	-0.118279	0.554575
C148	C	1.274469	-0.114901	0.496927
C149	C	1.187917	-0.070919	0.441862
H150	H	1.305800	-0.126782	0.459167
H151	H	1.307063	-0.077361	0.529131
H152	H	1.269252	-0.170407	0.539835
H153	H	1.193136	-0.015410	0.398964
H154	H	1.155326	-0.108451	0.409650
H155	H	1.176036	0.013749	0.709020
H156	H	1.176065	0.013765	0.987590
H157	H	0.953936	0.235793	1.011502
O158	O	0.516475	0.123671	0.565212
C159	C	0.503558	0.045231	0.630459
H160	H	0.484779	-0.009785	0.597466
H161	H	0.446683	0.061838	0.655160
C162	C	0.614712	0.078999	0.753453
C163	C	0.591654	0.011425	0.712933
H164	H	0.669051	0.058147	0.804329
H165	H	0.623412	0.131848	0.709496
H166	H	0.567309	0.092832	0.774030
H167	H	0.639052	-0.002399	0.692347
H168	H	0.582964	-0.041427	0.756889
O169	O	0.944389	0.245528	0.841956
C170	C	0.959144	0.334799	0.840775
H171	H	1.031317	0.335370	0.886001
H172	H	0.909229	0.361182	0.868160
C173	C	0.856552	0.395200	0.685854
C174	C	0.945198	0.395903	0.741395
H175	H	0.847945	0.432894	0.624552
H176	H	0.846608	0.335057	0.686650
H177	H	0.814966	0.417184	0.708685
H178	H	0.986781	0.373909	0.718571
H179	H	0.955149	0.456044	0.740593
O180	O	0.750329	0.128136	0.411192
C181	C	0.791856	0.050700	0.405768
H182	H	0.741059	0.023677	0.354859
H183	H	0.815571	-0.003622	0.476544
C184	C	0.936188	0.109187	0.435532
C185	C	0.873801	0.076001	0.372999
H186	H	0.986738	0.124791	0.415323
H187	H	0.908212	0.161356	0.439190
H188	H	0.955941	0.063913	0.494508
H189	H	0.854041	0.121278	0.314028
H190	H	0.901776	0.023840	0.369330
O191	O	0.657546	0.126344	0.531777
C192	C	0.644629	0.047903	0.597024
H193	H	0.625850	-0.007112	0.564032
H194	H	0.587753	0.064511	0.621726
C195	C	0.755783	0.081671	0.720019
C196	C	0.732725	0.014098	0.679499
H197	H	0.810122	0.060820	0.770895
H198	H	0.764483	0.134520	0.676061
H199	H	0.708379	0.095505	0.740595
H200	H	0.780123	0.000273	0.658913
H201	H	0.724035	-0.038755	0.723455
H202	H	0.953896	0.235764	0.575925
