data_functionalizedCrystal
_audit_creation_method	'MofGen! by Chris Wilmer'
_symmetry_space_group_name_H-M	'P1'
_symmetry_Int_Tables_number	1
_symmetry_cell_setting	triclinic
loop_
_symmetry_equiv_pos_as_xyz
  x,y,z
_cell_length_a	17.699083
_cell_length_b	14.044220
_cell_length_c	16.176319
_cell_angle_alpha	89.992517
_cell_angle_beta	89.998611
_cell_angle_gamma	88.235946
loop_
_atom_site_label
_atom_site_type_symbol
_atom_site_fract_x
_atom_site_fract_y
_atom_site_fract_z
O1	O	1.012346	0.119850	-0.068632
O2	O	0.793044	0.135443	-0.068659
O3	O	0.899403	-0.010330	-0.068638
O4	O	0.905987	0.265624	-0.068653
O5	O	0.899387	-0.010340	0.068855
O6	O	0.793027	0.135434	0.068834
O7	O	1.012330	0.119841	0.068861
Cu8	Cu	0.902677	0.127637	0.081402
Cu9	Cu	0.902696	0.127648	-0.081200
O10	O	0.905970	0.265614	0.068840
C11	C	0.764800	0.134880	0.000084
C12	C	0.680666	0.133204	0.000074
C13	C	0.637948	0.218769	0.000069
C14	C	0.558895	0.217189	0.000080
C15	C	0.522563	0.130041	0.000089
C16	C	0.565287	0.044469	0.000096
C17	C	0.644338	0.046050	0.000092
C18	C	0.246484	0.038089	0.000117
C19	C	0.167427	0.036514	0.000120
C20	C	0.161041	0.209227	0.000106
C21	C	0.240092	0.210809	0.000101
C22	C	0.282809	0.125237	0.000112
C23	C	0.368527	0.126952	0.000102
C24	C	0.436847	0.128325	0.000094
C25	C	0.896513	-0.045643	0.000109
C26	C	0.887917	-0.150849	0.000109
C27	C	0.872202	-0.343474	0.000095
C28	C	0.933168	-0.401248	0.000100
C29	C	0.924424	-0.508431	0.000092
C30	C	0.880945	-0.236281	0.000102
C31	C	1.040574	0.120404	0.000116
C32	C	1.124707	0.122081	0.000121
C33	C	0.908860	0.300927	0.000091
C34	C	0.917456	0.406133	0.000086
N35	N	0.902668	0.127628	0.195767
N36	N	0.902710	0.127648	-0.195565
C37	C	0.949782	0.063106	0.239041
C38	C	0.949786	0.063105	0.325588
C39	C	0.902679	0.127632	0.368860
C40	C	0.855561	0.192157	0.325580
C41	C	0.855554	0.192153	0.239034
C42	C	0.855588	0.192175	0.674608
C43	C	0.855600	0.192176	0.761160
C44	C	0.949820	0.063127	0.761161
C45	C	0.949813	0.063123	0.674616
C46	C	0.902692	0.127644	0.631344
C47	C	0.902687	0.127643	0.537500
C48	C	0.902687	0.127638	0.462702
H49	H	0.524117	0.286865	0.000075
O50	O	0.995446	0.000337	0.367656
C51	C	0.950989	-0.058064	0.417746
H52	H	0.891198	-0.059578	0.391677
H53	H	0.949031	-0.028401	0.483336
C54	C	1.059274	-0.158024	0.451093
C55	C	0.985840	-0.159890	0.419071
H56	H	1.080772	-0.220834	0.451915
H57	H	1.089227	-0.118677	0.417350
H58	H	1.057633	-0.133300	0.505749
H59	H	0.987483	-0.184601	0.364414
H60	H	0.955888	-0.199244	0.452806
H61	H	0.813445	-0.374508	0.000085
O62	O	0.995564	0.000333	0.197138
C63	C	1.037161	-0.056601	0.253896
H64	H	1.006067	-0.057618	0.315592
H65	H	1.095454	-0.025915	0.263089
C66	C	1.084047	-0.157619	0.144359
C67	C	1.045854	-0.158875	0.220133
H68	H	1.089413	-0.220706	0.123532
H69	H	1.056025	-0.119260	0.106119
H70	H	1.132621	-0.132044	0.152030
H71	H	0.997278	-0.184439	0.212459
H72	H	1.073868	-0.197241	0.258371
O73	O	0.995545	0.000310	0.803108
C74	C	0.976899	-0.093490	0.781987
H75	H	0.947735	-0.093325	0.719151
H76	H	0.937255	-0.122739	0.830702
C77	C	1.085300	-0.156864	0.855165
C78	C	1.049486	-0.156663	0.777986
H79	H	1.130074	-0.195835	0.852700
H80	H	1.097861	-0.093670	0.869398
H81	H	1.052256	-0.181236	0.895753
H82	H	1.082527	-0.132281	0.737402
H83	H	1.036932	-0.219855	0.763746
O84	O	0.685869	-0.037044	0.000239
C85	C	0.731802	-0.041291	0.071435
H86	H	0.706167	0.007237	0.121204
H87	H	0.790854	-0.016891	0.055332
C88	C	0.768319	-0.204044	0.042605
C89	C	0.736830	-0.144448	0.103734
H90	H	0.771424	-0.267677	0.062527
H91	H	0.737376	-0.201182	-0.005364
H92	H	0.817526	-0.183699	0.029191
H93	H	0.687620	-0.164786	0.117140
H94	H	0.767765	-0.147316	0.151706
H95	H	0.991930	-0.370212	0.000052
H96	H	0.988174	0.010583	0.639387
O97	O	0.809763	0.254890	0.803067
C98	C	0.768182	0.311852	0.746317
H99	H	0.764700	0.272996	0.684629
H100	H	0.797494	0.382224	0.737099
C101	C	0.692144	0.379223	0.855874
C102	C	0.687862	0.331496	0.780110
H103	H	0.642600	0.391345	0.876720
H104	H	0.720159	0.340850	0.894109
H105	H	0.716574	0.437861	0.848182
H106	H	0.663441	0.272855	0.787805
H107	H	0.659841	0.369860	0.741878
H108	H	0.667523	0.289735	0.000061
H109	H	0.126251	0.278904	0.000101
O110	O	0.809872	0.254803	0.367740
C111	C	0.819967	0.240959	0.453407
H112	H	0.877743	0.205443	0.465225
H113	H	0.773930	0.193493	0.477982
C114	C	0.744179	0.381552	0.483309
C115	C	0.815142	0.337938	0.497824
H116	H	0.741199	0.441372	0.510709
H117	H	0.737374	0.390877	0.425594
H118	H	0.705822	0.341987	0.503788
H119	H	0.853496	0.377497	0.477336
H120	H	0.821953	0.328622	0.555538
O121	O	0.809768	0.254923	0.197124
C122	C	0.768178	0.311863	0.253872
H123	H	0.799282	0.312890	0.315561
H124	H	0.709888	0.281176	0.263090
C125	C	0.721272	0.412864	0.144313
C126	C	0.759477	0.414132	0.220078
H127	H	0.715901	0.475948	0.123466
H128	H	0.749289	0.374501	0.106079
H129	H	0.672701	0.387287	0.152005
H130	H	0.808051	0.439697	0.212383
H131	H	0.731468	0.452502	0.258309
H132	H	0.269670	0.281773	0.000089
H133	H	0.817222	0.244712	0.639383
H134	H	0.281255	-0.031590	0.000127
H135	H	0.137848	-0.034456	0.000128
H136	H	0.535699	-0.026488	0.000116
