data_functionalizedCrystal
_audit_creation_method	'MofGen! by Chris Wilmer'
_symmetry_space_group_name_H-M	'P1'
_symmetry_Int_Tables_number	1
_symmetry_cell_setting	triclinic
loop_
_symmetry_equiv_pos_as_xyz
  x,y,z
_cell_length_a	16.120484
_cell_length_b	16.120566
_cell_length_c	16.625539
_cell_angle_alpha	92.920705
_cell_angle_beta	92.868615
_cell_angle_gamma	89.831930
loop_
_atom_site_label
_atom_site_type_symbol
_atom_site_fract_x
_atom_site_fract_y
_atom_site_fract_z
Zn1	Zn	-0.395590	-1.254482	-0.536801
Zn2	Zn	-0.062256	-0.921149	-0.203467
Zn3	Zn	0.271077	-0.587815	0.129866
Zn4	Zn	-0.534650	-1.247323	-0.408429
Zn5	Zn	-0.201317	-0.913990	-0.075096
Zn6	Zn	0.132016	-0.580657	0.258238
Zn7	Zn	-0.388559	-1.115420	-0.394818
Zn8	Zn	-0.055226	-0.782086	-0.061485
Zn9	Zn	0.278107	-0.448753	0.271849
Zn10	Zn	-0.527544	-1.108334	-0.536055
Zn11	Zn	-0.194211	-0.775001	-0.202722
Zn12	Zn	0.139122	-0.441668	0.130611
O13	O	-0.461586	-1.181390	-0.469026
O14	O	-0.128253	-0.848057	-0.135693
O15	O	0.205081	-0.514723	0.197641
O16	O	-0.419952	-1.369898	-0.525780
O17	O	-0.086619	-1.036565	-0.192447
O18	O	0.246714	-0.703231	0.140886
O19	O	-0.515303	-1.229795	-0.293791
O20	O	-0.181970	-0.896462	0.039542
O21	O	0.151364	-0.563129	0.372876
O22	O	-0.273129	-1.139828	-0.408268
O23	O	0.060205	-0.806494	-0.074935
O24	O	0.393538	-0.473161	0.258399
O25	O	-0.522120	-1.364639	-0.431466
O26	O	-0.188787	-1.031305	-0.098133
O27	O	0.144547	-0.697972	0.235201
O28	O	-0.278294	-1.241996	-0.512582
O29	O	0.055040	-0.908663	-0.179249
O30	O	0.388373	-0.575330	0.154084
O31	O	-0.407970	-1.132886	-0.283791
O32	O	-0.074637	-0.799553	0.049542
O33	O	0.258696	-0.466220	0.382875
O34	O	-0.401080	-0.998114	-0.407545
O35	O	-0.067746	-0.664781	-0.074212
O36	O	0.265587	-0.331447	0.259121
O37	O	-0.510008	-1.127752	-0.648987
O38	O	-0.176675	-0.794418	-0.315653
O39	O	0.156658	-0.461085	0.017680
O40	O	-0.503191	-0.992908	-0.511312
O41	O	-0.169858	-0.659575	-0.177979
O42	O	0.163475	-0.326242	0.155355
O43	O	-0.413062	-1.235126	-0.649534
O44	O	-0.079729	-0.901793	-0.316201
O45	O	0.253605	-0.568459	0.017132
O46	O	-0.650071	-1.222925	-0.430743
O47	O	-0.316738	-0.889592	-0.097410
O48	O	0.016596	-0.556258	0.235923
O49	O	-0.644850	-1.120810	-0.524510
O50	O	-0.311517	-0.787477	-0.191177
O51	O	0.021817	-0.454144	0.142157
C52	C	-0.450602	-0.965339	-0.457871
C53	C	-0.117269	-0.632006	-0.124538
C54	C	0.216065	-0.298672	0.208795
C55	C	-0.445923	-0.872910	-0.453119
C56	C	-0.112590	-0.539577	-0.119786
C57	C	0.220743	-0.206244	0.213547
C58	C	-0.437361	-0.703683	-0.444450
C59	C	-0.104028	-0.370350	-0.111116
C60	C	0.229305	-0.037016	0.222217
C61	C	-0.485882	-0.659934	-0.493612
C62	C	-0.152548	-0.326600	-0.160279
C63	C	0.180785	0.006733	0.173055
C64	C	-0.481118	-0.565770	-0.488788
C65	C	-0.147785	-0.232436	-0.155455
C66	C	0.185549	0.100897	0.177879
C67	C	-0.442124	-0.797855	-0.449272
C68	C	-0.108791	-0.464522	-0.115939
C69	C	0.224543	-0.131189	0.217394
C70	C	-0.677633	-1.170345	-0.479041
C71	C	-0.344300	-0.837011	-0.145708
C72	C	-0.010967	-0.503678	0.187625
C73	C	-0.770063	-1.165695	-0.483357
C74	C	-0.436730	-0.832362	-0.150024
C75	C	-0.103396	-0.499029	0.183310
C76	C	-0.939294	-1.157212	-0.491253
C77	C	-0.605961	-0.823879	-0.157920
C78	C	-0.272627	-0.490546	0.175414
C79	C	-0.983045	-1.205716	-0.446820
C80	C	-0.649711	-0.872383	-0.113486
C81	C	-0.316378	-0.539050	0.219847
C82	C	-1.077210	-1.200996	-0.451213
C83	C	-0.743877	-0.867663	-0.117880
C84	C	-0.410544	-0.534330	0.215454
C85	C	-0.845120	-1.161931	-0.486861
C86	C	-0.511786	-0.828598	-0.153527
C87	C	-0.178453	-0.495265	0.179806
C88	C	-0.244696	-1.192501	-0.458990
C89	C	0.088637	-0.859168	-0.125657
C90	C	0.421971	-0.525834	0.207677
C91	C	-0.152270	-1.197236	-0.454713
C92	C	0.181063	-0.863902	-0.121380
C93	C	0.514396	-0.530569	0.211953
C94	C	-0.461527	-1.181447	-0.679335
C95	C	-0.128193	-0.848114	-0.346001
C96	C	0.205140	-0.514780	-0.012668
C97	C	-0.461501	-1.181471	-0.768956
C98	C	-0.128168	-0.848138	-0.435623
C99	C	0.205165	-0.514805	-0.102289
C100	C	-0.472616	-0.398284	-0.480211
C101	C	-0.139282	-0.064951	-0.146878
C102	C	0.194051	0.268382	0.186455
C103	C	-0.477323	-0.490711	-0.484945
C104	C	-0.143989	-0.157378	-0.151611
C105	C	0.189344	0.175955	0.181722
C106	C	-0.461410	-1.181514	-1.097129
C107	C	-0.128077	-0.848181	-0.763796
C108	C	0.205256	-0.514848	-0.430463
C109	C	-0.461438	-1.181500	-1.005822
C110	C	-0.128105	-0.848167	-0.672488
C111	C	0.205229	-0.514833	-0.339155
C112	C	-0.461456	-1.181493	-0.933046
C113	C	-0.128123	-0.848160	-0.599712
C114	C	0.205210	-0.514827	-0.266379
C115	C	-0.461483	-1.181478	-0.841732
C116	C	-0.128150	-0.848145	-0.508398
C117	C	0.205184	-0.514811	-0.175065
C118	C	-0.461587	-1.181384	-0.259535
C119	C	-0.128254	-0.848050	0.073799
C120	C	0.205079	-0.514717	0.407132
C121	C	-0.461386	-1.181532	-0.169912
C122	C	-0.128053	-0.848199	0.163422
C123	C	0.205280	-0.514866	0.496755
H124	H	-0.530998	-0.693198	-0.539325
H125	H	-0.197665	-0.359865	-0.205992
H126	H	0.135669	-0.026531	0.127342
H127	H	-0.972557	-1.112144	-0.532589
H128	H	-0.639224	-0.778811	-0.199255
H129	H	-0.305890	-0.445478	0.134078
H130	H	-0.392248	-0.670421	-0.398741
H131	H	-0.058915	-0.337087	-0.065407
H132	H	0.274418	-0.003754	0.267926
H133	H	-0.949779	-1.250787	-0.405479
H134	H	-0.616446	-0.917453	-0.072146
H135	H	-0.283113	-0.584120	0.261187
