data_functionalizedCrystal
_audit_creation_method	'MofGen! by Chris Wilmer'
_symmetry_space_group_name_H-M	'P1'
_symmetry_Int_Tables_number	1
_symmetry_cell_setting	triclinic
loop_
_symmetry_equiv_pos_as_xyz
  x,y,z
_cell_length_a	17.699077
_cell_length_b	10.654550
_cell_length_c	9.730223
_cell_angle_alpha	90.004253
_cell_angle_beta	90.002731
_cell_angle_gamma	83.882753
loop_
_atom_site_label
_atom_site_type_symbol
_atom_site_fract_x
_atom_site_fract_y
_atom_site_fract_z
O1	O	-1.005087	-0.158770	-0.114271
O2	O	-0.784839	-0.179439	-0.114278
O3	O	-0.900027	0.013724	-0.114266
O4	O	-0.889899	-0.351932	-0.114283
O5	O	-0.900019	0.013729	0.114314
O6	O	-0.784832	-0.179434	0.114302
O7	O	-1.005079	-0.158764	0.114309
Zn8	Zn	-0.894954	-0.169098	0.150597
Zn9	Zn	-0.894964	-0.169105	-0.150567
O10	O	-0.889892	-0.351927	0.114297
C11	C	-0.756634	-0.178697	0.000011
C12	C	-0.672601	-0.176479	0.000009
C13	C	-1.033285	-0.159506	0.000016
C14	C	-1.117317	-0.161724	0.000010
C15	C	-0.633123	-0.175431	0.124609
C16	C	-0.554167	-0.173327	0.124611
C17	C	-0.514690	-0.172280	0.000010
C18	C	-0.554174	-0.173324	-0.124600
C19	C	-0.633129	-0.175419	-0.124600
C20	C	-0.235757	-0.164873	-0.124602
C21	C	-0.156796	-0.162781	-0.124592
C22	C	-0.156795	-0.162781	0.124609
C23	C	-0.235750	-0.164876	0.124609
C24	C	-0.275228	-0.165913	-0.000001
C25	C	-0.360841	-0.168192	-0.000001
C26	C	-0.429078	-0.170009	0.000009
C27	C	-0.899279	0.060511	0.000023
C28	C	-0.897055	0.199916	0.000021
C29	C	-0.890639	-0.398715	0.000004
C30	C	-0.892864	-0.538119	-0.000003
N31	N	-0.894953	-0.169093	0.356134
C32	C	-0.964875	0.280591	0.000023
C33	C	-0.962780	0.411575	0.000006
C34	C	-0.825038	0.381196	-0.000008
C35	C	-0.827134	0.250214	-0.000001
N36	N	-0.894971	-0.169100	-0.356103
C37	C	-0.945976	-0.083596	0.428065
C38	C	-0.945983	-0.083596	0.571948
C39	C	-0.843943	-0.254601	0.571956
C40	C	-0.843933	-0.254594	0.428075
H41	H	-0.522029	-0.172452	0.226073
O42	O	-1.032729	0.231520	0.000091
C43	C	-1.020039	0.098612	0.000063
H44	H	-0.961137	0.067671	0.043340
H45	H	-1.023901	0.062151	-0.109597
C46	C	-1.152873	0.082483	0.036552
C47	C	-1.080531	0.044480	0.089716
H48	H	-1.190189	0.049090	0.091848
H49	H	-1.161423	0.172026	0.036565
H50	H	-1.156080	0.052097	-0.054831
H51	H	-1.077322	0.074881	0.181090
H52	H	-1.071982	-0.045059	0.089720
H53	H	-0.987530	-0.013976	0.630511
H54	H	-0.802380	-0.324216	0.369505
O55	O	-0.274045	-0.166109	-0.245681
C56	C	-0.246732	-0.274301	-0.321502
H57	H	-0.219438	-0.349716	-0.248597
H58	H	-0.202706	-0.248508	-0.399181
C59	C	-0.346760	-0.232824	-0.487423
C60	C	-0.313243	-0.325455	-0.397877
H61	H	-0.387786	-0.264376	-0.534541
H62	H	-0.365160	-0.159930	-0.436344
H63	H	-0.310065	-0.211338	-0.552143
H64	H	-0.349936	-0.346927	-0.333150
H65	H	-0.294851	-0.398353	-0.448948
O66	O	-1.028610	0.490071	0.000192
C67	C	-1.031522	0.566742	0.118584
H68	H	-0.971411	0.573184	0.158044
H69	H	-1.066312	0.523772	0.201490
C70	C	-1.142738	0.691928	0.034145
C71	C	-1.068908	0.699848	0.082604
H72	H	-1.165802	0.774032	0.011955
H73	H	-1.140779	0.640271	-0.045616
H74	H	-1.171720	0.656114	0.103242
H75	H	-1.039925	0.735647	0.013502
H76	H	-1.070864	0.751515	0.162353
O77	O	-0.757185	0.430268	0.000044
C78	C	-0.769876	0.563176	0.000008
H79	H	-0.828777	0.594123	0.043285
H80	H	-0.766021	0.599617	-0.109654
C81	C	-0.637041	0.579316	0.036493
C82	C	-0.709381	0.617326	0.089657
H83	H	-0.599723	0.612720	0.091786
H84	H	-0.628490	0.489773	0.036511
H85	H	-0.633839	0.609687	-0.054892
H86	H	-0.712585	0.586941	0.181032
H87	H	-0.717931	0.706865	0.089656
H88	H	-0.771902	0.184524	-0.000007
O89	O	-0.794313	-0.337703	0.641630
C90	C	-0.749288	-0.413181	0.547282
H91	H	-0.748160	-0.361690	0.444727
H92	H	-0.774342	-0.506424	0.531958
C93	C	-0.669168	-0.502472	0.729417
C94	C	-0.667777	-0.439225	0.603461
H95	H	-0.618889	-0.518543	0.764072
H96	H	-0.699504	-0.451625	0.792983
H97	H	-0.690050	-0.580167	0.716630
H98	H	-0.646904	-0.361525	0.616253
H99	H	-0.637436	-0.490059	0.539899
O100	O	-0.671355	-0.176388	0.245771
C101	C	-0.619574	-0.175040	0.355746
H102	H	-0.566219	-0.133807	0.319215
H103	H	-0.603760	-0.275523	0.394057
C104	C	-0.721976	-0.144170	0.518338
C105	C	-0.656448	-0.093517	0.473473
H106	H	-0.744722	-0.093888	0.590962
H107	H	-0.756863	-0.145083	0.444248
H108	H	-0.708789	-0.227905	0.550255
H109	H	-0.669638	-0.009790	0.441542
H110	H	-0.621564	-0.092588	0.547561
O111	O	-0.118463	-0.161981	0.245694
C112	C	-0.129763	-0.271198	0.321501
H113	H	-0.145870	-0.347764	0.248587
H114	H	-0.177403	-0.247839	0.399193
C115	C	-0.036211	-0.224589	0.487411
C116	C	-0.055987	-0.318632	0.397854
H117	H	0.009295	-0.253847	0.534515
H118	H	-0.028600	-0.151005	0.436342
H119	H	-0.075918	-0.205131	0.552141
H120	H	-0.016286	-0.338077	0.333116
H121	H	-0.063590	-0.392221	0.448915
O122	O	-0.515949	-0.172262	-0.245761
C123	C	-0.567725	-0.173671	-0.355737
H124	H	-0.626931	-0.135411	-0.319210
H125	H	-0.568712	-0.274606	-0.394045
C126	C	-0.470252	-0.137540	-0.518327
C127	C	-0.542969	-0.090537	-0.473467
H128	H	-0.454981	-0.086264	-0.590952
H129	H	-0.435369	-0.136595	-0.444235
H130	H	-0.471084	-0.221651	-0.550241
H131	H	-0.542134	-0.006434	-0.441538
H132	H	-0.577852	-0.091466	-0.547556
H133	H	-0.267888	-0.165735	0.226071
H134	H	-0.124656	-0.161928	-0.226063
H135	H	-0.665271	-0.176275	-0.226062
H136	H	-0.987519	-0.013974	0.369494
