data_functionalizedCrystal
_audit_creation_method	'MofGen! by Chris Wilmer'
_symmetry_space_group_name_H-M	'P1'
_symmetry_Int_Tables_number	1
_symmetry_cell_setting	triclinic
loop_
_symmetry_equiv_pos_as_xyz
  x,y,z
_cell_length_a	11.169417
_cell_length_b	25.639239
_cell_length_c	11.169409
_cell_angle_alpha	89.960719
_cell_angle_beta	89.980176
_cell_angle_gamma	90.039565
loop_
_atom_site_label
_atom_site_type_symbol
_atom_site_fract_x
_atom_site_fract_y
_atom_site_fract_z
Zn1	Zn	1.834726	-0.208096	-0.678485
Zn2	Zn	1.834516	-0.295546	-0.477777
Zn3	Zn	1.634012	-0.208128	-0.477819
Zn4	Zn	1.633920	-0.295504	-0.678422
O5	O	1.734293	-0.251819	-0.578126
O6	O	2.002648	-0.219701	-0.651869
O7	O	1.807869	-0.283981	-0.309833
O8	O	1.660763	-0.134959	-0.504482
O9	O	2.002494	-0.283950	-0.504410
O10	O	1.808227	-0.134935	-0.651910
O11	O	1.660560	-0.219755	-0.309864
O12	O	1.466050	-0.219714	-0.504421
O13	O	1.660607	-0.283878	-0.846380
O14	O	1.465983	-0.283909	-0.651803
O15	O	1.808138	-0.219660	-0.846426
O16	O	1.807780	-0.368706	-0.504350
O17	O	1.660403	-0.368675	-0.651763
C18	C	1.422469	-0.251811	-0.578110
C19	C	1.289069	-0.251820	-0.578132
C20	C	1.734092	-0.387661	-0.578071
C21	C	1.734115	-0.445775	-0.578088
C22	C	1.811233	-0.806142	-0.501499
C23	C	1.811279	-0.860746	-0.501515
O24	O	1.876638	-0.888986	-0.436336
N25	N	1.734504	-0.888058	-0.578205
C26	C	1.657686	-0.860762	-0.654894
O27	O	1.592388	-0.889006	-0.720127
C28	C	1.657647	-0.806159	-0.654883
C29	C	1.734418	-0.778850	-0.578178
C30	C	1.887999	-0.778833	-0.424802
C31	C	1.887951	-0.724233	-0.424784
C32	C	1.811136	-0.696941	-0.501464
C33	C	1.734370	-0.724249	-0.578161
C34	C	1.580836	-0.778864	-0.731576
C35	C	1.580804	-0.724257	-0.731559
C36	C	1.657575	-0.696948	-0.654855
C37	C	1.657507	-0.642357	-0.654823
N38	N	1.734282	-0.615046	-0.578133
C39	C	1.811097	-0.642338	-0.501453
C40	C	1.657777	-0.975432	-0.654912
C41	C	1.657809	-1.030035	-0.654918
C42	C	1.811404	-1.030015	-0.501540
C43	C	1.811365	-0.975412	-0.501529
C44	C	1.734552	-0.948121	-0.578221
C45	C	1.810988	-0.527673	-0.501422
C46	C	1.810930	-0.473067	-0.501408
C47	C	1.657340	-0.473091	-0.654789
C48	C	1.657393	-0.527692	-0.654799
C49	C	1.734228	-0.554981	-0.578112
O50	O	1.592185	-0.614082	-0.719973
O51	O	1.876395	-0.614086	-0.436242
C52	C	2.047336	-0.251827	-0.578142
C53	C	2.180736	-0.251830	-0.578149
C54	C	1.734386	-0.251761	-0.891168
C55	C	1.734425	-0.251736	-1.024569
C56	C	1.734529	-0.115446	-0.578207
C57	C	1.734629	-0.057331	-0.578242
C58	C	1.734271	-0.251839	-0.266301
C59	C	1.734464	-0.251716	-0.132902
H60	H	1.873557	-0.549885	-0.438978
C61	C	2.091290	-0.795516	-0.366542
C62	C	1.972481	-0.808805	-0.340502
H63	H	2.143453	-0.814008	-0.314485
H64	H	2.108809	-0.804446	-0.447181
H65	H	2.102184	-0.759081	-0.355601
H66	H	1.961584	-0.845239	-0.351451
H67	H	1.954955	-0.799879	-0.259844
C68	C	1.419425	-0.840329	-0.748178
C69	C	1.496456	-0.808873	-0.815902
H70	H	1.367328	-0.858852	-0.800245
H71	H	1.465167	-0.864401	-0.702525
H72	H	1.373524	-0.819063	-0.695846
H73	H	1.542363	-0.830139	-0.868228
H74	H	1.450709	-0.784798	-0.861575
C75	C	1.505946	-0.980945	-0.806509
C76	C	1.573321	-0.945437	-0.739205
H77	H	1.453804	-0.962428	-0.858543
H78	H	1.558232	-1.002201	-0.852464
H79	H	1.460093	-1.002282	-0.754163
H80	H	1.619182	-0.924102	-0.791552
H81	H	1.521028	-0.924172	-0.693247
H82	H	1.950468	-0.702001	-0.362329
C83	C	1.512530	-0.640564	-0.799662
C84	C	1.496365	-0.694259	-0.815862
H85	H	1.460405	-0.622046	-0.851712
H86	H	1.494991	-0.631653	-0.719017
H87	H	1.593157	-0.631576	-0.817293
H88	H	1.415741	-0.703247	-0.798223
H89	H	1.513896	-0.703173	-0.896526
H90	H	1.873879	-0.953181	-0.439071
C91	C	1.963233	-1.024525	-0.349927
C92	C	1.895850	-1.060021	-0.417255
H93	H	2.015356	-1.043051	-0.297892
H94	H	2.009097	-1.003189	-0.402249
H95	H	1.910943	-1.003267	-0.303962
H96	H	1.948140	-1.081277	-0.463227
H97	H	1.849983	-1.081366	-0.364926
H98	H	1.595283	-1.052265	-0.717367
H99	H	1.594794	-0.450862	-0.717218
H100	H	1.873446	-0.450834	-0.438942
C101	C	1.505575	-0.522224	-0.806412
C102	C	1.573007	-0.557713	-0.739112
H103	H	1.453490	-0.540756	-0.858475
H104	H	1.459668	-0.500972	-0.754073
H105	H	1.557837	-0.500880	-0.852345
H106	H	1.520744	-0.579054	-0.693172
H107	H	1.618916	-0.578973	-0.791458
