data_functionalizedCrystal
_audit_creation_method	'MofGen! by Chris Wilmer'
_symmetry_space_group_name_H-M	'P1'
_symmetry_Int_Tables_number	1
_symmetry_cell_setting	triclinic
loop_
_symmetry_equiv_pos_as_xyz
  x,y,z
_cell_length_a	12.759401
_cell_length_b	12.759400
_cell_length_c	12.759393
_cell_angle_alpha	89.969070
_cell_angle_beta	89.980326
_cell_angle_gamma	90.013808
loop_
_atom_site_label
_atom_site_type_symbol
_atom_site_fract_x
_atom_site_fract_y
_atom_site_fract_z
Zn1	Zn	1.606255	-0.418227	-0.594021
Zn2	Zn	1.606150	-0.593946	-0.418343
Zn3	Zn	1.430557	-0.418279	-0.418356
Zn4	Zn	1.430546	-0.593862	-0.593981
O5	O	1.518377	-0.506079	-0.506175
O6	O	1.753262	-0.441550	-0.570728
O7	O	1.582818	-0.570701	-0.271323
O8	O	1.453913	-0.271251	-0.441681
O9	O	1.753185	-0.570650	-0.441658
O10	O	1.582997	-0.271213	-0.570741
O11	O	1.453811	-0.441639	-0.271333
O12	O	1.283535	-0.441557	-0.441642
O13	O	1.453894	-0.570507	-0.741007
O14	O	1.283527	-0.570557	-0.570672
O15	O	1.582987	-0.441469	-0.741036
O16	O	1.582807	-0.740956	-0.441619
O17	O	1.453792	-0.740894	-0.570659
C18	C	1.245410	-0.506055	-0.506155
C19	C	1.128633	-0.506070	-0.506171
C20	C	1.073745	-0.438811	-0.439108
C21	C	0.964021	-0.438836	-0.439122
C22	C	0.964083	-0.573380	-0.573271
C23	C	1.073805	-0.573360	-0.573251
C24	C	0.814008	-0.401179	-0.315308
C25	C	0.759116	-0.333904	-0.248254
C26	C	0.794724	-0.231365	-0.232294
C27	C	0.885223	-0.196079	-0.283403
C28	C	0.940110	-0.263348	-0.350464
C29	C	0.904503	-0.365902	-0.366405
C30	C	1.223820	-0.611006	-0.697066
C31	C	1.278709	-0.678270	-0.764134
C32	C	1.243102	-0.780812	-0.780105
C33	C	1.152600	-0.816094	-0.729015
C34	C	1.097711	-0.748830	-0.661947
C35	C	1.133325	-0.646289	-0.645974
C36	C	1.518315	-0.779046	-0.506156
C37	C	1.518385	-0.895823	-0.506184
C38	C	1.585570	-0.950575	-0.573442
C39	C	1.585629	-1.060299	-0.573471
C40	C	1.451315	-1.060509	-0.438973
C41	C	1.451251	-0.950787	-0.438950
C42	C	1.623188	-1.210126	-0.697440
C43	C	1.690389	-1.264882	-0.764689
C44	C	1.792874	-1.229175	-0.780902
C45	C	1.828179	-1.138714	-0.729849
C46	C	1.760983	-1.083964	-0.662592
C47	C	1.658483	-1.119669	-0.646400
C48	C	1.413703	-0.800958	-0.314980
C49	C	1.346511	-0.746206	-0.247717
C50	C	1.244025	-0.781910	-0.231493
C51	C	1.208724	-0.872375	-0.282527
C52	C	1.275915	-0.927127	-0.349790
C53	C	1.378401	-0.891415	-0.366015
C54	C	1.792410	-0.506104	-0.506196
C55	C	1.909187	-0.506114	-0.506205
C56	C	1.518451	-0.505973	-0.780208
C57	C	1.518482	-0.505927	-0.896985
C58	C	1.518468	-0.232045	-0.506217
C59	C	1.518507	-0.115269	-0.506235
C60	C	1.451332	-0.438713	-0.951852
C61	C	1.451356	-0.438680	-1.061576
C62	C	1.585690	-0.573080	-1.061557
C63	C	1.585659	-0.573117	-0.951835
C64	C	1.518365	-0.506109	-0.233208
C65	C	1.518537	-0.505858	-0.116432
H66	H	0.914203	-0.112577	-0.270409
H67	H	1.352385	-0.649526	-0.805756
H68	H	1.125271	-0.901449	-0.269315
C69	C	1.659351	-0.647214	-1.121902
N70	N	1.714750	-0.703136	-1.167352
H71	H	1.497151	-0.771867	-0.328199
C72	C	0.998165	-0.787650	-0.605733
N73	N	0.923190	-0.816891	-0.563389
C74	C	1.377544	-1.120980	-0.364949
N75	N	1.322004	-1.166525	-0.309166
C76	C	0.734338	-0.157365	-0.158533
N77	N	0.688852	-0.101633	-0.102973
H78	H	1.247164	-1.000788	-0.391345
C79	C	1.113430	-0.928897	-0.746581
N80	N	1.083930	-1.013861	-0.759816
H81	H	1.396632	-0.384002	-0.907196
H82	H	1.189319	-0.737322	-0.176719
H83	H	1.396675	-0.383948	-1.106244
H84	H	1.118382	-0.384017	-0.384489
C85	C	1.039657	-0.224541	-0.406677
N86	N	1.114642	-0.195311	-0.449009
C87	C	1.659552	-0.647043	-0.891478
N88	N	1.715212	-0.702716	-0.846017
C89	C	0.659554	-0.372714	-0.192058
N90	N	0.584556	-0.401937	-0.149742
H91	H	0.785014	-0.484679	-0.328286
H92	H	0.919429	-0.628164	-0.627886
C93	C	1.303483	-0.854800	-0.853889
N94	N	1.348960	-0.910530	-0.909458
H95	H	1.252825	-0.527510	-0.684060
H96	H	1.789728	-1.010314	-0.621024
C97	C	1.659412	-0.890118	-0.647407
N98	N	1.715029	-0.844585	-0.703122
C99	C	1.940954	-1.099498	-0.747612
N100	N	2.025907	-1.069975	-0.760969
H101	H	1.847590	-1.273765	-0.835658
C102	C	1.510432	-1.249384	-0.679651
N103	N	1.425499	-1.278951	-0.666262
C104	C	1.385350	-0.646696	-0.191571
N105	N	1.414603	-0.571746	-0.149284
C106	C	1.651548	-1.364382	-0.820850
N107	N	1.622297	-1.439327	-0.863149
