data_functionalizedCrystal
_audit_creation_method	'MofGen! by Chris Wilmer'
_symmetry_space_group_name_H-M	'P1'
_symmetry_Int_Tables_number	1
_symmetry_cell_setting	triclinic
loop_
_symmetry_equiv_pos_as_xyz
  x,y,z
_cell_length_a	19.288864
_cell_length_b	15.944551
_cell_length_c	18.366186
_cell_angle_alpha	89.992809
_cell_angle_beta	89.977106
_cell_angle_gamma	83.317492
loop_
_atom_site_label
_atom_site_type_symbol
_atom_site_fract_x
_atom_site_fract_y
_atom_site_fract_z
O1	O	0.921629	0.104784	-0.060785
O2	O	1.421629	0.604784	0.439215
O3	O	0.719405	0.118919	-0.060735
O4	O	1.219405	0.618919	0.439265
O5	O	0.826039	-0.010445	-0.060755
O6	O	1.326039	0.489555	0.439245
O7	O	0.814995	0.234147	-0.060765
O8	O	1.314995	0.734147	0.439235
O9	O	0.826021	-0.010451	0.060345
O10	O	1.326021	0.489549	0.560345
O11	O	0.719387	0.118912	0.060364
O12	O	1.219387	0.618912	0.560364
O13	O	0.921611	0.104777	0.060315
O14	O	1.421611	0.604777	0.560315
Zn15	Zn	0.820496	0.111844	0.079567
Zn16	Zn	1.320496	0.611844	0.579567
Zn17	Zn	0.820520	0.111852	-0.079987
Zn18	Zn	1.320520	0.611852	0.420013
O19	O	0.814977	0.234141	0.060334
O20	O	1.314977	0.734141	0.560334
C21	C	0.693519	0.118461	-0.000179
C22	C	1.193519	0.618461	0.499821
C23	C	0.616411	0.117095	-0.000160
C24	C	1.116411	0.617095	0.499840
C25	C	0.825572	-0.041740	-0.000205
C26	C	1.325572	0.458260	0.499795
C27	C	0.824197	-0.134981	-0.000204
C28	C	1.324197	0.365019	0.499796
C29	C	0.571915	0.193000	-0.000175
C30	C	1.071915	0.693000	0.499825
C31	C	0.499465	0.191717	-0.000183
C32	C	0.999465	0.691717	0.499817
C33	C	0.471514	0.114526	-0.000191
C34	C	0.971514	0.614526	0.499809
C35	C	0.516020	0.038611	-0.000172
C36	C	1.016020	0.538611	0.499828
C37	C	0.588469	0.039896	-0.000156
C38	C	1.088469	0.539896	0.499844
C39	C	0.363098	0.053847	-0.042639
C40	C	0.863098	0.553847	0.457361
C41	C	0.290650	0.052565	-0.042659
C42	C	0.790650	0.552565	0.457341
C43	C	0.248058	0.110560	-0.000234
C44	C	0.748058	0.610560	0.499766
C45	C	0.277920	0.169850	0.042200
C46	C	0.777920	0.669850	0.542200
C47	C	0.350369	0.171135	0.042216
C48	C	0.850369	0.671135	0.542216
C49	C	0.392956	0.113124	-0.000207
C50	C	0.892956	0.613124	0.499793
C51	C	0.125002	0.185079	-0.000257
C52	C	0.625002	0.685079	0.499743
C53	C	0.052550	0.183793	-0.000260
C54	C	0.552550	0.683793	0.499740
C55	C	0.069107	0.030684	-0.000257
C56	C	0.569107	0.530684	0.499743
C57	C	0.141557	0.031972	-0.000246
C58	C	0.641557	0.531972	0.499754
C59	C	0.169500	0.109172	-0.000249
C60	C	0.669500	0.609172	0.499751
C61	C	0.754815	-0.349571	-0.000197
C62	C	1.254815	0.150429	0.499803
C63	C	0.787025	-0.410715	0.059504
C64	C	1.287025	0.089285	0.559504
C65	C	0.821710	-0.305697	-0.000209
C66	C	1.321710	0.194303	0.499791
C67	C	0.787058	-0.410692	-0.059890
C68	C	1.287058	0.089308	0.440110
C69	C	0.819303	-0.470601	-0.000217
C70	C	1.319303	0.029399	0.499783
C71	C	0.853939	-0.365614	0.059542
C72	C	1.353939	0.134386	0.559542
C73	C	0.853963	-0.365585	-0.059906
C74	C	1.353963	0.134415	0.440094
C75	C	0.886222	-0.426712	-0.000190
C76	C	1.386222	0.073288	0.499810
C77	C	0.823095	-0.210700	-0.000204
C78	C	1.323095	0.289300	0.499796
C79	C	0.817924	-0.565597	-0.000217
C80	C	1.317924	-0.065597	0.499783
C81	C	0.947497	0.105235	-0.000243
C82	C	1.447497	0.605235	0.499757
C83	C	1.024605	0.106600	-0.000267
C84	C	1.524605	0.606600	0.499733
C85	C	0.815444	0.265436	-0.000217
C86	C	1.315444	0.765436	0.499783
C87	C	0.816819	0.358677	-0.000223
C88	C	1.316819	0.858677	0.499777
N89	N	0.820485	0.111838	0.188458
N90	N	1.320485	0.611838	0.688458
N91	N	0.820537	0.111852	-0.188878
N92	N	1.320537	0.611852	0.311122
C93	C	0.867718	0.054583	0.226549
C94	C	1.367718	0.554583	0.726549
C95	C	0.867722	0.054580	0.302777
C96	C	1.367722	0.554580	0.802777
C97	C	0.820500	0.111844	0.340910
C98	C	1.320500	0.611844	0.840910
C99	C	0.773258	0.169103	0.302810
C100	C	1.273258	0.669103	0.802810
C101	C	0.773251	0.169100	0.226583
C102	C	1.273251	0.669100	0.726583
C103	C	0.811404	0.188378	0.461669
C104	C	1.311404	0.688378	0.961669
C105	C	0.811416	0.188383	0.537894
C106	C	1.311416	0.688383	1.037894
C107	C	0.820520	0.111855	0.576018
C108	C	1.320520	0.611855	1.076018
C109	C	0.829626	0.035320	0.537908
C110	C	1.329626	0.535320	1.037908
C111	C	0.829618	0.035316	0.461681
C112	C	1.329618	0.535316	0.961681
C113	C	0.820503	0.111854	0.423565
C114	C	1.320503	0.611854	0.923565
C115	C	0.867760	0.054592	0.696765
C116	C	1.367760	0.554592	1.196765
C117	C	0.867760	0.054587	0.772994
C118	C	1.367760	0.554587	1.272994
C119	C	0.773299	0.169118	0.773025
C120	C	1.273299	0.669118	1.273025
C121	C	0.773296	0.169115	0.696797
C122	C	1.273296	0.669115	1.196797
C123	C	0.820531	0.111853	0.658671
C124	C	1.320531	0.611853	1.158671
H125	H	0.594661	0.255862	-0.000179
H126	H	1.094661	0.755862	0.499821
H127	H	0.734848	0.215741	0.804072
H128	H	1.234848	0.715741	1.304072
H129	H	0.837031	-0.027002	0.430655
H130	H	1.337031	0.472998	0.930655
H131	H	0.734838	0.215741	0.665781
H132	H	1.234838	0.715741	1.165781
H133	H	0.016321	0.245606	-0.000268
H134	H	0.516321	0.745606	0.499732
H135	H	0.493258	-0.024239	-0.000188
H136	H	0.993258	0.475761	0.499812
H137	H	0.758723	-0.430717	0.109991
H138	H	1.258723	0.069283	0.609991
H139	H	0.243242	0.217075	0.076747
H140	H	0.743242	0.717075	0.576747
H141	H	0.906221	0.007959	0.804009
H142	H	1.406221	0.507959	1.304009
H143	H	0.882201	-0.345735	0.110070
H144	H	1.382201	0.154265	0.610070
H145	H	0.803978	0.250700	0.430635
H146	H	1.303978	0.750700	0.930635
H147	H	0.177787	-0.029838	-0.000238
H148	H	0.677787	0.470162	0.499762
H149	H	0.837039	-0.026997	0.568947
H150	H	1.337039	0.473003	1.068947
H151	H	0.906219	0.007963	0.665722
H152	H	1.406219	0.507963	1.165722
H153	H	0.804006	0.250702	0.568917
H154	H	1.304006	0.750702	1.068917
H155	H	0.699288	-0.316049	-0.000124
H156	H	1.199288	0.183951	0.499876
H157	H	0.374680	0.219409	0.076770
H158	H	0.874680	0.719409	0.576770
H159	H	0.266342	0.004290	-0.077214
H160	H	0.766342	0.504290	0.422786
H161	H	0.734787	0.215724	0.195568
H162	H	1.234787	0.715724	0.695568
H163	H	0.941797	-0.460084	-0.000170
H164	H	1.441797	0.039916	0.499830
H165	H	0.624699	-0.021917	-0.000145
H166	H	1.124699	0.478083	0.499855
H167	H	0.734808	0.215728	0.333861
H168	H	1.234808	0.715728	0.833861
H169	H	0.882240	-0.345560	-0.110395
H170	H	1.382240	0.154440	0.389605
H171	H	0.147754	0.247939	-0.000249
H172	H	0.647754	0.747939	0.499751
H173	H	0.758763	-0.430658	-0.110366
H174	H	1.258763	0.069342	0.389634
H175	H	0.906177	0.007955	0.195510
H176	H	1.406177	0.507955	0.695510
H177	H	0.463229	0.253530	-0.000193
H178	H	0.963229	0.753530	0.499807
H179	H	0.046351	-0.032167	-0.000308
H180	H	0.546351	0.467833	0.499692
H181	H	0.397772	0.006619	-0.077190
H182	H	0.897772	0.506619	0.422810
H183	H	0.906186	0.007955	0.333797
H184	H	1.406186	0.507955	0.833797
