data_functionalizedCrystal
_audit_creation_method	'MofGen! by Chris Wilmer'
_symmetry_space_group_name_H-M	'P1'
_symmetry_Int_Tables_number	1
_symmetry_cell_setting	triclinic
loop_
_symmetry_equiv_pos_as_xyz
  x,y,z
_cell_length_a	13.897448
_cell_length_b	12.759395
_cell_length_c	12.759387
_cell_angle_alpha	90.018815
_cell_angle_beta	89.966131
_cell_angle_gamma	89.980771
loop_
_atom_site_label
_atom_site_type_symbol
_atom_site_fract_x
_atom_site_fract_y
_atom_site_fract_z
Zn1	Zn	-0.383913	-1.606229	-0.593991
Zn2	Zn	0.116087	-1.106229	-0.093991
Zn3	Zn	-0.545244	-1.606116	-0.418306
Zn4	Zn	-0.045244	-1.106116	0.081694
Zn5	Zn	-0.383969	-1.430533	-0.418328
Zn6	Zn	0.116031	-0.930533	0.081672
Zn7	Zn	-0.545173	-1.430511	-0.593945
Zn8	Zn	-0.045173	-0.930511	-0.093945
O9	O	-0.464575	-1.518347	-0.506142
O10	O	0.035425	-1.018347	-0.006142
O11	O	-0.405321	-1.753235	-0.570696
O12	O	0.094679	-1.253235	-0.070696
O13	O	-0.523904	-1.582786	-0.271287
O14	O	-0.023904	-1.082786	0.228713
O15	O	-0.248980	-1.453896	-0.441659
O16	O	0.251020	-0.953896	0.058341
O17	O	-0.523850	-1.753152	-0.441621
O18	O	-0.023850	-1.253152	0.058379
O19	O	-0.248939	-1.582979	-0.570718
O20	O	0.251061	-1.082979	-0.070718
O21	O	-0.405416	-1.453786	-0.271304
O22	O	0.094584	-0.953786	0.228696
O23	O	-0.405347	-1.283509	-0.441614
O24	O	0.094653	-0.783509	0.058386
O25	O	-0.523728	-1.453858	-0.740972
O26	O	-0.023728	-0.953858	-0.240972
O27	O	-0.523782	-1.283492	-0.570639
O28	O	-0.023782	-0.783492	-0.070639
O29	O	-0.405251	-1.582958	-0.741006
O30	O	0.094749	-1.082958	-0.241006
O31	O	-0.680216	-1.582765	-0.441576
O32	O	-0.180216	-1.082765	0.058424
O33	O	-0.680164	-1.453748	-0.570617
O34	O	-0.180164	-0.953748	-0.070617
C35	C	-0.715189	-1.518270	-0.506112
C36	C	-0.215189	-1.018270	-0.006112
C37	C	-0.822403	-1.518334	-0.506134
C38	C	-0.322403	-1.018334	-0.006134
C39	C	-0.464563	-1.245380	-0.506124
C40	C	0.035437	-0.745380	-0.006124
C41	C	-0.464581	-1.128603	-0.506142
C42	C	0.035419	-0.628603	-0.006142
C43	C	-0.464475	-1.518418	-0.780176
C44	C	0.035525	-1.018418	-0.280176
C45	C	-0.464433	-1.518449	-0.896953
C46	C	0.035567	-1.018449	-0.396953
C47	C	-1.018698	-1.518444	-0.506200
C48	C	-0.518698	-1.018444	-0.006200
C49	C	-0.909466	-1.518380	-0.506167
C50	C	-0.409466	-1.018380	-0.006167
C51	C	-0.212982	-1.518453	-0.506196
C52	C	0.287018	-1.018453	-0.006196
C53	C	-0.105768	-1.518498	-0.506219
C54	C	0.394232	-1.018498	-0.006219
C55	C	-0.464587	-1.792381	-0.506161
C56	C	0.035413	-1.292381	-0.006161
C57	C	-0.464593	-1.909157	-0.506169
C58	C	0.035407	-1.409157	-0.006169
C59	C	-0.588108	-1.128625	-0.640278
C60	C	-0.088108	-0.628625	-0.140278
C61	C	-0.649878	-1.073775	-0.707349
C62	C	-0.149878	-0.573775	-0.207349
C63	C	-0.649890	-0.964053	-0.707362
C64	C	-0.149890	-0.464053	-0.207362
C65	C	-0.588122	-0.909179	-0.640299
C66	C	-0.088122	-0.409179	-0.140299
C67	C	-0.526352	-0.964029	-0.573227
C68	C	-0.026352	-0.464029	-0.073227
C69	C	-0.526349	-1.073753	-0.573220
C70	C	-0.026349	-0.573753	-0.073220
C71	C	-0.402822	-0.964007	-0.439098
C72	C	0.097178	-0.464007	0.060902
C73	C	-0.402814	-1.073729	-0.439078
C74	C	0.097186	-0.573729	0.060922
C75	C	-0.341054	-0.909133	-0.372035
C76	C	0.158946	-0.409133	0.127965
C77	C	-0.279287	-0.963983	-0.304957
C78	C	0.220713	-0.463983	0.195043
C79	C	-0.279279	-1.073711	-0.304946
C80	C	0.220721	-0.573711	0.195054
C81	C	-0.341043	-1.128579	-0.372007
C82	C	0.158957	-0.628579	0.127993
C83	C	-0.341043	-1.384130	-0.896989
C84	C	0.158957	-0.884130	-0.396989
C85	C	-0.279329	-1.316989	-0.951868
C86	C	0.220671	-0.816989	-0.451868
C87	C	-0.279294	-1.317021	-1.061589
C88	C	0.220706	-0.817021	-0.561589
C89	C	-0.340982	-1.384198	-1.116435
C90	C	0.159018	-0.884198	-0.616435
C91	C	-0.402696	-1.451338	-1.061556
C92	C	0.097304	-0.951338	-0.561556
C93	C	-0.402722	-1.451301	-0.951832
C94	C	0.097278	-0.951301	-0.451832
C95	C	-0.526089	-1.585650	-1.061520
C96	C	-0.026089	-1.085650	-0.561520
C97	C	-0.526121	-1.585626	-0.951798
C98	C	-0.026121	-1.085626	-0.451798
C99	C	-0.587777	-1.652827	-1.116365
C100	C	-0.087777	-1.152827	-0.616365
C101	C	-0.649488	-1.719974	-1.061487
C102	C	-0.149488	-1.219974	-0.561487
C103	C	-0.649520	-1.719941	-0.951758
C104	C	-0.149520	-1.219941	-0.451758
C105	C	-0.587835	-1.652766	-0.896919
C106	C	-0.087835	-1.152766	-0.396919
C107	C	-0.464605	-1.518337	-0.233175
C108	C	0.035395	-1.018337	0.266825
C109	C	-0.464375	-1.518510	-0.116399
C110	C	0.035625	-1.018510	0.383601
H111	H	-0.700167	-1.118465	-0.761952
H112	H	-0.200167	-0.618465	-0.261952
H113	H	-0.699772	-1.774618	-0.907082
H114	H	-0.199772	-1.274618	-0.407082
H115	H	-0.588111	-1.217966	-0.640266
H116	H	-0.088111	-0.717966	-0.140266
H117	H	-0.587852	-1.652736	-0.807578
H118	H	-0.087852	-1.152736	-0.307578
H119	H	-0.341057	-1.384106	-0.807648
H120	H	0.158943	-0.884106	-0.307648
N121	N	-0.216254	-1.248456	-1.117668
N122	N	0.283746	-0.748456	-0.617668
N123	N	-0.216235	-1.248504	-1.215634
N124	N	0.283765	-0.748504	-0.715634
H125	H	-0.171713	-1.200082	-1.255242
H126	H	0.328287	-0.700082	-0.755242
H127	H	-0.700184	-0.919395	-0.761982
H128	H	-0.200184	-0.419395	-0.261982
H129	H	-0.588129	-0.819838	-0.640324
H130	H	-0.088129	-0.319838	-0.140324
N131	N	-0.712496	-1.788570	-1.117524
N132	N	-0.212496	-1.288570	-0.617524
N133	N	-0.712465	-1.788579	-1.215489
N134	N	-0.212465	-1.288579	-0.715489
H135	H	-0.756966	-1.837026	-1.255071
H136	H	-0.256966	-1.337026	-0.755071
N137	N	-0.341051	-0.797056	-0.372068
N138	N	0.158949	-0.297056	0.127932
N139	N	-0.320988	-0.748128	-0.454071
N140	N	0.179012	-0.248128	0.045929
H141	H	-0.320985	-0.668972	-0.454094
H142	H	0.179015	-0.168972	0.045906
N143	N	-0.216197	-0.907916	-0.236477
N144	N	0.283803	-0.407916	0.263523
N145	N	-0.216208	-0.809951	-0.236508
N146	N	0.283792	-0.309951	0.263492
H147	H	-0.171650	-0.770348	-0.188143
H148	H	0.328350	-0.270348	0.311857
H149	H	-0.587749	-1.652843	-1.205707
H150	H	-0.087749	-1.152843	-0.705707
H151	H	-0.340957	-1.384208	-1.205776
H152	H	0.159043	-0.884208	-0.705776
H153	H	-0.341045	-1.217920	-0.372002
H154	H	0.158955	-0.717920	0.127998
N155	N	-0.216163	-1.129719	-0.236437
N156	N	0.283837	-0.629719	0.263563
N157	N	-0.161019	-1.080708	-0.176577
N158	N	0.338981	-0.580708	0.323423
H159	H	-0.116440	-1.120259	-0.128193
H160	H	0.383560	-0.620259	0.371807
H161	H	-0.229106	-1.262293	-0.907200
H162	H	0.270894	-0.762293	-0.407200
