data_functionalizedCrystal
_audit_creation_method	'MofGen! by Chris Wilmer'
_symmetry_space_group_name_H-M	'P1'
_symmetry_Int_Tables_number	1
_symmetry_cell_setting	triclinic
loop_
_symmetry_equiv_pos_as_xyz
  x,y,z
_cell_length_a	18.215407
_cell_length_b	16.120484
_cell_length_c	18.215399
_cell_angle_alpha	92.867230
_cell_angle_beta	89.983176
_cell_angle_gamma	92.926015
loop_
_atom_site_label
_atom_site_type_symbol
_atom_site_fract_x
_atom_site_fract_y
_atom_site_fract_z
Zn1	Zn	1.110191	-0.331886	-0.430959
Zn2	Zn	1.360191	-0.081886	-0.180959
Zn3	Zn	1.610191	0.168114	0.069041
Zn4	Zn	1.860191	0.418114	0.319041
Zn5	Zn	1.103863	-0.471313	-0.314128
Zn6	Zn	1.353863	-0.221313	-0.064128
Zn7	Zn	1.603863	0.028687	0.185872
Zn8	Zn	1.853863	0.278687	0.435872
Zn9	Zn	0.987128	-0.331919	-0.307908
Zn10	Zn	1.237128	-0.081919	-0.057908
Zn11	Zn	1.487128	0.168081	0.192092
Zn12	Zn	1.737128	0.418081	0.442092
Zn13	Zn	0.980849	-0.471261	-0.437151
Zn14	Zn	1.230849	-0.221261	-0.187151
Zn15	Zn	1.480849	0.028739	0.062849
Zn16	Zn	1.730849	0.278739	0.312849
O17	O	1.045508	-0.401595	-0.372536
O18	O	1.295508	-0.151595	-0.122536
O19	O	1.545508	0.098405	0.127464
O20	O	1.795508	0.348405	0.377464
O21	O	1.212335	-0.350389	-0.415473
O22	O	1.462335	-0.100389	-0.165473
O23	O	1.712335	0.149611	0.084527
O24	O	1.962335	0.399611	0.334527
O25	O	1.088358	-0.452858	-0.210320
O26	O	1.338358	-0.202858	0.039680
O27	O	1.588358	0.047142	0.289680
O28	O	1.838358	0.297142	0.539680
O29	O	1.008729	-0.215249	-0.319036
O30	O	1.258729	0.034751	-0.069036
O31	O	1.508729	0.284751	0.180964
O32	O	1.758729	0.534751	0.430964
O33	O	1.207687	-0.452826	-0.329638
O34	O	1.457687	-0.202826	-0.079638
O35	O	1.707687	0.047174	0.170362
O36	O	1.957687	0.297174	0.420362
O37	O	1.099142	-0.215225	-0.409441
O38	O	1.349142	0.034775	-0.159441
O39	O	1.599142	0.284775	0.090559
O40	O	1.849142	0.534775	0.340559
O41	O	1.002593	-0.350446	-0.205750
O42	O	1.252593	-0.100446	0.044250
O43	O	1.502593	0.149554	0.294250
O44	O	1.752593	0.399554	0.544250
O45	O	0.883312	-0.350395	-0.325040
O46	O	1.133312	-0.100395	-0.075040
O47	O	1.383312	0.149605	0.174960
O48	O	1.633312	0.399605	0.424960
O49	O	0.998027	-0.452737	-0.539312
O50	O	1.248027	-0.202737	-0.289312
O51	O	1.498027	0.047263	-0.039312
O52	O	1.748027	0.297263	0.210688
O53	O	0.878698	-0.452769	-0.419995
O54	O	1.128698	-0.202769	-0.169995
O55	O	1.378698	0.047231	0.080005
O56	O	1.628698	0.297231	0.330005
O57	O	1.093054	-0.350339	-0.534763
O58	O	1.343054	-0.100339	-0.284763
O59	O	1.593054	0.149661	-0.034763
O60	O	1.843054	0.399661	0.215237
O61	O	1.082269	-0.587972	-0.335642
O62	O	1.332269	-0.337972	-0.085642
O63	O	1.582269	-0.087972	0.164358
O64	O	1.832269	0.162028	0.414358
O65	O	0.991891	-0.587933	-0.426026
O66	O	1.241891	-0.337933	-0.176026
O67	O	1.491891	-0.087933	0.073974
O68	O	1.741891	0.162067	0.323974
C69	C	0.854302	-0.401580	-0.372515
C70	C	1.104302	-0.151580	-0.122515
C71	C	1.354302	0.098420	0.127485
C72	C	1.604302	0.348420	0.377485
C73	C	0.772503	-0.401594	-0.372524
C74	C	1.022503	-0.151594	-0.122524
C75	C	1.272503	0.098406	0.127476
C76	C	1.522503	0.348406	0.377476
C77	C	0.581922	-0.454984	-0.421911
C78	C	0.831922	-0.204984	-0.171911
C79	C	1.081922	0.045016	0.078089
C80	C	1.331922	0.295016	0.328089
C81	C	0.505063	-0.454987	-0.421920
C82	C	0.755063	-0.204987	-0.171920
C83	C	1.005063	0.045013	0.078080
C84	C	1.255063	0.295013	0.328080
C85	C	0.509845	-0.348220	-0.323179
C86	C	0.759845	-0.098220	-0.073179
C87	C	1.009845	0.151780	0.176821
C88	C	1.259845	0.401780	0.426821
C89	C	0.586703	-0.348214	-0.323173
C90	C	0.836703	-0.098214	-0.073173
C91	C	1.086703	0.151786	0.176827
C92	C	1.336703	0.401786	0.426827
C93	C	0.622739	-0.401601	-0.372539
C94	C	0.872739	-0.151601	-0.122539
C95	C	1.122739	0.098399	0.127461
C96	C	1.372739	0.348399	0.377461
C97	C	0.469023	-0.401610	-0.372553
C98	C	0.719023	-0.151610	-0.122553
C99	C	0.969023	0.098390	0.127447
C100	C	1.219023	0.348390	0.377447
C101	C	0.385689	-0.401612	-0.372563
C102	C	0.635689	-0.151612	-0.122563
C103	C	0.885689	0.098388	0.127437
C104	C	1.135689	0.348388	0.377437
C105	C	0.706078	-0.401597	-0.372530
C106	C	0.956078	-0.151597	-0.122530
C107	C	1.206078	0.098403	0.127470
C108	C	1.456078	0.348403	0.377470
C109	C	1.035732	-0.618203	-0.382197
C110	C	1.285732	-0.368203	-0.132197
C111	C	1.535732	-0.118203	0.117803
C112	C	1.785732	0.131797	0.367803
C113	C	1.031617	-0.710869	-0.386355
C114	C	1.281617	-0.460869	-0.136355
C115	C	1.531617	-0.210869	0.113645
C116	C	1.781617	0.039131	0.363645
C117	C	1.024109	-0.880530	-0.393960
C118	C	1.274109	-0.630530	-0.143960
C119	C	1.524109	-0.380530	0.106040
C120	C	1.774109	-0.130530	0.356040
C121	C	1.067038	-0.921819	-0.351125
C122	C	1.317038	-0.671819	-0.101125
C123	C	1.567038	-0.421819	0.148875
C124	C	1.817038	-0.171819	0.398875
C125	C	1.062861	-1.016224	-0.355356
C126	C	1.312861	-0.766224	-0.105356
C127	C	1.562861	-0.516224	0.144644
C128	C	1.812861	-0.266224	0.394644
C129	C	1.028286	-0.786116	-0.389729
C130	C	1.278286	-0.536116	-0.139729
C131	C	1.528286	-0.286116	0.110271
C132	C	1.778286	-0.036116	0.360271
C133	C	1.237460	-0.401610	-0.372559
C134	C	1.487460	-0.151610	-0.122559
C135	C	1.737460	0.098390	0.127441
C136	C	1.987460	0.348390	0.377441
C137	C	1.319259	-0.401616	-0.372568
C138	C	1.569259	-0.151616	-0.122568
C139	C	1.819259	0.098384	0.127432
C140	C	2.069259	0.348384	0.377432
C141	C	1.045546	-0.401528	-0.564487
C142	C	1.295546	-0.151528	-0.314487
C143	C	1.545546	0.098472	-0.064487
C144	C	1.795546	0.348472	0.185513
C145	C	1.045562	-0.401500	-0.646284
C146	C	1.295562	-0.151500	-0.396284
C147	C	1.545562	0.098500	-0.146284
C148	C	1.795562	0.348500	0.103716
C149	C	1.055342	-0.184141	-0.362854
C150	C	1.305342	0.065859	-0.112854
C151	C	1.555342	0.315859	0.137146
C152	C	1.805342	0.565859	0.387146
C153	C	1.059533	-0.091475	-0.358728
C154	C	1.309533	0.158525	-0.108728
C155	C	1.559533	0.408525	0.141272
C156	C	1.809533	0.658525	0.391272
C157	C	1.000946	-0.348138	-0.832098
C158	C	1.250946	-0.098138	-0.582098
C159	C	1.500946	0.151862	-0.332098
C160	C	1.750946	0.401862	-0.082098
C161	C	1.000959	-0.348121	-0.908956
C162	C	1.250959	-0.098121	-0.658956
C163	C	1.500959	0.151879	-0.408956
C164	C	1.750959	0.401879	-0.158956
C165	C	1.090270	-0.454762	-0.913704
C166	C	1.340270	-0.204762	-0.663704
C167	C	1.590270	0.045238	-0.413704
C168	C	1.840270	0.295238	-0.163704
C169	C	1.090252	-0.454783	-0.836848
C170	C	1.340252	-0.204783	-0.586848
C171	C	1.590252	0.045217	-0.336848
C172	C	1.840252	0.295217	-0.086848
C173	C	1.045591	-0.401466	-0.796046
C174	C	1.295591	-0.151466	-0.546046
C175	C	1.545591	0.098534	-0.296046
C176	C	1.795591	0.348534	-0.046046
C177	C	1.045623	-0.401428	-0.949761
C178	C	1.295623	-0.151428	-0.699761
C179	C	1.545623	0.098572	-0.449761
C180	C	1.795623	0.348572	-0.199761
C181	C	1.045638	-0.401411	-1.033094
C182	C	1.295638	-0.151411	-0.783094
C183	C	1.545638	0.098589	-0.533094
C184	C	1.795638	0.348589	-0.283094
C185	C	1.045575	-0.401484	-0.712708
C186	C	1.295575	-0.151484	-0.462708
C187	C	1.545575	0.098516	-0.212708
C188	C	1.795575	0.348516	0.037292
C189	C	1.045515	-0.401601	-0.181331
C190	C	1.295515	-0.151601	0.068669
C191	C	1.545515	0.098399	0.318669
C192	C	1.795515	0.348399	0.568669
C193	C	1.045652	-0.401394	-0.099523
C194	C	1.295652	-0.151394	0.150477
C195	C	1.545652	0.098606	0.400477
C196	C	1.795652	0.348606	0.650477
H197	H	0.480495	-0.304756	-0.282986
H198	H	0.730495	-0.054756	-0.032986
H199	H	0.980495	0.195244	0.217014
H200	H	1.230495	0.445244	0.467014
H201	H	0.611261	-0.498453	-0.462109
H202	H	0.861261	-0.248453	-0.212109
H203	H	1.111261	0.001547	0.037891
H204	H	1.361261	0.251547	0.287891
C205	C	1.138649	-0.512654	-0.797566
C206	C	1.388649	-0.262654	-0.547566
C207	C	1.638649	-0.012654	-0.297566
C208	C	1.888649	0.237346	-0.047566
C209	C	1.129056	-0.501276	-0.721527
C210	C	1.379056	-0.251276	-0.471527
C211	C	1.629056	-0.001276	-0.221527
C212	C	1.879056	0.248724	0.028473
C213	C	1.173615	-0.554580	-0.685318
C214	C	1.423615	-0.304580	-0.435318
C215	C	1.673615	-0.054580	-0.185318
C216	C	1.923615	0.195420	0.064682
H217	H	1.188679	-0.500506	-0.809533
H218	H	1.438679	-0.250506	-0.559533
H219	H	1.688679	-0.000506	-0.309533
H220	H	1.938679	0.249494	-0.059533
H221	H	1.125341	-0.568684	-0.812610
H222	H	1.375341	-0.318684	-0.562610
H223	H	1.625341	-0.068684	-0.312610
H224	H	1.875341	0.181316	-0.062610
H225	H	1.142369	-0.445259	-0.706489
H226	H	1.392369	-0.195259	-0.456489
H227	H	1.642369	0.054741	-0.206489
H228	H	1.892369	0.304741	0.043511
H229	H	1.079036	-0.513430	-0.709538
H230	H	1.329036	-0.263430	-0.459538
H231	H	1.579036	-0.013430	-0.209538
H232	H	1.829036	0.236570	0.040462
H233	H	1.160307	-0.610610	-0.700361
H234	H	1.410307	-0.360610	-0.450361
H235	H	1.660307	-0.110610	-0.200361
H236	H	1.910307	0.139390	0.049639
H237	H	1.223642	-0.542428	-0.697291
H238	H	1.473642	-0.292428	-0.447291
H239	H	1.723642	-0.042428	-0.197291
H240	H	1.973642	0.207572	0.052709
H241	H	1.167107	-0.546873	-0.633722
H242	H	1.417107	-0.296873	-0.383722
H243	H	1.667107	-0.046873	-0.133722
H244	H	1.917107	0.203127	0.116278
H245	H	1.126633	-0.498170	-0.946934
H246	H	1.376633	-0.248170	-0.696934
H247	H	1.626633	0.001830	-0.446934
H248	H	1.876633	0.251830	-0.196934
H249	H	0.471834	-0.498456	-0.462125
H250	H	0.721834	-0.248456	-0.212125
H251	H	0.971834	0.001544	0.037875
H252	H	1.221834	0.251544	0.287875
H253	H	0.619937	-0.304738	-0.282968
H254	H	0.869937	-0.054738	-0.032968
H255	H	1.119937	0.195262	0.217032
H256	H	1.369937	0.445262	0.467032
H257	H	1.106928	-0.886266	-0.311273
H258	H	1.356928	-0.636266	-0.061273
H259	H	1.606928	-0.386266	0.188727
H260	H	1.856928	-0.136266	0.438727
H261	H	0.984221	-0.916080	-0.433808
H262	H	1.234221	-0.666080	-0.183808
H263	H	1.484221	-0.416080	0.066192
H264	H	1.734221	-0.166080	0.316192
C265	C	0.952371	-0.290229	-0.787930
C266	C	1.202371	-0.040229	-0.537930
C267	C	1.452371	0.209771	-0.287930
C268	C	1.702371	0.459771	-0.037930
C269	C	0.913259	-0.243542	-0.835958
C270	C	1.163259	0.006458	-0.585958
C271	C	1.413259	0.256458	-0.335958
C272	C	1.663259	0.506458	-0.085958
C273	C	0.868494	-0.190198	-0.795300
C274	C	1.118494	0.059802	-0.545300
C275	C	1.368494	0.309802	-0.295300
C276	C	1.618494	0.559802	-0.045300
H277	H	0.982075	-0.253836	-0.756328
H278	H	1.232075	-0.003836	-0.506328
H279	H	1.482075	0.246164	-0.256328
H280	H	1.732075	0.496164	-0.006328
H281	H	0.918820	-0.322113	-0.759380
H282	H	1.168820	-0.072113	-0.509380
H283	H	1.418820	0.177887	-0.259380
H284	H	1.668820	0.427887	-0.009380
H285	H	0.946806	-0.211660	-0.864495
H286	H	1.196806	0.038340	-0.614495
H287	H	1.446806	0.288340	-0.364495
H288	H	1.696806	0.538340	-0.114495
H289	H	0.883542	-0.279913	-0.867560
H290	H	1.133542	-0.029913	-0.617560
H291	H	1.383542	0.220087	-0.367560
H292	H	1.633542	0.470087	-0.117560
H293	H	0.834943	-0.222081	-0.766750
H294	H	1.084943	0.027919	-0.516750
H295	H	1.334943	0.277919	-0.266750
H296	H	1.584943	0.527919	-0.016750
H297	H	0.898203	-0.153810	-0.763700
H298	H	1.148203	0.096190	-0.513700
H299	H	1.398203	0.346190	-0.263700
H300	H	1.648203	0.596190	-0.013700
H301	H	0.841947	-0.158519	-0.827881
H302	H	1.091947	0.091481	-0.577881
H303	H	1.341947	0.341481	-0.327881
H304	H	1.591947	0.591481	-0.077881
C305	C	0.952385	-0.290361	-0.948139
C306	C	1.202385	-0.040361	-0.698139
C307	C	1.452385	0.209639	-0.448139
C308	C	1.702385	0.459639	-0.198139
C309	C	0.903076	-0.337556	-0.994337
C310	C	1.153076	-0.087556	-0.744337
C311	C	1.403076	0.162444	-0.494337
C312	C	1.653076	0.412444	-0.244337
C313	C	0.858306	-0.284377	-1.030436
C314	C	1.108306	-0.034377	-0.780436
C315	C	1.358306	0.215623	-0.530436
C316	C	1.608306	0.465623	-0.280436
H317	H	0.982095	-0.254011	-0.976571
H318	H	1.232095	-0.004011	-0.726571
H319	H	1.482095	0.245989	-0.476571
H320	H	1.732095	0.495989	-0.226571
H321	H	0.925742	-0.258631	-0.912851
H322	H	1.175742	-0.008631	-0.662851
H323	H	1.425742	0.241369	-0.412851
H324	H	1.675742	0.491369	-0.162851
H325	H	0.929717	-0.369272	-1.029621
H326	H	1.179717	-0.119272	-0.779621
H327	H	1.429717	0.130728	-0.529621
H328	H	1.679717	0.380728	-0.279621
H329	H	0.873350	-0.373905	-0.965923
H330	H	1.123350	-0.123905	-0.715923
H331	H	1.373350	0.126095	-0.465923
H332	H	1.623350	0.376095	-0.215923
H333	H	0.831663	-0.252647	-0.995147
H334	H	1.081663	-0.002647	-0.745147
H335	H	1.331663	0.247353	-0.495147
H336	H	1.581663	0.497353	-0.245147
H337	H	0.888022	-0.248030	-1.058864
H338	H	1.138022	0.001970	-0.808864
H339	H	1.388022	0.251970	-0.558864
H340	H	1.638022	0.501970	-0.308864
H341	H	0.824841	-0.316392	-1.061780
H342	H	1.074841	-0.066392	-0.811780
H343	H	1.324841	0.183608	-0.561780
H344	H	1.574841	0.433608	-0.311780
