data_functionalizedCrystal
_audit_creation_method	'MofGen! by Chris Wilmer'
_symmetry_space_group_name_H-M	'P1'
_symmetry_Int_Tables_number	1
_symmetry_cell_setting	triclinic
loop_
_symmetry_equiv_pos_as_xyz
  x,y,z
_cell_length_a	10.489741
_cell_length_b	14.971486
_cell_length_c	14.048226
_cell_angle_alpha	89.993360
_cell_angle_beta	89.996252
_cell_angle_gamma	84.076651
loop_
_atom_site_label
_atom_site_type_symbol
_atom_site_fract_x
_atom_site_fract_y
_atom_site_fract_z
O1	O	1.692596	0.126198	-0.079102
O2	O	1.321264	0.138043	-0.079117
O3	O	1.516883	0.001977	-0.079103
O4	O	1.496977	0.262264	-0.079117
O5	O	1.516859	0.001969	0.079219
O6	O	1.321240	0.138035	0.079204
O7	O	1.692573	0.126189	0.079219
Zn8	Zn	1.506903	0.132111	0.104348
Zn9	Zn	1.506934	0.132122	-0.104247
O10	O	1.496954	0.262256	0.079204
C11	C	1.515981	-0.031357	0.000058
C12	C	1.513313	-0.130669	0.000057
C13	C	1.273731	0.137144	0.000042
C14	C	1.132132	0.134468	0.000036
C15	C	1.628234	-0.187241	0.000062
C16	C	1.625720	-0.280554	0.000052
C17	C	1.508283	-0.317295	0.000044
C18	C	1.393354	-0.260716	0.000036
C19	C	1.395869	-0.167404	0.000039
C20	C	1.388119	-0.455209	0.000032
C21	C	1.385603	-0.548527	0.000031
C22	C	1.617969	-0.568359	0.000046
C23	C	1.620485	-0.475047	0.000049
C24	C	1.505554	-0.418474	0.000042
C25	C	1.064994	0.047893	0.000050
C26	C	0.972405	0.088794	-0.078011
C27	C	0.972416	0.088806	0.078081
C28	C	1.041408	0.175404	-0.078089
C29	C	1.041429	0.175405	0.078073
C30	C	0.948867	0.216369	-0.000007
C31	C	1.740106	0.127088	0.000058
C32	C	1.881704	0.129765	0.000057
C33	C	1.497856	0.295589	0.000042
C34	C	1.500523	0.394902	0.000037
N35	N	1.506891	0.132103	0.246709
N36	N	1.506956	0.132123	-0.246607
C37	C	1.593538	0.071878	0.296534
C38	C	1.593547	0.071878	0.396191
C39	C	1.506913	0.132107	0.446023
C40	C	1.420257	0.192335	0.396191
C41	C	1.420243	0.192330	0.296535
C42	C	1.420293	0.192341	0.603905
C43	C	1.420308	0.192347	0.703568
C44	C	1.593597	0.071889	0.703561
C45	C	1.593584	0.071884	0.603906
C46	C	1.506928	0.132113	0.554081
H47	H	1.719300	-0.326611	0.000059
O48	O	1.687060	0.006932	0.757306
H49	H	1.786497	0.019027	0.738172
H50	H	1.349725	0.241383	0.563342
H51	H	0.898618	0.287614	-0.000053
H52	H	1.071823	0.212011	-0.144158
O53	O	1.082013	0.223880	0.165485
H54	H	1.054708	0.187801	0.230195
H55	H	1.716112	-0.445136	0.000062
H56	H	1.711550	-0.614424	0.000048
O57	O	0.931936	0.040272	0.165509
H58	H	0.978915	-0.029641	0.165341
O59	O	1.326795	0.257290	0.242788
H60	H	1.266563	0.299179	0.294179
H61	H	1.294530	-0.409149	0.000025
O62	O	1.754898	-0.147614	0.000062
H63	H	1.834386	-0.202632	0.000052
O64	O	1.258944	-0.588161	0.000006
H65	H	1.179447	-0.533148	-0.000016
H66	H	1.664091	0.022836	0.255968
H67	H	1.664101	0.022838	0.436758
H68	H	1.297735	-0.290638	0.000023
H69	H	1.664133	0.022846	0.563333
O70	O	1.271917	-0.106385	0.000046
H71	H	1.215725	-0.119535	-0.064481
O72	O	1.131803	-0.046409	-0.000010
H73	H	1.104325	-0.082134	-0.064894
O74	O	0.931872	0.040281	-0.165420
H75	H	0.978819	-0.029640	-0.165257
O76	O	1.326845	0.257288	0.757321
H77	H	1.266565	0.299154	0.705935
O78	O	1.326822	0.257306	0.449931
H79	H	1.264788	0.219238	0.495360
