data_functionalizedCrystal
_audit_creation_method	'MofGen! by Chris Wilmer'
_symmetry_space_group_name_H-M	'P1'
_symmetry_Int_Tables_number	1
_symmetry_cell_setting	triclinic
loop_
_symmetry_equiv_pos_as_xyz
  x,y,z
_cell_length_a	19.288840
_cell_length_b	11.892095
_cell_length_c	19.288857
_cell_angle_alpha	93.873351
_cell_angle_beta	83.129562
_cell_angle_gamma	86.107712
loop_
_atom_site_label
_atom_site_type_symbol
_atom_site_fract_x
_atom_site_fract_y
_atom_site_fract_z
O1	O	-0.925821	0.094198	-0.082101
O2	O	-0.425821	0.594198	0.417899
O3	O	-0.723556	0.094160	-0.093810
O4	O	-0.223556	0.594160	0.406190
O5	O	-0.830535	0.094166	0.013175
O6	O	-0.330535	0.594166	0.513175
O7	O	-0.818842	0.094191	-0.189086
O8	O	-0.318842	0.594191	0.310914
O9	O	-0.821616	-0.093842	0.004269
O10	O	-0.321616	0.406158	0.504269
O11	O	-0.714637	-0.093848	-0.102716
O12	O	-0.214637	0.406152	0.397284
O13	O	-0.916902	-0.093810	-0.091008
O14	O	-0.416902	0.406190	0.408992
Zn15	Zn	-0.814353	-0.123680	-0.098276
Zn16	Zn	-0.314353	0.376320	0.401724
Zn17	Zn	-0.826105	0.124029	-0.086541
Zn18	Zn	-0.326105	0.624029	0.413459
O19	O	-0.809922	-0.093817	-0.197993
O20	O	-0.309922	0.406183	0.302007
C21	C	-0.693219	0.000150	-0.097890
C22	C	-0.193219	0.500150	0.402110
C23	C	-0.616114	0.000135	-0.096768
C24	C	-0.116114	0.500135	0.403232
C25	C	-0.825700	0.000161	0.034598
C26	C	-0.325700	0.500161	0.534598
C27	C	-0.824573	0.000158	0.111702
C28	C	-0.324573	0.500158	0.611702
N29	N	-0.806338	-0.292734	-0.106284
N30	N	-0.306338	0.207266	0.393716
C31	C	-0.947239	0.000202	-0.086928
C32	C	-0.447239	0.500202	0.413072
C33	C	-1.024344	0.000224	-0.088049
C34	C	-0.524344	0.500224	0.411951
C35	C	-0.584773	0.102621	-0.091374
C36	C	-0.084773	0.602621	0.408626
C37	C	-0.512327	0.102635	-0.090311
C38	C	-0.012327	0.602635	0.409689
C39	C	-0.471226	0.000157	-0.094629
C40	C	0.028774	0.500157	0.405371
C41	C	-0.502575	-0.102343	-0.100028
C42	C	-0.002575	0.397657	0.399972
C43	C	-0.575019	-0.102353	-0.101097
C44	C	-0.075019	0.397647	0.398903
C45	C	-0.358175	-0.078345	-0.055970
C46	C	0.141825	0.421655	0.444030
C47	C	-0.285733	-0.078330	-0.054896
C48	C	0.214267	0.421670	0.445104
C49	C	-0.247784	0.000186	-0.091334
C50	C	0.252216	0.500186	0.408666
C51	C	-0.282287	0.078706	-0.128836
C52	C	0.217713	0.578706	0.371164
C53	C	-0.354732	0.078695	-0.129905
C54	C	0.145268	0.578695	0.370095
C55	C	-0.392672	0.000157	-0.093470
C56	C	0.107328	0.500157	0.406530
C57	C	-0.137888	0.102694	-0.084788
C58	C	0.362112	0.602694	0.415212
C59	C	-0.065440	0.102703	-0.083730
C60	C	0.434560	0.602703	0.416270
C61	C	-0.055690	-0.102277	-0.093439
C62	C	0.444310	0.397723	0.406561
C63	C	-0.128137	-0.102284	-0.094504
C64	C	0.371863	0.397716	0.405496
C65	C	-0.169232	0.000205	-0.090175
C66	C	0.330768	0.500205	0.409825
C67	C	-0.889901	-0.529377	-0.022763
C68	C	-0.389901	-0.029377	0.477237
C69	C	-0.884303	-0.647719	-0.028366
C70	C	-0.384303	-0.147719	0.471634
C71	C	-0.789542	-0.647763	-0.123089
C72	C	-0.289542	-0.147763	0.376911
C73	C	-0.795139	-0.529421	-0.117486
C74	C	-0.295139	-0.029421	0.382514
C75	C	-0.845321	-0.470232	-0.067322
C76	C	-0.345321	0.029768	0.432678
C77	C	-0.850922	-0.351887	-0.061723
C78	C	-0.350922	0.148113	0.438277
C79	C	-0.756157	-0.351934	-0.156442
C80	C	-0.256157	0.148066	0.343558
C81	C	-0.750560	-0.470276	-0.162045
C82	C	-0.250560	0.029724	0.337955
N83	N	-0.834126	0.293084	-0.078528
N84	N	-0.334126	0.793084	0.421472
C85	C	-0.814758	0.000191	-0.219416
C86	C	-0.314758	0.500191	0.280584
C87	C	-0.815885	0.000202	-0.296519
C88	C	-0.315885	0.500202	0.203481
C89	C	-0.828909	0.102641	0.152767
C90	C	-0.328909	0.602641	0.652767
C91	C	-0.827841	0.102649	0.225214
C92	C	-0.327841	0.602649	0.725214
C93	C	-0.822450	0.000168	0.256593
C94	C	-0.322450	0.500168	0.756593
C95	C	-0.818110	-0.102328	0.215518
C96	C	-0.318110	0.397672	0.715518
C97	C	-0.819171	-0.102334	0.143072
C98	C	-0.319171	0.397666	0.643072
C99	C	-0.857728	-0.078331	0.373110
C100	C	-0.357728	0.421669	0.873110
C101	C	-0.856671	-0.078321	0.445555
C102	C	-0.356671	0.421679	0.945555
C103	C	-0.819173	0.000180	0.480040
C104	C	-0.319173	0.500180	0.980040
C105	C	-0.782742	0.078692	0.442072
C106	C	-0.282742	0.578692	0.942072
C107	C	-0.783803	0.078686	0.369627
C108	C	-0.283803	0.578686	0.869627
C109	C	-0.821298	0.000163	0.335148
C110	C	-0.321298	0.500163	0.835148
C111	C	-0.822350	0.102680	0.599660
C112	C	-0.322350	0.602680	1.099660
C113	C	-0.821277	0.102684	0.672107
C114	C	-0.321277	0.602684	1.172107
C115	C	-0.811553	-0.102297	0.662410
C116	C	-0.311553	0.397703	1.162410
C117	C	-0.812619	-0.102298	0.589964
C118	C	-0.312619	0.397702	1.089964
C119	C	-0.818021	0.000194	0.558594
C120	C	-0.318021	0.500194	1.058594
H121	H	-0.618229	0.186076	-0.087849
H122	H	-0.118229	0.686076	0.412151
H123	H	-0.719860	-0.303764	-0.192727
H124	H	-0.219860	0.196236	0.307273
Cl125	Cl	-0.835696	0.231487	0.113334
Cl126	Cl	-0.335696	0.731487	0.613334
H127	H	-0.748680	-0.695970	-0.163926
H128	H	-0.248680	-0.195970	0.336074
H129	H	-0.920603	-0.695872	0.007919
H130	H	-0.420603	-0.195872	0.507919
H131	H	-0.709701	-0.518481	-0.202886
H132	H	-0.209701	-0.018481	0.297114
H133	H	-0.039923	0.186163	-0.079341
H134	H	0.460077	0.686163	0.420659
Cl135	Cl	-0.833292	0.231495	0.276849
Cl136	Cl	-0.333292	0.731495	0.776849
H137	H	-0.754138	0.142610	0.338716
H138	H	-0.254138	0.642610	0.838716
Cl139	Cl	-0.914008	-0.277480	0.001337
Cl140	Cl	-0.414008	0.222520	0.501337
H141	H	-0.752207	0.142615	0.470148
H142	H	-0.252207	0.642615	0.970148
Cl143	Cl	-0.004027	-0.231109	-0.098875
Cl144	Cl	0.495973	0.268891	0.401125
H145	H	-0.153655	-0.185739	-0.098892
H146	H	0.346345	0.314261	0.401108
H147	H	-0.813718	-0.185769	0.241072
H148	H	-0.313718	0.314231	0.741072
Cl149	Cl	-0.826724	0.231532	0.723733
Cl150	Cl	-0.326724	0.731532	1.223733
H151	H	-0.257647	-0.142260	-0.024356
H152	H	0.242353	0.357740	0.475644
H153	H	-0.486803	0.186094	-0.085920
H154	H	0.013197	0.686094	0.414080
Cl155	Cl	-0.829135	0.231523	0.560219
Cl156	Cl	-0.329135	0.731523	1.060219
Cl157	Cl	-0.902472	-0.177015	0.493278
Cl158	Cl	-0.402472	0.322985	0.993278
Cl159	Cl	-0.405875	-0.177063	-0.010159
Cl160	Cl	0.094125	0.322937	0.489841
H161	H	-0.807158	-0.185739	0.687958
H162	H	-0.307158	0.314261	1.187958
Cl163	Cl	-0.398105	0.177396	-0.177051
Cl164	Cl	0.101895	0.677396	0.322949
H165	H	-0.809093	-0.185751	0.556528
H166	H	-0.309093	0.314249	1.056528
H167	H	-0.469106	-0.185781	-0.103545
H168	H	0.030894	0.314219	0.396455
Cl169	Cl	-0.813718	-0.231181	0.091444
Cl170	Cl	-0.313718	0.268819	0.591444
Cl171	Cl	-0.234587	0.177415	-0.174650
Cl172	Cl	0.265413	0.677415	0.325350
Cl173	Cl	-0.189553	0.231534	-0.079352
Cl174	Cl	0.310447	0.731534	0.420648
Cl175	Cl	-0.904893	-0.177003	0.329769
Cl176	Cl	-0.404893	0.322997	0.829769
Cl177	Cl	-0.614421	-0.231204	-0.107878
Cl178	Cl	-0.114421	0.268796	0.392122
Cl179	Cl	-0.952992	-0.454966	0.040291
Cl180	Cl	-0.452992	0.045034	0.540291
