data_functionalizedCrystal
_audit_creation_method	'MofGen! by Chris Wilmer'
_symmetry_space_group_name_H-M	'P1'
_symmetry_Int_Tables_number	1
_symmetry_cell_setting	triclinic
loop_
_symmetry_equiv_pos_as_xyz
  x,y,z
_cell_length_a	15.297475
_cell_length_b	19.121063
_cell_length_c	19.121175
_cell_angle_alpha	85.048230
_cell_angle_beta	101.657175
_cell_angle_gamma	83.156694
loop_
_atom_site_label
_atom_site_type_symbol
_atom_site_fract_x
_atom_site_fract_y
_atom_site_fract_z
Zn1	Zn	1.385261	-0.492335	0.604399
Zn2	Zn	1.372807	-0.603228	0.489999
Zn3	Zn	1.228240	-0.465208	0.464690
Zn4	Zn	1.228179	-0.587824	0.587301
O5	O	1.303622	-0.537149	0.536597
O6	O	1.509850	-0.524845	0.606971
O7	O	1.348443	-0.580013	0.387451
O8	O	1.254307	-0.371082	0.479786
O9	O	1.500700	-0.606317	0.522922
O10	O	1.369669	-0.391012	0.582430
O11	O	1.242230	-0.478610	0.368857
O12	O	1.101991	-0.463673	0.463207
O13	O	1.254203	-0.580063	0.688759
O14	O	1.101946	-0.553759	0.553288
O15	O	1.369610	-0.509908	0.701321
O16	O	1.348384	-0.698909	0.506342
O17	O	1.242127	-0.687592	0.577830
C18	C	1.069236	-0.504102	0.503646
C19	C	0.968964	-0.489982	0.489567
C20	C	0.686293	-0.638071	0.637224
C21	C	0.780503	-0.651343	0.650450
C22	C	0.827623	-0.611004	0.610231
C23	C	0.780524	-0.557391	0.556782
C24	C	0.686305	-0.544122	0.543551
C25	C	0.827634	-0.517054	0.516558
C26	C	0.780536	-0.463441	0.463110
C27	C	0.686326	-0.450174	0.449881
C28	C	0.639206	-0.490513	0.490101
C29	C	0.921854	-0.530323	0.529789
C30	C	0.921865	-0.436373	0.436117
C31	C	0.827656	-0.423102	0.422891
C32	C	1.293923	-0.718594	0.542996
C33	C	1.289857	-0.796229	0.545769
C34	C	1.343316	-0.838580	0.509895
C35	C	1.339498	-0.911527	0.512508
C36	C	1.282216	-0.942122	0.550990
C37	C	1.228754	-0.899766	0.586868
C38	C	1.232578	-0.826821	0.584259
C39	C	1.267906	-1.162077	0.560731
C40	C	1.264085	-1.235028	0.563336
C41	C	1.374830	-1.246784	0.488977
C42	C	1.378645	-1.173836	0.486368
C43	C	1.325187	-1.131487	0.522248
C44	C	1.278310	-1.016686	0.553660
C45	C	1.329098	-1.056925	0.519583
C46	C	1.538923	-0.570325	0.569677
C47	C	1.639194	-0.584463	0.583773
C48	C	1.313289	-0.546293	0.721478
C49	C	1.317409	-0.550190	0.800263
C50	C	1.313384	-0.354999	0.530192
C51	C	1.317544	-0.277378	0.527463
C52	C	1.294046	-0.527996	0.352441
C53	C	1.290112	-0.523927	0.273674
C54	C	1.264047	-0.499227	0.827595
C55	C	1.267915	-0.502894	0.901622
C56	C	1.325148	-0.557522	0.948316
C57	C	1.378512	-0.608490	0.920979
C58	C	1.374639	-0.604825	0.846953
C59	C	1.339603	-0.571231	1.172311
C60	C	1.343473	-0.574890	1.246341
C61	C	1.232874	-0.469295	1.226979
C62	C	1.229011	-0.465633	1.152953
C63	C	1.282371	-0.516603	1.125622
C64	C	1.329105	-0.561270	1.023984
C65	C	1.278409	-0.512857	1.049955
H66	H	0.789294	-0.379450	0.379372
N67	N	1.394110	-0.623275	1.144380
N68	N	1.357839	-0.661256	1.100167
H69	H	1.396341	-0.698009	1.080435
H70	H	1.383030	-0.946007	0.483296
N71	N	1.429151	-0.656871	0.819021
N72	N	1.425687	-0.653592	0.752925
H73	H	1.464186	-0.690351	0.733197
N74	N	1.401938	-0.630681	1.294059
N75	N	1.462894	-0.616246	1.342582
H76	H	1.504185	-0.655642	1.376287
H77	H	0.904333	-0.621812	0.621003
N78	N	0.969956	-0.585090	0.584374
N79	N	0.955742	-0.647804	0.580355
H80	H	0.989715	-0.686487	0.618908
H81	H	1.217450	-1.259937	0.594686
N82	N	0.970000	-0.395174	0.395032
N83	N	1.054118	-0.407028	0.406852
H84	H	1.088120	-0.377935	0.377837
H85	H	1.389958	-0.813674	0.478556
N86	N	1.437124	-1.142570	0.447037
N87	N	1.440505	-1.077436	0.444691
H88	H	1.481790	-1.055350	0.416898
N89	N	1.429426	-1.290052	0.452331
N90	N	1.426006	-1.355180	0.454662
H91	H	1.464567	-1.385740	0.428781
N92	N	1.177955	-0.783557	0.620889
N93	N	1.121318	-0.733566	0.586382
H94	H	1.082740	-0.703011	0.612254
N95	N	1.387595	-1.025664	0.480270
N96	N	1.355657	-0.978295	0.429177
H97	H	1.396966	-0.956209	0.401409
H98	H	1.224459	-0.461397	0.923871
H99	H	1.425108	-0.652972	0.959003
H100	H	0.562493	-0.479709	0.479336
N101	N	1.219962	-0.457058	1.002251
N102	N	1.251941	-0.414999	0.963842
H103	H	1.210666	-0.375589	0.930144
N104	N	1.387595	-0.617047	1.071691
N105	N	1.470655	-0.623724	1.074969
H106	H	1.511968	-0.663113	1.108668
N107	N	0.828596	-0.706107	0.705042
N108	N	0.786518	-0.742120	0.740947
H109	H	0.820484	-0.780800	0.779506
N110	N	1.213296	-1.118835	0.597385
N111	N	1.162154	-1.146163	0.631738
H112	H	1.123582	-1.115622	0.657627
H113	H	1.231668	-1.041604	0.584990
N114	N	0.638148	-0.679271	0.678289
N115	N	0.554029	-0.667417	0.666464
H116	H	0.520024	-0.696518	0.695468
H117	H	1.182118	-0.924683	0.618204
N118	N	1.205590	-0.443414	0.779913
N119	N	1.157953	-0.397915	0.804330
H120	H	1.116666	-0.358494	0.770657
N121	N	0.638227	-0.395418	0.395274
N122	N	0.680303	-0.359407	0.359366
H123	H	0.646336	-0.320736	0.320798
N124	N	1.170536	-0.409830	1.105268
N125	N	1.122890	-0.364334	1.129681
H126	H	1.081589	-0.324923	1.096003
H127	H	1.189431	-0.427798	1.249240
