data_functionalizedCrystal
_audit_creation_method	'MofGen! by Chris Wilmer'
_symmetry_space_group_name_H-M	'P1'
_symmetry_Int_Tables_number	1
_symmetry_cell_setting	triclinic
loop_
_symmetry_equiv_pos_as_xyz
  x,y,z
_cell_length_a	6.817900
_cell_length_b	11.452732
_cell_length_c	10.773894
_cell_angle_alpha	83.898808
_cell_angle_beta	96.645922
_cell_angle_gamma	108.697210
loop_
_atom_site_label
_atom_site_type_symbol
_atom_site_fract_x
_atom_site_fract_y
_atom_site_fract_z
V1	V	-3.967651	-0.164841	-0.353160
O2	O	-3.936515	0.012549	-0.384265
O3	O	-3.938590	-0.331303	-0.314363
O4	O	-3.884793	-0.160275	-0.523783
O5	O	-3.990684	-0.159663	-0.173395
V6	V	-4.453238	-0.143863	-0.336078
O7	O	-4.224382	-0.210858	-0.390630
O8	O	-4.646704	-0.097846	-0.298608
O9	O	-4.259092	0.022599	-0.374874
O10	O	-4.601770	-0.321253	-0.304973
O11	O	-4.547601	-0.149041	-0.515842
O12	O	-4.312889	-0.148429	-0.165455
C13	C	-3.789411	-0.371946	-0.299404
C14	C	-3.846707	-0.508018	-0.268821
C15	C	-3.890521	-0.584038	-0.360417
C16	C	-3.949740	-0.724675	-0.328810
C17	C	-3.720786	-0.153781	-0.566539
C18	C	-3.734453	-0.151149	-0.705785
C19	C	-3.913057	-0.155711	-0.772657
C20	C	-3.927186	-0.152990	-0.916576
C21	C	-4.071615	0.063236	-0.389828
C22	C	-3.993555	0.199307	-0.420420
C23	C	-4.140239	-0.154927	-0.122691
C24	C	-4.105811	-0.157553	0.016555
H25	H	-3.956055	-0.763704	-0.226984
H26	H	-3.884178	-0.545002	-0.462236
F27	F	-3.985280	-0.749687	-0.553515
F28	F	-4.292018	-0.165269	-0.919028
F29	F	-3.854965	-0.559032	-0.135732
H30	H	-4.055503	-0.161621	-0.723362
F31	F	-3.548248	-0.143403	-0.770211
F32	F	-3.740968	-0.145244	-0.980997
