data_functionalizedCrystal
_audit_creation_method	'MofGen! by Chris Wilmer'
_symmetry_space_group_name_H-M	'P1'
_symmetry_Int_Tables_number	1
_symmetry_cell_setting	triclinic
loop_
_symmetry_equiv_pos_as_xyz
  x,y,z
_cell_length_a	21.395362
_cell_length_b	19.805405
_cell_length_c	21.395355
_cell_angle_alpha	90.019910
_cell_angle_beta	90.043940
_cell_angle_gamma	90.042288
loop_
_atom_site_label
_atom_site_type_symbol
_atom_site_fract_x
_atom_site_fract_y
_atom_site_fract_z
Zn1	Zn	0.957878	-0.269255	0.354580
Zn2	Zn	1.457878	0.230745	0.854580
Zn3	Zn	0.957789	-0.382425	0.249800
Zn4	Zn	1.457789	0.117575	0.749800
Zn5	Zn	0.853093	-0.269286	0.249781
Zn6	Zn	1.353093	0.230714	0.749781
Zn7	Zn	0.853070	-0.382438	0.354504
Zn8	Zn	1.353070	0.117562	0.854504
O9	O	0.905458	-0.325851	0.302166
O10	O	1.405458	0.174149	0.802166
O11	O	1.045544	-0.284248	0.340720
O12	O	1.545544	0.215752	0.840720
O13	O	0.943873	-0.367424	0.162119
O14	O	1.443873	0.132576	0.662119
O15	O	0.867040	-0.174565	0.263706
O16	O	1.367040	0.325435	0.763706
O17	O	1.045478	-0.367393	0.263738
O18	O	1.545478	0.132607	0.763738
O19	O	0.944025	-0.174542	0.340701
O20	O	1.444025	0.325458	0.840701
O21	O	0.866953	-0.284302	0.162105
O22	O	1.366953	0.215698	0.662105
O23	O	0.765412	-0.284315	0.263633
O24	O	1.265412	0.215685	0.763633
O25	O	0.867001	-0.367417	0.442192
O26	O	1.367001	0.132583	0.942192
O27	O	0.765395	-0.367448	0.340573
O28	O	1.265395	0.132552	0.840573
O29	O	0.944003	-0.284261	0.442247
O30	O	1.444003	0.215739	0.942247
O31	O	0.943850	-0.477143	0.263665
O32	O	1.443850	0.022857	0.763665
O33	O	0.866914	-0.477153	0.340591
O34	O	1.366914	0.022847	0.840591
C35	C	0.742670	-0.325887	0.302093
C36	C	1.242670	0.174113	0.802093
C37	C	0.673029	-0.325918	0.302077
C38	C	1.173029	0.174082	0.802077
C39	C	0.640323	-0.369263	0.342080
C40	C	1.140323	0.130737	0.842080
C41	C	0.574888	-0.369246	0.342108
C42	C	1.074888	0.130754	0.842108
C43	C	0.542160	-0.325892	0.302122
C44	C	1.042160	0.174108	0.802122
C45	C	0.574874	-0.282539	0.262116
C46	C	1.074874	0.217461	0.762116
C47	C	0.640308	-0.282553	0.262094
C48	C	1.140308	0.217447	0.762094
C49	C	0.438435	-0.320440	0.245717
C50	C	0.938435	0.179560	0.745717
C51	C	0.373002	-0.320431	0.245738
C52	C	0.873002	0.179569	0.745738
C53	C	0.340340	-0.325848	0.302191
C54	C	0.840340	0.174152	0.802191
C55	C	0.373118	-0.331287	0.358624
C56	C	0.873118	0.168713	0.858624
C57	C	0.438552	-0.331301	0.358602
C58	C	0.938552	0.168699	0.858602
C59	C	0.471208	-0.325873	0.302142
C60	C	0.971208	0.174127	0.802142
C61	C	0.236682	-0.369177	0.342227
C62	C	0.736682	0.130823	0.842227
C63	C	0.171245	-0.369156	0.342256
C64	C	0.671245	0.130844	0.842256
C65	C	0.171232	-0.282452	0.262259
C66	C	0.671232	0.217548	0.762259
C67	C	0.236668	-0.282470	0.262236
C68	C	0.736668	0.217530	0.762236
C69	C	0.269388	-0.325836	0.302219
C70	C	0.769388	0.174164	0.802219
C71	C	0.905387	-0.501707	0.302136
C72	C	1.405387	-0.001707	0.802136
C73	C	0.905414	-0.576939	0.302144
C74	C	1.405414	-0.076939	0.802144
C75	C	0.945514	-0.612255	0.262130
C76	C	1.445514	-0.112255	0.762130
C77	C	0.945540	-0.682944	0.262144
C78	C	1.445540	-0.182944	0.762144
C79	C	0.905464	-0.718315	0.302169
C80	C	1.405464	-0.218315	0.802169
C81	C	0.865362	-0.682993	0.342187
C82	C	1.365362	-0.182993	0.842187
C83	C	0.865339	-0.612306	0.342175
C84	C	1.365339	-0.112306	0.842175
C85	C	0.865455	-0.968067	0.342233
C86	C	1.365455	-0.468067	0.842233
C87	C	0.865480	-1.038759	0.342240
C88	C	1.365480	-0.538759	0.842240
C89	C	0.945656	-1.038704	0.262202
C90	C	1.445656	-0.538704	0.762202
C91	C	0.945633	-0.968017	0.262191
C92	C	1.445633	-0.468017	0.762191
C93	C	0.905534	-0.932702	0.302210
C94	C	1.405534	-0.432702	0.802210
C95	C	0.905507	-0.856053	0.302196
C96	C	1.405507	-0.356053	0.802196
C97	C	0.905488	-0.794962	0.302181
C98	C	1.405488	-0.294962	0.802181
C99	C	1.068881	-0.325816	0.302239
C100	C	1.568881	0.174184	0.802239
C101	C	1.138522	-0.325800	0.302271
C102	C	1.638522	0.174200	0.802271
C103	C	0.905510	-0.325837	0.465589
C104	C	1.405510	0.174163	0.965589
C105	C	0.905532	-0.325831	0.535231
C106	C	1.405532	0.174169	1.035231
C107	C	0.905545	-0.149308	0.302210
C108	C	1.405545	0.350692	0.802210
C109	C	0.905583	-0.074076	0.302229
C110	C	1.405583	0.425924	0.802229
C111	C	0.905442	-0.325816	0.139378
C112	C	1.405442	0.174184	0.639378
C113	C	0.905541	-0.325631	0.069738
C114	C	1.405541	0.174369	0.569738
C115	C	0.945625	-0.282530	0.567974
C116	C	1.445625	0.217470	1.067974
C117	C	0.945624	-0.282501	0.633409
C118	C	1.445624	0.217499	1.133409
C119	C	0.905537	-0.325785	0.666099
C120	C	1.405537	0.174215	1.166099
C121	C	0.865436	-0.369089	0.633348
C122	C	1.365436	0.130911	1.133348
C123	C	0.865433	-0.369112	0.567914
C124	C	1.365433	0.130888	1.067914
C125	C	0.900565	-0.386731	0.769762
C126	C	1.400565	0.113269	1.269762
C127	C	0.900572	-0.386709	0.835195
C128	C	1.400572	0.113291	1.335195
C129	C	0.905540	-0.325714	0.867920
C130	C	1.405540	0.174286	1.367920
C131	C	0.910516	-0.264738	0.835204
C132	C	1.410516	0.235262	1.335204
C133	C	0.910513	-0.264762	0.769770
C134	C	1.410513	0.235238	1.269770
C135	C	0.905534	-0.325765	0.737051
C136	C	1.405534	0.174235	1.237051
C137	C	0.945635	-0.282378	0.971615
C138	C	1.445635	0.217622	1.471615
C139	C	0.945630	-0.282347	1.037052
C140	C	1.445630	0.217653	1.537052
C141	C	0.865444	-0.368941	1.036990
C142	C	1.365444	0.131059	1.536990
C143	C	0.865446	-0.368966	0.971555
C144	C	1.365446	0.131034	1.471555
C145	C	0.905545	-0.325685	0.938871
C146	C	1.405545	0.174315	1.438871
H147	H	0.263297	-0.247178	0.229658
H148	H	0.763297	0.252822	0.729658
O149	O	0.822088	-0.574215	0.385334
O150	O	1.322088	-0.074215	0.885334
H151	H	0.828809	-0.519120	0.378608
H152	H	1.328809	-0.019120	0.878608
O153	O	0.988786	-0.721038	0.218983
O154	O	1.488786	-0.221038	0.718983
H155	H	1.016643	-0.684567	0.191144
H156	H	1.516643	-0.184567	0.691144
H157	H	0.465238	-0.335727	0.404552
H158	H	0.965238	0.164273	0.904552
H159	H	0.914563	-0.215070	0.861848
H160	H	1.414563	0.284930	1.361848
O161	O	0.822194	-0.415770	0.668605
O162	O	1.322194	0.084230	1.168605
H163	H	0.832905	-0.468895	0.656049
H164	H	1.332905	0.031105	1.156049
H165	H	0.346526	-0.335697	0.404594
H166	H	0.846526	0.164303	0.904594
O167	O	0.271981	-0.415938	0.385357
O168	O	0.771981	0.084062	0.885357
H169	H	0.238242	-0.446067	0.413187
H170	H	0.738242	0.053933	0.913187
O171	O	0.988880	-0.235698	0.936357
O172	O	1.488880	0.264302	1.436357
H173	H	0.960856	-0.201284	0.906517
H174	H	1.460856	0.298716	1.406517
O175	O	0.135964	-0.415997	0.385321
O176	O	0.635964	0.084003	0.885321
H177	H	0.169713	-0.446189	0.413083
H178	H	0.669713	0.053811	0.913083
H179	H	0.832782	-0.404372	0.541255
H180	H	1.332782	0.095628	1.041255
H181	H	0.978277	-0.247083	1.063710
H182	H	1.478277	0.252917	1.563710
O183	O	0.135944	-0.235695	0.219124
O184	O	0.635944	0.264305	0.719124
H185	H	0.084948	-0.242972	0.225855
H186	H	0.584948	0.257028	0.725855
H187	H	0.666960	-0.404574	0.374638
H188	H	1.166960	0.095426	0.874638
H189	H	0.978276	-0.247287	0.541367
H190	H	1.478276	0.252713	1.041367
O191	O	0.539600	-0.416024	0.385230
O192	O	1.039600	0.083976	0.885230
H193	H	0.573346	-0.446191	0.413018
H194	H	1.073346	0.053809	0.913018
O195	O	0.822184	-0.415660	0.936244
O196	O	1.322184	0.084340	1.436244
H197	H	0.832890	-0.468780	0.948802
H198	H	1.332890	0.031220	1.448802
H199	H	0.978265	-0.939220	0.229597
H200	H	1.478265	-0.439220	0.729597
O201	O	0.822200	-0.415622	1.072239
O202	O	1.322200	0.084378	1.572239
H203	H	0.832913	-0.468747	1.059685
H204	H	1.332913	0.031253	1.559685
H205	H	0.896351	-0.436388	0.743122
H206	H	1.396351	0.063612	1.243122
H207	H	0.832804	-0.939318	0.374817
H208	H	1.332804	-0.439318	0.874817
O209	O	0.988926	-1.076792	0.219052
O210	O	1.488926	-0.576792	0.719052
H211	H	0.982221	-1.131888	0.225791
H212	H	1.482221	-0.631888	0.725791
O213	O	0.988874	-0.235803	0.668737
O214	O	1.488874	0.264197	1.168737
H215	H	1.016759	-0.205715	0.635017
H216	H	1.516759	0.294285	1.135017
O217	O	0.822257	-1.076913	0.385416
O218	O	1.322257	-0.576913	0.885416
H219	H	0.794375	-1.040481	0.413248
H220	H	1.294375	-0.540481	0.913248
H221	H	0.832734	-0.711798	0.374778
H222	H	1.332734	-0.211798	0.874778
H223	H	0.346319	-0.316007	0.199786
H224	H	0.846319	0.183993	0.699786
O225	O	0.895199	-0.452470	0.870480
O226	O	1.395199	0.047530	1.370480
H227	H	0.891728	-0.494886	0.836733
H228	H	1.391728	0.005114	1.336733
O229	O	0.473663	-0.314599	0.184824
O230	O	0.973663	0.185401	0.684824
H231	H	0.439879	-0.310826	0.145588
H232	H	0.939879	0.189174	0.645588
H233	H	0.548223	-0.247239	0.229561
H234	H	1.048223	0.252761	0.729561
H235	H	0.914562	-0.215113	0.743136
H236	H	1.414562	0.284887	1.243136
O237	O	0.675590	-0.235814	0.218935
O238	O	1.175590	0.264186	0.718935
H239	H	0.641842	-0.205668	0.191129
H240	H	1.141842	0.294332	0.691129
H241	H	0.978146	-0.583461	0.229535
H242	H	1.478146	-0.083461	0.729535
