data_functionalizedCrystal
_audit_creation_method	'MofGen! by Chris Wilmer'
_symmetry_space_group_name_H-M	'P1'
_symmetry_Int_Tables_number	1
_symmetry_cell_setting	triclinic
loop_
_symmetry_equiv_pos_as_xyz
  x,y,z
_cell_length_a	19.121063
_cell_length_b	13.033385
_cell_length_c	13.032268
_cell_angle_alpha	74.839616
_cell_angle_beta	99.247498
_cell_angle_gamma	95.020803
loop_
_atom_site_label
_atom_site_type_symbol
_atom_site_fract_x
_atom_site_fract_y
_atom_site_fract_z
Zn1	Zn	-0.445177	-1.514960	-0.426311
Zn2	Zn	-0.549395	-1.529811	-0.256282
Zn3	Zn	-0.418757	-1.361841	-0.269393
Zn4	Zn	-0.549365	-1.329731	-0.456422
O5	O	-0.490674	-1.434086	-0.352102
O6	O	-0.470072	-1.664745	-0.385667
O7	O	-0.521022	-1.527182	-0.108591
O8	O	-0.323986	-1.389375	-0.283094
O9	O	-0.546641	-1.675656	-0.260747
O10	O	-0.343397	-1.501871	-0.398381
O11	O	-0.425042	-1.403775	-0.118224
O12	O	-0.425012	-1.209767	-0.312292
O13	O	-0.546588	-1.334650	-0.601858
O14	O	-0.520970	-1.186176	-0.449701
O15	O	-0.470042	-1.470736	-0.579735
O16	O	-0.647667	-1.496047	-0.289945
O17	O	-0.647645	-1.349050	-0.436988
C18	C	-0.470121	-1.159644	-0.385688
C19	C	-0.461348	-1.042233	-0.400082
C20	C	-0.486180	-0.873948	-0.359465
C21	C	-0.495250	-0.995300	-0.344583
C22	C	-0.673141	-1.420701	-0.365331
C23	C	-0.751212	-1.415067	-0.371014
C24	C	-0.787886	-1.488999	-0.297178
C25	C	-0.861242	-1.483705	-0.302528
C26	C	-0.897922	-1.404475	-0.381712
C27	C	-0.861243	-1.330539	-0.455556
C28	C	-0.787889	-1.335838	-0.450209
C29	C	-1.119405	-1.384649	-0.401688
C30	C	-1.192764	-1.379353	-0.407027
C31	C	-1.192758	-1.532521	-0.253999
C32	C	-1.119402	-1.537809	-0.248656
C33	C	-1.082730	-1.463877	-0.322503
C34	C	-0.972904	-1.399060	-0.387181
C35	C	-1.007751	-1.469298	-0.317038
C36	C	-0.307497	-1.447548	-0.338841
C37	C	-0.229438	-1.453285	-0.333190
C38	C	-0.511259	-1.397455	-0.630625
C39	C	-0.520031	-1.381845	-0.749315
C40	C	-0.511301	-0.709600	-0.318375
C41	C	-0.520078	-0.827013	-0.303974
C42	C	-0.486069	-1.442218	-0.791285
C43	C	-0.495135	-1.426086	-0.913957
C44	C	-0.470122	-1.470639	-0.074651
C45	C	-0.461167	-1.486468	0.044078
H46	H	-0.758025	-1.553513	-0.232694
H47	H	-0.450447	-0.824291	-0.417997
C48	C	-0.383494	-1.480236	-0.657099
C49	C	-0.437758	-1.528124	-0.717197
H50	H	-0.353673	-1.533276	-0.611357
H51	H	-0.356376	-1.430523	-0.704288
H52	H	-0.403636	-1.444448	-0.614880
H53	H	-0.417616	-1.563906	-0.759422
H54	H	-0.464879	-1.577856	-0.670002
H55	H	-0.530993	-1.044952	-0.286058
H56	H	-1.089539	-1.602325	-0.184178
H57	H	-0.425611	-0.992580	-0.458616
H58	H	-0.555818	-0.876668	-0.245453
H59	H	-0.891099	-1.543908	-0.242402
H60	H	-0.530920	-1.362444	-0.968840
C61	C	-1.305214	-1.303215	-0.483156
C62	C	-1.233086	-1.292256	-0.494070
H63	H	-1.330104	-1.249441	-0.536885
H64	H	-1.323659	-1.371238	-0.491032
H65	H	-1.310794	-1.296380	-0.414153
H66	H	-1.227505	-1.299099	-0.563071
H67	H	-1.214635	-1.224216	-0.486204
C68	C	-1.027440	-1.246578	-0.427782
C69	C	-1.079094	-1.303380	-0.482847
H70	H	-1.002548	-1.196409	-0.477889
H71	H	-1.049630	-1.210267	-0.388261
H72	H	-0.995104	-1.294538	-0.379863
H73	H	-1.111434	-1.255421	-0.530761
H74	H	-1.056903	-1.339694	-0.522386
C75	C	-1.305205	-1.592429	-0.194262
C76	C	-1.233073	-1.613800	-0.172846
H77	H	-1.330093	-1.642619	-0.144166
H78	H	-1.310800	-1.522676	-0.188122
H79	H	-1.323643	-1.597516	-0.265018
H80	H	-1.214633	-1.608705	-0.102092
H81	H	-1.227473	-1.683570	-0.178976
H82	H	-0.425372	-1.550098	-0.901042
C83	C	-0.953218	-1.290903	-0.606996
C84	C	-0.901563	-1.243448	-0.542595
H85	H	-0.978111	-1.237132	-0.660725
H86	H	-0.931029	-1.333575	-0.640165
H87	H	-0.985554	-1.334175	-0.563773
H88	H	-0.869224	-1.200182	-0.585817
H89	H	-0.923753	-1.200758	-0.509425
C90	C	-0.567983	-1.296597	-0.930582
C91	C	-0.568351	-1.295948	-0.823398
H92	H	-0.597819	-1.243572	-0.976313
H93	H	-0.520982	-1.282218	-0.947277
H94	H	-0.584909	-1.364441	-0.940848
H95	H	-0.551420	-1.228106	-0.813130
H96	H	-0.615362	-1.310320	-0.806698
H97	H	-0.758030	-1.275636	-0.510336
H98	H	-0.977884	-1.533811	-0.252570
H99	H	-1.002777	-1.334548	-0.451651
