data_functionalizedCrystal
_audit_creation_method	'MofGen! by Chris Wilmer'
_symmetry_space_group_name_H-M	'P1'
_symmetry_Int_Tables_number	1
_symmetry_cell_setting	triclinic
loop_
_symmetry_equiv_pos_as_xyz
  x,y,z
_cell_length_a	18.050591
_cell_length_b	18.050589
_cell_length_c	18.215399
_cell_angle_alpha	90.023603
_cell_angle_beta	90.025700
_cell_angle_gamma	90.024227
loop_
_atom_site_label
_atom_site_type_symbol
_atom_site_fract_x
_atom_site_fract_y
_atom_site_fract_z
Zn1	Zn	1.135328	-0.295746	0.416253
Zn2	Zn	1.635328	0.204254	0.916253
Zn3	Zn	1.135228	-0.419941	0.293196
Zn4	Zn	1.635228	0.080059	0.793196
Zn5	Zn	1.011136	-0.295761	0.293188
Zn6	Zn	1.511136	0.204239	0.793188
Zn7	Zn	1.011095	-0.419890	0.416209
Zn8	Zn	1.511095	0.080110	0.916209
O9	O	1.073197	-0.357835	0.354712
O10	O	1.573197	0.142165	0.854712
O11	O	1.239239	-0.312236	0.399952
O12	O	1.739239	0.187764	0.899952
O13	O	1.118743	-0.403496	0.190211
O14	O	1.618743	0.096504	0.690211
O15	O	1.027670	-0.191834	0.309528
O16	O	1.527670	0.308166	0.809528
O17	O	1.239166	-0.403482	0.309542
O18	O	1.739166	0.096518	0.809542
O19	O	1.118912	-0.191824	0.399944
O20	O	1.618912	0.308176	0.899944
O21	O	1.027573	-0.312261	0.190205
O22	O	1.527573	0.187739	0.690205
O23	O	0.907206	-0.312212	0.309485
O24	O	1.407206	0.187788	0.809485
O25	O	1.027599	-0.403395	0.519199
O26	O	1.527599	0.096605	1.019199
O27	O	0.907176	-0.403409	0.399868
O28	O	1.407176	0.096591	0.899868
O29	O	1.118872	-0.312187	0.519232
O30	O	1.618872	0.187813	1.019232
O31	O	1.118702	-0.523859	0.309499
O32	O	1.618702	-0.023859	0.809499
O33	O	1.027502	-0.523822	0.399876
O34	O	1.527502	-0.023822	0.899876
C35	C	0.880245	-0.357807	0.354671
C36	C	1.380245	0.142193	0.854671
C37	C	0.797699	-0.357813	0.354671
C38	C	1.297699	0.142187	0.854671
C39	C	0.598243	-0.308162	0.305634
C40	C	1.098243	0.191838	0.805634
C41	C	0.548822	-0.375900	0.287528
C42	C	1.048822	0.124100	0.787528
C43	C	0.646568	-0.357836	0.354704
C44	C	1.146568	0.142164	0.854704
C45	C	0.548908	-0.290121	0.372808
C46	C	1.048908	0.209879	0.872808
C47	C	0.500583	-0.357851	0.354735
C48	C	1.000583	0.142149	0.854735
C49	C	0.598234	-0.425609	0.336563
C50	C	1.098234	0.074391	0.836563
C51	C	0.598325	-0.339784	0.421874
C52	C	1.098325	0.160216	0.921874
C53	C	0.548926	-0.407569	0.403794
C54	C	1.048926	0.092431	0.903794
C55	C	0.730667	-0.357825	0.354685
C56	C	1.230667	0.142175	0.854685
C57	C	0.416487	-0.357869	0.354755
C58	C	0.916487	0.142131	0.854755
C59	C	1.073107	-0.550787	0.354699
C60	C	1.573107	-0.050787	0.854699
C61	C	1.073137	-0.633333	0.354719
C62	C	1.573137	-0.133333	0.854719
C63	C	1.023591	-0.832790	0.403848
C64	C	1.523591	-0.332790	0.903848
C65	C	1.005487	-0.882229	0.336692
C66	C	1.505487	-0.382229	0.836692
C67	C	1.073210	-0.784463	0.354728
C68	C	1.573210	-0.284463	0.854728
C69	C	1.091350	-0.882105	0.421892
C70	C	1.591350	-0.382105	0.921892
C71	C	1.073279	-0.930448	0.354743
C72	C	1.573279	-0.430448	0.854743
C73	C	1.055070	-0.832815	0.287537
C74	C	1.555070	-0.332815	0.787537
C75	C	1.140964	-0.832687	0.372782
C76	C	1.640964	-0.332687	0.872782
C77	C	1.122886	-0.882104	0.305579
C78	C	1.622886	-0.382104	0.805579
C79	C	1.073168	-0.700365	0.354721
C80	C	1.573168	-0.200365	0.854721
C81	C	1.073320	-1.014544	0.354744
C82	C	1.573320	-0.514544	0.854744
C83	C	1.266902	-0.357863	0.354753
C84	C	1.766902	0.142137	0.854753
C85	C	1.349448	-0.357875	0.354770
C86	C	1.849448	0.142125	0.854770
C87	C	1.073242	-0.357783	0.546665
C88	C	1.573242	0.142217	1.046665
C89	C	1.073261	-0.357762	0.628463
C90	C	1.573261	0.142238	1.128463
C91	C	1.073307	-0.164129	0.354740
C92	C	1.573307	0.335871	0.854740
C93	C	1.073354	-0.081583	0.354752
C94	C	1.573354	0.418417	0.854752
C95	C	1.073194	-0.357832	0.163505
C96	C	1.573194	0.142168	0.663505
C97	C	1.073319	-0.357645	0.081707
C98	C	1.573319	0.142355	0.581707
C99	C	1.120804	-0.310225	0.816676
C100	C	1.620804	0.189775	1.316676
C101	C	1.120813	-0.310203	0.893535
C102	C	1.620813	0.189797	1.393535
C103	C	1.025771	-0.405183	0.893489
C104	C	1.525771	0.094817	1.393489
C105	C	1.025759	-0.405201	0.816632
C106	C	1.525759	0.094799	1.316632
C107	C	1.073280	-0.357723	0.778227
C108	C	1.573280	0.142277	1.278227
C109	C	1.073301	-0.357684	0.931943
C110	C	1.573301	0.142316	1.431943
C111	C	1.073310	-0.357660	1.015277
C112	C	1.573310	0.142340	1.515277
C113	C	1.073270	-0.357745	0.694888
C114	C	1.573270	0.142255	1.194888
H115	H	0.620085	-0.324484	0.478648
H116	H	1.120085	0.175516	0.978648
N117	N	0.977223	-0.453679	0.932709
N118	N	1.477223	0.046321	1.432709
N119	N	0.934785	-0.496075	0.898368
N120	N	1.434785	0.003925	1.398368
H121	H	0.900492	-0.530324	0.926064
H122	H	1.400492	-0.030324	1.426064
N123	N	0.625295	-0.497472	0.317268
N124	N	1.125295	0.002528	0.817268
N125	N	0.608888	-0.525234	0.256519
N126	N	1.108888	-0.025234	0.756519
H127	H	0.628000	-0.575986	0.242888
H128	H	1.128000	-0.075986	0.742888
H129	H	0.619897	-0.266201	0.264092
H130	H	1.119897	0.233799	0.764092
N131	N	0.521922	-0.460318	0.455879
N132	N	1.021922	0.039682	0.955879
N133	N	0.538746	-0.454232	0.522182
N134	N	1.038746	0.045768	1.022182
H135	H	0.519672	-0.491487	0.558966
H136	H	1.019672	0.008513	1.058966
H137	H	1.164877	-0.903620	0.263999
H138	H	1.664877	-0.403620	0.763999
N139	N	1.110572	-0.909283	0.493130
N140	N	1.610572	-0.409283	0.993130
N141	N	1.114211	-0.977489	0.504395
N142	N	1.614211	-0.477489	1.004395
H143	H	1.127782	-0.996683	0.554708
H144	H	1.627782	-0.496683	1.054708
H145	H	0.527079	-0.391180	0.230737
H146	H	1.027079	0.108820	0.730737
N147	N	0.521725	-0.218273	0.391993
N148	N	1.021725	0.281727	0.891993
N149	N	0.537536	-0.163524	0.353026
N150	N	1.037536	0.336476	0.853026
H151	H	0.518340	-0.112779	0.366569
H152	H	1.018340	0.387221	0.866569
N153	N	0.977199	-0.453710	0.777353
N154	N	1.477199	0.046290	1.277353
N155	N	0.908675	-0.448770	0.785918
N156	N	1.408675	0.051230	1.285918
H157	H	0.874378	-0.483025	0.758178
H158	H	1.374378	0.016975	1.258178
H159	H	0.981568	-0.811136	0.445329
H160	H	1.481568	-0.311136	0.945329
N161	N	1.169348	-0.261724	0.777457
N162	N	1.669348	0.238276	1.277457
N163	N	1.211776	-0.219319	0.811799
N164	N	1.711776	0.280681	1.311799
H165	H	1.246060	-0.185062	0.784104
H166	H	1.746060	0.314938	1.284104
H167	H	0.948222	-0.904006	0.321436
H168	H	1.448222	-0.404006	0.821436
N169	N	1.035753	-0.805766	0.216277
N170	N	1.535753	-0.305766	0.716277
N171	N	0.979778	-0.765827	0.208272
N172	N	1.479778	-0.265827	0.708272
H173	H	0.966128	-0.746723	0.157947
H174	H	1.466128	-0.246723	0.657947
N175	N	1.212788	-0.805375	0.391966
N176	N	1.712788	-0.305375	0.891966
N177	N	1.240414	-0.821115	0.452930
N178	N	1.740414	-0.321115	0.952930
H179	H	1.291140	-0.801826	0.466487
H180	H	1.791140	-0.301826	0.966487
N181	N	1.169359	-0.261677	0.932797
N182	N	1.669359	0.238323	1.432797
N183	N	1.211779	-0.219290	0.898495
N184	N	1.711779	0.280710	1.398495
H185	H	1.246066	-0.185014	0.926224
H186	H	1.746066	0.314986	1.426224
