data_functionalizedCrystal
_audit_creation_method	'MofGen! by Chris Wilmer'
_symmetry_space_group_name_H-M	'P1'
_symmetry_Int_Tables_number	1
_symmetry_cell_setting	triclinic
loop_
_symmetry_equiv_pos_as_xyz
  x,y,z
_cell_length_a	21.295417
_cell_length_b	21.295420
_cell_length_c	21.295411
_cell_angle_alpha	90.025571
_cell_angle_beta	89.978356
_cell_angle_gamma	89.972078
loop_
_atom_site_label
_atom_site_type_symbol
_atom_site_fract_x
_atom_site_fract_y
_atom_site_fract_z
Zn1	Zn	-0.250724	-0.962355	-0.355928
Zn2	Zn	0.082609	-0.629022	-0.022595
Zn3	Zn	0.415942	-0.295689	0.310738
Zn4	Zn	-0.355976	-0.962258	-0.250654
Zn5	Zn	-0.022643	-0.628924	0.082680
Zn6	Zn	0.310690	-0.295591	0.416013
Zn7	Zn	-0.250720	-0.857079	-0.250672
Zn8	Zn	0.082613	-0.523745	0.082662
Zn9	Zn	0.415947	-0.190412	0.415995
Zn10	Zn	-0.355955	-0.857048	-0.355884
Zn11	Zn	-0.022622	-0.523715	-0.022550
Zn12	Zn	0.310712	-0.190381	0.310783
O13	O	-0.303344	-0.909685	-0.303284
O14	O	0.029989	-0.576352	0.030049
O15	O	0.363323	-0.243018	0.363382
O16	O	-0.264697	-1.050432	-0.341975
O17	O	0.068636	-0.717098	-0.008641
O18	O	0.401970	-0.383765	0.324692
O19	O	-0.342021	-0.948277	-0.162567
O20	O	-0.008688	-0.614944	0.170767
O21	O	0.324646	-0.281611	0.504100
O22	O	-0.162631	-0.871097	-0.264660
O23	O	0.170702	-0.537764	0.068673
O24	O	0.504035	-0.204431	0.402006
O25	O	-0.342025	-1.050360	-0.264630
O26	O	-0.008692	-0.717027	0.068703
O27	O	0.324642	-0.383693	0.402037
O28	O	-0.162634	-0.948444	-0.341992
O29	O	0.170699	-0.615110	-0.008659
O30	O	0.504032	-0.281777	0.324675
O31	O	-0.264690	-0.871003	-0.162580
O32	O	0.068644	-0.537669	0.170754
O33	O	0.401977	-0.204336	0.504087
O34	O	-0.264669	-0.768985	-0.264617
O35	O	0.068664	-0.435652	0.068716
O36	O	0.401998	-0.102318	0.402050
O37	O	-0.341989	-0.871045	-0.443979
O38	O	-0.008655	-0.537712	-0.110646
O39	O	0.324678	-0.204379	0.222688
O40	O	-0.341985	-0.768963	-0.341916
O41	O	-0.008651	-0.435629	-0.008582
O42	O	0.324682	-0.102296	0.324751
O43	O	-0.264676	-0.948414	-0.444012
O44	O	0.068657	-0.615081	-0.110679
O45	O	0.401990	-0.281747	0.222655
O46	O	-0.444063	-0.948248	-0.264587
O47	O	-0.110729	-0.614914	0.068747
O48	O	0.222604	-0.281581	0.402080
O49	O	-0.444047	-0.870951	-0.341898
O50	O	-0.110714	-0.537617	-0.008565
O51	O	0.222620	-0.204284	0.324768
C52	C	-0.303324	-0.746133	-0.303264
C53	C	0.030009	-0.412800	0.030070
C54	C	0.363342	-0.079467	0.363403
C55	C	-0.303331	-0.676165	-0.303270
C56	C	0.030002	-0.342832	0.030063
C57	C	0.363335	-0.009499	0.363397
C58	C	-0.466895	-0.909602	-0.303249
C59	C	-0.133562	-0.576269	0.030084
C60	C	0.199771	-0.242936	0.363417
C61	C	-0.536864	-0.909625	-0.303256
C62	C	-0.203530	-0.576291	0.030078
C63	C	0.129803	-0.242958	0.363411
C64	C	-0.343665	-0.176712	-0.343484
C65	C	-0.010332	0.156621	-0.010150
C66	C	0.323001	0.489955	0.323183
C67	C	-0.343667	-0.242454	-0.343478
C68	C	-0.010333	0.090879	-0.010145
C69	C	0.323000	0.424212	0.323189
C70	C	-0.303349	-0.275326	-0.303294
C71	C	0.029984	0.058008	0.030039
C72	C	0.363318	0.391341	0.363372
C73	C	-0.263038	-0.242449	-0.263102
C74	C	0.070295	0.090884	0.070231
C75	C	0.403628	0.424218	0.403565
C76	C	-0.263043	-0.176708	-0.263104
C77	C	0.070291	0.156626	0.070229
C78	C	0.403624	0.489959	0.403562
N79	N	-0.248233	-0.378566	-0.298563
N80	N	0.085100	-0.045233	0.034770
N81	N	0.418434	0.288100	0.368103
N82	N	-0.248231	-0.441018	-0.298565
N83	N	0.085103	-0.107685	0.034768
N84	N	0.418436	0.225649	0.368102
C85	C	-0.303334	-0.473400	-0.303284
C86	C	0.029999	-0.140067	0.030049
C87	C	0.363333	0.193266	0.363383
N88	N	-0.358441	-0.440972	-0.308014
N89	N	-0.025108	-0.107639	0.025319
N90	N	0.308225	0.225694	0.358653
N91	N	-0.358443	-0.378515	-0.308016
N92	N	-0.025110	-0.045182	0.025318
N93	N	0.308224	0.288152	0.358651
C94	C	-0.303340	-0.346611	-0.303287
C95	C	0.029993	-0.013278	0.030046
C96	C	0.363327	0.320056	0.363380
C97	C	-0.343646	-0.577555	-0.343465
C98	C	-0.010313	-0.244221	-0.010131
C99	C	0.323020	0.089112	0.323202
C100	C	-0.343649	-0.643298	-0.343455
C101	C	-0.010315	-0.309965	-0.010121
C102	C	0.323018	0.023368	0.323212
C103	C	-0.263015	-0.643292	-0.263082
C104	C	0.070319	-0.309958	0.070251
C105	C	0.403652	0.023375	0.403585
C106	C	-0.263018	-0.577549	-0.263089
C107	C	0.070315	-0.244216	0.070245
C108	C	0.403649	0.089117	0.403578
C109	C	-0.303333	-0.544685	-0.303283
C110	C	0.030000	-0.211351	0.030050
C111	C	0.363334	0.121982	0.363383
C112	C	-0.569717	-0.949909	-0.263041
C113	C	-0.236384	-0.616576	0.070293
C114	C	0.096949	-0.283242	0.403626
C115	C	-0.635460	-0.949939	-0.263055
C116	C	-0.302127	-0.616605	0.070279
C117	C	0.031207	-0.283272	0.403612
C118	C	-0.668346	-0.909672	-0.303277
C119	C	-0.335013	-0.576339	0.030056
C120	C	-0.001679	-0.243006	0.363389
C121	C	-0.635484	-0.869385	-0.343500
C122	C	-0.302151	-0.536052	-0.010167
C123	C	0.031182	-0.202719	0.323166
C124	C	-0.569743	-0.869361	-0.343489
C125	C	-0.236410	-0.536028	-0.010156
C126	C	0.096924	-0.202695	0.323177
N127	N	-0.771610	-0.854605	-0.308069
N128	N	-0.438277	-0.521272	0.025264
N129	N	-0.104944	-0.187939	0.358597
N130	N	-0.834062	-0.854630	-0.308076
N131	N	-0.500728	-0.521297	0.025257
N132	N	-0.167395	-0.187963	0.358591
C133	C	-0.866421	-0.909743	-0.303313
C134	C	-0.533087	-0.576410	0.030020
C135	C	-0.199754	-0.243076	0.363353
N136	N	-0.833969	-0.964832	-0.298532
N137	N	-0.500636	-0.631498	0.034802
N138	N	-0.167303	-0.298165	0.368135
N139	N	-0.771512	-0.964807	-0.298522
N140	N	-0.438179	-0.631473	0.034812
N141	N	-0.104845	-0.298140	0.368145
C142	C	-0.739631	-0.909694	-0.303294
C143	C	-0.406298	-0.576361	0.030040
C144	C	-0.072965	-0.243027	0.363373
C145	C	-0.970560	-0.950063	-0.263112
C146	C	-0.637227	-0.616729	0.070222
C147	C	-0.303894	-0.283396	0.403555
C148	C	-1.036304	-0.950093	-0.263130
C149	C	-0.702971	-0.616760	0.070203
C150	C	-0.369637	-0.283427	0.403537
C151	C	-1.036327	-0.869534	-0.343572
C152	C	-0.702994	-0.536201	-0.010239
C153	C	-0.369660	-0.202868	0.323094
C154	C	-0.970584	-0.869509	-0.343557
C155	C	-0.637251	-0.536176	-0.010224
C156	C	-0.303918	-0.202843	0.323110
C157	C	-0.937705	-0.909773	-0.303323
C158	C	-0.604372	-0.576439	0.030010
C159	C	-0.271038	-0.243106	0.363343
C160	C	-0.139154	-0.909785	-0.303333
C161	C	0.194180	-0.576452	0.030000
C162	C	0.527513	-0.243118	0.363334
C163	C	-0.069185	-0.909827	-0.303354
C164	C	0.264148	-0.576494	0.029979
C165	C	0.597481	-0.243161	0.363313
C166	C	-0.303331	-0.909737	-0.467475
C167	C	0.030003	-0.576404	-0.134141
C168	C	0.363336	-0.243070	0.199192
C169	C	-0.303325	-0.909759	-0.537443
C170	C	0.030008	-0.576426	-0.204109
C171	C	0.363342	-0.243093	0.129224
C172	C	-0.303360	-0.073875	-0.303302
C173	C	0.029973	0.259458	0.030032
C174	C	0.363307	0.592792	0.363365
C175	C	-0.303358	-0.143843	-0.303299
C176	C	0.029976	0.189490	0.030034
C177	C	0.363309	0.522823	0.363368
C178	C	-0.263067	-0.950044	-0.570328
C179	C	0.070267	-0.616710	-0.236994
C180	C	0.403600	-0.283377	0.096339
C181	C	-0.263039	-0.950043	-0.636070
C182	C	0.070294	-0.616709	-0.302737
C183	C	0.403627	-0.283376	0.030597
C184	C	-0.303282	-0.909764	-0.668925
C185	C	0.030052	-0.576431	-0.335592
C186	C	0.363385	-0.243098	-0.002259
C187	C	-0.343543	-0.869472	-0.636033
C188	C	-0.010209	-0.536139	-0.302699
C189	C	0.323124	-0.202806	0.030634
C190	C	-0.343564	-0.869470	-0.570291
C191	C	-0.010231	-0.536136	-0.236958
C192	C	0.323102	-0.202803	0.096375
N193	N	-0.358349	-0.904908	-0.772141
N194	N	-0.025016	-0.571574	-0.438807
N195	N	0.308318	-0.238241	-0.105474
N196	N	-0.358327	-0.904914	-0.834592
N197	N	-0.024993	-0.571580	-0.501259
N198	N	0.308340	-0.238247	-0.167925
C199	C	-0.303218	-0.909768	-0.867000
C200	C	0.030116	-0.576435	-0.533667
C201	C	0.363449	-0.243102	-0.200334
N202	N	-0.248131	-0.914629	-0.834598
N203	N	0.085203	-0.581296	-0.501264
N204	N	0.418536	-0.247962	-0.167931
N205	N	-0.248154	-0.914626	-0.772140
N206	N	0.085179	-0.581293	-0.438807
N207	N	0.418513	-0.247960	-0.105474
C208	C	-0.303262	-0.909762	-0.740211
C209	C	0.030071	-0.576429	-0.406877
C210	C	0.363404	-0.243095	-0.073544
C211	C	-0.262926	-0.950054	-0.971171
C212	C	0.070407	-0.616720	-0.637837
C213	C	0.403740	-0.283387	-0.304504
C214	C	-0.262898	-0.950048	-1.036914
C215	C	0.070435	-0.616715	-0.703581
C216	C	0.403769	-0.283382	-0.370248
C217	C	-0.343407	-0.869481	-1.036876
C218	C	-0.010074	-0.536148	-0.703542
C219	C	0.323259	-0.202815	-0.370209
C220	C	-0.343430	-0.869483	-0.971133
C221	C	-0.010097	-0.536150	-0.637800
C222	C	0.323237	-0.202816	-0.304466
C223	C	-0.303190	-0.909773	-0.938285
C224	C	0.030143	-0.576439	-0.604951
C225	C	0.363476	-0.243106	-0.271618
C226	C	-0.303312	-0.909669	-0.139733
C227	C	0.030022	-0.576336	0.193601
C228	C	0.363355	-0.243002	0.526934
C229	C	-0.303140	-0.909769	-0.069765
C230	C	0.030193	-0.576435	0.263568
C231	C	0.363527	-0.243102	0.596902
H232	H	-0.376490	-0.269221	-0.376203
H233	H	-0.043157	0.064112	-0.042870
H234	H	0.290177	0.397445	0.290464
N235	N	-0.937023	-0.828363	-0.384642
N236	N	-0.603690	-0.495030	-0.051309
N237	N	-0.270357	-0.161696	0.282025
N238	N	-0.944333	-0.832516	-0.442733
N239	N	-0.610999	-0.499182	-0.109399
N240	N	-0.277666	-0.165849	0.223934
H241	H	-0.920631	-0.803456	-0.471754
H242	H	-0.587298	-0.470123	-0.138421
H243	H	-0.253964	-0.136789	0.194913
N244	N	-0.221832	-0.676851	-0.222025
N245	N	0.111501	-0.343518	0.111308
N246	N	0.444835	-0.010184	0.444641
N247	N	-0.225926	-0.669475	-0.163933
N248	N	0.107407	-0.336142	0.169401
N249	N	0.440741	-0.002809	0.502734
H250	H	-0.196841	-0.693178	-0.134933
H251	H	0.136492	-0.359845	0.198401
H252	H	0.469826	-0.026512	0.531734
N253	N	-0.221948	-0.991182	-0.536777
N254	N	0.111386	-0.657849	-0.203444
N255	N	0.444719	-0.324516	0.129890
N256	N	-0.181840	-0.969055	-0.500092
N257	N	0.151493	-0.635722	-0.166758
N258	N	0.484827	-0.302388	0.166575
H259	H	-0.152797	-0.998108	-0.476396
H260	H	0.180537	-0.664774	-0.143062
H261	H	0.513870	-0.331441	0.190271
N262	N	-0.221862	-0.276033	-0.222055
N263	N	0.111471	0.057301	0.111278
N264	N	0.444804	0.390634	0.444611
N265	N	-0.221863	-0.334730	-0.222059
N266	N	0.111470	-0.001396	0.111275
N267	N	0.444803	0.331937	0.444608
H268	H	-0.192784	-0.358449	-0.193066
H269	H	0.140550	-0.025115	0.140267
H270	H	0.473883	0.308218	0.473601
N271	N	-0.536170	-0.828208	-0.384561
N272	N	-0.202837	-0.494875	-0.051228
N273	N	0.130496	-0.161542	0.282106
N274	N	-0.477474	-0.828191	-0.384543
N275	N	-0.144140	-0.494858	-0.051210
N276	N	0.189193	-0.161525	0.282124
H277	H	-0.453761	-0.799127	-0.413550
H278	H	-0.120427	-0.465793	-0.080217
H279	H	0.212906	-0.132460	0.253117
H280	H	-1.063102	-0.836752	-0.376325
H281	H	-0.729769	-0.503418	-0.042992
H282	H	-0.396435	-0.170085	0.290342
N283	N	-0.384700	-0.828329	-0.536696
N284	N	-0.051367	-0.494996	-0.203363
N285	N	0.281967	-0.161663	0.129970
N286	N	-0.424829	-0.850454	-0.500022
N287	N	-0.091496	-0.517120	-0.166689
N288	N	0.241837	-0.183787	0.166645
H289	H	-0.453883	-0.821399	-0.476294
H290	H	-0.120550	-0.488065	-0.142960
H291	H	0.212784	-0.154732	0.190373
N292	N	-0.221906	-0.991193	-0.669661
N293	N	0.111427	-0.657860	-0.336327
N294	N	0.444761	-0.324527	-0.002994
N295	N	-0.185979	-1.027158	-0.640324
N296	N	0.147355	-0.693824	-0.306991
N297	N	0.480688	-0.360491	0.026342
H298	H	-0.156927	-1.056220	-0.664045
H299	H	0.176407	-0.722887	-0.330712
H300	H	0.509740	-0.389554	0.002621
N301	N	-0.221840	-0.543981	-0.222037
N302	N	0.111494	-0.210647	0.111296
N303	N	0.444827	0.122686	0.444630
N304	N	-0.185846	-0.573335	-0.186158
N305	N	0.147487	-0.240001	0.147175
N306	N	0.480820	0.093332	0.480508
H307	H	-0.156764	-0.549627	-0.157161
H308	H	0.176570	-0.216294	0.176172
H309	H	0.509903	0.117039	0.509505
N310	N	-0.669084	-0.828253	-0.384577
N311	N	-0.335750	-0.494919	-0.051243
N312	N	-0.002417	-0.161586	0.282090
N313	N	-0.705813	-0.788164	-0.362394
N314	N	-0.372480	-0.454831	-0.029061
N315	N	-0.039146	-0.121498	0.304272
H316	H	-0.729544	-0.759114	-0.391407
H317	H	-0.396210	-0.425781	-0.058073
H318	H	-0.062877	-0.092448	0.275260
N319	N	-0.936980	-0.991193	-0.222012
N320	N	-0.603646	-0.657859	0.111321
N321	N	-0.270313	-0.324526	0.444654
N322	N	-0.966325	-1.027163	-0.186111
N323	N	-0.632992	-0.693830	0.147222
N324	N	-0.299658	-0.360497	0.480555
H325	H	-0.942611	-1.056212	-0.157084
H326	H	-0.609278	-0.722878	0.176250
H327	H	-0.275944	-0.389545	0.509583
N328	N	-0.384643	-0.828317	-0.669584
N329	N	-0.051309	-0.494984	-0.336251
N330	N	0.282024	-0.161650	-0.002917
N331	N	-0.380453	-0.770234	-0.662218
N332	N	-0.047120	-0.436901	-0.328884
N333	N	0.286214	-0.103567	0.004449
H334	H	-0.409477	-0.741162	-0.685914
H335	H	-0.076143	-0.407829	-0.352580
H336	H	0.257190	-0.074496	-0.019247
H337	H	-0.376216	-0.836683	-0.944358
H338	H	-0.042883	-0.503350	-0.611025
H339	H	0.290450	-0.170016	-0.277691
N340	N	-0.221818	-0.991207	-0.937622
N341	N	0.111515	-0.657874	-0.604288
N342	N	0.444848	-0.324541	-0.270955
N343	N	-0.185869	-1.027169	-0.966994
N344	N	0.147464	-0.693835	-0.633661
N345	N	0.480798	-0.360502	-0.300328
H346	H	-0.156835	-1.056234	-0.943303
H347	H	0.176498	-0.722900	-0.609969
H348	H	0.509832	-0.389567	-0.276636
N349	N	-1.069854	-0.991248	-0.222042
N350	N	-0.736521	-0.657914	0.111292
N351	N	-0.403187	-0.324581	0.444625
N352	N	-1.062547	-0.987094	-0.163951
N353	N	-0.729213	-0.653761	0.169382
N354	N	-0.395880	-0.320428	0.502716
H355	H	-1.086241	-1.016161	-0.134931
H356	H	-0.752907	-0.682828	0.198403
H357	H	-0.419574	-0.349494	0.531736
N358	N	-0.221865	-0.143139	-0.222049
N359	N	0.111468	0.190194	0.111284
N360	N	0.444802	0.523527	0.444618
N361	N	-0.185873	-0.172492	-0.186169
N362	N	0.147460	0.160841	0.147165
N363	N	0.480794	0.494174	0.480498
H364	H	-0.156790	-0.148784	-0.157173
H365	H	0.176544	0.184549	0.176161
H366	H	0.509877	0.517882	0.509494
H367	H	-0.542949	-0.982695	-0.230281
H368	H	-0.209616	-0.649362	0.103052
H369	H	0.123718	-0.316029	0.436385
N370	N	-0.221780	-0.991200	-1.070517
N371	N	0.111553	-0.657867	-0.737184
N372	N	0.444887	-0.324533	-0.403851
N373	N	-0.221764	-0.991195	-1.129214
N374	N	0.111569	-0.657862	-0.795881
N375	N	0.444903	-0.324529	-0.462548
H376	H	-0.192724	-1.020259	-1.152948
H377	H	0.140609	-0.686926	-0.819615
H378	H	0.473943	-0.353592	-0.486282
H379	H	-0.376495	-0.149958	-0.376211
H380	H	-0.043162	0.183376	-0.042878
H381	H	0.290171	0.516709	0.290456
H382	H	-0.662215	-0.982745	-0.230307
H383	H	-0.328882	-0.649412	0.103026
H384	H	0.004452	-0.316079	0.436360
N385	N	-0.384504	-0.828335	-1.070438
N386	N	-0.051171	-0.495002	-0.737104
N387	N	0.282162	-0.161668	-0.403771
N388	N	-0.384477	-0.828338	-1.129135
N389	N	-0.051144	-0.495005	-0.795801
N390	N	0.282189	-0.161672	-0.462468
H391	H	-0.413501	-0.799276	-1.152842
H392	H	-0.080168	-0.465942	-0.819508
H393	H	0.253165	-0.132609	-0.486175
H394	H	-0.376477	-0.670059	-0.376176
H395	H	-0.043143	-0.336726	-0.042843
H396	H	0.290190	-0.003392	0.290491
N397	N	-0.384830	-0.543989	-0.384523
N398	N	-0.051497	-0.210656	-0.051189
N399	N	0.281836	0.122677	0.282144
N400	N	-0.420823	-0.573348	-0.420396
N401	N	-0.087489	-0.240015	-0.087062
N402	N	0.245844	0.093319	0.246271
H403	H	-0.449910	-0.549645	-0.449394
H404	H	-0.116576	-0.216311	-0.116060
H405	H	0.216757	0.117022	0.217273
