data_functionalizedCrystal
_audit_creation_method	'MofGen! by Chris Wilmer'
_symmetry_space_group_name_H-M	'P1'
_symmetry_Int_Tables_number	1
_symmetry_cell_setting	triclinic
loop_
_symmetry_equiv_pos_as_xyz
  x,y,z
_cell_length_a	12.594517
_cell_length_b	17.077402
_cell_length_c	17.077396
_cell_angle_alpha	90.029784
_cell_angle_beta	89.980091
_cell_angle_gamma	89.977317
loop_
_atom_site_label
_atom_site_type_symbol
_atom_site_fract_x
_atom_site_fract_y
_atom_site_fract_z
Zn1	Zn	1.627202	0.312512	-0.443844
Zn2	Zn	2.127202	0.812512	0.056156
Zn3	Zn	1.627076	0.443787	-0.312575
Zn4	Zn	2.127076	0.943787	0.187425
Zn5	Zn	1.449210	0.312539	-0.312591
Zn6	Zn	1.949210	0.812539	0.187409
Zn7	Zn	1.449166	0.443740	-0.443798
Zn8	Zn	1.949166	0.943740	0.056202
O9	O	1.538163	0.378145	-0.378202
O10	O	2.038163	0.878145	0.121798
O11	O	1.776131	0.329935	-0.426444
O12	O	2.276131	0.829935	0.073556
O13	O	1.603447	0.426408	-0.202730
O14	O	2.103447	0.926408	0.297270
O15	O	1.472892	0.202688	-0.330028
O16	O	1.972892	0.702688	0.169972
O17	O	1.776038	0.426382	-0.330001
O18	O	2.276038	0.926382	0.169999
O19	O	1.603661	0.202669	-0.426459
O20	O	2.103661	0.702669	0.073541
O21	O	1.472770	0.329980	-0.202742
O22	O	1.972770	0.829980	0.297258
O23	O	1.300258	0.329934	-0.329983
O24	O	1.800258	0.829934	0.170017
O25	O	1.472818	0.426301	-0.553651
O26	O	1.972818	0.926301	-0.053651
O27	O	1.300226	0.426327	-0.426380
O28	O	1.800226	0.926327	0.073620
O29	O	1.603619	0.329889	-0.553685
O30	O	2.103619	0.829889	-0.053685
O31	O	1.603405	0.553628	-0.329956
O32	O	2.103405	1.053628	0.170044
O33	O	1.472696	0.553593	-0.426365
O34	O	1.972696	1.053593	0.073635
C35	C	1.261622	0.378129	-0.378179
C36	C	1.761622	0.878129	0.121821
C37	C	1.143317	0.378141	-0.378188
C38	C	1.643317	0.878141	0.121812
C39	C	1.538061	0.582092	-0.378171
C40	C	2.038061	1.082092	0.121829
C41	C	1.538114	0.669342	-0.378184
C42	C	2.038114	1.169342	0.121816
C43	C	1.538228	0.378087	-0.582946
C44	C	2.038228	0.878087	-0.082946
C45	C	1.538255	0.378062	-0.670196
C46	C	2.038255	0.878062	-0.170196
C47	C	1.074050	0.325641	-0.325857
C48	C	1.574050	0.825641	0.174143
C49	C	1.003228	0.397243	-0.306544
C50	C	1.503228	0.897243	0.193456
C51	C	1.003340	0.306575	-0.397514
C52	C	1.503340	0.806575	0.102486
C53	C	1.074053	0.449780	-0.358837
C54	C	1.574053	0.949780	0.141163
C55	C	1.074171	0.359063	-0.449841
C56	C	1.574171	0.859063	0.050159
C57	C	1.003381	0.430714	-0.430554
C58	C	1.503381	0.930714	0.069446
C59	C	1.815784	0.378161	-0.378226
C60	C	2.315784	0.878161	0.121774
C61	C	1.934090	0.378168	-0.378236
C62	C	2.434090	0.878168	0.121764
C63	C	1.538295	0.173400	-0.378251
C64	C	2.038295	0.673400	0.121749
C65	C	1.538352	0.086150	-0.378271
C66	C	2.038352	0.586150	0.121729
C67	C	1.606244	0.710324	-0.328037
C68	C	2.106244	1.210324	0.171963
C69	C	1.606296	0.792305	-0.328057
C70	C	2.106296	1.292305	0.171943
C71	C	1.538212	0.833302	-0.378220
C72	C	2.038212	1.333302	0.121780
C73	C	1.470079	0.792314	-0.428372
C74	C	1.970079	1.292314	0.071628
C75	C	1.470033	0.710335	-0.428355
C76	C	1.970033	1.210335	0.071645
C77	C	1.470178	0.963184	-0.428402
C78	C	1.970178	1.463184	0.071598
C79	C	1.470222	1.045168	-0.428418
C80	C	1.970222	1.545168	0.071582
C81	C	1.606440	1.045154	-0.328104
C82	C	2.106440	1.545154	0.171896
C83	C	1.606394	0.963175	-0.328087
C84	C	2.106394	1.463175	0.171913
C85	C	1.538260	0.922193	-0.378238
C86	C	2.038260	1.422193	0.121762
C87	C	1.606366	0.327856	-0.711205
C88	C	2.106366	0.827856	-0.211205
C89	C	1.606379	0.327830	-0.793186
C90	C	2.106379	0.827830	-0.293186
C91	C	1.538285	0.378014	-0.834156
C92	C	2.038285	0.878014	-0.334156
C93	C	1.470167	0.428223	-0.793141
C94	C	1.970167	0.928223	-0.293141
C95	C	1.470150	0.428244	-0.711162
C96	C	1.970150	0.928244	-0.211162
C97	C	1.470210	0.428175	-0.964011
C98	C	1.970210	0.928175	-0.464011
C99	C	1.470228	0.428155	-1.045996
C100	C	1.970228	0.928155	-0.545996
C101	C	1.606439	0.327761	-1.046035
C102	C	2.106439	0.827761	-0.546035
C103	C	1.606422	0.327783	-0.964056
C104	C	2.106422	0.827783	-0.464056
C105	C	1.538304	0.377992	-0.923047
C106	C	2.038304	0.877992	-0.423047
C107	C	1.538160	0.378145	-0.174254
C108	C	2.038160	0.878145	0.325746
C109	C	1.538339	0.377949	-0.087005
C110	C	2.038339	0.877949	0.412995
H111	H	1.105080	0.281288	-0.281549
H112	H	1.605080	0.781288	0.218451
H113	H	1.414778	0.469018	-1.079351
H114	H	1.914778	0.969018	-0.579351
H115	H	1.105356	0.342889	-0.510397
H116	H	1.605356	0.842889	-0.010397
O117	O	1.672691	0.831969	-0.279385
O118	O	2.172691	1.331969	0.220615
C119	C	1.778702	0.811788	-0.296681
C120	C	2.278702	1.311788	0.203319
H121	H	1.780725	0.752262	-0.326887
H122	H	2.280725	1.252262	0.173113
H123	H	1.826511	0.808913	-0.240083
H124	H	2.326511	1.308913	0.259917
H125	H	1.814593	0.857870	-0.337057
H126	H	2.314593	1.357870	0.162943
O127	O	1.672409	0.278982	-0.924178
O128	O	2.172409	0.778982	-0.424178
C129	C	1.611811	0.228282	-0.876789
C130	C	2.111811	0.728282	-0.376789
H131	H	1.531138	0.255979	-0.864487
H132	H	2.031138	0.755979	-0.364487
H133	H	1.655153	0.217761	-0.819150
H134	H	2.155153	0.717761	-0.319150
H135	H	1.600142	0.170109	-0.908407
H136	H	2.100142	0.670109	-0.408407
O137	O	1.672495	0.279001	-1.085988
O138	O	2.172495	0.779001	-0.585988
C139	C	1.657922	0.289748	-1.167130
C140	C	2.157922	0.789748	-0.667130
H141	H	1.575769	0.315454	-1.178307
H142	H	2.075769	0.815454	-0.678307
H143	H	1.665174	0.230937	-1.198296
H144	H	2.165174	0.730937	-0.698296
H145	H	1.721038	0.331539	-1.190401
H146	H	2.221038	0.831539	-0.690401
O147	O	0.965917	0.416371	-0.234280
O148	O	1.465917	0.916371	0.265720
C149	C	0.902812	0.354637	-0.205364
C150	C	1.402812	0.854637	0.294636
H151	H	0.871841	0.318198	-0.256423
H152	H	1.371841	0.818198	0.243577
H153	H	0.832949	0.379769	-0.171112
H154	H	1.332949	0.879769	0.328888
H155	H	0.952614	0.316027	-0.165174
H156	H	1.452614	0.816027	0.334826
O157	O	1.404025	0.477035	-0.924295
O158	O	1.904025	0.977035	-0.424295
C159	C	1.343920	0.521321	-0.978033
C160	C	1.843920	1.021321	-0.478033
H161	H	1.387517	0.524007	-1.036481
H162	H	1.887517	1.024007	-0.536481
H163	H	1.332554	0.583179	-0.954336
H164	H	1.832554	1.083179	-0.454336
H165	H	1.263088	0.492587	-0.986735
H166	H	1.763088	0.992587	-0.486735
H167	H	1.414720	0.469081	-0.826505
H168	H	1.914720	0.969081	-0.326505
H169	H	0.972547	0.475174	-0.474829
H170	H	1.472547	0.975174	0.025171
O171	O	1.111124	0.521963	-0.339252
O172	O	1.611124	1.021963	0.160748
C173	C	1.223066	0.521074	-0.339451
C174	C	1.723066	1.021074	0.160549
H175	H	1.252379	0.458506	-0.330824
H176	H	1.752379	0.958506	0.169176
H177	H	1.253922	0.559540	-0.289860
H178	H	1.753922	1.059540	0.210140
H179	H	1.253416	0.544456	-0.397828
H180	H	1.753416	1.044456	0.102172
H181	H	0.972222	0.246048	-0.413814
H182	H	1.472222	0.746048	0.086186
H183	H	1.414557	0.676968	-0.469190
H184	H	1.914557	1.176968	0.030810
O185	O	1.672630	0.923471	-0.279335
O186	O	2.172630	1.423471	0.220665
C187	C	1.732760	0.977219	-0.235062
C188	C	2.232760	1.477219	0.264938
H189	H	1.736456	1.035634	-0.267224
H190	H	2.236456	1.535634	0.232776
H191	H	1.816613	0.953485	-0.226743
H192	H	2.316613	1.453485	0.273257
H193	H	1.693836	0.986001	-0.175418
H194	H	2.193836	1.486001	0.324582
O195	O	1.672327	0.670589	-0.279198
O196	O	2.172327	1.170589	0.220802
C197	C	1.649121	0.690679	-0.200950
C198	C	2.149121	1.190679	0.299050
H199	H	1.608240	0.750227	-0.199308
H200	H	2.108240	1.250227	0.300692
H201	H	1.725967	0.693463	-0.165805
H202	H	2.225967	1.193463	0.334195
H203	H	1.594393	0.644592	-0.174464
H204	H	2.094393	1.144592	0.325536
H205	H	1.414676	0.469119	-0.677773
H206	H	1.914676	0.969119	-0.177773
H207	H	1.661921	1.078526	-0.287272
H208	H	2.161921	1.578526	0.212728
H209	H	1.414699	0.929818	-0.469243
H210	H	1.914699	1.429818	0.030757
O211	O	1.404063	1.084872	-0.477226
O212	O	1.904063	1.584872	0.022774
C213	C	1.343907	1.031124	-0.521481
C214	C	1.843907	1.531124	-0.021481
H215	H	1.387463	0.972656	-0.524213
H216	H	1.887463	1.472656	-0.024213
H217	H	1.332538	1.054776	-0.583326
H218	H	1.832538	1.554776	-0.083326
H219	H	1.263078	1.022478	-0.492691
H220	H	1.763078	1.522478	0.007309
H221	H	1.414649	0.825700	-0.469219
H222	H	1.914649	1.325700	0.030781
O223	O	1.672400	0.278992	-0.671447
O224	O	2.172400	0.778992	-0.171447
C225	C	1.649206	0.200753	-0.691514
C226	C	2.149206	0.700753	-0.191514
H227	H	1.564181	0.196782	-0.714037
H228	H	2.064181	0.696782	-0.214037
H229	H	1.658389	0.161984	-0.637615
H230	H	2.158389	0.661984	-0.137615
H231	H	1.706291	0.180226	-0.739115
H232	H	2.206291	0.680226	-0.239115
H233	H	1.661844	0.286949	-0.826572
H234	H	2.161844	0.786949	-0.326572
