data_functionalizedCrystal
_audit_creation_method	'MofGen! by Chris Wilmer'
_symmetry_space_group_name_H-M	'P1'
_symmetry_Int_Tables_number	1
_symmetry_cell_setting	triclinic
loop_
_symmetry_equiv_pos_as_xyz
  x,y,z
_cell_length_a	19.288864
_cell_length_b	10.654551
_cell_length_c	17.766277
_cell_angle_alpha	89.996514
_cell_angle_beta	89.976791
_cell_angle_gamma	83.810805
loop_
_atom_site_label
_atom_site_type_symbol
_atom_site_fract_x
_atom_site_fract_y
_atom_site_fract_z
O1	O	0.922379	0.156657	-0.062831
O2	O	0.720257	0.177789	-0.062779
O3	O	0.825965	-0.015616	-0.062807
O4	O	0.816671	0.350062	-0.062804
O5	O	0.825946	-0.015625	0.062382
O6	O	0.720238	0.177780	0.062409
O7	O	0.922360	0.156647	0.062357
Cu8	Cu	0.821298	0.167212	0.073814
Cu9	Cu	0.821320	0.167224	-0.074236
O10	O	0.816652	0.350052	0.062385
C11	C	0.694367	0.177104	-0.000178
C12	C	0.617250	0.175063	-0.000159
C13	C	0.825273	-0.062404	-0.000214
C14	C	0.823231	-0.201803	-0.000219
C15	C	0.573297	0.288545	-0.000170
C16	C	0.500837	0.286627	-0.000178
C17	C	0.472334	0.171221	-0.000190
C18	C	0.516296	0.057725	-0.000175
C19	C	0.588754	0.059646	-0.000159
C20	C	0.363484	0.080503	-0.044076
C21	C	0.291027	0.078587	-0.044096
C22	C	0.248849	0.165292	-0.000236
C23	C	0.279136	0.253934	0.043635
C24	C	0.351594	0.255855	0.043651
C25	C	0.393766	0.169126	-0.000207
C26	C	0.126327	0.276702	-0.000255
C27	C	0.053866	0.274779	-0.000259
C28	C	0.069327	0.045875	-0.000264
C29	C	0.141786	0.047800	-0.000252
C30	C	0.170281	0.163217	-0.000252
C31	C	0.822283	-0.267289	-0.068457
C32	C	0.820358	-0.398269	-0.068453
C33	C	0.820332	-0.398265	0.068034
C34	C	0.822252	-0.267287	0.068029
C35	C	0.823262	-0.201806	-0.136705
C36	C	0.822315	-0.267293	-0.204949
C37	C	0.820390	-0.398272	-0.204946
C38	C	0.819413	-0.463764	-0.136697
C39	C	0.948251	0.157332	-0.000245
C40	C	1.025368	0.159373	-0.000270
C41	C	0.817344	0.396840	-0.000210
C42	C	0.819386	0.536240	-0.000210
N43	N	0.821287	0.167203	0.177944
N44	N	0.821336	0.167223	-0.178366
C45	C	0.868110	0.081606	0.217319
C46	C	0.868114	0.081600	0.296121
C47	C	0.821302	0.167213	0.335545
C48	C	0.774470	0.252818	0.296161
C49	C	0.774463	0.252813	0.217360
C50	C	0.812752	0.281634	0.460385
C51	C	0.812765	0.281641	0.539184
C52	C	0.821320	0.167228	0.578591
C53	C	0.829879	0.052804	0.539190
C54	C	0.829871	0.052799	0.460389
C55	C	0.821304	0.167228	0.420991
C56	C	0.868150	0.081617	0.703412
C57	C	0.868149	0.081610	0.782215
C58	C	0.774509	0.252839	0.782253
C59	C	0.774506	0.252835	0.703452
C60	C	0.821331	0.167226	0.664036
H61	H	0.596493	0.382526	-0.000170
F62	F	0.817357	-0.603164	-0.136697
H63	H	0.397820	0.009895	-0.079796
F64	F	0.724674	0.343946	0.661543
F65	F	0.819293	-0.467971	0.140663
F66	F	0.917952	-0.009510	0.338033
H67	H	0.465044	0.379040	-0.000185
H68	H	0.736353	0.322524	0.328264
F69	F	0.038996	-0.076950	-0.000270
H70	H	0.823009	-0.213963	0.123595
H71	H	0.906235	0.011895	0.185229
F72	F	0.258800	-0.015742	-0.090794
H73	H	0.018080	0.367193	-0.000263
F74	F	0.838974	-0.068975	0.418458
H75	H	0.836845	-0.040361	0.571273
F76	F	0.917982	-0.009501	0.661461
H77	H	0.823105	-0.213958	-0.260515
F78	F	0.917983	-0.009506	0.824122
F79	F	0.724683	0.343947	0.824208
F80	F	0.825314	-0.062408	-0.136715
F81	F	0.803661	0.403420	0.581111
F82	F	0.803696	0.403419	0.418453
H83	H	0.149529	0.370681	-0.000243
F84	F	0.724625	0.343922	0.175453
H85	H	0.376251	0.328027	0.079374
H86	H	0.493084	-0.036239	-0.000196
H87	H	0.177574	-0.044609	-0.000248
H88	H	0.244796	0.324537	0.079351
H89	H	0.624542	-0.032767	-0.000151
F90	F	0.819375	-0.467962	-0.277575
