data_functionalizedCrystal
_audit_creation_method	'MofGen! by Chris Wilmer'
_symmetry_space_group_name_H-M	'P1'
_symmetry_Int_Tables_number	1
_symmetry_cell_setting	triclinic
loop_
_symmetry_equiv_pos_as_xyz
  x,y,z
_cell_length_a	14.044220
_cell_length_b	16.992695
_cell_length_c	15.455313
_cell_angle_alpha	87.152573
_cell_angle_beta	92.919879
_cell_angle_gamma	91.928550
loop_
_atom_site_label
_atom_site_type_symbol
_atom_site_fract_x
_atom_site_fract_y
_atom_site_fract_z
O1	O	-1.276013	-0.186891	-0.072039
O2	O	-0.776013	0.313109	0.427961
O3	O	-0.999526	-0.180033	-0.072061
O4	O	-0.499526	0.319967	0.427939
O5	O	-1.136661	-0.069242	-0.072043
O6	O	-0.636661	0.430758	0.427957
O7	O	-1.138878	-0.297682	-0.072057
O8	O	-0.638878	0.202318	0.427943
O9	O	-1.128817	-0.075549	0.072218
O10	O	-0.628817	0.424451	0.572218
O11	O	-0.991682	-0.186340	0.072200
O12	O	-0.491682	0.313660	0.572200
O13	O	-1.268169	-0.193198	0.072222
O14	O	-0.768169	0.306802	0.572222
Cu15	Cu	-1.129209	-0.190345	0.085383
Cu16	Cu	-0.629209	0.309655	0.585383
Cu17	Cu	-1.138486	-0.182886	-0.085222
Cu18	Cu	-0.638486	0.317114	0.414778
O19	O	-1.131034	-0.303989	0.072204
O20	O	-0.631034	0.196011	0.572204
C21	C	-1.129887	-0.042984	0.000087
C22	C	-0.629887	0.457016	0.500087
C23	C	-1.121378	0.044656	0.000086
C24	C	-0.621378	0.544656	0.500086
C25	C	-0.960062	-0.180184	0.000067
C26	C	-0.460062	0.319816	0.500067
C27	C	-0.854158	-0.171230	0.000058
C28	C	-0.354158	0.328770	0.500058
C29	C	-1.307633	-0.193047	0.000092
C30	C	-0.807633	0.306953	0.500092
C31	C	-1.413537	-0.202001	0.000095
C32	C	-0.913537	0.297999	0.500095
C33	C	-0.660256	-0.154861	0.000077
C34	C	-0.160256	0.345139	0.500077
C35	C	-0.607433	-0.218367	0.000076
C36	C	-0.107433	0.281633	0.500076
C37	C	-0.499539	-0.209259	0.000087
C38	C	0.000461	0.290741	0.500087
C39	C	-0.768160	-0.163967	0.000066
C40	C	-0.268160	0.336033	0.500066
C41	C	-1.137808	-0.330247	0.000072
C42	C	-0.637808	0.169753	0.500072
C43	C	-1.146317	-0.417886	0.000067
C44	C	-0.646317	0.082114	0.500067
N45	N	-1.122691	-0.195591	0.205378
N46	N	-0.622691	0.304409	0.705378
C47	C	-1.203475	0.089154	0.000093
C48	C	-0.703475	0.589154	0.500093
C49	C	-1.195475	0.171500	0.000084
C50	C	-0.695475	0.671500	0.500084
C51	C	-1.105377	0.209347	0.000074
C52	C	-0.605377	0.709347	0.500074
C53	C	-1.023275	0.164843	0.000064
C54	C	-0.523275	0.664843	0.500064
C55	C	-1.031276	0.082498	0.000067
C56	C	-0.531276	0.582498	0.500067
C57	C	-1.072216	0.455265	0.000060
C58	C	-0.572216	0.955265	0.500060
C59	C	-1.064220	0.537615	0.000060
C60	C	-0.564220	1.037615	0.500060
C61	C	-1.236421	0.544267	0.000078
C62	C	-0.736421	1.044267	0.500078
C63	C	-1.244414	0.461920	0.000086
C64	C	-0.744414	0.961920	0.500086
C65	C	-1.162312	0.417424	0.000071
C66	C	-0.662312	0.917424	0.500071
N67	N	-1.097198	0.293518	0.000068
N68	N	-0.597198	0.793518	0.500068
N69	N	-1.170493	0.333254	0.000072
N70	N	-0.670493	0.833254	0.500072
N71	N	-1.145011	-0.177634	-0.205217
N72	N	-0.645011	0.322366	0.294783
C73	C	-1.180974	-0.148544	0.250779
C74	C	-0.680974	0.351456	0.750779
C75	C	-1.176054	-0.152519	0.341587
C76	C	-0.676054	0.347481	0.841587
C77	C	-1.112856	-0.203546	0.386991
C78	C	-0.612856	0.296454	0.886991
C79	C	-1.054567	-0.250595	0.341583
C80	C	-0.554567	0.249405	0.841583
C81	C	-1.059482	-0.246615	0.250777
C82	C	-0.559482	0.253385	0.750777
C83	C	-1.091637	-0.220704	0.658569
C84	C	-0.591637	0.279296	1.158569
C85	C	-1.086728	-0.224682	0.749381
C86	C	-0.586728	0.275318	1.249381
C87	C	-1.208215	-0.126604	0.749379
C88	C	-0.708215	0.373396	1.249379
C89	C	-1.213129	-0.122632	0.658572
C90	C	-0.713129	0.377368	1.158572
C91	C	-1.154836	-0.169678	0.613172
C92	C	-0.654836	0.330322	1.113172
N93	N	-1.107828	-0.207613	0.479810
N94	N	-0.607828	0.292387	0.979810
N95	N	-1.159860	-0.165607	0.520354
N96	N	-0.659860	0.334393	1.020354
H97	H	-0.643242	-0.279576	0.000069
H98	H	-0.143242	0.220424	0.500069
H99	H	-1.303264	0.580505	0.000088
H100	H	-0.803264	1.080505	0.500088
O101	O	-1.035119	-0.266528	0.614519
O102	O	-0.535119	0.233472	1.114519
C103	C	-1.055307	-0.346621	0.636715
C104	C	-0.555307	0.153379	1.136715
H105	H	-1.130282	-0.353467	0.661659
H106	H	-0.630282	0.146533	1.161659
H107	H	-1.050566	-0.382800	0.576998
H108	H	-0.550566	0.117200	1.076998
H109	H	-1.001397	-0.368361	0.689436
H110	H	-0.501397	0.131639	1.189436
O111	O	-0.951466	0.039359	-0.000055
O112	O	-0.451466	0.539359	0.499945
C113	C	-0.901211	0.060705	-0.074786
C114	C	-0.401211	0.560705	0.425214
H115	H	-0.921237	0.122527	-0.099691
H116	H	-0.421237	0.622527	0.400309
H117	H	-0.821258	0.059742	-0.057993
H118	H	-0.321258	0.559742	0.442007
H119	H	-0.920499	0.017107	-0.127103
H120	H	-0.420499	0.517107	0.372897
H121	H	-1.003104	-0.292140	0.378556
H122	H	-0.503104	0.207860	0.878556
O123	O	-0.617396	-0.081897	0.000041
O124	O	-0.117396	0.418103	0.500041
C125	C	-0.517649	-0.088934	0.000069
C126	C	-0.017649	0.411066	0.500069
H127	H	-0.500573	-0.147655	-0.027238
H128	H	-0.000573	0.352345	0.472762
H129	H	-0.485786	-0.038598	-0.041814
H130	H	0.014214	0.461402	0.458186
H131	H	-0.485930	-0.086238	0.069280
H132	H	0.014070	0.413762	0.569280
O133	O	-1.291072	0.052520	0.000063
O134	O	-0.791072	0.552520	0.500063
C135	C	-1.361814	0.109457	0.000086
C136	C	-0.861814	0.609457	0.500086
H137	H	-1.332352	0.168371	-0.027227
H138	H	-0.832352	0.668371	0.472773
H139	H	-1.426619	0.089823	-0.041795
H140	H	-0.926619	0.589823	0.458205
H141	H	-1.383677	0.116216	0.069296
H142	H	-0.883677	0.616216	0.569296
O143	O	-0.992365	0.412164	0.000096
O144	O	-0.492365	0.912164	0.500096
C145	C	-0.911132	0.463231	0.000071
C146	C	-0.411132	0.963231	0.500071
H147	H	-0.929193	0.521712	0.027381
H148	H	-0.429193	1.021712	0.527381
H149	H	-0.850950	0.435287	0.041955
H150	H	-0.350950	0.935287	0.541955
H151	H	-0.887566	0.473986	-0.069139
H152	H	-0.387566	0.973986	0.430861
H153	H	-1.264590	-0.081082	0.621606
H154	H	-0.764590	0.418918	1.121606
O155	O	-1.275206	0.214763	-0.000062
O156	O	-0.775206	0.714763	0.499938
C157	C	-1.279789	0.265864	-0.074770
C158	C	-0.779789	0.765864	0.425230
H159	H	-1.236179	0.241440	-0.126993
H160	H	-0.736179	0.741440	0.373007
H161	H	-1.357213	0.270829	-0.099842
H162	H	-0.857213	0.770829	0.400158
H163	H	-1.249683	0.326643	-0.057888
H164	H	-0.749683	0.826643	0.442112
O165	O	-1.002970	-0.292436	0.206710
O166	O	-0.502970	0.207564	0.706710
C167	C	-1.023147	-0.372533	0.228896
C168	C	-0.523147	0.127467	0.728896
H169	H	-1.098119	-0.379387	0.253848
H170	H	-0.598119	0.120613	0.753848
H171	H	-1.018412	-0.408703	0.169171
H172	H	-0.518412	0.091297	0.669171
H173	H	-0.969229	-0.394276	0.281607
H174	H	-0.469229	0.105724	0.781607
H175	H	-1.317781	0.431111	0.000094
H176	H	-0.817781	0.931111	0.500094
H177	H	-1.232441	-0.106996	0.213817
H178	H	-0.732441	0.393004	0.713817
O179	O	-0.935813	0.201700	-0.000062
O180	O	-0.435813	0.701700	0.499938
C181	C	-0.930088	0.252381	-0.074787
C182	C	-0.430088	0.752381	0.425213
H183	H	-1.004998	0.268694	-0.099689
H184	H	-0.504998	0.768694	0.400311
H185	H	-0.887109	0.308144	-0.057986
H186	H	-0.387109	0.808144	0.442014
H187	H	-0.893527	0.221290	-0.127108
H188	H	-0.393527	0.721290	0.372892
O189	O	-0.976755	0.574478	-0.000069
O190	O	-0.476755	1.074478	0.499931
C191	C	-0.971042	0.625162	-0.074793
C192	C	-0.471042	1.125162	0.425207
H193	H	-1.045956	0.641468	-0.099691
H194	H	-0.545956	1.141468	0.400309
H195	H	-0.928071	0.680929	-0.057993
H196	H	-0.428071	1.180929	0.442007
H197	H	-0.934480	0.594077	-0.127118
H198	H	-0.434480	1.094077	0.372882
O199	O	-1.264782	-0.080784	0.793388
O200	O	-0.764782	0.419216	1.293388
C201	C	-1.244560	-0.000689	0.771229
C202	C	-0.744560	0.499311	1.271229
H203	H	-1.211408	0.004684	0.705301
H204	H	-0.711408	0.504684	1.205301
H205	H	-1.313413	0.033230	0.768123
H206	H	-0.813413	0.533230	1.268123
H207	H	-1.192508	0.024785	0.822343
H208	H	-0.692508	0.524785	1.322343
H209	H	-1.223512	-0.114209	0.378552
H210	H	-0.723512	0.385791	0.878552
O211	O	-1.025191	-0.274155	0.793454
O212	O	-0.525191	0.225845	1.293454
C213	C	-0.931094	-0.253726	0.771271
C214	C	-0.431094	0.246274	1.271271
H215	H	-0.927213	-0.189490	0.746313
H216	H	-0.427213	0.310510	1.246313
H217	H	-0.880730	-0.262030	0.830999
H218	H	-0.380730	0.237970	1.330999
H219	H	-0.909249	-0.293140	0.718566
H220	H	-0.409249	0.206860	1.218566
