data_functionalizedCrystal
_audit_creation_method	'MofGen! by Chris Wilmer'
_symmetry_space_group_name_H-M	'P1'
_symmetry_Int_Tables_number	1
_symmetry_cell_setting	triclinic
loop_
_symmetry_equiv_pos_as_xyz
  x,y,z
_cell_length_a	6.817900
_cell_length_b	11.102244
_cell_length_c	16.015572
_cell_angle_alpha	76.743270
_cell_angle_beta	104.485554
_cell_angle_gamma	108.604870
loop_
_atom_site_label
_atom_site_type_symbol
_atom_site_fract_x
_atom_site_fract_y
_atom_site_fract_z
V1	V	-3.999219	-0.051261	-0.269392
O2	O	-3.960395	0.130657	-0.264266
O3	O	-3.976759	-0.224934	-0.267548
O4	O	-3.927019	0.005776	-0.386885
O5	O	-4.010479	-0.101651	-0.144103
V6	V	-4.482569	-0.036148	-0.254407
O7	O	-4.260855	-0.084413	-0.302264
O8	O	-4.671130	-0.002996	-0.221536
O9	O	-4.281823	0.137525	-0.256252
O10	O	-4.638790	-0.218066	-0.259533
O11	O	-4.588707	0.014242	-0.379696
O12	O	-4.331562	-0.093186	-0.136915
C13	C	-3.828840	-0.269029	-0.263297
C14	C	-3.891604	-0.410647	-0.262572
C15	C	-3.893904	-0.495627	-0.183111
C16	C	-3.952888	-0.628690	-0.182440
C17	C	-4.007263	-0.591778	-0.340698
C18	C	-3.948294	-0.458718	-0.341368
C19	C	-3.837214	-0.447556	-0.104315
C20	C	-3.839509	-0.532538	-0.024848
C21	C	-3.898494	-0.665601	-0.024176
C22	C	-3.955183	-0.713681	-0.102973
C23	C	-3.765392	0.025266	-0.415522
C24	C	-3.787816	0.070751	-0.511573
C25	C	-4.136751	-0.332976	-0.889201
C26	C	-4.157820	-0.290194	-0.979451
C27	C	-4.047773	-0.068856	-0.954746
C28	C	-4.026684	-0.111619	-0.864492
C29	C	-4.071179	-0.243681	-0.831727
C30	C	-3.961112	-0.022324	-0.807019
C31	C	-3.940036	-0.065084	-0.716773
C32	C	-3.984531	-0.197140	-0.684001
C33	C	-4.050103	-0.286441	-0.741481
C34	C	-3.916632	0.109736	-0.839786
C35	C	-3.851060	0.199032	-0.782313
C36	C	-3.829969	0.156272	-0.692065
C37	C	-3.874464	0.024216	-0.659292
C38	C	-3.764397	0.245573	-0.634584
C39	C	-3.743321	0.202812	-0.544338
C40	C	-3.853388	-0.018544	-0.569046
C41	C	-4.093085	0.181612	-0.260500
C42	C	-4.009558	0.323231	-0.261230
C43	C	-4.156534	-0.112681	-0.108272
C44	C	-4.113347	-0.158161	-0.012221
H45	H	-3.793366	-0.493382	0.039305
N46	N	-3.773560	-0.304039	-0.105039
H47	H	-3.737987	-0.286478	-0.043067
H48	H	-3.893992	-0.267863	-0.139234
H49	H	-3.728195	0.353097	-0.661276
N50	N	-4.098100	-0.428880	-0.706135
H51	H	-4.074800	-0.442413	-0.640243
H52	H	-4.001915	-0.466808	-0.724312
N53	N	-3.901342	-0.160979	-0.533687
H54	H	-3.805165	-0.198988	-0.551802
H55	H	-4.052993	-0.204768	-0.557784
N56	N	-3.803049	0.341463	-0.817658
H57	H	-3.758303	0.391542	-0.767552
H58	H	-3.933286	0.361104	-0.857550
H59	H	-4.003225	-0.822032	-0.102420
H60	H	-4.172956	-0.440513	-0.862521
H61	H	-4.053418	-0.630936	-0.404850
H62	H	-4.211210	-0.362920	-1.026244
H63	H	-3.967373	-0.231954	-0.610516
H64	H	-4.011558	0.038669	-0.981437
H65	H	-3.900379	-0.734791	0.040529
H66	H	-3.946453	-0.389525	-0.406073
N67	N	-3.939359	0.155875	-0.937121
H68	H	-4.089928	0.119788	-0.966700
H69	H	-3.842030	0.125659	-0.960651
H70	H	-3.689927	0.275526	-0.497541
