data_functionalizedCrystal
_audit_creation_method	'MofGen! by Chris Wilmer'
_symmetry_space_group_name_H-M	'P1'
_symmetry_Int_Tables_number	1
_symmetry_cell_setting	triclinic
loop_
_symmetry_equiv_pos_as_xyz
  x,y,z
_cell_length_a	19.077269
_cell_length_b	18.101397
_cell_length_c	19.076919
_cell_angle_alpha	92.268541
_cell_angle_beta	94.669058
_cell_angle_gamma	87.723702
loop_
_atom_site_label
_atom_site_type_symbol
_atom_site_fract_x
_atom_site_fract_y
_atom_site_fract_z
Zn1	Zn	1.061679	-0.354727	-0.355251
Zn2	Zn	1.561679	0.145273	0.144749
Zn3	Zn	1.066342	-0.473784	-0.237364
Zn4	Zn	1.566342	0.026216	0.262636
Zn5	Zn	0.948536	-0.345184	-0.242119
Zn6	Zn	1.448536	0.154816	0.257881
Zn7	Zn	0.943773	-0.473747	-0.359946
Zn8	Zn	1.443773	0.026253	0.140054
O9	O	1.005083	-0.411861	-0.298670
O10	O	1.505083	0.088139	0.201330
O11	O	1.160945	-0.374529	-0.335658
O12	O	1.660945	0.125471	0.164342
O13	O	1.054660	-0.452747	-0.139347
O14	O	1.554660	0.047253	0.360653
O15	O	0.963586	-0.242820	-0.257151
O16	O	1.463586	0.257180	0.242849
O17	O	1.164370	-0.462000	-0.249046
O18	O	1.664370	0.038000	0.250954
O19	O	1.046712	-0.249831	-0.340269
O20	O	1.546712	0.250169	0.159731
O21	O	0.968108	-0.358265	-0.142841
O22	O	1.468108	0.141735	0.357159
O23	O	0.849258	-0.358229	-0.261704
O24	O	1.349258	0.141771	0.238296
O25	O	0.955469	-0.461937	-0.457971
O26	O	1.455469	0.038063	0.042029
O27	O	0.845759	-0.452684	-0.348272
O28	O	1.345759	0.047316	0.151728
O29	O	1.042094	-0.374493	-0.454521
O30	O	1.542094	0.125507	0.045479
O31	O	1.050042	-0.577410	-0.253599
O32	O	1.550042	-0.077410	0.246401
O33	O	0.959991	-0.577382	-0.343661
O34	O	1.459991	-0.077382	0.156339
C35	C	0.821930	-0.404417	-0.306014
C36	C	1.321930	0.095583	0.193986
C37	C	0.743576	-0.401252	-0.309172
C38	C	1.243576	0.098748	0.190828
C39	C	1.005024	-0.604267	-0.298638
C40	C	1.505024	-0.104267	0.201362
C41	C	1.005062	-0.686583	-0.298646
C42	C	1.505062	-0.186583	0.201354
C43	C	0.708548	-0.445226	-0.265495
C44	C	1.208548	0.054774	0.234505
C45	C	0.634926	-0.442252	-0.268472
C46	C	1.134926	0.057748	0.231528
C47	C	0.596332	-0.395299	-0.315123
C48	C	1.096332	0.104701	0.184877
C49	C	0.631365	-0.351323	-0.358805
C50	C	1.131365	0.148677	0.141195
C51	C	0.704986	-0.354301	-0.355831
C52	C	1.204986	0.145699	0.144169
C53	C	0.375958	-0.381520	-0.328864
C54	C	0.875958	0.118480	0.171136
C55	C	0.302332	-0.378544	-0.331833
C56	C	0.802332	0.121456	0.168167
C57	C	0.305898	-0.469474	-0.241501
C58	C	0.805898	0.030526	0.258499
C59	C	0.379520	-0.472445	-0.238528
C60	C	0.879520	0.027555	0.261472
C61	C	0.414546	-0.428472	-0.282212
C62	C	0.914546	0.071528	0.217788
N63	N	0.521078	-0.392257	-0.318166
N64	N	1.021078	0.107743	0.181834
N65	N	0.489799	-0.431519	-0.279173
N66	N	0.989799	0.068481	0.220827
C67	C	1.005150	-0.985681	-0.298706
C68	C	1.505150	-0.485681	0.201294
C69	C	1.061661	-0.954330	-0.241902
C70	C	1.561661	-0.454330	0.258098
C71	C	1.061844	-0.868724	-0.242036
C72	C	1.561844	-0.368724	0.257964
C73	C	1.005106	-0.837295	-0.298676
C74	C	1.505106	-0.337295	0.201324
C75	C	1.022257	-0.872135	-0.372172
C76	C	1.522257	-0.372135	0.127828
C77	C	1.022689	-0.957785	-0.371858
C78	C	1.522689	-0.457785	0.128142
C79	C	0.931317	-0.950391	-0.282663
C80	C	1.431317	-0.450391	0.217337
C81	C	0.931752	-0.864689	-0.280989
C82	C	1.431752	-0.364689	0.219011
C83	C	1.005080	-0.753434	-0.298663
C84	C	1.505080	-0.253434	0.201337
C85	C	1.005177	-1.069542	-0.298724
C86	C	1.505177	-0.569542	0.201276
C87	C	1.188951	-0.419333	-0.291298
C88	C	1.688951	0.080667	0.208702
C89	C	1.267304	-0.422518	-0.288156
C90	C	1.767304	0.077482	0.211844
C91	C	0.997730	-0.419275	-0.482539
C92	C	1.497730	0.080725	0.017461
C93	C	0.994597	-0.422435	-0.560894
C94	C	1.494597	0.077565	-0.060894
C95	C	1.005161	-0.218704	-0.298716
C96	C	1.505161	0.281296	0.201284
C97	C	1.005194	-0.136392	-0.298736
C98	C	1.505194	0.363608	0.201264
C99	C	1.038224	-0.378394	-0.595910
C100	C	1.538224	0.121606	-0.095910
C101	C	1.035272	-0.381360	-0.669532
C102	C	1.535272	0.118640	-0.169532
C103	C	0.988695	-0.428371	-0.708137
C104	C	1.488695	0.071629	-0.208137
C105	C	0.945064	-0.472414	-0.673116
C106	C	1.445064	0.027586	-0.173116
C107	C	0.948013	-0.469443	-0.599495
C108	C	1.448013	0.030557	-0.099495
C109	C	0.975035	-0.442132	-0.928513
C110	C	1.475035	0.057868	-0.428513
C111	C	0.972090	-0.445101	-1.002139
C112	C	1.472090	0.054899	-0.502139
C113	C	1.062297	-0.354046	-0.998550
C114	C	1.562297	0.145954	-0.498550
C115	C	1.065246	-0.351083	-0.924927
C116	C	1.565246	0.148917	-0.424927
C117	C	1.021611	-0.395123	-0.889913
C118	C	1.521611	0.104877	-0.389913
N119	N	0.985678	-0.431405	-0.783391
N120	N	1.485678	0.068595	-0.283391
N121	N	1.024626	-0.392084	-0.814661
N122	N	1.524626	0.107916	-0.314661
C123	C	1.012447	-0.404423	-0.115514
C124	C	1.512447	0.095577	0.384486
C125	C	1.015717	-0.401060	-0.037155
C126	C	1.515717	0.098940	0.462845
H127	H	0.739966	-0.483457	-0.227504
H128	H	1.239966	0.016543	0.272496
H129	H	0.606410	-0.478061	-0.232906
H130	H	1.106410	0.021939	0.267094
H131	H	0.918766	-0.841595	-0.226916
H132	H	1.418766	-0.341595	0.273084
F133	F	1.091869	-0.847754	-0.390781
F134	F	1.591869	-0.347754	0.109219
F135	F	0.895491	-0.522443	-0.714204
F136	F	1.395491	-0.022443	-0.214204
F137	F	0.971008	-0.985105	-0.428847
F138	F	1.471008	-0.485105	0.071153
H139	H	0.915137	-0.969147	-0.230155
H140	H	1.415137	-0.469147	0.269845
H141	H	0.982225	-0.851917	-0.415504
H142	H	1.482225	-0.351917	0.084496
F143	F	1.132840	-0.985961	-0.255293
F144	F	1.632840	-0.485961	0.244707
F145	F	0.876329	-0.976846	-0.336785
F146	F	1.376329	-0.476846	0.163215
H147	H	0.939515	-0.478004	-0.900013
H148	H	1.439515	0.021996	-0.400013
F149	F	0.742264	-0.307499	-0.402320
F150	F	1.242264	0.192501	0.097680
F151	F	0.413226	-0.334720	-0.375358
F152	F	0.913226	0.165280	0.124642
H153	H	0.599936	-0.313097	-0.396793
H154	H	1.099936	0.186903	0.103207
F155	F	0.901578	-0.516316	-0.562229
F156	F	1.401578	-0.016316	-0.062229
F157	F	1.093113	-0.987569	-0.390075
F158	F	1.593113	-0.487569	0.109925
H159	H	1.097821	-0.318191	-1.027067
H160	H	1.597821	0.181809	-0.527067
H161	H	0.887624	-0.843071	-0.319573
H162	H	1.387624	-0.343071	0.180427
F163	F	1.087801	-0.328362	-0.554830
F164	F	1.587801	0.171638	-0.054830
H165	H	1.070799	-0.345499	-0.698039
H166	H	1.570799	0.154501	-0.198039
H167	H	1.103175	-0.312804	-0.893500
H168	H	1.603175	0.187196	-0.393500
H169	H	0.934160	-0.483384	-1.033569
H170	H	1.434160	0.016616	-0.533569
H171	H	0.410938	-0.510678	-0.200539
H172	H	0.910938	-0.010678	0.299461
H173	H	0.270911	-0.340303	-0.369820
H174	H	0.770911	0.159697	0.130180
F175	F	0.268615	-0.516272	-0.195014
F176	F	0.768615	-0.016272	0.304986
H177	H	1.051460	-0.845015	-0.187446
H178	H	1.551460	-0.345015	0.312554
F179	F	1.048302	-0.977723	-0.170324
F180	F	1.548302	-0.477723	0.329676
F181	F	1.133407	-0.845467	-0.255604
F182	F	1.633407	-0.345467	0.244396
