data_functionalizedCrystal
_audit_creation_method	'MofGen! by Chris Wilmer'
_symmetry_space_group_name_H-M	'P1'
_symmetry_Int_Tables_number	1
_symmetry_cell_setting	triclinic
loop_
_symmetry_equiv_pos_as_xyz
  x,y,z
_cell_length_a	19.121241
_cell_length_b	19.120786
_cell_length_c	19.805399
_cell_angle_alpha	87.531070
_cell_angle_beta	87.537729
_cell_angle_gamma	94.790376
loop_
_atom_site_label
_atom_site_type_symbol
_atom_site_fract_x
_atom_site_fract_y
_atom_site_fract_z
Zn1	Zn	1.063748	-0.234359	-0.416871
Zn2	Zn	1.563748	0.265641	0.083129
Zn3	Zn	1.058642	-0.352035	-0.298631
Zn4	Zn	1.558642	0.147965	0.201369
Zn5	Zn	0.946082	-0.239388	-0.298644
Zn6	Zn	1.446082	0.260612	0.201356
Zn7	Zn	0.941028	-0.357005	-0.406732
Zn8	Zn	1.441028	0.142995	0.093268
O9	O	1.002375	-0.295697	-0.355220
O10	O	1.502375	0.204303	0.144780
O11	O	1.161536	-0.245784	-0.405424
O12	O	1.661536	0.254216	0.094576
O13	O	1.043688	-0.337117	-0.203914
O14	O	1.543688	0.162883	0.296086
O15	O	0.965942	-0.140249	-0.318576
O16	O	1.465942	0.359751	0.181424
O17	O	1.157785	-0.332241	-0.318554
O18	O	1.657785	0.167759	0.181446
O19	O	1.052392	-0.136555	-0.405437
O20	O	1.552392	0.363445	0.094563
O21	O	0.960991	-0.254355	-0.203924
O22	O	1.460991	0.245645	0.296076
O23	O	0.846946	-0.259174	-0.308745
O24	O	1.346946	0.240826	0.191255
O25	O	0.957330	-0.340711	-0.502795
O26	O	1.457330	0.159289	-0.002795
O27	O	0.843233	-0.345587	-0.388156
O28	O	1.343233	0.154413	0.111844
O29	O	1.047491	-0.250604	-0.510244
O30	O	1.547491	0.249396	-0.010244
O31	O	1.038788	-0.451166	-0.308722
O32	O	1.538788	0.048834	0.191278
O33	O	0.952378	-0.454817	-0.388143
O34	O	1.452378	0.045183	0.111857
C35	C	0.819559	-0.303466	-0.347352
C36	C	1.319559	0.196534	0.152648
C37	C	0.741348	-0.306807	-0.344001
C38	C	1.241348	0.193193	0.155999
C39	C	0.994500	-0.478523	-0.347347
C40	C	1.494500	0.021477	0.152653
C41	C	0.991195	-0.556734	-0.344004
C42	C	1.491195	-0.056734	0.155996
C43	C	1.034619	-0.591495	-0.387691
C44	C	1.534619	-0.091495	0.112309
C45	C	1.031511	-0.664983	-0.384551
C46	C	1.531511	-0.164983	0.115449
C47	C	0.984982	-0.703708	-0.337721
C48	C	1.484982	-0.203708	0.162279
C49	C	0.941554	-0.668942	-0.294032
C50	C	1.441554	-0.168942	0.205968
C51	C	0.944659	-0.595456	-0.297175
C52	C	1.444659	-0.095456	0.202825
C53	C	0.973354	-0.925689	-0.325968
C54	C	1.473354	-0.425689	0.174032
C55	C	0.970254	-0.999180	-0.322827
C56	C	1.470254	-0.499180	0.177173
C57	C	1.060210	-0.995216	-0.413347
C58	C	1.560210	-0.495216	0.086653
C59	C	1.063314	-0.921728	-0.416484
C60	C	1.563314	-0.421728	0.083516
C61	C	1.019883	-0.886969	-0.372797
C62	C	1.519883	-0.386969	0.127203
C63	C	0.981806	-0.778825	-0.334509
C64	C	1.481806	-0.278825	0.165491
C65	C	1.023056	-0.811854	-0.376013
C66	C	1.523056	-0.311854	0.123987
C67	C	0.706556	-0.263435	-0.387719
C68	C	1.206556	0.236565	0.112281
C69	C	0.633069	-0.266571	-0.384565
C70	C	1.133069	0.233429	0.115435
C71	C	0.594375	-0.313083	-0.337696
C72	C	1.094375	0.186917	0.162304
C73	C	0.629173	-0.356457	-0.293974
C74	C	1.129173	0.143543	0.206026
C75	C	0.702659	-0.353317	-0.297125
C76	C	1.202659	0.146683	0.202875
C77	C	0.372399	-0.324808	-0.325913
C78	C	0.872399	0.175192	0.174087
C79	C	0.298908	-0.327946	-0.322767
C80	C	0.798908	0.172054	0.177233
C81	C	0.302809	-0.238059	-0.413357
C82	C	0.802809	0.261941	0.086643
C83	C	0.376295	-0.234926	-0.416507
C84	C	0.876295	0.265074	0.083493
C85	C	0.411087	-0.278297	-0.372782
C86	C	0.911087	0.221703	0.127218
C87	C	0.519260	-0.316291	-0.334473
C88	C	1.019260	0.183709	0.165527
C89	C	0.486201	-0.275085	-0.376003
C90	C	0.986201	0.224915	0.123997
C91	C	1.185906	-0.287897	-0.363118
C92	C	1.685906	0.212103	0.136882
C93	C	1.264115	-0.284574	-0.366484
C94	C	1.764115	0.215426	0.133516
C95	C	1.002416	-0.295651	-0.531766
C96	C	1.502416	0.204349	-0.031766
C97	C	1.002434	-0.295631	-0.606999
C98	C	1.502434	0.204369	-0.106999
C99	C	1.010300	-0.112156	-0.363139
C100	C	1.510300	0.387844	0.136861
C101	C	1.013678	-0.033941	-0.366514
C102	C	1.513678	0.466059	0.133486
C103	C	1.049382	-0.248710	-0.646224
C104	C	1.549382	0.251290	-0.146224
C105	C	1.049391	-0.248689	-0.716913
C106	C	1.549391	0.251311	-0.216913
C107	C	1.002453	-0.295594	-0.748377
C108	C	1.502453	0.204406	-0.248377
C109	C	0.955500	-0.342517	-0.709148
C110	C	1.455500	0.157483	-0.209148
C111	C	0.955489	-0.342534	-0.638460
C112	C	1.455489	0.157466	-0.138460
C113	C	0.955542	-0.342450	-0.994226
C114	C	1.455542	0.157550	-0.494226
C115	C	0.955558	-0.342431	-1.064920
C116	C	1.455558	0.157569	-0.564920
C117	C	1.049444	-0.248605	-1.072680
C118	C	1.549444	0.251395	-0.572680
C119	C	1.049433	-0.248622	-1.001991
C120	C	1.549433	0.251378	-0.501991
C121	C	1.002478	-0.295542	-0.962768
C122	C	1.502478	0.204458	-0.462768
C123	C	1.002468	-0.295563	-0.886118
C124	C	1.502468	0.204437	-0.386118
C125	C	1.002465	-0.295577	-0.825026
C126	C	1.502465	0.204423	-0.325026
C127	C	1.002377	-0.295690	-0.179364
C128	C	1.502377	0.204310	0.320636
C129	C	1.002504	-0.295506	-0.104145
C130	C	1.502504	0.204494	0.395855
H131	H	1.072510	-0.559970	-0.425822
H132	H	1.572510	-0.059970	0.074178
H133	H	0.487748	-0.354161	-0.296312
H134	H	0.987748	0.145839	0.203688
F135	F	1.072570	-0.770639	-0.425855
F136	F	1.572570	-0.270639	0.074145
H137	H	0.917252	-0.380735	-0.606524
H138	H	1.417252	0.119265	-0.106524
F139	F	1.077720	-0.701976	-0.431056
F140	F	1.577720	-0.201976	0.068944
H141	H	0.943925	-0.810363	-0.296378
H142	H	1.443925	-0.310363	0.203622
H143	H	0.917280	-0.380705	-0.734772
H144	H	1.417280	0.119295	-0.234772
H145	H	0.267405	-0.365825	-0.284600
H146	H	0.767405	0.134175	0.215400
H147	H	1.101201	-0.890200	-0.454617
H148	H	1.601201	-0.390200	0.045383
F149	F	0.587991	-0.405955	-0.244089
F150	F	1.087991	0.094045	0.255911
H151	H	1.095568	-1.023525	-0.448915
H152	H	1.595568	-0.523525	0.051085
H153	H	0.932362	-1.030709	-0.284691
H154	H	1.432362	-0.530709	0.215309
F155	F	0.905568	-0.392387	-0.952491
F156	F	1.405568	0.107613	-0.452491
F157	F	0.927126	-0.888705	-0.279478
F158	F	1.427126	-0.388705	0.220522
F159	F	0.892029	-0.710159	-0.244197
F160	F	1.392029	-0.210159	0.255803
F161	F	1.099344	-0.198790	-0.612744
F162	F	1.599344	0.301210	-0.112744
H163	H	0.517708	-0.237213	-0.414160
H164	H	1.017708	0.262787	0.085840
H165	H	1.087622	-0.210483	-0.748847
H166	H	1.587622	0.289517	-0.248847
H167	H	0.730986	-0.388635	-0.261525
H168	H	1.230986	0.111365	0.238475
H169	H	1.087657	-0.210430	-0.976377
H170	H	1.587657	0.289570	-0.476377
F171	F	0.265776	-0.191902	-0.459888
F172	F	0.765776	0.308098	0.040112
H173	H	0.738054	-0.225562	-0.425886
H174	H	1.238054	0.274438	0.074114
F175	F	1.099417	-0.198665	-1.114429
F176	F	1.599417	0.301335	-0.614429
F177	F	0.417470	-0.185425	-0.466394
F178	F	0.917470	0.314575	0.033606
F179	F	0.898441	-0.558461	-0.250678
F180	F	1.398441	-0.058461	0.249322
F181	F	0.596043	-0.220409	-0.431097
F182	F	1.096043	0.279591	0.068903
F183	F	0.905598	-0.392355	-1.098404
F184	F	1.405598	0.107645	-0.598404
H185	H	0.400717	-0.360125	-0.290310
H186	H	0.900717	0.139875	0.209690
