data_functionalizedCrystal
_audit_creation_method	'MofGen! by Chris Wilmer'
_symmetry_space_group_name_H-M	'P1'
_symmetry_Int_Tables_number	1
_symmetry_cell_setting	triclinic
loop_
_symmetry_equiv_pos_as_xyz
  x,y,z
_cell_length_a	12.759401
_cell_length_b	13.897448
_cell_length_c	12.759401
_cell_angle_alpha	90.009687
_cell_angle_beta	90.006940
_cell_angle_gamma	90.019217
loop_
_atom_site_label
_atom_site_type_symbol
_atom_site_fract_x
_atom_site_fract_y
_atom_site_fract_z
Zn1	Zn	1.606099	-0.384144	0.594007
Zn2	Zn	1.939433	-0.050811	0.927340
Zn3	Zn	2.272766	0.282523	1.260673
Zn4	Zn	1.606024	-0.545407	0.418321
Zn5	Zn	1.939358	-0.212073	0.751655
Zn6	Zn	2.272691	0.121260	1.084988
Zn7	Zn	1.430441	-0.384132	0.418342
Zn8	Zn	1.763774	-0.050798	0.751675
Zn9	Zn	2.097108	0.282535	1.085009
Zn10	Zn	1.430381	-0.545403	0.593959
Zn11	Zn	1.763714	-0.212070	0.927292
Zn12	Zn	2.097047	0.121264	1.260625
O13	O	1.518236	-0.464771	0.506157
O14	O	1.851570	-0.131438	0.839490
O15	O	2.184903	0.201895	1.172824
O16	O	1.753110	-0.405543	0.570713
O17	O	2.086444	-0.072209	0.904047
O18	O	2.419777	0.261124	1.237380
O19	O	1.582726	-0.524010	0.271303
O20	O	1.916060	-0.190676	0.604637
O21	O	2.249393	0.142657	0.937970
O22	O	1.453799	-0.249152	0.441673
O23	O	1.787132	0.084182	0.775006
O24	O	2.120466	0.417515	1.108340
O25	O	1.753055	-0.524022	0.441638
O26	O	2.086388	-0.190688	0.774971
O27	O	2.419722	0.142645	1.108305
O28	O	1.582855	-0.249161	0.570733
O29	O	1.916188	0.084173	0.904066
O30	O	2.249521	0.417506	1.237400
O31	O	1.453726	-0.405522	0.271318
O32	O	1.787060	-0.072188	0.604652
O33	O	2.120393	0.261145	0.937985
O34	O	1.283412	-0.405518	0.441626
O35	O	1.616745	-0.072185	0.774960
O36	O	1.950079	0.261149	1.108293
O37	O	1.453696	-0.524015	0.740986
O38	O	1.787030	-0.190682	1.074319
O39	O	2.120363	0.142652	1.407653
O40	O	1.283368	-0.524003	0.570651
O41	O	1.616701	-0.190670	0.903984
O42	O	1.950034	0.142663	1.237318
O43	O	1.582796	-0.405539	0.741021
O44	O	1.916129	-0.072206	1.074355
O45	O	2.249463	0.261128	1.407688
O46	O	1.582668	-0.680388	0.441591
O47	O	1.916001	-0.347055	0.774925
O48	O	2.249335	-0.013721	1.108258
O49	O	1.453624	-0.680385	0.570631
O50	O	1.786957	-0.347052	0.903965
O51	O	2.120290	-0.013718	1.237298
C52	C	1.245269	-0.464760	0.506136
C53	C	1.578602	-0.131426	0.839470
C54	C	1.911936	0.201907	1.172803
C55	C	1.128492	-0.464778	0.506152
C56	C	1.461826	-0.131444	0.839486
C57	C	1.795159	0.201889	1.172819
C58	C	1.073635	-0.526567	0.573230
C59	C	1.406968	-0.193234	0.906563
C60	C	1.740302	0.140100	1.239896
C61	C	0.963911	-0.526571	0.573251
C62	C	1.297244	-0.193237	0.906584
C63	C	1.630577	0.140096	1.239917
C64	C	0.963911	-0.402993	0.439108
C65	C	1.297245	-0.069660	0.772441
C66	C	1.630578	0.263673	1.105774
C67	C	1.073633	-0.402986	0.439093
C68	C	1.406967	-0.069652	0.772426
C69	C	1.740300	0.263681	1.105759
C70	C	1.518160	-0.715386	0.506127
C71	C	1.851493	-0.382052	0.839460
C72	C	2.184826	-0.048719	1.172793
C73	C	1.518223	-0.822600	0.506149
C74	C	1.851556	-0.489266	0.839482
C75	C	2.184890	-0.155933	1.172816
C76	C	1.518333	-1.018895	0.506215
C77	C	1.851667	-0.685561	0.839548
C78	C	2.185000	-0.352228	1.172881
C79	C	1.518269	-0.909662	0.506181
C80	C	1.851602	-0.576329	0.839515
C81	C	2.184936	-0.242996	1.172848
C82	C	1.792270	-0.464784	0.506179
C83	C	2.125603	-0.131451	0.839512
C84	C	2.458936	0.201883	1.172845
C85	C	1.909046	-0.464789	0.506188
C86	C	2.242380	-0.131456	0.839521
C87	C	2.575713	0.201877	1.172855
C88	C	1.518248	-0.464778	0.780190
C89	C	1.851581	-0.131445	1.113524
C90	C	2.184915	0.201889	1.446857
C91	C	1.518253	-0.464781	0.896967
C92	C	1.851586	-0.131447	1.230300
C93	C	2.184920	0.201886	1.563634
C94	C	1.518342	-0.213178	0.506211
C95	C	1.851675	0.120155	0.839544
C96	C	2.185009	0.453488	1.172877
C97	C	1.518387	-0.105964	0.506233
C98	C	1.851720	0.227369	0.839567
C99	C	2.185054	0.560702	1.172900
C100	C	1.585467	-0.403100	0.951849
C101	C	1.918800	-0.069767	1.285182
C102	C	2.252133	0.263566	1.618516
C103	C	1.585458	-0.403098	1.061573
C104	C	1.918791	-0.069765	1.394906
C105	C	2.252124	0.263568	1.728240
C106	C	1.451018	-0.526466	1.061523
C107	C	1.784351	-0.193133	1.394857
C108	C	2.117685	0.140201	1.728190
C109	C	1.451023	-0.526462	0.951801
C110	C	1.784356	-0.193129	1.285135
C111	C	2.117689	0.140204	1.618468
C112	C	1.518224	-0.464786	1.233190
C113	C	1.851557	-0.131453	1.566523
C114	C	2.184890	0.201881	1.899856
C115	C	1.518239	-0.464783	1.116413
C116	C	1.851573	-0.131449	1.449746
C117	C	2.184906	0.201884	1.783080
H118	H	1.118298	-0.576880	0.627837
H119	H	1.451631	-0.243546	0.961170
H120	H	1.784964	0.089787	1.294503
H121	H	1.396282	-0.576689	0.907115
H122	H	1.729615	-0.243356	1.240449
H123	H	2.062948	0.089977	1.573782
H124	H	1.118300	-0.352663	0.384470
H125	H	1.451633	-0.019330	0.717803
H126	H	1.784966	0.314003	1.051137
Cl127	Cl	1.366511	-0.604009	1.130466
Cl128	Cl	1.699844	-0.270676	1.463799
Cl129	Cl	2.033177	0.062658	1.797132
H130	H	0.919251	-0.576884	0.627873
H131	H	1.252584	-0.243551	0.961207
H132	H	1.585917	0.089783	1.294540
Cl133	Cl	0.894938	-0.325318	0.354806
Cl134	Cl	1.228272	0.008015	0.688140
Cl135	Cl	1.561605	0.341348	1.021473
H136	H	1.640207	-0.352872	0.907206
H137	H	1.973540	-0.019539	1.240539
H138	H	2.306874	0.313794	1.573873
Cl139	Cl	1.669968	-0.325562	1.130563
Cl140	Cl	2.003302	0.007772	1.463896
Cl141	Cl	2.336635	0.341105	1.797230
