data_functionalizedCrystal
_audit_creation_method	'MofGen! by Chris Wilmer'
_symmetry_space_group_name_H-M	'P1'
_symmetry_Int_Tables_number	1
_symmetry_cell_setting	triclinic
loop_
_symmetry_equiv_pos_as_xyz
  x,y,z
_cell_length_a	13.033304
_cell_length_b	13.032721
_cell_length_c	13.032268
_cell_angle_alpha	103.289627
_cell_angle_beta	89.077769
_cell_angle_gamma	105.183092
loop_
_atom_site_label
_atom_site_type_symbol
_atom_site_fract_x
_atom_site_fract_y
_atom_site_fract_z
Zn1	Zn	-1.451133	0.335813	0.818131
Zn2	Zn	-1.451019	0.490910	0.663066
Zn3	Zn	-1.301797	0.330110	0.623681
Zn4	Zn	-1.250931	0.535896	0.818005
O5	O	-1.363720	0.423183	0.730721
O6	O	-1.597353	0.339947	0.814097
O7	O	-1.452464	0.448366	0.511621
O8	O	-1.342943	0.179836	0.633046
O9	O	-1.597269	0.453897	0.700172
O10	O	-1.452659	0.184026	0.775907
O11	O	-1.342832	0.330227	0.482685
O12	O	-1.148815	0.373848	0.632923
O13	O	-1.256248	0.530569	0.964242
O14	O	-1.111443	0.525038	0.775692
O15	O	-1.403335	0.383568	0.964335
O16	O	-1.403141	0.647909	0.700049
O17	O	-1.256137	0.680960	0.813882
C18	C	-1.092212	0.453707	0.700021
C19	C	-0.976052	0.466795	0.686914
C20	C	-0.924277	0.416366	0.737549
C21	C	-0.804220	0.429892	0.724004
C22	C	-1.324132	0.703595	0.761252
C23	C	-1.307287	0.823551	0.774359
C24	C	-0.636290	0.392534	0.761534
C25	C	-0.752448	0.379456	0.774646
C26	C	-1.324130	0.462723	1.003262
C27	C	-1.307259	0.479572	1.119403
C28	C	-1.403488	0.141675	0.700097
C29	C	-1.420434	0.021713	0.687047
C30	C	-1.372560	0.860644	0.723934
C31	C	-1.355151	0.984625	0.737479
C32	C	-1.403227	0.383712	0.459238
C33	C	-1.420343	0.366535	0.343088
C34	C	-1.372514	0.414352	1.171228
C35	C	-1.355079	0.431765	1.291266
H36	H	-0.759669	0.483080	0.670621
H37	H	-0.796999	0.326258	0.828021
H38	H	-0.931497	0.519979	0.633535
H39	H	-1.489117	0.297795	1.298594
O40	O	-1.454479	0.788990	0.660332
C41	C	-1.413926	0.720751	0.579029
H42	H	-1.327818	0.763169	0.566903
H43	H	-1.417511	0.640471	0.601663
C44	C	-1.586863	0.645255	0.490916
C45	C	-1.481106	0.697359	0.476017
H46	H	-1.628305	0.630821	0.427374
H47	H	-1.614186	0.691226	0.545693
H48	H	-1.589836	0.578361	0.509781
H49	H	-1.478133	0.764257	0.457166
H50	H	-1.453784	0.651398	0.421234
H51	H	-1.489214	0.961688	0.633849
H52	H	-1.238519	0.883581	0.827562
H53	H	-1.441285	0.345619	1.126729
H54	H	-1.286294	0.500493	1.335758
H55	H	-1.286379	1.044652	0.790686
O56	O	-1.225337	0.561677	1.172553
C57	C	-1.265884	0.633772	1.250010
H58	H	-1.352000	0.626433	1.227087
H59	H	-1.262272	0.611906	1.329458
C60	C	-1.092954	0.760987	1.286417
C61	C	-1.198721	0.751980	1.258258
H62	H	-1.051523	0.833903	1.291510
H63	H	-1.065636	0.712414	1.234236
H64	H	-1.089959	0.742760	1.352621
H65	H	-1.201716	0.770194	1.192050
H66	H	-1.226039	0.800559	1.310429
H67	H	-0.968833	0.363174	0.790922
