data_functionalizedCrystal
_audit_creation_method	'MofGen! by Chris Wilmer'
_symmetry_space_group_name_H-M	'P1'
_symmetry_Int_Tables_number	1
_symmetry_cell_setting	triclinic
loop_
_symmetry_equiv_pos_as_xyz
  x,y,z
_cell_length_a	10.723024
_cell_length_b	16.992695
_cell_length_c	16.053802
_cell_angle_alpha	87.258926
_cell_angle_beta	92.605405
_cell_angle_gamma	87.568046
loop_
_atom_site_label
_atom_site_type_symbol
_atom_site_fract_x
_atom_site_fract_y
_atom_site_fract_z
O1	O	-1.671600	-0.106759	-0.069425
O2	O	-1.309355	-0.117291	-0.069428
O3	O	-1.489025	0.002125	-0.069420
O4	O	-1.491930	-0.226175	-0.069433
O5	O	-1.479133	-0.004420	0.069439
O6	O	-1.299463	-0.123837	0.069431
O7	O	-1.661708	-0.113305	0.069434
Zn8	Zn	-1.479015	-0.119610	0.091479
Zn9	Zn	-1.492048	-0.110986	-0.091473
O10	O	-1.482038	-0.232721	0.069426
C11	C	-1.257843	-0.119797	0.000001
C12	C	-1.119092	-0.117504	0.000000
C13	C	-1.713220	-0.110798	0.000003
C14	C	-1.851972	-0.113091	-0.000002
C15	C	-1.480343	0.028085	0.000009
C16	C	-1.469195	0.115189	0.000009
C17	C	-1.049863	-0.184323	-0.000004
C18	C	-0.906455	-0.181955	-0.000005
C19	C	-1.490720	-0.258680	-0.000005
C20	C	-1.501869	-0.345784	-0.000011
N21	N	-1.470129	-0.125495	0.216339
C22	C	-1.576755	0.164851	0.000011
C23	C	-1.566274	0.246694	0.000003
C24	C	-1.448231	0.278874	-0.000001
C25	C	-1.340663	0.229206	-0.000005
C26	C	-1.351146	0.147364	-0.000003
C27	C	-1.404783	0.522706	-0.000013
C28	C	-1.394308	0.604554	-0.000012
C29	C	-1.619921	0.622037	-0.000006
C30	C	-1.630393	0.540193	0.000001
C31	C	-1.522825	0.490532	-0.000007
N32	N	-1.437514	0.362531	-0.000006
N33	N	-1.533543	0.406877	-0.000008
N34	N	-1.500943	-0.105094	-0.216333
C35	C	-1.546610	-0.074702	0.260036
C36	C	-1.540407	-0.078826	0.347443
C37	C	-1.457727	-0.133748	0.391150
C38	C	-1.381238	-0.184544	0.347447
C39	C	-1.387435	-0.180415	0.260042
C40	C	-1.430651	-0.151761	0.652559
C41	C	-1.424462	-0.155887	0.739970
C42	C	-1.583630	-0.050168	0.739960
C43	C	-1.589826	-0.046048	0.652553
C44	C	-1.513332	-0.096840	0.608857
N45	N	-1.451387	-0.137967	0.480494
N46	N	-1.519666	-0.092617	0.519515
H47	H	-1.096761	-0.243283	-0.000003
H48	H	-1.263558	0.106930	-0.000005
H49	H	-1.653861	0.287126	0.000006
O50	O	-1.226088	0.260591	0.000028
C51	C	-1.239898	0.343477	0.000008
H52	H	-1.333538	0.360931	0.026298
H53	H	-1.236322	0.369425	-0.066609
C54	C	-1.018310	0.353948	0.022173
C55	C	-1.133316	0.375386	0.054470
H56	H	-0.952563	0.373632	0.055764
H57	H	-1.009004	0.298106	0.022183
H58	H	-1.015348	0.375573	-0.033341
H59	H	-1.136283	0.353753	0.109978
H60	H	-1.142620	0.431225	0.054470
O61	O	-1.745159	0.509067	-0.000029
C62	C	-1.837848	0.570450	-0.000005
H63	H	-1.799187	0.627463	-0.026303
H64	H	-1.866659	0.578710	0.066615
C65	C	-1.999886	0.479303	-0.022148
C66	C	-1.952405	0.549327	-0.054454
H67	H	-2.070554	0.466273	-0.055731
H68	H	-1.937441	0.437948	-0.022161
H69	H	-2.023886	0.486196	0.033368
H70	H	-1.928393	0.542431	-0.109964
H71	H	-2.014850	0.590681	-0.054451
H72	H	-0.846949	-0.239157	-0.000012
O73	O	-0.922902	-0.044813	-0.000146
C74	C	-0.900950	0.002565	-0.072049
H75	H	-0.864072	-0.036213	-0.122316
H76	H	-0.829049	0.047622	-0.055786
C77	C	-1.069205	0.093467	-0.042918
C78	C	-1.023922	0.045838	-0.104659
H79	H	-1.145058	0.120163	-0.063032
H80	H	-1.083993	0.061549	0.005526
H81	H	-1.009277	0.131008	-0.029371
H82	H	-1.083843	0.008293	-0.118197
H83	H	-1.009147	0.077751	-0.153107
O84	O	-1.626957	-0.021281	0.217712
C85	C	-1.693151	0.022653	0.275028
H86	H	-1.637455	0.020889	0.337340
H87	H	-1.787775	-0.003791	0.284306
C88	C	-1.781274	0.110917	0.164397
C89	C	-1.712863	0.108756	0.240928
H90	H	-1.793440	0.164028	0.143362
H91	H	-1.736683	0.081317	0.125781
H92	H	-1.860121	0.088876	0.172139
H93	H	-1.634013	0.130788	0.233183
H94	H	-1.757442	0.138362	0.279542
O95	O	-1.614528	-0.029410	0.389923
C96	C	-1.539274	0.016982	0.440514
H97	H	-1.442547	0.020121	0.414193
H98	H	-1.530483	-0.010656	0.506756
C99	C	-1.718408	0.096899	0.474180
C100	C	-1.599610	0.100759	0.441848
H101	H	-1.755627	0.148575	0.475006
H102	H	-1.769109	0.065642	0.440098
H103	H	-1.711066	0.073864	0.529378
H104	H	-1.606955	0.123785	0.386647
H105	H	-1.548911	0.132022	0.475920
O106	O	-1.669776	0.007370	0.609875
C107	C	-1.754592	-0.032397	0.559013
H108	H	-1.761801	-0.095458	0.585339
H109	H	-1.720119	-0.033350	0.492915
C110	C	-1.875220	0.088091	0.524847
C111	C	-1.884081	0.010639	0.557185
H112	H	-1.955094	0.114638	0.523716
H113	H	-1.818075	0.114883	0.559111
H114	H	-1.846487	0.087286	0.469769
H115	H	-1.912798	0.011446	0.612266
H116	H	-1.941234	-0.016152	0.522931
H117	H	-1.368369	-0.193120	0.616988
O118	O	-1.344248	-0.209217	0.782558
C119	C	-1.355168	-0.201957	0.869073
H120	H	-1.450664	-0.173772	0.880995
H121	H	-1.278830	-0.163371	0.893899
C122	C	-1.223928	-0.318839	0.899295
C123	C	-1.341222	-0.284227	0.913938
H124	H	-1.215320	-0.369586	0.926971
H125	H	-1.216566	-0.323729	0.841008
H126	H	-1.160326	-0.286676	0.919984
H127	H	-1.404821	-0.316385	0.893240
H128	H	-1.348595	-0.279344	0.972222
O129	O	-1.657738	-0.000750	0.782446
C130	C	-1.582462	0.045630	0.833038
H131	H	-1.485739	0.048760	0.806710
H132	H	-1.573667	0.017985	0.899277
C133	C	-1.761568	0.125562	0.866723
C134	C	-1.642774	0.129412	0.834383
H135	H	-1.798772	0.177242	0.867557
H136	H	-1.812284	0.094314	0.832642
H137	H	-1.754223	0.102521	0.921919
H138	H	-1.650122	0.152443	0.779185
H139	H	-1.592060	0.160666	0.868456
O140	O	-1.301030	-0.237873	0.390031
C141	C	-1.311938	-0.230615	0.476548
H142	H	-1.407430	-0.202428	0.488476
H143	H	-1.235593	-0.192034	0.501371
C144	C	-1.180705	-0.347503	0.506757
C145	C	-1.297994	-0.312888	0.521408
H146	H	-1.172099	-0.398251	0.534430
H147	H	-1.173352	-0.352391	0.448469
H148	H	-1.117098	-0.315343	0.527443
H149	H	-1.361599	-0.345042	0.500712
H150	H	-1.305358	-0.308007	0.579693
O151	O	-1.313096	-0.229840	0.217721
C152	C	-1.238771	-0.279189	0.275038
H153	H	-1.285628	-0.283314	0.337336
H154	H	-1.142829	-0.253620	0.284354
C155	C	-1.166335	-0.356995	0.164397
C156	C	-1.223892	-0.362067	0.240910
H157	H	-1.157151	-0.408117	0.143345
H158	H	-1.216405	-0.323746	0.125781
H159	H	-1.086389	-0.335685	0.172171
H160	H	-1.303841	-0.383367	0.233134
H161	H	-1.173834	-0.395321	0.279525
H162	H	-1.672878	0.138657	0.000019
H163	H	-1.072194	-0.058543	-0.000018
H164	H	-1.707496	0.662479	-0.000000
H165	H	-1.317194	0.482282	-0.000020
H166	H	-1.298178	0.630750	-0.000002
