data_functionalizedCrystal
_audit_creation_method	'MofGen! by Chris Wilmer'
_symmetry_space_group_name_H-M	'P1'
_symmetry_Int_Tables_number	1
_symmetry_cell_setting	triclinic
loop_
_symmetry_equiv_pos_as_xyz
  x,y,z
_cell_length_a	12.759401
_cell_length_b	12.594516
_cell_length_c	12.759393
_cell_angle_alpha	89.969200
_cell_angle_beta	89.981433
_cell_angle_gamma	90.010860
loop_
_atom_site_label
_atom_site_type_symbol
_atom_site_fract_x
_atom_site_fract_y
_atom_site_fract_z
Zn1	Zn	1.606276	-0.423706	-0.593989
Zn2	Zn	1.606180	-0.601726	-0.418311
Zn3	Zn	1.430578	-0.423759	-0.418328
Zn4	Zn	1.430576	-0.601640	-0.593953
O5	O	1.518403	-0.512708	-0.506145
O6	O	1.753285	-0.447335	-0.570693
O7	O	1.582846	-0.578176	-0.271292
O8	O	1.453927	-0.274806	-0.441652
O9	O	1.753213	-0.578125	-0.441624
O10	O	1.583011	-0.274768	-0.570709
O11	O	1.453833	-0.447424	-0.271305
O12	O	1.283557	-0.447341	-0.441617
O13	O	1.453922	-0.577979	-0.740979
O14	O	1.283555	-0.578030	-0.570647
O15	O	1.583009	-0.447252	-0.741005
O16	O	1.582844	-0.750660	-0.441588
O17	O	1.453829	-0.750597	-0.570631
C18	C	1.245435	-0.512683	-0.506131
C19	C	1.128659	-0.512698	-0.506149
C20	C	1.073827	-0.444724	-0.573460
C21	C	0.964103	-0.444744	-0.573467
C22	C	0.964052	-0.580722	-0.438849
C23	C	1.073774	-0.580695	-0.438838
C24	C	1.128711	-0.376727	-0.640771
C25	C	1.073879	-0.308748	-0.708088
C26	C	0.964155	-0.308769	-0.708095
C27	C	0.909263	-0.376767	-0.640785
C28	C	1.518354	-0.789249	-0.506127
C29	C	1.518429	-0.907554	-0.506154
C30	C	1.588682	-0.976803	-0.436043
C31	C	1.614358	-1.047495	-0.531935
C32	C	1.492885	-1.047661	-0.410323
C33	C	1.544154	-0.976688	-0.602097
C34	C	1.422637	-0.976848	-0.480420
C35	C	1.448276	-1.047508	-0.576379
C36	C	1.792436	-0.512734	-0.506161
C37	C	1.909212	-0.512745	-0.506167
C38	C	1.518476	-0.512600	-0.780179
C39	C	1.518507	-0.512555	-0.896955
C40	C	1.518480	-0.235087	-0.506187
C41	C	1.518513	-0.116782	-0.506204
C42	C	1.585732	-0.444479	-0.951833
C43	C	1.585757	-0.444440	-1.061557
C44	C	1.451330	-0.580563	-1.061516
C45	C	1.451300	-0.580595	-0.951794
C46	C	1.652939	-0.376438	-0.896994
C47	C	1.720170	-0.308357	-0.951872
C48	C	1.720195	-0.308318	-1.061596
C49	C	1.652989	-0.376361	-1.116443
C50	C	1.518390	-0.512738	-0.233178
C51	C	1.518562	-0.512484	-0.116402
H52	H	1.218054	-0.376702	-0.640773
O53	O	1.570062	-0.939843	-0.698909
C54	C	1.588247	-1.026315	-0.766648
H55	H	1.545751	-1.099488	-0.735594
H56	H	1.557742	-1.006308	-0.848270
H57	H	1.675948	-1.043073	-0.770856
H58	H	0.919350	-0.636085	-0.384050
H59	H	1.341614	-0.945790	-0.458597
H60	H	1.396544	-0.636013	-0.907112
H61	H	1.118579	-0.253380	-0.762883
O62	O	1.785542	-0.242331	-1.115024
C63	C	1.853412	-0.302915	-1.178469
H64	H	1.816338	-0.383568	-1.194886
H65	H	1.867518	-0.259536	-1.255636
H66	H	1.931258	-0.314632	-1.136191
O67	O	1.377560	-1.084271	-0.647356
C68	C	1.404911	-1.047885	-0.748246
H69	H	1.492068	-1.028069	-0.750315
H70	H	1.387270	-1.112437	-0.808307
H71	H	1.357513	-0.973729	-0.767699
H72	H	0.919514	-0.253410	-0.762900
O73	O	1.467243	-1.084903	-0.313588
C74	C	1.549820	-1.148044	-0.274783
H75	H	1.626012	-1.124919	-0.315524
H76	H	1.558060	-1.134969	-0.186768
H77	H	1.532161	-1.235298	-0.290676
H78	H	1.653003	-0.376312	-1.205787
H79	H	1.118419	-0.636045	-0.384028
O80	O	1.653014	-0.376305	-0.790410
C81	C	1.726765	-0.301676	-0.753772
H82	H	1.741517	-0.239469	-0.817015
H83	H	1.695061	-0.261307	-0.680371
H84	H	1.803353	-0.343903	-0.734303
O85	O	1.785335	-0.242108	-0.898648
C86	C	1.762428	-0.136015	-0.925501
H87	H	1.678504	-0.130623	-0.955654
H88	H	1.771479	-0.083454	-0.853356
H89	H	1.818777	-0.108180	-0.989203
H90	H	1.396614	-0.635959	-1.106181
H91	H	0.819918	-0.376756	-0.640773
H92	H	1.648102	-0.945756	-0.376805
H93	H	1.695404	-1.078530	-0.553730
