data_functionalizedCrystal
_audit_creation_method	'MofGen! by Chris Wilmer'
_symmetry_space_group_name_H-M	'P1'
_symmetry_Int_Tables_number	1
_symmetry_cell_setting	triclinic
loop_
_symmetry_equiv_pos_as_xyz
  x,y,z
_cell_length_a	14.519709
_cell_length_b	12.996460
_cell_length_c	11.792241
_cell_angle_alpha	90.006284
_cell_angle_beta	83.936780
_cell_angle_gamma	89.999966
loop_
_atom_site_label
_atom_site_type_symbol
_atom_site_fract_x
_atom_site_fract_y
_atom_site_fract_z
O1	O	1.224413	0.085433	0.148782
O2	O	1.724413	0.585433	0.648782
O3	O	0.956001	0.085465	0.166303
O4	O	1.456001	0.585465	0.666303
O5	O	1.096721	0.085441	-0.007664
O6	O	1.596721	0.585441	0.492336
O7	O	1.083693	0.085457	0.322749
O8	O	1.583693	0.585457	0.822749
O9	O	1.096706	-0.085693	-0.007674
O10	O	1.596706	0.414307	0.492326
O11	O	0.955986	-0.085669	0.166294
O12	O	1.455986	0.414331	0.666294
O13	O	1.224399	-0.085701	0.148773
O14	O	1.724399	0.414299	0.648773
Cu15	Cu	1.090191	-0.101311	0.157532
Cu16	Cu	1.590191	0.398689	0.657532
Cu17	Cu	1.090208	0.101075	0.157544
Cu18	Cu	1.590208	0.601075	0.657544
O19	O	1.083678	-0.085677	0.322740
O20	O	1.583678	0.414323	0.822740
C21	C	0.921630	-0.000098	0.165482
C22	C	1.421630	0.499902	0.665482
C23	C	0.819240	-0.000086	0.163035
C24	C	1.319240	0.499914	0.663035
N25	N	1.090185	-0.243658	0.157524
N26	N	1.590185	0.256342	0.657524
C27	C	0.444311	-0.000134	0.154027
C28	C	0.944311	0.499866	0.654027
C29	C	0.548628	-0.000120	0.156528
C30	C	1.048628	0.499880	0.656528
C31	C	0.631772	-0.000109	0.158531
C32	C	1.131772	0.499891	0.658531
C33	C	0.736096	-0.000098	0.161033
C34	C	1.236096	0.499902	0.661033
C35	C	1.090207	-0.663472	0.157545
C36	C	1.590207	-0.163472	0.657545
C37	C	1.090198	-0.546667	0.157543
C38	C	1.590198	-0.046667	0.657543
C39	C	1.090197	-0.453569	0.157535
C40	C	1.590197	0.046431	0.657535
C41	C	1.090187	-0.336756	0.157531
C42	C	1.590187	0.163244	0.657531
C43	C	1.258769	-0.000135	0.149594
C44	C	1.758769	0.499865	0.649594
C45	C	1.361159	-0.000141	0.152041
C46	C	1.861159	0.499859	0.652041
N47	N	1.090221	0.243422	0.157543
N48	N	1.590221	0.743422	0.657543
C49	C	1.095895	-0.000126	-0.049955
C50	C	1.595895	0.499874	0.450045
C51	C	1.093446	-0.000124	-0.175955
C52	C	1.593446	0.499876	0.324045
C53	C	1.088942	-0.000106	-0.406642
C54	C	1.588942	0.499894	0.093358
C55	C	1.091444	-0.000116	-0.278271
C56	C	1.591444	0.499884	0.221729
C57	C	1.084504	-0.000108	0.365031
C58	C	1.584504	0.499892	0.865031
C59	C	1.086954	-0.000103	0.491031
C60	C	1.586954	0.499897	0.991031
