data_functionalizedCrystal
_audit_creation_method	'MofGen! by Chris Wilmer'
_symmetry_space_group_name_H-M	'P1'
_symmetry_Int_Tables_number	1
_symmetry_cell_setting	triclinic
loop_
_symmetry_equiv_pos_as_xyz
  x,y,z
_cell_length_a	29.839134
_cell_length_b	29.839131
_cell_length_c	18.215398
_cell_angle_alpha	89.971652
_cell_angle_beta	89.968619
_cell_angle_gamma	90.034165
loop_
_atom_site_label
_atom_site_type_symbol
_atom_site_fract_x
_atom_site_fract_y
_atom_site_fract_z
Zn1	Zn	0.686751	-0.178956	-0.416335
Zn2	Zn	0.936751	0.071044	-0.166335
Zn3	Zn	1.186751	0.321044	0.083665
Zn4	Zn	1.436751	0.571044	0.333665
Zn5	Zn	0.686674	-0.254082	-0.293262
Zn6	Zn	0.936674	-0.004082	-0.043262
Zn7	Zn	1.186674	0.245918	0.206738
Zn8	Zn	1.436674	0.495918	0.456738
Zn9	Zn	0.611624	-0.178957	-0.293257
Zn10	Zn	0.861624	0.071043	-0.043257
Zn11	Zn	1.111624	0.321043	0.206743
Zn12	Zn	1.361624	0.571043	0.456743
Zn13	Zn	0.611582	-0.254050	-0.416262
Zn14	Zn	0.861582	-0.004050	-0.166262
Zn15	Zn	1.111582	0.245950	0.083738
Zn16	Zn	1.361582	0.495950	0.333738
O17	O	0.649158	-0.216511	-0.354779
O18	O	0.899158	0.033489	-0.104779
O19	O	1.149158	0.283489	0.145221
O20	O	1.399158	0.533489	0.395221
O21	O	0.749608	-0.188934	-0.400042
O22	O	0.999608	0.061066	-0.150042
O23	O	1.249608	0.311066	0.099958
O24	O	1.499608	0.561066	0.349958
O25	O	0.676704	-0.244130	-0.190277
O26	O	0.926704	0.005870	0.059723
O27	O	1.176704	0.255870	0.309723
O28	O	1.426704	0.505870	0.559723
O29	O	0.621640	-0.116090	-0.309611
O30	O	0.871640	0.133910	-0.059611
O31	O	1.121640	0.383910	0.190389
O32	O	1.371640	0.633910	0.440389
O33	O	0.749551	-0.244129	-0.309621
O34	O	0.999551	0.005871	-0.059621
O35	O	1.249551	0.255871	0.190379
O36	O	1.499551	0.505871	0.440379
O37	O	0.676836	-0.116089	-0.400037
O38	O	0.926836	0.133911	-0.150037
O39	O	1.176836	0.383911	0.099963
O40	O	1.426836	0.633911	0.349963
O41	O	0.621566	-0.188937	-0.190273
O42	O	0.871566	0.061063	0.059727
O43	O	1.121566	0.311063	0.309727
O44	O	1.371566	0.561063	0.559727
O45	O	0.548752	-0.188906	-0.309540
O46	O	0.798752	0.061094	-0.059540
O47	O	1.048752	0.311094	0.190460
O48	O	1.298752	0.561094	0.440460
O49	O	0.621567	-0.244075	-0.519256
O50	O	0.871567	0.005925	-0.269256
O51	O	1.121567	0.255925	-0.019256
O52	O	1.371567	0.505925	0.230744
O53	O	0.548720	-0.244076	-0.399912
O54	O	0.798720	0.005924	-0.149912
O55	O	1.048720	0.255924	0.100088
O56	O	1.298720	0.505924	0.350088
O57	O	0.676794	-0.188904	-0.519309
O58	O	0.926794	0.061096	-0.269309
O59	O	1.176794	0.311096	-0.019309
O60	O	1.426794	0.561096	0.230691
O61	O	0.676662	-0.316945	-0.309550
O62	O	0.926662	-0.066945	-0.059550
O63	O	1.176662	0.183055	0.190450
O64	O	1.426662	0.433055	0.440450
O65	O	0.621492	-0.316922	-0.399917
O66	O	0.871492	-0.066922	-0.149917
O67	O	1.121492	0.183078	0.100083
O68	O	1.371492	0.433078	0.350083
C69	C	0.532435	-0.216488	-0.354718
C70	C	0.782435	0.033512	-0.104718
C71	C	1.032435	0.283512	0.145282
C72	C	1.282435	0.533512	0.395282
C73	C	0.482501	-0.216489	-0.354709
C74	C	0.732501	0.033511	-0.104709
C75	C	0.982501	0.283511	0.145291
C76	C	1.232501	0.533511	0.395291
C77	C	0.125918	-0.187742	-0.307819
C78	C	0.375918	0.062258	-0.057819
C79	C	0.625918	0.312258	0.192181
C80	C	0.875918	0.562258	0.442181
C81	C	0.313591	-0.187729	-0.307774
C82	C	0.563591	0.062271	-0.057774
C83	C	0.813591	0.312271	0.192226
C84	C	1.063591	0.562271	0.442226
O85	O	0.337858	-0.163249	-0.267837
O86	O	0.587858	0.086751	-0.017837
O87	O	0.837858	0.336751	0.232163
O88	O	1.087858	0.586751	0.482163
N89	N	0.337056	-0.216496	-0.354746
N90	N	0.587056	0.033504	-0.104746
N91	N	0.837056	0.283504	0.145254
N92	N	1.087056	0.533504	0.395254
C93	C	0.313599	-0.245266	-0.401737
C94	C	0.563599	0.004734	-0.151737
C95	C	0.813599	0.254734	0.098263
C96	C	1.063599	0.504734	0.348263
O97	O	0.337864	-0.269731	-0.441694
O98	O	0.587864	-0.019731	-0.191694
O99	O	0.837864	0.230269	0.058306
O100	O	1.087864	0.480269	0.308306
C101	C	0.125927	-0.245277	-0.401785
C102	C	0.375927	0.004723	-0.151785
C103	C	0.625927	0.254723	0.098215
C104	C	0.875927	0.504723	0.348215
C105	C	0.102465	-0.216511	-0.354804
C106	C	0.352465	0.033489	-0.104804
C107	C	0.602465	0.283489	0.145196
C108	C	0.852465	0.533489	0.395196
C109	C	0.102455	-0.158978	-0.260842
C110	C	0.352455	0.091022	-0.010842
C111	C	0.602455	0.341022	0.239158
C112	C	0.852455	0.591022	0.489158
C113	C	0.055539	-0.158983	-0.260851
C114	C	0.305539	0.091017	-0.010851
C115	C	0.555539	0.341017	0.239149
C116	C	0.805539	0.591017	0.489149
C117	C	0.032087	-0.187752	-0.307836
C118	C	0.282087	0.062248	-0.057836
C119	C	0.532087	0.312248	0.192164
C120	C	0.782087	0.562248	0.442164
C121	C	0.055549	-0.216516	-0.354813
C122	C	0.305549	0.033484	-0.104813
C123	C	0.555549	0.283484	0.145187
C124	C	0.805549	0.533484	0.395187
C125	C	0.102472	-0.274044	-0.448778
C126	C	0.352472	-0.024044	-0.198778
C127	C	0.602472	0.225956	0.051222
C128	C	0.852472	0.475956	0.301222
C129	C	0.055551	-0.274043	-0.448787
C130	C	0.305551	-0.024043	-0.198787
C131	C	0.555551	0.225957	0.051213
C132	C	0.805551	0.475957	0.301213
C133	C	0.032088	-0.245278	-0.401806
C134	C	0.282088	0.004722	-0.151806
C135	C	0.532088	0.254722	0.098194
C136	C	0.782088	0.504722	0.348194
C137	C	-0.014819	-0.245290	-0.401807
C138	C	0.235181	0.004710	-0.151807
C139	C	0.485181	0.254710	0.098193
C140	C	0.735181	0.504710	0.348193
N141	N	-0.038284	-0.216523	-0.354834
N142	N	0.211716	0.033477	-0.104834
N143	N	0.461716	0.283477	0.145166
N144	N	0.711716	0.533477	0.395166
C145	C	-0.014831	-0.187754	-0.307849
C146	C	0.235169	0.062246	-0.057849
C147	C	0.485169	0.312246	0.192151
C148	C	0.735169	0.562246	0.442151
C149	C	0.412130	-0.245260	-0.401707
C150	C	0.662130	0.004740	-0.151707
C151	C	0.912130	0.254740	0.098293
C152	C	1.162130	0.504740	0.348293
C153	C	0.459048	-0.245258	-0.401694
C154	C	0.709048	0.004742	-0.151694
C155	C	0.959048	0.254742	0.098306
C156	C	1.209048	0.504742	0.348306
C157	C	0.459036	-0.187720	-0.307732
C158	C	0.709036	0.062280	-0.057732
C159	C	0.959036	0.312280	0.192268
C160	C	1.209036	0.562280	0.442268
C161	C	0.412117	-0.187724	-0.307742
C162	C	0.662117	0.062276	-0.057742
C163	C	0.912117	0.312276	0.192258
C164	C	1.162117	0.562276	0.442258
C165	C	0.388665	-0.216493	-0.354735
C166	C	0.638665	0.033507	-0.104735
C167	C	0.888665	0.283507	0.145265
C168	C	1.138665	0.533507	0.395265
C169	C	-0.113357	-0.187767	-0.307871
C170	C	0.136643	0.062233	-0.057871
C171	C	0.386643	0.312233	0.192129
C172	C	0.636643	0.562233	0.442129
C173	C	-0.160277	-0.187776	-0.307881
C174	C	0.089723	0.062224	-0.057881
C175	C	0.339723	0.312224	0.192119
C176	C	0.589723	0.562224	0.442119
C177	C	-0.160260	-0.245313	-0.401846
C178	C	0.089740	0.004687	-0.151846
C179	C	0.339740	0.254687	0.098154
C180	C	0.589740	0.504687	0.348154
C181	C	-0.113345	-0.245305	-0.401833
C182	C	0.136655	0.004695	-0.151833
C183	C	0.386655	0.254695	0.098167
C184	C	0.636655	0.504695	0.348167
C185	C	-0.089894	-0.216529	-0.354842
C186	C	0.160106	0.033471	-0.104842
C187	C	0.410106	0.283471	0.145158
C188	C	0.660106	0.533471	0.395158
O189	O	-0.039116	-0.269754	-0.441728
O190	O	0.210884	-0.019754	-0.191728
O191	O	0.460884	0.230246	0.058272
O192	O	0.710884	0.480246	0.308272
O193	O	-0.039104	-0.163286	-0.267909
O194	O	0.210896	0.086714	-0.017909
O195	O	0.460896	0.336714	0.232091
O196	O	0.710896	0.586714	0.482091
C197	C	0.172833	-0.187737	-0.307810
C198	C	0.422833	0.062263	-0.057810
C199	C	0.672833	0.312263	0.192190
C200	C	0.922833	0.562263	0.442190
C201	C	0.196296	-0.216500	-0.354786
C202	C	0.446296	0.033500	-0.104786
C203	C	0.696296	0.283500	0.145214
C204	C	0.946296	0.533500	0.395214
C205	C	0.172843	-0.245269	-0.401771
C206	C	0.422843	0.004731	-0.151771
C207	C	0.672843	0.254731	0.098229
C208	C	0.922843	0.504731	0.348229
C209	C	0.243213	-0.216498	-0.354773
C210	C	0.493213	0.033502	-0.104773
C211	C	0.743213	0.283502	0.145227
C212	C	0.993213	0.533502	0.395227
C213	C	0.266666	-0.187729	-0.307788
C214	C	0.516666	0.062271	-0.057788
C215	C	0.766666	0.312271	0.192212
C216	C	1.016666	0.562271	0.442212
C217	C	0.243201	-0.158962	-0.260816
C218	C	0.493201	0.091038	-0.010816
C219	C	0.743201	0.341038	0.239184
C220	C	0.993201	0.591038	0.489184
C221	C	0.196286	-0.158968	-0.260825
C222	C	0.446286	0.091032	-0.010825
C223	C	0.696286	0.341032	0.239175
C224	C	0.946286	0.591032	0.489175
C225	C	0.196308	-0.274036	-0.448744
C226	C	0.446308	-0.024036	-0.198744
C227	C	0.696308	0.225964	0.051256
C228	C	0.946308	0.475964	0.301256
C229	C	0.243223	-0.274029	-0.448731
C230	C	0.493223	-0.024029	-0.198731
C231	C	0.743223	0.225971	0.051269
C232	C	0.993223	0.475971	0.301269
C233	C	0.266676	-0.245260	-0.401745
C234	C	0.516676	0.004740	-0.151745
C235	C	0.766676	0.254740	0.098255
C236	C	1.016676	0.504740	0.348255
C237	C	0.649077	-0.333234	-0.354742
C238	C	0.899077	-0.083234	-0.104742
C239	C	1.149077	0.166766	0.145258
C240	C	1.399077	0.416766	0.395258
C241	C	0.649083	-0.383168	-0.354751
C242	C	0.899083	-0.133168	-0.104751
C243	C	1.149083	0.116832	0.145249
C244	C	1.399083	0.366832	0.395249
C245	C	0.677937	-0.692811	-0.307793
C246	C	0.927937	-0.442811	-0.057793
C247	C	1.177937	-0.192811	0.192207
C248	C	1.427937	0.057189	0.442207
C249	C	0.677992	-0.880484	-0.307822
C250	C	0.927992	-0.630484	-0.057822
C251	C	1.177992	-0.380484	0.192178
C252	C	1.427992	-0.130484	0.442178
O253	O	0.702461	-0.904749	-0.267869
O254	O	0.952461	-0.654749	-0.017869
O255	O	1.202461	-0.404749	0.232131
O256	O	1.452461	-0.154749	0.482131
N257	N	0.649251	-0.903953	-0.354834
N258	N	0.899251	-0.653953	-0.104834
N259	N	1.149251	-0.403953	0.145166
N260	N	1.399251	-0.153953	0.395166
C261	C	0.620495	-0.880501	-0.401846
C262	C	0.870495	-0.630501	-0.151846
C263	C	1.120495	-0.380501	0.098154
C264	C	1.370495	-0.130501	0.348154
O265	O	0.596054	-0.904770	-0.441839
O266	O	0.846054	-0.654770	-0.191839
O267	O	1.096054	-0.404770	0.058161
O268	O	1.346054	-0.154770	0.308161
C269	C	0.620443	-0.692829	-0.401821
C270	C	0.870443	-0.442829	-0.151821
C271	C	1.120443	-0.192829	0.098179
C272	C	1.370443	0.057171	0.348179
C273	C	0.649183	-0.669363	-0.354800
C274	C	0.899183	-0.419363	-0.104800
C275	C	1.149183	-0.169363	0.145200
C276	C	1.399183	0.080637	0.395200
C277	C	0.706675	-0.669345	-0.260777
C278	C	0.956675	-0.419345	-0.010777
C279	C	1.206675	-0.169345	0.239223
C280	C	1.456675	0.080655	0.489223
C281	C	0.706659	-0.622429	-0.260768
C282	C	0.956659	-0.372429	-0.010768
C283	C	1.206659	-0.122429	0.239232
C284	C	1.456659	0.127571	0.489232
C285	C	0.677905	-0.598980	-0.307774
C286	C	0.927905	-0.348980	-0.057774
C287	C	1.177905	-0.098980	0.192226
C288	C	1.427905	0.151020	0.442226
C289	C	0.649167	-0.622447	-0.354791
C290	C	0.899167	-0.372447	-0.104791
C291	C	1.149167	-0.122447	0.145209
C292	C	1.399167	0.127553	0.395209
C293	C	0.591690	-0.669378	-0.448836
C294	C	0.841690	-0.419378	-0.198836
C295	C	1.091690	-0.169378	0.051164
C296	C	1.341690	0.080622	0.301164
C297	C	0.591680	-0.622457	-0.448827
C298	C	0.841680	-0.372457	-0.198827
C299	C	1.091680	-0.122457	0.051173
C300	C	1.341680	0.127543	0.301173
C301	C	0.620420	-0.598990	-0.401806
C302	C	0.870420	-0.348990	-0.151806
C303	C	1.120420	-0.098990	0.098194
C304	C	1.370420	0.151010	0.348194
C305	C	0.620397	-0.552083	-0.401788
C306	C	0.870397	-0.302083	-0.151788
C307	C	1.120397	-0.052083	0.098212
C308	C	1.370397	0.197917	0.348212
N309	N	0.649139	-0.528614	-0.354776
N310	N	0.899139	-0.278614	-0.104776
N311	N	1.149139	-0.028614	0.145224
N312	N	1.399139	0.221386	0.395224
C313	C	0.677893	-0.552063	-0.307769
C314	C	0.927893	-0.302063	-0.057769
C315	C	1.177893	-0.052063	0.192231
C316	C	1.427893	0.197937	0.442231
C317	C	0.620525	-0.979032	-0.401855
C318	C	0.870525	-0.729032	-0.151855
C319	C	1.120525	-0.479032	0.098145
C320	C	1.370525	-0.229032	0.348145
C321	C	0.620537	-1.025950	-0.401861
C322	C	0.870537	-0.775950	-0.151861
C323	C	1.120537	-0.525950	0.098139
C324	C	1.370537	-0.275950	0.348139
C325	C	0.678035	-1.025930	-0.307837
C326	C	0.928035	-0.775930	-0.057837
C327	C	1.178035	-0.525930	0.192163
C328	C	1.428035	-0.275930	0.442163
C329	C	0.678020	-0.979011	-0.307829
C330	C	0.928020	-0.729011	-0.057829
C331	C	1.178020	-0.479011	0.192171
C332	C	1.428020	-0.229011	0.442171
C333	C	0.649266	-0.955563	-0.354843
C334	C	0.899266	-0.705563	-0.104843
C335	C	1.149266	-0.455563	0.145157
C336	C	1.399266	-0.205563	0.395157
C337	C	0.677857	-0.453537	-0.307752
C338	C	0.927857	-0.203537	-0.057752
C339	C	1.177857	0.046463	0.192248
C340	C	1.427857	0.296463	0.442248
C341	C	0.677837	-0.406617	-0.307745
C342	C	0.927837	-0.156617	-0.057745
C343	C	1.177837	0.093383	0.192255
C344	C	1.427837	0.343383	0.442255
C345	C	0.620341	-0.406642	-0.401770
C346	C	0.870341	-0.156642	-0.151770
C347	C	1.120341	0.093358	0.098230
C348	C	1.370341	0.343358	0.348230
C349	C	0.620359	-0.453557	-0.401775
C350	C	0.870359	-0.203557	-0.151775
C351	C	1.120359	0.046443	0.098225
C352	C	1.370359	0.296443	0.348225
C353	C	0.649121	-0.477004	-0.354764
C354	C	0.899121	-0.227004	-0.104764
C355	C	1.149121	0.022996	0.145236
C356	C	1.399121	0.272996	0.395236
O357	O	0.595945	-0.527790	-0.441726
O358	O	0.845945	-0.277790	-0.191726
O359	O	1.095945	-0.027790	0.058274
O360	O	1.345945	0.222210	0.308274
O361	O	0.702338	-0.527786	-0.267794
O362	O	0.952338	-0.277786	-0.017794
O363	O	1.202338	-0.027786	0.232206
O364	O	1.452338	0.222214	0.482206
C365	C	0.677953	-0.739727	-0.307803
C366	C	0.927953	-0.489727	-0.057803
C367	C	1.177953	-0.239727	0.192197
C368	C	1.427953	0.010273	0.442197
C369	C	0.649215	-0.763193	-0.354819
C370	C	0.899215	-0.513193	-0.104819
C371	C	1.149215	-0.263193	0.145181
C372	C	1.399215	-0.013193	0.395181
C373	C	0.620460	-0.739745	-0.401826
C374	C	0.870460	-0.489745	-0.151826
C375	C	1.120460	-0.239745	0.098174
C376	C	1.370460	0.010255	0.348174
C377	C	0.649227	-0.810111	-0.354825
C378	C	0.899227	-0.560111	-0.104825
C379	C	1.149227	-0.310111	0.145175
C380	C	1.399227	-0.060111	0.395175
C381	C	0.677981	-0.833560	-0.307818
C382	C	0.927981	-0.583560	-0.057818
C383	C	1.177981	-0.333560	0.192182
C384	C	1.427981	-0.083560	0.442182
C385	C	0.706723	-0.810091	-0.260806
C386	C	0.956723	-0.560091	-0.010806
C387	C	1.206723	-0.310091	0.239194
C388	C	1.456723	-0.060091	0.489194
C389	C	0.706707	-0.763175	-0.260796
C390	C	0.956707	-0.513175	-0.010796
C391	C	1.206707	-0.263175	0.239204
C392	C	1.456707	-0.013175	0.489204
C393	C	0.591719	-0.763214	-0.448838
C394	C	0.841719	-0.513214	-0.198838
C395	C	1.091719	-0.263214	0.051162
C396	C	1.341719	-0.013214	0.301162
C397	C	0.591737	-0.810129	-0.448843
C398	C	0.841737	-0.560129	-0.198843
C399	C	1.091737	-0.310129	0.051157
C400	C	1.341737	-0.060129	0.301157
C401	C	0.620491	-0.833578	-0.401837
C402	C	0.870491	-0.583578	-0.151837
C403	C	1.120491	-0.333578	0.098163
C404	C	1.370491	-0.083578	0.348163
C405	C	0.766336	-0.216535	-0.354840
C406	C	1.016336	0.033465	-0.104840
C407	C	1.266336	0.283465	0.145160
C408	C	1.516336	0.533465	0.395160
C409	C	0.816270	-0.216545	-0.354867
C410	C	1.066270	0.033455	-0.104867
C411	C	1.316270	0.283455	0.145133
C412	C	1.566270	0.533455	0.395133
C413	C	0.649184	-0.216486	-0.546732
C414	C	0.899184	0.033514	-0.296732
C415	C	1.149184	0.283514	-0.046732
C416	C	1.399184	0.533514	0.203268
C417	C	0.649196	-0.216475	-0.628531
C418	C	0.899196	0.033525	-0.378531
C419	C	1.149196	0.283525	-0.128531
C420	C	1.399196	0.533525	0.121469
C421	C	0.649251	-0.099333	-0.354832
C422	C	0.899251	0.150667	-0.104832
C423	C	1.149251	0.400667	0.145168
C424	C	1.399251	0.650667	0.395168
C425	C	0.649291	-0.049399	-0.354854
C426	C	0.899291	0.200601	-0.104854
C427	C	1.149291	0.450601	0.145146
C428	C	1.399291	0.700601	0.395146
C429	C	0.677927	-0.245159	-0.893595
C430	C	0.927927	0.004841	-0.643595
C431	C	1.177927	0.254841	-0.393595
C432	C	1.427927	0.504841	-0.143595
C433	C	0.677920	-0.245174	-0.816736
C434	C	0.927920	0.004826	-0.566736
C435	C	1.177920	0.254826	-0.316736
C436	C	1.427920	0.504826	-0.066736
C437	C	0.620499	-0.187704	-0.816715
C438	C	0.870499	0.062296	-0.566715
C439	C	1.120499	0.312296	-0.316715
C440	C	1.370499	0.562296	-0.066715
C441	C	0.620503	-0.187691	-0.893573
C442	C	0.870503	0.062309	-0.643573
C443	C	1.120503	0.312309	-0.393573
C444	C	1.370503	0.562309	-0.143573
C445	C	0.649220	-0.216418	-0.932010
C446	C	0.899220	0.033582	-0.682010
C447	C	1.149220	0.283582	-0.432010
C448	C	1.399220	0.533582	-0.182010
C449	C	0.649208	-0.216446	-0.778294
C450	C	0.899208	0.033554	-0.528294
C451	C	1.149208	0.283554	-0.278294
C452	C	1.399208	0.533554	-0.028294
C453	C	0.649201	-0.216463	-0.694961
C454	C	0.899201	0.033537	-0.444961
C455	C	1.149201	0.283537	-0.194961
C456	C	1.399201	0.533537	0.055039
C457	C	0.649227	-0.216402	-1.015350
C458	C	0.899227	0.033598	-0.765350
C459	C	1.149227	0.283598	-0.515350
C460	C	1.399227	0.533598	-0.265350
C461	C	0.649157	-0.216505	-0.163573
C462	C	0.899157	0.033495	0.086427
C463	C	1.149157	0.283495	0.336427
C464	C	1.399157	0.533495	0.586427
C465	C	0.649233	-0.216389	-0.081774
C466	C	0.899233	0.033611	0.168226
C467	C	1.149233	0.283611	0.418226
C468	C	1.399233	0.533611	0.668226
H469	H	0.036459	-0.297469	-0.487058
H470	H	0.286459	-0.047469	-0.237058
H471	H	0.536459	0.202531	0.012942
H472	H	0.786459	0.452531	0.262942
H473	H	0.568284	-0.688477	-0.487122
H474	H	0.818284	-0.438477	-0.237122
H475	H	1.068284	-0.188477	0.012878
H476	H	1.318284	0.061523	0.262878
F477	F	0.030575	-0.128363	-0.210853
F478	F	0.280575	0.121637	0.039147
F479	F	0.530575	0.371637	0.289147
F480	F	0.780575	0.621637	0.539147
H481	H	0.597119	-0.164315	-0.785410
H482	H	0.847119	0.085685	-0.535410
H483	H	1.097119	0.335685	-0.285410
H484	H	1.347119	0.585685	-0.035410
F485	F	-0.185245	-0.157159	-0.257875
F486	F	0.064755	0.092841	-0.007875
F487	F	0.314755	0.342841	0.242125
F488	F	0.564755	0.592841	0.492125
H489	H	0.568329	-0.829232	-0.487132
H490	H	0.818329	-0.579232	-0.237132
H491	H	1.068329	-0.329232	0.012868
H492	H	1.318329	-0.079232	0.262868
F493	F	0.737298	-0.738206	-0.210752
F494	F	0.987298	-0.488206	0.039248
F495	F	1.237298	-0.238206	0.289248
F496	F	1.487298	0.011794	0.539248
F497	F	0.561076	-0.597505	-0.498869
F498	F	0.811076	-0.347505	-0.248869
F499	F	1.061076	-0.097505	0.001131
F500	F	1.311076	0.152495	0.251131
H501	H	0.568304	-0.744126	-0.487118
H502	H	0.818304	-0.494126	-0.237118
H503	H	1.068304	-0.244126	0.012882
H504	H	1.318304	0.005874	0.262882
H505	H	0.597125	-0.164286	-0.924851
H506	H	0.847125	0.085714	-0.674851
H507	H	1.097125	0.335714	-0.424851
H508	H	1.347125	0.585714	-0.174851
H509	H	-0.094269	-0.164333	-0.269610
H510	H	0.155731	0.085667	-0.019610
H511	H	0.405731	0.335667	0.230390
H512	H	0.655731	0.585667	0.480390
H513	H	0.701309	-0.268550	-0.924889
H514	H	0.951309	-0.018550	-0.674889
H515	H	1.201309	0.231450	-0.424889
H516	H	1.451309	0.481450	-0.174889
F517	F	-0.185229	-0.275934	-0.451840
F518	F	0.064771	-0.025934	-0.201840
F519	F	0.314771	0.224066	0.048160
F520	F	0.564771	0.474066	0.298160
H521	H	0.596958	-0.472665	-0.440066
H522	H	0.846958	-0.222665	-0.190066
H523	H	1.096958	0.027335	0.059934
H524	H	1.346958	0.277335	0.309934
F525	F	0.127433	-0.304661	-0.498783
F526	F	0.377433	-0.054661	-0.248783
F527	F	0.627433	0.195339	0.001217
F528	F	0.877433	0.445339	0.251217
H529	H	0.701296	-0.268578	-0.785462
H530	H	0.951296	-0.018578	-0.535462
H531	H	1.201296	0.231422	-0.285462
H532	H	1.451296	0.481422	-0.035462
H533	H	0.121545	-0.135548	-0.222581
H534	H	0.371545	0.114452	0.027419
H535	H	0.621545	0.364452	0.277419
H536	H	0.871545	0.614452	0.527419
F537	F	0.589742	-0.381677	-0.451798
F538	F	0.839742	-0.131677	-0.201798
F539	F	1.089742	0.118323	0.048202
F540	F	1.339742	0.368323	0.298202
H541	H	0.597109	-0.959944	-0.440141
H542	H	0.847109	-0.709944	-0.190141
H543	H	1.097109	-0.459944	0.059859
H544	H	1.347109	-0.209944	0.309859
F545	F	0.387151	-0.157108	-0.257740
F546	F	0.637151	0.092892	-0.007740
F547	F	0.887151	0.342892	0.242260
F548	F	1.137151	0.592892	0.492260
F549	F	0.737324	-0.835055	-0.210776
F550	F	0.987324	-0.585055	0.039224
F551	F	1.237324	-0.335055	0.289224
F552	F	1.487324	-0.085055	0.539224
H553	H	0.478147	-0.268687	-0.439943
H554	H	0.728147	-0.018687	-0.189943
H555	H	0.978147	0.231313	0.060057
H556	H	1.228147	0.481313	0.310057
F557	F	0.484004	-0.157102	-0.257726
F558	F	0.734004	0.092898	-0.007726
F559	F	0.984004	0.342898	0.242274
F560	F	1.234004	0.592898	0.492274
F561	F	0.171354	-0.304658	-0.498754
F562	F	0.421354	-0.054658	-0.248754
F563	F	0.671354	0.195342	0.001246
F564	F	0.921354	0.445342	0.251246
H565	H	0.393040	-0.268688	-0.439976
H566	H	0.643040	-0.018688	-0.189976
H567	H	0.893040	0.231312	0.060024
H568	H	1.143040	0.481312	0.310024
H569	H	-0.094241	-0.268732	-0.440082
H570	H	0.155759	-0.018732	-0.190082
H571	H	0.405759	0.231268	0.059918
H572	H	0.655759	0.481268	0.309918
H573	H	0.177187	-0.135543	-0.222569
H574	H	0.427187	0.114457	0.027431
H575	H	0.677187	0.364457	0.277431
H576	H	0.927187	0.614457	0.527431
H577	H	0.262322	-0.297458	-0.486987
H578	H	0.512322	-0.047458	-0.236987
H579	H	0.762322	0.202542	0.013013
H580	H	1.012322	0.452542	0.263013
F581	F	0.268170	-0.128346	-0.210808
F582	F	0.518170	0.121654	0.039192
F583	F	0.768170	0.371654	0.289192
F584	F	1.018170	0.621654	0.539192
F585	F	0.708427	-0.381645	-0.257696
F586	F	0.958427	-0.131645	-0.007696
F587	F	1.208427	0.118355	0.242304
F588	F	1.458427	0.368355	0.492304
H589	H	0.730063	-0.603325	-0.222482
H590	H	0.980063	-0.353325	0.027518
H591	H	1.230063	-0.103325	0.277518
H592	H	1.480063	0.146675	0.527518
F593	F	0.708468	-0.478484	-0.257717
F594	F	0.958468	-0.228484	-0.007717
F595	F	1.208468	0.021516	0.242283
F596	F	1.458468	0.271516	0.492283
F597	F	0.737283	-0.694293	-0.210743
F598	F	0.987283	-0.444293	0.039257
F599	F	1.237283	-0.194293	0.289257
F600	F	1.487283	0.055707	0.539257
H601	H	0.701423	-0.959907	-0.269541
H602	H	0.951423	-0.709907	-0.019541
H603	H	1.201423	-0.459907	0.230459
H604	H	1.451423	-0.209907	0.480459
H605	H	0.701448	-1.045029	-0.269563
H606	H	0.951448	-0.795029	-0.019563
H607	H	1.201448	-0.545029	0.230437
H608	H	1.451448	-0.295029	0.480437
H609	H	0.597130	-1.045052	-0.440143
H610	H	0.847130	-0.795052	-0.190143
H611	H	1.097130	-0.545052	0.059857
H612	H	1.347130	-0.295052	0.309857
