data_functionalizedCrystal
_audit_creation_method	'MofGen! by Chris Wilmer'
_symmetry_space_group_name_H-M	'P1'
_symmetry_Int_Tables_number	1
_symmetry_cell_setting	triclinic
loop_
_symmetry_equiv_pos_as_xyz
  x,y,z
_cell_length_a	10.967926
_cell_length_b	13.339070
_cell_length_c	11.804783
_cell_angle_alpha	99.452288
_cell_angle_beta	115.010288
_cell_angle_gamma	99.822081
loop_
_atom_site_label
_atom_site_type_symbol
_atom_site_fract_x
_atom_site_fract_y
_atom_site_fract_z
O1	O	1.782652	0.191903	0.266786
O2	O	1.401267	0.190943	0.188523
O3	O	1.548190	0.042202	0.218676
O4	O	1.635729	0.340644	0.236633
O5	O	1.609565	0.081427	0.429311
O6	O	1.462642	0.230168	0.399158
O7	O	1.844027	0.231128	0.477420
Cu8	Cu	1.658939	0.234229	0.457521
Cu9	Cu	1.586355	0.187841	0.208422
O10	O	1.697104	0.379869	0.447267
C11	C	1.382144	0.207661	0.283619
C12	C	1.233721	0.199026	0.253162
C13	C	1.199343	0.215495	0.348698
C14	C	1.045941	0.206571	0.317221
C15	C	1.564090	0.023463	0.320957
C16	C	1.520010	-0.090811	0.311907
C17	C	1.862737	-0.440272	0.382237
C18	C	1.904158	-0.332904	0.390748
C19	C	1.808124	-0.272376	0.371038
C20	C	1.670663	-0.319225	0.342817
C21	C	1.629241	-0.426602	0.334315
C22	C	1.574628	-0.258706	0.323116
C23	C	1.437167	-0.305556	0.294894
C24	C	1.395751	-0.412922	0.286393
C25	C	1.491785	-0.473450	0.306103
C26	C	1.616050	-0.151329	0.331618
C27	C	1.382554	-0.137660	0.283695
C28	C	1.341133	-0.245027	0.275184
C29	C	1.863149	0.214409	0.382321
C30	C	2.011570	0.223043	0.412770
C31	C	1.681204	0.398607	0.344983
C32	C	1.725281	0.512880	0.354025
N33	N	1.710000	0.266856	0.632727
N34	N	1.535302	0.155207	0.033218
C35	C	1.412636	0.076848	0.945732
C36	C	1.373981	0.052158	0.813148
C37	C	1.457982	0.105831	0.768036
C38	C	1.580646	0.184197	0.855521
C39	C	1.619310	0.208883	0.988119
C40	C	1.664656	0.237866	0.810423
C41	C	1.787320	0.316232	0.897909
C42	C	1.825978	0.340915	1.030493
C43	C	1.741976	0.287242	1.075605
C44	C	1.625991	0.213180	0.677825
C45	C	1.832666	0.345215	0.720212
C46	C	1.871321	0.369905	0.852796
H47	H	1.727972	-0.113195	0.354596
H48	H	1.940915	-0.489561	0.398292
H49	H	1.925867	0.404716	1.101723
H50	H	1.841858	-0.184952	0.377970
Br51	Br	1.209204	-0.476498	0.248116
Br52	Br	1.151782	0.257541	0.587951
Br53	Br	1.154582	-0.308623	0.236877
H54	H	1.304357	-0.088376	0.267652
Br55	Br	1.459529	0.106828	0.559112
H56	H	2.016079	-0.294766	0.413728
Br57	Br	1.207491	-0.054163	0.694423
H58	H	1.901068	0.388919	0.683484
H59	H	1.773440	0.307345	1.183563
H60	H	1.283478	0.236197	0.453792
Br61	Br	0.905720	0.172042	0.142041
Br62	Br	1.435524	-0.619202	0.294381
Br63	Br	1.093497	0.164498	0.077989
H64	H	1.426501	0.085724	0.660079
H65	H	1.344262	0.033150	0.982478
Br66	Br	2.037785	0.476259	0.971538
