data_functionalizedCrystal
_audit_creation_method	'MofGen! by Chris Wilmer'
_symmetry_space_group_name_H-M	'P1'
_symmetry_Int_Tables_number	1
_symmetry_cell_setting	triclinic
loop_
_symmetry_equiv_pos_as_xyz
  x,y,z
_cell_length_a	9.065218
_cell_length_b	17.699083
_cell_length_c	7.540329
_cell_angle_alpha	89.995522
_cell_angle_beta	89.996962
_cell_angle_gamma	84.149450
loop_
_atom_site_label
_atom_site_type_symbol
_atom_site_fract_x
_atom_site_fract_y
_atom_site_fract_z
O1	O	1.957110	0.110973	-0.147491
O2	O	1.527555	0.120075	-0.147494
O3	O	1.754468	0.005430	-0.147477
O4	O	1.730196	0.225619	-0.147508
O5	O	1.754455	0.005428	0.147488
O6	O	1.527542	0.120074	0.147471
O7	O	1.957096	0.110971	0.147474
Cu8	Cu	1.742318	0.115522	0.174405
Cu9	Cu	1.742334	0.115524	-0.174425
O10	O	1.730183	0.225617	0.147457
C11	C	1.472588	0.119200	-0.000012
C12	C	1.308822	0.116584	-0.000012
C13	C	1.753592	-0.022775	0.000006
C14	C	1.750983	-0.106813	0.000007
C15	C	1.884176	-0.154396	0.000010
C16	C	1.881716	-0.233358	-0.000006
C17	C	1.746060	-0.264737	-0.000012
C18	C	1.612857	-0.217149	-0.000021
C19	C	1.615319	-0.138188	-0.000018
C20	C	1.602925	-0.535589	-0.000035
C21	C	1.600474	-0.614556	-0.000033
C22	C	1.869322	-0.630760	-0.000023
C23	C	1.871784	-0.551799	-0.000020
C24	C	1.738581	-0.504217	-0.000038
C25	C	1.741251	-0.418597	-0.000025
C26	C	1.743390	-0.350355	-0.000013
C27	C	2.012064	0.111847	-0.000012
C28	C	2.175829	0.114463	-0.000023
C29	C	1.731059	0.253822	-0.000030
C30	C	1.733669	0.337860	-0.000042
N31	N	1.742317	0.115521	0.419754
N32	N	1.742346	0.115520	-0.419774
H33	H	1.990175	-0.272097	0.000001
H34	H	1.982248	-0.526255	-0.000006
O35	O	1.468782	-0.645127	-0.000292
C36	C	1.459329	-0.690299	-0.153079
H37	H	1.575684	-0.709159	-0.203990
H38	H	1.393951	-0.655869	-0.260063
C39	C	1.237230	-0.737511	-0.044156
C40	C	1.380141	-0.760681	-0.106677
H41	H	1.188378	-0.780924	-0.015537
H42	H	1.243595	-0.707076	0.058778
H43	H	1.182768	-0.708819	-0.133319
H44	H	1.434607	-0.789364	-0.017506
H45	H	1.373784	-0.791122	-0.209594
H46	H	1.494463	-0.496857	-0.000050
O47	O	1.481209	-0.247752	0.000051
C48	C	1.507593	-0.327649	0.000011
H49	H	1.622783	-0.345400	0.055856
H50	H	1.500529	-0.349669	-0.141498
C51	C	1.248876	-0.339396	0.047096
C52	C	1.390349	-0.361199	0.115700
H53	H	1.176551	-0.360093	0.118451
H54	H	1.231098	-0.285568	0.047116
H55	H	1.243010	-0.357748	-0.070827
H56	H	1.396219	-0.342839	0.233611
H57	H	1.408125	-0.415025	0.115702
H58	H	1.506859	-0.099446	-0.000021
H59	H	1.994642	-0.128854	0.000026
H60	H	1.977782	-0.669510	-0.000018
