data_functionalizedCrystal
_audit_creation_method	'MofGen! by Chris Wilmer'
_symmetry_space_group_name_H-M	'P1'
_symmetry_Int_Tables_number	1
_symmetry_cell_setting	triclinic
loop_
_symmetry_equiv_pos_as_xyz
  x,y,z
_cell_length_a	23.532407
_cell_length_b	22.610064
_cell_length_c	14.519709
_cell_angle_alpha	90.003132
_cell_angle_beta	96.735589
_cell_angle_gamma	90.002839
loop_
_atom_site_label
_atom_site_type_symbol
_atom_site_fract_x
_atom_site_fract_y
_atom_site_fract_z
O1	O	0.755769	0.049112	-0.111937
O2	O	1.255769	0.549112	0.388063
O3	O	0.589978	0.049130	-0.128135
O4	O	1.089978	0.549130	0.371865
O5	O	0.677269	0.049115	0.014255
O6	O	1.177269	0.549115	0.514255
O7	O	0.668478	0.049127	-0.254326
O8	O	1.168478	0.549127	0.245674
O9	O	0.677254	-0.049254	0.014234
O10	O	1.177254	0.450746	0.514234
O11	O	0.589963	-0.049240	-0.128156
O12	O	1.089963	0.450760	0.371844
O13	O	0.755753	-0.049257	-0.111958
O14	O	1.255753	0.450743	0.388042
Zn15	Zn	0.672856	-0.064867	-0.120060
Zn16	Zn	1.172856	0.435133	0.379940
Zn17	Zn	0.672876	0.064739	-0.120032
Zn18	Zn	1.172876	0.564739	0.379968
O19	O	0.668462	-0.049243	-0.254347
O20	O	1.168462	0.450757	0.245653
C21	C	0.568753	-0.000053	-0.127733
C22	C	1.068753	0.499947	0.372267
C23	C	0.505530	-0.000046	-0.126493
C24	C	1.005530	0.499954	0.373507
C25	C	0.106772	-0.000070	-0.202977
C26	C	0.606772	0.499930	0.297023
C27	C	0.047367	-0.000073	-0.201825
C28	C	0.547367	0.499927	0.298175
O29	O	0.010942	-0.000092	-0.272727
O30	O	0.510942	0.499908	0.227273
N31	N	0.024358	-0.000076	-0.117175
N32	N	0.524358	0.499924	0.382825
C33	C	0.060759	-0.000081	-0.033671
C34	C	0.560759	0.499919	0.466329
O35	O	0.035734	-0.000084	0.038437
O36	O	0.535734	0.499916	0.538437
C37	C	0.120164	-0.000082	-0.034824
C38	C	0.620164	0.499918	0.465176
C39	C	0.143168	-0.000073	-0.119480
C40	C	0.643168	0.499927	0.380520
C41	C	0.129777	-0.000062	-0.287626
C42	C	0.629777	0.499938	0.212374
C43	C	0.189179	-0.000057	-0.288778
C44	C	0.689179	0.499943	0.211222
C45	C	0.225575	-0.000060	-0.205281
C46	C	0.725575	0.499940	0.294719
C47	C	0.202570	-0.000068	-0.120631
C48	C	0.702570	0.499932	0.379369
C49	C	0.156563	-0.000091	0.048679
C50	C	0.656563	0.499909	0.548679
C51	C	0.215971	-0.000092	0.047519
C52	C	0.715971	0.499908	0.547519
C53	C	0.238976	-0.000083	-0.037137
C54	C	0.738976	0.499917	0.462863
C55	C	0.298367	-0.000067	-0.038286
C56	C	0.798367	0.499933	0.461714
N57	N	0.321375	-0.000064	-0.122936
N58	N	0.821375	0.499936	0.377064
C59	C	0.284979	-0.000061	-0.206434
C60	C	0.784979	0.499939	0.293566
C61	C	-0.063994	-0.000081	-0.031256
C62	C	0.436006	0.499919	0.468744
C63	C	-0.123397	-0.000076	-0.030102
C64	C	0.376603	0.499924	0.469898
C65	C	-0.136786	-0.000070	-0.198257
C66	C	0.363214	0.499930	0.301743
C67	C	-0.077382	-0.000070	-0.199410
C68	C	0.422618	0.499930	0.300590
C69	C	-0.040986	-0.000078	-0.115906
C70	C	0.459014	0.499922	0.384094
C71	C	0.409727	-0.000050	-0.208846
C72	C	0.909727	0.499950	0.291154
C73	C	0.469134	-0.000043	-0.209990
C74	C	0.969134	0.499957	0.290010
C75	C	0.482517	-0.000053	-0.041836
C76	C	0.982517	0.499947	0.458164
C77	C	0.423115	-0.000057	-0.040691
C78	C	0.923115	0.499943	0.459309
C79	C	0.386721	-0.000058	-0.124204
C80	C	0.886721	0.499942	0.375796
O81	O	0.334827	-0.000051	0.032579
O82	O	0.834827	0.499949	0.532579
O83	O	0.310012	-0.000065	-0.278529
O84	O	0.810012	0.499935	0.221471
N85	N	0.672846	-0.153319	-0.120078
N86	N	1.172846	0.346681	0.379922
C87	C	0.711530	-0.561967	-0.056992
C88	C	1.211530	-0.061967	0.443008
C89	C	0.711533	-0.623887	-0.056985
C90	C	1.211533	-0.123887	0.443015
O91	O	0.744399	-0.655911	-0.003361
O92	O	1.244399	-0.155911	0.496639
N93	N	0.672875	-0.654856	-0.120013
N94	N	1.172875	-0.154856	0.379987
C95	C	0.634209	-0.623902	-0.183046
C96	C	1.134209	-0.123902	0.316954
O97	O	0.601327	-0.655930	-0.236655
O98	O	1.101327	-0.155930	0.263345
C99	C	0.634203	-0.561984	-0.183048
C100	C	1.134203	-0.061984	0.316952
C101	C	0.672867	-0.531018	-0.120022
C102	C	1.172867	-0.031018	0.379978
C103	C	0.750190	-0.531001	0.006030
C104	C	1.250190	-0.031001	0.506030
C105	C	0.750188	-0.469085	0.006021
C106	C	1.250188	0.030915	0.506021
C107	C	0.711525	-0.438136	-0.057008
C108	C	1.211525	0.061864	0.442992
C109	C	0.672865	-0.469102	-0.120030
C110	C	1.172865	0.030898	0.379970
C111	C	0.595534	-0.531031	-0.246075
C112	C	1.095534	-0.031031	0.253925
C113	C	0.595532	-0.469108	-0.246071
C114	C	1.095532	0.030892	0.253929
C115	C	0.634196	-0.438142	-0.183045
C116	C	1.134196	0.061858	0.316955
C117	C	0.634200	-0.376237	-0.183067
C118	C	1.134200	0.123763	0.316933
N119	N	0.672857	-0.345267	-0.120039
N120	N	1.172857	0.154733	0.379961
C121	C	0.711520	-0.376217	-0.057010
C122	C	1.211520	0.123783	0.442990
C123	C	0.634222	-0.753936	-0.183037
C124	C	1.134222	-0.253936	0.316963
C125	C	0.634229	-0.815854	-0.183040
C126	C	1.134229	-0.315854	0.316960
C127	C	0.711553	-0.815834	-0.056978
C128	C	1.211553	-0.315834	0.443022
C129	C	0.711548	-0.753915	-0.056980
C130	C	1.211548	-0.253915	0.443020
C131	C	0.672879	-0.722967	-0.120009
C132	C	1.172879	-0.222967	0.379991
C133	C	0.711513	-0.246190	-0.057032
C134	C	1.211513	0.253810	0.442968
C135	C	0.711508	-0.184268	-0.057048
C136	C	1.211508	0.315732	0.442952
C137	C	0.634183	-0.184294	-0.183107
C138	C	1.134183	0.315706	0.316893
C139	C	0.634189	-0.246209	-0.183094
C140	C	1.134189	0.253791	0.316906
C141	C	0.672856	-0.277156	-0.120049
C142	C	1.172856	0.222844	0.379951
O143	O	0.601349	-0.344173	-0.236662
O144	O	1.101349	0.155827	0.263338
O145	O	0.744391	-0.344182	-0.003402
O146	O	1.244391	0.155818	0.496598
C147	C	0.776979	-0.000073	-0.112360
C148	C	1.276979	0.499927	0.387640
C149	C	0.840201	-0.000076	-0.113600
C150	C	1.340201	0.499924	0.386400
C151	C	0.676852	-0.000070	0.048599
C152	C	1.176852	0.499930	0.548599
C153	C	0.675624	-0.000070	0.150966
C154	C	1.175624	0.499930	0.650966
N155	N	0.672890	0.153191	-0.120007
N156	N	1.172890	0.653191	0.379993
C157	C	0.668880	-0.000057	-0.288692
C158	C	1.168880	0.499943	0.211308
C159	C	0.670107	-0.000053	-0.391058
C160	C	1.170107	0.499947	0.108942
C161	C	0.671104	-0.000054	0.525808
C162	C	1.171104	0.499946	1.025808
C163	C	0.672359	-0.000059	0.421515
C164	C	1.172359	0.499941	0.921515
C165	C	0.673364	-0.000062	0.338390
C166	C	1.173364	0.499938	0.838390
C167	C	0.674619	-0.000066	0.234091
C168	C	1.174619	0.499934	0.734091
H169	H	-0.058656	-0.000066	-0.268344
H170	H	0.441344	0.499934	0.231656
O171	O	0.553838	-0.564431	-0.314051
O172	O	1.053838	-0.064431	0.185949
H173	H	0.577861	-0.592635	-0.358676
H174	H	1.077861	-0.092635	0.141324
O175	O	0.213982	-0.000065	-0.380090
O176	O	0.713982	0.499935	0.119910
H177	H	0.199365	0.040024	-0.420188
H178	H	0.699365	0.540024	0.079812
H179	H	0.100149	-0.000061	-0.355624
H180	H	0.600149	0.499939	0.144376
H181	H	0.512162	-0.000053	0.026146
H182	H	1.012162	0.499947	0.526146
H183	H	0.742998	-0.271379	-0.005694
H184	H	1.242998	0.228621	0.494306
O185	O	-0.176049	-0.000078	-0.288318
O186	O	0.323951	0.499922	0.211682
H187	H	-0.203439	0.040010	-0.291806
H188	H	0.296561	0.540010	0.208194
O189	O	-0.148204	-0.000085	0.061208
O190	O	0.351796	0.499915	0.561208
H191	H	-0.133586	0.040004	0.101316
H192	H	0.366414	0.540004	0.601316
O193	O	0.493947	-0.000034	-0.301301
O194	O	0.993947	0.499966	0.198699
H195	H	0.520695	-0.040124	-0.305852
H196	H	1.020695	0.459876	0.194148
O197	O	0.592542	-0.849243	-0.251051
O198	O	1.092542	-0.349243	0.248949
H199	H	0.548133	-0.837365	-0.239679
H200	H	1.048133	-0.337365	0.260321
O201	O	0.791882	-0.435692	0.074015
O202	O	1.291882	0.064308	0.574015
H203	H	0.836288	-0.447577	0.062641
H204	H	1.336288	0.052423	0.562641
H205	H	-0.034363	-0.000082	0.036747
H206	H	0.465637	0.499918	0.536747
O207	O	0.753208	-0.150868	0.010938
O208	O	1.253208	0.349132	0.510938
H209	H	0.780086	-0.182795	0.054774
H210	H	1.280086	0.317205	0.554774
O211	O	0.370476	-0.000046	-0.298917
O212	O	0.870476	0.499954	0.201083
H213	H	0.396462	-0.000034	-0.357965
H214	H	0.896462	0.499966	0.142035
H215	H	0.602711	-0.271423	-0.234425
H216	H	1.102711	0.228577	0.265575
O217	O	0.592483	-0.150896	-0.251072
O218	O	1.092483	0.349104	0.248928
H219	H	0.599803	-0.162768	-0.322914
H220	H	1.099803	0.337232	0.177086
H221	H	0.602735	-0.728741	-0.234370
H222	H	1.102735	-0.228741	0.265630
H223	H	0.781674	-0.556194	0.057360
H224	H	1.281674	-0.056194	0.557360
O225	O	0.131759	-0.000113	0.139987
O226	O	0.631759	0.499887	0.639987
H227	H	0.167056	-0.000126	0.197844
H228	H	0.667056	0.499874	0.697844
H229	H	0.245602	-0.000099	0.115519
H230	H	0.745602	0.499901	0.615519
O231	O	0.753234	-0.720515	0.011018
O232	O	1.253234	-0.220515	0.511018
H233	H	0.780954	-0.692298	-0.027559
H234	H	1.280954	-0.192298	0.472441
O235	O	0.398297	-0.000064	0.050613
O236	O	0.898297	0.499936	0.550613
H237	H	0.433588	-0.000068	0.108479
H238	H	0.933588	0.499932	0.608479
O239	O	0.553828	-0.435727	-0.314058
O240	O	1.053828	0.064273	0.185942
H241	H	0.526950	-0.467666	-0.357884
H242	H	1.026950	0.032334	0.142116
H243	H	0.743033	-0.841044	-0.005655
H244	H	1.243033	-0.341044	0.494345
