data_functionalizedCrystal
_audit_creation_method	'MofGen! by Chris Wilmer'
_symmetry_space_group_name_H-M	'P1'
_symmetry_Int_Tables_number	1
_symmetry_cell_setting	triclinic
loop_
_symmetry_equiv_pos_as_xyz
  x,y,z
_cell_length_a	12.645331
_cell_length_b	12.645330
_cell_length_c	10.686551
_cell_angle_alpha	94.404096
_cell_angle_beta	94.390409
_cell_angle_gamma	90.016927
loop_
_atom_site_label
_atom_site_type_symbol
_atom_site_fract_x
_atom_site_fract_y
_atom_site_fract_z
Zn1	Zn	1.666726	-0.376010	0.713295
Zn2	Zn	1.653002	-0.566917	0.502300
Zn3	Zn	1.475837	-0.389664	0.502331
Zn4	Zn	1.489421	-0.553231	0.713268
O5	O	1.571247	-0.471455	0.607799
O6	O	1.813253	-0.401347	0.685305
O7	O	1.618073	-0.554846	0.325725
O8	O	1.501218	-0.239504	0.530340
O9	O	1.803170	-0.541606	0.530288
O10	O	1.641463	-0.229472	0.685335
O11	O	1.487910	-0.424619	0.325747
O12	O	1.329292	-0.411348	0.530314
O13	O	1.524369	-0.518280	0.889851
O14	O	1.339272	-0.531520	0.685288
O15	O	1.654634	-0.388076	0.889871
O16	O	1.631244	-0.713451	0.530261
O17	O	1.511061	-0.703395	0.685258
C18	C	1.295817	-0.471431	0.607802
C19	C	1.177989	-0.471445	0.607833
C20	C	1.571168	-0.746886	0.607781
C21	C	1.571234	-0.864714	0.607816
C22	C	1.016706	-0.547527	0.704819
C23	C	1.139292	-0.547235	0.705225
C24	C	1.135854	-0.357445	0.644163
C25	C	1.013300	-0.357903	0.644846
C26	C	1.002127	-0.508483	0.474209
C27	C	1.124780	-0.510878	0.474930
C28	C	1.495984	-1.025977	0.705625
C29	C	1.495547	-0.903438	0.705310
C30	C	1.532414	-0.917892	0.474836
C31	C	1.531954	-1.040452	0.475429
C32	C	1.685734	-1.029604	0.641908
C33	C	1.685233	-0.906810	0.644816
C34	C	1.847752	-0.471480	0.607796
C35	C	1.965582	-0.471491	0.607795
C36	C	1.592548	-0.450128	0.936927
C37	C	1.601625	-0.441040	1.077181
C38	C	1.571356	-0.194947	0.607844
C39	C	1.571403	-0.077116	0.607863
C40	C	1.550089	-0.492623	0.279951
C41	C	1.541218	-0.501413	0.139697
H42	H	1.167896	-0.631503	0.682456
H43	H	1.660295	-0.382400	1.130964
N44	N	1.158791	-0.443745	0.374022
H45	H	1.195309	-0.489811	0.309166
H46	H	1.209366	-0.386565	0.413297
H47	H	0.985762	-0.632053	0.682301
N48	N	1.463493	-0.579073	1.068471
H49	H	1.424467	-0.618066	1.130112
H50	H	1.503114	-0.631645	1.013771
N51	N	1.168605	-0.279864	0.553491
H52	H	1.213292	-0.221476	0.600954
H53	H	1.103247	-0.248256	0.510954
H54	H	0.992260	-0.522643	0.803225
H55	H	1.449403	-0.889175	0.445472
H56	H	1.175024	-0.522071	0.804206
N57	N	1.529258	-1.056484	0.836668
H58	H	1.469246	-1.095720	0.870294
H59	H	1.547294	-0.990379	0.893472
N60	N	0.983776	-0.317581	0.774162
H61	H	1.050338	-0.299688	0.830192
H62	H	0.942305	-0.374129	0.811390
N63	N	1.184785	-0.316719	0.772121
H64	H	1.264466	-0.313684	0.770344
H65	H	1.165420	-0.365901	0.837025
H66	H	0.979271	-0.298739	0.577419
H67	H	0.969076	-0.590645	0.441188
N68	N	1.730439	-1.062336	0.768149
H69	H	1.803820	-1.031001	0.788129
H70	H	1.734464	-1.142237	0.765402
H71	H	1.410960	-0.875658	0.682757
N72	N	1.161038	-0.622013	0.438567
H73	H	1.211711	-0.646728	0.507891
H74	H	1.198064	-0.622384	0.358084
N75	N	1.760302	-1.074094	0.547596
H76	H	1.819783	-1.113070	0.592487
H77	H	1.790718	-1.014196	0.504012
N78	N	0.957521	-0.435267	0.378444
H79	H	0.913850	-0.378411	0.421309
H80	H	0.911256	-0.477296	0.311045
N81	N	1.723817	-0.859833	0.774447
H82	H	1.667696	-0.811482	0.809072
H83	H	1.791074	-0.817891	0.769013
H84	H	1.411936	-1.058314	0.683359
H85	H	1.520829	-0.866919	0.803914
H86	H	1.448123	-1.071004	0.446587
N87	N	1.600936	-1.086189	0.375657
H88	H	1.631503	-1.026719	0.331481
H89	H	1.556872	-1.134620	0.312484
N90	N	1.602360	-0.885676	0.375705
H91	H	1.660022	-0.836180	0.416142
H92	H	1.558253	-0.848442	0.309782
N93	N	1.764492	-0.871853	0.557365
H94	H	1.742308	-0.900269	0.468309
H95	H	1.836899	-0.900053	0.583532
