data_functionalizedCrystal
_audit_creation_method	'MofGen! by Chris Wilmer'
_symmetry_space_group_name_H-M	'P1'
_symmetry_Int_Tables_number	1
_symmetry_cell_setting	triclinic
loop_
_symmetry_equiv_pos_as_xyz
  x,y,z
_cell_length_a	17.038272
_cell_length_b	13.448316
_cell_length_c	14.971486
_cell_angle_alpha	89.993189
_cell_angle_beta	87.362843
_cell_angle_gamma	89.999047
loop_
_atom_site_label
_atom_site_type_symbol
_atom_site_fract_x
_atom_site_fract_y
_atom_site_fract_z
O1	O	1.037595	-0.082569	0.194251
O2	O	1.537595	0.417431	0.694251
O3	O	0.809961	-0.082598	0.191166
O4	O	1.309961	0.417402	0.691166
O5	O	0.929879	-0.082575	0.062965
O6	O	1.429879	0.417425	0.562965
O7	O	0.917677	-0.082591	0.322452
O8	O	1.417677	0.417409	0.822452
O9	O	0.929864	0.082808	0.062955
O10	O	1.429864	0.582808	0.562955
O11	O	0.809946	0.082786	0.191157
O12	O	1.309946	0.582786	0.691157
O13	O	1.037580	0.082815	0.194241
O14	O	1.537580	0.582815	0.694241
Cu15	Cu	0.923762	0.097901	0.192698
Cu16	Cu	1.423762	0.597901	0.692698
Cu17	Cu	0.923779	-0.097684	0.192709
Cu18	Cu	1.423779	0.402316	0.692709
O19	O	0.917662	0.082793	0.322442
O20	O	1.417662	0.582793	0.822442
C21	C	0.780822	0.000090	0.188356
C22	C	1.280822	0.500090	0.688356
C23	C	0.694019	0.000079	0.179986
C24	C	1.194019	0.500079	0.679986
N25	N	0.923755	0.235466	0.192690
N26	N	1.423755	0.735466	0.692690
N27	N	0.923793	-0.235248	0.192711
N28	N	1.423793	0.264752	0.692711
C29	C	0.643995	0.000076	0.256830
C30	C	1.143995	0.500076	0.756830
C31	C	0.562435	0.000090	0.248961
C32	C	1.062435	0.500090	0.748961
C33	C	0.530901	0.000101	0.164246
C34	C	1.030901	0.500101	0.664246
C35	C	0.580933	0.000108	0.087397
C36	C	1.080933	0.500108	0.587397
C37	C	0.662491	0.000101	0.095267
C38	C	1.162491	0.500101	0.595267
C39	C	0.285111	0.000129	0.136442
C40	C	0.785111	0.500129	0.636442
C41	C	0.203547	0.000133	0.128577
C42	C	0.703547	0.500133	0.628577
C43	C	0.185054	0.000117	0.290142
C44	C	0.685054	0.500117	0.790142
C45	C	0.266615	0.000104	0.298005
C46	C	0.766615	0.500104	0.798005
C47	C	0.316639	0.000116	0.221155
C48	C	0.816639	0.500116	0.721155
C49	C	0.447535	0.000112	0.156200
C50	C	0.947535	0.500112	0.656200
C51	C	0.400004	0.000112	0.229202
C52	C	0.900004	0.500112	0.729202
C53	C	1.066719	0.000125	0.197051
C54	C	1.566719	0.500125	0.697051
C55	C	1.153522	0.000129	0.205421
C56	C	1.653522	0.500129	0.705421
C57	C	0.929326	0.000116	0.029595
C58	C	1.429326	0.500116	0.529595
C59	C	0.927691	0.000115	-0.069825
C60	C	1.427691	0.500115	0.430175
C61	C	0.976871	0.287516	0.135949
C62	C	1.476871	0.787516	0.635949
C63	C	0.976876	0.391619	0.135948
C64	C	1.476876	0.891619	0.635948
C65	C	0.923768	0.443670	0.192694
C66	C	1.423768	0.943670	0.692694
C67	C	0.870646	0.391613	0.249438
C68	C	1.370646	0.891613	0.749438
C69	C	0.870638	0.287511	0.249433
C70	C	1.370638	0.787511	0.749433
C71	C	0.870667	0.608593	0.249446
C72	C	1.370667	1.108593	0.749446
C73	C	0.870676	0.712701	0.249452
C74	C	1.370676	1.212701	0.749452
C75	C	0.976906	0.712701	0.135961
C76	C	1.476906	1.212701	0.635961
C77	C	0.976898	0.608599	0.135956
C78	C	1.476898	1.108599	0.635956
C79	C	0.923777	0.556549	0.192701
C80	C	1.423777	1.056549	0.692701
C81	C	0.998140	0.000125	-0.121776
C82	C	1.498140	0.500125	0.378224
C83	C	0.996598	0.000115	-0.215190
C84	C	1.496598	0.500115	0.284810
C85	C	0.924607	0.000102	-0.256653
C86	C	1.424607	0.500102	0.243347
C87	C	0.854153	0.000089	-0.204695
C88	C	1.354153	0.500089	0.295305
C89	C	0.855695	0.000092	-0.111282
C90	C	1.355695	0.500092	0.388718
C91	C	0.850944	0.000085	-0.399398
C92	C	1.350944	0.500085	0.100602
C93	C	0.849402	0.000084	-0.492817
C94	C	1.349402	0.500084	0.007183
C95	C	0.991847	0.000108	-0.503306
C96	C	1.491847	0.500108	-0.003306
C97	C	0.993389	0.000111	-0.409893
C98	C	1.493389	0.500111	0.090107
C99	C	0.922935	0.000100	-0.357942
C100	C	1.422935	0.500100	0.142058
C101	C	0.918215	0.000099	0.355812
C102	C	1.418215	0.500099	0.855812
C103	C	0.919850	0.000094	0.455232
C104	C	1.419850	0.500094	0.955232
H105	H	0.669662	0.000066	0.325813
H106	H	1.169662	0.500066	0.825813
H107	H	0.325831	0.000140	0.073865
H108	H	0.825831	0.500140	0.573865
F109	F	0.131810	0.000106	0.371924
F110	F	0.631810	0.500106	0.871924
H111	H	0.827408	0.566217	0.295650
H112	H	1.327408	1.066217	0.795650
H113	H	0.177876	0.000141	0.059589
H114	H	0.677876	0.500141	0.559589
F115	F	1.033442	0.768101	0.075570
F116	F	1.533442	1.268101	0.575570
F117	F	0.509198	0.000081	0.330749
F118	F	1.009198	0.500081	0.830749
H119	H	0.421851	0.000149	0.087226
H120	H	0.921851	0.500149	0.587226
F121	F	1.033401	0.232129	0.075555
F122	F	1.533401	0.732129	0.575555
H123	H	1.020146	0.566220	0.089754
H124	H	1.520146	1.066220	0.589754
H125	H	1.056763	0.000141	-0.088024
H126	H	1.556763	0.500141	0.411976
F127	F	0.814119	0.447010	0.309828
F128	F	1.314119	0.947010	0.809828
F129	F	1.033407	0.447015	0.075557
F130	F	1.533407	0.947015	0.575557
F131	F	0.814101	0.232117	0.309822
F132	F	1.314101	0.732117	0.809822
H133	H	0.827429	0.755076	0.295659
H134	H	1.327429	1.255076	0.795659
H135	H	1.049214	0.000113	-0.545610
H136	H	1.549214	0.500113	-0.045610
F137	F	1.071580	0.000127	-0.270477
F138	F	1.571580	0.500127	0.229523
H139	H	0.793572	0.000074	-0.357101
H140	H	1.293572	0.500074	0.142899
F141	F	1.070010	0.000122	-0.365768
F142	F	1.570010	0.500122	0.134232
H143	H	0.292283	0.000084	0.366988
H144	H	0.792283	0.500084	0.866988
F145	F	0.780714	0.000079	-0.055992
F146	F	1.280714	0.500079	0.444008
H147	H	0.790780	0.000089	-0.526573
H148	H	1.290780	0.500089	-0.026573
F149	F	0.547370	0.000126	-0.002763
F150	F	1.047370	0.500126	0.497237
H151	H	0.425682	0.000108	0.298176
H152	H	0.925682	0.500108	0.798176
H153	H	0.703221	0.000103	0.032692
H154	H	1.203221	0.500103	0.532692
F155	F	0.777535	0.000064	-0.248825
F156	F	1.277535	0.500064	0.251175
