data_functionalizedCrystal
_audit_creation_method	'MofGen! by Chris Wilmer'
_symmetry_space_group_name_H-M	'P1'
_symmetry_Int_Tables_number	1
_symmetry_cell_setting	triclinic
loop_
_symmetry_equiv_pos_as_xyz
  x,y,z
_cell_length_a	17.699104
_cell_length_b	12.811415
_cell_length_c	16.776229
_cell_angle_alpha	84.562504
_cell_angle_beta	89.991971
_cell_angle_gamma	83.669063
loop_
_atom_site_label
_atom_site_type_symbol
_atom_site_fract_x
_atom_site_fract_y
_atom_site_fract_z
O1	O	1.004664	0.132836	-0.075905
O2	O	1.504664	0.632836	0.424095
O3	O	0.784365	0.150082	-0.077150
O4	O	1.284365	0.650082	0.422850
O5	O	0.900056	-0.011348	-0.065478
O6	O	1.400056	0.488652	0.434522
O7	O	0.888973	0.294266	-0.087577
O8	O	1.388973	0.794266	0.412423
O9	O	0.900040	-0.011357	0.067099
O10	O	1.400040	0.488643	0.567099
O11	O	0.784349	0.150072	0.055427
O12	O	1.284349	0.650072	0.555427
O13	O	1.004648	0.132826	0.056672
O14	O	1.504648	0.632826	0.556672
Zn15	Zn	0.894496	0.141448	0.077099
Zn16	Zn	1.394496	0.641448	0.577099
Zn17	Zn	0.894517	0.141461	-0.097577
Zn18	Zn	1.394517	0.641461	0.402423
O19	O	0.888957	0.294256	0.045000
O20	O	1.388957	0.794256	0.545000
C21	C	0.756158	0.149455	-0.010816
C22	C	1.256158	0.649455	0.489184
C23	C	0.672132	0.147590	-0.010680
C24	C	1.172132	0.647590	0.489320
C25	C	0.147638	0.231828	-0.016780
C26	C	0.647638	0.731828	0.483220
C27	C	0.226590	0.233574	-0.016909
C28	C	0.726590	0.733574	0.483091
C29	C	0.274783	0.138809	-0.010056
C30	C	0.774783	0.638809	0.489944
C31	C	0.244021	0.042291	-0.003082
C32	C	0.744021	0.542291	0.496918
C33	C	0.165070	0.040546	-0.002959
C34	C	0.665070	0.540546	0.497041
C35	C	0.562418	0.049326	-0.003578
C36	C	1.062418	0.549326	0.496422
C37	C	0.641373	0.051079	-0.003699
C38	C	1.141373	0.551079	0.496301
C39	C	0.623938	0.242354	-0.017527
C40	C	1.123938	0.742354	0.482473
C41	C	0.544988	0.240610	-0.017405
C42	C	1.044988	0.740610	0.482595
C43	C	0.514232	0.144093	-0.010435
C44	C	1.014232	0.644093	0.489565
C45	C	0.428624	0.142200	-0.010297
C46	C	0.928624	0.642200	0.489703
C47	C	0.360390	0.140700	-0.010188
C48	C	0.860390	0.640700	0.489812
C49	C	0.899427	-0.050455	0.003636
C50	C	1.399427	0.449545	0.503636
C51	C	0.897566	-0.166969	0.012057
C52	C	1.397566	0.333031	0.512057
C53	C	0.894073	-0.385889	-0.116673
C54	C	1.394073	0.114111	0.383327
C55	C	0.892325	-0.495365	-0.108765
C56	C	1.392325	0.004635	0.391235
C57	C	0.892316	-0.495396	0.035779
C58	C	1.392316	0.004604	0.535779
C59	C	0.894064	-0.385921	0.027871
C60	C	1.394064	0.114079	0.527871
C61	C	0.894944	-0.331172	-0.048357
C62	C	1.394944	0.168828	0.451643
C63	C	0.896697	-0.221695	-0.056264
C64	C	1.396697	0.278305	0.443736
C65	C	0.896683	-0.221728	0.088280
C66	C	1.396683	0.278272	0.588280
C67	C	0.894935	-0.331203	0.096187
C68	C	1.394935	0.168797	0.596187
C69	C	1.032856	0.133453	-0.009664
C70	C	1.532856	0.633453	0.490336
C71	C	1.116881	0.135318	-0.009805
C72	C	1.616881	0.635318	0.490195
C73	C	0.889586	0.333364	-0.024116
C74	C	1.389586	0.833364	0.475884
C75	C	0.891447	0.449878	-0.032542
C76	C	1.391447	0.949878	0.467458
N77	N	0.894488	0.141438	0.196311
N78	N	1.394488	0.641438	0.696311
N79	N	0.894531	0.141462	-0.216788
N80	N	1.394531	0.641462	0.283212
C81	C	0.945732	0.069986	0.243194
C82	C	1.445732	0.569986	0.743194
C83	C	0.945736	0.069985	0.326647
C84	C	1.445736	0.569985	0.826647
C85	C	0.894499	0.141442	0.363214
C86	C	1.394499	0.641442	0.863214
C87	C	0.843250	0.212897	0.316324
C88	C	1.343250	0.712897	0.816324
C89	C	0.843243	0.212892	0.232874
C90	C	1.343243	0.712892	0.732874
C91	C	0.843278	0.212918	0.652870
C92	C	1.343278	0.712918	1.152870
C93	C	0.843290	0.212919	0.736326
C94	C	1.343290	0.712919	1.236326
C95	C	0.945771	0.070011	0.746643
C96	C	1.445771	0.570011	1.246643
C97	C	0.945763	0.070006	0.663192
C98	C	1.445763	0.570006	1.163192
C99	C	0.894512	0.141457	0.616311
C100	C	1.394512	0.641457	1.116311
C101	C	0.894507	0.141456	0.525822
C102	C	1.394507	0.641456	1.025822
C103	C	0.894507	0.141449	0.453700
C104	C	1.394507	0.641449	0.953700
H105	H	0.505752	0.317777	-0.022981
H106	H	1.005752	0.817777	0.477019
O107	O	0.688221	-0.040954	0.003090
O108	O	1.188221	0.459046	0.503090
C109	C	0.734412	-0.045669	0.072085
C110	C	1.234412	0.454331	0.572085
H111	H	0.705663	0.008063	0.116196
H112	H	1.205663	0.508063	0.616196
H113	H	0.743017	-0.130243	0.101240
H114	H	1.243017	0.369757	0.601240
H115	H	0.791906	-0.018640	0.054614
H116	H	1.291906	0.481360	0.554614
H117	H	0.894796	-0.341313	-0.178741
H118	H	1.394796	0.158687	0.321259
H119	H	0.648988	0.320944	-0.023206
H120	H	1.148988	0.820944	0.476794
O121	O	0.995596	0.000549	0.372067
O122	O	1.495596	0.500549	0.872067
C123	C	1.040811	-0.062528	0.321898
C124	C	1.540811	0.437472	0.821898
H125	H	1.041783	-0.019500	0.259295
H126	H	1.541783	0.480500	0.759295
H127	H	1.101205	-0.078617	0.347156
H128	H	1.601205	0.421383	0.847156
H129	H	1.016007	-0.140472	0.318676
H130	H	1.516007	0.359528	0.818676
H131	H	0.537387	-0.029263	0.002099
H132	H	1.037387	0.470737	0.502099
O133	O	0.256494	0.327305	-0.023839
O134	O	0.756494	0.827305	0.476161
C135	C	0.301652	0.334027	-0.092987
C136	C	0.801652	0.834027	0.407013
H137	H	0.282815	0.279209	-0.137001
H138	H	0.782815	0.779209	0.362999
H139	H	0.294824	0.418629	-0.122168
H140	H	0.794824	0.918629	0.377832
H141	H	0.363831	0.309679	-0.075710
H142	H	0.863831	0.809679	0.424290
O143	O	0.897430	-0.168676	0.154707
O144	O	1.397430	0.331324	0.654707
C145	C	0.831525	-0.183362	0.199736
C146	C	1.331525	0.316638	0.699736
H147	H	0.808421	-0.258821	0.184637
H148	H	1.308421	0.241179	0.684637
H149	H	0.846193	-0.189842	0.266315
H150	H	1.346193	0.310158	0.766315
H151	H	0.786669	-0.113303	0.184669
H152	H	1.286669	0.386697	0.684669
O153	O	0.100796	0.323857	-0.023295
O154	O	0.600796	0.823857	0.476705
C155	C	0.054581	0.328560	0.045015
C156	C	0.554581	0.828560	0.545015
H157	H	0.083309	0.274811	0.096896
H158	H	0.583309	0.774811	0.596896
H159	H	0.045975	0.413128	0.061945
H160	H	0.545975	0.913128	0.561945
H161	H	-0.002911	0.301546	0.031442
H162	H	0.497089	0.801546	0.531442
H163	H	0.897416	-0.177120	-0.118333
H164	H	1.397416	0.322880	0.381667
O165	O	0.290941	-0.049668	0.003603
O166	O	0.790941	0.450332	0.503603
C167	C	0.367221	-0.027436	0.001981
C168	C	0.867221	0.472564	0.501981
H169	H	0.370509	0.054995	0.021121
H170	H	0.870509	0.554995	0.521121
H171	H	0.402784	-0.087856	0.044843
H172	H	0.902784	0.412144	0.544843
H173	H	0.390051	-0.031469	-0.061329
H174	H	0.890051	0.468531	0.438671
O175	O	0.995549	0.000695	0.207614
O176	O	1.495549	0.500695	0.707614
C177	C	1.042402	0.056785	0.155229
C178	C	1.542402	0.556785	0.655229
H179	H	1.043991	0.139552	0.174383
H180	H	1.543991	0.639552	0.674383
H181	H	1.102407	0.013813	0.157346
H182	H	1.602407	0.513813	0.657346
H183	H	1.018698	0.062345	0.091599
H184	H	1.518698	0.562345	0.591599
O185	O	0.135316	-0.053296	0.003859
O186	O	0.635316	0.446704	0.503859
C187	C	0.194780	-0.136565	0.009861
C188	C	0.694780	0.363435	0.509861
H189	H	0.248498	-0.107288	0.032850
H190	H	0.748498	0.392712	0.532850
H191	H	0.178056	-0.203966	0.053220
H192	H	0.678056	0.296034	0.553220
H193	H	0.205868	-0.165777	-0.051631
H194	H	0.705868	0.334223	0.448369
O195	O	0.891507	-0.548361	-0.175210
O196	O	1.391507	-0.048361	0.324790
C197	C	0.892632	-0.476552	-0.244183
C198	C	1.392632	0.023448	0.255817
H199	H	0.917818	-0.402928	-0.228320
H200	H	1.417818	0.097072	0.271680
H201	H	0.928819	-0.514927	-0.291966
H202	H	1.428819	-0.014927	0.208034
H203	H	0.832170	-0.453736	-0.268036
H204	H	1.332170	0.046264	0.231964
H205	H	0.894216	-0.375795	0.158250
H206	H	1.394216	0.124205	0.658250
O207	O	0.995373	0.000396	0.627664
O208	O	1.495373	0.500396	1.127664
C209	C	0.954530	-0.064292	0.584198
C210	C	1.454530	0.435708	1.084198
H211	H	0.895495	-0.022250	0.568605
H212	H	1.395495	0.477750	1.068605
H213	H	0.986054	-0.081198	0.526756
H214	H	1.486054	0.418802	1.026756
H215	H	0.949016	-0.141737	0.622082
H216	H	1.449016	0.358263	1.122082
O217	O	0.891370	-0.548700	0.109773
O218	O	1.391370	-0.048700	0.609773
C219	C	0.824885	-0.599968	0.117818
C220	C	1.324885	-0.099968	0.617818
H221	H	0.802786	-0.612314	0.055967
H222	H	1.302786	-0.112314	0.555967
H223	H	0.838390	-0.679680	0.154141
H224	H	1.338390	-0.179680	0.654141
H225	H	0.779719	-0.549369	0.149852
H226	H	1.279719	-0.049369	0.649852
O227	O	0.995480	0.000633	0.792306
O228	O	1.495480	0.500633	1.292306
C229	C	0.984514	0.015968	0.873803
C230	C	1.484514	0.515968	1.373803
H231	H	0.924467	0.055291	0.882371
H232	H	1.424467	0.555291	1.382371
H233	H	0.992693	-0.063534	0.911269
H234	H	1.492693	0.436466	1.411269
H235	H	1.027515	0.068545	0.893668
H236	H	1.527515	0.568545	1.393668
H237	H	0.801565	0.271110	0.766097
H238	H	1.301565	0.771110	1.266097
O239	O	0.793495	0.282202	0.187212
O240	O	1.293495	0.782202	0.687212
C241	C	0.804486	0.266893	0.105715
C242	C	1.304486	0.766893	0.605715
H243	H	0.832512	0.183397	0.100357
H244	H	1.332512	0.683397	0.600357
H245	H	0.747206	0.278660	0.073162
H246	H	1.247206	0.778660	0.573162
H247	H	0.842626	0.326240	0.077726
H248	H	1.342626	0.826240	0.577726
H249	H	0.801529	0.271075	0.346102
H250	H	1.301529	0.771075	0.846102
O251	O	0.793470	0.282429	0.607452
O252	O	1.293470	0.782429	1.107452
C253	C	0.748241	0.345482	0.657626
C254	C	1.248241	0.845482	1.157626
H255	H	0.779283	0.346617	0.717020
H256	H	1.279283	0.846617	1.217020
H257	H	0.736952	0.429323	0.627450
H258	H	1.236952	0.929323	1.127450
H259	H	0.691916	0.311492	0.668981
H260	H	1.191916	0.811492	1.168981
