data_functionalizedCrystal
_audit_creation_method	'MofGen! by Chris Wilmer'
_symmetry_space_group_name_H-M	'P1'
_symmetry_Int_Tables_number	1
_symmetry_cell_setting	triclinic
loop_
_symmetry_equiv_pos_as_xyz
  x,y,z
_cell_length_a	12.811457
_cell_length_b	12.837942
_cell_length_c	14.586319
_cell_angle_alpha	89.999397
_cell_angle_beta	84.573922
_cell_angle_gamma	89.411937
loop_
_atom_site_label
_atom_site_type_symbol
_atom_site_fract_x
_atom_site_fract_y
_atom_site_fract_z
O1	O	1.406627	0.139677	-0.040714
O2	O	1.906627	0.639677	0.459286
O3	O	1.102566	0.154866	-0.015431
O4	O	1.602566	0.654866	0.484569
O5	O	1.247854	-0.003660	-0.027517
O6	O	1.747854	0.496340	0.472483
O7	O	1.261339	0.298204	-0.028627
O8	O	1.761339	0.798204	0.471373
O9	O	1.247835	-0.003651	-0.179996
O10	O	1.747835	0.496349	0.320004
O11	O	1.102547	0.154875	-0.167910
O12	O	1.602547	0.654875	0.332090
O13	O	1.406608	0.139687	-0.193193
O14	O	1.906608	0.639687	0.306807
Cu15	Cu	1.254576	0.147282	-0.194474
Cu16	Cu	1.754576	0.647282	0.305526
Cu17	Cu	1.254598	0.147271	-0.014150
Cu18	Cu	1.754598	0.647271	0.485850
O19	O	1.261320	0.298213	-0.181106
O20	O	1.761320	0.798213	0.318894
C21	C	1.063368	0.154020	-0.088412
C22	C	1.563368	0.654020	0.411588
C23	C	0.946597	0.151471	-0.078702
C24	C	1.446597	0.651471	0.421298
C25	C	0.727150	0.146672	-0.226709
C26	C	1.227150	0.646672	0.273291
C27	C	0.617433	0.144277	-0.217590
C28	C	1.117433	0.644277	0.282410
C29	C	0.617445	0.144278	-0.051348
C30	C	1.117445	0.644278	0.448652
C31	C	0.727162	0.146673	-0.060467
C32	C	1.227162	0.646673	0.439533
C33	C	0.782010	0.147872	-0.148150
C34	C	1.282010	0.647872	0.351850
C35	C	0.891729	0.150274	-0.157267
C36	C	1.391729	0.650274	0.342733
C37	C	0.891739	0.150268	0.008974
C38	C	1.391739	0.650268	0.508974
C39	C	0.782022	0.147873	0.018092
C40	C	1.282022	0.647873	0.518092
C41	C	1.243289	-0.042296	-0.103378
C42	C	1.743289	0.457704	0.396622
C43	C	1.229704	-0.157431	-0.102246
C44	C	1.729704	0.342569	0.397754
C45	C	1.393031	-0.397685	-0.115808
C46	C	1.893031	0.102315	0.384192
C47	C	1.380271	-0.505866	-0.114745
C48	C	1.880271	-0.005866	0.385255
C49	C	1.191424	-0.481976	-0.099052
C50	C	1.691424	0.018024	0.400948
C51	C	1.204184	-0.373795	-0.100115
C52	C	1.704184	0.126205	0.399885
C53	C	1.304991	-0.331654	-0.108494
C54	C	1.804991	0.168346	0.391506
C55	C	1.317750	-0.223471	-0.109563
C56	C	1.817750	0.276529	0.390437
C57	C	1.128904	-0.199583	-0.093864
C58	C	1.628904	0.300417	0.406136
C59	C	1.116144	-0.307764	-0.092801
C60	C	1.616144	0.192236	0.407199
C61	C	1.445806	0.140533	-0.120210
C62	C	1.945806	0.640533	0.379790
C63	C	1.562577	0.143082	-0.129913
C64	C	2.062577	0.643082	0.370087
C65	C	1.265884	0.336849	-0.105244
C66	C	1.765884	0.836849	0.394756
C67	C	1.279470	0.451984	-0.106369
C68	C	1.779470	0.951984	0.393631
N69	N	1.254568	0.147289	-0.321305
N70	N	1.754568	0.647289	0.178695
C71	C	1.324560	0.210484	-0.562129
C72	C	1.824560	0.710484	-0.062129
C73	C	1.324571	0.210477	-0.658111
C74	C	1.824571	0.710477	-0.158111
C75	C	1.184618	0.084054	-0.646488
C76	C	1.684618	0.584054	-0.146488
C77	C	1.184613	0.084056	-0.550508
C78	C	1.684613	0.584056	-0.050508
C79	C	1.254583	0.147277	-0.508331
C80	C	1.754583	0.647277	-0.008331
C81	C	1.254598	0.147268	-0.700293
C82	C	1.754598	0.647268	-0.200293
C83	C	1.254609	0.147259	-0.804361
C84	C	1.754609	0.647259	-0.304361
C85	C	1.254574	0.147284	-0.404257
C86	C	1.754574	0.647284	0.095743
N87	N	1.254614	0.147256	0.112681
N88	N	1.754614	0.647256	0.612681
H89	H	0.936385	0.151256	-0.228663
H90	H	1.436385	0.651256	0.271337
H91	H	1.451962	-0.559626	-0.120698
H92	H	1.951962	-0.059626	0.379302
Br93	Br	1.529835	-0.340488	-0.127208
Br94	Br	2.029835	0.159512	0.372792
Br95	Br	1.089638	-0.001732	-0.477490
Br96	Br	1.589638	0.498268	0.022510
H97	H	0.936417	0.151251	0.072943
H98	H	1.436417	0.651251	0.572943
H99	H	0.771809	0.147662	-0.298104
H100	H	1.271809	0.647662	0.201896
H101	H	0.572770	0.143306	-0.281561
H102	H	1.072770	0.643306	0.218439
H103	H	1.109351	-0.516307	-0.092220
H104	H	1.609351	-0.016307	0.407780
Br105	Br	1.419525	0.296276	-0.504891
Br106	Br	1.919525	0.796276	-0.004891
Br107	Br	1.419548	0.296257	-0.731120
Br108	Br	1.919548	0.796257	-0.231120
Br109	Br	0.979341	-0.364965	-0.081418
Br110	Br	1.479341	0.135035	0.418582
Br111	Br	1.089657	-0.001736	-0.703735
Br112	Br	1.589657	0.498264	-0.203735
H113	H	1.057215	-0.145808	-0.087916
H114	H	1.557215	0.354192	0.412084
H115	H	0.572769	0.143285	0.020039
H116	H	1.072769	0.643285	0.520039
H117	H	0.737349	0.146892	0.089481
H118	H	1.237349	0.646892	0.589481
H119	H	1.399832	-0.189162	-0.116390
H120	H	1.899832	0.310838	0.383610
