data_functionalizedCrystal
_audit_creation_method	'MofGen! by Chris Wilmer'
_symmetry_space_group_name_H-M	'P1'
_symmetry_Int_Tables_number	1
_symmetry_cell_setting	triclinic
loop_
_symmetry_equiv_pos_as_xyz
  x,y,z
_cell_length_a	12.759401
_cell_length_b	19.120786
_cell_length_c	12.759393
_cell_angle_alpha	92.476000
_cell_angle_beta	90.019676
_cell_angle_gamma	92.465677
loop_
_atom_site_label
_atom_site_type_symbol
_atom_site_fract_x
_atom_site_fract_y
_atom_site_fract_z
Zn1	Zn	1.588346	-0.279590	0.576101
Zn2	Zn	2.088346	0.220410	1.076101
Zn3	Zn	1.580707	-0.397064	0.392907
Zn4	Zn	2.080707	0.102936	0.892907
Zn5	Zn	1.412642	-0.279625	0.400437
Zn6	Zn	1.912642	0.220375	0.900437
Zn7	Zn	1.405110	-0.397013	0.568551
Zn8	Zn	1.905110	0.102987	1.068551
O9	O	1.496701	-0.338323	0.484499
O10	O	1.996701	0.161677	0.984499
O11	O	1.734353	-0.295180	0.551807
O12	O	2.234353	0.204820	1.051807
O13	O	1.558368	-0.381522	0.246882
O14	O	2.058368	0.118478	0.746882
O15	O	1.442299	-0.181329	0.430051
O16	O	1.942299	0.318671	0.930051
O17	O	1.728741	-0.381488	0.417216
O18	O	2.228741	0.118512	0.917216
O19	O	1.571387	-0.181303	0.559110
O20	O	2.071387	0.318697	1.059110
O21	O	1.434892	-0.295240	0.252415
O22	O	1.934892	0.204760	0.752415
O23	O	1.264622	-0.295190	0.422730
O24	O	1.764622	0.204810	0.922730
O25	O	1.429461	-0.381400	0.716576
O26	O	1.929461	0.118600	1.216576
O27	O	1.259088	-0.381434	0.546242
O28	O	1.759088	0.118566	1.046242
O29	O	1.564083	-0.295130	0.722123
O30	O	2.064083	0.204870	1.222123
O31	O	1.551065	-0.495348	0.409895
O32	O	2.051065	0.004652	0.909895
O33	O	1.422054	-0.495310	0.538940
O34	O	1.922054	0.004690	1.038940
C35	C	1.223735	-0.338311	0.484485
C36	C	1.723735	0.161689	0.984485
C37	C	1.106957	-0.338322	0.484503
C38	C	1.606957	0.161678	0.984503
C39	C	1.055013	-0.293463	0.554683
C40	C	1.555013	0.206537	1.054683
C41	C	0.945288	-0.293470	0.554690
C42	C	1.445288	0.206530	1.054690
C43	C	0.939462	-0.383202	0.414332
C44	C	1.439462	0.116798	0.914332
C45	C	1.049184	-0.383191	0.414321
C46	C	1.549184	0.116809	0.914321
C47	C	1.484942	-0.520815	0.472804
C48	C	1.984942	-0.020815	0.972804
C49	C	1.480007	-0.598886	0.467836
C50	C	1.980007	-0.098886	0.967836
C51	C	1.544848	-0.635490	0.532750
C52	C	2.044848	-0.135490	1.032750
C53	C	1.540207	-0.708846	0.528084
C54	C	2.040207	-0.208846	1.028084
C55	C	1.470730	-0.745596	0.458497
C56	C	1.970730	-0.245596	0.958497
C57	C	1.405881	-0.708987	0.393580
C58	C	1.905881	-0.208987	0.893580
C59	C	1.410518	-0.635633	0.398252
C60	C	1.910518	-0.135633	0.898252
C61	C	1.453366	-0.967083	0.441031
C62	C	1.953366	-0.467083	0.941031
C63	C	1.448737	-1.040443	0.436361
C64	C	1.948737	-0.540443	0.936361
C65	C	1.583062	-1.040297	0.570867
C66	C	2.083062	-0.540297	1.070867
C67	C	1.587697	-0.966941	0.575529
C68	C	2.087697	-0.466941	1.075529
C69	C	1.522844	-0.930338	0.510615
C70	C	2.022844	-0.430338	1.010615
C71	C	1.465987	-0.820578	0.453724
C72	C	1.965987	-0.320578	0.953724
C73	C	1.527583	-0.855358	0.515395
C74	C	2.027583	-0.355358	1.015395
C75	C	1.770734	-0.338335	0.484514
C76	C	2.270734	0.161665	0.984514
C77	C	1.887510	-0.338341	0.484520
C78	C	2.387510	0.161659	0.984520
C79	C	1.496784	-0.338255	0.758537
C80	C	1.996784	0.161745	1.258537
C81	C	1.496819	-0.338227	0.875315
C82	C	1.996819	0.161773	1.375315
C83	C	1.508535	-0.155118	0.496263
C84	C	2.008535	0.344882	0.996263
C85	C	1.513578	-0.077047	0.501276
C86	C	2.013578	0.422953	1.001276
C87	C	1.496682	-0.338339	0.211530
C88	C	1.996682	0.161661	0.711530
C89	C	1.496863	-0.338170	0.094765
C90	C	1.996863	0.161830	0.594765
C91	C	1.566923	-0.293299	0.933068
C92	C	2.066923	0.206701	1.433068
C93	C	1.566943	-0.293268	1.042794
C94	C	2.066943	0.206732	1.542794
C95	C	1.426752	-0.383100	1.037005
C96	C	1.926752	0.116900	1.537005
C97	C	1.426728	-0.383126	0.927281
C98	C	1.926728	0.116874	1.427281
H99	H	1.601428	-0.605572	0.589411
H100	H	2.101428	-0.105572	1.089411
H101	H	1.357716	-0.605830	0.345393
H102	H	1.857716	-0.105830	0.845393
H103	H	0.903000	-0.256940	0.611836
H104	H	1.403000	0.243060	1.111836
H105	H	1.369688	-0.419658	1.079329
H106	H	1.869688	0.080342	1.579329
H107	H	1.369634	-0.419712	0.880258
H108	H	1.869634	0.080288	1.380258
H109	H	0.892410	-0.419733	0.357194
H110	H	1.392410	0.080267	0.857194
H111	H	1.102048	-0.256926	0.611826
H112	H	1.602048	0.243074	1.111826
Br113	Br	1.662044	-0.232362	0.862545
Br114	Br	2.162044	0.267638	1.362545
H115	H	1.091478	-0.419722	0.357166
H116	H	1.591478	0.080278	0.857166
Br117	Br	1.354447	-1.090319	0.341908
Br118	Br	1.854447	-0.590319	0.841908
Br119	Br	1.621862	-0.805481	0.609840
Br120	Br	2.121862	-0.305481	1.109840
H121	H	1.635859	-1.070107	0.623717
H122	H	2.135859	-0.570107	1.123717
H123	H	1.409421	-0.850508	0.397063
H124	H	1.909421	-0.350508	0.897063
H125	H	1.624026	-0.256682	1.089811
H126	H	2.124026	0.243318	1.589811
Br127	Br	1.365339	-0.917417	0.352946
Br128	Br	1.865339	-0.417417	0.852946
Br129	Br	1.681992	-0.917070	0.669971
Br130	Br	2.181992	-0.417070	1.169971
Br131	Br	1.311575	-0.758862	0.299153
Br132	Br	1.811575	-0.258862	0.799153
H133	H	1.593016	-0.738646	0.580937
H134	H	2.093016	-0.238646	1.080937
