data_functionalizedCrystal
_audit_creation_method	'MofGen! by Chris Wilmer'
_symmetry_space_group_name_H-M	'P1'
_symmetry_Int_Tables_number	1
_symmetry_cell_setting	triclinic
loop_
_symmetry_equiv_pos_as_xyz
  x,y,z
_cell_length_a	14.908993
_cell_length_b	25.639233
_cell_length_c	14.908520
_cell_angle_alpha	93.280272
_cell_angle_beta	96.420918
_cell_angle_gamma	93.280401
loop_
_atom_site_label
_atom_site_type_symbol
_atom_site_fract_x
_atom_site_fract_y
_atom_site_fract_z
Zn1	Zn	1.362934	-0.259484	-0.280537
Zn2	Zn	1.862934	0.240516	0.219463
Zn3	Zn	1.354111	-0.177407	-0.431887
Zn4	Zn	1.854111	0.322593	0.068113
Zn5	Zn	1.211585	-0.177409	-0.289279
Zn6	Zn	1.711585	0.322591	0.210721
Zn7	Zn	1.202799	-0.270155	-0.440607
Zn8	Zn	1.702799	0.229845	0.059393
O9	O	1.282857	-0.221114	-0.360577
O10	O	1.782857	0.278886	0.139423
O11	O	1.488428	-0.244130	-0.293306
O12	O	1.988428	0.255870	0.206694
O13	O	1.335188	-0.104243	-0.412979
O14	O	1.835188	0.395757	0.087021
O15	O	1.239031	-0.183832	-0.161447
O16	O	1.739031	0.316168	0.338553
O17	O	1.481946	-0.183828	-0.404503
O18	O	1.981946	0.316172	0.095497
O19	O	1.350227	-0.244132	-0.155024
O20	O	1.850227	0.255868	0.344976
O21	O	1.230475	-0.104245	-0.308205
O22	O	1.730475	0.395755	0.191795
O23	O	1.083755	-0.194179	-0.316660
O24	O	1.583755	0.305821	0.183340
O25	O	1.224058	-0.341904	-0.419364
O26	O	1.724058	0.158096	0.080636
O27	O	1.077300	-0.262319	-0.427841
O28	O	1.577300	0.237681	0.072159
O29	O	1.341708	-0.334064	-0.301761
O30	O	1.841708	0.165936	0.198239
O31	O	1.326669	-0.194175	-0.559716
O32	O	1.826669	0.305825	-0.059716
O33	O	1.215502	-0.262317	-0.566122
O34	O	1.715502	0.237683	-0.066122
C35	C	1.047685	-0.229408	-0.374146
C36	C	1.547685	0.270592	0.125854
C37	C	0.947076	-0.232969	-0.379973
C38	C	1.447076	0.267031	0.120027
C39	C	0.764700	-0.168794	-0.274975
C40	C	1.264700	0.331206	0.225025
C41	C	0.670169	-0.172138	-0.280447
C42	C	1.170169	0.327862	0.219553
C43	C	0.663480	-0.242999	-0.396391
C44	C	1.163480	0.257001	0.103609
C45	C	0.758012	-0.239655	-0.390920
C46	C	1.258012	0.260345	0.109080
C47	C	0.808618	-0.202551	-0.330209
C48	C	1.308618	0.297449	0.169791
C49	C	0.903151	-0.199210	-0.324733
C50	C	1.403151	0.300790	0.175267
C51	C	0.896461	-0.270068	-0.440682
C52	C	1.396461	0.229932	0.059318
C53	C	0.801930	-0.273412	-0.446153
C54	C	1.301930	0.226588	0.053847
C55	C	1.282887	-0.357485	-0.360560
C56	C	1.782887	0.142515	0.139440
C57	C	1.282900	-0.415599	-0.360552
C58	C	1.782900	0.084401	0.139448
C59	C	1.344244	-0.771877	-0.299140
C60	C	1.844244	-0.271877	0.200860
C61	C	1.344257	-0.826480	-0.299115
C62	C	1.844257	-0.326480	0.200885
O63	O	1.396334	-0.851249	-0.247011
O64	O	1.896334	-0.351249	0.252989
N65	N	1.283012	-0.857870	-0.360334
N66	N	1.783012	-0.357870	0.139666
C67	C	1.221745	-0.834655	-0.421578
C68	C	1.721745	-0.334655	0.078422
O69	O	1.169652	-0.866369	-0.473647
O70	O	1.669652	-0.366369	0.026353
C71	C	1.221729	-0.780053	-0.421598
C72	C	1.721729	-0.280053	0.078402
C73	C	1.282983	-0.748665	-0.360381
C74	C	1.782983	-0.248665	0.139619
C75	C	1.405493	-0.740489	-0.237927
C76	C	1.905493	-0.240489	0.262073
C77	C	1.405481	-0.685890	-0.237954
C78	C	1.905481	-0.185890	0.262046
C79	C	1.344221	-0.662678	-0.299194
C80	C	1.844221	-0.162678	0.200806
C81	C	1.282972	-0.694066	-0.360408
C82	C	1.782972	-0.194066	0.139592
C83	C	1.160458	-0.756839	-0.482837
C84	C	1.660458	-0.256839	0.017163
C85	C	1.160446	-0.702233	-0.482852
C86	C	1.660446	-0.202233	0.017148
C87	C	1.221701	-0.670845	-0.421634
C88	C	1.721701	-0.170845	0.078366
C89	C	1.221699	-0.616255	-0.421675
C90	C	1.721699	-0.116255	0.078325
N91	N	1.282944	-0.584865	-0.360455
N92	N	1.782944	-0.084865	0.139545
C93	C	1.344204	-0.608076	-0.299215
C94	C	1.844204	-0.108076	0.200785
C95	C	1.221783	-0.949323	-0.421529
C96	C	1.721783	-0.449323	0.078471
C97	C	1.221802	-1.003924	-0.421513
C98	C	1.721802	-0.503924	0.078487
C99	C	1.344313	-0.995745	-0.299048
C100	C	1.844313	-0.495745	0.200952
C101	C	1.344297	-0.941143	-0.299069
C102	C	1.844297	-0.441143	0.200931
C103	C	1.283027	-0.917933	-0.360309
C104	C	1.783027	-0.417933	0.139691
C105	C	1.344176	-0.493414	-0.299277
C106	C	1.844176	0.006586	0.200723
C107	C	1.344161	-0.438810	-0.299312
C108	C	1.844161	0.061190	0.200688
C109	C	1.221647	-0.446994	-0.421773
C110	C	1.721647	0.053006	0.078227
C111	C	1.221665	-0.501593	-0.421741
C112	C	1.721665	-0.001593	0.078259
C113	C	1.282932	-0.524801	-0.360486
C114	C	1.782932	-0.024801	0.139514
O115	O	1.169646	-0.591449	-0.473750
O116	O	1.669646	-0.091449	0.026250
O117	O	1.396280	-0.576356	-0.247147
O118	O	1.896280	-0.076356	0.252853
C119	C	1.518948	-0.212788	-0.346956
C120	C	2.018948	0.287212	0.153044
C121	C	1.619556	-0.209240	-0.341152
C122	C	2.119556	0.290760	0.158848
C123	C	1.269199	-0.229414	-0.595763
C124	C	1.769199	0.270586	-0.095763
C125	C	1.263439	-0.232979	-0.696371
C126	C	1.763439	0.267021	-0.196371
C127	C	1.282883	-0.085269	-0.360527
C128	C	1.782883	0.414731	0.139473
C129	C	1.283060	-0.027141	-0.360269
C130	C	1.783060	0.472859	0.139731
C131	C	1.368493	-0.168773	-0.878686
C132	C	1.868493	0.331227	-0.378686
C133	C	1.363084	-0.172121	-0.973217
C134	C	1.863084	0.327879	-0.473217
C135	C	1.247217	-0.243026	-0.979964
C136	C	1.747217	0.256974	-0.479964
C137	C	1.252626	-0.239678	-0.885433
C138	C	1.752626	0.260322	-0.385433
C139	C	1.313265	-0.202549	-0.834798
C140	C	1.813265	0.297451	-0.334798
C141	C	1.318669	-0.199199	-0.740266
C142	C	1.818669	0.300801	-0.240266
C143	C	1.202807	-0.270106	-0.747014
C144	C	1.702807	0.229894	-0.247014
C145	C	1.197398	-0.273455	-0.841545
C146	C	1.697398	0.226545	-0.341545
C147	C	1.296593	-0.212792	-0.124472
C148	C	1.796593	0.287208	0.375528
C149	C	1.302447	-0.209246	-0.023859
C150	C	1.802447	0.290754	0.476141
H151	H	1.394045	-0.413256	-0.249460
H152	H	1.894045	0.086744	0.250540
O153	O	1.155599	-0.535453	-0.487764
O154	O	1.655599	-0.035453	0.012236
H155	H	1.166977	-0.526942	-0.557922
H156	H	1.666977	-0.026942	-0.057922
O157	O	0.747347	-0.313433	-0.511627
O158	O	1.247347	0.186567	-0.011627
H159	H	0.674235	-0.310090	-0.506149
H160	H	1.174235	0.189910	-0.006149
H161	H	0.932229	-0.297559	-0.485652
H162	H	1.432229	0.202441	0.014348
H163	H	1.417861	-0.138538	-0.837458
H164	H	1.917861	0.361462	-0.337458
H165	H	0.622260	-0.273202	-0.445827
H166	H	1.122260	0.226798	0.054173
O167	O	0.957732	-0.159186	-0.259265
O168	O	1.457732	0.340814	0.240735
H169	H	0.943705	-0.166345	-0.189292
H170	H	1.443705	0.333655	0.310708
O171	O	1.155738	-1.037777	-0.487542
O172	O	1.655738	-0.537777	0.012458
H173	H	1.113136	-1.012458	-0.530121
H174	H	1.613136	-0.512458	-0.030121
O175	O	1.131995	-0.313494	-0.896171
O176	O	1.631995	0.186506	-0.396171
H177	H	1.148503	-0.353349	-0.877100
H178	H	1.648503	0.146651	-0.377100
H179	H	0.805905	-0.138589	-0.225531
H180	H	1.305905	0.361411	0.274469
O181	O	1.471544	-0.652038	-0.171922
O182	O	1.971544	-0.152038	0.328078
H183	H	1.514134	-0.677359	-0.129334
H184	H	2.014134	-0.177359	0.370666
O185	O	0.622795	-0.135732	-0.220870
O186	O	1.122795	0.364268	0.279130
H187	H	0.673870	-0.109374	-0.177732
H188	H	1.173870	0.390626	0.322268
O189	O	1.422648	-0.135694	-1.020566
O190	O	1.922648	0.364306	-0.520566
H191	H	1.408212	-0.094555	-1.003372
H192	H	1.908212	0.405445	-0.503372
O193	O	1.410262	-0.518442	-0.233218
O194	O	1.910262	-0.018442	0.266782
H195	H	1.452851	-0.487436	-0.190669
H196	H	1.952851	0.012564	0.309331
H197	H	1.394175	-0.915590	-0.249219
H198	H	1.894175	-0.415590	0.250781
O199	O	1.384083	-0.159159	-0.685655
O200	O	1.884083	0.340841	-0.185655
H201	H	1.432564	-0.179439	-0.639873
H202	H	1.932564	0.320561	-0.139873
H203	H	1.455380	-0.759381	-0.188052
H204	H	1.955380	-0.259381	0.311948
H205	H	1.394193	-1.014653	-0.249181
H206	H	1.894193	-0.514653	0.250819
H207	H	1.171888	-0.930429	-0.471402
H208	H	1.671888	-0.430429	0.028598
O209	O	1.181807	-0.283064	-1.034584
O210	O	1.681807	0.216936	-0.534584
H211	H	1.187321	-0.279712	-1.107690
H212	H	1.687321	0.220288	-0.607690
O213	O	1.094379	-0.790686	-0.548854
O214	O	1.594379	-0.290686	-0.048854
H215	H	1.051774	-0.765364	-0.591424
H216	H	1.551774	-0.265364	-0.091424
O217	O	1.094350	-0.677198	-0.548893
O218	O	1.594350	-0.177198	-0.048893
H219	H	1.051763	-0.708201	-0.591452
H220	H	1.551763	-0.208201	-0.091452
O221	O	1.155568	-0.421955	-0.487818
O222	O	1.655568	0.078045	0.012182
H223	H	1.165847	-0.378714	-0.477537
H224	H	1.665847	0.121286	0.022463
H225	H	1.157834	-0.297608	-0.711270
H226	H	1.657834	0.202392	-0.211270
