data_functionalizedCrystal
_audit_creation_method	'MofGen! by Chris Wilmer'
_symmetry_space_group_name_H-M	'P1'
_symmetry_Int_Tables_number	1
_symmetry_cell_setting	triclinic
loop_
_symmetry_equiv_pos_as_xyz
  x,y,z
_cell_length_a	19.077236
_cell_length_b	29.839131
_cell_length_c	19.076919
_cell_angle_alpha	92.260621
_cell_angle_beta	90.112677
_cell_angle_gamma	87.667042
loop_
_atom_site_label
_atom_site_type_symbol
_atom_site_fract_x
_atom_site_fract_y
_atom_site_fract_z
Zn1	Zn	1.058221	0.163080	0.440493
Zn2	Zn	1.391555	0.496413	0.773826
Zn3	Zn	1.724888	0.829747	1.107160
Zn4	Zn	1.062830	0.235076	0.322965
Zn5	Zn	1.396164	0.568409	0.656298
Zn6	Zn	1.729497	0.901743	0.989631
Zn7	Zn	0.945437	0.162844	0.318273
Zn8	Zn	1.278770	0.496178	0.651606
Zn9	Zn	1.612104	0.829511	0.984940
Zn10	Zn	0.940647	0.241069	0.435701
Zn11	Zn	1.273980	0.574403	0.769034
Zn12	Zn	1.607314	0.907736	1.102368
O13	O	1.001784	0.200517	0.379358
O14	O	1.335117	0.533851	0.712691
O15	O	1.668451	0.867184	1.046025
O16	O	1.157167	0.170221	0.428871
O17	O	1.490501	0.503554	0.762205
O18	O	1.823834	0.836887	1.095538
O19	O	1.051191	0.222887	0.224012
O20	O	1.384525	0.556221	0.557346
O21	O	1.717858	0.889554	0.890679
O22	O	0.960474	0.100008	0.334528
O23	O	1.293807	0.433341	0.667861
O24	O	1.627140	0.766674	1.001194
O25	O	1.160554	0.223116	0.342524
O26	O	1.493887	0.556449	0.675857
O27	O	1.827220	0.889782	1.009191
O28	O	1.043336	0.100181	0.424322
O29	O	1.376669	0.433514	0.757655
O30	O	1.710003	0.766847	1.090989
O31	O	0.964943	0.169819	0.220565
O32	O	1.298276	0.503153	0.553899
O33	O	1.631610	0.836486	0.887232
O34	O	0.846467	0.175631	0.329881
O35	O	1.179800	0.508964	0.663215
O36	O	1.513134	0.842298	0.996548
O37	O	0.952310	0.233331	0.534667
O38	O	1.285643	0.566664	0.868000
O39	O	1.618977	0.899998	1.201333
O40	O	0.842948	0.233102	0.416155
O41	O	1.176281	0.566436	0.749488
O42	O	1.509614	0.899769	1.082822
O43	O	1.038691	0.176032	0.538187
O44	O	1.372025	0.509366	0.871521
O45	O	1.705358	0.842699	1.204854
O46	O	1.046547	0.298739	0.337878
O47	O	1.379880	0.632072	0.671211
O48	O	1.713214	0.965406	1.004544
O49	O	0.956779	0.303142	0.420704
O50	O	1.290113	0.636476	0.754038
O51	O	1.623446	0.969809	1.087371
C52	C	0.819210	0.204992	0.371990
C53	C	1.152544	0.538325	0.705323
C54	C	1.485877	0.871659	1.038656
C55	C	0.741104	0.206917	0.368854
C56	C	1.074437	0.540251	0.702187
C57	C	1.407770	0.873584	1.035521
C58	C	0.702644	0.180330	0.412406
C59	C	1.035977	0.513663	0.745739
C60	C	1.369310	0.846996	1.079073
C61	C	0.629255	0.182136	0.409454
C62	C	0.962588	0.515470	0.742787
C63	C	1.295921	0.848803	1.076120
C64	C	0.594327	0.210534	0.362952
C65	C	0.927660	0.543867	0.696286
C66	C	1.260993	0.877200	1.029619
C67	C	0.632792	0.237122	0.319396
C68	C	0.966125	0.570456	0.652729
C69	C	1.299458	0.903789	0.986062
C70	C	0.706180	0.235313	0.322345
C71	C	1.039513	0.568646	0.655678
C72	C	1.372846	0.901979	0.989012
C73	C	0.375030	0.218891	0.349300
C74	C	0.708363	0.552224	0.682634
C75	C	1.041696	0.885558	1.015967
C76	C	0.301636	0.220700	0.346356
C77	C	0.634970	0.554033	0.679689
C78	C	0.968303	0.887366	1.013023
C79	C	0.298104	0.165713	0.436413
C80	C	0.631438	0.499046	0.769747
C81	C	0.964771	0.832380	1.103080
C82	C	0.371494	0.163908	0.439361
C83	C	0.704827	0.497241	0.772695
C84	C	1.038160	0.830575	1.106028
C85	C	0.409953	0.190495	0.395802
C86	C	0.743286	0.523828	0.729136
C87	C	1.076619	0.857162	1.062469
N88	N	0.519311	0.212382	0.359935
N89	N	0.852644	0.545715	0.693268
N90	N	1.185978	0.879049	1.026602
N91	N	0.484967	0.188644	0.398816
N92	N	0.818300	0.521977	0.732150
N93	N	1.151634	0.855310	1.065483
C94	C	1.001662	0.317242	0.379296
C95	C	1.334995	0.650575	0.712630
C96	C	1.668329	0.983908	1.045963
C97	C	1.001673	0.367176	0.379296
C98	C	1.335006	0.700509	0.712629
C99	C	1.668340	1.033842	1.045963
C100	C	1.044848	0.676877	0.426185
C101	C	1.378181	1.010210	0.759518
C102	C	1.711514	1.343544	1.092851
C103	C	1.044895	0.864550	0.426233
C104	C	1.378228	1.197883	0.759566
C105	C	1.711561	1.531217	1.092900
O106	O	1.081535	0.888865	0.466048
O107	O	1.414868	1.222198	0.799381
O108	O	1.748202	1.555531	1.132714
N109	N	1.001799	0.887962	0.379451
N110	N	1.335132	1.221295	0.712785
N111	N	1.668465	1.554628	1.046118
C112	C	0.958685	0.864452	0.332657
C113	C	1.292018	1.197785	0.665991
C114	C	1.625351	1.531119	0.999324
O115	O	0.922025	0.888671	0.292872
O116	O	1.255358	1.222005	0.626206
O117	O	1.588692	1.555338	0.959539
C118	C	0.958635	0.676780	0.332613
C119	C	1.291968	1.010113	0.665946
C120	C	1.625301	1.343447	0.999280
C121	C	1.001739	0.653371	0.379393
C122	C	1.335072	0.986704	0.712726
C123	C	1.668405	1.320037	1.046060
C124	C	1.087947	0.653468	0.472962
C125	C	1.421281	0.986801	0.806295
C126	C	1.754614	1.320134	1.139628
C127	C	1.087938	0.606552	0.472946
C128	C	1.421271	0.939885	0.806280
C129	C	1.754605	1.273219	1.139613
C130	C	1.044829	0.583046	0.426155
C131	C	1.378162	0.916379	0.759488
C132	C	1.711496	1.249712	1.092821
C133	C	1.001729	0.606455	0.379378
C134	C	1.335063	0.939788	0.712711
C135	C	1.668396	1.273122	1.046045
C136	C	0.915518	0.653272	0.285823
C137	C	1.248851	0.986605	0.619156
C138	C	1.582184	1.319938	0.952490
C139	C	0.915508	0.606351	0.285817
C140	C	1.248841	0.939684	0.619151
C141	C	1.582174	1.273017	0.952484
C142	C	0.958611	0.582941	0.332597
C143	C	1.291945	0.916275	0.665931
C144	C	1.625278	1.249608	0.999264
C145	C	0.958611	0.536033	0.332571
C146	C	1.291944	0.869367	0.665904
C147	C	1.625277	1.202700	0.999238
N148	N	1.001707	0.512622	0.379353
N149	N	1.335040	0.845955	0.712686
N150	N	1.668373	1.179288	1.046019
C151	C	1.044816	0.536128	0.426145
C152	C	1.378149	0.869461	0.759478
C153	C	1.711482	1.202795	1.092811
C154	C	0.958715	0.962983	0.332683
C155	C	1.292048	1.296316	0.666016
C156	C	1.625382	1.629649	0.999349
C157	C	0.958728	1.009900	0.332693
C158	C	1.292062	1.343234	0.666026
C159	C	1.625395	1.676567	0.999360
C160	C	1.044937	1.009995	0.426270
C161	C	1.378271	1.343328	0.759603
C162	C	1.711604	1.676662	1.092936
C163	C	1.044927	0.963076	0.426256
C164	C	1.378261	1.296410	0.759589
C165	C	1.711594	1.629743	1.092922
C166	C	1.001811	0.939571	0.379465
C167	C	1.335144	1.272904	0.712798
C168	C	1.668478	1.606238	1.046131
C169	C	1.044793	0.437602	0.426109
C170	C	1.378127	0.770935	0.759442
C171	C	1.711460	1.104269	1.092776
C172	C	1.044782	0.390682	0.426088
C173	C	1.378116	0.724015	0.759421
C174	C	1.711449	1.057349	1.092754
C175	C	0.958571	0.390591	0.332514
C176	C	1.291904	0.723925	0.665847
C177	C	1.625237	1.057258	0.999180
C178	C	0.958584	0.437507	0.332532
C179	C	1.291918	0.770840	0.665865
C180	C	1.625251	1.104174	0.999199
C181	C	1.001698	0.461011	0.379335
C182	C	1.335031	0.794345	0.712669
C183	C	1.668364	1.127678	1.046002
O184	O	0.921984	0.511690	0.292782
O185	O	1.255317	0.845023	0.626116
O186	O	1.588650	1.178357	0.959449
O187	O	1.081459	0.511901	0.465934
O188	O	1.414792	0.845234	0.799267
O189	O	1.748125	1.178568	1.132601
C190	C	1.044857	0.723793	0.426200
C191	C	1.378190	1.057126	0.759533
C192	C	1.711524	1.390459	1.092867
C193	C	1.001757	0.747202	0.379423
C194	C	1.335091	1.080535	0.712757
C195	C	1.668424	1.413869	1.046090
C196	C	0.958648	0.723696	0.332631
C197	C	1.291981	1.057029	0.665965
C198	C	1.625315	1.390362	0.999298
C199	C	1.001771	0.794120	0.379433
C200	C	1.335104	1.127453	0.712767
C201	C	1.668437	1.460786	1.046100
C202	C	1.044880	0.817626	0.426225
C203	C	1.378213	1.150959	0.759558
C204	C	1.711546	1.484293	1.092892
C205	C	1.087975	0.794215	0.473007
C206	C	1.421309	1.127548	0.806340
C207	C	1.754642	1.460881	1.139673
C208	C	1.087966	0.747299	0.472992
C209	C	1.421299	1.080632	0.806325
C210	C	1.754633	1.413966	1.139658
C211	C	0.915552	0.747107	0.285850
C212	C	1.248886	1.080440	0.619183
C213	C	1.582219	1.413774	0.952516
C214	C	0.915566	0.794023	0.285868
C215	C	1.248899	1.127356	0.619201
C216	C	1.582232	1.460689	0.952535
C217	C	0.958675	0.817529	0.332660
C218	C	1.292008	1.150862	0.665993
C219	C	1.625342	1.484196	0.999326
C220	C	1.185071	0.196026	0.386756
C221	C	1.518404	0.529359	0.720089
C222	C	1.851737	0.862693	1.053422
C223	C	1.263177	0.194112	0.389908
C224	C	1.596510	0.527445	0.723241
C225	C	1.929843	0.860779	1.056575
C226	C	0.994452	0.205376	0.562636
C227	C	1.327786	0.538710	0.895969
C228	C	1.661119	0.872043	1.229302
C229	C	0.991328	0.207447	0.640738
C230	C	1.324661	0.540780	0.974071
C231	C	1.657995	0.874114	1.307405
C232	C	1.001888	1.083339	0.379440
C233	C	1.335221	1.416672	0.712773
C234	C	1.668555	1.750005	1.046107
C235	C	1.001838	1.033407	0.379485
C236	C	1.335171	1.366740	0.712818
C237	C	1.668504	1.700073	1.046151
C238	C	1.009128	0.195644	0.196795
C239	C	1.342461	0.528977	0.530128
C240	C	1.675794	0.862311	0.863461
C241	C	1.012388	0.193443	0.118699
C242	C	1.345721	0.526777	0.452032
C243	C	1.679055	0.860110	0.785365
C244	C	1.034832	0.178589	0.679264
C245	C	1.368165	0.511922	1.012598
C246	C	1.701499	0.845256	1.345931
C247	C	1.031888	0.180533	0.752649
C248	C	1.365221	0.513866	1.085983
C249	C	1.698554	0.847200	1.419316
C250	C	0.985443	0.211338	0.787506
C251	C	1.318776	0.544671	1.120840
C252	C	1.652109	0.878004	1.454173
C253	C	0.941934	0.240197	0.748975
C254	C	1.275267	0.573530	1.082308
C255	C	1.608601	0.906864	1.415641
C256	C	0.944875	0.238251	0.675591
C257	C	1.278208	0.571584	1.008924
C258	C	1.611542	0.904917	1.342258
C259	C	0.971820	0.220356	1.006783
C260	C	1.305154	0.553690	1.340116
C261	C	1.638487	0.887023	1.673450
C262	C	0.968884	0.222302	1.080172
C263	C	1.302217	0.555635	1.413505
C264	C	1.635551	0.888968	1.746839
C265	C	1.058837	0.162637	1.083842
C266	C	1.392171	0.495970	1.417175
C267	C	1.725504	0.829303	1.750508
C268	C	1.061777	0.160695	1.010457
C269	C	1.395111	0.494028	1.343790
C270	C	1.728444	0.827361	1.677123
C271	C	1.018266	0.189552	0.971931
C272	C	1.351599	0.522886	1.305264
C273	C	1.684933	0.856219	1.638598
N274	N	0.982434	0.213327	0.862518
N275	N	1.315767	0.546660	1.195851
N276	N	1.649100	0.879993	1.529184
N277	N	1.021272	0.187561	0.896921
N278	N	1.354605	0.520894	1.230254
N279	N	1.687939	0.854228	1.563588
H280	H	0.731077	0.157207	0.450274
H281	H	1.064410	0.490540	0.783607
H282	H	1.397743	0.823873	1.116941
H283	H	1.072655	0.153506	0.650889
H284	H	1.405988	0.486839	0.984223
H285	H	1.739321	0.820172	1.317556
F286	F	0.912694	0.365566	0.282716
F287	F	1.246028	0.698899	0.616050
F288	F	1.579361	1.032233	0.949383
H289	H	0.923604	0.943848	0.294578
H290	H	1.256937	1.277181	0.627911
H291	H	1.590270	1.610514	0.961245
F292	F	1.090662	0.365771	0.475878
F293	F	1.423996	0.699104	0.809212
F294	F	1.757329	1.032437	1.142545
H295	H	0.880418	0.672323	0.247729
H296	H	1.213751	1.005657	0.581063
H297	H	1.547085	1.338990	0.914396
H298	H	1.080026	0.944019	0.464348
H299	H	1.413359	1.277353	0.797682
H300	H	1.746692	1.610686	1.131015
H301	H	1.123065	0.728242	0.511084
H302	H	1.456398	1.061576	0.844418
H303	H	1.789732	1.394909	1.177751
F304	F	0.925512	0.251070	0.965791
F305	F	1.258845	0.584403	1.299124
F306	F	1.592178	0.917736	1.632457
H307	H	0.909442	0.261746	0.644223
H308	H	1.242776	0.595079	0.977556
H309	H	1.576109	0.928412	1.310890
H310	H	0.266783	0.144067	0.471876
H311	H	0.600117	0.477400	0.805209
H312	H	0.933450	0.810734	1.138543
F313	F	0.869615	0.581337	0.236015
F314	F	1.202949	0.914671	0.569348
F315	F	1.536282	1.248004	0.902681
F316	F	0.912718	0.462421	0.282736
F317	F	1.246051	0.795755	0.616069
F318	F	1.579384	1.129088	0.949402
F319	F	0.912861	1.034809	0.282895
F320	F	1.246194	1.368142	0.616228
F321	F	1.579527	1.701475	0.949561
F322	F	0.588326	0.153839	0.455809
F323	F	0.921659	0.487172	0.789143
F324	F	1.254993	0.820506	1.122476
H325	H	0.604347	0.260242	0.281530
H326	H	0.937681	0.593575	0.614863
H327	H	1.271014	0.926908	0.948197
H328	H	0.931061	0.247388	1.108550
H329	H	1.264394	0.580721	1.441884
H330	H	1.597727	0.914054	1.775217
F331	F	1.133831	0.678478	0.522771
F332	F	1.467165	1.011811	0.856104
F333	F	1.800498	1.345145	1.189438
F334	F	1.133811	0.581644	0.522741
F335	F	1.467144	0.914978	0.856074
F336	F	1.800478	1.248311	1.189407
H337	H	1.099600	0.135611	0.982081
H338	H	1.432933	0.468945	1.315415
H339	H	1.766267	0.802278	1.648748
F340	F	0.892500	0.272980	0.786074
F341	F	1.225834	0.606314	1.119407
F342	F	1.559167	0.939647	1.452741
F343	F	1.133858	0.819240	0.522804
F344	F	1.467191	1.152573	0.856137
F345	F	1.800524	1.485906	1.189471
H346	H	0.880447	0.727972	0.247747
H347	H	1.213780	1.061305	0.581080
H348	H	1.547113	1.394639	0.914413
F349	F	0.415952	0.247180	0.302928
F350	F	0.749285	0.580513	0.636262
F351	F	1.082618	0.913846	0.969595
H352	H	0.273200	0.243826	0.308489
H353	H	0.606533	0.577159	0.641822
H354	H	0.939867	0.910493	0.975155
F355	F	1.105140	0.131925	1.124848
F356	F	1.438474	0.465259	1.458182
F357	F	1.771807	0.798592	1.791515
H358	H	0.399927	0.140786	0.477230
H359	H	0.733260	0.474119	0.810564
H360	H	1.066594	0.807452	1.143897
H361	H	0.880467	0.813078	0.247768
H362	H	1.213800	1.146412	0.581101
H363	H	1.547133	1.479745	0.914434
F364	F	1.078215	0.149833	0.793650
F365	F	1.411548	0.483166	1.126983
F366	F	1.744882	0.816500	1.460317
H367	H	0.737493	0.256963	0.286880
H368	H	1.070826	0.590296	0.620213
H369	H	1.404160	0.923630	0.953546
F370	F	1.090818	1.035020	0.476069
F371	F	1.424151	1.368353	0.809402
F372	F	1.757485	1.701687	1.142736
F373	F	1.090680	0.462610	0.475921
F374	F	1.424014	0.795944	0.809255
F375	F	1.757347	1.129277	1.142588
