data_functionalizedCrystal
_audit_creation_method	'MofGen! by Chris Wilmer'
_symmetry_space_group_name_H-M	'P1'
_symmetry_Int_Tables_number	1
_symmetry_cell_setting	triclinic
loop_
_symmetry_equiv_pos_as_xyz
  x,y,z
_cell_length_a	17.699083
_cell_length_b	23.532407
_cell_length_c	16.776229
_cell_angle_alpha	89.988688
_cell_angle_beta	89.998886
_cell_angle_gamma	83.065847
loop_
_atom_site_label
_atom_site_type_symbol
_atom_site_fract_x
_atom_site_fract_y
_atom_site_fract_z
O1	O	1.003713	0.072020	-0.066185
O2	O	1.503713	0.572020	0.433815
O3	O	0.783287	0.081390	-0.066212
O4	O	1.283287	0.581390	0.433788
O5	O	0.900147	-0.006208	-0.066183
O6	O	1.400147	0.493792	0.433817
O7	O	0.886853	0.159617	-0.066214
O8	O	1.386853	0.659617	0.433786
O9	O	0.900132	-0.006213	0.066394
O10	O	1.400132	0.493787	0.566394
O11	O	0.783272	0.081384	0.066365
O12	O	1.283272	0.581384	0.566365
O13	O	1.003698	0.072015	0.066392
O14	O	1.503698	0.572015	0.566392
Zn15	Zn	0.893482	0.076699	0.087428
Zn16	Zn	1.393482	0.576699	0.587428
Zn17	Zn	0.893503	0.076706	-0.087248
Zn18	Zn	1.393503	0.576706	0.412752
O19	O	0.886838	0.159612	0.066363
O20	O	1.386838	0.659612	0.566363
C21	C	0.755084	0.081051	0.000073
C22	C	1.255084	0.581051	0.500073
C23	C	0.671071	0.080044	0.000063
C24	C	1.171071	0.580044	0.500063
C25	C	0.622189	0.131462	0.000054
C26	C	1.122189	0.631462	0.500054
C27	C	0.543251	0.130512	0.000065
C28	C	1.043251	0.630512	0.500065
C29	C	0.513196	0.078144	0.000079
C30	C	1.013196	0.578144	0.500079
C31	C	0.562084	0.026722	0.000090
C32	C	1.062084	0.526722	0.500090
C33	C	0.641021	0.027672	0.000086
C34	C	1.141021	0.527672	0.500086
C35	C	0.243740	0.022888	0.000111
C36	C	0.743740	0.522888	0.500111
C37	C	0.164797	0.021942	0.000113
C38	C	0.664797	0.521942	0.500113
C39	C	0.145970	0.125728	0.000090
C40	C	0.645970	0.625728	0.500090
C41	C	0.224907	0.126678	0.000085
C42	C	0.724907	0.626678	0.500085
C43	C	0.273788	0.075257	0.000101
C44	C	0.773788	0.575257	0.500101
C45	C	0.359382	0.076287	0.000091
C46	C	0.859382	0.576287	0.500091
C47	C	0.427603	0.077113	0.000083
C48	C	0.927603	0.577113	0.500083
C49	C	0.899801	-0.027427	0.000107
C50	C	1.399801	0.472573	0.500107
C51	C	0.898783	-0.090647	0.000113
C52	C	1.398783	0.409353	0.500113
C53	C	0.961554	-0.489570	0.000077
C54	C	1.461554	0.010430	0.500077
C55	C	0.960609	-0.548973	0.000071
C56	C	1.460609	-0.048973	0.500071
O57	O	1.018799	-0.585550	0.000049
O58	O	1.518799	-0.085550	0.500049
N59	N	0.891136	-0.571799	0.000063
N60	N	1.391136	-0.071799	0.500063
C61	C	0.822604	-0.535218	0.000053
C62	C	1.322604	-0.035218	0.500053
O63	O	0.763424	-0.560088	0.000045
O64	O	1.263424	-0.060088	0.500045
C65	C	0.823550	-0.475816	0.000054
C66	C	1.323550	0.024184	0.500054
C67	C	0.893028	-0.452994	0.000070
C68	C	1.393028	0.047006	0.500070
C69	C	1.031026	-0.466747	0.000093
C70	C	1.531026	0.033253	0.500093
C71	C	1.031972	-0.407348	0.000100
C72	C	1.531972	0.092652	0.500100
C73	C	0.963445	-0.370772	0.000093
C74	C	1.463445	0.129228	0.500093
C75	C	0.893973	-0.393595	0.000078
C76	C	1.393973	0.106405	0.500078
C77	C	0.755019	-0.439237	0.000038
C78	C	1.255019	0.060763	0.500038
C79	C	0.755971	-0.379832	0.000038
C80	C	1.255971	0.120168	0.500038
C81	C	0.825448	-0.357009	0.000054
C82	C	1.325448	0.142991	0.500054
C83	C	0.826391	-0.297620	0.000078
C84	C	1.326391	0.202380	0.500078
N85	N	0.895864	-0.274795	0.000086
N86	N	1.395864	0.225205	0.500086
C87	C	0.964391	-0.311371	0.000093
C88	C	1.464391	0.188629	0.500093
C89	C	0.820622	-0.659966	0.000051
C90	C	1.320622	-0.159966	0.500051
C91	C	0.819674	-0.719367	0.000056
C92	C	1.319674	-0.219367	0.500056
C93	C	0.957680	-0.733118	0.000073
C94	C	1.457680	-0.233118	0.500073
C95	C	0.958626	-0.673716	0.000073
C96	C	1.458626	-0.173716	0.500073
C97	C	0.890095	-0.637141	0.000059
C98	C	1.390095	-0.137141	0.500059
C99	C	0.966371	-0.186628	0.000110
C100	C	1.466371	0.313372	0.500110
C101	C	0.967310	-0.127223	0.000121
C102	C	1.467310	0.372777	0.500121
C103	C	0.829305	-0.113478	0.000100
C104	C	1.329305	0.386522	0.500100
C105	C	0.828365	-0.172877	0.000094
C106	C	1.328365	0.327123	0.500094
C107	C	0.896904	-0.209452	0.000096
C108	C	1.396904	0.290548	0.500096
O109	O	0.768232	-0.261008	0.000097
O110	O	1.268232	0.238992	0.500097
O111	O	1.023560	-0.286493	0.000091
O112	O	1.523560	0.213507	0.500091
C113	C	1.031901	0.072353	0.000105
C114	C	1.531901	0.572353	0.500105
C115	C	1.115914	0.073360	0.000110
C116	C	1.615914	0.573360	0.500110
C117	C	0.887184	0.180832	0.000071
C118	C	1.387184	0.680832	0.500071
C119	C	0.888202	0.244052	0.000060
C120	C	1.388202	0.744052	0.500060
N121	N	0.893474	0.076693	0.206639
N122	N	1.393474	0.576693	0.706639
N123	N	0.893517	0.076706	-0.206459
N124	N	1.393517	0.576706	0.293541
C125	C	0.945235	0.037921	0.248369
C126	C	1.445235	0.537921	0.748369
C127	C	0.945239	0.037921	0.331821
C128	C	1.445239	0.537921	0.831821
C129	C	0.893485	0.076696	0.373542
C130	C	1.393485	0.576696	0.873542
C131	C	0.841719	0.115470	0.331806
C132	C	1.341719	0.615470	0.831806
C133	C	0.841712	0.115467	0.248355
C134	C	1.341712	0.615467	0.748355
C135	C	0.841746	0.115481	0.668353
C136	C	1.341746	0.615481	1.168353
C137	C	0.841759	0.115482	0.751810
C138	C	1.341759	0.615482	1.251810
C139	C	0.945274	0.037935	0.751819
C140	C	1.445274	0.537935	1.251819
C141	C	0.945267	0.037932	0.668368
C142	C	1.445267	0.537932	1.168368
C143	C	0.893498	0.076704	0.626640
C144	C	1.393498	0.576704	1.126640
C145	C	0.893493	0.076703	0.536151
C146	C	1.393493	0.576703	1.036151
C147	C	0.893493	0.076699	0.464029
C148	C	1.393493	0.576699	0.964029
H149	H	0.680820	-0.014197	0.000093
H150	H	1.180820	0.485803	0.500093
H151	H	0.140330	-0.020705	0.000126
H152	H	0.640330	0.479295	0.500126
H153	H	0.987425	0.006362	0.785803
H154	H	1.487425	0.506362	1.285803
H155	H	0.646653	0.174106	0.000042
H156	H	1.146653	0.674106	0.500042
N157	N	1.042252	-0.102612	0.000142
N158	N	1.542252	0.397388	0.500142
H159	H	1.072259	-0.115947	-0.049002
H160	H	1.572259	0.384053	0.450998
H161	H	1.032395	-0.059435	0.000178
H162	H	1.532395	0.440565	0.500178
H163	H	0.987412	0.006360	0.634402
H164	H	1.487412	0.506360	1.134402
H165	H	0.987387	0.006349	0.365797
H166	H	1.487387	0.506349	0.865797
N167	N	0.785896	0.157288	0.376807
N168	N	1.285896	0.657288	0.876807
H169	H	0.814629	0.182479	0.411416
H170	H	1.314629	0.682479	0.911416
H171	H	0.753115	0.181811	0.337658
H172	H	1.253115	0.681811	0.837658
N173	N	1.104948	-0.506188	0.000109
N174	N	1.604948	-0.006188	0.500109
H175	H	1.107626	-0.531144	0.049258
H176	H	1.607626	-0.031144	0.549258
H177	H	1.107608	-0.531100	-0.049067
H178	H	1.607608	-0.031100	0.450933
H179	H	0.987382	0.006348	0.214405
H180	H	1.487382	0.506348	0.714405
N181	N	0.682046	-0.340390	0.000037
N182	N	1.182046	0.159610	0.500037
H183	H	0.679355	-0.315450	0.049188
H184	H	1.179355	0.184550	0.549188
H185	H	0.679401	-0.315463	-0.049137
H186	H	1.179401	0.184537	0.450863
H187	H	1.022182	-0.216401	0.000109
H188	H	1.522182	0.283599	0.500109
H189	H	0.283530	-0.018983	0.000124
H190	H	0.783530	0.481017	0.500124
N191	N	1.033562	-0.649103	0.000091
N192	N	1.533562	-0.149103	0.500091
H193	H	1.076826	-0.681292	0.000098
H194	H	1.576826	-0.181292	0.500098
H195	H	1.036971	-0.624751	-0.049057
H196	H	1.536971	-0.124751	0.450943
N197	N	0.744737	-0.743977	0.000041
N198	N	1.244737	-0.243977	0.500041
H199	H	0.754528	-0.787158	0.000038
H200	H	1.254528	-0.287158	0.500038
H201	H	0.714765	-0.730598	0.049186
H202	H	1.214765	-0.230598	0.549186
H203	H	0.799612	0.147058	0.785777
H204	H	1.299612	0.647058	1.285777
H205	H	0.799595	0.147051	0.634384
H206	H	1.299595	0.647051	1.134384
N207	N	0.093248	0.181192	0.000075
N208	N	0.593248	0.681192	0.500075
H209	H	0.038681	0.172647	0.000083
H210	H	0.538681	0.672647	0.500083
H211	H	0.102939	0.204020	0.049215
H212	H	0.602939	0.704020	0.549215
H213	H	0.799561	0.147039	0.214380
H214	H	1.299561	0.647039	0.714380
N215	N	0.257316	0.183164	0.000062
N216	N	0.757316	0.683164	0.500062
H217	H	0.239464	0.205685	0.049205
H218	H	0.739464	0.705685	0.549205
H219	H	0.314735	0.175919	0.000028
H220	H	0.814735	0.675919	0.500028
N221	N	0.490530	0.185971	0.000043
N222	N	0.990530	0.685971	0.500043
H223	H	0.435963	0.177425	0.000051
H224	H	0.935963	0.677425	0.500051
H225	H	0.500219	0.208801	0.049181
H226	H	1.000219	0.708801	0.549181
H227	H	1.088547	-0.388773	0.000110
H228	H	1.588547	0.111227	0.500110
N229	N	0.529672	-0.029762	0.000118
N230	N	1.029672	0.470238	0.500118
H231	H	0.472248	-0.022563	0.000120
H232	H	0.972248	0.477437	0.500120
H233	H	0.547579	-0.052260	-0.049022
H234	H	1.047579	0.447740	0.450978
H235	H	0.698442	-0.457808	0.000020
H236	H	1.198442	0.042192	0.500020
N237	N	1.031591	-0.772577	0.000080
N238	N	1.531591	-0.272577	0.500080
H239	H	1.034275	-0.797520	-0.049069
H240	H	1.534275	-0.297520	0.450931
H241	H	1.075709	-0.749070	0.000117
H242	H	1.575709	-0.249070	0.500117
N243	N	0.753431	-0.197497	0.000087
N244	N	1.253431	0.302503	0.500087
H245	H	0.710164	-0.165310	0.000086
H246	H	1.210164	0.334690	0.500086
H247	H	0.750039	-0.221831	-0.049067
H248	H	1.250039	0.278169	0.450933
N249	N	0.755396	-0.074023	0.000114
N250	N	1.255396	0.425977	0.500114
H251	H	0.766544	-0.032930	0.000123
H252	H	1.266544	0.467070	0.500123
H253	H	0.725095	-0.081386	-0.049035
H254	H	1.225095	0.418614	0.450965
H255	H	0.764811	-0.630189	0.000046
H256	H	1.264811	-0.130189	0.500046
