data_functionalizedCrystal
_audit_creation_method	'MofGen! by Chris Wilmer'
_symmetry_space_group_name_H-M	'P1'
_symmetry_Int_Tables_number	1
_symmetry_cell_setting	triclinic
loop_
_symmetry_equiv_pos_as_xyz
  x,y,z
_cell_length_a	11.792241
_cell_length_b	19.288864
_cell_length_c	10.868271
_cell_angle_alpha	89.981822
_cell_angle_beta	90.001559
_cell_angle_gamma	96.335169
loop_
_atom_site_label
_atom_site_type_symbol
_atom_site_fract_x
_atom_site_fract_y
_atom_site_fract_z
O1	O	0.141575	-0.922153	0.102718
O2	O	0.641575	-0.422153	0.602718
O3	O	0.160674	-0.720001	0.102634
O4	O	0.660674	-0.220001	0.602634
O5	O	-0.014120	-0.825982	0.102669
O6	O	0.485880	-0.325982	0.602669
O7	O	0.316370	-0.816171	0.102682
O8	O	0.816370	-0.316171	0.602682
O9	O	-0.014115	-0.825973	-0.101976
O10	O	0.485885	-0.325973	0.398024
O11	O	0.160680	-0.719991	-0.102011
O12	O	0.660680	-0.219991	0.397989
O13	O	0.141581	-0.922143	-0.101927
O14	O	0.641581	-0.422143	0.398073
Zn15	Zn	0.151131	-0.821066	-0.134461
Zn16	Zn	0.651131	-0.321066	0.365539
Zn17	Zn	0.151124	-0.821078	0.135167
Zn18	Zn	0.651124	-0.321078	0.635167
O19	O	0.316375	-0.816161	-0.101962
O20	O	0.816375	-0.316161	0.398038
C21	C	0.160063	-0.694116	0.000300
C22	C	0.660063	-0.194116	0.500300
C23	C	0.158218	-0.617002	0.000268
C24	C	0.658218	-0.117002	0.500268
C25	C	-0.056399	-0.825361	0.000347
C26	C	0.443601	-0.325361	0.500347
C27	C	-0.182385	-0.823517	0.000347
C28	C	0.317615	-0.323517	0.500347
C29	C	0.142192	-0.948028	0.000409
C30	C	0.642192	-0.448028	0.500409
C31	C	0.144037	-1.025142	0.000449
C32	C	0.644037	-0.525142	0.500449
C33	C	-0.413046	-0.820125	0.000366
C34	C	0.086954	-0.320125	0.500366
C35	C	-0.284689	-0.822009	0.000356
C36	C	0.215311	-0.322009	0.500356
C37	C	0.358654	-0.816782	0.000362
C38	C	0.858654	-0.316782	0.500362
C39	C	0.484640	-0.818627	0.000370
C40	C	0.984640	-0.318627	0.500370
N41	N	0.151136	-0.821062	-0.318475
N42	N	0.651136	-0.321062	0.181525
C43	C	0.260779	-0.572888	0.000292
C44	C	0.760779	-0.072888	0.500292
C45	C	0.259046	-0.500431	0.000305
C46	C	0.759046	-0.000431	0.500305
C47	C	0.154746	-0.472091	0.000320
C48	C	0.654746	0.027909	0.500320
C49	C	0.052171	-0.516215	0.000290
C50	C	0.552171	-0.016215	0.500290
C51	C	0.053907	-0.588670	0.000264
C52	C	0.553907	-0.088670	0.500264
C53	C	0.072752	-0.363367	0.072054
C54	C	0.572752	0.136633	0.572054
C55	C	0.071020	-0.290912	0.072088
C56	C	0.571020	0.209088	0.572088
C57	C	0.149387	-0.248615	0.000394
C58	C	0.649387	0.251385	0.500394
C59	C	0.229504	-0.278780	-0.071317
C60	C	0.729504	0.221220	0.428683
C61	C	0.231241	-0.351235	-0.071343
C62	C	0.731241	0.148765	0.428657
C63	C	0.152852	-0.393526	0.000347
C64	C	0.652852	0.106474	0.500347
C65	C	0.250076	-0.125935	0.000431
C66	C	0.750076	0.374065	0.500431
C67	C	0.248339	-0.053477	0.000436
C68	C	0.748339	0.446523	0.500436
C69	C	0.041460	-0.069262	0.000433
C70	C	0.541460	0.430738	0.500433
C71	C	0.043201	-0.141718	0.000415
C72	C	0.543201	0.358282	0.500415
C73	C	0.147512	-0.170050	0.000419
C74	C	0.647512	0.329950	0.500419
C75	C	0.151136	-0.821067	-0.429813
C76	C	0.651136	-0.321067	0.070187
C77	C	0.151125	-0.821076	-0.569490
C78	C	0.651125	-0.321076	-0.069490
N79	N	0.151110	-0.821087	0.319181
N80	N	0.651110	-0.321087	0.819181
H81	H	0.345717	-0.595951	0.000298
H82	H	0.845717	-0.095951	0.500298
C83	C	-0.062560	-0.485039	0.000307
C84	C	0.437440	0.014961	0.500307
N85	N	-0.148979	-0.461558	0.000317
N86	N	0.351021	0.038442	0.500317
C87	C	-0.069627	-0.190246	0.000404
C88	C	0.430373	0.309754	0.500404
N89	N	-0.154614	-0.226796	0.000393
N90	N	0.345386	0.273204	0.500393
H91	H	0.342567	-0.464507	0.000321
H92	H	0.842567	0.035493	0.500321
C93	C	0.361171	-0.004951	0.000444
C94	C	0.861171	0.495049	0.500444
N95	N	0.446158	0.031600	0.000447
N96	N	0.946158	0.531600	0.500447
H97	H	0.296472	-0.375792	-0.129736
H98	H	0.796472	0.124208	0.370264
C99	C	0.364819	-0.157102	0.000420
C100	C	0.864819	0.342898	0.500420
N101	N	0.451245	-0.180576	0.000410
N102	N	0.951245	0.319424	0.500410
H103	H	0.293318	-0.244342	-0.129697
H104	H	0.793318	0.255658	0.370303
C105	C	-0.073272	-0.038092	0.000448
C106	C	0.426728	0.461908	0.500448
N107	N	-0.159692	-0.014612	0.000457
N108	N	0.340308	0.485388	0.500457
C109	C	-0.017117	-0.257739	0.150962
C110	C	0.482883	0.242261	0.650962
N111	N	-0.083508	-0.232755	0.210368
N112	N	0.416492	0.267245	0.710368
C113	C	-0.013459	-0.409887	0.150934
C114	C	0.486541	0.090113	0.650934
N115	N	-0.078390	-0.444925	0.210346
N116	N	0.421610	0.055075	0.710346
C117	C	-0.058924	-0.637197	0.000246
C118	C	0.441076	-0.137197	0.500246
N119	N	-0.143910	-0.673749	0.000237
N120	N	0.356090	-0.173749	0.500237
