data_functionalizedCrystal
_audit_creation_method	'MofGen! by Chris Wilmer'
_symmetry_space_group_name_H-M	'P1'
_symmetry_Int_Tables_number	1
_symmetry_cell_setting	triclinic
loop_
_symmetry_equiv_pos_as_xyz
  x,y,z
_cell_length_a	14.044220
_cell_length_b	15.500227
_cell_length_c	14.044220
_cell_angle_alpha	93.086249
_cell_angle_beta	86.811122
_cell_angle_gamma	93.097991
loop_
_atom_site_label
_atom_site_type_symbol
_atom_site_fract_x
_atom_site_fract_y
_atom_site_fract_z
O1	O	1.281229	0.071855	-0.226116
O2	O	1.781229	0.571855	0.273884
O3	O	1.004559	0.071877	-0.217809
O4	O	1.504559	0.571877	0.282191
O5	O	1.138741	0.071858	-0.083627
O6	O	1.638741	0.571858	0.416373
O7	O	1.147047	0.071874	-0.360298
O8	O	1.647047	0.571874	0.139702
O9	O	1.130595	-0.072030	-0.091735
O10	O	1.630595	0.427970	0.408265
O11	O	0.996413	-0.072011	-0.225917
O12	O	1.496413	0.427989	0.274083
O13	O	1.273084	-0.072032	-0.234223
O14	O	1.773084	0.427968	0.265777
Cu15	Cu	1.134005	-0.085160	-0.230810
Cu16	Cu	1.634005	0.414840	0.269190
Cu17	Cu	1.143638	0.085004	-0.221222
Cu18	Cu	1.643638	0.585004	0.278778
O19	O	1.138902	-0.072013	-0.368405
O20	O	1.638902	0.427987	0.131595
C21	C	0.964865	-0.000064	-0.218227
C22	C	1.464865	0.499936	0.281773
C23	C	0.858722	-0.000056	-0.207382
C24	C	1.358722	0.499944	0.292618
N25	N	1.127236	-0.204844	-0.237554
N26	N	1.627236	0.295156	0.262446
C27	C	0.664383	-0.000074	-0.187557
C28	C	1.164383	0.499926	0.312443
C29	C	0.613254	-0.000073	-0.264471
C30	C	1.113254	0.499927	0.235529
C31	C	0.505117	-0.000084	-0.253440
C32	C	1.005117	0.499916	0.246560
C33	C	0.772530	-0.000064	-0.198586
C34	C	1.272530	0.499936	0.301414
C35	C	1.184118	-0.250128	-0.180721
C36	C	1.684118	0.249872	0.319279
C37	C	1.179008	-0.340700	-0.185831
C38	C	1.679008	0.159300	0.314169
C39	C	1.117022	-0.385986	-0.247779
C40	C	1.617022	0.114014	0.252221
C41	C	1.060135	-0.340695	-0.304614
C42	C	1.560135	0.159305	0.195386
C43	C	1.065240	-0.250125	-0.299499
C44	C	1.565240	0.249875	0.200501
C45	C	1.098631	-0.659450	-0.266191
C46	C	1.598631	-0.159450	0.233809
C47	C	1.093532	-0.750027	-0.271304
C48	C	1.593532	-0.250027	0.228696
C49	C	1.212405	-0.750026	-0.152519
C50	C	1.712405	-0.250026	0.347481
C51	C	1.217508	-0.659454	-0.147413
C52	C	1.717508	-0.159454	0.352587
C53	C	1.160617	-0.614171	-0.204245
C54	C	1.660617	-0.114171	0.295755
C55	C	1.111800	-0.478565	-0.253006
C56	C	1.611800	0.021435	0.246994
C57	C	1.165835	-0.521593	-0.199013
C58	C	1.665835	-0.021593	0.300987
C59	C	1.312778	-0.000089	-0.233805
C60	C	1.812778	0.499911	0.266195
C61	C	1.418921	-0.000092	-0.244650
C62	C	1.918921	0.499908	0.255350
C63	C	1.131032	-0.000086	-0.052059
C64	C	1.631032	0.499914	0.447941
C65	C	1.120188	-0.000086	0.054084
C66	C	1.620188	0.499914	0.554084
N67	N	1.150413	0.204688	-0.214471
N68	N	1.650413	0.704688	0.285529
C69	C	1.146610	-0.000068	-0.399973
C70	C	1.646610	0.499932	0.100027
C71	C	1.157455	-0.000062	-0.506116
C72	C	1.657455	0.499938	-0.006116
C73	C	1.100362	-0.000072	0.248422
C74	C	1.600362	0.499928	0.748422
C75	C	1.177276	-0.000076	0.299552
C76	C	1.677276	0.499924	0.799552
C77	C	1.166245	-0.000068	0.407688
C78	C	1.666245	0.499932	0.907688
C79	C	1.111392	-0.000080	0.140276
C80	C	1.611392	0.499920	0.640276
H81	H	0.650693	-0.000065	-0.338604
H82	H	1.150693	0.499935	0.161396
H83	H	1.251413	-0.000023	0.262116
H84	H	1.751413	0.499977	0.762116
H85	H	1.026235	-0.000064	0.285859
H86	H	1.526235	0.499936	0.785859
H87	H	0.626946	-0.000084	-0.113430
H88	H	1.126946	0.499916	0.386570
O89	O	1.250970	-0.201285	-0.113901
O90	O	1.750970	0.298715	0.386099
H91	H	1.289656	-0.247994	-0.075233
H92	H	1.789656	0.252006	0.424767
O93	O	1.240376	-0.389547	-0.124552
O94	O	1.740376	0.110453	0.375448
H95	H	1.284351	-0.342841	-0.080632
H96	H	1.784351	0.157159	0.419368
H97	H	1.267982	-0.622584	-0.096970
H98	H	1.767982	-0.122584	0.403030
H99	H	1.258722	-0.786904	-0.106249
H100	H	1.758722	-0.286904	0.393751
H101	H	1.043053	-0.786895	-0.321754
H102	H	1.543053	-0.286895	0.178246
H103	H	1.052309	-0.622588	-0.312467
H104	H	1.552309	-0.122588	0.187533
O105	O	1.232676	-0.472743	-0.132192
O106	O	1.732676	0.027257	0.367808
H107	H	1.307154	-0.490104	-0.151663
H108	H	1.807154	0.009896	0.348337
H109	H	1.018920	-0.213255	-0.345777
H110	H	1.518920	0.286745	0.154223
O111	O	0.993280	-0.389532	-0.371437
O112	O	1.493280	0.110468	0.128563
H113	H	0.999294	-0.460120	-0.365456
H114	H	1.499294	0.039880	0.134544
H115	H	1.061332	-0.515444	-0.303447
H116	H	1.561332	-0.015444	0.196553
