data_functionalizedCrystal
_audit_creation_method	'MofGen! by Chris Wilmer'
_symmetry_space_group_name_H-M	'P1'
_symmetry_Int_Tables_number	1
_symmetry_cell_setting	triclinic
loop_
_symmetry_equiv_pos_as_xyz
  x,y,z
_cell_length_a	16.959455
_cell_length_b	13.897441
_cell_length_c	16.959454
_cell_angle_alpha	90.026995
_cell_angle_beta	90.015068
_cell_angle_gamma	90.027951
loop_
_atom_site_label
_atom_site_type_symbol
_atom_site_fract_x
_atom_site_fract_y
_atom_site_fract_z
Zn1	Zn	-1.208417	-0.545640	0.314769
Zn2	Zn	-0.708417	-0.045640	0.814769
Zn3	Zn	-1.208330	-0.384348	0.446962
Zn4	Zn	-0.708330	0.115652	0.946962
Zn5	Zn	-1.076236	-0.384332	0.314790
Zn6	Zn	-0.576236	0.115668	0.814790
Zn7	Zn	-1.076211	-0.545575	0.446898
Zn8	Zn	-0.576211	-0.045575	0.946898
O9	O	-1.142298	-0.464973	0.380855
O10	O	-0.642298	0.035027	0.880855
O11	O	-1.319017	-0.524278	0.332323
O12	O	-0.819017	-0.024278	0.832323
O13	O	-1.190781	-0.249364	0.429465
O14	O	-0.690781	0.250636	0.929465
O15	O	-1.093817	-0.405750	0.204177
O16	O	-0.593817	0.094250	0.704177
O17	O	-1.318952	-0.405778	0.429445
O18	O	-0.818952	0.094222	0.929445
O19	O	-1.190931	-0.524262	0.204161
O20	O	-0.690931	-0.024262	0.704161
O21	O	-1.093733	-0.249352	0.332359
O22	O	-0.593733	0.250648	0.832359
O23	O	-0.965622	-0.405687	0.332297
O24	O	-0.465622	0.094313	0.832297
O25	O	-1.093774	-0.680565	0.429335
O26	O	-0.593774	-0.180565	0.929335
O27	O	-0.965603	-0.524151	0.429356
O28	O	-0.465603	-0.024151	0.929356
O29	O	-1.190906	-0.680613	0.332261
O30	O	-0.690906	-0.180613	0.832261
O31	O	-1.190757	-0.405715	0.557565
O32	O	-0.690757	0.094285	1.057565
O33	O	-1.093689	-0.524167	0.557518
O34	O	-0.593689	-0.024167	1.057518
C35	C	-0.936932	-0.464911	0.380822
C36	C	-0.436932	0.035089	0.880822
C37	C	-0.849076	-0.464907	0.380827
C38	C	-0.349076	0.035093	0.880827
C39	C	-0.477556	-0.403193	0.431353
C40	C	0.022444	0.096807	0.931353
C41	C	-0.477644	-0.526779	0.330376
C42	C	0.022356	-0.026779	0.830376
C43	C	-0.560190	-0.526761	0.330366
C44	C	-0.060190	-0.026761	0.830366
C45	C	-0.601423	-0.464959	0.380851
C46	C	-0.101423	0.035041	0.880851
C47	C	-0.560109	-0.403175	0.431346
C48	C	-0.060109	0.096825	0.931346
C49	C	-0.601509	-0.588551	0.279878
C50	C	-0.101509	-0.088551	0.779878
C51	C	-0.684060	-0.588537	0.279866
C52	C	-0.184060	-0.088537	0.779866
C53	C	-0.725295	-0.526729	0.330348
C54	C	-0.225295	-0.026729	0.830348
C55	C	-0.683976	-0.464942	0.380844
C56	C	-0.183976	0.035058	0.880844
C57	C	-0.725209	-0.403140	0.431329
C58	C	-0.225209	0.096860	0.931329
C59	C	-0.683892	-0.341347	0.481822
C60	C	-0.183892	0.158653	0.981822
C61	C	-0.601344	-0.341368	0.481827
C62	C	-0.101344	0.158632	0.981827
C63	C	-0.807843	-0.526708	0.330342
C64	C	-0.307843	-0.026708	0.830342
C65	C	-0.807762	-0.403122	0.431322
C66	C	-0.307762	0.096878	0.931322
C67	C	-1.142347	-0.716567	0.380789
C68	C	-0.642347	-0.216567	0.880789
C69	C	-1.142367	-0.823781	0.380760
C70	C	-0.642367	-0.323781	0.880760
C71	C	-1.142232	-0.464957	0.586221
C72	C	-0.642232	0.035043	1.086221
C73	C	-1.142276	-0.464982	0.674078
C74	C	-0.642276	0.035018	1.174078
C75	C	-0.348467	-0.465020	0.380880
C76	C	0.151533	0.034980	0.880880
C77	C	-0.436323	-0.464995	0.380868
C78	C	0.063677	0.035005	0.880868
C79	C	-1.142384	-0.910850	0.380738
C80	C	-0.642384	-0.410850	0.880738
C81	C	-1.142406	-1.020083	0.380703
C82	C	-0.642406	-0.520083	0.880703
C83	C	-1.142296	-0.214359	0.380864
C84	C	-0.642296	0.285641	0.880864
C85	C	-1.142428	-0.107146	0.380670
C86	C	-0.642428	0.392854	0.880670
C87	C	-1.142387	-0.465011	0.174687
C88	C	-0.642387	0.034989	0.674687
C89	C	-1.142424	-0.465027	0.086830
C90	C	-0.642424	0.034973	0.586830
C91	C	-1.091829	-0.526645	1.045559
C92	C	-0.591829	-0.026645	1.545559
C93	C	-1.192988	-0.403400	1.045548
C94	C	-0.692988	0.096600	1.545548
C95	C	-1.192961	-0.403391	0.963002
C96	C	-0.692961	0.096609	1.463002
C97	C	-1.142366	-0.465009	0.921731
C98	C	-0.642366	0.034991	1.421731
C99	C	-1.091798	-0.526636	0.963005
C100	C	-0.591798	-0.026636	1.463005
C101	C	-1.243522	-0.341759	0.921722
C102	C	-0.743522	0.158241	1.421722
C103	C	-1.243496	-0.341747	0.839171
C104	C	-0.743496	0.158253	1.339171
C105	C	-1.192904	-0.403370	0.797898
C106	C	-0.692904	0.096630	1.297898
C107	C	-1.142335	-0.465000	0.839177
C108	C	-0.642335	0.035000	1.339177
C109	C	-1.091739	-0.526618	0.797906
C110	C	-0.591739	-0.026618	1.297906
C111	C	-1.041174	-0.588254	0.839184
C112	C	-0.541174	-0.088254	1.339184
C113	C	-1.041206	-0.588259	0.921733
C114	C	-0.541206	-0.088259	1.421733
C115	C	-1.192872	-0.403364	0.715349
C116	C	-0.692872	0.096636	1.215349
C117	C	-1.091709	-0.526609	0.715352
C118	C	-0.591709	-0.026609	1.215352
H119	H	-0.444068	-0.577101	0.289278
H120	H	0.055932	-0.077101	0.789278
H121	H	-0.717474	-0.291033	0.522931
H122	H	-0.217474	0.208967	1.022931
O123	O	-1.247416	-0.336902	0.670836
O124	O	-0.747416	0.163098	1.170836
H125	H	-1.287595	-0.380132	0.633187
H126	H	-0.787595	0.119868	1.133187
O127	O	-0.852235	-0.336461	0.485772
O128	O	-0.352235	0.163539	0.985772
H129	H	-0.809635	-0.293504	0.520884
H130	H	-0.309635	0.206496	1.020884
H131	H	-0.567696	-0.291059	0.522936
H132	H	-0.067696	0.208941	1.022936
H133	H	-0.999975	-0.638419	0.805572
H134	H	-0.499975	-0.138419	1.305572
O135	O	-0.433002	-0.336544	0.485811
O136	O	0.066998	0.163456	0.985811
H137	H	-0.368673	-0.346936	0.477340
H138	H	0.131327	0.153064	0.977340
O139	O	-1.037284	-0.593108	1.090078
O140	O	-0.537284	-0.093108	1.590078
H141	H	-1.072648	-0.642232	1.127649
H142	H	-0.572648	-0.142232	1.627649
H143	H	-0.567932	-0.638873	0.238781
H144	H	-0.067932	-0.138873	0.738781
O145	O	-0.986655	-0.654715	0.966251
O146	O	-0.486655	-0.154715	1.466251
H147	H	-0.995167	-0.644354	1.030585
H148	H	-0.495167	-0.144354	1.530585
H149	H	-0.717694	-0.638852	0.238751
H150	H	-0.217694	-0.138852	0.738751
H151	H	-0.841479	-0.577021	0.289233
H152	H	-0.341479	-0.077021	0.789233
H153	H	-1.050511	-0.576790	0.681754
H154	H	-0.550511	-0.076790	1.181754
H155	H	-1.234176	-0.353228	1.079156
H156	H	-0.734176	0.146772	1.579156
O157	O	-1.298119	-0.275336	0.966231
O158	O	-0.798119	0.224664	1.466231
H159	H	-1.289661	-0.285720	1.030567
H160	H	-0.789661	0.214280	1.530567
H161	H	-1.284669	-0.291561	0.805567
H162	H	-0.784669	0.208439	1.305567
