data_functionalizedCrystal
_audit_creation_method	'MofGen! by Chris Wilmer'
_symmetry_space_group_name_H-M	'P1'
_symmetry_Int_Tables_number	1
_symmetry_cell_setting	triclinic
loop_
_symmetry_equiv_pos_as_xyz
  x,y,z
_cell_length_a	17.699097
_cell_length_b	11.792254
_cell_length_c	16.176319
_cell_angle_alpha	89.993043
_cell_angle_beta	89.988988
_cell_angle_gamma	83.743514
loop_
_atom_site_label
_atom_site_type_symbol
_atom_site_fract_x
_atom_site_fract_y
_atom_site_fract_z
O1	O	1.004842	0.143598	-0.068816
O2	O	0.784565	0.162255	-0.068802
O3	O	0.900044	-0.012307	-0.068803
O4	O	0.889363	0.318160	-0.068814
O5	O	0.900028	-0.012318	0.068690
O6	O	0.784549	0.162244	0.068691
O7	O	1.004826	0.143587	0.068678
Cu8	Cu	0.894686	0.152914	0.081238
Cu9	Cu	0.894705	0.152927	-0.081363
O10	O	0.889347	0.318149	0.068679
C11	C	0.756357	0.161578	-0.000054
C12	C	0.672328	0.159565	-0.000049
C13	C	0.899363	-0.054595	-0.000057
C14	C	0.897349	-0.180584	-0.000058
C15	C	0.156553	0.147231	-0.075029
C16	C	0.235507	0.149115	-0.075025
C17	C	0.274969	0.150053	-0.000074
C18	C	0.235474	0.149095	0.074877
C19	C	0.156522	0.147203	0.074873
C20	C	0.553879	0.156723	0.074899
C21	C	0.632836	0.158619	0.074898
C22	C	0.632864	0.158636	-0.074999
C23	C	0.553912	0.156744	-0.075004
C24	C	0.514424	0.155780	-0.000052
C25	C	0.428813	0.153735	-0.000058
C26	C	0.360578	0.152106	-0.000068
C27	C	0.895713	-0.282901	-0.000061
C28	C	0.893667	-0.411263	-0.000068
C29	C	1.033035	0.144263	-0.000073
C30	C	1.117063	0.146277	-0.000083
C31	C	0.890028	0.360437	-0.000069
C32	C	0.892042	0.486426	-0.000074
N33	N	0.894678	0.152904	0.195604
N34	N	0.894719	0.152928	-0.195728
C35	C	0.945828	0.075640	0.238867
C36	C	0.945832	0.075639	0.325414
C37	C	0.894689	0.152908	0.368696
C38	C	0.843534	0.230176	0.325427
C39	C	0.843527	0.230171	0.238881
C40	C	0.843560	0.230198	0.674455
C41	C	0.843572	0.230199	0.761006
C42	C	0.945865	0.075665	0.760988
C43	C	0.945858	0.075660	0.674443
C44	C	0.894700	0.152924	0.631181
C45	C	0.894696	0.152923	0.537336
C46	C	0.894697	0.152916	0.462539
H47	H	0.124428	0.146475	-0.136063
C48	C	0.511131	0.155511	0.156338
C49	C	0.538462	0.058379	0.201564
C50	C	0.499106	0.057232	0.276599
H51	H	0.458450	0.154186	0.145731
H52	H	0.518588	0.221944	0.187174
H53	H	0.530998	-0.008037	0.170734
H54	H	0.591137	0.059683	0.212193
H55	H	0.506564	0.123665	0.307436
H56	H	0.446428	0.055910	0.265985
H57	H	0.517650	-0.008665	0.307298
C58	C	0.278444	0.149924	-0.156369
C59	C	0.331867	0.053390	-0.160757
C60	C	0.371428	0.054088	-0.235686
H61	H	0.303816	0.216744	-0.159560
H62	H	0.243665	0.149041	-0.201034
H63	H	0.366641	0.054283	-0.116105
H64	H	0.306515	-0.013445	-0.157581
H65	H	0.336649	0.053205	-0.280351
H66	H	0.396795	0.120912	-0.238870
H67	H	0.407675	-0.011414	-0.238676
H68	H	0.987518	0.012749	0.796222
H69	H	0.521785	0.155986	-0.136036
H70	H	0.987506	0.012744	0.639205
H71	H	0.801875	0.293086	0.203657
H72	H	0.124369	0.146437	0.135901
C73	C	1.001339	-0.008422	0.372275
C74	C	0.988634	-0.119935	0.351222
C75	C	1.039765	-0.197403	0.394363
H76	H	0.994078	0.002479	0.430031
H77	H	1.051909	0.003761	0.358051
H78	H	0.938077	-0.132113	0.365452
H79	H	0.995901	-0.130872	0.293474
H80	H	1.090334	-0.185220	0.380139
H81	H	1.032499	-0.186492	0.452116
H82	H	1.031156	-0.273073	0.380079
H83	H	0.267611	0.149851	0.135904
H84	H	0.987478	0.012723	0.203633
H85	H	0.801907	0.293110	0.639238
H86	H	0.665025	0.159416	-0.136028
C87	C	0.787952	0.314140	0.807851
C88	C	0.743133	0.381781	0.751441
C89	C	0.691884	0.459103	0.794564
H90	H	0.815282	0.361451	0.841601
H91	H	0.756248	0.273388	0.841610
H92	H	0.774832	0.422529	0.717696
H93	H	0.715787	0.334501	0.717690
H94	H	0.660180	0.418352	0.828323
H95	H	0.719220	0.506407	0.828312
H96	H	0.661463	0.505000	0.756297
C97	C	0.787969	0.313888	0.372524
C98	C	0.741413	0.253514	0.422250
C99	C	0.690225	0.330593	0.465655
H100	H	0.757429	0.359936	0.334457
H101	H	0.815371	0.361070	0.406317
H102	H	0.714013	0.206351	0.388459
H103	H	0.771931	0.207469	0.460332
H104	H	0.717627	0.377776	0.499448
H105	H	0.659690	0.376638	0.427582
H106	H	0.658635	0.289641	0.499405
C107	C	0.675795	0.159450	0.156218
C108	C	0.729247	0.062948	0.160580
C109	C	0.768842	0.063683	0.235469
H110	H	0.641063	0.158545	0.200925
H111	H	0.701142	0.226314	0.159344
H112	H	0.703902	-0.003899	0.157462
H113	H	0.763995	0.063833	0.115890
H114	H	0.794188	0.130547	0.238595
H115	H	0.734104	0.062781	0.280170
H116	H	0.805118	-0.001786	0.238435
