data_functionalizedCrystal
_audit_creation_method	'MofGen! by Chris Wilmer'
_symmetry_space_group_name_H-M	'P1'
_symmetry_Int_Tables_number	1
_symmetry_cell_setting	triclinic
loop_
_symmetry_equiv_pos_as_xyz
  x,y,z
_cell_length_a	10.723024
_cell_length_b	10.540539
_cell_length_c	9.798715
_cell_angle_alpha	89.998989
_cell_angle_beta	89.996609
_cell_angle_gamma	84.496680
loop_
_atom_site_label
_atom_site_type_symbol
_atom_site_fract_x
_atom_site_fract_y
_atom_site_fract_z
O1	O	1.657276	0.178046	-0.113475
O2	O	1.294132	0.195088	-0.113479
O3	O	1.483989	0.001856	-0.113475
O4	O	1.467419	0.371278	-0.113479
O5	O	1.483974	0.001856	0.113507
O6	O	1.294118	0.195088	0.113503
O7	O	1.657262	0.178045	0.113507
Zn8	Zn	1.475687	0.186567	0.149543
Zn9	Zn	1.475706	0.186567	-0.149515
O10	O	1.467405	0.371277	0.113503
C11	C	1.247624	0.193848	0.000011
C12	C	1.109068	0.190137	0.000010
C13	C	1.034139	0.298260	0.000008
C14	C	0.890934	0.294427	0.000006
C15	C	1.482739	-0.045446	0.000013
C16	C	1.479021	-0.186392	0.000006
C17	C	1.336563	-0.369746	-0.000505
C18	C	1.340332	-0.223130	0.000006
C19	C	1.545757	-0.248085	0.129625
C20	C	1.541023	-0.394627	0.129734
C21	C	1.543860	-0.395146	-0.128387
C22	C	1.545138	-0.248165	-0.130101
C23	C	1.703769	0.179286	0.000013
C24	C	1.842325	0.182997	0.000006
C25	C	1.468654	0.418580	0.000012
C26	C	1.472372	0.559526	0.000010
N27	N	1.475684	0.186565	0.353643
N28	N	1.475720	0.186559	-0.353615
C29	C	1.555399	0.105075	0.421421
C30	C	1.555419	0.105071	0.578584
H31	H	1.287821	-0.180499	-0.092910
C32	C	0.678983	0.391406	0.000005
C33	C	0.804024	0.419390	0.000005
H34	H	0.625329	0.468557	0.000012
H35	H	0.663411	0.343355	-0.079145
H36	H	0.663405	0.343343	0.079163
H37	H	0.819605	0.467446	-0.079159
H38	H	0.819603	0.467462	0.079162
C39	C	1.306294	0.212859	0.514545
C40	C	1.383567	0.280748	0.432368
H41	H	1.249429	0.271007	0.563149
H42	H	1.260727	0.159808	0.458808
H43	H	1.356323	0.161735	0.577426
H44	H	1.333538	0.331865	0.369481
H45	H	1.429137	0.333821	0.488110
H46	H	0.906704	0.090430	-0.000001
C47	C	1.164685	0.436024	-0.116672
C48	C	1.090647	0.427062	0.000009
H49	H	1.199560	0.515547	-0.116671
H50	H	1.230242	0.368694	-0.116659
H51	H	1.114453	0.429931	-0.195819
H52	H	1.140882	0.433146	0.079156
H53	H	1.025081	0.494411	0.000008
H54	H	1.067199	0.094732	-0.000024
C55	C	1.142115	-0.346846	0.122642
C56	C	1.262887	-0.410479	0.124267
H57	H	1.096632	-0.372004	0.199668
H58	H	1.147508	-0.257471	0.125700
H59	H	1.100291	-0.367926	0.041463
H60	H	1.304714	-0.389392	0.205442
H61	H	1.257498	-0.499874	0.121222
C62	C	1.169058	-0.080512	0.083026
C63	C	1.268941	-0.166719	0.125653
H64	H	1.124982	-0.045697	0.160603
H65	H	1.200498	-0.013843	0.032074
H66	H	1.113943	-0.123542	0.027507
H67	H	1.324062	-0.123687	0.181164
H68	H	1.237502	-0.233399	0.176628
H69	H	1.407473	0.256334	0.588107
C70	C	1.439136	-0.323502	0.338043
C71	C	1.474411	-0.432669	0.260521
H72	H	1.398003	-0.346985	0.418781
H73	H	1.511562	-0.283065	0.361720
H74	H	1.383901	-0.266429	0.286204
H75	H	1.529654	-0.489739	0.312356
H76	H	1.401975	-0.473126	0.236846
H77	H	1.281784	-0.398318	-0.093457
H78	H	1.640766	-0.442646	0.135615
H79	H	1.647606	-0.225783	0.134445
H80	H	1.499387	-0.205461	0.226081
H81	H	1.498979	-0.426675	-0.226630
C82	C	1.564998	-0.133197	-0.339289
C83	C	1.479321	-0.192862	-0.259557
H84	H	1.524363	-0.099055	-0.419210
H85	H	1.596227	-0.066380	-0.288392
H86	H	1.632498	-0.193701	-0.364357
H87	H	1.411825	-0.132356	-0.234480
H88	H	1.448072	-0.259687	-0.310463
H89	H	1.646253	-0.223995	-0.137927
C90	C	1.742054	-0.418041	-0.244266
C91	C	1.679092	-0.458966	-0.129575
H92	H	1.825538	-0.457440	-0.244984
H93	H	1.700021	-0.440821	-0.324659
H94	H	1.743321	-0.328104	-0.240924
H95	H	1.677817	-0.548902	-0.132923
H96	H	1.721136	-0.436194	-0.049162
H97	H	1.623628	0.035306	0.363100
H98	H	1.623672	0.035308	0.636871
