data_functionalizedCrystal
_audit_creation_method	'MofGen! by Chris Wilmer'
_symmetry_space_group_name_H-M	'P1'
_symmetry_Int_Tables_number	1
_symmetry_cell_setting	triclinic
loop_
_symmetry_equiv_pos_as_xyz
  x,y,z
_cell_length_a	16.959454
_cell_length_b	13.032831
_cell_length_c	13.032268
_cell_angle_alpha	89.113023
_cell_angle_beta	97.150351
_cell_angle_gamma	97.174906
loop_
_atom_site_label
_atom_site_type_symbol
_atom_site_fract_x
_atom_site_fract_y
_atom_site_fract_z
Zn1	Zn	-0.533808	-1.498450	-0.780847
Zn2	Zn	-0.651576	-1.520186	-0.608869
Zn3	Zn	-0.500789	-1.348310	-0.587087
Zn4	Zn	-0.647302	-1.326434	-0.758994
O5	O	-0.583369	-1.423345	-0.683949
O6	O	-0.565038	-1.645253	-0.776295
O7	O	-0.619543	-1.515638	-0.462063
O8	O	-0.394566	-1.368285	-0.612819
O9	O	-0.651561	-1.661222	-0.649944
O10	O	-0.418826	-1.478592	-0.755173
O11	O	-0.508760	-1.389361	-0.446059
O12	O	-0.504616	-1.201488	-0.591629
O13	O	-0.644277	-1.331000	-0.905810
O14	O	-0.612259	-1.185416	-0.717929
O15	O	-0.560894	-1.457380	-0.921865
O16	O	-0.761611	-1.494425	-0.628754
O17	O	-0.758471	-1.352077	-0.739051
C18	C	-0.554392	-1.156135	-0.650045
C19	C	-0.542016	-1.041819	-0.635565
C20	C	-0.788724	-1.423261	-0.683921
C21	C	-0.876589	-1.423315	-0.683955
C22	C	-0.605792	-1.389325	-0.952197
C23	C	-0.615348	-1.374828	-1.066508
C24	C	-1.246472	-1.349320	-0.741386
C25	C	-1.249702	-1.497643	-0.626654
C26	C	-1.167152	-1.497608	-0.626640
C27	C	-1.124257	-1.423427	-0.683998
C28	C	-1.163913	-1.349281	-0.741371
C29	C	-1.127488	-1.571746	-0.569260
C30	C	-1.044932	-1.571713	-0.569243
C31	C	-1.002037	-1.497536	-0.626608
C32	C	-1.041698	-1.423388	-0.683984
C33	C	-0.998804	-1.349208	-0.741342
C34	C	-1.038465	-1.275063	-0.798724
C35	C	-1.121018	-1.275104	-0.798736
C36	C	-0.919484	-1.497495	-0.626597
C37	C	-0.916245	-1.349169	-0.741327
C38	C	-0.377216	-1.423454	-0.684004
C39	C	-0.289366	-1.423501	-0.684027
C40	C	-0.612460	-1.691598	-0.717986
C41	C	-0.624856	-1.805911	-0.732491
C42	C	-0.589828	-0.982940	-0.691506
C43	C	-0.577038	-0.864788	-0.676542
C44	C	-0.578351	-1.430895	-1.125415
C45	C	-0.588227	-1.415913	-1.243562
C46	C	-0.560982	-1.457291	-0.416753
C47	C	-0.551225	-1.471987	-0.302467
H48	H	-0.881326	-1.288765	-0.788040
H49	H	-1.278768	-1.288956	-0.788108
H50	H	-0.675257	-0.842968	-0.791474
H51	H	-0.512233	-1.531079	-1.265438
H52	H	-1.003530	-1.214661	-0.845421
H53	H	-1.162417	-1.632133	-0.522554
H54	H	-0.654327	-1.315729	-1.103542
H55	H	-1.012646	-1.632086	-0.522521
H56	H	-1.153317	-1.214739	-0.845452
H57	H	-1.284630	-1.558032	-0.579948
H58	H	-0.887195	-1.557858	-0.579871
H59	H	-0.627208	-1.356810	-1.280591
H60	H	-0.640227	-1.020003	-0.750482
H61	H	-0.526630	-0.827729	-0.617570
H62	H	-0.491612	-1.004755	-0.576597
H63	H	-0.539364	-1.489984	-1.088380
