data_functionalizedCrystal
_audit_creation_method	'MofGen! by Chris Wilmer'
_symmetry_space_group_name_H-M	'P1'
_symmetry_Int_Tables_number	1
_symmetry_cell_setting	triclinic
loop_
_symmetry_equiv_pos_as_xyz
  x,y,z
_cell_length_a	12.759395
_cell_length_b	17.077402
_cell_length_c	17.077396
_cell_angle_alpha	90.031388
_cell_angle_beta	89.985232
_cell_angle_gamma	89.975580
loop_
_atom_site_label
_atom_site_type_symbol
_atom_site_fract_x
_atom_site_fract_y
_atom_site_fract_z
Zn1	Zn	1.606149	0.312464	-0.443788
Zn2	Zn	1.939483	0.645797	-0.110454
Zn3	Zn	2.272816	0.979130	0.222879
Zn4	Zn	1.606033	0.443742	-0.312519
Zn5	Zn	1.939366	0.777075	0.020815
Zn6	Zn	2.272699	1.110409	0.354148
Zn7	Zn	1.430465	0.312498	-0.312541
Zn8	Zn	1.763799	0.645831	0.020793
Zn9	Zn	2.097132	0.979164	0.354126
Zn10	Zn	1.430415	0.443695	-0.443747
Zn11	Zn	1.763748	0.777028	-0.110414
Zn12	Zn	2.097082	1.110362	0.222919
O13	O	1.518266	0.378100	-0.378149
O14	O	1.851599	0.711433	-0.044815
O15	O	2.184932	1.044766	0.288518
O16	O	1.753155	0.329883	-0.426382
O17	O	2.086488	0.663217	-0.093049
O18	O	2.419822	0.996550	0.240285
O19	O	1.582715	0.426366	-0.202675
O20	O	1.916049	0.759700	0.130659
O21	O	2.249382	1.093033	0.463992
O22	O	1.453840	0.202646	-0.329977
O23	O	1.787173	0.535980	0.003356
O24	O	2.120507	0.869313	0.336690
O25	O	1.753069	0.426333	-0.329939
O26	O	2.086402	0.759666	0.003394
O27	O	2.419736	1.093000	0.336727
O28	O	1.582915	0.202621	-0.426404
O29	O	1.916248	0.535954	-0.093070
O30	O	2.249581	0.869288	0.240263
O31	O	1.453727	0.329942	-0.202691
O32	O	1.787060	0.663275	0.130642
O33	O	2.120393	0.996608	0.463976
O34	O	1.283437	0.329896	-0.329938
O35	O	1.616771	0.663229	0.003395
O36	O	1.950104	0.996563	0.336729
O37	O	1.453754	0.426253	-0.553600
O38	O	1.787088	0.759586	-0.220266
O39	O	2.120421	1.092919	0.113067
O40	O	1.283400	0.426286	-0.426335
O41	O	1.616734	0.759619	-0.093002
O42	O	1.950067	1.092952	0.240332
O43	O	1.582866	0.329838	-0.553629
O44	O	1.916199	0.663171	-0.220296
O45	O	2.249532	0.996504	0.113037
O46	O	1.582667	0.553583	-0.329900
O47	O	1.916000	0.886916	0.003433
O48	O	2.249333	1.220249	0.336766
O49	O	1.453641	0.553548	-0.426314
O50	O	1.786974	0.886881	-0.092980
O51	O	2.120308	1.220215	0.240353
C52	C	1.245298	0.378090	-0.378135
C53	C	1.578631	0.711423	-0.044802
C54	C	1.911965	1.044757	0.288532
C55	C	1.128521	0.378105	-0.378148
C56	C	1.461855	0.711438	-0.044815
C57	C	1.795188	1.044771	0.288519
C58	C	1.518164	0.582047	-0.378117
C59	C	1.851497	0.915381	-0.044784
C60	C	2.184831	1.248714	0.288549
C61	C	1.518217	0.669297	-0.378130
C62	C	1.851550	1.002631	-0.044797
C63	C	2.184884	1.335964	0.288537
C64	C	1.518317	0.378036	-0.582893
C65	C	1.851651	0.711369	-0.249560
C66	C	2.184984	1.044703	0.083774
C67	C	1.518340	0.378009	-0.670143
C68	C	1.851673	0.711342	-0.336810
C69	C	2.185006	1.044676	-0.003476
C70	C	1.128521	0.478638	-0.478364
C71	C	1.461855	0.811971	-0.145030
C72	C	1.795188	1.145305	0.188303
C73	C	1.073661	0.528911	-0.528474
C74	C	1.406994	0.862244	-0.195140
C75	C	1.740327	1.195577	0.138193
C76	C	0.963939	0.528920	-0.528483
C77	C	1.297272	0.862254	-0.195150
C78	C	1.630606	1.195587	0.138183
C79	C	0.909076	0.478650	-0.478379
C80	C	1.242409	0.811983	-0.145046
C81	C	1.575742	1.145317	0.188287
C82	C	0.963936	0.428377	-0.428269
C83	C	1.297270	0.761711	-0.094936
C84	C	1.630603	1.095044	0.238398
C85	C	1.073661	0.428375	-0.428263
C86	C	1.406994	0.761708	-0.094930
C87	C	1.740327	1.095041	0.238403
C88	C	0.963936	0.327841	-0.328059
C89	C	1.297270	0.661175	0.005275
C90	C	1.630603	0.994508	0.338608
C91	C	1.073658	0.327835	-0.328044
C92	C	1.406991	0.661168	0.005290
C93	C	1.740325	0.994501	0.338623
C94	C	0.909073	0.277571	-0.277954
C95	C	1.242406	0.610904	0.055379
C96	C	1.575740	0.944238	0.388712
C97	C	0.963934	0.227301	-0.227839
C98	C	1.297267	0.560634	0.105494
C99	C	1.630600	0.893968	0.438828
C100	C	1.073662	0.227294	-0.227831
C101	C	1.406995	0.560628	0.105503
C102	C	1.740329	0.893961	0.438836
C103	C	1.128519	0.277562	-0.277934
C104	C	1.461852	0.610895	0.055400
C105	C	1.795185	0.944228	0.388733
C106	C	1.792299	0.378110	-0.378163
C107	C	2.125632	0.711443	-0.044829
C108	C	2.458966	1.044776	0.288504
C109	C	1.909076	0.378114	-0.378169
C110	C	2.242409	0.711447	-0.044835
C111	C	2.575742	1.044781	0.288498
C112	C	1.518396	0.173355	-0.378197
C113	C	1.851729	0.506689	-0.044864
C114	C	2.185063	0.840022	0.288469
C115	C	1.518452	0.086105	-0.378218
C116	C	1.851785	0.419439	-0.044885
C117	C	2.185118	0.752772	0.288449
C118	C	1.585469	0.710279	-0.327982
C119	C	1.918802	1.043613	0.005352
C120	C	2.252136	1.376946	0.338685
C121	C	1.585520	0.792260	-0.328002
C122	C	1.918854	1.125593	0.005332
C123	C	2.252187	1.458926	0.338665
C124	C	1.518314	0.833257	-0.378167
C125	C	1.851647	1.166590	-0.044833
C126	C	2.184980	1.499923	0.288500
C127	C	1.451058	0.792269	-0.428321
C128	C	1.784392	1.125602	-0.094988
C129	C	2.117725	1.458935	0.238346
C130	C	1.451013	0.710290	-0.428304
C131	C	1.784346	1.043623	-0.094971
C132	C	2.117680	1.376956	0.238362
C133	C	1.451156	0.963139	-0.428351
C134	C	1.784489	1.296472	-0.095017
C135	C	2.117822	1.629805	0.238316
C136	C	1.451199	1.045123	-0.428366
C137	C	1.784533	1.378457	-0.095033
C138	C	2.117866	1.711790	0.238300
C139	C	1.585663	1.045109	-0.328048
C140	C	1.918996	1.378442	0.005285
C141	C	2.252330	1.711775	0.338619
C142	C	1.585618	0.963130	-0.328031
C143	C	1.918951	1.296463	0.005302
C144	C	2.252284	1.629796	0.338635
C145	C	1.518361	0.922148	-0.378185
C146	C	1.851694	1.255481	-0.044851
C147	C	2.185028	1.588814	0.288482
C148	C	1.585599	0.428126	-1.045951
C149	C	1.918933	0.761459	-0.712618
C150	C	2.252266	1.094792	-0.379285
C151	C	1.585573	0.428149	-0.963971
C152	C	1.918906	0.761482	-0.630638
C153	C	2.252239	1.094815	-0.297304
C154	C	1.518407	0.377953	-0.922992
C155	C	1.851741	0.711287	-0.589659
C156	C	2.185074	1.044620	-0.256325
C157	C	1.451256	0.327738	-0.963998
C158	C	1.784590	0.661071	-0.630664
C159	C	2.117923	0.994404	-0.297331
C160	C	1.451278	0.327719	-1.045977
C161	C	1.784612	0.661053	-0.712643
C162	C	2.117945	0.994386	-0.379310
C163	C	1.451217	0.327778	-0.793128
C164	C	1.784550	0.661112	-0.459794
C165	C	2.117884	0.994445	-0.126461
C166	C	1.451196	0.327795	-0.711143
C167	C	1.784529	0.661129	-0.377810
C168	C	2.117863	0.994462	-0.044476
C169	C	1.585511	0.428208	-0.711122
C170	C	1.918845	0.761541	-0.377788
C171	C	2.252178	1.094874	-0.044455
C172	C	1.585533	0.428189	-0.793101
C173	C	1.918867	0.761523	-0.459767
C174	C	2.252200	1.094856	-0.126434
C175	C	1.518384	0.377972	-0.834101
C176	C	1.851717	0.711305	-0.500768
C177	C	2.185050	1.044639	-0.167434
C178	C	1.518274	0.378106	-0.174201
C179	C	1.851608	0.711440	0.159133
C180	C	2.184941	1.044773	0.492466
C181	C	1.518456	0.377912	-0.086951
C182	C	1.851789	0.711246	0.246382
C183	C	2.185122	1.044579	0.579715
H184	H	1.217863	0.478641	-0.478355
H185	H	1.551196	0.811974	-0.145022
H186	H	1.884529	1.145308	0.188312
H187	H	1.217860	0.277563	-0.277930
H188	H	1.551193	0.610897	0.055404
H189	H	1.884527	0.944230	0.388737
H190	H	1.640283	0.825624	-0.287165
H191	H	1.973616	1.158957	0.046168
H192	H	2.306950	1.492291	0.379502
H193	H	1.640337	0.929750	-0.287179
H194	H	1.973671	1.263084	0.046154
H195	H	2.307004	1.596417	0.379487
H196	H	1.396251	0.676923	-0.469141
H197	H	1.729584	1.010256	-0.135808
H198	H	2.062918	1.343590	0.197525
H199	H	1.396507	0.286920	-0.677780
H200	H	1.729840	0.620253	-0.344447
H201	H	2.063174	0.953586	-0.011113
H202	H	1.118323	0.186350	-0.187030
H203	H	1.451657	0.519684	0.146303
H204	H	1.784990	0.853017	0.479636
H205	H	1.640298	0.468997	-1.079311
H206	H	1.973632	0.802330	-0.745977
H207	H	2.306965	1.135664	-0.412644
H208	H	0.919255	0.186371	-0.187052
H209	H	1.252589	0.519705	0.146281
H210	H	1.585922	0.853038	0.479615
Cl211	Cl	1.669956	0.658749	-0.264908
Cl212	Cl	2.003290	0.992082	0.068425
Cl213	Cl	2.336623	1.325415	0.401759
H214	H	1.640235	0.469047	-0.930592
H215	H	1.973568	0.802380	-0.597259
H216	H	2.306902	1.135714	-0.263926
H217	H	0.819732	0.277579	-0.277969
H218	H	1.153065	0.610912	0.055364
H219	H	1.486399	0.944246	0.388698
H220	H	1.396536	0.286886	-0.826507
H221	H	1.729869	0.620220	-0.493174
H222	H	2.063203	0.953553	-0.159841
H223	H	1.640231	0.469059	-0.826464
H224	H	1.973564	0.802392	-0.493130
H225	H	2.306897	1.135725	-0.159797
Cl226	Cl	1.670204	1.096629	-0.264991
Cl227	Cl	2.003538	1.429962	0.068342
Cl228	Cl	2.336871	1.763295	0.401676
Cl229	Cl	1.669925	0.491340	-0.659579
Cl230	Cl	2.003258	0.824674	-0.326246
Cl231	Cl	2.336591	1.158007	0.007087
Cl232	Cl	1.366833	0.264624	-0.912481
Cl233	Cl	1.700166	0.597957	-0.579148
Cl234	Cl	2.033500	0.931291	-0.245814
Cl235	Cl	0.894968	0.592116	-0.591484
Cl236	Cl	1.228301	0.925449	-0.258150
Cl237	Cl	1.561635	1.258783	0.075183
H238	H	1.396493	1.078501	-0.469230
H239	H	1.729826	1.411834	-0.135897
H240	H	2.063160	1.745167	0.197437
Cl241	Cl	1.366575	0.843808	-0.491391
Cl242	Cl	1.699908	1.177141	-0.158057
Cl243	Cl	2.033242	1.510474	0.175276
Cl244	Cl	1.366605	0.911619	-0.491403
Cl245	Cl	1.699938	1.244953	-0.158070
Cl246	Cl	2.033271	1.578286	0.175264
Cl247	Cl	1.142636	0.592110	-0.591453
Cl248	Cl	1.475969	0.925443	-0.258120
Cl249	Cl	1.809303	1.258776	0.075213
Cl250	Cl	0.771139	0.478653	-0.478404
Cl251	Cl	1.104472	0.811986	-0.145071
Cl252	Cl	1.437806	1.145319	0.188263
Cl253	Cl	1.366871	0.264587	-1.097520
Cl254	Cl	1.700204	0.597920	-0.764187
Cl255	Cl	2.033538	0.931254	-0.430853
