data_functionalizedCrystal
_audit_creation_method	'MofGen! by Chris Wilmer'
_symmetry_space_group_name_H-M	'P1'
_symmetry_Int_Tables_number	1
_symmetry_cell_setting	triclinic
loop_
_symmetry_equiv_pos_as_xyz
  x,y,z
_cell_length_a	19.805407
_cell_length_b	18.050589
_cell_length_c	19.805399
_cell_angle_alpha	90.022294
_cell_angle_beta	90.019573
_cell_angle_gamma	90.028221
loop_
_atom_site_label
_atom_site_type_symbol
_atom_site_fract_x
_atom_site_fract_y
_atom_site_fract_z
Zn1	Zn	1.034727	-0.295677	0.382745
Zn2	Zn	1.034638	-0.419869	0.269567
Zn3	Zn	0.921542	-0.295697	0.269569
Zn4	Zn	0.921502	-0.419829	0.382713
O5	O	0.978102	-0.357768	0.326148
O6	O	1.129432	-0.312159	0.367743
O7	O	1.019616	-0.403422	0.174850
O8	O	0.936610	-0.191770	0.284596
O9	O	1.129367	-0.403402	0.284592
O10	O	1.019767	-0.191755	0.367746
O11	O	0.936524	-0.312194	0.174852
O12	O	0.826820	-0.312156	0.284566
O13	O	0.936542	-0.403335	0.477434
O14	O	0.826791	-0.403355	0.367693
O15	O	1.019728	-0.312121	0.477457
O16	O	1.019577	-0.523788	0.284562
O17	O	0.936456	-0.523759	0.367690
C18	C	0.802246	-0.357754	0.326127
C19	C	0.727014	-0.357766	0.326133
C20	C	0.691673	-0.405325	0.369347
C21	C	0.620984	-0.405326	0.369357
C22	C	0.585639	-0.357771	0.326148
C23	C	0.620985	-0.310207	0.282933
C24	C	0.691673	-0.310203	0.282927
C25	C	0.335912	-0.310224	0.282955
C26	C	0.265220	-0.310233	0.282962
C27	C	0.265224	-0.405347	0.369385
C28	C	0.335911	-0.405342	0.369379
C29	C	0.371251	-0.357776	0.326166
C30	C	0.447900	-0.357774	0.326157
C31	C	0.508992	-0.357776	0.326153
C32	C	0.978021	-0.550720	0.326137
C33	C	0.978048	-0.633266	0.326155
C34	C	0.932891	-0.832728	0.371344
C35	C	0.916392	-0.882167	0.309581
C36	C	0.978114	-0.784396	0.326164
C37	C	0.994646	-0.882039	0.387934
C38	C	0.978177	-0.930381	0.326178
C39	C	0.961583	-0.832748	0.264368
C40	C	1.039865	-0.832616	0.342762
C41	C	1.023390	-0.882033	0.280957
C42	C	0.978076	-0.700298	0.326157
C43	C	0.978215	-1.014478	0.326178
C44	C	1.154645	-0.357783	0.326171
C45	C	1.229877	-0.357789	0.326180
C46	C	0.978140	-0.357721	0.502691
C47	C	0.978156	-0.357701	0.577923
C48	C	0.978203	-0.164062	0.326175
C49	C	0.978246	-0.081517	0.326186
C50	C	0.978103	-0.357761	0.150292
C51	C	0.978218	-0.357572	0.075061
C52	C	1.021472	-0.310204	0.613280
C53	C	1.021479	-0.310182	0.683969
C54	C	0.978173	-0.357662	0.719299
C55	C	0.934852	-0.405162	0.683937
C56	C	0.934843	-0.405180	0.613250
C57	C	0.934891	-0.405093	0.969010
C58	C	0.934905	-0.405074	1.039702
C59	C	1.021527	-0.310096	1.039729
C60	C	1.021518	-0.310113	0.969042
C61	C	0.978195	-0.357609	0.933686
C62	C	0.978187	-0.357631	0.857038
C63	C	0.978184	-0.357645	0.795946
H64	H	0.236444	-0.271504	0.247777
N65	N	1.065730	-0.261659	0.720075
N66	N	1.104396	-0.219274	0.688522
H67	H	1.135651	-0.185002	0.714021
H68	H	0.899563	-0.443850	0.584463
H69	H	0.899637	-0.443740	1.068466
N70	N	0.371995	-0.261637	0.238807
N71	N	0.340426	-0.219187	0.200229
H72	H	0.365911	-0.184872	0.169045
N73	N	0.850912	-0.909462	0.291975
N74	N	0.801023	-0.893681	0.327834
H75	H	0.754776	-0.912956	0.315404
N76	N	0.727765	-0.261610	0.238787
N77	N	0.696201	-0.219151	0.200214
H78	H	0.721690	-0.184827	0.169041
N79	N	0.584873	-0.261630	0.238805
N80	N	0.521760	-0.261640	0.238815
H81	H	0.496255	-0.227332	0.207648
H82	H	0.592212	-0.444054	0.404545
N83	N	0.943989	-0.805693	0.198829
N84	N	0.941094	-0.737504	0.188254
H85	H	0.928662	-0.718393	0.141970
N86	N	0.884841	-0.805573	0.419206
N87	N	0.823729	-0.821490	0.412929
H88	H	0.789792	-0.802312	0.446728
H89	H	1.056801	-0.271419	1.068525
H90	H	1.061661	-0.903545	0.242711
N91	N	1.105324	-0.805282	0.360379
N92	N	1.155399	-0.821945	0.325114
H93	H	1.201630	-0.802637	0.337561
N94	N	1.012146	-0.909204	0.453460
N95	N	0.976189	-0.893396	0.503276
H96	H	0.988542	-0.912579	0.549555
N97	N	0.727774	-0.453913	0.413474
N98	N	0.719849	-0.522434	0.408876
H99	H	0.745345	-0.556751	0.440042
H100	H	1.056740	-0.271542	0.584520
H101	H	1.056784	-0.271452	0.940280
N102	N	0.890631	-0.453602	0.932906
N103	N	0.828180	-0.448665	0.940798
H104	H	0.796917	-0.482927	0.915299
N105	N	0.372004	-0.453928	0.413515
N106	N	0.340440	-0.496388	0.452097
H107	H	0.365929	-0.530703	0.483271
N108	N	0.229113	-0.453933	0.413523
N109	N	0.166000	-0.453934	0.413525
H110	H	0.140496	-0.488249	0.444694
N111	N	0.890614	-0.453652	0.720034
N112	N	0.890628	-0.453632	0.783147
H113	H	0.859385	-0.487879	0.808640
