data_functionalizedCrystal
_audit_creation_method	'MofGen! by Chris Wilmer'
_symmetry_space_group_name_H-M	'P1'
_symmetry_Int_Tables_number	1
_symmetry_cell_setting	triclinic
loop_
_symmetry_equiv_pos_as_xyz
  x,y,z
_cell_length_a	12.645331
_cell_length_b	13.897448
_cell_length_c	13.897441
_cell_angle_alpha	89.969401
_cell_angle_beta	90.022081
_cell_angle_gamma	89.983329
loop_
_atom_site_label
_atom_site_type_symbol
_atom_site_fract_x
_atom_site_fract_y
_atom_site_fract_z
Zn1	Zn	1.620725	0.384010	0.545416
Zn2	Zn	1.954058	0.717344	0.878749
Zn3	Zn	2.287392	1.050677	1.212083
Zn4	Zn	1.620609	0.545332	0.384117
Zn5	Zn	1.953942	0.878665	0.717451
Zn6	Zn	2.287275	1.211999	1.050784
Zn7	Zn	1.443441	0.384050	0.384130
Zn8	Zn	1.776775	0.717383	0.717464
Zn9	Zn	2.110108	1.050717	1.050797
Zn10	Zn	1.443421	0.545262	0.545366
Zn11	Zn	1.776755	0.878596	0.878699
Zn12	Zn	2.110088	1.211929	1.212033
O13	O	1.532049	0.464664	0.464757
O14	O	1.865382	0.797997	0.798091
O15	O	2.198716	1.131330	1.131424
O16	O	1.769057	0.405423	0.524035
O17	O	2.102390	0.738756	0.857368
O18	O	2.435723	1.072089	1.190701
O19	O	1.597067	0.523983	0.249137
O20	O	1.930400	0.857317	0.582471
O21	O	2.263733	1.190650	0.915804
O22	O	1.467016	0.249063	0.405552
O23	O	1.800349	0.582396	0.738885
O24	O	2.133682	0.915730	1.072218
O25	O	1.768971	0.523945	0.405529
O26	O	2.102305	0.857278	0.738862
O27	O	2.435638	1.190612	1.072196
O28	O	1.597265	0.249034	0.524047
O29	O	1.930598	0.582367	0.857381
O30	O	2.263932	0.915701	1.190714
O31	O	1.466903	0.405490	0.249147
O32	O	1.800236	0.738823	0.582480
O33	O	2.133569	1.072157	0.915814
O34	O	1.295092	0.405422	0.405503
O35	O	1.628425	0.738756	0.738837
O36	O	1.961758	1.072089	1.072170
O37	O	1.466981	0.523826	0.680354
O38	O	1.800315	0.857159	1.013688
O39	O	2.133648	1.190493	1.347021
O40	O	1.295077	0.523864	0.523962
O41	O	1.628410	0.857198	0.857296
O42	O	1.961743	1.190531	1.190629
O43	O	1.597246	0.405355	0.680391
O44	O	1.930579	0.738688	1.013724
O45	O	2.263912	1.072022	1.347058
O46	O	1.597047	0.680304	0.405481
O47	O	1.930380	1.013638	0.738814
O48	O	2.263714	1.346971	1.072148
O49	O	1.466868	0.680253	0.523950
O50	O	1.800202	1.013586	0.857283
O51	O	2.133535	1.346920	1.190616
C52	C	1.531972	0.715278	0.464729
C53	C	1.865305	1.048611	0.798063
C54	C	2.198638	1.381945	1.131396
C55	C	1.532036	0.822492	0.464750
C56	C	1.865369	1.155825	0.798083
C57	C	2.198702	1.489159	1.131416
C58	C	1.256619	0.464641	0.464729
C59	C	1.589953	0.797974	0.798063
C60	C	1.923286	1.131307	1.131396
C61	C	1.138789	0.464654	0.464740
C62	C	1.472123	0.797987	0.798074
C63	C	1.805456	1.131321	1.131407
C64	C	1.532124	0.464578	0.716350
C65	C	1.865458	0.797912	1.049684
C66	C	2.198791	1.131245	1.383017
C67	C	1.532156	0.464542	0.823564
C68	C	1.865490	0.797875	1.156898
C69	C	2.198823	1.131209	1.490231
C70	C	0.971199	0.389800	0.390629
C71	C	1.304533	0.723133	0.723962
C72	C	1.637866	1.056466	1.057296
C73	C	1.093759	0.389993	0.390302
C74	C	1.427092	0.723327	0.723636
C75	C	1.760426	1.056660	1.056969
C76	C	1.094269	0.566268	0.436969
C77	C	1.427603	0.899601	0.770302
C78	C	1.760936	1.232935	1.103636
C79	C	0.971671	0.565859	0.436463
C80	C	1.305004	0.899192	0.769797
C81	C	1.638338	1.232526	1.103130
C82	C	0.971639	0.438862	0.566909
C83	C	1.304972	0.772196	0.900243
C84	C	1.638305	1.105529	1.233576
C85	C	1.094245	0.436592	0.566342
C86	C	1.427578	0.769926	0.899675
C87	C	1.760911	1.103259	1.233009
C88	C	1.808554	0.464687	0.464786
C89	C	2.141888	0.798021	0.798119
C90	C	2.475221	1.131354	1.131453
C91	C	1.926384	0.464697	0.464798
C92	C	2.259718	0.798031	0.798131
C93	C	2.593051	1.131364	1.131465
C94	C	1.532156	0.213071	0.464807
C95	C	1.865489	0.546404	0.798140
C96	C	2.198822	0.879737	1.131473
C97	C	1.532201	0.105857	0.464827
C98	C	1.865534	0.439190	0.798161
C99	C	2.198868	0.772523	1.131494
C100	C	1.532147	1.018787	0.464810
C101	C	1.865480	1.352120	0.798144
C102	C	2.198814	1.685454	1.131477
C103	C	1.532082	0.909554	0.464780
C104	C	1.865415	1.242888	0.798113
C105	C	2.198749	1.576221	1.131446
C106	C	1.532035	0.464679	0.214143
C107	C	1.865369	0.798012	0.547476
C108	C	2.198702	1.131346	0.880810
C109	C	1.532209	0.464444	0.106930
C110	C	1.865542	0.797777	0.440263
C111	C	2.198875	1.131110	0.773596
C112	C	1.532185	0.464477	1.019860
C113	C	1.865518	0.797810	1.353193
C114	C	2.198852	1.131143	1.686526
C115	C	1.532166	0.464516	0.910627
C116	C	1.865499	0.797849	1.243961
C117	C	2.198833	1.131182	1.577294
H118	H	0.941735	0.314222	0.407850
H119	H	1.275068	0.647556	0.741183
H120	H	1.608402	0.980889	1.074516
H121	H	1.124902	0.487165	0.624560
H122	H	1.458235	0.820498	0.957893
H123	H	1.791568	1.153831	1.291226
O124	O	1.134857	0.595793	0.339145
O125	O	1.468191	0.929127	0.672479
O126	O	1.801524	1.262460	1.005812
H127	H	1.186724	0.538266	0.310149
H128	H	1.520058	0.871599	0.643482
H129	H	1.853391	1.204932	0.976816
H130	H	0.942659	0.493415	0.622172
H131	H	1.275993	0.826748	0.955505
H132	H	1.609326	1.160081	1.288839
O133	O	1.132905	0.642167	0.506277
O134	O	1.466238	0.975501	0.839610
O135	O	1.799572	1.308834	1.172943
H136	H	1.100325	0.713253	0.485064
H137	H	1.433659	1.046587	0.818397
H138	H	1.766992	1.379920	1.151730
H139	H	0.940742	0.366059	0.592165
H140	H	1.274075	0.699392	0.925498
H141	H	1.607408	1.032725	1.258832
O142	O	1.133644	0.290179	0.413328
O143	O	1.466978	0.623512	0.746661
O144	O	1.800311	0.956846	1.079995
H145	H	1.065366	0.241335	0.424795
H146	H	1.398700	0.574668	0.758129
H147	H	1.732033	0.908001	1.091462
O148	O	0.930375	0.412175	0.290976
O149	O	1.263708	0.745509	0.624310
O150	O	1.597041	1.078842	0.957643
H151	H	0.878302	0.476408	0.294043
H152	H	1.211636	0.809741	0.627377
H153	H	1.544969	1.143075	0.960710
O154	O	1.132558	0.412567	0.290064
O155	O	1.465891	0.745900	0.623397
O156	O	1.799225	1.079234	0.956731
H157	H	1.063754	0.423404	0.241637
H158	H	1.397087	0.756737	0.574970
H159	H	1.730421	1.090071	0.908304
O160	O	0.933713	0.594864	0.337583
O161	O	1.267047	0.928198	0.670916
O162	O	1.600380	1.261531	1.004249
H163	H	1.002923	0.609046	0.290574
H164	H	1.336256	0.942380	0.623908
H165	H	1.669590	1.275713	0.957241
O166	O	1.132794	0.337546	0.594095
O167	O	1.466127	0.670879	0.927429
O168	O	1.799460	1.004212	1.260762
H169	H	1.183473	0.308418	0.535779
H170	H	1.516806	0.641752	0.869113
H171	H	1.850140	0.975085	1.202446
H172	H	0.942026	0.623553	0.488129
H173	H	1.275359	0.956886	0.821462
H174	H	1.608692	1.290220	1.154796
