data_functionalizedCrystal
_audit_creation_method	'MofGen! by Chris Wilmer'
_symmetry_space_group_name_H-M	'P1'
_symmetry_Int_Tables_number	1
_symmetry_cell_setting	triclinic
loop_
_symmetry_equiv_pos_as_xyz
  x,y,z
_cell_length_a	15.537862
_cell_length_b	14.044190
_cell_length_c	14.185569
_cell_angle_alpha	75.616153
_cell_angle_beta	97.877082
_cell_angle_gamma	70.228106
loop_
_atom_site_label
_atom_site_type_symbol
_atom_site_fract_x
_atom_site_fract_y
_atom_site_fract_z
O1	O	1.205823	-0.271296	-0.083339
O2	O	0.940488	-0.164895	-0.083363
O3	O	1.069174	-0.354715	-0.083331
O4	O	1.077137	-0.081476	-0.083370
O5	O	1.107189	-0.410785	0.083513
O6	O	0.978503	-0.220965	0.083481
O7	O	1.243838	-0.327366	0.083505
Cu8	Cu	1.114642	-0.279285	0.098727
Cu9	Cu	1.069684	-0.212976	-0.098585
O10	O	1.115152	-0.137546	0.083474
C11	C	0.925333	-0.181798	0.000057
C12	C	0.823539	-0.148636	0.000048
C13	C	0.676203	-0.014223	0.000025
C14	C	0.771854	-0.045393	0.000032
C15	C	0.779587	-0.220752	0.000062
C16	C	0.683936	-0.189598	0.000060
C17	C	0.632251	-0.086332	0.000040
C18	C	0.639984	-0.261708	0.000074
C19	C	0.544340	-0.230554	0.000067
C20	C	0.492648	-0.127291	0.000044
C21	C	0.536607	-0.055178	0.000032
C22	C	0.691669	-0.364971	0.000087
C23	C	0.647717	-0.437080	0.000102
C24	C	0.552073	-0.405929	0.000101
C25	C	0.500381	-0.302667	0.000079
C26	C	0.508114	-0.478042	0.000113
C27	C	0.412470	-0.446889	0.000105
C28	C	0.404737	-0.271513	0.000071
C29	C	1.084695	-0.416866	0.000093
C30	C	1.074294	-0.518515	0.000101
C31	C	1.129046	-0.787633	0.000067
C32	C	1.055282	-0.704621	0.000067
C33	C	1.065863	-0.601063	0.000086
C34	C	1.118467	-0.891202	0.000048
C35	C	1.258993	-0.310463	0.000084
C36	C	1.360785	-0.343622	0.000086
C37	C	1.099631	-0.075395	0.000047
C38	C	1.110030	0.026256	0.000033
N39	N	1.146269	-0.325927	0.237506
N40	N	1.038064	-0.166345	-0.237363
C41	C	0.945139	-0.029353	0.605107
C42	C	0.969103	-0.064679	0.710134
C43	C	1.083084	-0.232727	0.710123
C44	C	1.059126	-0.197417	0.605094
C45	C	0.990153	-0.095728	0.552594
C46	C	1.104140	-0.263792	0.552581
C47	C	1.080188	-0.228482	0.447560
C48	C	1.011220	-0.126797	0.395053
C49	C	0.966201	-0.060419	0.447574
C50	C	1.173117	-0.365477	0.605082
C51	C	1.218132	-0.431853	0.552569
C52	C	1.194175	-0.396546	0.447547
C53	C	1.125207	-0.294861	0.395040
C54	C	1.239194	-0.462925	0.395026
C55	C	1.215241	-0.427615	0.290006
C56	C	1.101254	-0.259551	0.290019
H57	H	0.362655	-0.187428	0.000068
Br58	Br	0.717868	-0.577222	0.000127
Br59	Br	0.872580	0.077582	0.376318
Br60	Br	1.247539	-0.776457	0.000091
H61	H	0.550208	-0.562118	0.000119
H62	H	0.494525	0.028907	0.000030
Br63	Br	1.311739	-0.569852	0.623825
Br64	Br	1.007634	-0.121550	0.218764
Br65	Br	0.849738	-0.360894	0.000087
Br66	Br	0.936783	-0.715795	0.000052
Br67	Br	0.352816	-0.544753	0.000133
H68	H	0.991722	-0.098047	0.309539
H69	H	0.634121	0.069862	0.000023
Br70	Br	0.851518	0.108648	0.533852
H71	H	0.414768	-0.101927	0.000034
H72	H	1.295359	-0.545716	0.437785
H73	H	1.251898	-0.481665	0.247249
H74	H	1.192620	-0.394220	0.690597
H75	H	0.932441	-0.010618	0.752886
Br76	Br	1.176691	-0.370726	0.781379
H77	H	0.769544	-0.390326	0.000074
Br78	Br	0.831500	0.052483	0.000008
