data_functionalizedCrystal
_audit_creation_method	'MofGen! by Chris Wilmer'
_symmetry_space_group_name_H-M	'P1'
_symmetry_Int_Tables_number	1
_symmetry_cell_setting	triclinic
loop_
_symmetry_equiv_pos_as_xyz
  x,y,z
_cell_length_a	34.490303
_cell_length_b	34.489386
_cell_length_c	34.485816
_cell_angle_alpha	60.004462
_cell_angle_beta	60.008900
_cell_angle_gamma	59.994399
loop_
_atom_site_label
_atom_site_type_symbol
_atom_site_fract_x
_atom_site_fract_y
_atom_site_fract_z
O1	O	0.053846	-0.566517	0.473678
O2	O	0.020329	-0.441078	0.381663
O3	O	0.099768	-0.520436	0.381578
O4	O	-0.025592	-0.487159	0.473762
O5	O	0.126127	-0.494082	0.407849
O6	O	0.046689	-0.414724	0.407933
O7	O	0.080206	-0.540163	0.499949
Zn8	Zn	0.067632	-0.473259	0.458112
Zn9	Zn	0.032903	-0.507982	0.423499
O10	O	0.000767	-0.460805	0.500033
N11	N	0.091336	-0.449565	0.481736
N12	N	0.009203	-0.531680	0.399875
C13	C	0.142510	-0.268211	0.532817
C14	C	0.142641	-0.398441	0.662987
C15	C	0.142524	-0.398421	0.532817
C16	C	0.272762	-0.398394	0.532723
C17	C	0.156853	-0.311177	0.547124
C18	C	0.156928	-0.384109	0.620020
C19	C	0.229794	-0.384081	0.547073
C20	C	0.156863	-0.384097	0.547124
C21	C	0.124253	-0.213522	0.514606
C22	C	0.124277	-0.416652	0.514606
C23	C	0.175110	-0.365866	0.565335
C24	C	0.352285	-0.384669	0.490824
C25	C	0.401998	-0.401229	0.474223
C26	C	0.402027	-0.481671	0.504898
C27	C	0.352316	-0.465109	0.521500
C28	C	0.136220	-0.188652	0.465734
C29	C	0.119621	-0.138936	0.449181
C30	C	0.079092	-0.138961	0.530374
C31	C	0.095691	-0.188678	0.546927
C32	C	0.075398	-0.404656	0.526651
C33	C	0.058814	-0.421229	0.510091
C34	C	0.139984	-0.461794	0.469452
C35	C	0.156570	-0.445221	0.486007
C36	C	0.075593	-0.404694	0.742565
C37	C	0.059066	-0.421281	0.792280
C38	C	0.140274	-0.461856	0.792215
C39	C	0.156800	-0.445269	0.742499
C40	C	0.124458	-0.416687	0.717675
C41	C	0.327446	-0.416608	0.514460
C42	C	-0.023585	-0.564792	0.161919
C43	C	-0.023910	-0.769260	0.366530
C44	C	-0.023880	-0.564780	0.366623
C45	C	-0.228325	-0.564561	0.366222
C46	C	-0.129610	-0.597564	0.333467
C47	C	-0.056729	-0.597644	0.333613
C48	C	-0.074925	-0.615849	0.315324
C49	C	-0.088689	-0.695351	0.357144
C50	C	-0.072155	-0.745068	0.373736
C51	C	0.008283	-0.745150	0.343188
C52	C	-0.008252	-0.695435	0.326596
C53	C	-0.154529	-0.609541	0.382326
C54	C	-0.204241	-0.592916	0.398818
C55	C	-0.204114	-0.552341	0.317588
C56	C	-0.154401	-0.568966	0.301096
C57	C	-0.068707	-0.548770	0.321590
C58	C	-0.052166	-0.532225	0.338221
C59	C	-0.011669	-0.613425	0.378886
C60	C	-0.028210	-0.629972	0.362261
C61	C	-0.068581	-0.548777	0.235758
C62	C	-0.051939	-0.532234	0.186043
C63	C	-0.011379	-0.613438	0.186090
C64	C	-0.028020	-0.629981	0.235806
C65	C	-0.056622	-0.597649	0.260639
C66	C	-0.056739	-0.670537	0.333576
C67	C	-0.005614	-0.545951	0.107238
C68	C	-0.006360	-0.823943	0.385033
C69	C	-0.005995	-0.545937	0.384582
C70	C	-0.283006	-0.545971	0.383725
N71	N	0.426163	-0.449489	0.481488
O72	O	0.588601	-0.457377	0.364497
O73	O	0.588789	-0.549696	0.489801
O74	O	0.588709	-0.549485	0.410335
O75	O	0.588681	-0.457588	0.443963
O76	O	0.509731	-0.523223	0.436741
O77	O	0.509811	-0.523434	0.516207
O78	O	0.509624	-0.431115	0.390903
Zn79	Zn	0.497178	-0.473105	0.457747
Zn80	Zn	0.601234	-0.507706	0.422956
O81	O	0.509704	-0.431326	0.470368
N82	N	0.672250	-0.531322	0.399211
N83	N	0.091303	-0.114798	0.481730
O84	O	-0.025603	0.047729	0.473733
O85	O	0.099703	0.047764	0.381394
O86	O	0.020199	0.047731	0.381655
O87	O	0.053901	0.047761	0.473472
O88	O	0.046564	-0.031252	0.407974
O89	O	0.126068	-0.031219	0.407713
O90	O	0.000762	-0.031254	0.500052
Zn91	Zn	0.067601	-0.043777	0.458061
Zn92	Zn	0.032864	0.060287	0.423385
O93	O	0.080266	-0.031222	0.499791
N94	N	0.009156	0.131307	0.399717
N95	N	0.091635	-0.449614	0.816396
O96	O	0.083664	-0.566502	0.978913
O97	O	-0.008637	-0.441152	0.978954
O98	O	-0.008421	-0.520640	0.978930
O99	O	0.083448	-0.487013	0.978936
O100	O	0.017877	-0.494296	0.899950
O101	O	0.017661	-0.414807	0.899974
O102	O	0.109961	-0.540157	0.899933
Zn103	Zn	0.067986	-0.473299	0.887414
Zn104	Zn	0.033338	-0.508010	0.991473
O105	O	0.109746	-0.460669	0.899956
N106	N	0.009689	-0.531700	1.062491
C107	C	0.030367	-0.412095	0.382120
C108	C	0.128741	-0.510370	0.382016
C109	C	0.070168	-0.569147	0.499490
C110	C	-0.028207	-0.470871	0.499595
C111	C	0.549323	-0.549278	0.518791
C112	C	0.549225	-0.549017	0.420381
C113	C	0.549087	-0.431532	0.361914
C114	C	0.549188	-0.431794	0.460322
C115	C	0.128638	0.008374	0.381806
C116	C	0.030215	0.008236	0.382161
C117	C	-0.028206	0.008233	0.499608
C118	C	0.070250	0.008272	0.499285
C119	C	-0.008199	-0.412187	0.939469
C120	C	-0.007927	-0.510619	0.939425
C121	C	0.109523	-0.569121	0.939417
C122	C	0.109257	-0.470684	0.939444
H123	H	0.019274	-0.411508	0.812539
H124	H	0.164745	-0.517463	0.353068
H125	H	0.077330	-0.605181	0.528391
H126	H	0.549371	-0.578259	0.554780
C127	C	-0.106216	0.008223	0.521853
C128	C	-0.076789	0.008232	0.538739
H129	H	-0.136210	0.008228	0.546010
H130	H	-0.092016	-0.019324	0.513237
H131	H	-0.110385	0.035763	0.494865
H132	H	-0.072616	-0.019310	0.565726
H133	H	-0.090992	0.035781	0.547362
C134	C	0.549308	-0.628741	0.451119
C135	C	0.549240	-0.587992	0.410672
H136	H	0.549321	-0.652803	0.445123
H137	H	0.521787	-0.621372	0.477037
H138	H	0.576869	-0.639687	0.458622
H139	H	0.521677	-0.577044	0.403171
H140	H	0.576765	-0.595361	0.384746
H141	H	-0.036776	-0.517804	0.939391
C142	C	0.548989	-0.409314	0.283935
C143	C	0.549009	-0.392401	0.313335
H144	H	0.548943	-0.385157	0.253944
H145	H	0.521467	-0.417968	0.298167
H146	H	0.576550	-0.436285	0.279749
H147	H	0.521446	-0.365433	0.317524
H148	H	0.576533	-0.383741	0.299100
H149	H	0.022995	0.008233	0.353314
H150	H	-0.061921	-0.492427	0.328433
H151	H	0.138503	-0.605120	0.939399
H152	H	0.138119	-0.463487	0.939440
C153	C	0.126343	0.008281	0.521103
C154	C	0.079994	0.008271	0.538233
H155	H	0.132359	0.008275	0.545150
H156	H	0.129859	0.035829	0.494103
H157	H	0.148244	-0.019258	0.512444
H158	H	0.058093	0.035812	0.546889
H159	H	0.076474	-0.019279	0.565241
H160	H	0.023205	-0.376060	0.353221
H161	H	0.049100	-0.381393	0.549936
H162	H	-0.064213	-0.463781	0.528541
C163	C	-0.031277	-0.327976	0.898892
C164	C	-0.047319	-0.363589	0.939485
H165	H	-0.055428	-0.297973	0.898904
H166	H	-0.023818	-0.333768	0.871351
H167	H	-0.003709	-0.328030	0.898895
H168	H	-0.074885	-0.363537	0.939480
H169	H	-0.054785	-0.357795	0.967033
C170	C	0.549232	-0.409934	0.516367
C171	C	0.549174	-0.392820	0.470032
H172	H	0.549220	-0.385871	0.522361
H173	H	0.576796	-0.436922	0.519873
H174	H	0.521713	-0.418608	0.538291
H175	H	0.576694	-0.384148	0.448108
H176	H	0.521607	-0.365823	0.466521
H177	H	0.166612	-0.485121	0.812425
C178	C	-0.006341	-0.366252	0.747627
C179	C	0.040040	-0.373274	0.715281
H180	H	-0.028289	-0.346859	0.730782
H181	H	-0.011098	-0.351077	0.767015
H182	H	-0.011093	-0.396057	0.767017
H183	H	0.044793	-0.343469	0.695893
H184	H	0.044798	-0.388448	0.695885
C185	C	0.212912	-0.031818	0.358432
C186	C	0.177119	0.008684	0.342576
H187	H	0.242842	-0.031625	0.334214
H188	H	0.207276	-0.059422	0.365819
H189	H	0.212895	-0.031869	0.386012
H190	H	0.177133	0.008734	0.314998
H191	H	0.182756	0.036296	0.335182
C192	C	0.235411	-0.487035	0.747431
C193	C	0.210517	-0.458451	0.715142
H194	H	0.268573	-0.495169	0.730541
H195	H	0.227282	-0.515150	0.766820
H196	H	0.227267	-0.470168	0.766825
H197	H	0.218659	-0.475319	0.695750
H198	H	0.218650	-0.430332	0.695744
H199	H	0.166284	-0.485062	0.446169
C200	C	-0.015443	-0.424933	0.572777
C201	C	0.005086	-0.408052	0.523330
H202	H	-0.048611	-0.416802	0.580949
H203	H	-0.010192	-0.410972	0.586729
H204	H	-0.001452	-0.458477	0.584185
H205	H	-0.008902	-0.374508	0.511922
H206	H	-0.000168	-0.422012	0.509372
C207	C	0.235140	-0.486972	0.444160
C208	C	0.210299	-0.458399	0.472762
H209	H	0.268309	-0.495107	0.435984
H210	H	0.226954	-0.470100	0.416071
H211	H	0.227009	-0.515091	0.461033
H212	H	0.218427	-0.430278	0.455888
H213	H	0.218489	-0.475271	0.500855
H214	H	0.332093	-0.491119	0.540748
H215	H	0.422274	-0.521162	0.510626
C216	C	0.296390	-0.324572	0.527127
C217	C	0.324946	-0.331355	0.483088
H218	H	0.279511	-0.291658	0.522349
H219	H	0.315803	-0.336229	0.545320
H220	H	0.274481	-0.341225	0.543576
H221	H	0.346857	-0.314705	0.466641
H222	H	0.305531	-0.319692	0.464888
C223	C	0.396981	-0.320051	0.445560
C224	C	0.429306	-0.366121	0.448236
H225	H	0.413841	-0.298378	0.429512
H226	H	0.377616	-0.318787	0.476706
H227	H	0.377567	-0.311742	0.428641
H228	H	0.448717	-0.374431	0.465159
H229	H	0.448679	-0.367386	0.417085
H230	H	0.159477	-0.208876	0.439413
H231	H	0.055841	-0.118733	0.556693
C232	C	0.115899	-0.123615	0.374904
C233	C	0.132773	-0.111595	0.395459
H234	H	0.124020	-0.106739	0.341738
H235	H	0.082364	-0.115479	0.388889
H236	H	0.129876	-0.156781	0.380140
H237	H	0.118792	-0.078430	0.390226
H238	H	0.166314	-0.119728	0.381469
C239	C	0.053962	-0.183705	0.625518
C240	C	0.082537	-0.216013	0.600648
H241	H	0.045844	-0.200583	0.658685
H242	H	0.025841	-0.164322	0.617389
H243	H	0.070827	-0.164306	0.617353
H244	H	0.065671	-0.235410	0.608811
H245	H	0.110663	-0.235405	0.608781
H246	H	-0.091873	-0.522445	0.255974
C247	C	-0.093716	-0.453628	0.190996
C248	C	-0.065095	-0.478509	0.158698
H249	H	-0.101840	-0.420462	0.174113
H250	H	-0.076886	-0.461789	0.210429
H251	H	-0.121837	-0.461755	0.210345
H252	H	-0.036972	-0.470386	0.139352
H253	H	-0.081924	-0.470345	0.139257
H254	H	-0.018278	-0.669778	0.256062
C255	C	0.027033	-0.695369	0.191138
C256	C	0.020054	-0.648980	0.158798
H257	H	0.046441	-0.717311	0.174288
H258	H	-0.002778	-0.700104	0.210481
H259	H	0.042176	-0.700154	0.210573
H260	H	0.004907	-0.644193	0.139365
H261	H	0.049871	-0.644243	0.139447
H262	H	-0.224531	-0.602667	0.438605
C263	C	0.061127	-0.677583	0.385553
C264	C	0.019682	-0.648962	0.410373
H265	H	0.080479	-0.699525	0.404994
H266	H	0.078025	-0.658213	0.357469
H267	H	0.052982	-0.694427	0.377370
H268	H	0.027826	-0.632116	0.418552
H269	H	0.002780	-0.668334	0.438465
C270	C	-0.031961	-0.704264	0.424891
C271	C	-0.015043	-0.683693	0.375453
H272	H	-0.023828	-0.737428	0.433028
H273	H	-0.065499	-0.690272	0.436274
H274	H	-0.018021	-0.699050	0.438900
H275	H	-0.028986	-0.688904	0.361444
H276	H	0.018501	-0.697690	0.364065
H277	H	-0.091926	-0.522444	0.298262
H278	H	0.047765	-0.765423	0.337508
C279	C	0.072919	-0.700512	0.298074
C280	C	0.026870	-0.668157	0.300690
H281	H	0.094601	-0.683671	0.282082
H282	H	0.081252	-0.719905	0.281128
H283	H	0.074136	-0.719897	0.329238
H284	H	0.025653	-0.648774	0.269525
H285	H	0.018536	-0.648756	0.317636
H286	H	-0.128170	-0.675084	0.362831
C287	C	-0.153341	-0.739993	0.402366
C288	C	-0.107286	-0.772346	0.399711
H289	H	-0.175031	-0.756835	0.418425
H290	H	-0.154597	-0.720637	0.371215
H291	H	-0.161629	-0.720570	0.419266
H292	H	-0.098995	-0.791766	0.382808
H293	H	-0.106027	-0.791710	0.430868
H294	H	-0.224299	-0.529059	0.291228
C295	C	-0.159649	-0.647970	0.464276
C296	C	-0.127277	-0.640974	0.417907
H297	H	-0.142825	-0.667374	0.486242
H298	H	-0.179040	-0.663123	0.469011
H299	H	-0.179032	-0.618157	0.469025
H300	H	-0.107897	-0.670787	0.413157
H301	H	-0.107878	-0.625822	0.413170
H302	H	-0.134111	-0.559208	0.261309
