data_functionalizedCrystal
_audit_creation_method	'MofGen! by Chris Wilmer'
_symmetry_space_group_name_H-M	'P1'
_symmetry_Int_Tables_number	1
_symmetry_cell_setting	triclinic
loop_
_symmetry_equiv_pos_as_xyz
  x,y,z
_cell_length_a	10.654550
_cell_length_b	12.811415
_cell_length_c	9.730223
_cell_angle_alpha	84.561029
_cell_angle_beta	90.001729
_cell_angle_gamma	84.263450
loop_
_atom_site_label
_atom_site_type_symbol
_atom_site_fract_x
_atom_site_fract_y
_atom_site_fract_z
O1	O	1.667069	0.147433	-0.132560
O2	O	1.301517	0.161479	-0.134335
O3	O	1.493490	0.001730	-0.114406
O4	O	1.475096	0.307183	-0.152489
O5	O	1.493485	0.001713	0.114176
O6	O	1.301513	0.161463	0.094247
O7	O	1.667064	0.147417	0.096022
Zn8	Zn	1.484288	0.154437	0.131427
Zn9	Zn	1.484294	0.154459	-0.169740
O10	O	1.475091	0.307167	0.076093
C11	C	1.254722	0.160440	-0.019919
C12	C	1.115295	0.157354	-0.019544
C13	C	1.035321	0.251412	-0.031267
C14	C	0.904315	0.248507	-0.030881
C15	C	0.933271	0.057477	-0.007053
C16	C	1.064274	0.060383	-0.007430
C17	C	1.492457	-0.037391	0.004758
C18	C	1.489371	-0.153932	0.019279
C19	C	1.483554	-0.372897	-0.202663
C20	C	1.480654	-0.482398	-0.189026
C21	C	1.480663	-0.482436	0.060189
C22	C	1.483562	-0.372935	0.046552
C23	C	1.485010	-0.318169	-0.084879
C24	C	1.487919	-0.208667	-0.098514
C25	C	1.487918	-0.208707	0.150700
C26	C	1.485018	-0.318208	0.164337
C27	C	1.713859	0.148457	-0.018397
C28	C	1.853286	0.151542	-0.018781
C29	C	1.476124	0.346287	-0.043075
C30	C	1.479210	0.462828	-0.057605
N31	N	1.484298	0.154466	-0.375277
C32	C	1.560626	0.218820	-0.599154
C33	C	1.560633	0.218840	-0.455274
C34	C	1.407962	0.090060	-0.439167
C35	C	1.407963	0.090036	-0.583045
N36	N	1.484293	0.154422	0.336965
H37	H	1.489101	-0.164079	-0.205531
O38	O	1.085034	0.345541	-0.042834
C39	C	1.216090	0.459709	0.061369
C40	C	1.159902	0.353061	0.074627
H41	H	1.276611	0.465834	0.156336
H42	H	1.276766	0.465868	-0.035003
H43	H	1.136402	0.526418	0.052994
H44	H	1.239509	0.286291	0.083059
H45	H	1.099193	0.346994	0.170979
O46	O	1.483395	-0.371345	0.292027
C47	C	1.373900	-0.393744	0.507858
C48	C	1.375562	-0.333505	0.363276
H49	H	1.286741	-0.363158	0.565516
H50	H	1.371495	-0.481412	0.497453
H51	H	1.462301	-0.381208	0.567679
H52	H	1.287179	-0.345954	0.303376
H53	H	1.378033	-0.245858	0.373780
H54	H	1.345802	0.037590	-0.635056
O55	O	1.485040	-0.319537	-0.330222
C56	C	1.489468	-0.150821	-0.461675
C57	C	1.487807	-0.211120	-0.317131
H58	H	1.491679	-0.063153	-0.451141
H59	H	1.576713	-0.181237	-0.519330
H60	H	1.401141	-0.163434	-0.521574
H61	H	1.576073	-0.198534	-0.257119
H62	H	1.400504	-0.180693	-0.259582
O63	O	1.634814	0.281497	-0.393446
C64	C	1.786294	0.409183	-0.424609
C65	C	1.702317	0.338292	-0.494807
H66	H	1.840912	0.455104	-0.506525
H67	H	1.724768	0.466668	-0.364473
H68	H	1.855440	0.358193	-0.350835
H69	H	1.633159	0.389198	-0.568645
H70	H	1.763922	0.280801	-0.554855
H71	H	1.622779	0.271248	-0.664279
O72	O	0.883914	-0.036806	0.004768
C73	C	0.926463	-0.225974	0.028260
C74	C	0.982522	-0.119270	0.014922
H75	H	1.006160	-0.292675	0.036444
H76	H	0.865908	-0.232192	0.124721
H77	H	0.865805	-0.232043	-0.066619
H78	H	1.043238	-0.113128	0.109728
H79	H	1.043006	-0.113098	-0.081595
H80	H	1.129393	-0.016215	0.002121
H81	H	1.345816	0.037641	-0.374022
H82	H	0.839204	0.325099	-0.040424
H83	H	1.479474	-0.527045	0.167193
H84	H	1.479464	-0.526952	-0.284939
H85	H	1.489108	-0.164137	0.246609
