data_functionalizedCrystal
_audit_creation_method	'MofGen! by Chris Wilmer'
_symmetry_space_group_name_H-M	'P1'
_symmetry_Int_Tables_number	1
_symmetry_cell_setting	triclinic
loop_
_symmetry_equiv_pos_as_xyz
  x,y,z
_cell_length_a	15.995350
_cell_length_b	12.837943
_cell_length_c	11.892113
_cell_angle_alpha	86.040150
_cell_angle_beta	94.365368
_cell_angle_gamma	90.839343
loop_
_atom_site_label
_atom_site_type_symbol
_atom_site_fract_x
_atom_site_fract_y
_atom_site_fract_z
O1	O	0.222915	-1.381365	0.093972
O2	O	0.722915	-0.881365	0.593972
O3	O	0.212162	-1.079559	0.093980
O4	O	0.712162	-0.579559	0.593980
O5	O	0.096309	-1.238712	0.093975
O6	O	0.596309	-0.738712	0.593975
O7	O	0.338768	-1.222212	0.093977
O8	O	0.838768	-0.722212	0.593977
O9	O	0.085810	-1.226873	-0.094032
O10	O	0.585810	-0.726873	0.405968
O11	O	0.201663	-1.067720	-0.094028
O12	O	0.701663	-0.567720	0.405972
O13	O	0.212415	-1.369526	-0.094035
O14	O	0.712415	-0.869526	0.405965
Zn15	Zn	0.205372	-1.216743	-0.123881
Zn16	Zn	0.705372	-0.716743	0.376119
Zn17	Zn	0.219206	-1.232342	0.123826
Zn18	Zn	0.719206	-0.732342	0.623826
O19	O	0.328269	-1.210373	-0.094030
O20	O	0.828269	-0.710373	0.405970
C21	C	0.059810	-1.232110	-0.000027
C22	C	0.559810	-0.732110	0.499973
C23	C	-0.033303	-1.230066	-0.000020
C24	C	0.466697	-0.730066	0.499980
C25	C	0.203280	-1.035019	-0.000023
C26	C	0.703280	-0.535019	0.499977
C27	C	0.192447	-0.919942	-0.000020
C28	C	0.692447	-0.419942	0.499980
C29	C	0.221297	-1.414066	-0.000030
C30	C	0.721297	-0.914066	0.499970
C31	C	0.232131	-1.529143	-0.000025
C32	C	0.732131	-1.029143	0.499975
C33	C	-0.371637	-1.222721	-0.000024
C34	C	0.128363	-0.722721	0.499976
C35	C	-0.333222	-1.109402	0.000400
C36	C	0.166778	-0.609402	0.500400
C37	C	-0.236393	-1.111421	-0.000023
C38	C	0.263607	-0.611421	0.499977
C39	C	-0.203785	-1.226364	-0.000021
C40	C	0.296215	-0.726364	0.499979
C41	C	-0.246398	-1.275510	-0.107382
C42	C	0.253602	-0.775510	0.392618
C43	C	-0.343266	-1.272657	-0.107472
C44	C	0.156734	-0.772657	0.392528
C45	C	-0.331497	-1.288461	0.106327
C46	C	0.168503	-0.788461	0.606327
C47	C	-0.234475	-1.288524	0.107746
C48	C	0.265525	-0.788524	0.607746
C49	C	-0.108923	-1.228429	-0.000024
C50	C	0.391077	-0.728429	0.499976
C51	C	-0.466499	-1.220659	-0.000029
C52	C	0.033501	-0.720659	0.499971
C53	C	0.364768	-1.216975	-0.000026
C54	C	0.864768	-0.716975	0.499974
C55	C	0.457881	-1.219020	-0.000025
C56	C	0.957881	-0.719020	0.499975
N57	N	0.195931	-1.206105	-0.292935
N58	N	0.695931	-0.706105	0.207065
C59	C	0.322684	-0.678983	-0.000035
C60	C	0.822684	-0.178983	0.499965
C61	C	0.312509	-0.570858	-0.000033
C62	C	0.812509	-0.070858	0.499967
C63	C	0.161923	-0.595563	-0.000023
C64	C	0.661923	-0.095563	0.499977
C65	C	0.172098	-0.703688	-0.000025
C66	C	0.672098	-0.203688	0.499975
C67	C	0.252481	-0.745395	-0.000029
C68	C	0.752481	-0.245395	0.499971
C69	C	0.262656	-0.853523	-0.000023
C70	C	0.762656	-0.353523	0.499977
C71	C	0.112069	-0.878225	-0.000020
C72	C	0.612069	-0.378225	0.499980
C73	C	0.101894	-0.770100	-0.000018
C74	C	0.601894	-0.270100	0.499982
C75	C	0.294375	-1.317000	-0.529586
C76	C	0.794375	-0.817000	-0.029586
C77	C	0.287769	-1.309572	-0.647928
C78	C	0.787769	-0.809572	-0.147928
C79	C	0.176111	-1.183829	-0.647962
C80	C	0.676111	-0.683829	-0.147962
C81	C	0.182717	-1.191256	-0.529621
C82	C	0.682717	-0.691256	-0.029621
C83	C	0.241851	-1.257843	-0.470437
C84	C	0.741851	-0.757843	0.029563
C85	C	0.248460	-1.265264	-0.352093
C86	C	0.748460	-0.765264	0.147907
C87	C	0.136799	-1.139527	-0.352130
C88	C	0.636799	-0.639527	0.147870
C89	C	0.130193	-1.132100	-0.470471
C90	C	0.630193	-0.632100	0.029529
N91	N	0.228640	-1.242988	0.292880
N92	N	0.728640	-0.742988	0.792880
H93	H	-0.207179	-1.072321	0.076937
H94	H	0.292821	-0.572321	0.576937
H95	H	0.127959	-1.129628	-0.696171
H96	H	0.627959	-0.629628	-0.196171
Br97	Br	-0.379398	-1.026000	-0.126813
Br98	Br	0.120602	-0.526000	0.373187
Br99	Br	0.371746	-0.910125	-0.000022
Br100	Br	0.871746	-0.410125	0.499978
Br101	Br	0.431773	-0.735592	-0.000020
Br102	Br	0.931773	-0.235592	0.499980
H103	H	0.036448	-0.736127	-0.000028
H104	H	0.536448	-0.236127	0.499972
Br105	Br	0.407788	-0.480729	-0.000049
Br106	Br	0.907788	0.019271	0.499951
Br107	Br	0.359050	-1.389865	-0.728200
Br108	Br	0.859050	-0.889865	-0.228200
H109	H	0.096473	-0.561580	-0.000112
H110	H	0.596473	-0.061580	0.499888
H111	H	-0.225757	-1.359704	-0.111373
H112	H	0.274243	-0.859704	0.388627
H113	H	-0.216363	-1.062325	-0.077113
H114	H	0.283637	-0.562325	0.422887
Br115	Br	-0.197115	-1.428914	0.118565
Br116	Br	0.302885	-0.928914	0.618565
Br117	Br	-0.386665	-1.196283	-0.241232
Br118	Br	0.113335	-0.696283	0.258768
Br119	Br	0.049943	-1.041738	-0.550803
Br120	Br	0.549943	-0.541738	-0.050803
H121	H	0.296614	-1.319478	-0.303907
H122	H	0.796614	-0.819478	0.196093
H123	H	-0.225576	-1.231649	-0.187277
H124	H	0.274424	-0.731649	0.312723
Br125	Br	-0.362963	-1.041967	0.128726
Br126	Br	0.137037	-0.541967	0.628726
Br127	Br	0.065520	-1.059227	-0.271850
Br128	Br	0.565520	-0.559227	0.228150
Br129	Br	-0.386408	-1.410839	-0.115603
Br130	Br	0.113592	-0.910839	0.384397
Br131	Br	-0.186516	-1.229306	0.240146
Br132	Br	0.313484	-0.729306	0.740146
Br133	Br	-0.363073	-1.235227	0.241956
Br134	Br	0.136927	-0.735227	0.741956
Br135	Br	-0.373252	-1.427824	0.107535
Br136	Br	0.126748	-0.927824	0.607535
H137	H	0.054905	-0.932311	-0.000008
H138	H	0.554905	-0.432311	0.499992
H139	H	0.342532	-1.371207	-0.481397
H140	H	0.842532	-0.871207	0.018603
