data_functionalizedCrystal
_audit_creation_method	'MofGen! by Chris Wilmer'
_symmetry_space_group_name_H-M	'P1'
_symmetry_Int_Tables_number	1
_symmetry_cell_setting	triclinic
loop_
_symmetry_equiv_pos_as_xyz
  x,y,z
_cell_length_a	15.944551
_cell_length_b	14.853567
_cell_length_c	13.930277
_cell_angle_alpha	90.004245
_cell_angle_beta	89.994493
_cell_angle_gamma	96.433166
loop_
_atom_site_label
_atom_site_type_symbol
_atom_site_fract_x
_atom_site_fract_y
_atom_site_fract_z
O1	O	0.109664	-1.196228	-0.079767
O2	O	0.122728	-0.933751	-0.079783
O3	O	-0.006071	-1.072157	-0.079766
O4	O	0.238463	-1.057822	-0.079784
O5	O	-0.006073	-1.072138	0.079896
O6	O	0.122725	-0.933732	0.079878
O7	O	0.109662	-1.196208	0.079895
Zn8	Zn	0.116193	-1.064967	0.105236
Zn9	Zn	0.116197	-1.064993	-0.105125
O10	O	0.238460	-1.057803	0.079878
C11	C	0.122135	-0.900154	0.000045
C12	C	0.120361	-0.800072	0.000039
C13	C	-0.037367	-1.071552	0.000065
C14	C	-0.130615	-1.069768	0.000065
C15	C	0.110255	-1.229806	0.000064
C16	C	0.112029	-1.329887	0.000064
C17	C	-0.345572	-0.979713	0.000047
C18	C	-0.406544	-1.021522	0.078772
C19	C	-0.301344	-1.066541	0.000058
C20	C	-0.406524	-1.021562	-0.078642
C21	C	-0.466260	-1.063416	0.000046
C22	C	-0.361088	-1.108373	0.078848
C23	C	-0.361062	-1.108401	-0.078636
C24	C	-0.422017	-1.150273	0.000109
C25	C	-0.206340	-1.068338	0.000065
C26	C	-0.561263	-1.061626	0.000046
C27	C	0.269756	-1.058407	0.000044
C28	C	0.363004	-1.060191	0.000038
N29	N	0.116190	-1.064957	0.248803
C30	C	0.036354	-0.387646	0.000067
C31	C	0.189369	-0.366169	0.000055
C32	C	0.191037	-0.460201	0.000051
C33	C	0.115362	-0.517960	0.000055
C34	C	0.038019	-0.481687	0.000061
C35	C	0.268379	-0.496480	0.000035
C36	C	0.270050	-0.590517	0.000031
C37	C	0.194374	-0.648278	0.000041
C38	C	0.117028	-0.612000	0.000049
C39	C	0.041353	-0.669759	0.000052
C40	C	-0.035994	-0.633483	0.000066
C41	C	-0.037657	-0.539448	0.000071
C42	C	0.196036	-0.742313	0.000036
C43	C	0.043018	-0.763800	0.000046
N44	N	0.116193	-1.065010	-0.248691
C45	C	0.173206	-1.003704	0.701064
C46	C	0.059181	-1.126306	0.701049
C47	C	0.059178	-1.126295	0.600553
C48	C	0.116191	-1.064989	0.550308
C49	C	0.173207	-1.003693	0.600559
C50	C	0.002169	-1.187596	0.550295
C51	C	0.002164	-1.187588	0.449793
C52	C	0.059174	-1.126277	0.399546
C53	C	0.116192	-1.064978	0.449803
C54	C	0.173205	-1.003672	0.399558
C55	C	0.230220	-0.942368	0.449814
C56	C	0.230217	-0.942382	0.550312
C57	C	0.059177	-1.126263	0.299047
C58	C	0.173206	-1.003661	0.299053
H59	H	-0.312344	-0.907643	0.000121
Br60	Br	0.371074	-0.418091	0.000011
Br61	Br	-0.440128	-0.960304	0.189698
Br62	Br	-0.327710	-1.169524	0.189901
Br63	Br	-0.075210	-1.270781	0.381595
Br64	Br	0.375018	-0.639741	0.000012
Br65	Br	0.250575	-0.920503	0.769260
H66	H	-0.455095	-1.222407	0.000158
H67	H	-0.340890	-1.145102	-0.145191
Br68	Br	-0.440080	-0.960340	-0.189563
Br69	Br	-0.059690	-0.842181	0.000061
Br70	Br	-0.068612	-0.338419	0.000095
Br71	Br	-0.138692	-0.711881	0.000059
H72	H	-0.100629	-0.509903	0.000105
Br73	Br	-0.018186	-1.209462	0.230850
Br74	Br	0.292066	-0.287782	0.000033
Br75	Br	0.250579	-0.920448	0.230871
H76	H	0.259011	-0.771845	0.000026
Br77	Br	0.307589	-0.859192	0.618517
Br78	Br	0.307600	-0.859178	0.381613
Br79	Br	-0.075197	-1.270803	0.618480
H80	H	0.012766	-1.176224	0.741962
