data_functionalizedCrystal
_audit_creation_method	'MofGen! by Chris Wilmer'
_symmetry_space_group_name_H-M	'P1'
_symmetry_Int_Tables_number	1
_symmetry_cell_setting	triclinic
loop_
_symmetry_equiv_pos_as_xyz
  x,y,z
_cell_length_a	12.837943
_cell_length_b	27.732048
_cell_length_c	26.210047
_cell_angle_alpha	89.996914
_cell_angle_beta	89.984667
_cell_angle_gamma	91.264203
loop_
_atom_site_label
_atom_site_type_symbol
_atom_site_fract_x
_atom_site_fract_y
_atom_site_fract_z
O1	O	1.373461	-0.125565	-0.042402
O2	O	1.071754	-0.119362	-0.042406
O3	O	1.231978	-0.052531	-0.042411
O4	O	1.213237	-0.192396	-0.042397
O5	O	1.231928	-0.052528	0.042447
O6	O	1.071704	-0.119359	0.042452
O7	O	1.373410	-0.125562	0.042456
Cu8	Cu	1.222553	-0.122461	0.050202
Cu9	Cu	1.222612	-0.122463	-0.050152
O10	O	1.213187	-0.192393	0.042461
C11	C	1.033142	-0.117265	0.000022
C12	C	0.918165	-0.111016	0.000021
C13	C	0.676003	-0.186145	0.000035
C14	C	0.567972	-0.180275	0.000033
C15	C	0.594068	-0.093408	0.000020
C16	C	0.702100	-0.099277	0.000021
C17	C	0.743063	-0.145647	0.000028
C18	C	0.851097	-0.151516	0.000026
C19	C	0.877191	-0.064649	0.000016
C20	C	0.769159	-0.058780	0.000014
C21	C	1.213605	-0.210421	0.000033
C22	C	1.214790	-0.264134	0.000038
C23	C	1.127566	-0.598628	0.000013
C24	C	1.131961	-0.800505	0.000007
O25	O	1.052201	-0.827809	-0.000017
N26	N	1.226967	-0.824336	0.000009
C27	C	1.320881	-0.797695	0.000009
O28	O	1.401790	-0.822596	0.000005
C29	C	1.316485	-0.595818	0.000011
C30	C	1.221473	-0.571990	0.000014
C31	C	1.032562	-0.574800	0.000015
C32	C	1.031464	-0.524333	0.000020
C33	C	1.125370	-0.497695	0.000021
C34	C	1.220375	-0.521524	0.000019
C35	C	1.410397	-0.569177	0.000008
C36	C	1.409290	-0.518705	0.000007
C37	C	1.314278	-0.494877	0.000010
C38	C	1.313184	-0.444419	0.000025
N39	N	1.218178	-0.420588	0.000023
C40	C	1.124271	-0.447226	0.000021
C41	C	1.323182	-0.903683	0.000009
C42	C	1.324281	-0.954152	0.000009
C43	C	1.135361	-0.956959	0.000006
C44	C	1.134263	-0.906489	0.000009
C45	C	1.228176	-0.879852	0.000007
C46	C	1.121973	-0.341243	0.000030
C47	C	1.120883	-0.290772	0.000037
C48	C	1.309803	-0.287970	0.000037
C49	C	1.310893	-0.338436	0.000033
C50	C	1.216969	-0.365072	0.000028
O51	O	1.392901	-0.417085	0.000042
O52	O	1.043374	-0.422316	0.000013
C53	C	1.128664	-0.649094	0.000008
C54	C	1.223668	-0.672923	0.000006
C55	C	1.317575	-0.646285	0.000007
C56	C	1.224767	-0.723391	0.000006
C57	C	1.130861	-0.750030	0.000004
C58	C	1.035855	-0.726199	0.000002
C59	C	1.034757	-0.675732	0.000007
C60	C	1.412580	-0.670115	0.000009
C61	C	1.413671	-0.720582	0.000006
C62	C	1.319764	-0.747220	0.000004
C63	C	1.412023	-0.127659	0.000027
C64	C	1.527000	-0.133908	0.000025
C65	C	1.231559	-0.034503	0.000016
C66	C	1.230375	0.019210	0.000007
N67	N	1.222519	-0.122459	0.120786
N68	N	1.222654	-0.122462	-0.120736
C69	C	1.284953	-0.154663	0.473304
C70	C	1.284984	-0.154664	0.686963
O71	O	1.338044	-0.182039	0.714588
N72	N	1.222637	-0.122460	0.713680
C73	C	1.160283	-0.090251	0.686980
O74	O	1.107261	-0.062856	0.714607
C75	C	1.160258	-0.090248	0.473322
C76	C	1.222602	-0.122457	0.446607
C77	C	1.347292	-0.186870	0.446589
C78	C	1.347280	-0.186871	0.393178
C79	C	1.284928	-0.154665	0.366481
C80	C	1.222589	-0.122459	0.393196
C81	C	1.097910	-0.058037	0.446623
C82	C	1.097912	-0.058038	0.393205
C83	C	1.160255	-0.090248	0.366490
C84	C	1.160225	-0.090254	0.313088
N85	N	1.222572	-0.122459	0.286370
C86	C	1.284924	-0.154664	0.313067
C87	C	1.160298	-0.090255	0.799153
C88	C	1.160303	-0.090256	0.852567
C89	C	1.285006	-0.154669	0.852547
C90	C	1.284995	-0.154670	0.799131
C91	C	1.222645	-0.122460	0.772436
C92	C	1.284892	-0.154664	0.200899
C93	C	1.284870	-0.154664	0.147483
C94	C	1.160172	-0.090250	0.147508
C95	C	1.160189	-0.090252	0.200920
C96	C	1.222557	-0.122461	0.227614
O97	O	1.107201	-0.062890	0.285430
O98	O	1.337954	-0.182048	0.285431
C99	C	1.284966	-0.154662	0.526716
C100	C	1.222627	-0.122455	0.553430
C101	C	1.160275	-0.090249	0.526734
C102	C	1.222631	-0.122456	0.606844
C103	C	1.284983	-0.154662	0.633541
C104	C	1.347330	-0.186866	0.606824
C105	C	1.347317	-0.186867	0.553412
C106	C	1.097928	-0.058045	0.553451
C107	C	1.097945	-0.058047	0.606862
C108	C	1.160296	-0.090253	0.633559
H109	H	0.884447	-0.189273	0.000032
F110	F	1.511524	-0.594526	-0.000005
H111	H	1.398072	-0.213096	0.468320
H112	H	1.485767	-0.497020	0.000002
F113	F	0.935913	-0.754558	0.000003
H114	H	1.335760	-0.180898	0.777384
H115	H	1.335771	-0.180894	0.874292
H116	H	0.560696	-0.055655	0.000056
H117	H	0.735791	-0.021026	0.000015
F118	F	0.719602	-0.235495	0.000036
H119	H	1.386259	-0.266272	0.000041
H120	H	0.513374	-0.213253	0.000040
H121	H	1.047145	-0.031807	0.468364
H122	H	1.398051	-0.213098	0.371432
F123	F	1.512535	-0.641772	0.000012
H124	H	1.047139	-0.031807	0.371472
H125	H	0.931804	-0.031673	0.000007
F126	F	1.019754	-0.265416	0.000041
F127	F	1.413667	-0.221152	0.524987
F128	F	1.093917	-0.055977	0.770748
H129	H	1.047167	-0.031819	0.628609
F130	F	0.930338	-0.498980	0.000018
H131	H	1.045491	-0.362924	0.000026
H132	H	0.956087	-0.596483	0.000012
H133	H	1.401650	-0.973548	0.000014
F134	F	1.033140	-0.881134	0.000012
F135	F	0.933632	-0.650379	0.000009
F136	F	1.093934	-0.055981	0.880993
F137	F	1.035419	-0.985317	0.000005
H138	H	1.388259	-0.357838	0.000038
F139	F	1.423144	-0.875339	0.000008
F140	F	1.514803	-0.745936	0.000003
F141	F	1.031548	-0.023771	0.525045
H142	H	1.109410	-0.064029	0.222672
F143	F	1.093814	-0.055977	0.119086
H144	H	1.335637	-0.180895	0.125734
F145	F	1.351271	-0.188945	0.229302
F146	F	1.413685	-0.221143	0.635246
