data_functionalizedCrystal
_audit_creation_method	'MofGen! by Chris Wilmer'
_symmetry_space_group_name_H-M	'P1'
_symmetry_Int_Tables_number	1
_symmetry_cell_setting	triclinic
loop_
_symmetry_equiv_pos_as_xyz
  x,y,z
_cell_length_a	10.908878
_cell_length_b	11.026607
_cell_length_c	8.140239
_cell_angle_alpha	89.998310
_cell_angle_beta	89.997505
_cell_angle_gamma	84.335404
loop_
_atom_site_label
_atom_site_type_symbol
_atom_site_fract_x
_atom_site_fract_y
_atom_site_fract_z
O1	O	1.662456	-0.179077	-0.136586
O2	O	1.309521	-0.088537	-0.136594
O3	O	1.456737	-0.304557	-0.136585
O4	O	1.515239	0.036943	-0.136595
O5	O	1.456727	-0.304557	0.136642
O6	O	1.309510	-0.088536	0.136633
O7	O	1.662445	-0.179077	0.136641
Zn8	Zn	1.485976	-0.133806	0.180018
Zn9	Zn	1.485990	-0.133807	-0.179971
O10	O	1.515228	0.036944	0.136632
C11	C	1.263630	-0.080075	0.000019
C12	C	1.126902	-0.054876	0.000016
C13	C	1.445939	-0.347589	0.000027
C14	C	1.413766	-0.475811	0.000020
C15	C	1.056640	-0.146821	0.000018
C16	C	0.915324	-0.120779	0.000015
C17	C	1.502601	-0.567544	0.000020
C18	C	1.469351	-0.700068	0.000013
C19	C	1.708336	-0.187538	0.000025
C20	C	1.845063	-0.212737	0.000017
C21	C	1.526026	0.079976	0.000017
C22	C	1.558199	0.208198	0.000012
N23	N	1.485975	-0.133809	0.425700
N24	N	1.485998	-0.133815	-0.425653
H25	H	0.870864	-0.022776	0.000004
O26	O	0.898290	-0.329585	0.000089
C27	C	1.087669	-0.462077	-0.000019
C28	C	1.027552	-0.329694	-0.000059
H29	H	1.192186	-0.462209	-0.000173
H30	H	1.057737	-0.511044	0.114354
H31	H	1.057575	-0.510990	-0.114337
H32	H	1.057616	-0.280677	0.114182
H33	H	1.057481	-0.280819	-0.114507
H34	H	1.313096	-0.495386	0.000007
O35	O	1.073726	0.061985	-0.000210
C36	C	0.939933	0.214609	-0.141825
C37	C	1.000046	0.082225	-0.141753
H38	H	0.880369	0.231023	-0.256268
H39	H	0.880174	0.231082	-0.027562
H40	H	1.014835	0.279762	-0.141746
H41	H	0.925226	0.016988	-0.141891
H42	H	1.059832	0.065853	-0.256007
H43	H	1.603272	-0.547968	0.000032
H44	H	1.101105	-0.244817	0.000013
O45	O	1.349304	-0.723615	0.000077
C46	C	1.206715	-0.877175	-0.000044
C47	C	1.342713	-0.850678	-0.000077
H48	H	1.201342	-0.979902	-0.000203
H49	H	1.159023	-0.835693	0.114328
H50	H	1.159094	-0.835529	-0.114362
H51	H	1.390440	-0.892320	0.114164
H52	H	1.390313	-0.892135	-0.114525
O53	O	1.678247	-0.768258	0.000086
C54	C	1.820841	-0.614703	-0.000014
C55	C	1.684842	-0.641196	-0.000057
H56	H	1.826218	-0.511976	-0.000165
H57	H	1.868522	-0.656195	0.114357
H58	H	1.868472	-0.656341	-0.114333
H59	H	1.637106	-0.599561	0.114184
H60	H	1.637254	-0.599728	-0.114505
