data_functionalizedCrystal
_audit_creation_method	'MofGen! by Chris Wilmer'
_symmetry_space_group_name_H-M	'P1'
_symmetry_Int_Tables_number	1
_symmetry_cell_setting	triclinic
loop_
_symmetry_equiv_pos_as_xyz
  x,y,z
_cell_length_a	13.101039
_cell_length_b	16.109301
_cell_length_c	16.109301
_cell_angle_alpha	96.538519
_cell_angle_beta	93.359902
_cell_angle_gamma	93.353949
loop_
_atom_site_label
_atom_site_type_symbol
_atom_site_fract_x
_atom_site_fract_y
_atom_site_fract_z
O1	O	-0.085153	-1.107703	0.102280
O2	O	-0.085169	-0.865642	0.115579
O3	O	-0.085150	-0.993322	-0.012101
O4	O	-0.085172	-0.980024	0.229960
O5	O	0.085278	-0.984161	-0.002925
O6	O	0.085259	-0.856482	0.124755
O7	O	0.085276	-1.098543	0.111456
Zn8	Zn	0.112327	-0.976058	0.119563
Zn9	Zn	-0.112220	-0.988127	0.107473
O10	O	0.085257	-0.970863	0.239136
C11	C	0.000043	-0.830087	0.119628
C12	C	0.000037	-0.737792	0.118013
N13	N	0.265574	-0.967826	0.127813
N14	N	-0.265467	-0.996365	0.099216
C15	C	0.474615	-0.956627	0.139046
C16	C	0.525498	-1.007562	0.087986
C17	C	0.641816	-1.001330	0.094236
C18	C	0.358287	-0.962858	0.132797
C19	C	0.000065	-0.988203	-0.038488
C20	C	0.000066	-0.986588	-0.130783
C21	C	0.000061	-1.134098	0.107407
C22	C	0.000061	-1.226393	0.109022
C23	C	0.000042	-0.515520	0.190021
C24	C	0.000049	-0.428799	0.188497
C25	C	0.000058	-0.448673	0.037009
C26	C	0.000059	-0.535391	0.038534
C27	C	0.000046	-0.568812	0.115042
C28	C	0.000052	-0.395373	0.111993
C29	C	0.000059	-0.301347	0.110340
C30	C	0.000040	-0.662845	0.116695
C31	C	0.000055	-1.058596	-0.353056
C32	C	0.000046	-1.057072	-0.439777
C33	C	0.000040	-0.905584	-0.419903
C34	C	0.000041	-0.907109	-0.333184
C35	C	0.000054	-0.983617	-0.299763
C36	C	0.000044	-0.980569	-0.473202
C37	C	0.000035	-0.978916	-0.567229
C38	C	0.000061	-0.985270	-0.205730
C39	C	0.000040	-0.975982	0.265523
C40	C	0.000032	-0.977598	0.357818
H41	H	0.481703	-1.055848	0.039579
H42	H	0.000075	-0.421450	-0.025281
Cl43	Cl	0.000046	-0.361805	0.282761
H44	H	0.000037	-0.846048	-0.289790
H45	H	0.518405	-0.908345	0.187451
H46	H	0.000039	-0.542727	0.252319
Cl47	Cl	0.000045	-1.151336	-0.506771
H48	H	0.000065	-0.578785	-0.022527
H49	H	0.000063	-1.120894	-0.325848
Cl50	Cl	0.000024	-0.809408	-0.461924
