data_functionalizedCrystal
_audit_creation_method	'MofGen! by Chris Wilmer'
_symmetry_space_group_name_H-M	'P1'
_symmetry_Int_Tables_number	1
_symmetry_cell_setting	triclinic
loop_
_symmetry_equiv_pos_as_xyz
  x,y,z
_cell_length_a	17.000371
_cell_length_b	17.038272
_cell_length_c	9.565339
_cell_angle_alpha	89.999972
_cell_angle_beta	89.996315
_cell_angle_gamma	83.355402
loop_
_atom_site_label
_atom_site_type_symbol
_atom_site_fract_x
_atom_site_fract_y
_atom_site_fract_z
O1	O	1.058001	0.028037	-0.116266
O2	O	1.558001	0.528037	0.383734
O3	O	0.828180	0.056282	-0.116268
O4	O	1.328180	0.556282	0.383732
O5	O	0.941725	-0.071562	-0.116256
O6	O	1.441725	0.428438	0.383744
O7	O	0.944456	0.155881	-0.116278
O8	O	1.444456	0.655881	0.383722
O9	O	0.941716	-0.071554	0.116264
O10	O	1.441716	0.428446	0.616264
O11	O	0.828171	0.056290	0.116252
O12	O	1.328171	0.556290	0.616252
O13	O	1.057992	0.028045	0.116254
O14	O	1.557992	0.528045	0.616254
Zn15	Zn	0.943080	0.042169	0.153170
Zn16	Zn	1.443080	0.542169	0.653170
Zn17	Zn	0.943092	0.042158	-0.153185
Zn18	Zn	1.443092	0.542158	0.346815
O19	O	0.944447	0.155889	0.116242
O20	O	1.444447	0.655889	0.616242
C21	C	0.798625	0.057803	-0.000008
C22	C	1.298625	0.557803	0.499992
C23	C	0.710572	0.062314	-0.000009
C24	C	1.210572	0.562314	0.499991
C25	C	0.673845	-0.007108	0.000000
C26	C	1.173845	0.492892	0.500000
C27	C	0.591110	-0.002864	-0.000010
C28	C	1.091110	0.497136	0.499990
C29	C	0.545102	0.070802	-0.000020
C30	C	1.045102	0.570802	0.499980
C31	C	0.581834	0.140229	-0.000033
C32	C	1.081834	0.640229	0.499967
C33	C	0.664568	0.135985	-0.000033
C34	C	1.164568	0.635985	0.499967
C35	C	0.295066	0.087196	-0.000031
C36	C	0.795066	0.587196	0.499969
C37	C	0.212327	0.091434	-0.000027
C38	C	0.712327	0.591434	0.499973
C39	C	0.221608	-0.051659	-0.000007
C40	C	0.721608	0.448341	0.499993
C41	C	0.304344	-0.055897	0.000002
C42	C	0.804344	0.444103	0.500002
C43	C	0.341068	0.013530	-0.000018
C44	C	0.841068	0.513530	0.499982
C45	C	0.460533	0.075141	-0.000026
C46	C	0.960533	0.575141	0.499974
C47	C	0.425636	0.009190	-0.000022
C48	C	0.925636	0.509190	0.499978
C49	C	0.939235	-0.100516	0.000004
C50	C	1.439235	0.399484	0.500004
C51	C	0.931823	-0.186802	0.000003
C52	C	1.431823	0.313198	0.500003
C53	C	0.999881	-0.241577	0.000005
C54	C	1.499881	0.258423	0.500005
C55	C	0.992911	-0.322650	-0.000008
C56	C	1.492911	0.177350	0.499992
C57	C	0.917882	-0.348946	-0.000013
C58	C	1.417882	0.151054	0.499987
C59	C	0.849819	-0.294164	-0.000020
C60	C	1.349819	0.205836	0.499980
C61	C	0.856789	-0.213093	-0.000016
C62	C	1.356789	0.286907	0.499984
C63	C	0.893256	-0.593018	-0.000033
C64	C	1.393256	-0.093018	0.499967
C65	C	0.886291	-0.674096	-0.000032
C66	C	1.386291	-0.174096	0.499968
C67	C	1.029384	-0.702577	-0.000023
C68	C	1.529384	-0.202577	0.499977
C69	C	1.036348	-0.621502	-0.000011
C70	C	1.536348	-0.121502	0.499989
C71	C	0.968285	-0.566727	-0.000025
C72	C	1.468285	-0.066727	0.499975
C73	C	0.910756	-0.431816	-0.000023
C74	C	1.410756	0.068184	0.499977
C75	C	0.975411	-0.483859	-0.000026
C76	C	1.475411	0.016141	0.499974
C77	C	1.087547	0.026524	-0.000009
C78	C	1.587547	0.526524	0.499991
C79	C	1.175600	0.022013	-0.000018
C80	C	1.675600	0.522013	0.499982
C81	C	0.946936	0.184843	-0.000021
C82	C	1.446936	0.684843	0.499979
C83	C	0.954349	0.271129	-0.000030
C84	C	1.454349	0.771129	0.499970
N85	N	0.943078	0.042175	0.362250
N86	N	1.443078	0.542175	0.862250
N87	N	0.943100	0.042145	-0.362264
N88	N	1.443100	0.542145	0.137736
C89	C	0.890549	0.101282	0.453447
C90	C	1.390549	0.601282	0.953447
C91	C	0.963163	0.111461	0.546625
C92	C	1.463163	0.611461	1.046625
C93	C	0.870494	0.032000	0.546627
C94	C	1.370494	0.532000	1.046627
C95	C	1.015730	0.052387	0.453376
C96	C	1.515730	0.552387	0.953376
C97	C	0.923012	-0.027101	0.453370
C98	C	1.423012	0.472899	0.953370
C99	C	0.995677	-0.016956	0.546506
C100	C	1.495677	0.483044	1.046506
H101	H	0.463099	-0.050788	-0.000022
H102	H	0.963099	0.449212	0.499978
H103	H	0.423064	0.135120	-0.000032
H104	H	0.923064	0.635120	0.499968
H105	H	0.801369	-0.168494	-0.000018
H106	H	1.301369	0.331506	0.499982
H107	H	1.040160	-0.066960	0.587109
H108	H	1.540160	0.433040	1.087109
F109	F	1.116204	-0.593523	-0.000041
F110	F	1.616204	-0.093523	0.499959
F111	F	1.079738	-0.213599	0.000024
F112	F	1.579738	0.286401	0.500024
H113	H	1.077140	0.061051	0.412587
H114	H	1.577140	0.561051	0.912587
F115	F	1.065349	-0.380944	-0.000003
F116	F	1.565349	0.119056	0.499997
F117	F	0.552027	-0.076753	-0.000032
F118	F	1.052027	0.423247	0.499968
H119	H	1.084797	-0.747183	-0.000014
H120	H	1.584797	-0.247183	0.499986
H121	H	0.694469	0.192515	-0.000034
H122	H	1.194469	0.692515	0.499966
H123	H	0.174868	0.151425	-0.000028
H124	H	0.674868	0.651425	0.499972
H125	H	1.036500	-0.462446	-0.000052
H126	H	1.536500	0.037554	0.499948
H127	H	0.825190	-0.695502	-0.000014
H128	H	1.325190	-0.195502	0.499986
H129	H	0.809103	0.023407	0.587592
H130	H	1.309103	0.523407	1.087592
H131	H	0.837834	-0.548429	-0.000043
H132	H	1.337834	-0.048429	0.499957
H133	H	0.788728	-0.315581	-0.000033
H134	H	1.288728	0.184419	0.499967
H135	H	0.324957	0.143728	-0.000057
H136	H	0.824957	0.643728	0.499943
F137	F	0.985368	0.188017	0.600167
F138	F	1.485368	0.688017	1.100167
H139	H	0.906005	-0.085652	0.412376
H140	H	1.406005	0.414348	0.912376
H141	H	0.849667	-0.453235	-0.000024
H142	H	1.349667	0.046765	0.499976
F143	F	0.832547	0.166665	0.400034
F144	F	1.332547	0.666665	0.900034
F145	F	0.353303	-0.134302	0.000021
F146	F	0.853303	0.365698	0.500021
H147	H	0.191698	-0.108182	-0.000005
H148	H	0.691698	0.391818	0.499995
F149	F	0.532867	0.218630	-0.000056
F150	F	1.032867	0.718630	0.499944
F151	F	0.722803	-0.085514	0.000020
F152	F	1.222803	0.414486	0.500020
