data_functionalizedCrystal
_audit_creation_method	'MofGen! by Chris Wilmer'
_symmetry_space_group_name_H-M	'P1'
_symmetry_Int_Tables_number	1
_symmetry_cell_setting	triclinic
loop_
_symmetry_equiv_pos_as_xyz
  x,y,z
_cell_length_a	12.837943
_cell_length_b	12.784905
_cell_length_c	11.295483
_cell_angle_alpha	93.662891
_cell_angle_beta	85.461227
_cell_angle_gamma	83.968130
loop_
_atom_site_label
_atom_site_type_symbol
_atom_site_fract_x
_atom_site_fract_y
_atom_site_fract_z
O1	O	1.358329	0.267425	-0.098997
O2	O	1.057743	0.253898	-0.099004
O3	O	1.230032	0.108162	-0.098997
O4	O	1.186040	0.413161	-0.099004
O5	O	1.214902	0.120941	0.099054
O6	O	1.042613	0.266677	0.099046
O7	O	1.343199	0.280203	0.099053
Cu8	Cu	1.191524	0.274607	0.117133
Cu9	Cu	1.209418	0.259495	-0.117084
O10	O	1.170910	0.425939	0.099046
C11	C	1.011969	0.255718	0.000020
C12	C	0.898121	0.242090	0.000017
C13	C	0.642394	0.405922	0.000030
C14	C	0.535422	0.393123	0.000028
C15	C	0.577202	0.203692	0.000020
C16	C	0.684174	0.216492	0.000022
C17	C	0.716766	0.317610	0.000025
C18	C	0.823740	0.330408	0.000018
C19	C	0.865518	0.140980	0.000019
C20	C	0.758546	0.128180	0.000017
C21	C	1.225328	0.075242	0.000027
C22	C	1.233841	-0.041890	0.000022
C23	C	1.060398	-0.255841	0.000030
C24	C	1.068392	-0.365896	0.000025
C25	C	1.257822	-0.372059	0.000017
C26	C	1.249828	-0.262003	0.000021
C27	C	1.151113	-0.203898	0.000026
C28	C	1.143120	-0.093841	0.000022
C29	C	1.332549	-0.100004	0.000022
C30	C	1.340543	-0.210060	0.000018
C31	C	1.388973	0.278383	0.000027
C32	C	1.502822	0.292011	0.000022
C33	C	1.175614	0.458860	0.000020
C34	C	1.167101	0.575991	0.000017
N35	N	1.178946	0.285236	0.281869
N36	N	1.222004	0.248858	-0.281820
C37	C	1.312552	0.172285	0.531164
C38	C	1.303054	0.180326	0.655828
C39	C	1.150447	0.309352	0.655861
C40	C	1.159945	0.301311	0.531198
C41	C	1.241002	0.232777	0.468854
C42	C	1.250504	0.224742	0.344188
C43	C	1.097894	0.353762	0.344224
C44	C	1.088395	0.361802	0.468887
H45	H	0.850274	0.412744	0.000023
O46	O	0.964428	-0.199549	0.000076
C47	C	0.777390	-0.205054	-0.000018
C48	C	0.886009	-0.268928	-0.000038
H49	H	0.713961	-0.261121	-0.000136
H50	H	0.762504	-0.148054	0.082885
H51	H	0.775305	-0.158692	-0.082883
H52	H	0.888172	-0.315353	0.082770
H53	H	0.900850	-0.325864	-0.082996
O54	O	1.047148	-0.037551	0.000079
C55	C	0.860109	-0.043065	0.000020
C56	C	0.968732	-0.106935	-0.000020
H57	H	0.796682	-0.099136	-0.000085
H58	H	0.845232	0.013934	0.082925
H59	H	0.858009	0.003298	-0.082843
H60	H	0.970910	-0.153360	0.082787
H61	H	0.983564	-0.163869	-0.082979
O62	O	1.353774	-0.428411	-0.000142
C63	C	1.525934	-0.474049	-0.102786
C64	C	1.417323	-0.410153	-0.102740
H65	H	1.577336	-0.459327	-0.185739
H66	H	1.564819	-0.448573	-0.019961
H67	H	1.516022	-0.561618	-0.102725
H68	H	1.427142	-0.322570	-0.102843
H69	H	1.378476	-0.435716	-0.185558
O70	O	0.674130	0.504106	-0.000182
C71	C	0.778554	0.621849	-0.102750
C72	C	0.742678	0.510624	-0.102671
H73	H	0.833998	0.627147	-0.185591
H74	H	0.707066	0.682814	-0.102829
H75	H	0.821214	0.637905	-0.019827
H76	H	0.700038	0.494466	-0.185580
H77	H	0.814206	0.449718	-0.102530
H78	H	0.474871	0.465036	0.000035
O79	O	1.071581	0.375785	0.716386
C80	C	0.884505	0.421784	0.754536
C81	C	0.973721	0.346465	0.685935
H82	H	0.805365	0.398120	0.729922
H83	H	0.889922	0.417116	0.854351
H84	H	0.892190	0.505935	0.730059
H85	H	0.966093	0.262282	0.710312
H86	H	0.968276	0.351225	0.586136
O87	O	1.028467	0.412689	0.283752
C88	C	0.954637	0.587255	0.245699
C89	C	1.033315	0.520644	0.314233
H90	H	0.958515	0.674548	0.270336
H91	H	0.975336	0.569836	0.145873
H92	H	0.871751	0.566681	0.270213
H93	H	1.116229	0.541179	0.289818
H94	H	1.012526	0.538071	0.414041
H95	H	1.378557	0.116490	0.480403
H96	H	0.550639	0.121373	0.000116
H97	H	1.406424	-0.057708	-0.000085
H98	H	0.731993	0.045853	0.000028
O99	O	1.329270	0.158084	0.283809
C100	C	1.479664	0.030997	0.296939
C101	C	1.390497	0.106432	0.365462
H102	H	1.529203	-0.010768	0.362926
H103	H	1.444562	-0.029965	0.238618
H104	H	1.531283	0.077942	0.238531
H105	H	1.338846	0.059575	0.423935
H106	H	1.425668	0.167395	0.423708
H107	H	1.420913	-0.257384	0.000019
O108	O	1.372674	0.121523	0.716172
C109	C	1.524997	-0.007357	0.702978
C110	C	1.446239	0.059201	0.634491
H111	H	1.584480	-0.057777	0.636969
H112	H	1.567846	0.047053	0.761299
H113	H	1.480915	-0.060677	0.761384
H114	H	1.490239	0.112528	0.576021
H115	H	1.403390	0.004731	0.576245
H116	H	0.926085	0.069069	0.000007
O117	O	1.009533	0.428248	0.529403
C118	C	0.822461	0.474283	0.567536
C119	C	0.911669	0.398941	0.498952
H120	H	0.743317	0.450629	0.542923
H121	H	0.827871	0.469628	0.667353
H122	H	0.830163	0.558426	0.543042
H123	H	0.904024	0.314765	0.523346
H124	H	0.906231	0.403687	0.399151
H125	H	0.994522	-0.408183	0.000034
