data_functionalizedCrystal
_audit_creation_method	'MofGen! by Chris Wilmer'
_symmetry_space_group_name_H-M	'P1'
_symmetry_Int_Tables_number	1
_symmetry_cell_setting	triclinic
loop_
_symmetry_equiv_pos_as_xyz
  x,y,z
_cell_length_a	17.699083
_cell_length_b	18.266242
_cell_length_c	17.699083
_cell_angle_alpha	89.993977
_cell_angle_beta	96.716985
_cell_angle_gamma	90.002912
loop_
_atom_site_label
_atom_site_type_symbol
_atom_site_fract_x
_atom_site_fract_y
_atom_site_fract_z
O1	O	1.004081	0.060780	-0.095711
O2	O	0.783702	0.060804	-0.108164
O3	O	0.900118	0.060785	0.008252
O4	O	0.887665	0.060799	-0.212126
O5	O	0.900098	-0.060977	0.008255
O6	O	0.783682	-0.060958	-0.108160
O7	O	1.004061	-0.060982	-0.095708
Zn8	Zn	0.893869	-0.080302	-0.101933
Zn9	Zn	0.893895	0.080124	-0.101938
O10	O	0.887645	-0.060963	-0.212123
C11	C	0.755495	-0.000074	-0.107716
C12	C	0.671477	-0.000065	-0.106377
N13	N	0.893856	-0.189789	-0.101930
C14	C	0.622856	-0.000061	-0.174710
C15	C	0.543913	-0.000070	-0.173448
C16	C	0.513592	-0.000079	-0.103852
C17	C	0.562219	-0.000085	-0.035513
C18	C	0.641161	-0.000081	-0.036776
C19	C	0.243856	-0.000104	-0.030418
C20	C	0.164908	-0.000106	-0.029160
C21	C	0.146608	-0.000093	-0.167090
C22	C	0.225550	-0.000089	-0.168353
C23	C	0.274170	-0.000099	-0.100015
C24	C	0.359769	-0.000090	-0.101384
C25	C	0.427995	-0.000083	-0.102481
C26	C	0.939668	-0.228094	-0.147781
C27	C	0.939680	-0.304739	-0.147779
C28	C	0.893867	-0.343076	-0.101935
C29	C	0.848053	-0.304762	-0.056075
C30	C	0.848048	-0.228119	-0.056072
N31	N	0.827580	-0.463422	-0.099990
N32	N	0.827587	-0.536230	-0.099996
C33	C	0.893882	-0.573999	-0.101937
N34	N	0.960171	-0.536209	-0.103887
N35	N	0.960163	-0.463394	-0.103884
C36	C	0.893868	-0.426183	-0.101932
C37	C	0.939711	-0.695411	-0.147788
C38	C	0.939725	-0.772057	-0.147781
C39	C	0.848091	-0.772079	-0.056081
C40	C	0.848084	-0.695434	-0.056084
C41	C	0.893893	-0.657104	-0.101942
C42	C	1.032268	-0.000103	-0.096156
C43	C	1.116286	-0.000107	-0.097494
C44	C	0.899662	-0.000096	0.036451
C45	C	0.898323	-0.000096	0.120469
N46	N	0.893913	0.189611	-0.101935
C47	C	0.888102	-0.000080	-0.240322
C48	C	0.889440	-0.000075	-0.324340
C49	C	0.966656	-0.000105	0.169090
C50	C	0.965394	-0.000098	0.248033
C51	C	0.895798	-0.000088	0.278354
C52	C	0.827459	-0.000078	0.229727
C53	C	0.828722	-0.000079	0.150785
C54	C	0.822364	-0.000071	0.548090
C55	C	0.821106	-0.000072	0.627038
C56	C	0.959036	-0.000091	0.645338
C57	C	0.960299	-0.000092	0.566396
C58	C	0.891961	-0.000077	0.517776
C59	C	0.893330	-0.000083	0.432177
C60	C	0.894427	-0.000088	0.363951
H61	H	0.647537	-0.000053	-0.231384
C62	C	1.066450	-0.795623	-0.177360
C63	C	0.990087	-0.814162	-0.198184
H64	H	1.097540	-0.821614	-0.208482
H65	H	1.080611	-0.808192	-0.125564
H66	H	1.072988	-0.744489	-0.183923
H67	H	0.983548	-0.865295	-0.191615
H68	H	0.975921	-0.801598	-0.249993
C69	C	0.757504	-0.703156	0.034546
C70	C	0.797717	-0.653324	-0.005693
H71	H	0.726406	-0.677157	0.065654
H72	H	0.792394	-0.733046	0.065604
H73	H	0.726431	-0.733051	-0.000334
H74	H	0.828794	-0.623432	0.029188
H75	H	0.762823	-0.623421	-0.036753
C76	C	0.106709	-0.062673	-0.284281
C77	C	0.093164	-0.000089	-0.242213
H78	H	0.073720	-0.062664	-0.330658
H79	H	0.097527	-0.105131	-0.255741
H80	H	0.158067	-0.062659	-0.294983
H81	H	0.041808	-0.000105	-0.231505
H82	H	0.102341	0.042380	-0.270759
H83	H	0.770792	-0.000065	0.254420
H84	H	0.283434	-0.000113	0.025228
C85	C	0.969195	-0.671795	-0.274542
C86	C	0.990070	-0.653273	-0.198185
H87	H	1.000288	-0.645785	-0.305653
H88	H	0.917391	-0.659238	-0.288666
H89	H	0.975761	-0.722925	-0.281093
H90	H	0.983498	-0.602144	-0.191633
H91	H	1.041886	-0.665826	-0.184057
H92	H	0.810753	-0.335981	-0.018747
C93	C	1.102871	-0.000111	0.195117
C94	C	1.043160	-0.000111	0.135765
H95	H	1.150102	-0.000107	0.174543
H96	H	1.099506	-0.042570	0.225527
H97	H	1.099506	0.042353	0.225523
H98	H	1.046522	-0.042577	0.105362
H99	H	1.046527	0.042352	0.105342
C100	C	0.651327	-0.000082	0.099693
C101	C	0.694609	-0.000079	0.038338
H102	H	0.684324	-0.000078	0.146066
H103	H	0.620159	-0.042542	0.097319
H104	H	0.620153	0.042380	0.097309
H105	H	0.725779	-0.042544	0.040719
H106	H	0.725790	0.042386	0.040713
C107	C	0.533753	-0.000046	-0.309916
C108	C	0.490469	-0.000062	-0.248563
H109	H	0.500757	-0.000038	-0.356289
H110	H	0.564924	-0.042502	-0.307541
H111	H	0.564924	0.042420	-0.307531
H112	H	0.459301	-0.042532	-0.250944
H113	H	0.459285	0.042398	-0.250939
H114	H	0.773078	-0.000072	0.111198
C115	C	0.449335	-0.000091	0.027670
C116	C	0.528893	-0.000093	0.040990
H117	H	0.428764	-0.000090	0.074902
H118	H	0.432641	-0.042548	-0.000453
H119	H	0.432646	0.042375	-0.000462
H120	H	0.545582	-0.042562	0.069117
H121	H	0.545594	0.042368	0.069125
C122	C	0.234242	0.062515	-0.286314
C123	C	0.258871	-0.000078	-0.244859
H124	H	0.254807	0.062516	-0.333549
H125	H	0.250946	0.104967	-0.258187
H126	H	0.180267	0.062505	-0.295331
H127	H	0.312845	-0.000065	-0.235837
H128	H	0.242171	-0.042541	-0.272992
C129	C	0.156206	0.062463	0.088809
C130	C	0.131580	-0.000121	0.047347
H131	H	0.135633	0.062451	0.136040
H132	H	0.139508	0.104921	0.060683
H133	H	0.210180	0.062454	0.097834
H134	H	0.077606	-0.000109	0.038317
H135	H	0.148274	-0.042590	0.075480
H136	H	0.976972	-0.196891	-0.185119
C137	C	1.044014	0.062493	0.347408
C138	C	1.040511	-0.000105	0.301473
H139	H	1.090394	0.062491	0.380395
H140	H	1.002393	0.062496	0.376765
H141	H	1.041643	0.104946	0.316215
H142	H	1.042877	-0.042559	0.332666
H143	H	1.082143	-0.000114	0.272114
H144	H	0.976985	-0.335933	-0.185118
H145	H	1.016971	-0.000104	0.541714
H146	H	0.810741	-0.196931	-0.018734
H147	H	0.810790	-0.803292	-0.018753
H148	H	1.014680	-0.000099	0.684934
H149	H	0.764429	-0.000065	0.651721
H150	H	0.766718	-0.000060	0.508512
