data_functionalizedCrystal
_audit_creation_method	'MofGen! by Chris Wilmer'
_symmetry_space_group_name_H-M	'P1'
_symmetry_Int_Tables_number	1
_symmetry_cell_setting	triclinic
loop_
_symmetry_equiv_pos_as_xyz
  x,y,z
_cell_length_a	17.766277
_cell_length_b	19.288862
_cell_length_c	19.288857
_cell_angle_alpha	96.865805
_cell_angle_beta	90.008526
_cell_angle_gamma	89.973986
loop_
_atom_site_label
_atom_site_type_symbol
_atom_site_fract_x
_atom_site_fract_y
_atom_site_fract_z
O1	O	0.062888	-0.921352	0.086641
O2	O	0.312888	-0.671352	0.336641
O3	O	0.562888	-0.421352	0.586641
O4	O	0.812888	-0.171352	0.836641
O5	O	0.062826	-0.719091	0.098332
O6	O	0.312826	-0.469091	0.348332
O7	O	0.562826	-0.219091	0.598332
O8	O	0.812826	0.030909	0.848332
O9	O	0.062850	-0.826068	-0.008644
O10	O	0.312850	-0.576068	0.241356
O11	O	0.562850	-0.326068	0.491356
O12	O	0.812850	-0.076068	0.741356
O13	O	0.062864	-0.814374	0.193617
O14	O	0.312864	-0.564374	0.443617
O15	O	0.562864	-0.314374	0.693617
O16	O	0.812864	-0.064374	0.943617
O17	O	-0.062339	-0.826050	-0.008650
O18	O	0.187661	-0.576050	0.241350
O19	O	0.437661	-0.326050	0.491350
O20	O	0.687661	-0.076050	0.741350
O21	O	-0.062362	-0.719072	0.098326
O22	O	0.187638	-0.469072	0.348326
O23	O	0.437638	-0.219072	0.598326
O24	O	0.687638	0.030928	0.848326
O25	O	-0.062300	-0.921333	0.086636
O26	O	0.187700	-0.671333	0.336636
O27	O	0.437700	-0.421333	0.586636
O28	O	0.687700	-0.171333	0.836636
Cu29	Cu	-0.073762	-0.820201	0.092481
Cu30	Cu	0.176238	-0.570201	0.342481
Cu31	Cu	0.426238	-0.320201	0.592481
Cu32	Cu	0.676238	-0.070201	0.842481
Cu33	Cu	0.074288	-0.820223	0.092487
Cu34	Cu	0.324288	-0.570223	0.342487
Cu35	Cu	0.574288	-0.320223	0.592487
Cu36	Cu	0.824288	-0.070223	0.842487
O37	O	-0.062324	-0.814355	0.193612
O38	O	0.187676	-0.564355	0.443612
O39	O	0.437676	-0.314355	0.693612
O40	O	0.687676	-0.064355	0.943612
C41	C	0.000224	-0.693205	0.097953
C42	C	0.250224	-0.443205	0.347953
C43	C	0.500224	-0.193205	0.597953
C44	C	0.750224	0.056795	0.847953
C45	C	0.000200	-0.616101	0.096825
C46	C	0.250200	-0.366101	0.346825
C47	C	0.500200	-0.116101	0.596825
C48	C	0.750200	0.133899	0.846825
N49	N	-0.177892	-0.820190	0.092476
N50	N	0.072108	-0.570190	0.342476
N51	N	0.322108	-0.320190	0.592476
N52	N	0.572108	-0.070190	0.842476
C53	C	0.000214	-0.571403	0.159593
C54	C	0.250214	-0.321403	0.409593
C55	C	0.500214	-0.071403	0.659593
C56	C	0.750214	0.178597	0.909593
C57	C	0.000219	-0.498956	0.158533
C58	C	0.250219	-0.248956	0.408533
C59	C	0.500219	0.001044	0.658533
C60	C	0.750219	0.251044	0.908533
C61	C	0.000224	-0.471210	0.094701
C62	C	0.250224	-0.221210	0.344701
C63	C	0.500224	0.028790	0.594701
C64	C	0.750224	0.278790	0.844701
C65	C	0.000206	-0.515918	0.031924
C66	C	0.250206	-0.265918	0.281924
C67	C	0.500206	-0.015918	0.531924
C68	C	0.750206	0.234082	0.781924
C69	C	0.000194	-0.588363	0.032986
C70	C	0.250194	-0.338363	0.282986
C71	C	0.500194	-0.088363	0.532986
C72	C	0.750194	0.161637	0.782986
C73	C	0.044099	-0.362956	0.044525
C74	C	0.294099	-0.112956	0.294525
C75	C	0.544099	0.137044	0.544525
C76	C	0.794099	0.387044	0.794525
C77	C	0.044116	-0.290511	0.043465
C78	C	0.294116	-0.040511	0.293465
C79	C	0.544116	0.209489	0.543465
C80	C	0.794116	0.459489	0.793465
C81	C	0.000257	-0.247764	0.091423
C82	C	0.250257	0.002236	0.341423
C83	C	0.500257	0.252236	0.591423
C84	C	0.750257	0.502236	0.841423
C85	C	-0.043607	-0.277469	0.140452
C86	C	0.206393	-0.027469	0.390452
C87	C	0.456393	0.222531	0.640452
C88	C	0.706393	0.472531	0.890452
C89	C	-0.043619	-0.349915	0.141514
C90	C	0.206381	-0.099915	0.391514
C91	C	0.456381	0.150085	0.641514
C92	C	0.706381	0.400085	0.891514
C93	C	0.000237	-0.392656	0.093543
C94	C	0.250237	-0.142656	0.343543
C95	C	0.500237	0.107344	0.593543
C96	C	0.750237	0.357344	0.843543
C97	C	0.000275	-0.124510	0.153047
C98	C	0.250275	0.125490	0.403047
C99	C	0.500275	0.375490	0.653047
C100	C	0.750275	0.625490	0.903047
C101	C	0.000275	-0.052062	0.151984
C102	C	0.250275	0.197938	0.401984
C103	C	0.500275	0.447938	0.651984
C104	C	0.750275	0.697938	0.901984
C105	C	0.000270	-0.069026	0.025373
C106	C	0.250270	0.180974	0.275373
C107	C	0.500270	0.430974	0.525373
C108	C	0.750270	0.680974	0.775373
C109	C	0.000262	-0.141472	0.026438
C110	C	0.250262	0.108528	0.276438
C111	C	0.500262	0.358528	0.526438
C112	C	0.750262	0.608528	0.776438
C113	C	0.000269	-0.169210	0.090276
C114	C	0.250269	0.080790	0.340276
C115	C	0.500269	0.330790	0.590276
C116	C	0.750269	0.580790	0.840276
C117	C	-0.217269	-0.867575	0.045130
C118	C	0.032731	-0.617575	0.295130
C119	C	0.282731	-0.367575	0.545130
C120	C	0.532731	-0.117575	0.795130
C121	C	-0.296071	-0.867579	0.045127
C122	C	-0.046071	-0.617579	0.295127
C123	C	0.203929	-0.367579	0.545127
C124	C	0.453929	-0.117579	0.795127
C125	C	-0.335493	-0.820205	0.092481
C126	C	-0.085493	-0.570205	0.342481
C127	C	0.164507	-0.320205	0.592481
C128	C	0.414507	-0.070205	0.842481
C129	C	-0.296107	-0.772811	0.139831
C130	C	-0.046107	-0.522811	0.389831
C131	C	0.203893	-0.272811	0.639831
C132	C	0.453893	-0.022811	0.889831
C133	C	-0.217307	-0.772804	0.139828
C134	C	0.032693	-0.522804	0.389828
C135	C	0.282693	-0.272804	0.639828
C136	C	0.532693	-0.022804	0.889828
C137	C	-0.460328	-0.810904	0.155769
C138	C	-0.210328	-0.560904	0.405769
C139	C	0.039672	-0.310904	0.655769
C140	C	0.289672	-0.060904	0.905769
C141	C	-0.539127	-0.810916	0.155773
C142	C	-0.289127	-0.560916	0.405773
C143	C	-0.039127	-0.310916	0.655773
C144	C	0.210873	-0.060916	0.905773
C145	C	-0.578539	-0.820223	0.092490
C146	C	-0.328539	-0.570223	0.342490
C147	C	-0.078539	-0.320223	0.592490
C148	C	0.171461	-0.070223	0.842490
C149	C	-0.539143	-0.829533	0.029200
C150	C	-0.289143	-0.579533	0.279200
C151	C	-0.039143	-0.329533	0.529200
C152	C	0.210857	-0.079533	0.779200
C153	C	-0.460343	-0.829526	0.029197
C154	C	-0.210343	-0.579526	0.279197
C155	C	0.039657	-0.329526	0.529197
C156	C	0.289657	-0.079526	0.779197
C157	C	-0.420939	-0.820207	0.092489
C158	C	-0.170939	-0.570207	0.342489
C159	C	0.079061	-0.320207	0.592489
C160	C	0.329061	-0.070207	0.842489
C161	C	-0.703362	-0.867615	0.045136
C162	C	-0.453362	-0.617615	0.295136
C163	C	-0.203362	-0.367615	0.545136
C164	C	0.046638	-0.117615	0.795136
C165	C	-0.782165	-0.867615	0.045132
C166	C	-0.532165	-0.617615	0.295132
C167	C	-0.282165	-0.367615	0.545132
C168	C	-0.032165	-0.117615	0.795132
C169	C	-0.782200	-0.772850	0.139842
C170	C	-0.532200	-0.522850	0.389842
C171	C	-0.282200	-0.272850	0.639842
C172	C	-0.032200	-0.022850	0.889842
C173	C	-0.703398	-0.772847	0.139840
C174	C	-0.453398	-0.522847	0.389840
C175	C	-0.203398	-0.272847	0.639840
C176	C	0.046602	-0.022847	0.889840
C177	C	-0.663984	-0.820234	0.092488
C178	C	-0.413984	-0.570234	0.342488
C179	C	-0.163984	-0.320234	0.592488
C180	C	0.086016	-0.070234	0.842488
N181	N	0.178418	-0.820239	0.092486
N182	N	0.428418	-0.570239	0.342486
N183	N	0.678418	-0.320239	0.592486
N184	N	0.928418	-0.070239	0.842486
C185	C	0.000290	0.052781	0.087017
C186	C	0.250290	0.302781	0.337017
C187	C	0.500290	0.552781	0.587017
C188	C	0.750290	0.802781	0.837017
C189	C	0.000279	-0.024321	0.088151
C190	C	0.250279	0.225679	0.338151
C191	C	0.500279	0.475679	0.588151
C192	C	0.750279	0.725679	0.838151
C193	C	0.000255	-0.825684	-0.034523
C194	C	0.250255	-0.575684	0.215477
C195	C	0.500255	-0.325684	0.465477
C196	C	0.750255	-0.075684	0.715477
C197	C	0.000252	-0.824557	-0.111627
C198	C	0.250252	-0.574557	0.138373
C199	C	0.500252	-0.324557	0.388373
C200	C	0.750252	-0.074557	0.638373
C201	C	0.068493	-0.824041	-0.147835
C202	C	0.318493	-0.574041	0.102165
C203	C	0.568493	-0.324041	0.352165
C204	C	0.818493	-0.074041	0.602165
C205	C	0.068498	-0.822972	-0.220281
C206	C	0.318498	-0.572972	0.029719
C207	C	0.568498	-0.322972	0.279719
C208	C	0.818498	-0.072972	0.529719
C209	C	0.000259	-0.822433	-0.256518
C210	C	0.250259	-0.572433	-0.006518
C211	C	0.500259	-0.322433	0.243482
C212	C	0.750259	-0.072433	0.493482
C213	C	-0.067990	-0.822945	-0.220302
C214	C	0.182010	-0.572945	0.029698
C215	C	0.432010	-0.322945	0.279698
C216	C	0.682010	-0.072945	0.529698
C217	C	-0.067994	-0.824007	-0.147856
C218	C	0.182006	-0.574007	0.102144
C219	C	0.432006	-0.324007	0.352144
C220	C	0.682006	-0.074007	0.602144
C221	C	-0.052004	-0.861427	-0.376752
C222	C	0.197996	-0.611427	-0.126752
C223	C	0.447996	-0.361427	0.123248
C224	C	0.697996	-0.111427	0.373248
C225	C	-0.051998	-0.860370	-0.449197
C226	C	0.198002	-0.610370	-0.199197
C227	C	0.448002	-0.360370	0.050803
C228	C	0.698002	-0.110370	0.300803
C229	C	0.000267	-0.819156	-0.479964
C230	C	0.250267	-0.569156	-0.229964
C231	C	0.500267	-0.319156	0.020036
C232	C	0.750267	-0.069156	0.270036
C233	C	0.052537	-0.779008	-0.438279
C234	C	0.302537	-0.529008	-0.188279
C235	C	0.552537	-0.279008	0.061721
C236	C	0.802537	-0.029008	0.311721
C237	C	0.052534	-0.780069	-0.365833
C238	C	0.302534	-0.530069	-0.115833
C239	C	0.552534	-0.280069	0.134167
C240	C	0.802534	-0.030069	0.384167
C241	C	0.000255	-0.821282	-0.335073
C242	C	0.250255	-0.571282	-0.085073
C243	C	0.500255	-0.321282	0.164927
C244	C	0.750255	-0.071282	0.414927
C245	C	0.068517	-0.817480	-0.594726
C246	C	0.318517	-0.567480	-0.344726
C247	C	0.568517	-0.317480	-0.094726
C248	C	0.818517	-0.067480	0.155274
C249	C	0.068520	-0.816407	-0.667173
C250	C	0.318520	-0.566407	-0.417173
C251	C	0.568520	-0.316407	-0.167173
C252	C	0.818520	-0.066407	0.082827
C253	C	-0.067970	-0.816387	-0.667193
C254	C	0.182030	-0.566387	-0.417193
C255	C	0.432030	-0.316387	-0.167193
C256	C	0.682030	-0.066387	0.082807
C257	C	-0.067971	-0.817453	-0.594747
C258	C	0.182029	-0.567453	-0.344747
C259	C	0.432029	-0.317453	-0.094747
C260	C	0.682029	-0.067453	0.155253
C261	C	0.000275	-0.818003	-0.558518
C262	C	0.250275	-0.568003	-0.308518
C263	C	0.500275	-0.318003	-0.058518
C264	C	0.750275	-0.068003	0.191482
C265	C	0.000273	-0.814740	0.219491
C266	C	0.250273	-0.564740	0.469491
C267	C	0.500273	-0.314740	0.719491
C268	C	0.750273	-0.064740	0.969491
C269	C	0.000280	-0.815867	0.296595
C270	C	0.250280	-0.565867	0.546595
C271	C	0.500280	-0.315867	0.796595
C272	C	0.750280	-0.065867	1.046595
H273	H	0.000221	-0.593982	0.211576
H274	H	0.250221	-0.343982	0.461576
H275	H	0.500221	-0.093982	0.711576
H276	H	0.750221	0.156018	0.961576
F277	F	0.000179	-0.635937	-0.033824
F278	F	0.250179	-0.385937	0.216176
F279	F	0.500179	-0.135937	0.466176
F280	F	0.750179	0.114063	0.716176
H281	H	0.000282	-0.015669	0.203100
H282	H	0.250282	0.234331	0.453100
H283	H	0.500282	0.484331	0.703100
H284	H	0.750282	0.734331	0.953100
H285	H	0.124091	-0.815984	-0.696651
H286	H	0.374091	-0.565984	-0.446651
H287	H	0.624091	-0.315984	-0.196651
H288	H	0.874091	-0.065984	0.053349
H289	H	-0.671269	-0.906198	0.006577
H290	H	-0.421269	-0.656198	0.256577
H291	H	-0.171269	-0.406198	0.506577
H292	H	0.078731	-0.156198	0.756577
F293	F	-0.140602	-0.818002	-0.556210
F294	F	0.109398	-0.568002	-0.306210
F295	F	0.359398	-0.318002	-0.056210
F296	F	0.609398	-0.068002	0.193790
H297	H	-0.428245	-0.803313	0.207305
H298	H	-0.178245	-0.553313	0.457305
H299	H	0.071755	-0.303313	0.707305
H300	H	0.321755	-0.053313	0.957305
H301	H	0.124064	-0.824487	-0.118342
H302	H	0.374064	-0.574487	0.131658
H303	H	0.624064	-0.324487	0.381658
H304	H	0.874064	-0.074487	0.631658
F305	F	0.090781	-0.408444	-0.006523
F306	F	0.340781	-0.158444	0.243477
F307	F	0.590781	0.091556	0.493477
F308	F	0.840781	0.341556	0.743477
H309	H	0.000228	-0.462556	0.209648
H310	H	0.250228	-0.212556	0.459648
H311	H	0.500228	0.037444	0.709648
H312	H	0.750228	0.287444	0.959648
F313	F	-0.175323	-0.918005	-0.005268
F314	F	0.074677	-0.668005	0.244732
F315	F	0.324677	-0.418005	0.494732
F316	F	0.574677	-0.168005	0.744732
H317	H	-0.328137	-0.906167	0.006570
H318	H	-0.078137	-0.656167	0.256570
H319	H	0.171863	-0.406167	0.506570
H320	H	0.421863	-0.156167	0.756570
H321	H	-0.814226	-0.906199	0.006574
H322	H	-0.564226	-0.656199	0.256574
H323	H	-0.314226	-0.406199	0.506574
H324	H	-0.064226	-0.156199	0.756574
F325	F	0.108161	-0.737341	-0.321471
F326	F	0.358161	-0.487341	-0.071471
F327	F	0.608161	-0.237341	0.178529
F328	F	0.858161	0.012659	0.428529
F329	F	-0.107622	-0.905310	-0.344018
F330	F	0.142378	-0.655310	-0.094018
F331	F	0.392378	-0.405310	0.155982
F332	F	0.642378	-0.155310	0.405982
F333	F	-0.090288	-0.231980	0.191497
F334	F	0.159712	0.018020	0.441497
F335	F	0.409712	0.268020	0.691497
F336	F	0.659712	0.518020	0.941497
F337	F	-0.140615	-0.822367	-0.258868
F338	F	0.109385	-0.572367	-0.008868
F339	F	0.359385	-0.322367	0.241132
F340	F	0.609385	-0.072367	0.491132
F341	F	-0.338063	-0.722389	0.190227
F342	F	-0.088063	-0.472389	0.440227
F343	F	0.161937	-0.222389	0.690227
F344	F	0.411937	0.027611	0.940227
F345	F	-0.175398	-0.722368	0.190222
F346	F	0.074602	-0.472368	0.440222
F347	F	0.324602	-0.222368	0.690222
F348	F	0.574602	0.027632	0.940222
H349	H	-0.123565	-0.824424	-0.118376
H350	H	0.126435	-0.574424	0.131624
H351	H	0.376435	-0.324424	0.381624
H352	H	0.626435	-0.074424	0.631624
H353	H	-0.079338	-0.374097	0.181433
H354	H	0.170662	-0.124097	0.431433
H355	H	0.420662	0.125903	0.681433
H356	H	0.670662	0.375903	0.931433
H357	H	0.000255	-0.177867	-0.024675
H358	H	0.250255	0.072133	0.225325
H359	H	0.500255	0.322133	0.475325
H360	H	0.750255	0.572133	0.725325
H361	H	-0.571197	-0.803341	0.207307
H362	H	-0.321197	-0.553341	0.457307
H363	H	-0.071197	-0.303341	0.707307
H364	H	0.178803	-0.053341	0.957307
H365	H	-0.814297	-0.734274	0.178396
H366	H	-0.564297	-0.484274	0.428396
H367	H	-0.314297	-0.234274	0.678396
H368	H	-0.064297	0.015726	0.928396
H369	H	0.000270	-0.147095	0.205028
H370	H	0.250270	0.102905	0.455028
H371	H	0.500270	0.352905	0.705028
H372	H	0.750270	0.602905	0.955028
F373	F	-0.661487	-0.722416	0.190235
F374	F	-0.411487	-0.472416	0.440235
F375	F	-0.161487	-0.222416	0.690235
F376	F	0.088513	0.027584	0.940235
H377	H	-0.428270	-0.837104	-0.022335
H378	H	-0.178270	-0.587104	0.227665
H379	H	0.071730	-0.337104	0.477665
H380	H	0.321730	-0.087104	0.727665
H381	H	-0.123532	-0.815943	-0.696696
H382	H	0.126468	-0.565943	-0.446696
H383	H	0.376468	-0.315943	-0.196696
H384	H	0.626468	-0.065943	0.053304
F385	F	0.000268	-0.039502	-0.042562
F386	F	0.250268	0.210498	0.207438
F387	F	0.500268	0.460498	0.457438
F388	F	0.750268	0.710498	0.707438
H389	H	0.079836	-0.266331	0.003546
H390	H	0.329836	-0.016331	0.253546
H391	H	0.579836	0.233669	0.503546
H392	H	0.829836	0.483669	0.753546
F393	F	0.141131	-0.822423	-0.258824
F394	F	0.391131	-0.572423	-0.008824
F395	F	0.641131	-0.322423	0.241176
F396	F	0.891131	-0.072423	0.491176
H397	H	0.000220	-0.493323	-0.020048
H398	H	0.250220	-0.243323	0.229952
H399	H	0.500220	0.006677	0.479952
H400	H	0.750220	0.256677	0.729952
H401	H	-0.571231	-0.837111	-0.022332
H402	H	-0.321231	-0.587111	0.227668
H403	H	-0.071231	-0.337111	0.477668
H404	H	0.178769	-0.087111	0.727668
H405	H	0.095096	-0.745447	-0.463327
H406	H	0.345096	-0.495447	-0.213327
H407	H	0.595096	-0.245447	0.036673
H408	H	0.845096	0.004553	0.286673
H409	H	0.124087	-0.817924	-0.565227
H410	H	0.374087	-0.567924	-0.315227
H411	H	0.624087	-0.317924	-0.065227
H412	H	0.874087	-0.067924	0.184773
F413	F	-0.107626	-0.903101	-0.493556
F414	F	0.142374	-0.653101	-0.243556
F415	F	0.392374	-0.403101	0.006444
F416	F	0.642374	-0.153101	0.256444
