data_functionalizedCrystal
_audit_creation_method	'MofGen! by Chris Wilmer'
_symmetry_space_group_name_H-M	'P1'
_symmetry_Int_Tables_number	1
_symmetry_cell_setting	triclinic
loop_
_symmetry_equiv_pos_as_xyz
  x,y,z
_cell_length_a	12.759399
_cell_length_b	11.169417
_cell_length_c	12.759393
_cell_angle_alpha	90.018340
_cell_angle_beta	90.031315
_cell_angle_gamma	90.016562
loop_
_atom_site_label
_atom_site_type_symbol
_atom_site_fract_x
_atom_site_fract_y
_atom_site_fract_z
Zn1	Zn	-0.418180	1.834900	0.593979
Zn2	Zn	-0.593899	1.834776	0.418300
Zn3	Zn	-0.418237	1.634191	0.418319
Zn4	Zn	-0.593820	1.634175	0.593942
O5	O	-0.506034	1.734511	0.506135
O6	O	-0.441498	2.002833	0.570682
O7	O	-0.570654	1.808123	0.271281
O8	O	-0.271208	1.660875	0.441644
O9	O	-0.570598	2.002742	0.441612
O10	O	-0.271166	1.808335	0.570701
O11	O	-0.441596	1.660754	0.271295
O12	O	-0.441519	1.466239	0.441608
O13	O	-0.570464	1.660847	0.740968
O14	O	-0.570519	1.466227	0.570637
O15	O	-0.441422	1.808319	0.740995
O16	O	-0.740909	1.808107	0.441575
O17	O	-0.740851	1.660726	0.570619
C18	C	-0.506018	1.422686	0.506121
C19	C	-0.506036	1.289286	0.506140
C20	C	-0.779001	1.734434	0.506114
C21	C	-0.895778	1.734511	0.506140
C22	C	-1.060481	1.657920	0.438934
C23	C	-0.950757	1.657838	0.438908
C24	C	-0.950528	1.811262	0.573411
C25	C	-1.060250	1.811336	0.573442
C26	C	-1.060613	1.569345	0.361276
C27	C	-0.950889	1.569264	0.361250
C28	C	-0.232000	1.734620	0.506178
C29	C	-0.115224	1.734667	0.506197
C30	C	-0.505928	1.734595	0.780168
C31	C	-0.505883	1.734630	0.896945
C32	C	-0.506051	2.047553	0.506149
C33	C	-0.506058	2.180953	0.506155
C34	C	-0.506064	1.734496	0.233167
C35	C	-0.505813	1.734693	0.116391
C36	C	-0.438684	1.811430	0.951823
C37	C	-0.438646	1.811458	1.061547
C38	C	-0.573014	1.657885	1.061506
C39	C	-0.573046	1.657851	0.951783
C40	C	-0.361111	1.900098	0.951848
C41	C	-0.361073	1.900126	1.061572
H42	H	-1.104817	1.873825	0.628219
H43	H	-0.905756	1.873683	0.628161
C44	C	-0.911092	1.602673	0.252864
C45	C	-0.850060	1.706577	0.259752
C46	C	-0.813372	1.737380	0.159935
H47	H	-0.968929	1.616675	0.207597
H48	H	-0.869750	1.539085	0.225755
H49	H	-0.891400	1.770151	0.286846
H50	H	-0.792208	1.692603	0.304999
H51	H	-0.772030	1.673791	0.132826
H52	H	-0.871215	1.751376	0.114676
H53	H	-0.771950	1.807874	0.164596
C54	C	-0.645899	1.574667	1.121237
C55	C	-0.631507	1.591150	1.229073
C56	C	-0.698642	1.514523	1.284127
H57	H	-0.630591	1.493980	1.103380
H58	H	-0.716519	1.592211	1.103300
H59	H	-0.560903	1.573598	1.247003
H60	H	-0.646821	1.671822	1.246961
H61	H	-0.769263	1.532067	1.266190
H62	H	-0.683330	1.433840	1.266262
H63	H	-0.688894	1.525704	1.357300
H64	H	-1.090443	1.476399	0.383006
H65	H	-0.382864	1.993080	1.091350
C66	C	-1.105983	1.613604	0.258157
C67	C	-1.072077	1.539228	0.176598
C68	C	-1.113857	1.579952	0.081591
H69	H	-1.082968	1.693184	0.245525
H70	H	-1.180346	1.612079	0.261661
H71	H	-0.997730	1.540765	0.173092
H72	H	-1.095090	1.459644	0.189195
H73	H	-1.188220	1.578427	0.085095
H74	H	-1.090839	1.659533	0.068969
H75	H	-1.090866	1.529489	0.026243
C76	C	-0.905764	1.451357	0.399972
C77	C	-0.987715	1.373332	0.425662
C78	C	-0.946184	1.264704	0.461322
H79	H	-0.863815	1.465375	0.460266
H80	H	-0.863963	1.416567	0.346425
H81	H	-1.029498	1.408115	0.479205
H82	H	-1.029671	1.359279	0.365384
H83	H	-0.904383	1.229914	0.407776
H84	H	-0.904235	1.278735	0.521614
H85	H	-1.001780	1.211747	0.478749
H86	H	-0.627762	1.595310	0.907106
H87	H	-0.279747	1.875232	0.922091
H88	H	-0.390278	1.988369	0.917812
C89	C	-0.258093	1.855759	1.107185
C90	C	-0.263586	1.858123	1.216758
C91	C	-0.168754	1.817235	1.258814
H92	H	-0.202582	1.906049	1.084334
H93	H	-0.245559	1.776112	1.084247
H94	H	-0.276108	1.937758	1.239686
H95	H	-0.319077	1.807831	1.239637
H96	H	-0.156220	1.737587	1.235876
H97	H	-0.113250	1.867529	1.235956
H98	H	-0.172471	1.818823	1.333163
