data_functionalizedCrystal
_audit_creation_method	'MofGen! by Chris Wilmer'
_symmetry_space_group_name_H-M	'P1'
_symmetry_Int_Tables_number	1
_symmetry_cell_setting	triclinic
loop_
_symmetry_equiv_pos_as_xyz
  x,y,z
_cell_length_a	9.065218
_cell_length_b	16.053802
_cell_length_c	9.065218
_cell_angle_alpha	87.394393
_cell_angle_beta	85.015885
_cell_angle_gamma	92.619430
loop_
_atom_site_label
_atom_site_type_symbol
_atom_site_fract_x
_atom_site_fract_y
_atom_site_fract_z
O1	O	1.966543	0.069428	0.210228
O2	O	1.537259	0.069429	0.227974
O3	O	1.760774	0.069426	0.004459
O4	O	1.743028	0.069430	0.433743
O5	O	1.748470	-0.069432	0.016710
O6	O	1.524955	-0.069430	0.240226
O7	O	1.954240	-0.069431	0.222479
Zn8	Zn	1.737644	-0.091477	0.233298
Zn9	Zn	1.753854	0.091475	0.217156
O10	O	1.730724	-0.069429	0.445995
C11	C	1.476120	-0.000001	0.232394
C12	C	1.312277	-0.000000	0.227294
N13	N	1.726591	-0.216338	0.244313
C14	C	1.821733	-0.260032	0.149242
C15	C	1.814016	-0.347439	0.156962
C16	C	1.711163	-0.391149	0.259761
C17	C	1.616011	-0.347448	0.354836
C18	C	1.623722	-0.260043	0.347108
C19	C	1.677478	-0.652559	0.293476
C20	C	1.669777	-0.739970	0.301200
C21	C	1.867781	-0.739955	0.103322
C22	C	1.875489	-0.652548	0.095609
C23	C	1.780332	-0.608855	0.190679
N24	N	1.703275	-0.480493	0.267657
N25	N	1.788214	-0.519512	0.182775
C26	C	2.015378	0.000000	0.218059
C27	C	2.179222	0.000005	0.223158
C28	C	1.752917	-0.000002	-0.044402
C29	C	1.747818	0.000002	-0.208246
N30	N	1.764918	0.216335	0.206128
C31	C	1.738582	0.000001	0.494855
C32	C	1.743682	0.000002	0.658698
H33	H	1.905493	-0.224449	0.065538
Br34	Br	1.943133	-0.406742	0.027929
Br35	Br	1.996914	-0.799255	-0.025698
Br36	Br	1.530184	-0.799286	0.440732
H37	H	1.959240	-0.616961	0.011902
Br38	Br	1.548343	-0.593265	0.422498
Br39	Br	1.476410	-0.406766	0.494343
H40	H	1.546246	-0.224468	0.424524
