data_functionalizedCrystal
_audit_creation_method	'MofGen! by Chris Wilmer'
_symmetry_space_group_name_H-M	'P1'
_symmetry_Int_Tables_number	1
_symmetry_cell_setting	triclinic
loop_
_symmetry_equiv_pos_as_xyz
  x,y,z
_cell_length_a	16.625548
_cell_length_b	29.839132
_cell_length_c	16.625539
_cell_angle_alpha	90.034308
_cell_angle_beta	90.022345
_cell_angle_gamma	90.045122
loop_
_atom_site_label
_atom_site_type_symbol
_atom_site_fract_x
_atom_site_fract_y
_atom_site_fract_z
Zn1	Zn	-1.232553	0.178854	-0.455914
Zn2	Zn	-1.232402	0.253985	-0.321067
Zn3	Zn	-1.097715	0.178870	-0.321090
Zn4	Zn	-1.097631	0.253958	-0.455853
O5	O	-1.165075	0.216417	-0.388481
O6	O	-1.345365	0.188825	-0.438042
O7	O	-1.214508	0.244039	-0.208238
O8	O	-1.115699	0.116001	-0.339010
O9	O	-1.345255	0.244024	-0.338971
O10	O	-1.214764	0.115989	-0.438065
O11	O	-1.115553	0.188852	-0.208255
O12	O	-0.984871	0.188825	-0.338951
O13	O	-1.115557	0.243977	-0.568693
O14	O	-0.984810	0.243992	-0.437960
O15	O	-1.214683	0.188799	-0.568738
O16	O	-1.214427	0.316849	-0.338911
O17	O	-1.115411	0.316829	-0.437938
C18	C	-0.955584	0.216408	-0.388452
C19	C	-0.865963	0.216415	-0.388459
C20	C	-0.537788	0.216414	-0.388483
C21	C	-0.629096	0.216413	-0.388474
C22	C	-0.701873	0.216415	-0.388470
C23	C	-0.793187	0.216413	-0.388462
C24	C	-1.164916	0.333139	-0.388433
C25	C	-1.164921	0.383074	-0.388439
C26	C	-0.375384	0.216423	-0.388503
C27	C	-0.465005	0.216418	-0.388492
C28	C	-1.216669	0.692715	-0.336960
C29	C	-1.216746	0.880388	-0.336978
O30	O	-1.260657	0.904651	-0.293195
N31	N	-1.165160	0.903859	-0.388494
C32	C	-1.113554	0.880408	-0.440012
O33	O	-1.069684	0.904678	-0.483836
C34	C	-1.113482	0.692736	-0.439998
C35	C	-1.165066	0.669268	-0.388473
C36	C	-1.268249	0.669247	-0.285440
C37	C	-1.268227	0.622331	-0.285433
C38	C	-1.216623	0.598884	-0.336946
C39	C	-1.165043	0.622352	-0.388466
C40	C	-1.061881	0.669287	-0.491520
C41	C	-1.061869	0.622366	-0.491513
C42	C	-1.113453	0.598897	-0.439988
C43	C	-1.113417	0.551990	-0.439971
N44	N	-1.165003	0.528519	-0.388456
C45	C	-1.216606	0.551966	-0.336943
C46	C	-1.113595	0.978939	-0.440015
C47	C	-1.113611	1.025857	-0.440018
C48	C	-1.216805	1.025833	-0.336985
C49	C	-1.216783	0.978914	-0.336979
C50	C	-1.165181	0.955468	-0.388500
C51	C	-1.216554	0.453440	-0.336931
C52	C	-1.216524	0.406521	-0.336926
C53	C	-1.113334	0.406549	-0.439962
C54	C	-1.113361	0.453464	-0.439965
C55	C	-1.164977	0.476909	-0.388446
O56	O	-1.069535	0.527698	-0.483738
O57	O	-1.260482	0.527688	-0.293139
C58	C	-1.216692	0.739630	-0.336967
C59	C	-1.165112	0.763099	-0.388487
C60	C	-1.113508	0.739652	-0.440000
C61	C	-1.165128	0.810017	-0.388490
C62	C	-1.216732	0.833464	-0.336977
C63	C	-1.268318	0.809993	-0.285462
C64	C	-1.268295	0.763077	-0.285455
C65	C	-1.061922	0.763123	-0.491516
C66	C	-1.061948	0.810038	-0.491518
C67	C	-1.113552	0.833485	-0.440005
C68	C	-1.165128	0.216383	-0.598790
C69	C	-1.165150	0.216369	-0.688411
C70	C	-1.165227	1.099238	-0.388529
C71	C	-1.165215	1.049304	-0.388506
C72	C	-1.165187	0.216319	-1.016587
C73	C	-1.165175	0.216334	-0.925278
C74	C	-1.165169	0.216344	-0.852502
C75	C	-1.165156	0.216359	-0.761188
C76	C	-1.165069	0.216418	-0.178990
C77	C	-1.165203	0.216305	-0.089369
H78	H	-1.258530	0.387414	-0.294966
F79	F	-1.323236	0.834955	-0.230636
H80	H	-1.071572	0.959852	-0.481971
H81	H	-1.310233	0.603226	-0.243480
H82	H	-1.310275	0.688332	-0.243492
H83	H	-1.258788	0.959809	-0.295023
F84	F	-1.058700	1.050829	-0.494849
F85	F	-1.271723	1.050795	-0.282159
H86	H	-1.019872	0.688387	-0.533473
H87	H	-1.019849	0.603278	-0.533470
H88	H	-1.071360	0.472573	-0.481923
F89	F	-1.058420	0.381586	-0.494785
F90	F	-1.323201	0.738106	-0.230617
H91	H	-1.019935	0.829142	-0.533475
H92	H	-1.019901	0.744036	-0.533465
H93	H	-1.258587	0.472524	-0.294982
