data_functionalizedCrystal
_audit_creation_method	'MofGen! by Chris Wilmer'
_symmetry_space_group_name_H-M	'P1'
_symmetry_Int_Tables_number	1
_symmetry_cell_setting	triclinic
loop_
_symmetry_equiv_pos_as_xyz
  x,y,z
_cell_length_a	19.805407
_cell_length_b	29.839131
_cell_length_c	19.805399
_cell_angle_alpha	90.029565
_cell_angle_beta	90.019573
_cell_angle_gamma	90.041420
loop_
_atom_site_label
_atom_site_type_symbol
_atom_site_fract_x
_atom_site_fract_y
_atom_site_fract_z
Zn1	Zn	1.034665	-0.178864	0.382710
Zn2	Zn	1.367998	0.154470	0.716044
Zn3	Zn	1.701332	0.487803	1.049377
Zn4	Zn	1.034550	-0.253991	0.269518
Zn5	Zn	1.367884	0.079342	0.602851
Zn6	Zn	1.701217	0.412675	0.936185
Zn7	Zn	0.921480	-0.178876	0.269535
Zn8	Zn	1.254813	0.154457	0.602868
Zn9	Zn	1.588146	0.487791	0.936202
Zn10	Zn	0.921414	-0.253967	0.382665
Zn11	Zn	1.254747	0.079366	0.715998
Zn12	Zn	1.588080	0.412699	1.049332
O13	O	0.978027	-0.216425	0.326107
O14	O	1.311360	0.116909	0.659440
O15	O	1.644694	0.450242	0.992774
O16	O	1.129366	-0.188834	0.367707
O17	O	1.462700	0.144499	0.701040
O18	O	1.796033	0.477832	1.034374
O19	O	1.019531	-0.244042	0.174804
O20	O	1.352864	0.089291	0.508137
O21	O	1.686197	0.422624	0.841470
O22	O	0.936570	-0.116007	0.284574
O23	O	1.269903	0.217326	0.617907
O24	O	1.603236	0.550659	0.951241
O25	O	1.129282	-0.244030	0.284545
O26	O	1.462615	0.089303	0.617879
O27	O	1.795949	0.422636	0.951212
O28	O	1.019727	-0.115998	0.367723
O29	O	1.353060	0.217335	0.701057
O30	O	1.686393	0.550668	1.034390
O31	O	0.936458	-0.188856	0.174816
O32	O	1.269792	0.144478	0.508149
O33	O	1.603125	0.477811	0.841483
O34	O	0.826754	-0.188832	0.284530
O35	O	1.160088	0.144501	0.617863
O36	O	1.493421	0.477834	0.951196
O37	O	0.936457	-0.243990	0.477388
O38	O	1.269790	0.089344	0.810721
O39	O	1.603124	0.422677	1.144054
O40	O	0.826706	-0.244002	0.367646
O41	O	1.160039	0.089332	0.700979
O42	O	1.493372	0.422665	1.034313
O43	O	1.019662	-0.188811	0.477421
O44	O	1.352996	0.144522	0.810754
O45	O	1.686329	0.477855	1.144088
O46	O	1.019467	-0.316855	0.284501
O47	O	1.352800	0.016478	0.617835
O48	O	1.686133	0.349811	0.951168
O49	O	0.936346	-0.316838	0.367630
O50	O	1.269679	0.016496	0.700963
O51	O	1.603012	0.349829	1.034296
C52	C	0.802171	-0.216416	0.326085
C53	C	1.135504	0.116917	0.659418
C54	C	1.468838	0.450251	0.992752
C55	C	0.726939	-0.216423	0.326092
C56	C	1.060272	0.116910	0.659425
C57	C	1.393606	0.450243	0.992759
C58	C	0.977905	-0.333147	0.326073
C59	C	1.311238	0.000186	0.659407
C60	C	1.644572	0.333519	0.992740
C61	C	0.977915	-0.383082	0.326082
C62	C	1.311248	-0.049748	0.659415
C63	C	1.644581	0.283585	0.992748
C64	C	0.691587	-0.245193	0.369300
C65	C	1.024921	0.088140	0.702634
C66	C	1.358254	0.421474	1.035967
C67	C	0.620899	-0.245194	0.369310
C68	C	0.954232	0.088139	0.702643
C69	C	1.287566	0.421473	1.035977
C70	C	0.585564	-0.216427	0.326107
C71	C	0.918897	0.116907	0.659440
C72	C	1.252230	0.450240	0.992774
C73	C	0.620920	-0.187654	0.282897
C74	C	0.954254	0.145680	0.616230
C75	C	1.287587	0.479013	0.949563
C76	C	0.691607	-0.187651	0.282891
C77	C	1.024941	0.145682	0.616224
C78	C	1.358274	0.479016	0.949558
C79	C	0.335847	-0.187664	0.282919
C80	C	0.669180	0.145670	0.616252
C81	C	1.002514	0.479003	0.949586
C82	C	0.265155	-0.187669	0.282927
C83	C	0.598488	0.145664	0.616260
C84	C	0.931822	0.478997	0.949593
C85	C	0.265139	-0.245207	0.369338
C86	C	0.598472	0.088127	0.702671
C87	C	0.931805	0.421460	1.036005
C88	C	0.335826	-0.245204	0.369332
C89	C	0.669159	0.088130	0.702666
C90	C	1.002492	0.421463	1.035999
C91	C	0.371176	-0.216429	0.326125
C92	C	0.704510	0.116904	0.659458
C93	C	1.037843	0.450237	0.992791
C94	C	0.447825	-0.216428	0.326116
C95	C	0.781158	0.116905	0.659449
C96	C	1.114491	0.450238	0.992782
C97	C	0.508916	-0.216430	0.326112
C98	C	0.842250	0.116904	0.659445
C99	C	1.175583	0.450237	0.992779
C100	C	1.021387	-0.692722	0.282885
C101	C	1.354720	-0.359388	0.616219
C102	C	1.688054	-0.026055	0.949552
C103	C	1.021471	-0.880395	0.282912
C104	C	1.354804	-0.547061	0.616245
C105	C	1.688137	-0.213728	0.949578
O106	O	1.058335	-0.904656	0.246159
O107	O	1.391669	-0.571323	0.579492
O108	O	1.725002	-0.237990	0.912825
N109	N	0.978168	-0.903867	0.326158
N110	N	1.311501	-0.570533	0.659491
N111	N	1.644834	-0.237200	0.992825
C112	C	0.934844	-0.880418	0.369404
C113	C	1.268177	-0.547084	0.702738
C114	C	1.601510	-0.213751	1.036071
O115	O	0.898019	-0.904688	0.406194
O116	O	1.231352	-0.571355	0.739527
O117	O	1.564685	-0.238022	1.072860
C118	C	0.934764	-0.692746	0.369381
C119	C	1.268097	-0.359412	0.702714
C120	C	1.601431	-0.026079	1.036048
C121	C	0.978065	-0.669276	0.326127
C122	C	1.311398	-0.335942	0.659460
C123	C	1.644732	-0.002609	0.992793
C124	C	1.064685	-0.669252	0.239635
C125	C	1.398018	-0.335918	0.572969
C126	C	1.731352	-0.002585	0.906302
C127	C	1.064661	-0.622336	0.239626
C128	C	1.397994	-0.289003	0.572960
C129	C	1.731328	0.044330	0.906293
C130	C	1.021339	-0.598891	0.282868
C131	C	1.354672	-0.265557	0.616201
C132	C	1.688006	0.067776	0.949535
C133	C	0.978041	-0.622360	0.326118
C134	C	1.311374	-0.289027	0.659451
C135	C	1.644708	0.044306	0.992785
C136	C	0.891444	-0.669297	0.412630
C137	C	1.224777	-0.335964	0.745963
C138	C	1.558111	-0.002631	1.079297
C139	C	0.891429	-0.622376	0.412621
C140	C	1.224763	-0.289043	0.745955
C141	C	1.558096	0.044290	1.079288
C142	C	0.934730	-0.598907	0.369367
C143	C	1.268064	-0.265573	0.702701
C144	C	1.601397	0.067760	1.036034
C145	C	0.934695	-0.551999	0.369351
C146	C	1.268029	-0.218666	0.702684
C147	C	1.601362	0.114667	1.036017
N148	N	0.977998	-0.528527	0.326104
N149	N	1.311332	-0.195194	0.659437
N150	N	1.644665	0.138140	0.992771
C151	C	1.021320	-0.551973	0.282863
C152	C	1.354654	-0.218639	0.616196
C153	C	1.687987	0.114694	0.949529
C154	C	0.934888	-0.978948	0.369412
C155	C	1.268221	-0.645615	0.702746
C156	C	1.601554	-0.312282	1.036079
C157	C	0.934907	-1.025866	0.369418
C158	C	1.268240	-0.692533	0.702751
C159	C	1.601573	-0.359199	1.036084
C160	C	1.021534	-1.025840	0.282926
C161	C	1.354868	-0.692506	0.616259
C162	C	1.688201	-0.359173	0.949592
C163	C	1.021512	-0.978921	0.282918
C164	C	1.354845	-0.645588	0.616251
C165	C	1.688178	-0.312254	0.949584
C166	C	0.978191	-0.955476	0.326166
C167	C	1.311524	-0.622143	0.659499
C168	C	1.644857	-0.288810	0.992833
C169	C	1.021266	-0.453447	0.282847
C170	C	1.354600	-0.120114	0.616181
C171	C	1.687933	0.213220	0.949514
C172	C	1.021237	-0.406527	0.282840
C173	C	1.354570	-0.073194	0.616174
C174	C	1.687903	0.260139	0.949507
C175	C	0.934611	-0.406558	0.369334
C176	C	1.267945	-0.073225	0.702668
C177	C	1.601278	0.260109	1.036001
C178	C	0.934638	-0.453473	0.369339
C179	C	1.267972	-0.120140	0.702672
C180	C	1.601305	0.213193	1.036006
C181	C	0.977971	-0.476917	0.326093
C182	C	1.311305	-0.143583	0.659427
C183	C	1.644638	0.189750	0.992760
O184	O	0.897855	-0.527708	0.406090
O185	O	1.231188	-0.194375	0.739423
O186	O	1.564522	0.138958	1.072756
O187	O	1.058150	-0.527694	0.246090
O188	O	1.391484	-0.194361	0.579423
O189	O	1.724817	0.138973	0.912756
C190	C	1.021411	-0.739637	0.282894
C191	C	1.354744	-0.406304	0.616227
C192	C	1.688078	-0.072970	0.949561
C193	C	0.978113	-0.763107	0.326144
C194	C	1.311446	-0.429773	0.659478
C195	C	1.644780	-0.096440	0.992811
C196	C	0.934791	-0.739661	0.369386
C197	C	1.268124	-0.406328	0.702719
C198	C	1.601458	-0.072994	1.036052
C199	C	0.978132	-0.810025	0.326149
C200	C	1.311465	-0.476691	0.659483
C201	C	1.644798	-0.143358	0.992816
C202	C	1.021454	-0.833470	0.282908
C203	C	1.354787	-0.500137	0.616241
C204	C	1.688120	-0.166804	0.949575
C205	C	1.064757	-0.809998	0.239661
C206	C	1.398090	-0.476665	0.572995
C207	C	1.731423	-0.143331	0.906328
C208	C	1.064733	-0.763083	0.239653
C209	C	1.398066	-0.429749	0.572986
C210	C	1.731399	-0.096416	0.906319
C211	C	0.891488	-0.763133	0.412632
C212	C	1.224821	-0.429800	0.745965
C213	C	1.558155	-0.096466	1.079299
C214	C	0.891515	-0.810049	0.412637
C215	C	1.224848	-0.476715	0.745970
C216	C	1.558182	-0.143382	1.079303
C217	C	0.934837	-0.833494	0.369395
C218	C	1.268170	-0.500161	0.702729
C219	C	1.601503	-0.166828	1.036062
C220	C	1.154570	-0.216434	0.326129
C221	C	1.487903	0.116900	0.659463
C222	C	1.821237	0.450233	0.992796
C223	C	1.229802	-0.216437	0.326139
C224	C	1.563135	0.116896	0.659472
C225	C	1.896468	0.450229	0.992806
C226	C	0.978065	-0.216396	0.502650
C227	C	1.311398	0.116937	0.835983
C228	C	1.644732	0.450270	1.169317
C229	C	0.978081	-0.216384	0.577882
C230	C	1.311415	0.116949	0.911215
C231	C	1.644748	0.450282	1.244549
C232	C	0.978168	-0.099246	0.326156
C233	C	1.311502	0.234087	0.659489
C234	C	1.644835	0.567420	0.992822
C235	C	0.978228	-0.049312	0.326176
C236	C	1.311562	0.284022	0.659510
C237	C	1.644895	0.617355	0.992843
C238	C	0.978028	-0.216420	0.150251
C239	C	1.311362	0.116913	0.483584
C240	C	1.644695	0.450246	0.816918
C241	C	0.978143	-0.216306	0.075019
C242	C	1.311477	0.117027	0.408353
C243	C	1.644810	0.450361	0.741686
C244	C	1.021407	-0.187652	0.613244
C245	C	1.354741	0.145682	0.946578
C246	C	1.688074	0.479015	1.279911
C247	C	1.021414	-0.187638	0.683933
C248	C	1.354748	0.145695	1.017266
C249	C	1.688081	0.479028	1.350600
C250	C	0.978098	-0.216361	0.719258
C251	C	1.311431	0.116972	1.052591
C252	C	1.644765	0.450306	1.385924
C253	C	0.934767	-0.245095	0.683890
C254	C	1.268101	0.088238	1.017223
C255	C	1.601434	0.421572	1.350557
C256	C	0.934757	-0.245105	0.613203
C257	C	1.268091	0.088228	0.946536
C258	C	1.601424	0.421561	1.279869
C259	C	0.934806	-0.245053	0.968963
C260	C	1.268139	0.088280	1.302297
C261	C	1.601472	0.421614	1.635630
C262	C	0.934820	-0.245041	1.039656
C263	C	1.268154	0.088292	1.372989
C264	C	1.601487	0.421625	1.706322
C265	C	1.021462	-0.187586	1.039694
C266	C	1.354796	0.145747	1.373027
C267	C	1.688129	0.479081	1.706360
C268	C	1.021453	-0.187597	0.969006
C269	C	1.354786	0.145737	1.302340
C270	C	1.688119	0.479070	1.635673
C271	C	0.978120	-0.216329	0.933645
C272	C	1.311453	0.117005	1.266978
C273	C	1.644786	0.450338	1.600312
C274	C	0.978112	-0.216342	0.856997
C275	C	1.311445	0.116991	1.190330
C276	C	1.644778	0.450325	1.523663
C277	C	0.978109	-0.216350	0.795905
C278	C	1.311442	0.116983	1.129238
C279	C	1.644776	0.450316	1.462571
H280	H	0.720352	-0.268620	0.404479
H281	H	1.053686	0.064713	0.737812
H282	H	1.387019	0.398046	1.071146
F283	F	1.067551	-0.157072	0.721565
F284	F	1.400884	0.176261	1.054899
F285	F	1.734218	0.509594	1.388232
H286	H	0.236387	-0.164241	0.247745
H287	H	0.569720	0.169092	0.581079
H288	H	0.903053	0.502426	0.914412
F289	F	1.067558	-0.157028	0.931415
F290	F	1.400891	0.176305	1.264749
F291	F	1.734224	0.509639	1.598082
H292	H	1.099922	-0.603230	0.204407
H293	H	1.433256	-0.269897	0.537741
H294	H	1.766589	0.063437	0.871074
H295	H	0.592119	-0.268622	0.404494
H296	H	0.925452	0.064712	0.737827
H297	H	1.258785	0.398045	1.071161
F298	F	0.888714	-0.275613	1.077249
F299	F	1.222048	0.057720	1.410583
F300	F	1.555381	0.391054	1.743916
F301	F	0.888664	-0.275662	0.721487
F302	F	1.221998	0.057672	1.054820
F303	F	1.555331	0.391005	1.388154
F304	F	1.110861	-0.834959	0.193639
F305	F	1.444195	-0.501626	0.526972
F306	F	1.777528	-0.168292	0.860305
H307	H	1.056744	-0.164189	1.068493
H308	H	1.390077	0.169144	1.401827
H309	H	1.723411	0.502477	1.735160
F310	F	0.373428	-0.275823	0.415312
F311	F	0.706762	0.057510	0.748645
F312	F	1.040095	0.390843	1.081979
F313	F	1.067515	-0.157083	0.575656
F314	F	1.400848	0.176250	0.908989
F315	F	1.734181	0.509584	1.242322
H316	H	0.856180	-0.688398	0.447849
H317	H	1.189514	-0.355065	0.781182
H318	H	1.522847	-0.021732	1.114516
H319	H	0.899531	-0.268455	0.940181
H320	H	1.232864	0.064878	1.273514
H321	H	1.566198	0.398212	1.606847
F322	F	0.888642	-0.275686	0.575568
F323	F	1.221976	0.057648	0.908901
F324	F	1.555309	0.390981	1.242234
F325	F	0.845321	-0.597427	0.458655
F326	F	1.178654	-0.264094	0.791988
F327	F	1.511988	0.069239	1.125322
H328	H	0.236348	-0.268634	0.404522
H329	H	0.569681	0.064699	0.737855
H330	H	0.903014	0.398032	1.071189
H331	H	0.856211	-0.744047	0.447845
H332	H	1.189544	-0.410714	0.781179
H333	H	1.522877	-0.077381	1.114512
F334	F	0.373461	-0.157038	0.236935
F335	F	0.706794	0.176295	0.570269
F336	F	1.040127	0.509629	0.903602
F337	F	0.583312	-0.157035	0.236921
F338	F	0.916645	0.176299	0.570254
F339	F	1.249979	0.509632	0.903588
F340	F	0.729231	-0.157029	0.236904
F341	F	1.062564	0.176304	0.570237
F342	F	1.395898	0.509637	0.903571
F343	F	0.888509	-0.381597	0.415355
F344	F	1.221843	-0.048264	0.748688
F345	F	1.555176	0.285070	1.082021
F346	F	1.067325	-0.381552	0.236801
F347	F	1.400658	-0.048218	0.570134
F348	F	1.733992	0.285115	0.903468
H349	H	1.056554	-0.472529	0.247634
H350	H	1.389887	-0.139196	0.580967
H351	H	1.723220	0.194138	0.914301
H352	H	1.099967	-0.688336	0.204423
H353	H	1.433300	-0.355003	0.537756
H354	H	1.766633	-0.021670	0.871089
F355	F	1.067598	-0.953947	0.236882
F356	F	1.400932	-0.620614	0.570215
F357	F	1.734265	-0.287280	0.903548
H358	H	0.899640	-1.044971	0.404633
H359	H	1.232973	-0.711638	0.737967
H360	H	1.566307	-0.378305	1.071300
F361	F	1.067640	-1.050800	0.236903
F362	F	1.400973	-0.717467	0.570236
F363	F	1.734306	-0.384134	0.903570
F364	F	0.888776	-0.954002	0.415446
F365	F	1.222109	-0.620669	0.748779
F366	F	1.555442	-0.287335	1.082112
H367	H	0.899381	-0.472583	0.404562
H368	H	1.232715	-0.139250	0.737896
H369	H	1.566048	0.194083	1.071229
H370	H	1.099993	-0.743977	0.204431
H371	H	1.433326	-0.410644	0.537765
H372	H	1.766659	-0.077310	0.871098
F373	F	0.845423	-0.835022	0.458675
F374	F	1.178756	-0.501688	0.792009
F375	F	1.512089	-0.168355	1.125342
