data_functionalizedCrystal
_audit_creation_method	'MofGen! by Chris Wilmer'
_symmetry_space_group_name_H-M	'P1'
_symmetry_Int_Tables_number	1
_symmetry_cell_setting	triclinic
loop_
_symmetry_equiv_pos_as_xyz
  x,y,z
_cell_length_a	19.805405
_cell_length_b	19.805407
_cell_length_c	12.759393
_cell_angle_alpha	90.025181
_cell_angle_beta	89.966133
_cell_angle_gamma	89.974289
loop_
_atom_site_label
_atom_site_type_symbol
_atom_site_fract_x
_atom_site_fract_y
_atom_site_fract_z
Zn1	Zn	-0.269449	-1.034762	-0.594114
Zn2	Zn	-0.382651	-1.034668	-0.418424
Zn3	Zn	-0.269480	-0.921568	-0.418437
Zn4	Zn	-0.382599	-0.921539	-0.594048
O5	O	-0.326045	-0.978134	-0.506256
O6	O	-0.284474	-1.129466	-0.570831
O7	O	-0.367674	-1.019638	-0.271405
O8	O	-0.174759	-0.936635	-0.441773
O9	O	-0.367644	-1.129397	-0.441752
O10	O	-0.174736	-1.019798	-0.570843
O11	O	-0.284527	-0.936544	-0.271414
O12	O	-0.284476	-0.826848	-0.441709
O13	O	-0.367555	-0.936586	-0.741078
O14	O	-0.367585	-0.826827	-0.570731
O15	O	-0.284423	-1.019770	-0.741127
O16	O	-0.477361	-1.019610	-0.441688
O17	O	-0.477323	-0.936495	-0.570719
C18	C	-0.326029	-0.802278	-0.506215
C19	C	-0.326038	-0.727046	-0.506222
C20	C	-0.501901	-0.978057	-0.506218
C21	C	-0.577133	-0.978086	-0.506237
C22	C	-0.369377	-0.691709	-0.573293
C23	C	-0.369377	-0.621020	-0.573305
C24	C	-0.326041	-0.585671	-0.506240
C25	C	-0.282697	-0.621013	-0.439166
C26	C	-0.282694	-0.691700	-0.439160
C27	C	-0.282707	-0.335940	-0.439189
C28	C	-0.282715	-0.265248	-0.439198
C29	C	-0.369390	-0.265260	-0.573334
C30	C	-0.369387	-0.335947	-0.573328
C31	C	-0.326041	-0.371283	-0.506259
C32	C	-0.326041	-0.447932	-0.506248
C33	C	-0.326044	-0.509024	-0.506245
C34	C	-0.612407	-1.021363	-0.573496
C35	C	-0.683095	-1.021388	-0.573516
C36	C	-0.718508	-0.978138	-0.506270
C37	C	-0.683229	-0.934856	-0.439007
C38	C	-0.612542	-0.934828	-0.438994
C39	C	-0.968303	-0.934965	-0.439061
C40	C	-1.038995	-0.934997	-0.439078
C41	C	-1.038856	-1.021524	-0.573583
C42	C	-0.968168	-1.021496	-0.573569
C43	C	-0.932896	-0.978212	-0.506312
C44	C	-0.856247	-0.978185	-0.506293
C45	C	-0.795155	-0.978168	-0.506283
C46	C	-0.149502	-0.978230	-0.506317
C47	C	-0.074270	-0.978271	-0.506343
C48	C	-0.325980	-0.978185	-0.780289
C49	C	-0.325952	-0.978206	-0.897066
C50	C	-0.326057	-0.154677	-0.506288
C51	C	-0.326051	-0.229909	-0.506275
C52	C	-0.282659	-1.021524	-0.951955
C53	C	-0.282630	-1.021535	-1.061679
C54	C	-0.369193	-0.934910	-1.061616
C55	C	-0.369218	-0.934896	-0.951894
C56	C	-0.326061	-0.978123	-0.233288
C57	C	-0.325898	-0.978232	-0.116512
H58	H	-0.404669	-0.720485	-0.627902
H59	H	-0.939589	-0.899722	-0.384296
C60	C	-0.235009	-1.069187	-1.122058
C61	C	-0.181844	-1.039899	-1.197492
C62	C	-0.134220	-1.087552	-1.257872
C63	C	-0.139761	-1.164492	-1.242817
C64	C	-0.192928	-1.193784	-1.167379
C65	C	-0.240552	-1.146131	-1.107000
H66	H	-0.177740	-0.982940	-1.208640
H67	H	-0.094862	-1.065868	-1.313715
H68	H	-0.104507	-1.199768	-1.287513
H69	H	-0.197031	-1.250743	-1.156232
H70	H	-0.279909	-1.167815	-1.051156
H71	H	-0.247417	-0.364702	-0.384569
C72	C	-0.235062	-1.069158	-0.891643
C73	C	-0.158113	-1.063676	-0.906754
C74	C	-0.110513	-1.111310	-0.846445
C75	C	-0.139863	-1.164426	-0.771025
C76	C	-0.216816	-1.169910	-0.755910
C77	C	-0.264416	-1.122276	-0.816219
H78	H	-0.136383	-1.024354	-0.962588
H79	H	-0.053548	-1.107250	-0.857634
H80	H	-0.104627	-1.199688	-0.726381
H81	H	-0.238546	-1.209232	-0.700077
H82	H	-0.321382	-1.126337	-0.805030
H83	H	-0.404669	-0.592252	-0.627920
C84	C	-0.416789	-0.887276	-1.121929
C85	C	-0.416767	-0.887292	-1.242619
C86	C	-0.464366	-0.839658	-1.302929
C87	C	-0.511987	-0.792008	-1.242549
C88	C	-0.512011	-0.791990	-1.121853
C89	C	-0.464412	-0.839624	-1.061542
H90	H	-0.381513	-0.922567	-1.287322
H91	H	-0.464348	-0.839672	-1.392277
H92	H	-0.547223	-0.756747	-1.287195
H93	H	-0.547264	-0.756716	-1.077150
H94	H	-0.464430	-0.839611	-0.972194
H95	H	-0.712068	-0.899638	-0.384259
H96	H	-0.404472	-0.899617	-0.907202
H97	H	-0.583823	-0.899587	-0.384226
C98	C	-0.235026	-0.582128	-0.365396
C99	C	-0.181928	-0.533565	-0.411075
C100	C	-0.134258	-0.494680	-0.337302
C101	C	-0.139685	-0.504358	-0.217849
C102	C	-0.192786	-0.552923	-0.172164
C103	C	-0.240456	-0.591808	-0.245937
H104	H	-0.177908	-0.526399	-0.499507
H105	H	-0.094949	-0.458729	-0.371122
H106	H	-0.104397	-0.475573	-0.163238
H107	H	-0.196806	-0.560089	-0.083732
H108	H	-0.279765	-0.627759	-0.212117
C109	C	-1.077951	-0.887415	-0.365109
C110	C	-1.126575	-0.834287	-0.410576
C111	C	-1.165532	-0.786709	-0.336612
C112	C	-1.155865	-0.792258	-0.217180
C113	C	-1.107239	-0.845387	-0.171707
C114	C	-1.068282	-0.892966	-0.245672
H115	H	-1.133733	-0.830177	-0.498992
H116	H	-1.201528	-0.747379	-0.370274
H117	H	-1.184703	-0.757037	-0.162427
H118	H	-1.100080	-0.849497	-0.083292
H119	H	-1.032285	-0.932296	-0.212009
C120	C	-0.417056	-0.374831	-0.647104
C121	C	-0.464725	-0.335961	-0.720889
C122	C	-0.512392	-0.374844	-0.794670
C123	C	-0.512390	-0.452597	-0.794666
C124	C	-0.464718	-0.491471	-0.720878
C125	C	-0.417051	-0.452588	-0.647097
H126	H	-0.464729	-0.278399	-0.720895
H127	H	-0.547682	-0.346066	-0.849293
H128	H	-0.547676	-0.481380	-0.849283
H129	H	-0.464715	-0.549033	-0.720872
H130	H	-0.381762	-0.481366	-0.592474
C131	C	-0.417066	-0.226388	-0.647124
C132	C	-0.470171	-0.177753	-0.601458
C133	C	-0.517848	-0.138884	-0.675242
C134	C	-0.512420	-0.148649	-0.794692
C135	C	-0.459313	-0.197286	-0.840364
C136	C	-0.411636	-0.236155	-0.766579
H137	H	-0.474192	-0.170523	-0.513029
H138	H	-0.557161	-0.102879	-0.641432
H139	H	-0.547713	-0.119875	-0.849311
H140	H	-0.455292	-0.204516	-0.928793
H141	H	-0.372323	-0.272159	-0.800389
C142	C	-0.929214	-1.069070	-0.647542
C143	C	-0.880604	-1.039689	-0.729968
C144	C	-0.841649	-1.087261	-0.803945
C145	C	-0.851305	-1.164214	-0.795497
C146	C	-0.899917	-1.193599	-0.713068
C147	C	-0.938871	-1.146027	-0.639090
H148	H	-0.873454	-0.982721	-0.736225
H149	H	-0.805663	-1.065508	-0.864964
H150	H	-0.822468	-1.199430	-0.850259
H151	H	-0.907066	-1.250567	-0.706811
H152	H	-0.974857	-1.167780	-0.578071
H153	H	-0.247421	-0.236468	-0.384585
H154	H	-0.583578	-1.056585	-0.628251
H155	H	-0.711812	-1.056634	-0.628277
H156	H	-0.247400	-0.720471	-0.384549
H157	H	-1.067583	-1.056766	-0.628351
