data_functionalizedCrystal
_audit_creation_method	'MofGen! by Chris Wilmer'
_symmetry_space_group_name_H-M	'P1'
_symmetry_Int_Tables_number	1
_symmetry_cell_setting	triclinic
loop_
_symmetry_equiv_pos_as_xyz
  x,y,z
_cell_length_a	14.971486
_cell_length_b	14.853567
_cell_length_c	13.448316
_cell_angle_alpha	89.997194
_cell_angle_beta	89.998199
_cell_angle_gamma	83.624529
loop_
_atom_site_label
_atom_site_type_symbol
_atom_site_fract_x
_atom_site_fract_y
_atom_site_fract_z
O1	O	1.186969	0.117488	-0.082569
O2	O	0.926571	0.131557	-0.082595
O3	O	1.063725	-0.006709	-0.082584
O4	O	1.049814	0.255753	-0.082580
O5	O	1.063708	-0.006717	0.082800
O6	O	0.926554	0.131549	0.082789
O7	O	1.186951	0.117479	0.082815
Cu8	Cu	1.056751	0.124513	0.097903
Cu9	Cu	1.056771	0.124523	-0.097683
O10	O	1.049797	0.255745	0.082804
C11	C	0.893238	0.130924	0.000093
C12	C	0.793940	0.129038	0.000083
C13	C	0.736730	0.210265	0.000086
C14	C	0.643430	0.208488	0.000101
C15	C	0.607342	0.125483	0.000106
C16	C	0.664560	0.044249	0.000106
C17	C	0.757858	0.046027	0.000098
C18	C	0.470097	0.040549	0.000119
C19	C	0.376793	0.038771	0.000125
C20	C	0.355669	0.203010	0.000122
C21	C	0.448967	0.204788	0.000114
C22	C	0.506178	0.123554	0.000113
C23	C	1.063087	-0.040301	0.000105
C24	C	1.061198	-0.140385	0.000096
C25	C	0.971740	-0.552902	0.000106
C26	C	1.134683	-0.574213	0.000122
C27	C	1.136459	-0.480180	0.000116
C28	C	1.055874	-0.422503	0.000107
C29	C	0.973514	-0.458860	0.000103
C30	C	1.218818	-0.443816	0.000130
C31	C	1.220597	-0.349777	0.000126
C32	C	1.140012	-0.292099	0.000109
C33	C	1.057648	-0.328461	0.000104
C34	C	0.977064	-0.270784	0.000095
C35	C	0.894699	-0.307144	0.000083
C36	C	0.892928	-0.401181	0.000087
C37	C	1.141782	-0.198061	0.000105
C38	C	0.978837	-0.176741	0.000092
C39	C	1.220285	0.118113	0.000124
C40	C	1.319582	0.119998	0.000128
C41	C	1.050436	0.289338	0.000113
C42	C	1.052325	0.389421	0.000115
N43	N	1.056743	0.124505	0.235467
N44	N	1.056786	0.124524	-0.235247
C45	C	1.117494	0.063307	0.287512
C46	C	1.117500	0.063306	0.391615
C47	C	1.056758	0.124509	0.443672
C48	C	0.996001	0.185711	0.391619
C49	C	0.995991	0.185707	0.287518
C50	C	0.996025	0.185717	0.608599
C51	C	0.996036	0.185723	0.712708
C52	C	1.117534	0.063316	0.712697
C53	C	1.117525	0.063312	0.608595
C54	C	1.056768	0.124515	0.556550
H55	H	0.596852	0.274632	0.000102
O56	O	1.176610	0.003834	0.442017
C57	C	1.230213	-0.050193	0.373749
H58	H	1.231247	-0.013231	0.299536
H59	H	1.301630	-0.063808	0.403813
H60	H	1.201107	-0.117224	0.362693
H61	H	0.635171	-0.023335	0.000124
O62	O	0.341838	-0.041913	0.000003
C63	C	0.371038	-0.091433	-0.085659
H64	H	0.435780	-0.066805	-0.114220
H65	H	0.383883	-0.166496	-0.066387
H66	H	0.317065	-0.081045	-0.145636
O67	O	1.176562	0.003775	0.558180
C68	C	1.230204	-0.050230	0.626437
H69	H	1.193544	-0.051311	0.700652
H70	H	1.243760	-0.122205	0.596359
H71	H	1.296682	-0.020844	0.637492
O72	O	0.483875	0.285496	0.000152
C73	C	0.413375	0.356815	0.000132
H74	H	0.349965	0.331478	0.031448
H75	H	0.432950	0.414757	0.048145
H76	H	0.400203	0.381879	-0.079211
H77	H	0.309082	0.269154	0.000128
H78	H	0.804439	-0.020116	0.000095
H79	H	0.946572	0.235560	0.755087
H80	H	1.208842	-0.168461	0.000122
O81	O	0.936975	0.245258	0.558195
C82	C	0.883352	0.299267	0.626461
H83	H	0.920029	0.300347	0.700664
H84	H	0.869795	0.371243	0.596378
H85	H	0.816874	0.269887	0.637544
O86	O	1.176359	0.003779	0.236862
C87	C	1.128355	-0.051934	0.176710
H88	H	1.058427	-0.016111	0.161097
H89	H	1.165664	-0.066196	0.103512
H90	H	1.122158	-0.118545	0.216879
H91	H	0.946539	0.235541	0.434009
H92	H	0.913214	-0.129786	0.000080
O93	O	0.525766	-0.038300	-0.000017
C94	C	0.580344	-0.042186	-0.085689
H95	H	0.585143	0.029381	-0.114242
H96	H	0.650425	-0.075690	-0.066435
H97	H	0.549599	-0.083391	-0.145666
H98	H	1.200291	-0.621179	0.000138
O99	O	1.297149	-0.499752	0.000007
C100	C	1.347149	-0.483273	-0.085653
H101	H	1.325283	-0.411961	-0.114208
H102	H	1.421739	-0.489816	-0.066381
H103	H	1.334856	-0.534714	-0.145635
H104	H	1.287664	-0.320181	0.000134
O105	O	0.936947	0.245245	0.237112
C106	C	0.883322	0.299252	0.305378
H107	H	0.920000	0.300336	0.379579
H108	H	0.869757	0.371226	0.275292
H109	H	0.816846	0.269866	0.316464
H110	H	0.825871	-0.430795	0.000078
H111	H	1.167003	0.013483	0.755078
O112	O	0.771632	0.290977	0.000124
C113	C	0.701125	0.362288	0.000106
H114	H	0.637719	0.336943	0.031423
H115	H	0.720694	0.420233	0.048120
H116	H	0.687949	0.387352	-0.079235
H117	H	0.829087	-0.260172	0.000082
H118	H	0.904681	-0.582511	0.000092
