data_functionalizedCrystal
_audit_creation_method	'MofGen! by Chris Wilmer'
_symmetry_space_group_name_H-M	'P1'
_symmetry_Int_Tables_number	1
_symmetry_cell_setting	triclinic
loop_
_symmetry_equiv_pos_as_xyz
  x,y,z
_cell_length_a	16.120530
_cell_length_b	12.645330
_cell_length_c	16.120256
_cell_angle_alpha	87.121491
_cell_angle_beta	89.871735
_cell_angle_gamma	87.113442
loop_
_atom_site_label
_atom_site_type_symbol
_atom_site_fract_x
_atom_site_fract_y
_atom_site_fract_z
Zn1	Zn	1.247481	-0.537102	0.534597
Zn2	Zn	1.580815	-0.203768	0.867931
Zn3	Zn	1.914148	0.129565	1.201264
Zn4	Zn	1.254445	-0.705858	0.395549
Zn5	Zn	1.587778	-0.372525	0.728882
Zn6	Zn	1.921112	-0.039191	1.062216
Zn7	Zn	1.115470	-0.519182	0.388514
Zn8	Zn	1.448804	-0.185849	0.721847
Zn9	Zn	1.782137	0.147485	1.055181
Zn10	Zn	1.108401	-0.704887	0.527519
Zn11	Zn	1.441735	-0.371554	0.860852
Zn12	Zn	1.775068	-0.038220	1.194185
O13	O	1.181449	-0.616757	0.461545
O14	O	1.514783	-0.283424	0.794878
O15	O	1.848116	0.049909	1.128211
O16	O	1.364772	-0.567393	0.522059
O17	O	1.698105	-0.234060	0.855392
O18	O	2.031439	0.099273	1.188726
O19	O	1.241883	-0.674002	0.278249
O20	O	1.575216	-0.340669	0.611583
O21	O	1.908549	-0.007336	0.944916
O22	O	1.133026	-0.373216	0.407910
O23	O	1.466359	-0.039883	0.741244
O24	O	1.799693	0.293451	1.074577
O25	O	1.369888	-0.691378	0.419901
O26	O	1.703221	-0.358045	0.753234
O27	O	2.036555	-0.024711	1.086567
O28	O	1.230014	-0.386381	0.515237
O29	O	1.563347	-0.053048	0.848571
O30	O	1.896680	0.280285	1.181904
O31	O	1.139778	-0.536852	0.273081
O32	O	1.473112	-0.203519	0.606414
O33	O	1.806445	0.129815	0.939747
O34	O	0.998166	-0.535910	0.401046
O35	O	1.331499	-0.202577	0.734380
O36	O	1.664832	0.130756	1.067713
O37	O	1.120978	-0.689723	0.644824
O38	O	1.454311	-0.356390	0.978157
O39	O	1.787644	-0.023056	1.311491
O40	O	0.992972	-0.672347	0.503173
O41	O	1.326305	-0.339014	0.836506
O42	O	1.659639	-0.005680	1.169839
O43	O	1.223159	-0.566452	0.650025
O44	O	1.556493	-0.233118	0.983358
O45	O	1.889826	0.100215	1.316691
O46	O	1.235028	-0.854073	0.413037
O47	O	1.568361	-0.520739	0.746370
O48	O	1.901695	-0.187406	1.079703
O49	O	1.127730	-0.853359	0.509994
O50	O	1.461064	-0.520026	0.843328
O51	O	1.794397	-0.186692	1.176661
C52	C	0.965396	-0.602080	0.450579
C53	C	1.298730	-0.268746	0.783912
C54	C	1.632063	0.064587	1.117245
C55	C	0.872967	-0.595827	0.445907
C56	C	1.206300	-0.262494	0.779240
C57	C	1.539633	0.070839	1.112574
C58	C	1.181389	-0.892182	0.461530
C59	C	1.514723	-0.558849	0.794863
C60	C	1.848056	-0.225515	1.128197
C61	C	1.181438	-1.010017	0.461555
C62	C	1.514772	-0.676684	0.794889
C63	C	1.848105	-0.343350	1.128222
C64	C	0.703736	-0.584388	0.437385
C65	C	1.037070	-0.251054	0.770718
C66	C	1.370403	0.082279	1.104051
C67	C	0.660000	-0.649209	0.485765
C68	C	0.993333	-0.315875	0.819099
C69	C	1.326667	0.017458	1.152432
C70	C	0.565834	-0.642844	0.481024
C71	C	0.899168	-0.309510	0.814357
C72	C	1.232501	0.023823	1.147690
C73	C	0.797911	-0.590751	0.442125
C74	C	1.131244	-0.257418	0.775459
C75	C	1.464577	0.075915	1.108792
C76	C	1.114192	-1.177206	0.522763
C77	C	1.447526	-0.843873	0.856096
C78	C	1.780859	-0.510540	1.189430
C79	C	1.113875	-1.054612	0.522539
C80	C	1.447209	-0.721279	0.855873
C81	C	1.780542	-0.387945	1.189206
C82	C	1.162161	-1.047628	0.372718
C83	C	1.495494	-0.714295	0.706052
C84	C	1.828827	-0.380962	1.039385
C85	C	1.161750	-1.170224	0.373090
C86	C	1.495084	-0.836891	0.706423
C87	C	1.828417	-0.503558	1.039756
C88	C	1.268390	-1.184460	0.488494
C89	C	1.601723	-0.851127	0.821827
C90	C	1.935056	-0.517793	1.155161
C91	C	1.267753	-1.061934	0.490383
C92	C	1.601086	-0.728601	0.823716
C93	C	1.934419	-0.395267	1.157050
C94	C	1.398346	-0.631493	0.472554
C95	C	1.731680	-0.298160	0.805888
C96	C	2.065013	0.035174	1.139221
C97	C	1.490775	-0.637772	0.477246
C98	C	1.824108	-0.304439	0.810579
C99	C	2.157441	0.028894	1.143913
C100	C	1.170503	-0.629978	0.678441
C101	C	1.503837	-0.296645	1.011774
C102	C	1.837170	0.036689	1.345107
C103	C	1.165839	-0.635612	0.770869
C104	C	1.499172	-0.302278	1.104202
C105	C	1.832505	0.031055	1.437535
C106	C	1.181532	-0.340259	0.461579
C107	C	1.514865	-0.006926	0.794912
C108	C	1.848198	0.326407	1.128246
C109	C	1.181566	-0.222433	0.461593
C110	C	1.514900	0.110901	0.794927
C111	C	1.848233	0.444234	1.128260
C112	C	1.192401	-0.603515	0.245495
C113	C	1.525734	-0.270181	0.578828
C114	C	1.859068	0.063152	0.912162
C115	C	1.197227	-0.597593	0.153076
C116	C	1.530560	-0.264260	0.486409
C117	C	1.863893	0.069073	0.819742
C118	C	1.205774	-0.587350	0.983850
C119	C	1.539107	-0.254017	1.317183
C120	C	1.872440	0.079317	1.650517
C121	C	1.157294	-0.645852	0.940089
C122	C	1.490628	-0.312518	1.273423
C123	C	1.823961	0.020815	1.606756
C124	C	1.162050	-0.640153	0.845926
C125	C	1.495383	-0.306819	1.179260
C126	C	1.828716	0.026514	1.512593
C127	C	1.201019	-0.593048	1.078022
C128	C	1.534353	-0.259715	1.411355
C129	C	1.867686	0.073619	1.744688
H130	H	0.693277	-0.709483	0.530748
H131	H	1.026610	-0.376149	0.864081
H132	H	1.359944	-0.042816	1.197414
H133	H	1.250847	-0.532990	0.950598
H134	H	1.584180	-0.199657	1.283931
H135	H	1.917513	0.133677	1.617264
H136	H	0.670461	-0.524118	0.392407
H137	H	1.003795	-0.190785	0.725740
H138	H	1.337128	0.142549	1.059073
H139	H	1.125422	-1.029449	0.588272
H140	H	1.458755	-0.696116	0.921605
H141	H	1.792088	-0.362782	1.254939
H142	H	1.125591	-1.211613	0.588702
H143	H	1.458925	-0.878280	0.922035
H144	H	1.792258	-0.544947	1.255369
N145	N	1.033835	-1.209337	0.500228
N146	N	1.367169	-0.876004	0.833561
N147	N	1.700502	-0.542671	1.166894
N148	N	1.025971	-1.265400	0.439312
N149	N	1.359304	-0.932066	0.772646
N150	N	1.692638	-0.598733	1.105979
H151	H	0.969220	-1.288096	0.423394
H152	H	1.302553	-0.954762	0.756728
H153	H	1.635886	-0.621429	1.090061
H154	H	1.099512	-1.011514	0.350138
H155	H	1.432846	-0.678181	0.683471
H156	H	1.766179	-0.344847	1.016804
N157	N	1.033012	-1.011252	0.499744
N158	N	1.366346	-0.677918	0.833077
N159	N	1.699679	-0.344585	1.166410
N160	N	0.976637	-1.071546	0.483943
N161	N	1.309970	-0.738212	0.817277
N162	N	1.643303	-0.404879	1.150610
H163	H	0.919523	-1.040924	0.467841
H164	H	1.252856	-0.707590	0.801175
H165	H	1.586190	-0.374257	1.134508
H166	H	1.098414	-1.193388	0.350819
H167	H	1.431748	-0.860055	0.684152
H168	H	1.765081	-0.526721	1.017485
H169	H	1.208934	-1.199868	0.325720
H170	H	1.542268	-0.866535	0.659053
H171	H	1.875601	-0.533202	0.992387
H172	H	1.209874	-1.018514	0.325701
H173	H	1.543207	-0.685180	0.659035
H174	H	1.876540	-0.351847	0.992368
H175	H	1.286844	-1.220624	0.552408
H176	H	1.620177	-0.887290	0.885741
H177	H	1.953510	-0.553957	1.219074
N178	N	1.286085	-1.031844	0.572428
N179	N	1.619418	-0.698511	0.905762
N180	N	1.952752	-0.365178	1.239095
N181	N	1.235812	-0.972387	0.609580
N182	N	1.569145	-0.639054	0.942914
N183	N	1.902479	-0.305721	1.276247
H184	H	1.248756	-0.951131	0.667526
H185	H	1.582089	-0.617798	1.000859
H186	H	1.915423	-0.284464	1.334193
N187	N	1.333589	-1.024415	0.438999
N188	N	1.666922	-0.691081	0.772332
N189	N	2.000255	-0.357748	1.105666
N190	N	1.317895	-0.958511	0.380030
N191	N	1.651228	-0.625178	0.713363
N192	N	1.984562	-0.291844	1.046696
H193	H	1.364390	-0.932015	0.343730
H194	H	1.697723	-0.598682	0.677064
H195	H	2.031057	-0.265349	1.010397
H196	H	1.112214	-0.700211	0.973343
H197	H	1.445547	-0.366877	1.306677
H198	H	1.778880	-0.033544	1.640010
N199	N	1.331283	-1.221277	0.432664
N200	N	1.664617	-0.887944	0.765997
N201	N	1.997950	-0.554611	1.099330
N202	N	1.312361	-1.275252	0.373303
N203	N	1.645694	-0.941919	0.706637
N204	N	1.979027	-0.608586	1.039970
H205	H	1.356773	-1.301258	0.333869
H206	H	1.690106	-0.967925	0.667202
H207	H	2.023439	-0.634591	1.000536
