data_functionalizedCrystal
_audit_creation_method	'MofGen! by Chris Wilmer'
_symmetry_space_group_name_H-M	'P1'
_symmetry_Int_Tables_number	1
_symmetry_cell_setting	triclinic
loop_
_symmetry_equiv_pos_as_xyz
  x,y,z
_cell_length_a	16.109302
_cell_length_b	23.532357
_cell_length_c	15.186229
_cell_angle_alpha	89.990735
_cell_angle_beta	89.994701
_cell_angle_gamma	83.145036
loop_
_atom_site_label
_atom_site_type_symbol
_atom_site_fract_x
_atom_site_fract_y
_atom_site_fract_z
O1	O	1.102535	0.073206	-0.073279
O2	O	0.860400	0.082315	-0.073273
O3	O	0.988791	-0.005146	-0.073258
O4	O	0.974144	0.160667	-0.073294
O5	O	0.988782	-0.005147	0.073199
O6	O	0.860391	0.082314	0.073184
O7	O	1.102527	0.073204	0.073178
Zn8	Zn	0.981458	0.077759	0.096434
Zn9	Zn	0.981469	0.077761	-0.096529
O10	O	0.974136	0.160666	0.073163
C11	C	0.829423	0.081946	-0.000044
C12	C	0.737137	0.080839	-0.000041
C13	C	0.524812	0.078280	0.079785
C14	C	0.438101	0.077234	0.079782
C15	C	0.438121	0.077238	-0.079894
C16	C	0.524831	0.078280	-0.079890
C17	C	0.568174	0.078804	-0.000048
C18	C	0.394752	0.076716	-0.000055
C19	C	0.300736	0.075582	-0.000058
C20	C	0.662197	0.079937	-0.000044
C21	C	0.988420	-0.026365	-0.000027
C22	C	0.987319	-0.089587	-0.000019
C23	C	0.980408	-0.481624	-0.079900
C24	C	0.979361	-0.541027	-0.079905
O25	O	0.978796	-0.571745	-0.147800
N26	N	0.978838	-0.570741	-0.000072
C27	C	0.979352	-0.541047	0.079771
O28	O	0.978810	-0.571776	0.147674
C29	C	0.980393	-0.481644	0.079775
C30	C	0.980926	-0.451935	-0.000063
C31	C	0.980940	-0.451913	-0.159731
C32	C	0.981988	-0.392514	-0.159726
C33	C	0.982506	-0.362825	-0.079889
C34	C	0.981974	-0.392535	-0.000058
C35	C	0.980902	-0.451952	0.159617
C36	C	0.981943	-0.392545	0.159614
C37	C	0.982475	-0.362835	0.079776
C38	C	0.983540	-0.303447	0.079785
N39	N	0.984064	-0.273734	-0.000048
C40	C	0.983547	-0.303423	-0.079885
C41	C	0.977165	-0.665797	0.079756
C42	C	0.976130	-0.725199	0.079753
C43	C	0.976137	-0.725174	-0.079923
C44	C	0.977178	-0.665772	-0.079919
C45	C	0.977688	-0.636083	-0.000076
C46	C	0.985749	-0.178680	-0.079868
C47	C	0.986802	-0.119276	-0.079855
C48	C	0.986789	-0.119306	0.079820
C49	C	0.985742	-0.178705	0.079808
C50	C	0.985219	-0.208391	-0.000043
O51	O	0.984103	-0.272692	0.147645
O52	O	0.984078	-0.272686	-0.147777
C53	C	1.133503	0.073574	-0.000053
C54	C	1.225789	0.074681	-0.000062
C55	C	0.974506	0.181884	-0.000070
C56	C	0.975608	0.245107	-0.000084
N57	N	0.981456	0.077758	0.228127
N58	N	0.981477	0.077758	-0.228222
C59	C	1.038327	0.039043	0.453857
C60	C	1.038329	0.039041	0.546046
C61	C	0.924600	0.116474	0.546042
C62	C	0.924594	0.116473	0.453854
C63	C	0.981462	0.077757	0.407764
C64	C	0.981471	0.077758	0.592141
C65	C	0.981473	0.077757	0.692097
C66	C	0.981459	0.077758	0.307801
H67	H	0.402820	0.076813	-0.144898
H68	H	0.560138	0.078705	-0.144904
N69	N	0.866505	0.156030	0.406780
N70	N	0.867195	0.208672	0.417059
H71	H	0.826169	0.236608	0.383814
H72	H	0.402799	0.076808	0.144790
N73	N	0.987352	-0.088939	-0.161420
N74	N	0.986889	-0.115458	-0.232695
H75	H	0.987278	-0.094035	-0.290299
H76	H	0.560100	0.078706	0.144797
H77	H	0.980470	-0.476131	0.224630
H78	H	0.985316	-0.202897	0.144819
H79	H	0.985320	-0.202843	-0.144890
N80	N	0.982529	-0.362180	-0.241287
N81	N	0.982064	-0.388704	-0.312558
H82	H	0.982442	-0.367284	-0.370166
N83	N	0.980406	-0.482225	-0.241298
N84	N	0.980878	-0.455679	-0.312563
H85	H	0.980506	-0.477083	-0.370175
N86	N	0.977725	-0.635436	-0.161479
N87	N	0.977270	-0.661958	-0.232751
H88	H	0.977656	-0.640537	-0.290357
N89	N	0.975620	-0.755517	-0.161469
N90	N	0.974695	-0.808555	-0.161452
H91	H	0.974335	-0.829988	-0.219040
H92	H	0.977583	-0.641628	0.144778
N93	N	0.975604	-0.755536	0.161314
N94	N	0.976071	-0.729014	0.232586
H95	H	0.975697	-0.750437	0.290193
H96	H	0.982346	-0.368374	0.224633
H97	H	1.084631	0.007518	0.416332
H98	H	1.084633	0.007516	0.583573
H99	H	0.878301	0.147996	0.583578
N100	N	0.987326	-0.088965	0.161360
N101	N	0.988259	-0.035928	0.161343
H102	H	0.988634	-0.014497	0.218931
