data_functionalizedCrystal
_audit_creation_method	'MofGen! by Chris Wilmer'
_symmetry_space_group_name_H-M	'P1'
_symmetry_Int_Tables_number	1
_symmetry_cell_setting	triclinic
loop_
_symmetry_equiv_pos_as_xyz
  x,y,z
_cell_length_a	14.044220
_cell_length_b	14.044220
_cell_length_c	13.101039
_cell_angle_alpha	93.669626
_cell_angle_beta	86.340132
_cell_angle_gamma	93.188878
loop_
_atom_site_label
_atom_site_type_symbol
_atom_site_fract_x
_atom_site_fract_y
_atom_site_fract_z
O1	O	1.281968	0.225349	-0.085100
O2	O	1.781968	0.725349	0.414900
O3	O	1.005298	0.217042	-0.085126
O4	O	1.505298	0.717042	0.414874
O5	O	1.139480	0.082860	-0.085109
O6	O	1.639480	0.582860	0.414891
O7	O	1.147786	0.359531	-0.085117
O8	O	1.647786	0.859531	0.414883
O9	O	1.129854	0.092504	0.085320
O10	O	1.629854	0.592504	0.585320
O11	O	0.995672	0.226686	0.085302
O12	O	1.495672	0.726686	0.585302
O13	O	1.272342	0.234994	0.085329
O14	O	1.772342	0.734994	0.585329
Zn15	Zn	1.132479	0.232371	0.112375
Zn16	Zn	1.632479	0.732371	0.612375
Zn17	Zn	1.145161	0.219664	-0.112172
Zn18	Zn	1.645161	0.719664	0.387828
O19	O	1.138160	0.369176	0.085311
O20	O	1.638160	0.869176	0.585311
C21	C	0.964863	0.218228	0.000085
C22	C	1.464863	0.718228	0.500085
C23	C	0.858721	0.207383	0.000075
C24	C	1.358721	0.707383	0.500075
C25	C	1.146609	0.399975	0.000096
C26	C	1.646609	0.899975	0.500096
C27	C	1.157454	0.506117	0.000093
C28	C	1.657454	1.006117	0.500093
C29	C	1.131031	0.052060	0.000104
C30	C	1.631031	0.552060	0.500104
C31	C	1.120187	-0.054083	0.000100
C32	C	1.620187	0.445917	0.500100
C33	C	0.664382	0.187558	0.000096
C34	C	1.164382	0.687558	0.500096
C35	C	0.613252	0.264472	0.000098
C36	C	1.113252	0.764472	0.500098
C37	C	0.505115	0.253442	0.000109
C38	C	1.005115	0.753442	0.500109
C39	C	0.772529	0.198587	0.000084
C40	C	1.272529	0.698587	0.500084
C41	C	1.312777	0.233807	0.000115
C42	C	1.812777	0.733807	0.500115
C43	C	1.418919	0.244652	0.000119
C44	C	1.918919	0.744652	0.500119
N45	N	1.123830	0.241044	0.265622
N46	N	1.623830	0.741044	0.765622
C47	C	1.177279	0.700456	0.000100
C48	C	1.677279	1.200456	0.500100
C49	C	1.100365	0.751585	0.000094
C50	C	1.600365	1.251585	0.500094
C51	C	1.111397	0.859721	0.000097
C52	C	1.611397	1.359721	0.500097
C53	C	1.166249	0.592309	0.000096
C54	C	1.666249	1.092309	0.500096
N55	N	1.153817	0.210984	-0.265420
N56	N	1.653817	0.710984	0.234580
C57	C	1.112064	0.252852	0.474663
C58	C	1.612064	0.752852	0.974663
C59	C	1.165580	0.199179	0.525546
C60	C	1.665580	0.699179	1.025546
C61	C	1.159033	0.205749	0.641863
C62	C	1.659033	0.705749	1.141863
C63	C	1.118610	0.246283	0.358335
C64	C	1.618610	0.746283	0.858335
H65	H	0.650692	0.338606	0.000091
H66	H	1.150692	0.838606	0.500091
N67	N	1.232790	0.131786	0.467535
N68	N	1.732790	0.631786	0.967535
H69	H	1.300466	0.149475	0.486143
H70	H	1.800466	0.649475	0.986143
H71	H	1.214849	0.064169	0.486160
H72	H	1.714849	0.564169	0.986160
H73	H	0.626945	0.113431	0.000104
H74	H	1.126945	0.613431	0.500104
H75	H	1.026232	0.714145	0.000087
H76	H	1.526232	1.214145	0.500087
H77	H	1.061335	0.303734	0.518454
H78	H	1.561335	0.803734	1.018454
N79	N	1.275472	0.750039	0.000129
N80	N	1.775472	1.250039	0.500129
H81	H	1.269531	0.821380	0.000138
H82	H	1.769531	1.321380	0.500138
H83	H	1.307698	0.734475	0.063321
H84	H	1.807698	1.234475	0.563321
