data_functionalizedCrystal
_audit_creation_method	'MofGen! by Chris Wilmer'
_symmetry_space_group_name_H-M	'P1'
_symmetry_Int_Tables_number	1
_symmetry_cell_setting	triclinic
loop_
_symmetry_equiv_pos_as_xyz
  x,y,z
_cell_length_a	19.188925
_cell_length_b	18.266242
_cell_length_c	19.288865
_cell_angle_alpha	90.011586
_cell_angle_beta	83.139398
_cell_angle_gamma	90.009988
loop_
_atom_site_label
_atom_site_type_symbol
_atom_site_fract_x
_atom_site_fract_y
_atom_site_fract_z
O1	O	0.926145	0.060905	0.086700
O2	O	0.722832	0.060904	0.098377
O3	O	0.830364	0.060890	-0.008591
O4	O	0.818614	0.060919	0.193669
O5	O	0.830345	-0.060872	-0.008597
O6	O	0.722814	-0.060858	0.098372
O7	O	0.926127	-0.060857	0.086694
Zn8	Zn	0.824468	-0.080190	0.092532
Zn9	Zn	0.824492	0.080237	0.092539
O10	O	0.818596	-0.060843	0.193663
C11	C	0.696812	0.000023	0.097997
C12	C	0.619308	0.000022	0.096864
C13	C	0.057533	0.000032	0.152041
C14	C	0.130356	0.000036	0.153112
C15	C	0.175296	0.000025	0.090346
C16	C	0.147406	0.000030	0.026505
C17	C	0.074584	0.000033	0.025435
N18	N	0.295970	-0.041430	0.044904
N19	N	0.365147	-0.041434	0.045924
C20	C	0.394705	0.000017	0.093563
N21	N	0.352470	0.041464	0.140155
N22	N	0.283286	0.041466	0.139137
C23	C	0.254260	0.000022	0.091498
C24	C	0.501549	0.000022	0.158562
C25	C	0.574373	0.000031	0.159630
C26	C	0.591422	0.000018	0.033021
C27	C	0.518599	0.000016	0.031955
C28	C	0.473666	0.000015	0.094727
N29	N	0.824456	-0.189677	0.092527
C30	C	0.872087	-0.227992	0.045184
C31	C	0.872091	-0.304637	0.045181
C32	C	0.824472	-0.342964	0.092532
C33	C	0.776833	-0.304639	0.139879
C34	C	0.776825	-0.227996	0.139876
N35	N	0.815392	-0.463287	0.154020
N36	N	0.815403	-0.536095	0.154021
C37	C	0.824492	-0.573886	0.092542
N38	N	0.833582	-0.536118	0.031062
N39	N	0.833574	-0.463303	0.031062
C40	C	0.824475	-0.426070	0.092540
C41	C	0.872129	-0.695308	0.045192
C42	C	0.872129	-0.771954	0.045188
C43	C	0.776874	-0.771956	0.139892
C44	C	0.776871	-0.695311	0.139890
C45	C	0.824502	-0.656992	0.092541
C46	C	0.952147	0.000026	0.087075
C47	C	1.029652	0.000032	0.088208
C48	C	0.829976	0.000007	-0.034471
C49	C	0.828842	0.000001	-0.111574
N50	N	0.824508	0.189724	0.092539
C51	C	0.891936	-0.000003	-0.156267
C52	C	0.890870	0.000009	-0.228714
C53	C	0.826706	0.000009	-0.256465
C54	C	0.763603	0.000016	-0.211763
C55	C	0.764671	0.000012	-0.139317
C56	C	0.776259	-0.042642	-0.364757
C57	C	0.775193	-0.042642	-0.437202
C58	C	0.823409	0.000025	-0.479911
C59	C	0.872702	0.042684	-0.450168
C60	C	0.873770	0.042679	-0.377723
C61	C	0.825540	0.000014	-0.335019
C62	C	0.885351	0.000036	-0.603160
C63	C	0.884283	0.000052	-0.675608
C64	C	0.757014	0.000052	-0.658655
C65	C	0.758085	0.000043	-0.586208
C66	C	0.822255	0.000032	-0.558466
C67	C	0.818983	0.000042	0.219542
C68	C	0.820118	0.000053	0.296646
H69	H	0.184001	0.000023	-0.024600
H70	H	0.464962	0.000023	0.209675
H71	H	0.910869	-0.196794	0.006628
H72	H	0.910913	-0.803151	0.006632
O73	O	0.918266	-0.341903	-0.000875
C74	C	0.933443	-0.428503	-0.095732
C75	C	0.881076	-0.386334	-0.043626
H76	H	0.903396	-0.464448	-0.130299
H77	H	0.967477	-0.387987	-0.129627
H78	H	0.968234	-0.464334	-0.065804
H79	H	0.846239	-0.350502	-0.073496
H80	H	0.847091	-0.426889	-0.009731
H81	H	0.942250	0.000009	-0.265110
H82	H	0.495898	0.000012	-0.020025
H83	H	0.738059	-0.335849	0.178432
H84	H	0.944189	-0.000010	-0.133684
H85	H	0.711360	0.000018	-0.234362
O86	O	0.918417	-0.658193	-0.000872
C87	C	1.012921	-0.666279	-0.094778
C88	C	0.960529	-0.708400	-0.042659
H89	H	1.046992	-0.706853	-0.128566
H90	H	0.982922	-0.630432	-0.129451
H91	H	1.047670	-0.630361	-0.064863
H92	H	0.925766	-0.744358	-0.072517
H93	H	0.990571	-0.744201	-0.007987
H94	H	0.911963	0.077428	-0.484941
O95	O	0.730531	-0.190886	0.185937
C96	C	0.636024	-0.198975	0.279839
C97	C	0.688423	-0.241094	0.227722
H98	H	0.601956	-0.239550	0.313627
H99	H	0.666018	-0.163098	0.314513
H100	H	0.601273	-0.163088	0.249922
H101	H	0.723188	-0.277022	0.257583
H102	H	0.658386	-0.276926	0.193050
O103	O	0.947745	0.000070	-0.576321
C104	C	1.073862	0.000041	-0.600780
C105	C	1.003253	0.000016	-0.631265
H106	H	1.118759	-0.000018	-0.645188
H107	H	1.077594	0.051009	-0.567299
H108	H	1.077504	-0.050906	-0.567275
H109	H	0.999564	0.050929	-0.664801
H110	H	0.999551	-0.050985	-0.664706
O111	O	0.635038	0.000138	-0.027970
C112	C	0.671870	0.063187	-0.135866
C113	C	0.622443	0.063146	-0.066811
H114	H	0.661694	0.114116	-0.167296
H115	H	0.728722	0.063234	-0.124181
H116	H	0.661750	0.012204	-0.167268
H117	H	0.632499	0.114121	-0.035375
H118	H	0.565607	0.063061	-0.078545
H119	H	0.051885	0.000033	-0.026547
O120	O	0.730519	-0.809143	0.185821
C121	C	0.608993	-0.832581	0.226851
C122	C	0.661416	-0.790429	0.174788
H123	H	0.553112	-0.817454	0.217959
H124	H	0.617116	-0.893951	0.218723
H125	H	0.617948	-0.817503	0.282456
H126	H	0.652493	-0.805446	0.119162
H127	H	0.653280	-0.729069	0.182978
O128	O	0.730677	-0.658122	0.185982
C129	C	0.689353	-0.634691	0.306862
C130	C	0.741722	-0.676838	0.254739
H131	H	0.698254	-0.649819	0.362463
H132	H	0.697524	-0.573320	0.298791
H133	H	0.633470	-0.649771	0.297915
H134	H	0.797625	-0.661819	0.263655
H135	H	0.733489	-0.738199	0.262823
H136	H	0.913904	0.077415	-0.353509
H137	H	0.735053	-0.077373	-0.461412
H138	H	0.597072	0.000037	0.211613
O139	O	0.694666	0.000183	-0.685569
C140	C	0.585557	0.063246	-0.693193
C141	C	0.656150	0.063194	-0.662677
H142	H	0.554391	0.114177	-0.674685
H143	H	0.595587	0.063298	-0.752652
H144	H	0.554409	0.012265	-0.674794
H145	H	0.687334	0.114166	-0.681023
H146	H	0.646071	0.063104	-0.603221
O147	O	0.696812	0.000168	-0.542762
C148	C	0.624185	0.063223	-0.451089
C149	C	0.693598	0.063177	-0.500262
H150	H	0.621571	0.114152	-0.416705
H151	H	0.578114	0.063272	-0.483332
H152	H	0.621504	0.012240	-0.416792
H153	H	0.696348	0.114151	-0.534570
H154	H	0.739637	0.063090	-0.467978
H155	H	0.935664	0.000053	-0.711997
H156	H	0.736994	-0.077391	-0.329989
H157	H	0.153062	0.000029	0.205094
H158	H	0.020953	0.000034	0.203155
H159	H	0.713290	0.000015	-0.102927
