data_functionalizedCrystal
_audit_creation_method	'MofGen! by Chris Wilmer'
_symmetry_space_group_name_H-M	'P1'
_symmetry_Int_Tables_number	1
_symmetry_cell_setting	triclinic
loop_
_symmetry_equiv_pos_as_xyz
  x,y,z
_cell_length_a	11.792241
_cell_length_b	22.610064
_cell_length_c	11.792254
_cell_angle_alpha	90.004336
_cell_angle_beta	84.196007
_cell_angle_gamma	89.995899
loop_
_atom_site_label
_atom_site_type_symbol
_atom_site_fract_x
_atom_site_fract_y
_atom_site_fract_z
O1	O	1.506924	-0.049127	0.155551
O2	O	1.840257	0.284206	0.488884
O3	O	2.173590	0.617539	0.822218
O4	O	1.176583	-0.049141	0.171584
O5	O	1.509917	0.284192	0.504917
O6	O	1.843250	0.617525	0.838250
O7	O	1.349762	-0.049130	-0.001602
O8	O	1.683096	0.284204	0.331731
O9	O	2.016429	0.617537	0.665064
O10	O	1.333745	-0.049139	0.328737
O11	O	1.667078	0.284194	0.662070
O12	O	2.000411	0.617528	0.995404
O13	O	1.349732	0.049239	-0.001576
O14	O	1.683065	0.382573	0.331758
O15	O	2.016398	0.715906	0.665091
O16	O	1.176553	0.049228	0.171610
O17	O	1.509886	0.382561	0.504944
O18	O	1.843219	0.715895	0.838277
O19	O	1.506893	0.049242	0.155578
O20	O	1.840226	0.382575	0.488911
O21	O	2.173559	0.715908	0.822244
Zn22	Zn	1.341718	0.064853	0.163598
Zn23	Zn	1.675051	0.398186	0.496931
Zn24	Zn	2.008384	0.731520	0.830265
Zn25	Zn	1.341758	-0.064753	0.163563
Zn26	Zn	1.675092	0.268581	0.496896
Zn27	Zn	2.008425	0.601914	0.830230
O28	O	1.333714	0.049230	0.328764
O29	O	1.667047	0.382564	0.662097
O30	O	2.000380	0.715897	0.995430
C31	C	1.134277	0.000042	0.170590
C32	C	1.467610	0.333375	0.503923
C33	C	1.800944	0.666708	0.837257
C34	C	1.008263	0.000036	0.167576
C35	C	1.341596	0.333370	0.500909
C36	C	1.674930	0.666703	0.834242
N37	N	1.341698	0.153306	0.163621
N38	N	1.675032	0.486639	0.496955
N39	N	2.008365	0.819972	0.830288
C40	C	0.777551	0.000054	0.162033
C41	C	1.110884	0.333387	0.495366
C42	C	1.444217	0.666720	0.828699
C43	C	0.905936	0.000044	0.165112
C44	C	1.239269	0.333378	0.498446
C45	C	1.572603	0.666711	0.831779
C46	C	1.418444	0.561952	0.086897
C47	C	1.751778	0.895285	0.420230
C48	C	2.085111	1.228619	0.753564
C49	C	1.418450	0.623872	0.086890
C50	C	1.751783	0.957205	0.420223
C51	C	2.085117	1.290539	0.753556
O52	O	1.483655	0.655895	0.021668
O53	O	1.816988	0.989228	0.355001
O54	O	2.150321	1.322562	0.688334
N55	N	1.341756	0.654843	0.163550
N56	N	1.675089	0.988176	0.496883
N57	N	2.008423	1.321509	0.830216
C58	C	1.265043	0.623890	0.240214
C59	C	1.598377	0.957224	0.573547
C60	C	1.931710	1.290557	0.906881
O61	O	1.199809	0.655919	0.305418
O62	O	1.533142	0.989252	0.638751
O63	O	1.866475	1.322586	0.972085
C64	C	1.265033	0.561972	0.240215
C65	C	1.598367	0.895305	0.573548
C66	C	1.931700	1.228638	0.906882
C67	C	1.341740	0.531004	0.163558
C68	C	1.675073	0.864337	0.496891
C69	C	2.008407	1.197671	0.830224
C70	C	1.495144	0.530984	0.010245
C71	C	1.828478	0.864318	0.343578
C72	C	2.161811	1.197651	0.676912
C73	C	1.495140	0.469069	0.010254
C74	C	1.828473	0.802402	0.343587
C75	C	2.161806	1.135735	0.676921
C76	C	1.418435	0.438121	0.086915
C77	C	1.751769	0.771454	0.420248
C78	C	2.085102	1.104787	0.753582
C79	C	1.341736	0.469088	0.163567
C80	C	1.675069	0.802422	0.496900
C81	C	2.008402	1.135755	0.830234
C82	C	1.188316	0.531020	0.316873
C83	C	1.521649	0.864354	0.650207
C84	C	1.854983	1.197687	0.983540
C85	C	1.188312	0.469097	0.316867
C86	C	1.521645	0.802431	0.650200
C87	C	1.854979	1.135764	0.983534
C88	C	1.265019	0.438130	0.240210
C89	C	1.598352	0.771463	0.573543
C90	C	1.931686	1.104796	0.906876
C91	C	1.265027	0.376225	0.240237
C92	C	1.598360	0.709558	0.573570
C93	C	1.931694	1.042891	0.906903
N94	N	1.341721	0.345254	0.163577
N95	N	1.675054	0.678587	0.496910
N96	N	2.008388	1.011921	0.830244
C97	C	1.418425	0.376202	0.086916
C98	C	1.751759	0.709535	0.420249
C99	C	2.085092	1.042869	0.753583
C100	C	1.265069	0.753924	0.240205
C101	C	1.598403	1.087257	0.573538
C102	C	1.931736	1.420591	0.906872
C103	C	1.265084	0.815842	0.240210
C104	C	1.598417	1.149175	0.573544
C105	C	1.931751	1.482508	0.906877
C106	C	1.418489	0.815819	0.086884
C107	C	1.751823	1.149152	0.420217
C108	C	2.085156	1.482486	0.753551
C109	C	1.418479	0.753900	0.086885
C110	C	1.751813	1.087233	0.420218
C111	C	2.085146	1.420567	0.753552
C112	C	1.341763	0.722953	0.163545
C113	C	1.675097	1.056287	0.496878
C114	C	2.008430	1.389620	0.830212
C115	C	1.418411	0.246175	0.086941
C116	C	1.751744	0.579508	0.420275
C117	C	2.085077	0.912841	0.753608
C118	C	1.418403	0.184254	0.086960
C119	C	1.751736	0.517587	0.420294
C120	C	2.085069	0.850920	0.753627
C121	C	1.264994	0.184282	0.240282
C122	C	1.598327	0.517615	0.573615
C123	C	1.931660	0.850948	0.906949
C124	C	1.265005	0.246197	0.240268
C125	C	1.598339	0.579531	0.573601
C126	C	1.931672	0.912864	0.906934
C127	C	1.341718	0.277142	0.163588
C128	C	1.675051	0.610476	0.496921
C129	C	2.008385	0.943809	0.830255
O130	O	1.199852	0.344162	0.305422
O131	O	1.533186	0.677496	0.638756
O132	O	1.866519	1.010829	0.972089
O133	O	1.483639	0.344166	0.021713
O134	O	1.816972	0.677499	0.355046
O135	O	2.150305	1.010832	0.688380
C136	C	1.549199	0.000058	0.156571
C137	C	1.882533	0.333391	0.489905
C138	C	2.215866	0.666724	0.823238
C139	C	1.675213	0.000059	0.159586
C140	C	2.008546	0.333392	0.492919
C141	C	2.341880	0.666726	0.826252
N142	N	1.341785	0.846795	0.163545
N143	N	1.675118	1.180128	0.496878
N144	N	2.008451	1.513462	0.830211
C145	C	1.348738	0.000055	-0.043880
C146	C	1.682071	0.333388	0.289454
C147	C	2.015405	0.666721	0.622787
C148	C	1.345718	0.000054	-0.169893
C149	C	1.679051	0.333387	0.163441
C150	C	2.012385	0.666721	0.496774
C151	C	1.343264	0.000052	-0.272229
C152	C	1.676597	0.333385	0.061104
C153	C	2.009931	0.666718	0.394437
C154	C	1.340196	0.000046	-0.400616
C155	C	1.673529	0.333379	-0.067283
C156	C	2.006862	0.666713	0.266051
C157	C	1.334738	0.000045	0.371041
C158	C	1.668071	0.333378	0.704374
C159	C	2.001405	0.666711	1.037708
C160	C	1.337758	0.000041	0.497054
C161	C	1.671092	0.333375	0.830387
C162	C	2.004425	0.666708	1.163721
H163	H	1.480871	0.159042	0.024537
H164	H	1.814204	0.492375	0.357870
H165	H	2.147537	0.825708	0.691204
F166	F	1.500057	0.279100	0.005330
F167	F	1.833391	0.612433	0.338663
F168	F	2.166724	0.945766	0.671997
H169	H	1.125854	0.556226	0.379294
H170	H	1.459187	0.889559	0.712627
H171	H	1.792521	1.222892	1.045960
F172	F	1.183420	0.720993	0.321810
F173	F	1.516753	1.054326	0.655143
F174	F	1.850086	1.387659	0.988476
F175	F	1.106655	0.436166	0.398459
F176	F	1.439988	0.769499	0.731793
F177	F	1.773322	1.102832	1.065126
H178	H	1.202545	0.159074	0.302702
H179	H	1.535878	0.492407	0.636035
H180	H	1.869212	0.825741	0.969369
F181	F	1.183376	0.279154	0.321868
F182	F	1.516709	0.612488	0.655201
F183	F	1.850043	0.945821	0.988535
H184	H	1.480945	0.841028	0.024461
H185	H	1.814278	1.174361	0.357794
H186	H	2.147612	1.507695	0.691128
F187	F	1.576789	0.563913	-0.071356
F188	F	1.910122	0.897246	0.261977
F189	F	2.243455	1.230580	0.595311
F190	F	1.576776	0.436116	-0.071340
F191	F	1.910109	0.769450	0.261994
F192	F	2.243442	1.102783	0.595327
F193	F	1.183457	0.848794	0.321813
F194	F	1.516790	1.182127	0.655146
F195	F	1.850123	1.515460	0.988480
H196	H	1.480940	0.728690	0.024464
H197	H	1.814273	1.062023	0.357797
H198	H	2.147607	1.395357	0.691130
