data_functionalizedCrystal
_audit_creation_method	'MofGen! by Chris Wilmer'
_symmetry_space_group_name_H-M	'P1'
_symmetry_Int_Tables_number	1
_symmetry_cell_setting	triclinic
loop_
_symmetry_equiv_pos_as_xyz
  x,y,z
_cell_length_a	12.759401
_cell_length_b	17.639929
_cell_length_c	12.759393
_cell_angle_alpha	78.761202
_cell_angle_beta	89.981504
_cell_angle_gamma	78.803353
loop_
_atom_site_label
_atom_site_type_symbol
_atom_site_fract_x
_atom_site_fract_y
_atom_site_fract_z
Zn1	Zn	1.690800	-0.314632	-0.509462
Zn2	Zn	1.726218	-0.446834	-0.298269
Zn3	Zn	1.515113	-0.314673	-0.333790
Zn4	Zn	1.550598	-0.446773	-0.473927
O5	O	1.620682	-0.380728	-0.403862
O6	O	1.842521	-0.332177	-0.481453
O7	O	1.698186	-0.429345	-0.155948
O8	O	1.508745	-0.204057	-0.386831
O9	O	1.868543	-0.429305	-0.326290
O10	O	1.637821	-0.204026	-0.515896
O11	O	1.543088	-0.332247	-0.182046
O12	O	1.372797	-0.332188	-0.352374
O13	O	1.569224	-0.429201	-0.625673
O14	O	1.398867	-0.429241	-0.455331
O15	O	1.672230	-0.332118	-0.651781
O16	O	1.732594	-0.557436	-0.291833
O17	O	1.603567	-0.557392	-0.420888
C18	C	1.347711	-0.380713	-0.403852
C19	C	1.230937	-0.380726	-0.403867
C20	C	1.675803	-0.586094	-0.348673
C21	C	1.699480	-0.673951	-0.325097
C22	C	1.189700	-0.431342	-0.457344
C23	C	1.079978	-0.431352	-0.457353
C24	C	1.052742	-0.330128	-0.350399
C25	C	1.162460	-0.330114	-0.350397
C26	C	1.205424	-0.489786	-0.519089
C27	C	1.095703	-0.489796	-0.519098
C28	C	1.800072	-0.797778	-0.224747
C29	C	1.777816	-0.715223	-0.246907
C30	C	1.643374	-0.715224	-0.381164
C31	C	1.665623	-0.797780	-0.359019
C32	C	1.743972	-0.839051	-0.280808
C33	C	1.609523	-0.839053	-0.415080
C34	C	1.631767	-0.921602	-0.392933
C35	C	1.710110	-0.962878	-0.314724
C36	C	1.766216	-0.921600	-0.258661
C37	C	1.531169	-0.797781	-0.493285
C38	C	1.475070	-0.839054	-0.549347
C39	C	1.497318	-0.921604	-0.527205
C40	C	1.575661	-0.962881	-0.448996
C41	C	1.441212	-0.962883	-0.583268
C42	C	1.463456	-1.045432	-0.561120
C43	C	1.597905	-1.045430	-0.426848
C44	C	1.894719	-0.380743	-0.403873
C45	C	2.011498	-0.380749	-0.403877
C46	C	1.565374	-0.174559	-0.459290
C47	C	1.541805	-0.086703	-0.482910
C48	C	1.620734	-0.380648	-0.677917
C49	C	1.620756	-0.380614	-0.794703
C50	C	1.674399	-0.330058	-0.863162
C51	C	1.674417	-0.330029	-0.972894
C52	C	1.567147	-0.431120	-0.945696
C53	C	1.567124	-0.431144	-0.835967
C54	C	1.736335	-0.271697	-0.878865
C55	C	1.736352	-0.271668	-0.988597
C56	C	1.620675	-0.380750	-0.130889
C57	C	1.620797	-0.380562	-0.014163
H58	H	1.196029	-0.288892	-0.306859
C59	C	1.734580	-1.053686	-0.290362
N60	N	1.753012	-1.122082	-0.272015
C61	C	1.557196	-0.669817	-0.467196
N62	N	1.492288	-0.635617	-0.532001
H63	H	1.255056	-0.547907	-0.474192
H64	H	1.830026	-0.955205	-0.194984
H65	H	1.523478	-0.472258	-0.979307
H66	H	1.417784	-1.079037	-0.606781
H67	H	0.996974	-0.288920	-0.306867
H68	H	1.055834	-0.467945	-0.602320
C69	C	1.077662	-0.572475	-0.467250
N70	N	1.064073	-0.634746	-0.428198
C71	C	1.508093	-0.486747	-0.760668
N72	N	1.463626	-0.528629	-0.703952
H73	H	1.661715	-1.079035	-0.363172
H74	H	1.822128	-0.288063	-1.013971
C75	C	1.388891	-0.793647	-0.635379
N76	N	1.323983	-0.759447	-0.700184
C77	C	1.684698	-0.189002	-0.860875
N78	N	1.645802	-0.126719	-0.847325
H79	H	1.863882	-0.831383	-0.161070
H80	H	1.377413	-0.929270	-0.646940
C81	C	1.839550	-0.669826	-0.185241
N82	N	1.886050	-0.635633	-0.138798
H83	H	1.513052	-0.730564	-0.511305
H84	H	1.819503	-0.293641	-0.838934
H85	H	1.691609	-0.213505	-1.038269
H86	H	1.230846	-0.473461	-0.604882
