data_functionalizedCrystal
_audit_creation_method	'MofGen! by Chris Wilmer'
_symmetry_space_group_name_H-M	'P1'
_symmetry_Int_Tables_number	1
_symmetry_cell_setting	triclinic
loop_
_symmetry_equiv_pos_as_xyz
  x,y,z
_cell_length_a	10.723024
_cell_length_b	14.421503
_cell_length_c	10.723024
_cell_angle_alpha	90.002644
_cell_angle_beta	95.532131
_cell_angle_gamma	89.992654
loop_
_atom_site_label
_atom_site_type_symbol
_atom_site_fract_x
_atom_site_fract_y
_atom_site_fract_z
O1	O	1.657169	0.077103	-0.175018
O2	O	2.157169	0.577103	0.324982
O3	O	1.294016	0.077106	-0.191771
O4	O	1.794016	0.577106	0.308229
O5	O	1.483969	0.077101	-0.001818
O6	O	1.983969	0.577101	0.498182
O7	O	1.467216	0.077108	-0.364971
O8	O	1.967216	0.577108	0.135029
O9	O	1.483992	-0.077122	-0.001831
O10	O	1.983992	0.422878	0.498169
O11	O	1.294040	-0.077117	-0.191784
O12	O	1.794040	0.422883	0.308216
O13	O	1.657192	-0.077120	-0.175031
O14	O	2.157192	0.422880	0.324969
Cu15	Cu	1.475618	-0.091201	-0.183408
Cu16	Cu	1.975618	0.408799	0.316592
Cu17	Cu	1.475590	0.091186	-0.183393
Cu18	Cu	1.975590	0.591186	0.316607
O19	O	1.467239	-0.077115	-0.364983
O20	O	1.967239	0.422885	0.135017
C21	C	1.247528	-0.000005	-0.190558
C22	C	1.747528	0.499995	0.309442
C23	C	1.108974	-0.000004	-0.186911
C24	C	1.608974	0.499996	0.313089
N25	N	1.475646	-0.219482	-0.183418
N26	N	1.975646	0.280518	0.316582
C27	C	1.033991	-0.000002	-0.293198
C28	C	1.533991	0.499998	0.206802
C29	C	0.890788	-0.000000	-0.289431
C30	C	1.390788	0.500000	0.210569
C31	C	1.563499	-0.469113	-0.095565
C32	C	2.063499	0.030887	0.404435
C33	C	1.450531	-0.530910	-0.070364
C34	C	1.950531	-0.030910	0.429636
C35	C	1.475618	-0.408643	-0.183403
C36	C	1.975618	0.091357	0.316597
C37	C	1.588559	-0.530941	-0.208531
C38	C	2.088559	-0.030941	0.291469
C39	C	1.475602	-0.591365	-0.183385
C40	C	1.975602	-0.091365	0.316615
C41	C	1.362593	-0.469079	-0.158146
C42	C	1.862593	0.030921	0.341854
C43	C	1.500695	-0.469105	-0.296362
C44	C	2.000695	0.030895	0.203638
C45	C	1.387646	-0.530873	-0.271208
C46	C	1.887646	-0.030873	0.228792
C47	C	1.475630	-0.303382	-0.183410
C48	C	1.975630	0.196618	0.316590
C49	C	1.475577	-0.696624	-0.183379
C50	C	1.975577	-0.196624	0.316621
C51	C	1.703680	-0.000007	-0.176243
C52	C	2.203680	0.499993	0.323757
C53	C	1.842234	-0.000002	-0.179891
C54	C	2.342234	0.499998	0.320109
C55	C	1.482762	-0.000010	0.044675
C56	C	1.982762	0.499990	0.544675
C57	C	1.479114	-0.000006	0.183229
C58	C	1.979114	0.499994	0.683229
N59	N	1.475571	0.219468	-0.183374
N60	N	1.975571	0.719468	0.316626
C61	C	1.468447	-0.000003	-0.411477
C62	C	1.968447	0.499997	0.088523
C63	C	1.472094	0.000000	-0.550031
C64	C	1.972094	0.500000	-0.050031
C65	C	1.585401	-0.000006	0.258212
C66	C	2.085401	0.499994	0.758212
C67	C	1.581634	-0.000002	0.401415
C68	C	2.081634	0.499998	0.901415
H69	H	1.075814	-0.000005	-0.386984
H70	H	1.575814	0.499995	0.113016
Cl71	Cl	1.215083	-0.427308	-0.125147
Cl72	Cl	1.715083	0.072692	0.374853
Cl73	Cl	1.736030	-0.572900	-0.241355
Cl74	Cl	2.236030	-0.072900	0.258645
H75	H	1.385328	0.000001	0.225051
H76	H	1.885328	0.500001	0.725051
H77	H	1.381099	-0.000007	0.385544
H78	H	1.881099	0.499993	0.885544
H79	H	0.826355	0.000006	-0.380421
H80	H	1.326355	0.500006	0.119579
H81	H	1.679187	-0.000012	0.216390
H82	H	2.179187	0.499988	0.716390
H83	H	1.637738	-0.441994	-0.021240
H84	H	2.137738	0.058006	0.478760
Cl85	Cl	0.941699	0.000002	-0.039396
Cl86	Cl	1.441699	0.500002	0.460604
H87	H	1.429305	-0.558058	0.025171
H88	H	1.929305	-0.058058	0.525171
H89	H	1.672624	-0.000006	0.465848
H90	H	2.172624	0.499994	0.965848
H91	H	1.313239	-0.557820	-0.345487
H92	H	1.813239	-0.057820	0.154513
Cl93	Cl	1.044415	-0.000014	-0.042105
Cl94	Cl	1.544415	0.499986	0.457895
H95	H	1.521957	-0.441936	-0.391867
H96	H	2.021957	0.058064	0.108133
