data_functionalizedCrystal
_audit_creation_method	'MofGen! by Chris Wilmer'
_symmetry_space_group_name_H-M	'P1'
_symmetry_Int_Tables_number	1
_symmetry_cell_setting	triclinic
loop_
_symmetry_equiv_pos_as_xyz
  x,y,z
_cell_length_a	19.188905
_cell_length_b	19.188930
_cell_length_c	17.766277
_cell_angle_alpha	89.988508
_cell_angle_beta	89.983513
_cell_angle_gamma	83.139668
loop_
_atom_site_label
_atom_site_type_symbol
_atom_site_fract_x
_atom_site_fract_y
_atom_site_fract_z
O1	O	0.926161	0.087085	-0.062727
O2	O	0.722847	0.098838	-0.062702
O3	O	0.830371	-0.008694	-0.062700
O4	O	0.818637	0.194618	-0.062728
O5	O	0.830352	-0.008700	0.062488
O6	O	0.722828	0.098833	0.062486
O7	O	0.926142	0.087080	0.062462
Cu8	Cu	0.824483	0.092956	0.073905
Cu9	Cu	0.824506	0.092962	-0.074145
O10	O	0.818618	0.194612	0.062460
C11	C	0.696826	0.098458	-0.000104
C12	C	0.619321	0.097324	-0.000094
C13	C	0.582939	0.096782	-0.068337
C14	C	0.510116	0.095709	-0.068346
C15	C	0.473678	0.095164	-0.000109
C16	C	0.510068	0.095709	0.068142
C17	C	0.582889	0.096790	0.068150
N18	N	0.364650	0.053733	0.050679
N19	N	0.295473	0.052705	0.050667
C20	C	0.254272	0.091911	-0.000127
N21	N	0.284861	0.132174	-0.050920
N22	N	0.354045	0.133199	-0.050911
C23	C	0.394716	0.093993	-0.000109
C24	C	0.138926	0.090207	-0.068384
C25	C	0.066101	0.089138	-0.068390
C26	C	0.066055	0.089132	0.068100
C27	C	0.138879	0.090207	0.068105
C28	C	0.175310	0.090742	-0.000139
C29	C	0.829982	-0.034708	-0.000104
C30	C	0.828841	-0.112213	-0.000097
C31	C	0.891933	-0.157142	-0.000101
C32	C	0.890861	-0.229966	-0.000113
C33	C	0.826694	-0.257857	-0.000106
C34	C	0.763594	-0.212917	-0.000106
C35	C	0.764668	-0.140095	-0.000102
N36	N	0.777640	-0.365859	0.042504
N37	N	0.776624	-0.435038	0.042501
C38	C	0.823456	-0.477265	-0.000121
N39	N	0.871352	-0.447702	-0.042731
N40	N	0.872369	-0.378517	-0.042725
C41	C	0.825523	-0.336819	-0.000111
C42	C	0.885390	-0.601159	-0.000139
C43	C	0.884315	-0.673984	-0.000155
C44	C	0.757047	-0.656933	-0.000141
C45	C	0.758123	-0.584110	-0.000132
C46	C	0.822296	-0.556228	-0.000127
C47	C	0.952163	0.087460	-0.000137
C48	C	1.029668	0.088594	-0.000152
C49	C	0.819007	0.220626	-0.000138
C50	C	0.820148	0.298131	-0.000150
N51	N	0.824473	0.092951	0.178035
N52	N	0.824522	0.092962	-0.178275
C53	C	0.872100	0.045359	0.217423
C54	C	0.872104	0.045355	0.296225
C55	C	0.824487	0.092956	0.335636
C56	C	0.776852	0.140552	0.296239
C57	C	0.776844	0.140549	0.217438
C58	C	0.815145	0.156573	0.460466
C59	C	0.815157	0.156577	0.539265
C60	C	0.824506	0.092965	0.578682
C61	C	0.833858	0.029346	0.539291
C62	C	0.833850	0.029343	0.460491
C63	C	0.824490	0.092964	0.421081
C64	C	0.872140	0.045365	0.703516
C65	C	0.872139	0.045361	0.782319
C66	C	0.776890	0.140564	0.782331
C67	C	0.776888	0.140562	0.703530
C68	C	0.824516	0.092963	0.664127
H69	H	0.168589	0.090650	-0.123952
H70	H	0.738080	0.179308	0.328331
H71	H	0.910920	0.006605	0.671432
H72	H	0.036479	0.088702	-0.123963
H73	H	0.937644	-0.578456	-0.000139
H74	H	0.612511	0.097231	0.123722
C75	C	0.687307	-0.687070	-0.000172
C76	C	0.632281	-0.632131	-0.000181
C77	C	0.568025	-0.659868	-0.000223
H78	H	0.684135	-0.715124	0.043470
H79	H	0.684212	-0.715092	-0.043848
H80	H	0.635375	-0.604120	0.043490
H81	H	0.635429	-0.604072	-0.043820
H82	H	0.564930	-0.687891	-0.043899
H83	H	0.564861	-0.687922	0.043419
H84	H	0.530683	-0.622597	-0.000237
H85	H	0.713289	-0.103513	-0.000098
C86	C	0.959416	-0.278677	-0.000231
C87	C	0.998094	-0.266086	-0.064626
C88	C	1.061254	-0.310937	-0.064754
H89	H	0.949683	-0.326064	-0.000271
H90	H	0.985765	-0.270245	0.043404
H91	H	0.971751	-0.274524	-0.108249
H92	H	1.007847	-0.218708	-0.064599
H93	H	1.087603	-0.302505	-0.021119
H94	H	1.051514	-0.358321	-0.064792
H95	H	1.087508	-0.302396	-0.108441
H96	H	0.480488	0.095269	-0.123918
H97	H	0.480396	0.095267	0.123701
H98	H	0.935694	-0.710565	-0.000163
C99	C	0.178506	0.090820	0.142120
C100	C	0.250076	0.091898	0.127522
C101	C	0.286600	0.092473	0.195689
H102	H	0.172100	0.049946	0.170217
H103	H	0.161146	0.131364	0.170162
H104	H	0.267431	0.051358	0.099491
H105	H	0.256503	0.132769	0.099436
H106	H	0.269240	0.133017	0.223732
H107	H	0.280189	0.051598	0.223781
H108	H	0.335163	0.093211	0.185794
H109	H	0.910921	0.006602	0.814389
C110	C	0.689643	-0.535292	-0.000274
C111	C	0.686542	-0.492985	-0.064687
C112	C	0.623461	-0.448012	-0.064852
H113	H	0.687341	-0.506473	0.043333
H114	H	0.651253	-0.562307	-0.000312
H115	H	0.724921	-0.465972	-0.064642
H116	H	0.688832	-0.521785	-0.108305
H117	H	0.585072	-0.475027	-0.064890
H118	H	0.621165	-0.419198	-0.021243
H119	H	0.621346	-0.419306	-0.108559
H120	H	0.036388	0.088692	0.123660
C121	C	0.923722	-0.006546	0.174819
C122	C	0.912480	-0.075055	0.194161
C123	C	0.960013	-0.122938	0.154981
H124	H	0.970326	0.000790	0.187720
H125	H	0.916977	0.000102	0.122212
H126	H	0.919231	-0.081700	0.246756
H127	H	0.865886	-0.082413	0.181258
H128	H	0.953267	-0.116290	0.102375
H129	H	1.006613	-0.115596	0.167885
H130	H	0.952387	-0.169426	0.168094
C131	C	0.805113	0.225592	0.417573
C132	C	0.863967	0.230955	0.372294
C133	C	0.854747	0.294517	0.332763
H134	H	0.799578	0.263543	0.452226
H135	H	0.764473	0.227115	0.386805
H136	H	0.904596	0.229439	0.403059
H137	H	0.869513	0.193020	0.337627
H138	H	0.814107	0.296040	0.301995
H139	H	0.849211	0.332462	0.367421
H140	H	0.894674	0.298161	0.302031
H141	H	0.711349	-0.235631	-0.000102
H142	H	0.910889	0.006599	0.328300
C143	C	0.961555	-0.126777	-0.000224
C144	C	0.965894	-0.085442	-0.064621
C145	C	1.030017	-0.057450	-0.064758
H146	H	0.999036	-0.163899	-0.000268
H147	H	0.964622	-0.098692	0.043409
H148	H	0.962835	-0.113526	-0.108243
H149	H	0.928429	-0.048309	-0.064591
H150	H	1.033084	-0.029366	-0.021124
H151	H	1.067492	-0.094577	-0.064800
H152	H	1.032967	-0.029397	-0.108446
H153	H	0.841463	-0.022457	0.428422
H154	H	0.841470	-0.022453	0.571383
H155	H	0.612597	0.097217	-0.123906
H156	H	0.738118	0.179319	0.814419
C157	C	0.725152	0.192319	0.660897
C158	C	0.683463	0.234019	0.712274
C159	C	0.635799	0.281712	0.673029
H160	H	0.696097	0.167358	0.630172
H161	H	0.750157	0.221357	0.630155
H162	H	0.658459	0.204985	0.743003
H163	H	0.712498	0.258995	0.743000
H164	H	0.660804	0.310750	0.642287
H165	H	0.606749	0.256746	0.642305
H166	H	0.607512	0.310015	0.707882
H167	H	0.807547	0.208379	0.571331
H168	H	0.738060	0.179305	0.185368
