data_functionalizedCrystal
_audit_creation_method	'MofGen! by Chris Wilmer'
_symmetry_space_group_name_H-M	'P1'
_symmetry_Int_Tables_number	1
_symmetry_cell_setting	triclinic
loop_
_symmetry_equiv_pos_as_xyz
  x,y,z
_cell_length_a	13.339070
_cell_length_b	19.188930
_cell_length_c	12.376457
_cell_angle_alpha	101.232575
_cell_angle_beta	75.589755
_cell_angle_gamma	99.387037
loop_
_atom_site_label
_atom_site_type_symbol
_atom_site_fract_x
_atom_site_fract_y
_atom_site_fract_z
O1	O	1.360197	0.340100	-0.094096
O2	O	1.860197	0.840100	0.405904
O3	O	1.065870	0.294198	-0.094082
O4	O	1.565870	0.794198	0.405918
O5	O	1.221523	0.217159	-0.094067
O6	O	1.721523	0.717159	0.405933
O7	O	1.204545	0.417139	-0.094111
O8	O	1.704545	0.917139	0.405889
O9	O	1.182624	0.236385	0.093941
O10	O	1.682624	0.736385	0.593941
O11	O	1.026971	0.313424	0.093926
O12	O	1.526971	0.813424	0.593926
O13	O	1.321298	0.359326	0.093913
O14	O	1.821298	0.859326	0.593913
Zn15	Zn	1.167958	0.339428	0.123770
Zn16	Zn	1.667958	0.839428	0.623770
Zn17	Zn	1.219210	0.314097	-0.123939
Zn18	Zn	1.719210	0.814097	0.376061
O19	O	1.165645	0.436365	0.093898
O20	O	1.665645	0.936365	0.593898
C21	C	1.008765	0.296057	-0.000076
C22	C	1.508765	0.796057	0.499924
C23	C	0.896565	0.272945	-0.000070
C24	C	1.396565	0.772945	0.499930
C25	C	0.530988	0.452652	-0.000127
C26	C	1.030988	0.952652	0.499873
C27	C	0.636407	0.474369	-0.000136
C28	C	1.136407	0.974369	0.499864
C29	C	0.701451	0.424015	-0.000119
C30	C	1.201451	0.924015	0.499881
C31	C	0.661067	0.351940	-0.000094
C32	C	1.161067	0.851940	0.499906
C33	C	0.555640	0.330220	-0.000093
C34	C	1.055640	0.830220	0.499907
C35	C	0.726103	0.301583	-0.000086
C36	C	1.226103	0.801583	0.499914
C37	C	0.685719	0.229508	-0.000060
C38	C	1.185719	0.729508	0.499940
C39	C	0.580302	0.207792	-0.000059
C40	C	1.080302	0.707792	0.499941
C41	C	0.515258	0.258146	-0.000076
C42	C	1.015258	0.758146	0.499924
C43	C	0.831530	0.323303	-0.000086
C44	C	1.331530	0.823303	0.499914
C45	C	0.856182	0.200871	-0.000053
C46	C	1.356182	0.700871	0.499947
C47	C	0.750763	0.179154	-0.000043
C48	C	1.250763	0.679154	0.499957
C49	C	1.201522	0.200654	-0.000060
C50	C	1.701522	0.700654	0.499940
C51	C	1.199869	0.122827	-0.000050
C52	C	1.699869	0.622827	0.499950
C53	C	1.291202	0.095789	-0.000049
C54	C	1.791202	0.595789	0.499951
C55	C	1.289655	0.022659	-0.000067
C56	C	1.789655	0.522659	0.499933
C57	C	1.196764	-0.023428	-0.000063
C58	C	1.696764	0.476572	0.499937
C59	C	1.105420	0.003617	-0.000071
C60	C	1.605420	0.503617	0.499929
C61	C	1.106972	0.076744	-0.000064
C62	C	1.606972	0.576744	0.499936
N63	N	1.112522	-0.138794	0.063923
N64	N	1.612522	0.361206	0.563923
N65	N	1.111052	-0.208261	0.063919
N66	N	1.611052	0.291739	0.563919
C67	C	1.192081	-0.243757	-0.000086
C68	C	1.692081	0.256243	0.499914
N69	N	1.274646	-0.207158	-0.064073
N70	N	1.774646	0.292842	0.435927
N71	N	1.276118	-0.137684	-0.064064
N72	N	1.776118	0.362316	0.435936
C73	C	1.195070	-0.102723	-0.000071
C74	C	1.695070	0.397277	0.499929
C75	C	1.281743	-0.350089	-0.000106
C76	C	1.781743	0.149911	0.499894
C77	C	1.280193	-0.423221	-0.000131
C78	C	1.780193	0.076779	0.499869
C79	C	1.095953	-0.442261	-0.000124
C80	C	1.595953	0.057739	0.499876
C81	C	1.097508	-0.369132	-0.000110
C82	C	1.597508	0.130868	0.499890
C83	C	1.190404	-0.323049	-0.000096
C84	C	1.690404	0.176951	0.499904
C85	C	1.378403	0.357467	-0.000096
C86	C	1.878403	0.857467	0.499904
C87	C	1.490606	0.380578	-0.000110
C88	C	1.990606	0.880578	0.499890
C89	C	1.185646	0.452870	-0.000112
C90	C	1.685646	0.952870	0.499888
C91	C	1.187301	0.530696	-0.000130
C92	C	1.687301	1.030696	0.499870
N93	N	1.132988	0.356716	0.292825
N94	N	1.632988	0.856716	0.792825
N95	N	1.254188	0.296804	-0.292994
N96	N	1.754188	0.796804	0.207006
C97	C	1.335365	0.256657	0.647829
C98	C	1.835365	0.756657	1.147829
C99	C	1.359835	0.244556	0.529492
C100	C	1.859835	0.744556	1.029492
C101	C	1.303125	0.272595	0.470319
C102	C	1.803125	0.772595	0.970319
C103	C	1.221942	0.312738	0.529496
C104	C	1.721942	0.812738	1.029496
C105	C	1.197474	0.324845	0.647845
C106	C	1.697474	0.824845	1.147845
C107	C	1.165235	0.340783	0.470335
C108	C	1.665235	0.840783	0.970335
C109	C	1.084051	0.380926	0.529511
C110	C	1.584051	0.880926	1.029511
C111	C	1.059587	0.393031	0.647849
C112	C	1.559587	0.893031	1.147849
C113	C	1.116297	0.364992	0.707021
C114	C	1.616297	0.864992	1.207021
C115	C	1.189702	0.328675	0.351986
C116	C	1.689702	0.828675	0.851986
C117	C	1.051811	0.396863	0.352001
C118	C	1.551811	0.896863	0.852001
C119	C	1.027341	0.408964	0.470339
C120	C	1.527341	0.908964	0.970339
H121	H	0.717869	0.120468	-0.000032
H122	H	1.217869	0.620468	0.499968
H123	H	0.864399	0.381987	-0.000102
H124	H	1.364399	0.881987	0.499898
H125	H	1.096371	0.374842	0.803381
H126	H	1.596371	0.874842	1.303381
H127	H	0.429416	0.240467	-0.000068
H128	H	0.929416	0.740467	0.499932
H129	H	1.354572	-0.445233	-0.000136
H130	H	1.854572	0.054767	0.499864
H131	H	1.020320	-0.479785	-0.000127
H132	H	1.520320	0.020215	0.499873
H133	H	0.547428	0.149102	-0.000051
H134	H	1.047428	0.649102	0.499949
H135	H	1.381537	0.233836	0.696015
H136	H	1.881537	0.733836	1.196015
H137	H	1.023133	-0.347117	-0.000105
H138	H	1.523133	0.152883	0.499895
H139	H	1.029788	-0.033912	-0.000071
H140	H	1.529788	0.466088	0.499929
H141	H	0.993491	0.425724	0.696030
H142	H	1.493491	0.925724	1.196030
H143	H	1.255802	0.295991	0.303815
H144	H	1.755802	0.795991	0.803815
H145	H	0.909143	0.159867	-0.000044
H146	H	1.409143	0.659867	0.499956
H147	H	0.787288	0.441701	-0.000129
H148	H	1.287288	0.941701	0.499871
H149	H	0.669282	0.533052	-0.000166
H150	H	1.169282	1.033052	0.499834
H151	H	1.357386	-0.312567	-0.000100
H152	H	1.857386	0.187433	0.499900
H153	H	1.366847	0.133305	-0.000041
H154	H	1.866847	0.633305	0.499959
H155	H	0.961240	0.441650	0.518535
H156	H	1.461240	0.941650	1.018535
H157	H	1.323053	0.262740	0.373963
H158	H	1.823053	0.762740	0.873963
H159	H	1.032595	0.098757	-0.000065
H160	H	1.532595	0.598757	0.499935
H161	H	1.425935	0.211873	0.481314
H162	H	1.925935	0.711873	0.981314
H163	H	0.478023	0.493642	-0.000150
H164	H	0.978023	0.993642	0.499850
H165	H	1.364033	0.000640	-0.000070
H166	H	1.864033	0.500640	0.499930
H167	H	1.005634	0.419696	0.303824
H168	H	1.505634	0.919696	0.803824
