data_functionalizedCrystal
_audit_creation_method	'MofGen! by Chris Wilmer'
_symmetry_space_group_name_H-M	'P1'
_symmetry_Int_Tables_number	1
_symmetry_cell_setting	triclinic
loop_
_symmetry_equiv_pos_as_xyz
  x,y,z
_cell_length_a	18.050589
_cell_length_b	15.297475
_cell_length_c	15.296720
_cell_angle_alpha	88.382886
_cell_angle_beta	99.646980
_cell_angle_gamma	99.668679
loop_
_atom_site_label
_atom_site_type_symbol
_atom_site_fract_x
_atom_site_fract_y
_atom_site_fract_z
Zn1	Zn	-0.577978	-1.253324	-0.726619
Zn2	Zn	-0.077978	-0.753324	-0.226619
Zn3	Zn	-0.684914	-1.278573	-0.580139
Zn4	Zn	-0.184914	-0.778573	-0.080139
Zn5	Zn	-0.536258	-1.132208	-0.554858
Zn6	Zn	-0.036258	-0.632208	-0.054858
Zn7	Zn	-0.677614	-1.106800	-0.701267
Zn8	Zn	-0.177614	-0.606800	-0.201267
O9	O	-0.619191	-1.192726	-0.640721
O10	O	-0.119191	-0.692726	-0.140721
O11	O	-0.612678	-1.379249	-0.728378
O12	O	-0.112678	-0.879249	-0.228378
O13	O	-0.650790	-1.280357	-0.454210
O14	O	-0.150790	-0.780357	0.045790
O15	O	-0.437882	-1.148341	-0.577673
O16	O	0.062118	-0.648341	-0.077673
O17	O	-0.691244	-1.397799	-0.620759
O18	O	-0.191244	-0.897799	-0.120759
O19	O	-0.468533	-1.237325	-0.703865
O20	O	0.031467	-0.737325	-0.203865
O21	O	-0.541573	-1.172823	-0.435637
O22	O	-0.041573	-0.672823	0.064363
O23	O	-0.534494	-1.006262	-0.553090
O24	O	-0.034494	-0.506262	-0.053090
O25	O	-0.678802	-1.105037	-0.827205
O26	O	-0.178802	-0.605037	-0.327205
O27	O	-0.638348	-0.987595	-0.660656
O28	O	-0.138348	-0.487595	-0.160656
O29	O	-0.605600	-1.212688	-0.845831
O30	O	-0.105600	-0.712688	-0.345831
O31	O	-0.787856	-1.255720	-0.596176
O32	O	-0.287856	-0.755720	-0.096176
O33	O	-0.782493	-1.129519	-0.685169
O34	O	-0.282493	-0.629519	-0.185169
C35	C	-0.581102	-0.965146	-0.601379
C36	C	-0.081102	-0.465146	-0.101379
C37	C	-0.564828	-0.867783	-0.584569
C38	C	-0.064828	-0.367783	-0.084569
C39	C	-0.812124	-1.192623	-0.640688
C40	C	-0.312124	-0.692623	-0.140688
C41	C	-0.894678	-1.192654	-0.640717
C42	C	-0.394678	-0.692654	-0.140717
C43	C	-0.646040	-1.153212	-0.869189
C44	C	-0.146040	-0.653212	-0.369189
C45	C	-0.657482	-1.136373	-0.966549
C46	C	-0.157482	-0.636373	-0.466549
C47	C	-1.091246	-1.124087	-0.689101
C48	C	-0.591246	-0.624087	-0.189101
C49	C	-1.127707	-1.116577	-0.605486
C50	C	-0.627707	-0.616577	-0.105486
C51	C	-1.045824	-1.192738	-0.640743
C52	C	-0.545824	-0.692738	-0.140743
C53	C	-1.156454	-1.200290	-0.724374
C54	C	-0.656454	-0.700290	-0.224374
C55	C	-1.191825	-1.192816	-0.640775
C56	C	-0.691825	-0.692816	-0.140775
C57	C	-1.081185	-1.185193	-0.557079
C58	C	-0.581185	-0.685193	-0.057079
C59	C	-1.109941	-1.268934	-0.676028
C60	C	-0.609941	-0.768934	-0.176028
C61	C	-1.146377	-1.261463	-0.592364
C62	C	-0.646377	-0.761463	-0.092364
C63	C	-0.961717	-1.192690	-0.640726
C64	C	-0.461717	-0.692690	-0.140726
C65	C	-1.275930	-1.192866	-0.640784
C66	C	-0.775930	-0.692866	-0.140784
C67	C	-0.425511	-1.192850	-0.640777
C68	C	0.074489	-0.692850	-0.140777
C69	C	-0.342976	-1.192903	-0.640801
C70	C	0.157024	-0.692903	-0.140801
C71	C	-0.657429	-1.421195	-0.680217
C72	C	-0.157429	-0.921195	-0.180217
C73	C	-0.673724	-1.518555	-0.697047
C74	C	-0.173724	-1.018555	-0.197047
C75	C	-0.735511	-0.554614	-0.760865
C76	C	-0.235511	-0.054614	-0.260865
C77	C	-0.750806	-0.646092	-0.776656
C78	C	-0.250806	-0.146092	-0.276656
C79	C	-0.704313	-0.701519	-0.728636
C80	C	-0.204313	-0.201519	-0.228636
C81	C	-0.642522	-0.665459	-0.664822
C82	C	-0.142522	-0.165459	-0.164822
C83	C	-0.627228	-0.573973	-0.649024
C84	C	-0.127228	-0.073973	-0.149024
C85	C	-0.596030	-0.720878	-0.616795
C86	C	-0.096030	-0.220878	-0.116795
C87	C	-0.534239	-0.684818	-0.552980
C88	C	-0.034239	-0.184818	-0.052980
C89	C	-0.518948	-0.593341	-0.537186
C90	C	-0.018948	-0.093341	-0.037186
C91	C	-0.565441	-0.537914	-0.585206
C92	C	-0.065441	-0.037914	-0.085206
C93	C	-0.611324	-0.812364	-0.632593
C94	C	-0.111324	-0.312364	-0.132593
C95	C	-0.503041	-0.831723	-0.520751
C96	C	-0.003041	-0.331723	-0.020751
C97	C	-0.487746	-0.740245	-0.504960
C98	C	0.012254	-0.240245	-0.004960
C99	C	-0.537292	-1.313107	-1.279781
C100	C	-0.037292	-0.813107	-0.779781
C101	C	-0.526544	-1.328934	-1.188308
C102	C	-0.026544	-0.828934	-0.688308
C103	C	-0.559277	-1.280795	-1.132864
C104	C	-0.059277	-0.780795	-0.632864
C105	C	-0.602761	-1.216827	-1.168902
C106	C	-0.102761	-0.716827	-0.668902
C107	C	-0.613514	-1.201004	-1.260385
C108	C	-0.113514	-0.701004	-0.760385
C109	C	-0.635500	-1.168692	-1.113467
C110	C	-0.135500	-0.668692	-0.613467
C111	C	-0.678984	-1.104724	-1.149505
C112	C	-0.178984	-0.604724	-0.649505
C113	C	-0.689735	-1.088904	-1.240979
C114	C	-0.189735	-0.588904	-0.740979
C115	C	-0.657002	-1.137042	-1.296423
C116	C	-0.157002	-0.637042	-0.796423
C117	C	-0.624746	-1.184515	-1.021984
C118	C	-0.124746	-0.684515	-0.521984
C119	C	-0.700969	-1.072411	-1.002587
C120	C	-0.200969	-0.572411	-0.502587
C121	C	-0.711717	-1.056585	-1.094061
C122	C	-0.211717	-0.556585	-0.594061
C123	C	-0.592401	-1.232137	-0.413150
C124	C	-0.092401	-0.732137	0.086850
C125	C	-0.580779	-1.249146	-0.315820
C126	C	-0.080779	-0.749146	0.184180
H127	H	-1.136053	-1.052176	-0.575667
H128	H	-0.636053	-0.552176	-0.075667
O129	O	-1.038073	-1.176679	-0.463364
O130	O	-0.538073	-0.676679	0.036636
H131	H	-1.045251	-1.113686	-0.434066
H132	H	-0.545251	-0.613686	0.065934
O133	O	-0.668590	-1.119973	-1.395088
O134	O	-0.168590	-0.619973	-0.895088
H135	H	-0.704325	-1.067405	-1.410835
H136	H	-0.204325	-0.567405	-0.910835
O137	O	-0.452885	-0.891492	-0.468954
O138	O	0.047115	-0.391492	0.031046
H139	H	-0.473894	-0.961161	-0.490667
H140	H	0.026106	-0.461161	0.009333
H141	H	-0.747121	-1.004502	-1.123416
H142	H	-0.247121	-0.504502	-0.623416
O143	O	-0.452305	-0.554453	-0.468351
O144	O	0.047695	-0.054453	0.031649
H145	H	-0.473271	-0.520479	-0.416514
H146	H	0.026729	-0.020479	0.083486
O147	O	-0.577849	-1.253505	-0.983125
O148	O	-0.077849	-0.753505	-0.483125
H149	H	-0.575874	-1.256431	-0.910202
H150	H	-0.075874	-0.756431	-0.410202
H151	H	-0.550524	-1.293685	-1.058383
H152	H	-0.050524	-0.793685	-0.558383
O153	O	-0.479649	-1.397925	-1.149445
O154	O	0.020351	-0.897925	-0.649445
H155	H	-0.430411	-1.365962	-1.100995
H156	H	0.069589	-0.865962	-0.600995
O157	O	-0.736633	-1.019911	-1.279854
O158	O	-0.236633	-0.519911	-0.779854
H159	H	-0.757582	-0.989087	-1.225934
H160	H	-0.257582	-0.489087	-0.725934
H161	H	-0.510650	-1.352300	-1.324932
H162	H	-0.010650	-0.852300	-0.824932
H163	H	-0.727625	-1.033214	-0.957445
H164	H	-0.227625	-0.533214	-0.457445
H165	H	-1.170350	-1.319563	-0.551426
H166	H	-0.670350	-0.819563	-0.051426
O167	O	-1.059269	-1.047114	-0.743159
O168	O	-0.559269	-0.547114	-0.243159
H169	H	-1.065909	-0.983984	-0.713676
H170	H	-0.565909	-0.483984	-0.213676
O171	O	-1.099067	-1.354279	-0.715599
O172	O	-0.599067	-0.854279	-0.215599
H173	H	-1.070581	-1.339067	-0.774447
H174	H	-0.570581	-0.839067	-0.274447
O175	O	-1.199674	-1.208720	-0.818042
O176	O	-0.699674	-0.708720	-0.318042
H177	H	-1.177471	-1.151618	-0.858018
H178	H	-0.677471	-0.651618	-0.358018
H179	H	-0.437435	-0.710872	-0.453001
H180	H	0.062565	-0.210872	0.046999
H181	H	-0.716770	-0.776004	-0.741498
H182	H	-0.216770	-0.276004	-0.241498
O183	O	-0.677952	-0.851252	-0.701435
O184	O	-0.177952	-0.351252	-0.201435
H185	H	-0.718040	-0.899701	-0.669359
H186	H	-0.218040	-0.399701	-0.169359
O187	O	-0.817441	-0.684986	-0.845487
O188	O	-0.317441	-0.184986	-0.345487
H189	H	-0.847196	-0.631077	-0.876233
H190	H	-0.347196	-0.131077	-0.376233
O191	O	-0.785653	-0.494837	-0.812655
O192	O	-0.285653	0.005163	-0.312655
H193	H	-0.764633	-0.425167	-0.790951
H194	H	-0.264633	0.074833	-0.290951
H195	H	-0.552990	-0.463423	-0.572354
H196	H	-0.052990	0.036577	-0.072354
