data_functionalizedCrystal
_audit_creation_method	'MofGen! by Chris Wilmer'
_symmetry_space_group_name_H-M	'P1'
_symmetry_Int_Tables_number	1
_symmetry_cell_setting	triclinic
loop_
_symmetry_equiv_pos_as_xyz
  x,y,z
_cell_length_a	14.519709
_cell_length_b	14.519731
_cell_length_c	12.996460
_cell_angle_alpha	90.005673
_cell_angle_beta	89.992910
_cell_angle_gamma	96.315501
loop_
_atom_site_label
_atom_site_type_symbol
_atom_site_fract_x
_atom_site_fract_y
_atom_site_fract_z
O1	O	0.120986	-1.223857	-0.085571
O2	O	0.370986	-0.973857	0.164429
O3	O	0.620986	-0.723857	0.414429
O4	O	0.870986	-0.473857	0.664429
O5	O	0.135203	-0.955382	-0.085573
O6	O	0.385203	-0.705382	0.164427
O7	O	0.635203	-0.455382	0.414427
O8	O	0.885203	-0.205382	0.664427
O9	O	-0.006143	-1.096738	-0.085563
O10	O	0.243857	-0.846738	0.164437
O11	O	0.493857	-0.596738	0.414437
O12	O	0.743857	-0.346738	0.664437
O13	O	0.262332	-1.082501	-0.085582
O14	O	0.512332	-0.832501	0.164418
O15	O	0.762332	-0.582501	0.414418
O16	O	1.012332	-0.332501	0.664418
O17	O	-0.006151	-1.096723	0.085571
O18	O	0.243849	-0.846723	0.335571
O19	O	0.493849	-0.596723	0.585571
O20	O	0.743849	-0.346723	0.835571
O21	O	0.135195	-0.955368	0.085561
O22	O	0.385195	-0.705368	0.335561
O23	O	0.635195	-0.455368	0.585561
O24	O	0.885195	-0.205368	0.835561
O25	O	0.120979	-1.223842	0.085563
O26	O	0.370979	-0.973842	0.335563
O27	O	0.620979	-0.723842	0.585563
O28	O	0.870979	-0.473842	0.835563
Cu29	Cu	0.128086	-1.089603	0.101187
Cu30	Cu	0.378086	-0.839603	0.351187
Cu31	Cu	0.628086	-0.589603	0.601187
Cu32	Cu	0.878086	-0.339603	0.851187
Cu33	Cu	0.128095	-1.089621	-0.101198
Cu34	Cu	0.378095	-0.839621	0.148802
Cu35	Cu	0.628095	-0.589621	0.398802
Cu36	Cu	0.878095	-0.339621	0.648802
O37	O	0.262325	-1.082487	0.085552
O38	O	0.512325	-0.832487	0.335552
O39	O	0.762325	-0.582487	0.585552
O40	O	1.012325	-0.332487	0.835552
C41	C	-0.040507	-1.096067	0.000004
C42	C	0.209493	-0.846067	0.250004
C43	C	0.459493	-0.596067	0.500004
C44	C	0.709493	-0.346067	0.750004
C45	C	-0.142889	-1.094079	0.000005
C46	C	0.107111	-0.844079	0.250005
C47	C	0.357111	-0.594079	0.500005
C48	C	0.607111	-0.344079	0.750005
C49	C	0.134532	-0.921016	-0.000006
C50	C	0.384532	-0.671016	0.249994
C51	C	0.634532	-0.421016	0.499994
C52	C	0.884532	-0.171016	0.749994
C53	C	0.132536	-0.818635	-0.000007
C54	C	0.382536	-0.568635	0.249993
C55	C	0.632536	-0.318635	0.499993
C56	C	0.882536	-0.068635	0.749993
C57	C	-0.517785	-1.086759	-0.000022
C58	C	-0.267785	-0.836759	0.249978
C59	C	-0.017785	-0.586759	0.499978
C60	C	0.232215	-0.336759	0.749978
C61	C	-0.413477	-1.088792	-0.000014
C62	C	-0.163477	-0.838792	0.249986
C63	C	0.086523	-0.588792	0.499986
C64	C	0.336523	-0.338792	0.749986
C65	C	-0.330340	-1.090419	-0.000008
C66	C	-0.080340	-0.840419	0.249992
C67	C	0.169660	-0.590419	0.499992
C68	C	0.419660	-0.340419	0.749992
C69	C	-0.226025	-1.092452	-0.000002
C70	C	0.023975	-0.842452	0.249998
C71	C	0.273975	-0.592452	0.499998
C72	C	0.523975	-0.342452	0.749998
C73	C	0.121649	-1.258209	-0.000007
C74	C	0.371649	-1.008209	0.249993
C75	C	0.621649	-0.758209	0.499993
C76	C	0.871649	-0.508209	0.749993
C77	C	0.123645	-1.360589	-0.000013
C78	C	0.373645	-1.110589	0.249987
C79	C	0.623645	-0.860589	0.499987
C80	C	0.873645	-0.610589	0.749987
C81	C	0.296688	-1.083157	-0.000017
C82	C	0.546688	-0.833157	0.249983
C83	C	0.796688	-0.583157	0.499983
C84	C	1.046688	-0.333157	0.749983
C85	C	0.399070	-1.085146	-0.000024
C86	C	0.649070	-0.835146	0.249976
C87	C	0.899070	-0.585146	0.499976
C88	C	1.149070	-0.335146	0.749976
C89	C	0.130915	-0.735491	-0.000011
C90	C	0.380915	-0.485491	0.249989
C91	C	0.630915	-0.235491	0.499989
C92	C	0.880915	0.014509	0.749989
C93	C	0.128888	-0.631182	-0.000011
C94	C	0.378888	-0.381182	0.249989
C95	C	0.628888	-0.131182	0.499989
C96	C	0.878888	0.118818	0.749989
C97	C	0.127280	-0.548043	-0.000011
C98	C	0.377280	-0.298043	0.249989
C99	C	0.627280	-0.048043	0.499989
C100	C	0.877280	0.201957	0.749989
C101	C	0.125253	-0.443728	-0.000013
C102	C	0.375253	-0.193728	0.249987
C103	C	0.625253	0.056272	0.499987
C104	C	0.875253	0.306272	0.749987
N105	N	0.128079	-1.089598	0.243535
N106	N	0.378079	-0.839598	0.493535
N107	N	0.628079	-0.589598	0.743535
N108	N	0.878079	-0.339598	0.993535
N109	N	0.128095	-1.089634	-0.243545
N110	N	0.378095	-0.839634	0.006455
N111	N	0.628095	-0.589634	0.256455
N112	N	0.878095	-0.339634	0.506455
C113	C	0.128096	-1.089620	0.663349
C114	C	0.378096	-0.839620	0.913349
C115	C	0.628096	-0.589620	1.163349
C116	C	0.878096	-0.339620	1.413349
C117	C	0.128094	-1.089611	0.546544
C118	C	0.378094	-0.839611	0.796544
C119	C	0.628094	-0.589611	1.046544
C120	C	0.878094	-0.339611	1.296544
C121	C	0.128088	-1.089609	0.453445
C122	C	0.378088	-0.839609	0.703445
C123	C	0.628088	-0.589609	0.953445
C124	C	0.878088	-0.339609	1.203445
C125	C	0.128085	-1.089600	0.336633
C126	C	0.378085	-0.839600	0.586633
C127	C	0.628085	-0.589600	0.836633
C128	C	0.878085	-0.339600	1.086633
