data_functionalizedCrystal
_audit_creation_method	'MofGen! by Chris Wilmer'
_symmetry_space_group_name_H-M	'P1'
_symmetry_Int_Tables_number	1
_symmetry_cell_setting	triclinic
loop_
_symmetry_equiv_pos_as_xyz
  x,y,z
_cell_length_a	12.594517
_cell_length_b	19.121063
_cell_length_c	12.594517
_cell_angle_alpha	87.570166
_cell_angle_beta	90.002075
_cell_angle_gamma	92.468805
loop_
_atom_site_label
_atom_site_type_symbol
_atom_site_fract_x
_atom_site_fract_y
_atom_site_fract_z
Zn1	Zn	1.608886	-0.279773	0.619892
Zn2	Zn	1.601208	-0.397188	0.449481
Zn3	Zn	1.430951	-0.279752	0.441919
Zn4	Zn	1.423243	-0.397190	0.627411
O5	O	1.516072	-0.338476	0.534676
O6	O	1.756813	-0.295356	0.597304
O7	O	1.578635	-0.381600	0.299531
O8	O	1.460994	-0.181469	0.459216
O9	O	1.751172	-0.381620	0.472104
O10	O	1.591722	-0.181484	0.589972
O11	O	1.453549	-0.295321	0.293976
O12	O	1.280983	-0.295323	0.466507
O13	O	1.447857	-0.381624	0.775360
O14	O	1.275320	-0.381604	0.602787
O15	O	1.584248	-0.295359	0.769835
O16	O	1.571161	-0.495474	0.479395
O17	O	1.440411	-0.495476	0.610119
C18	C	1.239532	-0.338462	0.534643
C19	C	1.121226	-0.338473	0.534656
C20	C	1.055026	-0.291481	0.460665
C21	C	0.980062	-0.355540	0.438614
C22	C	0.985389	-0.274445	0.556727
C23	C	1.047817	-0.402565	0.512556
C24	C	1.053154	-0.321427	0.630712
C25	C	0.978219	-0.385531	0.608701
C26	C	1.504145	-0.520959	0.546417
C27	C	1.499140	-0.599026	0.551475
C28	C	1.564916	-0.635679	0.485847
C29	C	1.560216	-0.709031	0.490611
C30	C	1.489733	-0.745730	0.560998
C31	C	1.423954	-0.709073	0.626634
C32	C	1.428661	-0.635722	0.621875
C33	C	1.472117	-0.967204	0.578775
C34	C	1.467413	-1.040560	0.583527
C35	C	1.603677	-1.040513	0.447505
C36	C	1.608373	-0.967161	0.442748
C37	C	1.542598	-0.930510	0.508387
C38	C	1.484924	-0.820708	0.565867
C39	C	1.547413	-0.855534	0.503523
C40	C	1.793692	-0.338490	0.534709
C41	C	1.911997	-0.338497	0.534723
C42	C	1.516049	-0.338494	0.812298
C43	C	1.516039	-0.338501	0.930603
C44	C	1.528074	-0.155280	0.522912
C45	C	1.533189	-0.077212	0.517899
C46	C	1.441855	-0.385414	1.002861
C47	C	1.537836	-0.402596	1.074759
C48	C	1.420062	-0.321338	1.069506
C49	C	1.612068	-0.355716	1.000945
C50	C	1.494232	-0.274429	0.995684
C51	C	1.590281	-0.291586	1.067548
C52	C	1.516071	-0.338479	1.258135
C53	C	1.516034	-0.338488	1.139830
H54	H	1.622306	-0.605803	0.428525
N55	N	1.713924	-0.373998	0.963318
N56	N	1.794883	-0.337057	0.984334
H57	H	1.866818	-0.349969	0.957760
N58	N	1.412920	-0.858184	0.637771
N59	N	1.420409	-0.849966	0.735459
H60	H	1.369556	-0.876433	0.786244
H61	H	1.375100	-0.605880	0.675317
N62	N	1.669057	-0.241814	1.103083
N63	N	1.681366	-0.233402	1.200262
H64	H	1.737004	-0.198253	1.225362
H65	H	1.379195	-0.425123	0.974363
H66	H	1.475751	-0.220265	0.961065
N67	N	1.318240	-0.303141	1.107334
N68	N	1.237407	-0.340412	1.087061
H69	H	1.165492	-0.327567	1.113775
H70	H	1.088647	-0.251780	0.398021
N71	N	0.939844	-0.373643	0.336740
N72	N	0.964918	-0.336295	0.256013
H73	H	0.936521	-0.349077	0.184061
H74	H	0.944787	-0.425326	0.671304
H75	H	1.075246	-0.456739	0.493825
H76	H	0.957773	-0.220294	0.575332
N77	N	1.093409	-0.303293	0.732551
N78	N	1.074567	-0.245185	0.768597
H79	H	1.102998	-0.232370	0.840522
H80	H	1.613777	-0.738870	0.437168
H81	H	1.665766	-0.937282	0.385432
H82	H	1.418559	-0.937369	0.632219
H83	H	1.657228	-1.070362	0.394067
H84	H	1.410030	-1.070439	0.640864
N85	N	1.351972	-0.746568	0.698537
N86	N	1.347778	-0.812060	0.702779
H87	H	1.296939	-0.838541	0.753561
N88	N	1.619391	-0.818039	0.431621
N89	N	1.584611	-0.777142	0.361119
H90	H	1.635441	-0.750656	0.310333
H91	H	1.556286	-0.456775	1.109355
