data_functionalizedCrystal
_audit_creation_method	'MofGen! by Chris Wilmer'
_symmetry_space_group_name_H-M	'P1'
_symmetry_Int_Tables_number	1
_symmetry_cell_setting	triclinic
loop_
_symmetry_equiv_pos_as_xyz
  x,y,z
_cell_length_a	16.959455
_cell_length_b	16.625546
_cell_length_c	16.959447
_cell_angle_alpha	89.967784
_cell_angle_beta	89.985678
_cell_angle_gamma	90.019415
loop_
_atom_site_label
_atom_site_type_symbol
_atom_site_fract_x
_atom_site_fract_y
_atom_site_fract_z
Zn1	Zn	1.208371	-0.321051	-0.446898
Zn2	Zn	1.208288	-0.455899	-0.314715
Zn3	Zn	1.076199	-0.321077	-0.314736
Zn4	Zn	1.076158	-0.455839	-0.446854
O5	O	1.142254	-0.388466	-0.380801
O6	O	1.318970	-0.338954	-0.429374
O7	O	1.190748	-0.438050	-0.204107
O8	O	1.093784	-0.208241	-0.332295
O9	O	1.318909	-0.438026	-0.332260
O10	O	1.190890	-0.208222	-0.429394
O11	O	1.093703	-0.338997	-0.204122
O12	O	0.965583	-0.338939	-0.332252
O13	O	1.093714	-0.437923	-0.557471
O14	O	0.965553	-0.437947	-0.429318
O15	O	1.190850	-0.338895	-0.557503
O16	O	1.190709	-0.568723	-0.332217
O17	O	1.093634	-0.568679	-0.429298
C18	C	0.936888	-0.388440	-0.380783
C19	C	0.849031	-0.388448	-0.380794
C20	C	0.477547	-0.336870	-0.330364
C21	C	0.477564	-0.440129	-0.431283
C22	C	0.560110	-0.440117	-0.431278
C23	C	0.601378	-0.388482	-0.380815
C24	C	0.560100	-0.336859	-0.330356
C25	C	0.601394	-0.491746	-0.481731
C26	C	0.683945	-0.491737	-0.481727
C27	C	0.725215	-0.440097	-0.431267
C28	C	0.683932	-0.388471	-0.380807
C29	C	0.725200	-0.336836	-0.330343
C30	C	0.683918	-0.285205	-0.279886
C31	C	0.601370	-0.285219	-0.279895
C32	C	0.807763	-0.440083	-0.431257
C33	C	0.807753	-0.336824	-0.330335
C34	C	1.142179	-0.597957	-0.380768
C35	C	1.142219	-0.687578	-0.380780
C36	C	1.142357	-1.015754	-0.380862
C37	C	1.142316	-0.924445	-0.380842
C38	C	1.142288	-0.851669	-0.380821
C39	C	1.142248	-0.760355	-0.380801
C40	C	1.348422	-0.388494	-0.380819
C41	C	1.436279	-0.388505	-0.380827
C42	C	1.142287	-0.388400	-0.586969
C43	C	1.142301	-0.388371	-0.674826
C44	C	1.142351	-0.178157	-0.380851
C45	C	1.142392	-0.088536	-0.380873
C46	C	1.091821	-0.439845	-1.046287
C47	C	1.192969	-0.336727	-1.046316
C48	C	1.192948	-0.336744	-0.963770
C49	C	1.142364	-0.388313	-0.922479
C50	C	1.091800	-0.439866	-0.963734
C51	C	1.243517	-0.285199	-0.922509
C52	C	1.243498	-0.285214	-0.839958
C53	C	1.192909	-0.336780	-0.798666
C54	C	1.142343	-0.388334	-0.839925
C55	C	1.091758	-0.439903	-0.798634
C56	C	1.041187	-0.491453	-0.839892
C57	C	1.041211	-0.491431	-0.922441
C58	C	1.192886	-0.336802	-0.716117
C59	C	1.091737	-0.439923	-0.716080
C60	C	1.142267	-0.388475	-0.175435
C61	C	1.142406	-0.388276	-0.087578
H62	H	0.841371	-0.482122	-0.472336
H63	H	1.284705	-0.243219	-0.956135
C64	C	0.852698	-0.280792	-0.275629
C65	C	0.933827	-0.291818	-0.286430
C66	C	0.975254	-0.240209	-0.236057
H67	H	0.839241	-0.292474	-0.222469
H68	H	0.839232	-0.226616	-0.287304
H69	H	0.947287	-0.345982	-0.274749
H70	H	0.947308	-0.280131	-0.339579
H71	H	0.961788	-0.186032	-0.247732
H72	H	0.961791	-0.251895	-0.182900
H73	H	1.030304	-0.247677	-0.243383
C74	C	1.247687	-0.280707	-0.671363
C75	C	1.230512	-0.200920	-0.691454
C76	C	1.280973	-0.149220	-0.650235
H77	H	1.300822	-0.292409	-0.684851
H78	H	1.240422	-0.288049	-0.616279
H79	H	1.237784	-0.193582	-0.746526
H80	H	1.177386	-0.189194	-0.677964
H81	H	1.273708	-0.156562	-0.595151
H82	H	1.334105	-0.160929	-0.663726
H83	H	1.269322	-0.095079	-0.663855
H84	H	1.000041	-0.533403	-0.956041
C85	C	1.298297	-0.229100	-0.795218
C86	C	1.281104	-0.149322	-0.815324
C87	C	1.331558	-0.097601	-0.774120
H88	H	1.351433	-0.240793	-0.808708
H89	H	1.291038	-0.236432	-0.740132
H90	H	1.288370	-0.141994	-0.870398
H91	H	1.227977	-0.137603	-0.801832
H92	H	1.324299	-0.104933	-0.719034
H93	H	1.384691	-0.109302	-0.787613
H94	H	1.319895	-0.043466	-0.787751
C95	C	1.036790	-0.496009	-0.671395
C96	C	0.992528	-0.541161	-0.725198
C97	C	0.941913	-0.592845	-0.684063
H98	H	1.002286	-0.465265	-0.639194
H99	H	1.066991	-0.531197	-0.639205
H100	H	0.962329	-0.505978	-0.757375
H101	H	1.027011	-0.571922	-0.757401
H102	H	0.972114	-0.628033	-0.651873
H103	H	0.907414	-0.562095	-0.651863
H104	H	0.911880	-0.623493	-0.720562
C105	C	1.037004	-0.495782	-1.091219
C106	C	1.047856	-0.484743	-1.172350
C107	C	0.997380	-0.536265	-1.213766
H108	H	0.983866	-0.484029	-1.077785
H109	H	1.048552	-0.549980	-1.077720
H110	H	1.036302	-0.430557	-1.185844
H111	H	1.100983	-0.496502	-1.185807
H112	H	1.008928	-0.590463	-1.200266
H113	H	0.944245	-0.524508	-1.200326
H114	H	1.004741	-0.528788	-1.268817
H115	H	1.234158	-0.294746	-1.079940
H116	H	0.717529	-0.243167	-0.238795
C117	C	0.728619	-0.547816	-0.536598
C118	C	0.674808	-0.593023	-0.580806
C119	C	0.715934	-0.644682	-0.631370
H120	H	0.760810	-0.582977	-0.506388
H121	H	0.760818	-0.517026	-0.571133
H122	H	0.642622	-0.623811	-0.546275
H123	H	0.642615	-0.557884	-0.611031
H124	H	0.748133	-0.613892	-0.665905
H125	H	0.748124	-0.679837	-0.601154
H126	H	0.679430	-0.675356	-0.661376
H127	H	0.567751	-0.243185	-0.238815
H128	H	0.443932	-0.294831	-0.289285
H129	H	1.000005	-0.533444	-0.806262
C130	C	0.432619	-0.496101	-0.486038
C131	C	0.351491	-0.485050	-0.475257
C132	C	0.310061	-0.536591	-0.525695
H133	H	0.446039	-0.550293	-0.474427
H134	H	0.446120	-0.484355	-0.539184
H135	H	0.337996	-0.496801	-0.422123
H136	H	0.338048	-0.430869	-0.486875
H137	H	0.323561	-0.524845	-0.578840
H138	H	0.323487	-0.590780	-0.514078
H139	H	0.255011	-0.529095	-0.518392
H140	H	0.567788	-0.533790	-0.522810
