data_functionalizedCrystal
_audit_creation_method	'MofGen! by Chris Wilmer'
_symmetry_space_group_name_H-M	'P1'
_symmetry_Int_Tables_number	1
_symmetry_cell_setting	triclinic
loop_
_symmetry_equiv_pos_as_xyz
  x,y,z
_cell_length_a	12.376457
_cell_length_b	16.992694
_cell_length_c	16.992695
_cell_angle_alpha	90.668223
_cell_angle_beta	102.056864
_cell_angle_gamma	77.932115
loop_
_atom_site_label
_atom_site_type_symbol
_atom_site_fract_x
_atom_site_fract_y
_atom_site_fract_z
O1	O	0.093862	-1.064980	-0.152796
O2	O	0.093895	-0.836585	-0.150960
O3	O	0.093870	-0.949866	-0.037679
O4	O	0.093888	-0.951699	-0.266076
O5	O	-0.094136	-0.921554	-0.065959
O6	O	-0.094110	-0.808273	-0.179239
O7	O	-0.094144	-1.036668	-0.181075
Zn8	Zn	-0.123977	-0.917975	-0.184647
Zn9	Zn	0.123729	-0.955278	-0.147388
O10	O	-0.094118	-0.923388	-0.294356
C11	C	-0.000103	-0.793069	-0.162743
C12	C	-0.000091	-0.705587	-0.155712
C13	C	-0.000132	-0.933354	-0.022459
C14	C	-0.000131	-0.926325	0.065026
N15	N	-0.293029	-0.892523	-0.210076
C16	C	-0.648048	-1.039817	-0.062910
C17	C	-0.529712	-1.057627	-0.045112
C18	C	-0.470535	-1.016352	-0.086351
C19	C	-0.529706	-0.957265	-0.145392
C20	C	-0.648054	-0.939459	-0.163196
C21	C	-0.470542	-0.915994	-0.186637
C22	C	-0.529713	-0.856907	-0.245678
C23	C	-0.648049	-0.839103	-0.263479
C24	C	-0.707225	-0.880377	-0.222239
C25	C	-0.352194	-0.933800	-0.168833
C26	C	-0.352201	-0.833442	-0.269119
C27	C	-0.470536	-0.815632	-0.286917
N28	N	0.292781	-0.980736	-0.121953
C29	C	-0.000142	-1.080184	-0.169292
C30	C	-0.000147	-1.167668	-0.176321
C31	C	-0.000086	-0.659597	-0.223530
C32	C	-0.000102	-0.577393	-0.216923
C33	C	-0.000115	-0.541183	-0.142497
C34	C	-0.000123	-0.587179	-0.074675
C35	C	-0.000115	-0.669379	-0.081284
C36	C	-0.000147	-0.295864	-0.115108
C37	C	-0.000152	-0.213658	-0.108504
C38	C	-0.000134	-0.203878	-0.250752
C39	C	-0.000119	-0.286081	-0.257353
C40	C	-0.000133	-0.332069	-0.189532
N41	N	-0.000128	-0.457159	-0.135742
N42	N	-0.000128	-0.416090	-0.196290
C43	C	-0.000113	-0.939900	-0.309576
C44	C	-0.000107	-0.946929	-0.397060
C45	C	-0.000142	-0.994142	0.111015
C46	C	-0.000130	-0.987535	0.193218
C47	C	-0.000116	-0.913109	0.229428
C48	C	-0.000101	-0.845288	0.183434
C49	C	-0.000105	-0.851897	0.101234
C50	C	-0.000096	-0.885718	0.474746
C51	C	-0.000096	-0.879113	0.556951
C52	C	-0.000123	-1.021360	0.566730
C53	C	-0.000133	-1.027962	0.484527
C54	C	-0.000113	-0.960142	0.438541
N55	N	-0.000107	-0.906353	0.313452
N56	N	-0.000113	-0.966900	0.354520
H57	H	-0.304028	-0.981909	-0.120762
H58	H	-0.374181	-1.030855	-0.071857
C59	C	-0.541602	-1.155030	0.052228
C60	C	-0.464675	-1.122566	0.019787
H61	H	-0.501447	-1.195119	0.092300
H62	H	-0.587749	-1.178452	0.010728
H63	H	-0.587768	-1.113536	0.075671
H64	H	-0.418513	-1.164059	-0.003661
H65	H	-0.418508	-1.099145	0.061295
H66	H	-0.000096	-0.315559	-0.317957
C67	C	-0.876744	-0.909511	-0.193140
C68	C	-0.837306	-0.860805	-0.241809
H69	H	-0.957051	-0.897432	-0.205226
H70	H	-0.849983	-0.899609	-0.138128
H71	H	-0.849955	-0.964524	-0.203072
H72	H	-0.864088	-0.805792	-0.231872
H73	H	-0.864078	-0.870701	-0.296834
C74	C	-0.000141	-0.605109	0.065266
C75	C	-0.000135	-0.547380	0.007136
H76	H	-0.000153	-0.580538	0.115773
H77	H	0.065417	-0.646831	0.069591
H78	H	-0.065707	-0.627099	0.049861
H79	H	0.065435	-0.525394	0.022538
H80	H	-0.065701	-0.505644	0.002813
C81	C	-0.219109	-0.843087	-0.355149
C82	C	-0.287166	-0.788068	-0.314456
H83	H	-0.178951	-0.815078	-0.383132
H84	H	-0.265269	-0.870673	-0.392479
H85	H	-0.166938	-0.880816	-0.317427
H86	H	-0.339343	-0.750343	-0.352178
H87	H	-0.241002	-0.760469	-0.277122
H88	H	-0.000138	-1.076575	0.604181
C89	C	0.096557	-0.791366	0.017655
C90	C	-0.000092	-0.777352	0.050679
H91	H	0.096570	-0.745341	-0.013549
H92	H	0.096540	-0.836630	-0.015671
H93	H	0.162110	-0.801617	0.059793
H94	H	-0.065645	-0.767106	0.008541
H95	H	-0.000085	-0.732074	0.084007
H96	H	-0.696237	-1.073422	-0.029342
C97	C	-0.636166	-0.741689	-0.360819
C98	C	-0.713091	-0.774160	-0.328381
H99	H	-0.676322	-0.701594	-0.400883
H100	H	-0.590003	-0.783173	-0.384262
H101	H	-0.590015	-0.718268	-0.319308
H102	H	-0.759237	-0.797587	-0.369891
H103	H	-0.759274	-0.732669	-0.304939
H104	H	-0.000161	-1.054746	0.081538
H105	H	-0.000117	-0.706824	-0.026060
C106	C	-0.000096	-0.744447	0.473344
C107	C	-0.000096	-0.811167	0.424201
H108	H	-0.000106	-0.698420	0.442134
H109	H	0.065465	-0.754698	0.515463
H110	H	-0.065660	-0.734967	0.495753
H111	H	0.065473	-0.820650	0.401796
H112	H	-0.065662	-0.800914	0.382068
C113	C	-0.000100	-0.447044	-0.269955
C114	C	-0.000084	-0.526842	-0.291468
H115	H	-0.000093	-0.415837	-0.315980
H116	H	0.065448	-0.445452	-0.229787
H117	H	-0.065677	-0.425723	-0.249521
H118	H	0.065497	-0.548165	-0.311897
H119	H	-0.065638	-0.528438	-0.331650
C120	C	-0.000169	-0.091992	-0.035215
C121	C	-0.000173	-0.173852	-0.026690
H122	H	-0.000175	-0.067420	0.015292
H123	H	-0.065720	-0.066651	-0.073217
H124	H	0.065404	-0.086390	-0.053490
H125	H	-0.065751	-0.179454	-0.008422
H126	H	0.065385	-0.199200	0.011325
C127	C	-0.000082	-0.641662	-0.363472
C128	C	-0.000076	-0.699394	-0.305342
H129	H	-0.000085	-0.666230	-0.413982
H130	H	0.065473	-0.619672	-0.348076
H131	H	-0.065651	-0.599937	-0.367791
H132	H	0.065498	-0.741116	-0.301020
H133	H	-0.065637	-0.721397	-0.320742
C134	C	0.096508	-0.120300	-0.311306
C135	C	-0.000131	-0.153323	-0.325299
H136	H	0.096501	-0.089085	-0.357329
H137	H	0.162061	-0.162434	-0.301072
H138	H	0.096490	-0.086973	-0.266033
H139	H	-0.000108	-0.186654	-0.370568
H140	H	-0.065701	-0.111183	-0.335543
H141	H	-0.000082	-0.784690	0.212924
C142	C	-0.000158	-0.297264	0.026161
C143	C	-0.000153	-0.346408	-0.040558
H144	H	-0.000155	-0.328473	0.072187
H145	H	-0.065716	-0.255135	0.015916
H146	H	0.065408	-0.274866	0.035636
H147	H	-0.065724	-0.368801	-0.050036
H148	H	0.065412	-0.388552	-0.030311
C149	C	-0.000184	-1.128797	0.194623
C150	C	-0.000156	-1.062079	0.243767
H151	H	-0.000207	-1.174817	0.225831
H152	H	0.065373	-1.138295	0.172219
H153	H	-0.065751	-1.118529	0.152498
H154	H	0.065416	-1.072344	0.285890
H155	H	-0.065719	-1.052580	0.266184
C156	C	-0.000159	-1.167904	0.502454
C157	C	-0.000151	-1.109773	0.444727
H158	H	-0.000169	-1.218410	0.477881
H159	H	-0.065711	-1.152493	0.524454
H160	H	0.065413	-1.172242	0.544170
H161	H	-0.065727	-1.105431	0.403014
H162	H	0.065408	-1.125188	0.422714
H163	H	-0.518728	-0.767523	-0.334990
H164	H	-0.000102	-0.818501	0.586428
