data_functionalizedCrystal
_audit_creation_method	'MofGen! by Chris Wilmer'
_symmetry_space_group_name_H-M	'P1'
_symmetry_Int_Tables_number	1
_symmetry_cell_setting	triclinic
loop_
_symmetry_equiv_pos_as_xyz
  x,y,z
_cell_length_a	15.944493
_cell_length_b	15.944493
_cell_length_c	8.965430
_cell_angle_alpha	90.006294
_cell_angle_beta	89.996758
_cell_angle_gamma	83.475044
loop_
_atom_site_label
_atom_site_type_symbol
_atom_site_fract_x
_atom_site_fract_y
_atom_site_fract_z
O1	O	1.114532	0.108097	-0.124000
O2	O	0.869973	0.121504	-0.124005
O3	O	0.998956	-0.007479	-0.124015
O4	O	0.985549	0.237080	-0.123990
O5	O	0.998945	-0.007470	0.124064
O6	O	0.869962	0.121513	0.124074
O7	O	1.114521	0.108105	0.124079
Cu8	Cu	0.992240	0.114810	0.146728
Cu9	Cu	0.992253	0.114800	-0.146654
O10	O	0.985538	0.237089	0.124089
C11	C	0.838673	0.120961	0.000034
C12	C	0.745424	0.119318	0.000031
C13	C	0.998403	-0.038769	0.000018
C14	C	0.996760	-0.132018	-0.000001
C15	C	0.509649	0.195240	0.000037
C16	C	0.459094	0.154302	0.122356
C17	C	0.574704	0.116273	0.000033
C18	C	0.459109	0.154275	-0.122231
C19	C	0.409795	0.113339	0.000029
C20	C	0.525377	0.075357	0.122453
C21	C	0.525396	0.075341	-0.122244
C22	C	0.474873	0.034346	0.000104
C23	C	0.669704	0.117966	0.000037
C24	C	0.314798	0.111640	0.000037
C25	C	1.072682	-0.367793	0.000029
C26	C	1.031745	-0.418357	-0.122287
C27	C	0.993716	-0.302738	0.000018
C28	C	1.031716	-0.418325	0.122300
C29	C	0.990781	-0.467647	0.000042
C30	C	0.952800	-0.352074	-0.122399
C31	C	0.952783	-0.352038	0.122297
C32	C	0.911788	-0.402569	-0.000049
C33	C	0.995408	-0.207739	0.000003
C34	C	0.989082	-0.562644	0.000046
C35	C	1.145821	0.108649	0.000037
C36	C	1.239069	0.110292	0.000030
C37	C	0.986091	0.268379	0.000053
C38	C	0.987734	0.361627	0.000062
N39	N	0.992238	0.114816	0.353077
N40	N	0.992263	0.114786	-0.353003
C41	C	0.932569	0.174447	0.450388
C42	C	1.008472	0.190735	0.549805
C43	C	0.916367	0.098536	0.549787
C44	C	1.068179	0.131142	0.450306
C45	C	0.976024	0.038910	0.450279
C46	C	1.051981	0.055165	0.549652
H47	H	0.430145	0.187655	0.225771
H48	H	0.459422	-0.033727	0.000168
H49	H	0.919475	-0.323250	-0.225918
H50	H	0.554353	0.042014	-0.225665
H51	H	0.882155	0.224921	0.406803
O52	O	1.024712	0.267357	0.601901
C53	C	0.980214	0.416854	0.610358
C54	C	0.961719	0.330129	0.551297
H55	H	0.929306	0.467631	0.569443
H56	H	0.980638	0.415965	0.737506
H57	H	1.044436	0.431175	0.567761
H58	H	0.897496	0.315755	0.593783
H59	H	0.961351	0.331062	0.424151
O60	O	1.071594	-0.452775	-0.245696
C61	C	1.146829	-0.427599	-0.471464
C62	C	1.101736	-0.388518	-0.331759
H63	H	1.171196	-0.375664	-0.541101
H64	H	1.202103	-0.475165	-0.436260
H65	H	1.100514	-0.460902	-0.540513
H66	H	1.147986	-0.355170	-0.262648
H67	H	1.046450	-0.340996	-0.367065
O68	O	0.830630	-0.421158	-0.000057
C69	C	0.737914	-0.530432	0.000979
C70	C	0.829861	-0.509496	0.001036
H71	H	0.737262	-0.601853	0.001831
H72	H	0.703990	-0.502035	0.104290
H73	H	0.704417	-0.502899	-0.103345
H74	H	0.863430	-0.537026	0.105289
H75	H	0.863722	-0.537879	-0.102345
O76	O	0.559653	0.035684	0.246109
C77	C	0.564017	0.032128	0.514716
C78	C	0.525117	0.077120	0.374804
H79	H	0.536124	0.065621	0.618800
H80	H	0.549467	-0.036242	0.515257
H81	H	0.635315	0.033728	0.513659
H82	H	0.453814	0.075584	0.375768
H83	H	0.539735	0.145468	0.374316
O84	O	1.153771	-0.348995	-0.000024
C85	C	1.246173	-0.239446	0.001073
C86	C	1.154309	-0.260629	0.001169
H87	H	1.246638	-0.168003	0.002006
H88	H	1.280181	-0.267790	0.104329
H89	H	1.279713	-0.266873	-0.103305
H90	H	1.120696	-0.233206	0.105477
H91	H	1.120365	-0.232301	-0.102156
H92	H	1.132366	0.144976	0.406792
H93	H	0.852194	0.084779	0.593489
H94	H	0.430168	0.187637	-0.225627
O95	O	1.112363	-0.004925	0.601267
C96	C	1.260538	-0.055670	0.608789
C97	C	1.192243	0.012441	0.550260
H98	H	1.325134	-0.041664	0.567548
H99	H	1.259814	-0.055616	0.735942
H100	H	1.247211	-0.120198	0.566120
H101	H	1.205523	0.077002	0.592819
H102	H	1.192982	0.012312	0.423108
O103	O	0.913149	-0.317523	0.245817
C104	C	0.909948	-0.312316	0.514395
C105	C	0.954916	-0.351456	0.374619
H106	H	0.943688	-0.339748	0.618567
H107	H	0.911096	-0.240961	0.512712
H108	H	0.841722	-0.327305	0.515375
H109	H	1.023159	-0.336531	0.373548
H110	H	0.953699	-0.422800	0.376356
O111	O	0.528180	0.276418	-0.000016
C112	C	0.514131	0.410269	-0.127665
C113	C	0.493064	0.318366	-0.127781
H114	H	0.485765	0.444205	-0.230967
H115	H	0.486715	0.443857	-0.023319
H116	H	0.585570	0.410763	-0.128664
H117	H	0.421637	0.317795	-0.126835
H118	H	0.520539	0.284817	-0.232118
H119	H	0.962269	-0.025249	0.406529
H120	H	1.065077	-0.447259	0.225702
