data_functionalizedCrystal
_audit_creation_method	'MofGen! by Chris Wilmer'
_symmetry_space_group_name_H-M	'P1'
_symmetry_Int_Tables_number	1
_symmetry_cell_setting	triclinic
loop_
_symmetry_equiv_pos_as_xyz
  x,y,z
_cell_length_a	11.026607
_cell_length_b	11.026607
_cell_length_c	9.482900
_cell_angle_alpha	101.400185
_cell_angle_beta	78.636152
_cell_angle_gamma	108.586017
loop_
_atom_site_label
_atom_site_type_symbol
_atom_site_fract_x
_atom_site_fract_y
_atom_site_fract_z
O1	O	1.742236	0.518010	-0.120892
O2	O	1.375656	0.457246	-0.120894
O3	O	1.528564	0.304339	-0.120888
O4	O	1.589328	0.670917	-0.120898
O5	O	1.497539	0.335557	0.120903
O6	O	1.344632	0.488465	0.120897
O7	O	1.711212	0.549228	0.120899
Cu8	Cu	1.525089	0.521697	0.142976
Cu9	Cu	1.561779	0.484778	-0.142971
O10	O	1.558304	0.702136	0.120893
C11	C	1.312485	0.461645	0.000001
C12	C	1.170471	0.428228	0.000000
C13	C	1.116822	0.520498	-0.000003
C14	C	0.970043	0.485962	-0.000004
C15	C	1.501842	0.272288	0.000006
C16	C	1.468426	0.130273	0.000000
C17	C	1.560695	0.076624	-0.000001
C18	C	1.526161	-0.070155	-0.000007
C19	C	1.774384	0.544829	0.000001
C20	C	1.916399	0.578244	-0.000008
C21	C	1.585026	0.734186	-0.000004
C22	C	1.618444	0.876199	-0.000008
N23	N	1.499293	0.547665	0.344095
N24	N	1.587583	0.458801	-0.344090
C25	C	1.554160	0.492428	0.416296
C26	C	1.532708	0.514046	0.583713
H27	H	0.979125	0.682816	-0.000001
H28	H	1.363864	0.067539	-0.000010
C29	C	1.447783	0.599555	0.667633
N30	N	1.383818	0.663960	0.730845
H31	H	1.617009	0.429128	0.354171
C32	C	1.672510	0.373293	0.571993
N33	N	1.736481	0.308893	0.508785
H34	H	1.436432	0.610955	0.406222
C35	C	1.085726	0.286965	0.000004
N36	N	1.021898	0.180563	0.000005
C37	C	0.885303	0.344692	-0.000001
N38	N	0.821475	0.238289	0.000000
C39	C	1.201566	0.661761	-0.000002
N40	N	1.265393	0.768164	-0.000001
C41	C	1.759715	-0.039063	-0.000005
N42	N	1.866118	0.024763	-0.000001
H43	H	1.665257	0.139358	0.000009
H44	H	1.421592	-0.132886	-0.000017
