data_functionalizedCrystal
_audit_creation_method	'MofGen! by Chris Wilmer'
_symmetry_space_group_name_H-M	'P1'
_symmetry_Int_Tables_number	1
_symmetry_cell_setting	triclinic
loop_
_symmetry_equiv_pos_as_xyz
  x,y,z
_cell_length_a	15.995350
_cell_length_b	19.288865
_cell_length_c	17.766277
_cell_angle_alpha	90.011603
_cell_angle_beta	90.005713
_cell_angle_gamma	83.314311
loop_
_atom_site_label
_atom_site_type_symbol
_atom_site_fract_x
_atom_site_fract_y
_atom_site_fract_z
O1	O	-1.110654	-0.089532	-0.062539
O2	O	-0.866837	-0.100588	-0.062556
O3	O	-0.995790	0.006052	-0.062532
O4	O	-0.981700	-0.196172	-0.062563
O5	O	-0.995768	0.006058	0.062656
O6	O	-0.866814	-0.100582	0.062633
O7	O	-1.110631	-0.089526	0.062649
Cu8	Cu	-0.988720	-0.095054	0.074072
Cu9	Cu	-0.988747	-0.095060	-0.073978
O10	O	-0.981677	-0.196166	0.062626
C11	C	-0.835632	-0.100128	0.000036
C12	C	-0.742687	-0.098757	0.000031
C13	C	-0.995326	0.031933	0.000064
C14	C	-0.993965	0.109040	0.000071
C15	C	-1.141835	-0.089986	0.000055
C16	C	-1.234781	-0.091356	0.000056
C17	C	-0.404958	-0.093836	0.000047
C18	C	-0.452679	-0.017889	0.000338
C19	C	-0.549364	-0.019260	0.000050
C20	C	-0.572509	-0.096277	0.000039
C21	C	-0.531294	-0.133740	-0.071452
C22	C	-0.434665	-0.131832	-0.071506
C23	C	-0.434295	-0.133395	0.070856
C24	C	-0.531240	-0.133377	0.071796
C25	C	-0.667202	-0.097661	0.000033
C26	C	-0.310266	-0.092455	0.000049
C27	C	-0.982142	-0.222047	0.000027
C28	C	-0.983503	-0.299154	0.000016
N29	N	-0.988708	-0.095049	0.178202
C30	C	-1.069629	0.153540	0.000080
C31	C	-1.068350	0.225990	0.000068
C32	C	-0.991403	0.253937	0.000062
C33	C	-0.915729	0.209428	0.000049
C34	C	-0.917010	0.136979	0.000053
C35	C	-0.930906	0.362384	0.043909
C36	C	-0.929628	0.434832	0.043909
C37	C	-0.987450	0.477393	0.000045
C38	C	-1.046563	0.447500	-0.043810
C39	C	-1.047844	0.375051	-0.043805
C40	C	-0.990006	0.332495	0.000057
C41	C	-1.061733	0.600453	0.000040
C42	C	-1.060451	0.672904	0.000023
C43	C	-0.907827	0.656340	0.000012
C44	C	-0.909111	0.583890	0.000021
C45	C	-0.986066	0.555951	0.000038
N46	N	-0.988766	-0.095060	-0.178109
C47	C	-1.045827	-0.047852	0.217599
C48	C	-1.045832	-0.047848	0.296401
C49	C	-0.988725	-0.095054	0.335803
C50	C	-0.931596	-0.142255	0.296396
C51	C	-0.931587	-0.142252	0.217595
C52	C	-0.977516	-0.158313	0.460630
C53	C	-0.977531	-0.158317	0.539429
C54	C	-0.988748	-0.095063	0.578849
C55	C	-0.999968	-0.031802	0.539460
C56	C	-0.999959	-0.031800	0.460660
C57	C	-0.988728	-0.095062	0.421248
C58	C	-1.045875	-0.047858	0.703692
C59	C	-1.045874	-0.047854	0.782495
C60	C	-0.931642	-0.142267	0.782488
C61	C	-0.931639	-0.142265	0.703687
C62	C	-0.988760	-0.095061	0.664293
H63	H	-0.577894	0.010188	0.051299
H64	H	-0.968400	-0.209827	0.571494
H65	H	-0.845176	0.679094	0.000003
Cl66	Cl	-1.163478	0.281943	0.000078
Cl67	Cl	-1.117630	0.011492	0.168077
Cl68	Cl	-0.963492	-0.237842	0.411083
H69	H	-1.132291	0.130797	0.000091
Cl70	Cl	-1.119257	0.500998	-0.098958
H71	H	-0.545206	-0.190323	-0.074118
H72	H	-0.885131	-0.180700	0.671607
H73	H	-1.124394	0.577704	0.000050
H74	H	-0.433208	0.012326	-0.050640
H75	H	-0.546393	-0.189540	0.076106
Cl76	Cl	-0.402726	-0.095055	0.154520
Cl77	Cl	-1.014054	0.047724	0.411145
Cl78	Cl	-1.155581	0.728849	0.000029
Cl79	Cl	-0.575263	-0.093575	-0.153588
Cl80	Cl	-0.813985	0.527944	0.000013
H81	H	-0.558650	-0.106030	0.124685
Cl82	Cl	-1.122148	0.337472	-0.098939
H83	H	-0.885098	-0.180689	0.328480
H84	H	-0.885073	-0.180686	0.185517
Cl85	Cl	-0.818995	0.244560	0.000036
H86	H	-1.092346	-0.009414	0.328484
H87	H	-0.881491	0.459164	0.079613
H88	H	-0.434262	0.012471	0.051608
H89	H	-0.855393	0.100746	0.000046
Cl90	Cl	-0.858211	0.308885	0.099060
H91	H	-1.009102	0.019705	0.571554
H92	H	-1.092384	-0.009420	0.671617
Cl93	Cl	-0.592534	0.026304	-0.079333
Cl94	Cl	-1.117682	0.011488	0.832027
H95	H	-0.416470	-0.104517	-0.124940
H96	H	-0.885142	-0.180700	0.814568
Cl97	Cl	-0.384933	-0.219847	0.071592
Cl98	Cl	-0.384549	-0.217917	-0.076529
