data_functionalizedCrystal
_audit_creation_method	'MofGen! by Chris Wilmer'
_symmetry_space_group_name_H-M	'P1'
_symmetry_Int_Tables_number	1
_symmetry_cell_setting	triclinic
loop_
_symmetry_equiv_pos_as_xyz
  x,y,z
_cell_length_a	21.295418
_cell_length_b	10.685741
_cell_length_c	10.685453
_cell_angle_alpha	90.325438
_cell_angle_beta	94.355604
_cell_angle_gamma	85.650063
loop_
_atom_site_label
_atom_site_type_symbol
_atom_site_fract_x
_atom_site_fract_y
_atom_site_fract_z
Zn1	Zn	0.950691	-0.444604	-0.748325
Zn2	Zn	0.966733	-0.670421	-0.554664
Zn3	Zn	0.854104	-0.460743	-0.538499
Zn4	Zn	0.852843	-0.654380	-0.764309
O5	O	0.906093	-0.557537	-0.651449
O6	O	1.040904	-0.474518	-0.722711
O7	O	0.959034	-0.656075	-0.376970
O8	O	0.860731	-0.283060	-0.552879
O9	O	1.052690	-0.640425	-0.580429
O10	O	0.931692	-0.271202	-0.707037
O11	O	0.876286	-0.502026	-0.365093
O12	O	0.765852	-0.486471	-0.568378
O13	O	0.858581	-0.613084	-0.937739
O14	O	0.764926	-0.628734	-0.734280
O15	O	0.930469	-0.458963	-0.925995
O16	O	0.957811	-0.843836	-0.595928
O17	O	0.874137	-0.832050	-0.749954
C18	C	0.917594	-0.883458	-0.676457
C19	C	0.922570	-1.022885	-0.687197
C20	C	0.742549	-0.557614	-0.651310
C21	C	0.672585	-0.557675	-0.651282
C22	C	0.892595	-0.532434	-0.978658
C23	C	0.886843	-0.521736	-1.118095
C24	C	0.639261	-0.631867	-0.737556
C25	C	0.573515	-0.631832	-0.737610
C26	C	0.541097	-0.557619	-0.651369
C27	C	0.574428	-0.483412	-0.565089
C28	C	0.640172	-0.483440	-0.565046
N29	N	0.442015	-0.556210	-0.540891
N30	N	0.379561	-0.556191	-0.540936
C31	C	0.343014	-0.557529	-0.651496
N32	N	0.371280	-0.558912	-0.762013
N33	N	0.433740	-0.558938	-0.761967
C34	C	0.469808	-0.557580	-0.651407
C35	C	0.238400	-0.631687	-0.737835
C36	C	0.172653	-0.631643	-0.737890
C37	C	0.173568	-0.483230	-0.565359
C38	C	0.239314	-0.483267	-0.565314
C39	C	0.271726	-0.557502	-0.651551
C40	C	1.070275	-0.557461	-0.651590
C41	C	1.140239	-0.557428	-0.651650
C42	C	0.894563	-0.230342	-0.626371
C43	C	0.889649	-0.090910	-0.615685
C44	C	0.919571	-0.582452	-0.325507
C45	C	0.925432	-0.592796	-0.186043
H46	H	0.665647	-0.692313	-0.807778
Br47	Br	0.975820	-0.103599	-0.802863
H48	H	0.857706	-0.042477	-0.546275
Br49	Br	0.824302	-0.407126	-0.198963
H50	H	0.546377	-0.692247	-0.807868
H51	H	0.548029	-0.422985	-0.494873
Br52	Br	0.282392	-0.732426	-0.854872
Br53	Br	0.685401	-0.382740	-0.447954
Br54	Br	0.127425	-0.732329	-0.854996
H55	H	0.147174	-0.422799	-0.495145
Br56	Br	0.987980	-0.707380	-0.105178
H57	H	0.266447	-0.422859	-0.495055
