data_functionalizedCrystal
_audit_creation_method	'MofGen! by Chris Wilmer'
_symmetry_space_group_name_H-M	'P1'
_symmetry_Int_Tables_number	1
_symmetry_cell_setting	triclinic
loop_
_symmetry_equiv_pos_as_xyz
  x,y,z
_cell_length_a	27.732048
_cell_length_b	15.995350
_cell_length_c	14.472310
_cell_angle_alpha	89.998838
_cell_angle_beta	90.007492
_cell_angle_gamma	83.067515
loop_
_atom_site_label
_atom_site_type_symbol
_atom_site_fract_x
_atom_site_fract_y
_atom_site_fract_z
O1	O	-0.641363	-0.099622	-0.076718
O2	O	-0.141363	0.400378	0.423282
O3	O	-0.500635	-0.114770	-0.076745
O4	O	-0.000635	0.385230	0.423255
O5	O	-0.574846	0.014741	-0.076730
O6	O	-0.074846	0.514741	0.423270
O7	O	-0.567152	-0.229134	-0.076733
O8	O	-0.067152	0.270866	0.423267
O9	O	-0.574827	0.014733	0.076952
O10	O	-0.074827	0.514733	0.576952
O11	O	-0.500616	-0.114778	0.076937
O12	O	-0.000616	0.385222	0.576937
O13	O	-0.641344	-0.099630	0.076964
O14	O	-0.141344	0.400370	0.576964
Cu15	Cu	-0.570978	-0.107205	0.090983
Cu16	Cu	-0.070978	0.392795	0.590983
Cu17	Cu	-0.571001	-0.107196	-0.090764
Cu18	Cu	-0.071001	0.392804	0.409236
O19	O	-0.567133	-0.229141	0.076949
O20	O	-0.067133	0.270859	0.576949
C21	C	-0.482617	-0.114456	0.000092
C22	C	0.017383	0.385544	0.500092
C23	C	-0.428958	-0.113499	0.000082
C24	C	0.071042	0.386501	0.500082
C25	C	-0.574518	0.045928	0.000109
C26	C	-0.074518	0.545928	0.500109
C27	C	-0.573565	0.138866	0.000104
C28	C	-0.073565	0.638866	0.500104
C29	C	-0.659362	-0.099944	0.000125
C30	C	-0.159362	0.400056	0.500125
C31	C	-0.713021	-0.100901	0.000129
C32	C	-0.213021	0.399099	0.500129
C33	C	-0.090447	-0.184004	0.000121
C34	C	0.409553	0.315996	0.500121
C35	C	0.111228	-0.180451	0.000129
C36	C	0.611228	0.319549	0.500129
O37	O	0.142205	-0.244923	0.000168
O38	O	0.642205	0.255077	0.500168
N39	N	0.130683	-0.103656	0.000128
N40	N	0.630683	0.396344	0.500128
C41	C	0.099715	-0.027744	0.000132
C42	C	0.599715	0.472256	0.500132
O43	O	0.120891	0.037657	0.000141
O44	O	0.620891	0.537657	0.500141
C45	C	-0.101958	-0.031297	0.000130
C46	C	0.398042	0.468703	0.500130
C47	C	-0.121410	-0.108097	0.000121
C48	C	0.378590	0.391903	0.500121
C49	C	-0.109900	-0.260797	0.000113
C50	C	0.390100	0.239203	0.500113
C51	C	-0.160315	-0.261685	0.000106
C52	C	0.339685	0.238315	0.500106
C53	C	-0.191279	-0.185778	0.000107
C54	C	0.308721	0.314222	0.500107
C55	C	-0.171826	-0.108985	0.000114
C56	C	0.328174	0.391015	0.500114
C57	C	-0.132925	0.044614	0.000140
C58	C	0.367075	0.544614	0.500140
C59	C	-0.183346	0.043719	0.000142
C60	C	0.316654	0.543719	0.500142
C61	C	-0.202798	-0.033081	0.000133
C62	C	0.297202	0.466919	0.500133
C63	C	-0.253205	-0.033965	0.000108
C64	C	0.246795	0.466035	0.500108
N65	N	-0.272660	-0.110761	0.000108
N66	N	0.227340	0.389239	0.500108
C67	C	-0.241697	-0.186667	0.000108
C68	C	0.258303	0.313333	0.500108
C69	C	0.205598	-0.025883	0.000131
C70	C	0.705598	0.474117	0.500131
C71	C	0.256016	-0.024995	0.000130
C72	C	0.756016	0.475005	0.500130
C73	C	0.267525	-0.177703	0.000129
C74	C	0.767525	0.322297	0.500129
C75	C	0.217106	-0.178590	0.000123
C76	C	0.717106	0.321410	0.500123
C77	C	0.186143	-0.102679	0.000132
C78	C	0.686143	0.397321	0.500132
C79	C	-0.347574	-0.188525	0.000092
C80	C	0.152426	0.311475	0.500092
C81	C	-0.397995	-0.189405	0.000081
C82	C	0.102005	0.310595	0.500081
C83	C	-0.409499	-0.036698	0.000087
C84	C	0.090501	0.463302	0.500087
C85	C	-0.359083	-0.035817	0.000093
C86	C	0.140917	0.464183	0.500093
C87	C	-0.328121	-0.111737	0.000099
C88	C	0.171879	0.388263	0.500099
O89	O	-0.284211	0.030472	0.000079
O90	O	0.215789	0.530472	0.500079
O91	O	-0.262881	-0.252058	0.000119
O92	O	0.237119	0.247942	0.500119
C93	C	-0.040031	-0.183116	0.000128
C94	C	0.459969	0.316884	0.500128
C95	C	-0.020579	-0.106323	0.000136
C96	C	0.479421	0.393677	0.500136
C97	C	-0.051542	-0.030416	0.000136
C98	C	0.448458	0.469584	0.500136
C99	C	0.029839	-0.105434	0.000134
C100	C	0.529839	0.394566	0.500134
C101	C	0.060803	-0.181340	0.000134
C102	C	0.560803	0.318660	0.500134
C103	C	0.041348	-0.258135	0.000134
C104	C	0.541348	0.241865	0.500134
C105	C	-0.009068	-0.259023	0.000127
C106	C	0.490932	0.240977	0.500127
C107	C	-0.032087	0.046379	0.000136
C108	C	0.467913	0.546379	0.500136
C109	C	0.018329	0.047260	0.000142
C110	C	0.518329	0.547260	0.500142
C111	C	0.049292	-0.028646	0.000141
C112	C	0.549292	0.471354	0.500141
C113	C	-0.567461	-0.260328	0.000108
C114	C	-0.067461	0.239672	0.500108
C115	C	-0.568414	-0.353266	0.000107
C116	C	-0.068414	0.146734	0.500107
N117	N	-0.570966	-0.107210	0.218814
N118	N	-0.070966	0.392790	0.718814
C119	C	-0.570140	0.476569	0.000106
C120	C	-0.070140	0.976569	0.500106
C121	C	-0.517289	0.428451	-0.000249
C122	C	-0.017289	0.928451	0.499751
C123	C	-0.518242	0.331773	0.000098
C124	C	-0.018242	0.831773	0.500098
C125	C	-0.571839	0.309031	0.000105
C126	C	-0.071839	0.809031	0.500105
C127	C	-0.597896	0.350441	0.087868
C128	C	-0.097896	0.850441	0.587868
C129	C	-0.596569	0.447060	0.087941
C130	C	-0.096569	0.947060	0.587941
C131	C	-0.597682	0.447441	-0.086824
C132	C	-0.097682	0.947441	0.413176
C133	C	-0.597670	0.350495	-0.087984
C134	C	-0.097670	0.850495	0.412016
C135	C	-0.572802	0.214346	0.000107
C136	C	-0.072802	0.714346	0.500107
C137	C	-0.569179	0.571255	0.000110
C138	C	-0.069179	1.071255	0.500110
N139	N	-0.571017	-0.107183	-0.218595
N140	N	-0.071017	0.392817	0.281405
C141	C	-0.571000	-0.107192	0.592905
C142	C	-0.071000	0.392808	1.092905
C143	C	-0.531158	-0.176262	0.553731
C144	C	-0.031158	0.323738	1.053731
C145	C	-0.531250	-0.176511	0.446643
C146	C	-0.031250	0.323489	0.946643
C147	C	-0.570983	-0.107201	0.407314
C148	C	-0.070983	0.392799	0.907314
C149	C	-0.621417	-0.125630	0.446161
C150	C	-0.121417	0.374370	0.946161
C151	C	-0.621193	-0.126121	0.553282
C152	C	-0.121193	0.373879	1.053282
C153	C	-0.560858	-0.019484	0.553433
C154	C	-0.060858	0.480516	1.053433
C155	C	-0.559701	-0.020084	0.446305
C156	C	-0.059701	0.479916	0.946305
C157	C	-0.570976	-0.107205	0.302426
C158	C	-0.070976	0.392795	0.802426
C159	C	-0.571010	-0.107190	0.697793
C160	C	-0.071010	0.392810	1.197793
H161	H	-0.413829	-0.251948	0.000073
H162	H	0.086171	0.248052	0.500073
Cl163	Cl	-0.571011	0.478799	-0.189525
Cl164	Cl	-0.071011	0.978799	0.310475
Cl165	Cl	-0.605715	0.059862	0.592544
Cl166	Cl	-0.105715	0.559862	1.092544
Cl167	Cl	-0.658690	0.329421	0.092920
Cl168	Cl	-0.158690	0.829421	0.592920
H169	H	-0.651767	-0.077762	0.579194
H170	H	-0.151767	0.422238	1.079194
H171	H	-0.117096	0.107153	0.000148
H172	H	0.382904	0.607153	0.500148
Cl173	Cl	0.042776	0.143819	0.000141
Cl174	Cl	0.542776	0.643819	0.500141
Cl175	Cl	-0.505300	0.008110	0.595180
Cl176	Cl	-0.005300	0.508110	1.095180
Cl177	Cl	-0.473087	-0.159739	0.593512
Cl178	Cl	0.026913	0.340261	1.093512
Cl179	Cl	-0.071006	0.141815	0.000137
Cl180	Cl	0.428994	0.641815	0.500137
Cl181	Cl	-0.541230	-0.277031	0.407060
Cl182	Cl	-0.041230	0.222969	0.907060
H183	H	-0.343245	0.026720	0.000087
H184	H	0.156755	0.526720	0.500087
H185	H	-0.537545	-0.240997	0.580641
H186	H	-0.037545	0.259003	1.080641
Cl187	Cl	0.166679	0.069559	0.000139
Cl188	Cl	0.666679	0.569559	0.500139
Cl189	Cl	-0.568498	0.307563	-0.188240
Cl190	Cl	-0.068498	0.807563	0.311760
Cl191	Cl	0.280463	0.071558	0.000118
Cl192	Cl	0.780463	0.571558	0.500118
H193	H	-0.586835	0.033672	0.419537
H194	H	-0.086835	0.533672	0.919537
H195	H	-0.496250	0.447770	0.062330
H196	H	0.003750	0.947770	0.562330
Cl197	Cl	-0.635548	-0.223225	0.404732
Cl198	Cl	-0.135548	0.276775	0.904732
H199	H	0.066567	-0.319941	0.000130
H200	H	0.566567	0.180059	0.500130
Cl201	Cl	-0.486616	0.287483	-0.097033
Cl202	Cl	0.013384	0.787483	0.402967
H203	H	-0.434719	0.025103	0.000084
H204	H	0.065281	0.525103	0.500084
H205	H	-0.636755	0.335639	-0.093278
H206	H	-0.136755	0.835639	0.406722
Cl207	Cl	-0.308658	-0.283969	0.000098
Cl208	Cl	0.191342	0.216031	0.500098
H209	H	-0.024901	-0.321561	0.000122
H210	H	0.475099	0.178439	0.500122
Cl211	Cl	-0.486379	0.288329	0.097382
Cl212	Cl	0.013621	0.788329	0.597382
Cl213	Cl	-0.484683	0.456643	-0.097420
Cl214	Cl	0.015317	0.956643	0.402580
Cl215	Cl	-0.657844	0.497257	-0.087730
Cl216	Cl	-0.157844	0.997257	0.412270
Cl217	Cl	-0.567205	0.474934	0.189218
Cl218	Cl	-0.067205	0.974934	0.689218
H219	H	-0.208554	0.105537	0.000149
H220	H	0.291446	0.605537	0.500149
H221	H	-0.635371	0.479810	0.091928
H222	H	-0.135371	0.979810	0.591928
Cl223	Cl	-0.569930	0.306261	0.188698
Cl224	Cl	-0.069930	0.806261	0.688698
H225	H	-0.493761	-0.165627	0.420380
H226	H	0.006239	0.334373	0.920380
H227	H	-0.630131	-0.190066	0.578259
H228	H	-0.130131	0.309934	1.078259
Cl229	Cl	-0.668287	-0.049985	0.406832
Cl230	Cl	-0.168287	0.450015	0.906832
H231	H	-0.522601	-0.006083	0.420916
H232	H	-0.022601	0.493917	0.920916
H233	H	-0.176148	-0.324223	0.000099
H234	H	0.323852	0.175777	0.500099
H235	H	-0.084694	-0.322613	0.000116
H236	H	0.415306	0.177387	0.500116
H237	H	0.201272	-0.241128	0.000121
H238	H	0.701272	0.258872	0.500121
H239	H	0.292744	-0.239509	0.000128
H240	H	0.792744	0.260491	0.500128
