data_functionalizedCrystal
_audit_creation_method	'MofGen! by Chris Wilmer'
_symmetry_space_group_name_H-M	'P1'
_symmetry_Int_Tables_number	1
_symmetry_cell_setting	triclinic
loop_
_symmetry_equiv_pos_as_xyz
  x,y,z
_cell_length_a	16.109301
_cell_length_b	17.038272
_cell_length_c	14.586319
_cell_angle_alpha	89.995924
_cell_angle_beta	89.999213
_cell_angle_gamma	87.286518
loop_
_atom_site_label
_atom_site_type_symbol
_atom_site_fract_x
_atom_site_fract_y
_atom_site_fract_z
O1	O	1.110268	0.100495	-0.076183
O2	O	1.610268	0.600495	0.423817
O3	O	0.869094	0.113001	-0.076198
O4	O	1.369094	0.613001	0.423802
O5	O	0.988248	-0.007067	-0.076183
O6	O	1.488248	0.492933	0.423817
O7	O	0.991114	0.220564	-0.076198
O8	O	1.491114	0.720564	0.423802
O9	O	0.988239	-0.007069	0.076298
O10	O	1.488239	0.492931	0.576298
O11	O	0.869085	0.113000	0.076283
O12	O	1.369085	0.613000	0.576283
O13	O	1.110259	0.100493	0.076298
O14	O	1.610259	0.600493	0.576298
Cu15	Cu	0.989671	0.106746	0.090213
Cu16	Cu	1.489671	0.606746	0.590213
Cu17	Cu	0.989682	0.106748	-0.090113
Cu18	Cu	1.489682	0.606748	0.409887
O19	O	0.991105	0.220562	0.076283
O20	O	1.491105	0.720562	0.576283
C21	C	0.838079	0.112494	0.000041
C22	C	1.338079	0.612494	0.500041
C23	C	0.745676	0.110975	0.000035
C24	C	1.245676	0.610975	0.500035
C25	C	0.528212	0.178690	0.000042
C26	C	1.028212	0.678690	0.500042
C27	C	0.441390	0.177257	0.000048
C28	C	0.941390	0.677257	0.500048
C29	C	0.451147	0.034799	0.000053
C30	C	0.951147	0.534799	0.500053
C31	C	0.537968	0.036233	0.000054
C32	C	1.037968	0.536233	0.500054
C33	C	0.576498	0.108181	0.000043
C34	C	1.076498	0.608181	0.500043
C35	C	0.402855	0.105314	0.000049
C36	C	0.902855	0.605314	0.500049
C37	C	0.308719	0.103759	0.000055
C38	C	0.808719	0.603759	0.500055
C39	C	0.670640	0.109736	0.000039
C40	C	1.170640	0.609736	0.500039
C41	C	0.985636	-0.036196	0.000057
C42	C	1.485636	0.463804	0.500057
C43	C	0.977857	-0.122989	0.000056
C44	C	1.477857	0.377011	0.500056
C45	C	1.049277	-0.173104	0.000062
C46	C	1.549277	0.326896	0.500062
C47	C	1.041963	-0.254654	0.000052
C48	C	1.541963	0.245346	0.500052
C49	C	0.963228	-0.286089	0.000044
C50	C	1.463228	0.213911	0.500044
C51	C	0.891802	-0.235967	0.000036
C52	C	1.391802	0.264033	0.500036
C53	C	0.899116	-0.154418	0.000039
C54	C	1.399116	0.345582	0.500039
C55	C	0.937385	-0.531846	0.000030
C56	C	1.437385	-0.031846	0.500030
C57	C	0.930076	-0.613402	0.000031
C58	C	1.430076	-0.113402	0.500031
C59	C	1.080238	-0.632083	0.000045
C60	C	1.580238	-0.132083	0.500045
C61	C	1.087546	-0.550532	0.000053
C62	C	1.587546	-0.050532	0.500053
C63	C	1.016120	-0.500418	0.000040
C64	C	1.516120	-0.000418	0.500040
C65	C	0.955749	-0.369446	0.000038
C66	C	1.455749	0.130554	0.500038
C67	C	1.023599	-0.417062	0.000040
C68	C	1.523599	0.082938	0.500040
C69	C	1.141274	0.101001	0.000057
C70	C	1.641274	0.601001	0.500057
C71	C	1.233677	0.102519	0.000057
C72	C	1.733677	0.602519	0.500057
C73	C	0.993717	0.249691	0.000041
C74	C	1.493717	0.749691	0.500041
C75	C	1.001496	0.336484	0.000036
C76	C	1.501496	0.836484	0.500036
N77	N	0.989670	0.106744	0.217045
N78	N	1.489670	0.606744	0.717045
N79	N	0.989689	0.106744	-0.216945
N80	N	1.489689	0.606744	0.283055
C81	C	1.042451	0.053596	0.452058
C82	C	1.542451	0.553596	0.952058
C83	C	1.042453	0.053594	0.548039
C84	C	1.542453	0.553594	1.048039
C85	C	0.936902	0.159895	0.548036
C86	C	1.436902	0.659895	1.048036
C87	C	0.936896	0.159893	0.452056
C88	C	1.436896	0.659893	0.952056
C89	C	0.989675	0.106744	0.404070
C90	C	1.489675	0.606744	0.904070
C91	C	0.989684	0.106744	0.596030
C92	C	1.489684	0.606744	1.096030
C93	C	0.989686	0.106743	0.700098
C94	C	1.489686	0.606743	1.200098
C95	C	0.989672	0.106744	0.299996
C96	C	1.489672	0.606744	0.799996
H97	H	0.577284	-0.021187	0.000057
H98	H	1.077284	0.478813	0.500057
H99	H	1.113392	-0.147517	0.000074
H100	H	1.613392	0.352483	0.500074
F101	F	0.410133	-0.041768	0.000060
F102	F	0.910133	0.458232	0.500060
H103	H	1.100122	-0.295455	0.000059
H104	H	1.600122	0.204545	0.500059
H105	H	0.402079	0.234672	0.000048
H106	H	0.902079	0.734672	0.500048
H107	H	1.151661	-0.524945	0.000059
H108	H	1.651661	-0.024945	0.500059
H109	H	1.085425	0.010318	0.412989
H110	H	1.585425	0.510318	0.912989
F111	F	0.880720	0.216460	0.400980
F112	F	1.380720	0.716460	0.900980
F113	F	0.808005	-0.269424	0.000018
F114	F	1.308005	0.230576	0.500018
F115	F	0.880736	0.216459	0.599112
F116	F	1.380736	0.716459	1.099112
H117	H	1.138389	-0.672894	0.000053
H118	H	1.638389	-0.172894	0.500053
F119	F	0.846271	-0.646853	0.000027
F120	F	1.346271	-0.146853	0.500027
F121	F	0.861366	-0.478521	0.000014
F122	F	1.361366	0.021479	0.500014
H123	H	0.559580	0.237274	0.000040
H124	H	1.059580	0.737274	0.500040
H125	H	0.840958	-0.113615	0.000035
H126	H	1.340958	0.386385	0.500035
H127	H	1.087705	-0.391465	0.000026
H128	H	1.587705	0.108535	0.500026
F129	F	1.098622	-0.002975	0.599108
F130	F	1.598622	0.497025	1.099108
F131	F	0.871955	-0.402908	0.000026
F132	F	1.371955	0.097092	0.500026
