data_functionalizedCrystal
_audit_creation_method	'MofGen! by Chris Wilmer'
_symmetry_space_group_name_H-M	'P1'
_symmetry_Int_Tables_number	1
_symmetry_cell_setting	triclinic
loop_
_symmetry_equiv_pos_as_xyz
  x,y,z
_cell_length_a	6.817900
_cell_length_b	23.752963
_cell_length_c	23.753023
_cell_angle_alpha	97.113271
_cell_angle_beta	100.067528
_cell_angle_gamma	100.066732
loop_
_atom_site_label
_atom_site_type_symbol
_atom_site_fract_x
_atom_site_fract_y
_atom_site_fract_z
V1	V	-3.971794	-0.079886	-0.178727
O2	O	-3.977677	0.003095	-0.174979
O3	O	-3.907026	-0.157686	-0.177837
O4	O	-3.907021	-0.078983	-0.256524
O5	O	-3.977682	-0.076152	-0.095747
V6	V	-4.459665	-0.069922	-0.168762
O7	O	-4.223516	-0.101743	-0.200587
O8	O	-4.658140	-0.048065	-0.146902
O9	O	-4.301226	0.007878	-0.169652
O10	O	-4.571179	-0.152903	-0.172509
O11	O	-4.571174	-0.073656	-0.251741
O12	O	-4.301231	-0.070825	-0.090964
C13	C	-3.748575	-0.176641	-0.175103
C14	C	-3.776798	-0.240246	-0.174894
C15	C	-3.924670	-0.626269	-0.121105
C16	C	-3.951214	-0.686031	-0.120900
O17	O	-3.941785	-0.709812	-0.076207
N18	N	-3.991787	-0.724303	-0.173229
C19	C	-4.005838	-0.702811	-0.225766
O20	O	-4.042788	-0.740852	-0.270258
C21	C	-3.979309	-0.643050	-0.225971
C22	C	-3.938715	-0.604780	-0.173638
C23	C	-3.884081	-0.588000	-0.068776
C24	C	-3.857536	-0.528242	-0.068981
C25	C	-3.871581	-0.506753	-0.121514
C26	C	-3.912170	-0.545022	-0.173842
C27	C	-3.993374	-0.621559	-0.278507
C28	C	-3.966843	-0.561794	-0.278707
C29	C	-3.926249	-0.523524	-0.226374
C30	C	-3.899670	-0.463776	-0.226580
N31	N	-3.859097	-0.425504	-0.174251
C32	C	-3.845052	-0.446992	-0.121718
C33	C	-4.061551	-0.828312	-0.225334
C34	C	-4.088066	-0.888072	-0.225130
C35	C	-4.033443	-0.871288	-0.120264
C36	C	-4.006914	-0.811527	-0.120468
C37	C	-4.020978	-0.790040	-0.173005
C38	C	-3.789306	-0.321497	-0.122152
C39	C	-3.762753	-0.261734	-0.122361
C40	C	-3.817388	-0.278524	-0.227227
C41	C	-3.843929	-0.338281	-0.227018
C42	C	-3.829891	-0.359765	-0.174476
O43	O	-3.909078	-0.439953	-0.271251
O44	O	-3.808129	-0.408946	-0.077235
C45	C	-3.748568	-0.076248	-0.275476
C46	C	-3.776784	-0.076025	-0.339078
C47	C	-3.979301	-0.127140	-0.741885
C48	C	-4.005846	-0.126939	-0.801648
O49	O	-4.042870	-0.171425	-0.839697
N50	N	-3.991799	-0.074407	-0.823143
C51	C	-3.951223	-0.022073	-0.784872
O52	O	-3.941714	0.022628	-0.808643
C53	C	-3.924693	-0.022274	-0.725111
C54	C	-3.938724	-0.074810	-0.703619
C55	C	-3.993332	-0.179671	-0.720393
C56	C	-3.966785	-0.179871	-0.660634
C57	C	-3.926207	-0.127541	-0.622368
C58	C	-3.912177	-0.075010	-0.643861
C59	C	-3.884133	0.030059	-0.686842
C60	C	-3.857605	0.029853	-0.627077
C61	C	-3.871635	-0.022682	-0.605585
C62	C	-3.845052	-0.022880	-0.545836
N63	N	-3.859099	-0.075412	-0.524341
C64	C	-3.899677	-0.127743	-0.562607
C65	C	-4.006944	-0.021654	-0.910376
C66	C	-4.033459	-0.021451	-0.970135
C67	C	-4.088084	-0.126318	-0.986907
C68	C	-4.061554	-0.126519	-0.927146
C69	C	-4.020991	-0.074186	-0.888880
C70	C	-3.843922	-0.128160	-0.437109
C71	C	-3.817362	-0.128355	-0.377344
C72	C	-3.762750	-0.023489	-0.360578
C73	C	-3.789297	-0.023293	-0.420337
C74	C	-3.829892	-0.075633	-0.458602
O75	O	-3.808031	0.021583	-0.507753
O76	O	-3.909205	-0.172437	-0.538828
C77	C	-4.123019	0.026830	-0.172384
C78	C	-4.074034	0.090434	-0.172597
C79	C	-4.123026	-0.073562	-0.072009
C80	C	-4.074049	-0.073782	-0.008407
H81	H	-3.973859	-0.780371	-0.077854
H82	H	-3.824497	-0.497088	-0.026366
O83	O	-4.018303	-0.894475	-0.063602
H84	H	-3.985610	-0.857827	-0.027244
H85	H	-4.026428	-0.652709	-0.321123
H86	H	-3.876973	-0.170780	-0.468258
H87	H	-4.022004	0.021329	-0.987628
H88	H	-3.729702	0.019117	-0.329411
H89	H	-4.072980	-0.169298	-0.909652
O90	O	-3.868902	-0.611172	-0.012110
H91	H	-3.836201	-0.574513	0.024237
O92	O	-3.963145	0.034796	-0.869103
H93	H	-3.957816	0.071355	-0.894094
O94	O	-3.981945	-0.236536	-0.637460
H95	H	-3.835912	-0.237001	-0.608455
H96	H	-4.121086	-0.919226	-0.267744
O97	O	-3.718951	-0.220456	-0.065914
H98	H	-3.713660	-0.245443	-0.029352
O99	O	-4.037044	-0.236117	-0.761661
H100	H	-4.042307	-0.272672	-0.736665
O101	O	-3.982057	-0.538582	-0.335355
H102	H	-3.865021	-0.551865	-0.358340
H103	H	-3.777872	-0.338982	-0.079367
H104	H	-4.121129	-0.168928	-1.018074
H105	H	-4.072999	-0.810823	-0.268118
H106	H	-3.876950	-0.369442	-0.269631
O107	O	-3.832956	-0.255348	-0.283894
H108	H	-3.807851	-0.207366	-0.275241
H109	H	-3.828785	-0.171138	-0.359849
H110	H	-3.872687	0.072839	-0.704329
H111	H	-3.824580	0.072471	-0.595924
O112	O	-3.774162	0.033368	-0.443524
H113	H	-3.741494	0.069722	-0.406873
