data_functionalizedCrystal
_audit_creation_method	'MofGen! by Chris Wilmer'
_symmetry_space_group_name_H-M	'P1'
_symmetry_Int_Tables_number	1
_symmetry_cell_setting	triclinic
loop_
_symmetry_equiv_pos_as_xyz
  x,y,z
_cell_length_a	6.817900
_cell_length_b	11.102188
_cell_length_c	14.125465
_cell_angle_alpha	94.635462
_cell_angle_beta	100.398878
_cell_angle_gamma	108.603875
loop_
_atom_site_label
_atom_site_type_symbol
_atom_site_fract_x
_atom_site_fract_y
_atom_site_fract_z
V1	V	-4.017258	-0.174747	-0.299976
O2	O	-3.978095	0.009521	-0.294266
O3	O	-3.994670	-0.347575	-0.297925
O4	O	-3.952928	-0.171566	-0.430807
O5	O	-4.020126	-0.167706	-0.160465
V6	V	-4.499605	-0.152765	-0.283290
O7	O	-4.281095	-0.222967	-0.336580
O8	O	-4.685966	-0.104545	-0.246686
O9	O	-4.298986	0.020063	-0.285341
O10	O	-4.656165	-0.337033	-0.289000
O11	O	-4.614134	-0.159806	-0.422802
O12	O	-4.340729	-0.155946	-0.152460
C13	C	-3.846466	-0.389722	-0.293193
C14	C	-3.909178	-0.531007	-0.292387
C15	C	-3.906158	-0.579555	-0.203903
C16	C	-3.965106	-0.712309	-0.203150
C17	C	-4.030084	-0.747957	-0.379374
C18	C	-3.971151	-0.615206	-0.380126
C19	C	-3.793218	-0.165204	-0.462695
C20	C	-3.822076	-0.163747	-0.569649
C21	C	-3.874969	-0.161074	-0.765472
C22	C	-4.061262	-0.166435	-0.817794
C23	C	-4.090695	-0.164948	-0.926756
C24	C	-3.845529	-0.162561	-0.656500
C25	C	-4.110534	0.062203	-0.290071
C26	C	-4.027059	0.203487	-0.290882
C27	C	-4.163782	-0.162312	-0.120566
C28	C	-4.114162	-0.163763	-0.013611
H29	H	-3.962644	-0.751829	-0.131097
H30	H	-3.737595	-0.155370	-0.802510
C31	C	-3.839078	-0.488352	-0.108548
C32	C	-3.849118	-0.559291	-0.030899
C33	C	-3.787381	-0.475324	0.056957
H34	H	-3.697964	-0.431661	-0.101962
H35	H	-3.931541	-0.439975	-0.108204
H36	H	-3.756657	-0.607647	-0.031241
H37	H	-3.990212	-0.615978	-0.037452
H38	H	-3.879844	-0.426947	0.057301
H39	H	-3.646270	-0.418638	0.063533
H40	H	-3.794203	-0.523445	0.109652
C41	C	-4.097707	-0.839536	-0.474562
C42	C	-4.305665	-0.922903	-0.483796
C43	C	-4.368014	-1.007292	-0.571466
H44	H	-4.091267	-0.791776	-0.527454
H45	H	-4.005385	-0.888012	-0.474869
H46	H	-4.397962	-0.874433	-0.483499
H47	H	-4.312159	-0.970693	-0.430926
H48	H	-4.275692	-1.055767	-0.571773
H49	H	-4.361562	-0.959520	-0.624351
H50	H	-4.509111	-1.063874	-0.577739
C51	C	-3.974464	-0.562734	-0.476299
C52	C	-4.041279	-0.664880	-0.552974
C53	C	-4.044336	-0.616590	-0.641576
H54	H	-4.069595	-0.515837	-0.483459
H55	H	-3.836056	-0.507597	-0.477234
H56	H	-4.179665	-0.719995	-0.552039
H57	H	-3.946169	-0.711786	-0.545845
H58	H	-3.905928	-0.561453	-0.642512
H59	H	-4.139467	-0.569694	-0.648726
H60	H	-4.089650	-0.685887	-0.693609
H61	H	-4.198655	-0.172154	-0.780755
