data_functionalizedCrystal
_audit_creation_method	'MofGen! by Chris Wilmer'
_symmetry_space_group_name_H-M	'P1'
_symmetry_Int_Tables_number	1
_symmetry_cell_setting	triclinic
loop_
_symmetry_equiv_pos_as_xyz
  x,y,z
_cell_length_a	16.625546
_cell_length_b	12.645331
_cell_length_c	16.625539
_cell_angle_alpha	90.008658
_cell_angle_beta	89.971468
_cell_angle_gamma	89.979378
loop_
_atom_site_label
_atom_site_type_symbol
_atom_site_fract_x
_atom_site_fract_y
_atom_site_fract_z
Zn1	Zn	-0.321055	-1.620639	-0.455717
Zn2	Zn	0.178945	-1.120639	0.044283
Zn3	Zn	-0.455894	-1.620523	-0.320879
Zn4	Zn	0.044106	-1.120523	0.179121
Zn5	Zn	-0.321074	-1.443371	-0.320917
Zn6	Zn	0.178926	-0.943371	0.179083
Zn7	Zn	-0.455845	-1.443321	-0.455689
Zn8	Zn	0.044155	-0.943321	0.044311
O9	O	-0.388467	-1.531963	-0.388301
O10	O	0.111533	-1.031963	0.111699
O11	O	-0.338954	-1.768971	-0.437826
O12	O	0.161046	-1.268971	0.062174
O13	O	-0.438038	-1.596995	-0.208052
O14	O	0.061962	-1.096995	0.291948
O15	O	-0.208239	-1.466955	-0.338826
O16	O	0.291761	-0.966955	0.161174
O17	O	-0.438019	-1.768886	-0.338762
O18	O	0.061981	-1.268886	0.161238
O19	O	-0.208225	-1.597194	-0.437863
O20	O	0.291775	-1.097194	0.062137
O21	O	-0.338987	-1.466842	-0.208080
O22	O	0.161013	-0.966842	0.291920
O23	O	-0.338940	-1.295017	-0.338799
O24	O	0.161060	-0.795017	0.161201
O25	O	-0.437936	-1.466870	-0.568525
O26	O	0.062064	-0.966870	-0.068525
O27	O	-0.437955	-1.294980	-0.437815
O28	O	0.062045	-0.794980	0.062185
O29	O	-0.338906	-1.597146	-0.568546
O30	O	0.161094	-1.097146	-0.068546
O31	O	-0.568719	-1.596947	-0.338734
O32	O	-0.068719	-1.096947	0.161266
O33	O	-0.568684	-1.466758	-0.437778
O34	O	-0.068684	-0.966758	0.062222
C35	C	-0.388445	-1.256534	-0.388309
C36	C	0.111555	-0.756534	0.111691
C37	C	-0.388455	-1.138704	-0.388331
C38	C	0.111545	-0.638704	0.111669
C39	C	-0.451084	-0.971152	-0.450301
C40	C	0.048916	-0.471152	0.049699
C41	C	-0.450884	-1.093712	-0.450558
C42	C	0.049116	-0.593712	0.049442
C43	C	-0.303531	-1.094232	-0.411556
C44	C	0.196469	-0.594232	0.088444
C45	C	-0.303911	-0.971634	-0.411995
C46	C	0.196089	-0.471634	0.088005
C47	C	-0.410059	-0.971466	-0.302949
C48	C	0.089941	-0.471466	0.197051
C49	C	-0.411918	-1.094072	-0.303406
C50	C	0.088082	-0.594072	0.196594
C51	C	-0.597958	-1.531863	-0.388267
C52	C	-0.097958	-1.031863	0.111733
C53	C	-0.687579	-1.531917	-0.388279
C54	C	-0.187579	-1.031917	0.111721
C55	C	-1.015754	-1.532102	-0.388363
C56	C	-0.515754	-1.032102	0.111637
C57	C	-0.924446	-1.532047	-0.388342
C58	C	-0.424446	-1.032047	0.111658
C59	C	-0.851670	-1.532009	-0.388321
C60	C	-0.351670	-1.032009	0.111679
C61	C	-0.760355	-1.531956	-0.388301
C62	C	-0.260355	-1.031956	0.111699
C63	C	-0.178158	-1.532093	-0.388352
C64	C	0.321842	-1.032093	0.111648
C65	C	-0.088537	-1.532148	-0.388374
C66	C	0.411463	-1.032148	0.111626
C67	C	-0.388414	-1.532015	-0.598610
C68	C	0.111586	-1.032015	-0.098610
C69	C	-0.388391	-1.532038	-0.688231
C70	C	0.111609	-1.032038	-0.188231
C71	C	-0.388486	-0.808469	-0.388298
C72	C	0.111514	-0.308469	0.111702
C73	C	-0.388485	-0.926299	-0.388312
C74	C	0.111515	-0.426299	0.111688
C75	C	-0.388373	-1.532055	-0.761013
C76	C	0.111627	-1.032055	-0.261013
C77	C	-0.388343	-1.532080	-0.852322
C78	C	0.111657	-1.032080	-0.352322
C79	C	-0.388315	-1.532105	-0.925098
C80	C	0.111685	-1.032105	-0.425098
C81	C	-0.388286	-1.532131	-1.016413
C82	C	0.111714	-1.032131	-0.516413
C83	C	-0.388462	-1.531973	-0.178810
C84	C	0.111538	-1.031973	0.321190
C85	C	-0.388257	-1.532156	-0.089189
C86	C	0.111743	-1.032156	0.410811
H87	H	-0.255623	-1.123375	-0.367815
H88	H	0.244377	-0.623375	0.132185
F89	F	-0.533672	-0.932592	-0.431492
F90	F	-0.033672	-0.432592	0.068508
H91	H	-0.513860	-1.123779	-0.436001
H92	H	-0.013860	-0.623779	0.063999
F93	F	-0.356645	-1.134097	-0.239794
F94	F	0.143355	-0.634097	0.260206
F95	F	-0.432223	-1.132070	-0.533229
F96	F	0.067777	-0.632070	-0.033229
F97	F	-0.432678	-0.930880	-0.532492
F98	F	0.067322	-0.430880	-0.032492
F99	F	-0.279175	-1.134381	-0.492238
F100	F	0.220825	-0.634381	0.007762
F101	F	-0.279994	-0.934274	-0.493562
F102	F	0.220006	-0.434274	0.006438
H103	H	-0.470929	-0.940540	-0.281843
H104	H	0.029071	-0.440540	0.218157
F105	F	-0.493606	-1.132062	-0.280516
F106	F	0.006394	-0.632062	0.219484
F107	F	-0.350463	-0.933551	-0.242577
F108	F	0.149537	-0.433551	0.257423
H109	H	-0.255599	-0.941964	-0.368916
H110	H	0.244401	-0.441964	0.131084
