data_functionalizedCrystal
_audit_creation_method	'MofGen! by Chris Wilmer'
_symmetry_space_group_name_H-M	'P1'
_symmetry_Int_Tables_number	1
_symmetry_cell_setting	triclinic
loop_
_symmetry_equiv_pos_as_xyz
  x,y,z
_cell_length_a	13.635800
_cell_length_b	17.296766
_cell_length_c	17.982968
_cell_angle_alpha	80.438148
_cell_angle_beta	77.548040
_cell_angle_gamma	102.621013
loop_
_atom_site_label
_atom_site_type_symbol
_atom_site_fract_x
_atom_site_fract_y
_atom_site_fract_z
V1	V	-2.007901	-0.111877	0.245266
O2	O	-2.001396	0.004602	0.232709
O3	O	-1.984050	-0.221088	0.251175
O4	O	-1.981151	-0.110496	0.348774
O5	O	-2.004315	-0.106756	0.134435
V6	V	-2.250001	-0.097905	0.231088
O7	O	-2.137790	-0.142526	0.276366
O8	O	-2.345211	-0.067255	0.199988
O9	O	-2.162249	0.011307	0.225179
O10	O	-2.315205	-0.214383	0.243645
O11	O	-2.312286	-0.103025	0.341919
O12	O	-2.165148	-0.099286	0.127580
C13	C	-1.906717	-0.247701	0.249263
C14	C	-1.927842	-0.336985	0.254785
V15	V	-1.507901	-0.111877	0.245266
O16	O	-1.501396	0.004602	0.232709
O17	O	-1.484050	-0.221088	0.251175
O18	O	-1.481151	-0.110496	0.348774
O19	O	-1.504315	-0.106756	0.134435
V20	V	-1.750001	-0.097905	0.231088
O21	O	-1.637790	-0.142526	0.276366
O22	O	-1.845211	-0.067255	0.199988
O23	O	-1.662249	0.011307	0.225179
O24	O	-1.815205	-0.214383	0.243645
O25	O	-1.812286	-0.103025	0.341919
O26	O	-1.665148	-0.099286	0.127580
C27	C	-1.919320	-0.367240	0.186801
C28	C	-1.939179	-0.451133	0.191992
C29	C	-1.967553	-0.504769	0.265166
C30	C	-1.976078	-0.474509	0.333154
C31	C	-1.956226	-0.390618	0.327963
C32	C	-2.028421	-0.758651	0.284370
C33	C	-2.048269	-0.842546	0.289556
C34	C	-2.011371	-0.819164	0.148393
C35	C	-1.991514	-0.735272	0.143208
C36	C	-2.000047	-0.705020	0.211197
C37	C	-1.987849	-0.590521	0.270473
C38	C	-1.979758	-0.619270	0.205889
C39	C	-1.903019	-0.106628	0.373759
C40	C	-1.921791	-0.106221	0.458427
C41	C	-2.071253	0.037916	0.227089
C42	C	-2.039747	0.127199	0.221573
C43	C	-2.074951	-0.103156	0.102591
C44	C	-2.045798	-0.103558	0.017922
C45	C	-1.406717	-0.247701	0.249263
C46	C	-1.427842	-0.336985	0.254785
C47	C	-1.403019	-0.106628	0.373759
C48	C	-1.421791	-0.106221	0.458427
C49	C	-2.021584	-0.110055	0.502363
C50	C	-2.039216	-0.109673	0.581918
C51	C	-1.957057	-0.105462	0.617536
C52	C	-1.857256	-0.101626	0.573593
C53	C	-1.839623	-0.102002	0.494039
C54	C	-1.928364	-0.100105	0.894425
C55	C	-1.946006	-0.099730	0.973985
C56	C	-2.127958	-0.107775	0.982304
C57	C	-2.110325	-0.108152	0.902750
C58	C	-2.010525	-0.104311	0.858813
C59	C	-1.991406	-0.104724	0.772551
C60	C	-1.976176	-0.105054	0.703797
C61	C	-1.571253	0.037916	0.227089
C62	C	-1.539747	0.127199	0.221573
C63	C	-1.574951	-0.103156	0.102591
C64	C	-1.545798	-0.103558	0.017922
C65	C	-1.528748	-0.383021	0.261467
C66	C	-1.548615	-0.466916	0.266667
C67	C	-1.467572	-0.504772	0.265178
C68	C	-1.366658	-0.458730	0.258497
C69	C	-1.346794	-0.374838	0.253303
C70	C	-1.521588	-0.110047	0.502349
C71	C	-1.539238	-0.109655	0.581902
C72	C	-1.457091	-0.105442	0.617533
C73	C	-1.357285	-0.101613	0.573605
C74	C	-1.339635	-0.102000	0.494052
C75	C	-1.611334	0.173235	0.214892
C76	C	-1.581740	0.257128	0.209696
C77	C	-1.480560	0.294984	0.211187
C78	C	-1.408967	0.248942	0.217866
C79	C	-1.438560	0.165051	0.223056
C80	C	-1.445714	-0.107762	-0.017690
C81	C	-1.418304	-0.108131	-0.097247
C82	C	-1.490982	-0.104302	-0.141190
C83	C	-1.591073	-0.100095	-0.105573
C84	C	-1.618479	-0.099721	-0.026018
H85	H	-1.932240	-0.475761	0.136633
N86	N	-1.268695	-0.097081	0.612046
H87	H	-1.202788	-0.094716	0.572155
H88	H	-1.258408	-0.046703	0.634020
H89	H	-2.035356	-0.734029	0.339731
H90	H	-1.630789	-0.504392	0.272104
H91	H	-2.120474	-0.112790	0.617686
H92	H	-1.640048	0.294604	0.204259
H93	H	-1.468657	-0.104617	-0.205965
H94	H	-1.264624	-0.337360	0.247858
N95	N	-1.646886	-0.113781	0.629270
H96	H	-1.696243	-0.116515	0.594624
H97	H	-1.671824	-0.163838	0.673316
N98	N	-1.299841	0.289777	0.219477
H99	H	-1.291971	0.349905	0.215179
H100	H	-1.286459	0.265377	0.270169
H101	H	-1.483760	-0.573082	0.269408
H102	H	-1.456477	0.363294	0.206959
H103	H	-1.300678	-0.489565	0.257286
N104	N	-1.669446	-0.095964	-0.152981
H105	H	-1.682174	-0.145987	-0.175322
H106	H	-1.736966	-0.093215	-0.118316
N107	N	-2.235597	-0.111898	1.029691
H108	H	-2.284967	-0.114624	0.995055
H109	H	-2.260528	-0.161959	1.073732
H110	H	-1.380261	0.127574	0.228502
H111	H	-1.386523	-0.110880	0.018078
H112	H	-1.258369	-0.098887	0.458297
N113	N	-1.310350	-0.112677	-0.135642
H114	H	-1.315390	-0.163054	-0.157617
H115	H	-1.274910	-0.062933	-0.179275
N116	N	-1.720468	0.132415	0.213285
H117	H	-1.761315	0.174319	0.208261
H118	H	-1.717349	0.105737	0.167261
H119	H	-1.699980	-0.096303	0.002971
N120	N	-2.006703	-0.532367	0.412074
H121	H	-1.953898	-0.564910	0.414601
H122	H	-2.009114	-0.500422	0.454314
H123	H	-1.588490	-0.113480	0.473349
N124	N	-1.768632	-0.097082	0.612000
H125	H	-1.758245	-0.046705	0.633974
H126	H	-1.785595	-0.146827	0.655635
H127	H	-1.594749	-0.352210	0.262676
H128	H	-1.847112	-0.097006	0.858667
N129	N	-1.476128	-0.104999	0.703331
H130	H	-1.551817	-0.108056	0.725741
H131	H	-1.458259	-0.153364	0.731676
H132	H	-1.968417	-0.691606	0.083622
N133	N	-1.888701	-0.309401	0.107872
H134	H	-1.945957	-0.321678	0.080693
H135	H	-1.877392	-0.251685	0.114952
N136	N	-2.002244	-0.851796	0.075069
H137	H	-2.019149	-0.913080	0.089459
H138	H	-2.052619	-0.834800	0.046160
N139	N	-2.110194	-0.114588	0.463944
H140	H	-2.120586	-0.164967	0.441971
H141	H	-2.176034	-0.116922	0.503887
N142	N	-2.078869	-0.900400	0.368482
H143	H	-2.081263	-0.868507	0.410766
H144	H	-2.149776	-0.938508	0.376484
H145	H	-1.956660	-0.575596	0.146312
N146	N	-1.965422	-0.357982	0.401287
H147	H	-1.986408	-0.404689	0.448431
H148	H	-1.896121	-0.320894	0.399432
N149	N	-2.018469	-0.648385	0.349389
H150	H	-1.965667	-0.680932	0.351910
H151	H	-2.020878	-0.616448	0.391636
H152	H	-1.879096	-0.096300	1.002982
N153	N	-2.198940	-0.112696	0.864334
H154	H	-2.264835	-0.115064	0.904239
H155	H	-2.181935	-0.062982	0.820658
H156	H	-1.758357	-0.098861	0.458262
