data_functionalizedCrystal
_audit_creation_method	'MofGen! by Chris Wilmer'
_symmetry_space_group_name_H-M	'P1'
_symmetry_Int_Tables_number	1
_symmetry_cell_setting	triclinic
loop_
_symmetry_equiv_pos_as_xyz
  x,y,z
_cell_length_a	16.704493
_cell_length_b	12.970454
_cell_length_c	12.970454
_cell_angle_alpha	60.000396
_cell_angle_beta	85.836493
_cell_angle_gamma	57.657088
loop_
_atom_site_label
_atom_site_type_symbol
_atom_site_fract_x
_atom_site_fract_y
_atom_site_fract_z
Zr1	Zr	0.773249	1.128498	-0.207581
O2	O	0.645086	1.343588	-0.360221
O3	O	0.812537	0.913408	-0.160790
O4	O	0.812539	1.128496	-0.375878
O5	O	0.645084	1.128501	0.024534
O6	O	0.944629	1.128494	-0.388227
O7	O	0.645085	1.128500	-0.145133
O8	O	0.944626	0.743741	-0.003474
O9	O	0.645087	1.513254	-0.360220
O10	O	0.927871	1.001876	-0.150049
O11	O	0.829293	1.001878	-0.014213
O12	O	0.829295	1.255116	-0.267451
O13	O	0.730717	1.255119	-0.131615
Zr14	Zr	0.983916	1.128496	0.043322
Zr15	Zr	0.983917	1.128494	-0.227277
Zr16	Zr	0.773247	1.128499	0.063017
Zr17	Zr	0.773250	1.399095	-0.207579
Zr18	Zr	0.983915	0.857898	0.043320
O19	O	0.944627	1.343585	-0.003469
O20	O	0.944629	1.343583	-0.388226
O21	O	0.645084	1.343590	0.024535
O22	O	1.112078	0.913405	0.195962
O23	O	1.112080	0.913403	-0.188795
O24	O	0.812535	0.913410	0.223966
O25	O	1.112081	1.128492	-0.188793
O26	O	0.944626	1.128497	0.211619
O27	O	0.812536	1.128499	0.223968
O28	O	1.112080	1.128493	-0.019126
O29	O	0.812540	1.513251	-0.375875
O30	O	0.944625	0.743742	0.211616
O31	O	1.112078	0.743740	0.195960
O32	O	1.112079	0.743738	-0.019129
O33	O	0.645086	1.513255	-0.145130
O34	O	0.812539	1.513252	-0.160785
O35	O	0.927870	1.001877	0.103192
O36	O	1.026447	1.001875	-0.032645
O37	O	0.927872	1.255115	-0.150047
O38	O	0.829294	1.255118	-0.014210
C39	C	0.878581	0.790020	-0.082132
C40	C	0.878581	0.675145	-0.082133
C41	C	0.615069	1.128501	-0.057494
C42	C	0.525634	1.128503	-0.049132
C43	C	0.357588	1.128478	-0.220373
C44	C	0.273557	1.128480	-0.212521
C45	C	0.273543	1.128496	-0.025575
C46	C	0.357574	1.128495	-0.033426
C47	C	0.399593	1.128488	-0.130829
C48	C	0.483622	1.128497	-0.138684
C49	C	0.483610	1.128504	0.048266
C50	C	0.399579	1.128505	0.056117
C51	C	1.142096	1.128492	-0.106766
C52	C	1.231530	1.128491	-0.115127
C53	C	0.878584	1.128495	-0.420607
C54	C	0.878585	1.128494	-0.535484
C55	C	0.878583	1.466973	-0.082127
C56	C	0.878584	1.581849	-0.082126
C57	C	0.878580	1.128499	0.256348
C58	C	0.878580	1.128499	0.371224
C59	C	1.142095	0.790016	-0.106768
C60	C	1.231529	0.675139	-0.115131
C61	C	0.878580	0.790022	0.256345
C62	C	0.878579	0.675147	0.371221
C63	C	1.142093	0.790018	0.231709
C64	C	1.231527	0.675141	0.338223
C65	C	0.615071	1.466976	-0.395968
C66	C	0.525638	1.581852	-0.502482
C67	C	0.615069	1.466977	-0.057491
C68	C	0.525636	1.581855	-0.049129
C69	C	0.878585	1.466971	-0.420605
C70	C	0.878586	1.581846	-0.535480
C71	C	1.222072	0.621192	-0.180353
C72	C	1.306097	0.513267	-0.188235
C73	C	1.399577	0.459284	-0.130886
C74	C	1.409032	0.513242	-0.065662
C75	C	1.325008	0.621172	-0.057788
C76	C	1.324991	0.621193	0.317337
C77	C	1.409031	0.513269	0.417407
C78	C	1.399605	0.459288	0.538362
C79	C	1.306130	0.513247	0.559247
C80	C	1.222092	0.621177	0.459178
C81	C	0.432174	1.635814	-0.481597
C82	C	0.348134	1.743771	-0.581667
C83	C	0.357560	1.797758	-0.702622
C84	C	0.451034	1.743792	-0.723506
C85	C	0.535072	1.635844	-0.623437
C86	C	0.535092	1.635813	0.016082
C87	C	0.451068	1.743767	0.023934
C88	C	0.357587	1.797754	-0.033418
C89	C	0.348133	1.743791	-0.098637
C90	C	0.432156	1.635846	-0.106496
H91	H	0.517831	1.128497	-0.217997
C92	C	0.637912	1.576448	0.079169
H93	H	0.686609	1.504421	0.065166
H94	H	0.645282	1.653937	0.045833
H95	H	0.645282	1.534341	0.165441
H96	H	0.289123	1.885655	-0.784093
H97	H	0.272031	1.787692	-0.564638
H98	H	0.289178	1.885650	-0.027010
H99	H	0.458786	1.787686	0.077047
C100	C	0.403811	1.128470	-0.327507
H101	H	0.366761	1.128457	-0.379710
H102	H	0.403679	1.213032	-0.373662
H103	H	0.469513	1.043888	-0.295238
H104	H	1.485155	0.469274	-0.018972
H105	H	1.485134	0.469346	0.400381
C106	C	1.492052	0.340557	0.648427
H107	H	1.549063	0.316155	0.618654
H108	H	1.492071	0.375919	0.697266
H109	H	1.492064	0.256328	0.697250
C110	C	0.637878	1.576480	-0.646426
H111	H	0.631446	1.624088	-0.732796
H112	H	0.672818	1.594150	-0.610339
H113	H	0.672786	1.474573	-0.610348
C114	C	0.421742	1.576485	-0.178213
H115	H	0.354032	1.624093	-0.211228
H116	H	0.452379	1.594158	-0.243630
H117	H	0.452372	1.474579	-0.124013
H118	H	0.365360	1.128505	0.135423
H119	H	1.145993	0.665087	0.476201
C120	C	0.245304	1.803171	-0.161710
H121	H	0.251695	1.755588	-0.201683
H122	H	0.210394	1.785482	-0.101382
H123	H	0.210387	1.905082	-0.220994
C124	C	1.335379	0.680557	0.184299
H125	H	1.403085	0.632969	0.186210
H126	H	1.304745	0.662863	0.142304
H127	H	1.304735	0.782468	0.142315
C128	C	0.227350	1.128477	-0.311023
H129	H	0.264409	1.128484	-0.370158
H130	H	0.227485	1.043914	-0.272641
H131	H	0.161649	1.213058	-0.351059
C132	C	0.421791	1.576449	-0.348556
H133	H	0.485221	1.504420	-0.291937
H134	H	0.386882	1.653938	-0.335825
H135	H	0.386869	1.534345	-0.335827
H136	H	1.332722	0.665082	-0.004670
H137	H	0.239326	1.128488	0.053734
H138	H	1.298470	0.469280	0.657741
C139	C	0.529814	1.128514	0.146771
H140	H	0.492746	1.128530	0.205896
H141	H	0.595514	1.043953	0.186803
H142	H	0.529665	1.213097	0.108376
C143	C	1.119255	0.680561	-0.243451
H144	H	1.125671	0.632975	-0.283432
H145	H	1.084328	0.662871	-0.183145
H146	H	1.084341	0.782472	-0.302734
H147	H	1.298379	0.469348	-0.241346
C148	C	1.491994	0.340552	-0.139543
H149	H	1.472965	0.316150	-0.186592
H150	H	1.530019	0.375911	-0.178484
H151	H	1.530005	0.256323	-0.058884
H152	H	0.458698	1.787761	-0.821999
