data_functionalizedCrystal
_audit_creation_method	'MofGen! by Chris Wilmer'
_symmetry_space_group_name_H-M	'P1'
_symmetry_Int_Tables_number	1
_symmetry_cell_setting	triclinic
loop_
_symmetry_equiv_pos_as_xyz
  x,y,z
_cell_length_a	15.944493
_cell_length_b	15.944551
_cell_length_c	16.176319
_cell_angle_alpha	89.992246
_cell_angle_beta	89.993150
_cell_angle_gamma	83.486891
loop_
_atom_site_label
_atom_site_type_symbol
_atom_site_fract_x
_atom_site_fract_y
_atom_site_fract_z
O1	O	1.114558	0.108102	-0.068737
O2	O	1.614558	0.608102	0.431263
O3	O	0.870002	0.121509	-0.068742
O4	O	1.370002	0.621509	0.431258
O5	O	0.998958	-0.007470	-0.068732
O6	O	1.498958	0.492530	0.431268
O7	O	0.985601	0.237082	-0.068747
O8	O	1.485601	0.737082	0.431253
O9	O	0.998940	-0.007479	0.068761
O10	O	1.498940	0.492521	0.568761
O11	O	0.869984	0.121501	0.068752
O12	O	1.369984	0.621501	0.568752
O13	O	1.114540	0.108094	0.068756
O14	O	1.614540	0.608094	0.568756
Cu15	Cu	0.992260	0.114797	0.081308
Cu16	Cu	1.492260	0.614797	0.581308
Cu17	Cu	0.992281	0.114807	-0.081294
Cu18	Cu	1.492281	0.614807	0.418706
O19	O	0.985584	0.237074	0.068746
O20	O	1.485584	0.737074	0.568746
C21	C	0.838698	0.120957	0.000004
C22	C	1.338698	0.620957	0.500004
C23	C	0.745449	0.119314	0.000003
C24	C	1.245449	0.619314	0.500003
C25	C	0.509689	0.195235	-0.000002
C26	C	1.009689	0.695235	0.499998
C27	C	0.459122	0.154290	0.067795
C28	C	0.959122	0.654290	0.567795
C29	C	0.574728	0.116270	0.000005
C30	C	1.074728	0.616270	0.500005
C31	C	0.459144	0.154279	-0.067762
C32	C	0.959144	0.654279	0.432238
C33	C	0.409819	0.113336	0.000003
C34	C	0.909819	0.613336	0.500003
C35	C	0.525389	0.075347	0.067858
C36	C	1.025389	0.575347	0.567858
C37	C	0.525415	0.075348	-0.067760
C38	C	1.025415	0.575348	0.432240
C39	C	0.474880	0.034345	0.000054
C40	C	0.974880	0.534345	0.500054
C41	C	0.669728	0.117963	0.000007
C42	C	1.169728	0.617963	0.500007
C43	C	0.314821	0.111637	0.000007
C44	C	0.814821	0.611637	0.500007
C45	C	0.998395	-0.038768	0.000015
C46	C	1.498395	0.461232	0.500015
C47	C	0.996732	-0.132014	0.000015
C48	C	1.496732	0.367986	0.500015
C49	C	0.912826	-0.346853	0.000002
C50	C	1.412826	0.153147	0.500002
C51	C	0.951780	-0.407883	0.067796
C52	C	1.451780	0.092117	0.567796
C53	C	0.993725	-0.302739	0.000009
C54	C	1.493725	0.197261	0.500009
C55	C	0.951817	-0.407858	-0.067762
C56	C	1.451817	0.092142	0.432238
C57	C	0.990814	-0.467651	-0.000001
C58	C	1.490814	0.032349	0.499999
C59	C	1.032702	-0.362541	0.067858
C60	C	1.532702	0.137459	0.567858
C61	C	1.032727	-0.362510	-0.067760
C62	C	1.532727	0.137490	0.432240
C63	C	1.071741	-0.423521	0.000049
C64	C	1.571741	0.076479	0.500049
C65	C	0.995399	-0.207737	0.000015
C66	C	1.495399	0.292263	0.500015
C67	C	0.989146	-0.562652	-0.000001
C68	C	1.489146	-0.062652	0.499999
C69	C	1.145844	0.108646	0.000008
C70	C	1.645844	0.608646	0.500008
C71	C	1.239092	0.110289	0.000004
C72	C	1.739092	0.610289	0.500004
C73	C	0.986147	0.268372	-0.000002
C74	C	1.486147	0.768372	0.499998
C75	C	0.987809	0.361617	-0.000008
C76	C	1.487809	0.861617	0.499992
N77	N	0.992252	0.114789	0.195673
N78	N	1.492252	0.614789	0.695673
N79	N	0.992297	0.114807	-0.195659
N80	N	1.492297	0.614807	0.304341
C81	C	1.049371	0.057701	0.238942
C82	C	1.549371	0.557701	0.738942
C83	C	1.049375	0.057700	0.325489
C84	C	1.549375	0.557700	0.825489
C85	C	0.992264	0.114792	0.368766
C86	C	1.492264	0.614792	0.868766
C87	C	0.935138	0.171884	0.325491
C88	C	1.435138	0.671884	0.825491
C89	C	0.935131	0.171880	0.238946
C90	C	1.435131	0.671880	0.738946
C91	C	0.935167	0.171900	0.674519
C92	C	1.435167	0.671900	1.174519
C93	C	0.935181	0.171901	0.761071
C94	C	1.435181	0.671901	1.261071
C95	C	1.049411	0.057719	0.761062
C96	C	1.549411	0.557719	1.261062
C97	C	1.049404	0.057715	0.674517
C98	C	1.549404	0.557715	1.174517
C99	C	0.992276	0.114804	0.631250
C100	C	1.492276	0.614804	1.131250
C101	C	0.992271	0.114803	0.537406
C102	C	1.492271	0.614803	1.037406
C103	C	0.992272	0.114798	0.462608
C104	C	1.492272	0.614798	0.962608
H105	H	0.459415	-0.033726	0.000097
H106	H	0.959415	0.466274	0.500097
H107	H	0.525313	0.263254	0.000057
H108	H	1.025313	0.763254	0.500057
Cl109	Cl	0.569880	0.023888	0.156442
Cl110	Cl	1.069880	0.523888	0.656442
Cl111	Cl	0.898978	-0.438861	-0.156243
Cl112	Cl	1.398978	0.061139	0.343757
Cl113	Cl	1.121182	-0.014071	0.379885
Cl114	Cl	1.621182	0.485929	0.879885
Cl115	Cl	1.121206	-0.014058	0.620115
Cl116	Cl	1.621206	0.485942	1.120115
H117	H	1.066883	-0.342561	0.125235
H118	H	1.566883	0.157439	0.625235
Cl119	Cl	1.121177	-0.014074	0.184545
Cl120	Cl	1.621177	0.485926	0.684545
H121	H	1.138950	-0.456694	0.000089
H122	H	1.638950	0.043306	0.500089
Cl123	Cl	0.863317	0.243650	0.184552
Cl124	Cl	1.363317	0.743650	0.684552
Cl125	Cl	0.570133	0.023914	-0.156251
Cl126	Cl	1.070133	0.523914	0.343749
Cl127	Cl	0.414478	0.205793	-0.156244
Cl128	Cl	0.914478	0.705793	0.343756
Cl129	Cl	0.414431	0.205769	0.156281
Cl130	Cl	0.914431	0.705769	0.656281
Cl131	Cl	1.121228	-0.014054	0.815460
Cl132	Cl	1.621228	0.485946	1.315460
H133	H	0.888671	0.218394	0.796306
H134	H	1.388671	0.718394	1.296306
H135	H	0.845675	-0.313532	0.000069
H136	H	1.345675	0.186468	0.500069
Cl137	Cl	0.863355	0.243669	0.620132
Cl138	Cl	1.363355	0.743669	1.120132
H139	H	0.917556	-0.427987	0.125108
H140	H	1.417556	0.072013	0.625108
Cl141	Cl	1.085523	-0.331432	-0.156252
Cl142	Cl	1.585523	0.168568	0.343748
H143	H	0.888633	0.218367	0.360732
H144	H	1.388633	0.718367	0.860732
