data_functionalizedCrystal
_audit_creation_method	'MofGen! by Chris Wilmer'
_symmetry_space_group_name_H-M	'P1'
_symmetry_Int_Tables_number	1
_symmetry_cell_setting	triclinic
loop_
_symmetry_equiv_pos_as_xyz
  x,y,z
_cell_length_a	15.995300
_cell_length_b	15.995350
_cell_length_c	14.586319
_cell_angle_alpha	89.998676
_cell_angle_beta	89.994729
_cell_angle_gamma	83.482091
loop_
_atom_site_label
_atom_site_type_symbol
_atom_site_fract_x
_atom_site_fract_y
_atom_site_fract_z
O1	O	1.111011	0.107725	-0.076269
O2	O	0.867230	0.121096	-0.076263
O3	O	0.995784	-0.007479	-0.076266
O4	O	0.982457	0.236299	-0.076267
O5	O	0.995775	-0.007480	0.076215
O6	O	0.867221	0.121095	0.076218
O7	O	1.111002	0.107723	0.076211
Cu8	Cu	0.989110	0.114409	0.090137
Cu9	Cu	0.989121	0.114410	-0.090189
O10	O	0.982447	0.236298	0.076214
C11	C	0.836030	0.120550	-0.000022
C12	C	0.743077	0.118915	-0.000020
C13	C	0.995229	-0.038674	-0.000027
C14	C	0.993577	-0.131624	-0.000032
C15	C	0.572894	0.115896	-0.000027
C16	C	0.525428	0.207443	-0.000025
C17	C	0.428740	0.205773	-0.000374
C18	C	0.405337	0.112924	-0.000033
C19	C	0.446476	0.067504	-0.086935
C20	C	0.543109	0.069821	-0.087005
C21	C	0.543377	0.068464	0.086400
C22	C	0.446433	0.068472	0.087540
C23	C	0.310642	0.111239	-0.000039
C24	C	0.667590	0.117577	-0.000027
C25	C	0.987644	-0.469370	-0.000029
C26	C	0.896090	-0.421920	-0.000369
C27	C	0.897743	-0.325230	-0.000025
C28	C	0.990587	-0.301810	-0.000031
C29	C	1.035739	-0.342897	0.087040
C30	C	1.033439	-0.439532	0.087113
C31	C	1.035341	-0.439889	-0.086286
C32	C	1.035320	-0.342944	-0.087437
C33	C	0.992255	-0.207113	-0.000029
C34	C	0.985979	-0.564068	-0.000025
C35	C	1.142202	0.108269	-0.000032
C36	C	1.235154	0.109904	-0.000040
C37	C	0.983003	0.267493	-0.000027
C38	C	0.984655	0.360443	-0.000028
N39	N	0.989108	0.114407	0.216969
C40	C	1.046050	0.057495	0.451974
C41	C	1.046052	0.057493	0.547956
C42	C	0.932178	0.171325	0.547967
C43	C	0.932173	0.171322	0.451988
C44	C	0.989114	0.114408	0.403994
C45	C	0.989121	0.114409	0.595954
C46	C	0.989123	0.114408	0.700022
C47	C	0.989111	0.114408	0.299920
N48	N	0.989126	0.114409	0.782979
H49	H	0.400273	0.241462	0.061907
H50	H	0.561432	0.102556	-0.152212
H51	H	1.005412	-0.460423	-0.152281
N52	N	0.994184	-0.305310	0.172878
H53	H	1.023681	-0.332156	0.228533
H54	H	0.997905	-0.242706	0.173786
N55	N	0.549917	0.256187	0.082501
H56	H	0.592020	0.219403	0.120689
H57	H	0.575848	0.307602	0.061452
N58	N	0.585864	-0.019221	-0.091924
H59	H	0.648910	-0.018411	-0.092009
H60	H	0.568983	-0.051997	-0.037071
N61	N	1.107474	-0.003880	0.599707
H62	H	1.143546	-0.039929	0.554736
H63	H	1.144483	0.028205	0.639515
N64	N	0.585482	-0.020939	0.087529
H65	H	0.541222	-0.061196	0.085643
H66	H	0.623497	-0.030633	0.032354
N67	N	0.847822	-0.447858	0.081880
H68	H	0.885002	-0.490212	0.119360
H69	H	0.829562	-0.396745	0.120693
H70	H	0.432376	-0.000719	-0.089922
N71	N	1.126089	-0.324196	0.091312
H72	H	1.135448	-0.292510	0.149628
H73	H	1.164661	-0.378749	0.090408
N74	N	0.408915	0.108770	-0.172929
H75	H	0.365262	0.156875	-0.155794
H76	H	0.454794	0.130887	-0.210321
H77	H	0.563873	0.098604	0.152288
N78	N	0.850412	-0.288300	0.082798
H79	H	0.790239	-0.301640	0.080123
H80	H	0.878065	-0.313271	0.140357
N81	N	1.124758	-0.481965	-0.087075
H82	H	1.124463	-0.545036	-0.089455
H83	H	1.155035	-0.462714	-0.142640
H84	H	1.092414	0.011150	0.412900
N85	N	0.870767	0.232709	0.599732
H86	H	0.879410	0.224077	0.667816
H87	H	0.880435	0.292112	0.582948
N88	N	0.551400	0.255459	-0.082446
H89	H	0.593779	0.218167	-0.119785
H90	H	0.500305	0.273589	-0.121331
H91	H	1.002308	-0.315688	-0.151850
H92	H	1.100657	-0.471792	0.091060
H93	H	1.103026	-0.327594	-0.092699
N94	N	0.410248	0.112425	0.172705
H95	H	0.367409	0.160926	0.154648
H96	H	0.382242	0.071332	0.211518
N97	N	0.391848	0.252833	-0.083375
H98	H	0.405176	0.313019	-0.080922
H99	H	0.416856	0.225000	-0.140828
N100	N	0.847617	-0.446461	-0.083072
H101	H	0.796136	-0.472428	-0.062289
H102	H	0.829765	-0.394791	-0.121182
N103	N	0.989818	-0.463776	0.173331
H104	H	0.972259	-0.411712	0.210931
H105	H	0.938426	-0.491719	0.156387
N106	N	0.426061	-0.021178	0.094837
H107	H	0.448196	-0.053857	0.038991
H108	H	0.453255	-0.048042	0.151725
N109	N	0.850728	-0.287570	-0.082700
H110	H	0.878459	-0.312112	-0.140420
H111	H	0.790521	-0.300837	-0.080351
N112	N	0.870753	0.232703	0.400229
H113	H	0.834685	0.268761	0.445195
H114	H	0.902801	0.269730	0.360394
