data_functionalizedCrystal
_audit_creation_method	'MofGen! by Chris Wilmer'
_symmetry_space_group_name_H-M	'P1'
_symmetry_Int_Tables_number	1
_symmetry_cell_setting	triclinic
loop_
_symmetry_equiv_pos_as_xyz
  x,y,z
_cell_length_a	14.044220
_cell_length_b	15.995350
_cell_length_c	12.503572
_cell_angle_alpha	93.525550
_cell_angle_beta	86.164750
_cell_angle_gamma	88.340626
loop_
_atom_site_label
_atom_site_type_symbol
_atom_site_fract_x
_atom_site_fract_y
_atom_site_fract_z
O1	O	1.263165	0.197434	-0.089196
O2	O	1.763165	0.697434	0.410804
O3	O	0.987198	0.190148	-0.089224
O4	O	1.487198	0.690148	0.410776
O5	O	1.132725	0.072467	-0.089208
O6	O	1.632725	0.572467	0.410792
O7	O	1.117638	0.315115	-0.089212
O8	O	1.617638	0.815115	0.410788
O9	O	1.121781	0.081333	0.089432
O10	O	1.621781	0.581333	0.589432
O11	O	0.976253	0.199014	0.089417
O12	O	1.476253	0.699014	0.589417
O13	O	1.252221	0.206300	0.089445
O14	O	1.752221	0.706300	0.589445
Cu15	Cu	1.113237	0.203467	0.105742
Cu16	Cu	1.613237	0.703467	0.605742
Cu17	Cu	1.126181	0.192981	-0.105521
Cu18	Cu	1.626181	0.692981	0.394479
O19	O	1.106693	0.323981	0.089429
O20	O	1.606693	0.823981	0.589429
C21	C	0.946411	0.191392	0.000093
C22	C	1.446411	0.691392	0.500093
C23	C	0.841186	0.181881	0.000082
C24	C	1.341186	0.681881	0.500082
C25	C	0.648523	0.164494	0.000104
C26	C	1.148523	0.664494	0.500104
C27	C	0.590890	0.231950	0.000107
C28	C	1.090890	0.731950	0.500107
C29	C	0.483686	0.222276	0.000119
C30	C	0.983686	0.722276	0.500119
C31	C	0.755737	0.174167	0.000092
C32	C	1.255737	0.674167	0.500092
C33	C	1.126629	0.045658	0.000110
C34	C	1.626629	0.545658	0.500110
C35	C	1.124760	-0.047432	0.000104
C36	C	1.624760	0.452568	0.500104
C37	C	1.118044	-0.385681	0.000107
C38	C	1.618044	0.114319	0.500107
C39	C	1.014426	-0.346008	-0.000304
C40	C	1.514426	0.153992	0.499696
C41	C	1.016272	-0.249158	0.000099
C42	C	1.516272	0.250842	0.500099
C43	C	1.121375	-0.217872	0.000105
C44	C	1.621375	0.282128	0.500105
C45	C	1.166245	-0.250068	0.102120
C46	C	1.666245	0.249932	0.602120
C47	C	1.163636	-0.346894	0.102206
C48	C	1.663636	0.153106	0.602206
C49	C	1.178223	-0.357175	-0.100942
C50	C	1.678223	0.142825	0.399058
C51	C	1.178281	-0.260298	-0.102290
C52	C	1.678281	0.239702	0.397710
C53	C	1.123263	-0.123033	0.000107
C54	C	1.623263	0.376967	0.500107
C55	C	1.116158	-0.480519	0.000111
C56	C	1.616158	0.019481	0.500111
C57	C	1.293007	0.205055	0.000125
C58	C	1.793007	0.705055	0.500125
C59	C	1.398233	0.214567	0.000129
C60	C	1.898233	0.714567	0.500129
C61	C	1.112789	0.350789	0.000108
C62	C	1.612789	0.850789	0.500108
C63	C	1.114659	0.443879	0.000108
C64	C	1.614659	0.943879	0.500108
N65	N	1.104141	0.210842	0.254333
N66	N	1.604141	0.710842	0.754333
N67	N	1.135285	0.185600	-0.254113
N68	N	1.635285	0.685600	0.245887
C69	C	1.090759	0.221698	0.473447
C70	C	1.590759	0.721698	0.973447
C71	C	1.148663	0.174747	0.526780
C72	C	1.648663	0.674747	1.026780
C73	C	1.141218	0.180787	0.648703
C74	C	1.641218	0.680787	1.148703
C75	C	1.098204	0.215658	0.351514
C76	C	1.598204	0.715658	0.851514
H77	H	0.622061	0.296967	0.000101
H78	H	1.122061	0.796967	0.500101
H79	H	0.968729	-0.365072	0.072438
H80	H	1.468729	0.134928	0.572438
N81	N	1.021573	0.277826	0.531024
N82	N	1.521573	0.777826	1.031024
N83	N	1.023776	0.354704	0.518571
N84	N	1.523776	0.854704	1.018571
H85	H	0.974915	0.394348	0.559245
H86	H	1.474915	0.894348	1.059245
H87	H	0.617354	0.099482	0.000111
H88	H	1.117354	0.599482	0.500111
H89	H	1.203829	0.130016	0.480873
H90	H	1.703829	0.630016	0.980873
N91	N	0.959896	-0.213412	0.091976
N92	N	1.459896	0.286588	0.591976
N93	N	0.889338	-0.166306	0.080023
N94	N	1.389338	0.333694	0.580023
H95	H	0.849520	-0.141060	0.144916
H96	H	1.349520	0.358940	0.644916
N97	N	0.971477	-0.221828	-0.091642
N98	N	1.471477	0.278172	0.408358
N99	N	0.938628	-0.274318	-0.156414
N100	N	1.438628	0.225682	0.343586
H101	H	0.906985	-0.255020	-0.221207
H102	H	1.406985	0.244980	0.278793
N103	N	1.111011	-0.368590	0.197867
N104	N	1.611011	0.131410	0.697867
N105	N	1.076460	-0.312255	0.264102
N106	N	1.576460	0.187745	0.764102
H107	H	1.039291	-0.327573	0.331666
H108	H	1.539291	0.172427	0.831666
N109	N	0.968092	-0.377689	-0.092090
N110	N	1.468092	0.122311	0.407910
N111	N	1.010890	-0.429881	-0.158273
N112	N	1.510890	0.070119	0.341727
H113	H	0.978168	-0.452259	-0.223102
H114	H	1.478168	0.047741	0.276898
H115	H	1.239445	-0.373229	0.106839
H116	H	1.739445	0.126771	0.606839
N117	N	1.262821	-0.224877	0.106875
N118	N	1.762821	0.275123	0.606875
N119	N	1.299744	-0.182811	0.034959
N120	N	1.799744	0.317189	0.534959
H121	H	1.367952	-0.165019	0.038313
H122	H	1.867952	0.334981	0.538313
N123	N	1.115864	-0.213062	0.197346
N124	N	1.615864	0.286938	0.697346
N125	N	1.046908	-0.162974	0.190344
N126	N	1.546908	0.337026	0.690344
H127	H	1.011319	-0.136839	0.257594
H128	H	1.511319	0.363161	0.757594
N129	N	1.141676	-0.390940	-0.197947
N130	N	1.641676	0.109060	0.302053
N131	N	1.138838	-0.468535	-0.215949
N132	N	1.638838	0.031465	0.284051
H133	H	1.113020	-0.492384	-0.284455
H134	H	1.613020	0.007616	0.215545
H135	H	1.145529	-0.239586	-0.177759
H136	H	1.645529	0.260414	0.322241
H137	H	1.254680	-0.383262	-0.101623
H138	H	1.754680	0.116738	0.398377
N139	N	1.274904	-0.234222	-0.109994
N140	N	1.774904	0.265778	0.390006
N141	N	1.328474	-0.248138	-0.036725
N142	N	1.828474	0.251862	0.463275
H143	H	1.396716	-0.229718	-0.042156
H144	H	1.896716	0.270282	0.457844
