data_functionalizedCrystal
_audit_creation_method	'MofGen! by Chris Wilmer'
_symmetry_space_group_name_H-M	'P1'
_symmetry_Int_Tables_number	1
_symmetry_cell_setting	triclinic
loop_
_symmetry_equiv_pos_as_xyz
  x,y,z
_cell_length_a	12.827892
_cell_length_b	10.685972
_cell_length_c	10.685314
_cell_angle_alpha	90.358457
_cell_angle_beta	94.336989
_cell_angle_gamma	85.619715
loop_
_atom_site_label
_atom_site_type_symbol
_atom_site_fract_x
_atom_site_fract_y
_atom_site_fract_z
Zn1	Zn	-0.352109	-1.863574	-0.856569
Zn2	Zn	0.147891	-1.363574	-0.356569
Zn3	Zn	-0.512567	-1.879528	-0.646803
Zn4	Zn	-0.012567	-1.379528	-0.146803
Zn5	Zn	-0.350120	-1.669862	-0.630714
Zn6	Zn	0.149880	-1.169862	-0.130714
Zn7	Zn	-0.539092	-1.653768	-0.840406
Zn8	Zn	-0.039092	-1.153768	-0.340406
O9	O	-0.438472	-1.766683	-0.743623
O10	O	0.061528	-1.266683	-0.243623
O11	O	-0.363126	-2.041241	-0.842241
O12	O	0.136874	-1.541241	-0.342241
O13	O	-0.479085	-1.865128	-0.469124
O14	O	0.020915	-1.365128	0.030876
O15	O	-0.204146	-1.695617	-0.660706
O16	O	0.295854	-1.195617	-0.160706
O17	O	-0.481013	-2.052962	-0.688126
O18	O	0.018987	-1.552962	-0.188126
O19	O	-0.205607	-1.837936	-0.826640
O20	O	0.294393	-1.337936	-0.326640
O21	O	-0.359735	-1.711087	-0.457304
O22	O	0.140265	-1.211087	0.042696
O23	O	-0.385456	-1.492177	-0.645033
O24	O	0.114544	-0.992177	-0.145033
O25	O	-0.526222	-1.668187	-1.018095
O26	O	-0.026222	-1.168187	-0.518095
O27	O	-0.524293	-1.480352	-0.799093
O28	O	-0.024293	-0.980352	-0.299093
O29	O	-0.388846	-1.822330	-1.029970
O30	O	0.111154	-1.322330	-0.529970
O31	O	-0.662323	-1.849522	-0.672453
O32	O	-0.162323	-1.349522	-0.172453
O33	O	-0.681811	-1.683657	-0.814693
O34	O	-0.181811	-1.183657	-0.314693
C35	C	-0.457538	-1.440746	-0.718564
C36	C	0.042462	-0.940746	-0.218564
C37	C	-0.465721	-1.301307	-0.707873
C38	C	0.034279	-0.801307	-0.207873
C39	C	-0.709985	-1.766606	-0.743595
C40	C	-0.209985	-1.266606	-0.243595
C41	C	-0.826136	-1.766685	-0.743634
C42	C	-0.326136	-1.266685	-0.243634
C43	C	-0.868243	-1.848844	-0.673341
C44	C	-0.368243	-1.348844	-0.173341
C45	C	-0.988290	-1.848928	-0.673379
C46	C	-0.488290	-1.348928	-0.173379
C47	C	-0.165899	-1.766792	-0.743681
C48	C	0.334101	-1.266792	-0.243681
C49	C	-0.049744	-1.766839	-0.743706
C50	C	0.450256	-1.266839	-0.243706
C51	C	-0.460715	-1.741684	-1.070822
C52	C	0.039285	-1.241684	-0.570822
C53	C	-0.470193	-1.731030	-1.210255
C54	C	0.029807	-1.231030	-0.710255
C55	C	-0.419325	-1.093893	-0.768775
C56	C	0.080675	-0.593893	-0.268775
C57	C	-0.411147	-1.233332	-0.779478
C58	C	0.088853	-0.733332	-0.279478
C59	C	-0.416236	-1.791658	-0.417703
C60	C	0.083764	-1.291658	0.082297
C61	C	-0.406449	-1.802554	-0.278290
C62	C	0.093551	-1.302554	0.221710
H63	H	-0.358157	-1.281811	-0.848959
H64	H	0.141843	-0.781811	-0.348959
Cl65	Cl	-0.565653	-1.623905	-1.285011
Cl66	Cl	-0.065653	-1.123905	-0.785011
Cl67	Cl	-0.993793	-1.658223	-0.836621
Cl68	Cl	-0.493793	-1.158223	-0.336621
H69	H	-0.344610	-1.871931	-1.229860
H70	H	0.155390	-1.371931	-0.729860
Cl71	Cl	-0.907685	-1.658182	-0.836604
Cl72	Cl	-0.407685	-1.158182	-0.336604
H73	H	-0.518708	-1.252822	-0.638380
H74	H	-0.018708	-0.752822	-0.138380
H75	H	-1.024539	-1.919264	-0.613195
H76	H	-0.524539	-1.419264	-0.113195
Cl77	Cl	-0.786694	-1.957361	-0.580386
Cl78	Cl	-0.286694	-1.457361	-0.080386
