data_functionalizedCrystal
_audit_creation_method	'MofGen! by Chris Wilmer'
_symmetry_space_group_name_H-M	'P1'
_symmetry_Int_Tables_number	1
_symmetry_cell_setting	triclinic
loop_
_symmetry_equiv_pos_as_xyz
  x,y,z
_cell_length_a	19.121102
_cell_length_b	19.121459
_cell_length_c	11.169409
_cell_angle_alpha	87.524199
_cell_angle_beta	87.537729
_cell_angle_gamma	85.039048
loop_
_atom_site_label
_atom_site_type_symbol
_atom_site_fract_x
_atom_site_fract_y
_atom_site_fract_z
Zn1	Zn	1.087657	-0.326020	-0.734061
Zn2	Zn	1.092581	-0.443703	-0.525151
Zn3	Zn	0.969986	-0.321034	-0.525179
Zn4	Zn	0.974975	-0.438620	-0.717591
O5	O	1.031300	-0.382345	-0.625496
O6	O	1.186775	-0.345845	-0.713229
O7	O	1.076291	-0.427472	-0.357200
O8	O	0.981447	-0.223235	-0.559793
O9	O	1.190392	-0.432307	-0.559744
O10	O	1.067899	-0.226898	-0.713257
O11	O	0.986221	-0.337347	-0.357221
O12	O	0.872184	-0.332418	-0.543823
O13	O	0.989950	-0.423643	-0.887731
O14	O	0.875849	-0.418808	-0.685187
O15	O	1.072737	-0.340916	-0.899831
O16	O	1.081129	-0.541490	-0.543774
O17	O	0.994724	-0.537755	-0.685159
C18	C	0.848485	-0.374521	-0.612721
C19	C	0.770277	-0.371191	-0.607284
C20	C	1.039021	-0.565153	-0.612703
C21	C	1.042389	-0.643362	-0.607275
C22	C	0.735465	-0.414673	-0.678204
C23	C	0.661979	-0.411535	-0.673102
C24	C	0.623308	-0.364918	-0.597071
C25	C	0.658126	-0.321431	-0.526147
C26	C	0.731610	-0.324566	-0.531257
C27	C	0.401338	-0.353195	-0.577972
C28	C	0.327850	-0.350064	-0.572865
C29	C	0.331708	-0.440168	-0.719821
C30	C	0.405193	-0.443302	-0.724919
C31	C	0.440004	-0.399812	-0.654000
C32	C	0.548195	-0.361710	-0.591850
C33	C	0.515117	-0.403017	-0.659228
C34	C	1.063708	-1.085794	-0.572857
C35	C	1.060538	-1.012308	-0.577959
C36	C	1.013935	-0.973647	-0.654061
C37	C	0.970494	-1.008475	-0.725057
C38	C	0.973661	-1.081960	-0.719947
C39	C	1.002116	-0.751675	-0.673162
C40	C	0.998953	-0.678186	-0.678268
C41	C	1.088996	-0.682023	-0.531168
C42	C	1.092163	-0.755509	-0.526071
C43	C	1.048719	-0.790331	-0.597062
C44	C	1.010694	-0.898532	-0.659281
C45	C	1.051957	-0.865444	-0.591835
C46	C	1.214828	-0.390199	-0.638320
C47	C	1.293037	-0.393546	-0.643786
C48	C	1.031351	-0.382269	-0.938547
C49	C	1.031372	-0.382236	-1.071951
C50	C	1.023568	-0.198823	-0.638365
C51	C	1.020272	-0.120617	-0.643850
C52	C	1.031288	-0.382371	-0.313668
C53	C	1.031394	-0.382211	-0.180288
H54	H	0.766946	-0.452636	-0.740113
H55	H	0.961001	-0.646711	-0.740244
C56	C	0.557649	-0.454293	-0.742859
H57	H	0.526394	-0.479742	-0.784373
H58	H	0.587598	-0.486137	-0.696707
H59	H	0.585192	-0.428631	-0.799107
H60	H	0.516701	-0.323756	-0.529943
H61	H	1.095906	-0.983955	-0.520150
H62	H	1.101661	-1.117266	-0.510893
C63	C	1.143404	-0.798033	-0.442323
H64	H	1.139067	-0.846785	-0.449446
H65	H	1.132594	-0.785586	-0.361796
H66	H	1.190164	-0.787970	-0.464071
H67	H	0.633638	-0.446943	-0.730852
H68	H	1.124365	-0.653664	-0.473369
C69	C	0.954336	-0.789971	-0.751258
H70	H	0.926134	-0.756419	-0.797322
H71	H	0.924925	-0.817374	-0.701175
H72	H	0.982475	-0.819739	-0.803482
H73	H	0.932545	-0.976993	-0.787016
H74	H	0.436674	-0.481264	-0.786829
H75	H	0.303357	-0.475573	-0.777561
H76	H	0.938295	-1.110312	-0.777764
H77	H	0.296365	-0.312095	-0.510959
H78	H	0.429673	-0.317788	-0.520215
C79	C	0.615590	-0.270156	-0.442511
H80	H	0.566840	-0.274521	-0.449614
H81	H	0.625638	-0.223405	-0.464347
H82	H	0.628046	-0.280920	-0.361960
H83	H	0.759953	-0.289155	-0.473512
H84	H	1.089898	-0.896924	-0.529869
H85	H	0.972750	-0.867049	-0.721247
