data_functionalizedCrystal
_audit_creation_method	'MofGen! by Chris Wilmer'
_symmetry_space_group_name_H-M	'P1'
_symmetry_Int_Tables_number	1
_symmetry_cell_setting	triclinic
loop_
_symmetry_equiv_pos_as_xyz
  x,y,z
_cell_length_a	11.026607
_cell_length_b	10.967962
_cell_length_c	9.483335
_cell_angle_alpha	92.523644
_cell_angle_beta	78.625300
_cell_angle_gamma	83.619301
loop_
_atom_site_label
_atom_site_type_symbol
_atom_site_fract_x
_atom_site_fract_y
_atom_site_fract_z
O1	O	1.616062	-0.522237	-0.009939
O2	O	1.260006	-0.464455	0.004538
O3	O	1.439399	-0.319049	0.040957
O4	O	1.436668	-0.667644	-0.046357
O5	O	1.475877	-0.289446	-0.193404
O6	O	1.296484	-0.434852	-0.229822
O7	O	1.652540	-0.492634	-0.244299
Cu8	Cu	1.477843	-0.461040	-0.258460
Cu9	Cu	1.434703	-0.496049	0.018699
O10	O	1.473147	-0.638040	-0.280718
C11	C	1.232527	-0.438994	-0.109971
C12	C	1.096300	-0.407217	-0.102010
C13	C	1.454683	-0.258927	-0.064868
C14	C	1.445862	-0.123881	-0.031033
C15	C	1.026669	-0.494960	-0.123987
C16	C	0.885872	-0.462119	-0.115759
C17	C	1.680018	-0.518096	-0.129787
C18	C	1.816243	-0.549874	-0.137739
N19	N	1.508194	-0.436418	-0.453399
C20	C	1.460826	-0.048333	-0.137353
C21	C	1.451710	0.091244	-0.102386
C22	C	1.457861	0.301837	-0.174891
C23	C	1.466676	0.166791	-0.208721
C24	C	1.468914	-0.468299	-0.701015
C25	C	1.443631	-0.488791	-0.538742
N26	N	1.404361	-0.520664	0.213640
H27	H	1.071293	-0.594391	-0.148900
H28	H	0.841250	-0.362684	-0.090816
N29	N	1.486733	-0.099530	-0.292216
H30	H	1.418502	-0.063874	-0.340937
H31	H	1.569516	-0.077019	-0.344117
N32	N	0.875340	-0.681592	-0.170719
H33	H	0.835508	-0.734291	-0.094289
H34	H	0.862548	-0.712250	-0.268080
N35	N	1.566909	-0.388806	-0.763346
H36	H	1.606513	-0.356674	-0.684096
H37	H	1.632836	-0.439212	-0.839110
N38	N	1.425810	0.142420	0.052490
H39	H	1.422973	0.234874	0.055518
H40	H	1.343073	0.119828	0.104421
H41	H	1.369646	-0.548804	-0.491683
H42	H	1.582187	-0.376415	-0.500460
N43	N	1.306363	-0.600155	-0.724035
H44	H	1.302194	-0.603528	-0.616947
H45	H	1.222696	-0.564145	-0.741559
H46	H	1.051673	-0.307789	-0.077069
N47	N	1.492599	0.115617	-0.363598
H48	H	1.495440	0.023162	-0.366629
H49	H	1.424349	0.151363	-0.412231
N50	N	1.419964	-0.072700	0.123835
H51	H	1.417126	0.019754	0.126862
H52	H	1.337226	-0.095291	0.175765
