data_functionalizedCrystal
_audit_creation_method	'MofGen! by Chris Wilmer'
_symmetry_space_group_name_H-M	'P1'
_symmetry_Int_Tables_number	1
_symmetry_cell_setting	triclinic
loop_
_symmetry_equiv_pos_as_xyz
  x,y,z
_cell_length_a	18.101398
_cell_length_b	14.908520
_cell_length_c	14.908308
_cell_angle_alpha	83.639235
_cell_angle_beta	93.287506
_cell_angle_gamma	86.684250
loop_
_atom_site_label
_atom_site_type_symbol
_atom_site_fract_x
_atom_site_fract_y
_atom_site_fract_z
Zn1	Zn	1.088467	0.389967	-0.532365
Zn2	Zn	1.588467	0.889967	-0.032365
Zn3	Zn	1.088382	0.532612	-0.389735
Zn4	Zn	1.588382	1.032612	0.110265
Zn5	Zn	0.972208	0.381260	-0.381044
Zn6	Zn	1.472208	0.881260	0.118956
Zn7	Zn	0.957015	0.541274	-0.541069
Zn8	Zn	1.457015	1.041274	-0.041069
O9	O	1.026518	0.461278	-0.461053
O10	O	1.526518	0.961278	0.038947
O11	O	1.192088	0.408908	-0.513439
O12	O	1.692088	0.908908	-0.013439
O13	O	1.079295	0.505266	-0.261920
O14	O	1.579295	1.005266	0.238080
O15	O	0.994024	0.255750	-0.393837
O16	O	1.494024	0.755750	0.106163
O17	O	1.192026	0.513709	-0.408650
O18	O	1.692026	1.013709	0.091350
O19	O	1.079438	0.262148	-0.505012
O20	O	1.579438	0.762148	-0.005012
O21	O	0.993942	0.394068	-0.255535
O22	O	1.493942	0.894068	0.244465
O23	O	0.866561	0.402467	-0.402277
O24	O	1.366561	0.902467	0.097723
O25	O	0.968129	0.528472	-0.666576
O26	O	1.468129	1.028472	-0.166576
O27	O	0.855398	0.520029	-0.519846
O28	O	1.355398	1.020029	-0.019846
O29	O	1.064706	0.417307	-0.660181
O30	O	1.564706	0.917307	-0.160181
O31	O	1.064563	0.660425	-0.417090
O32	O	1.564563	1.160425	0.082910
O33	O	0.968048	0.666789	-0.528274
O34	O	1.468048	1.166789	-0.028274
C35	C	1.014666	0.696451	-0.474589
C36	C	1.514666	1.196451	0.025411
C37	C	1.009662	0.797061	-0.480410
C38	C	1.509662	1.297061	0.019590
C39	C	0.834109	0.461243	-0.461064
C40	C	1.334109	0.961243	0.038936
C41	C	0.751793	0.461251	-0.461091
C42	C	1.251793	0.961251	0.038909
C43	C	1.014732	0.474827	-0.697139
C44	C	1.514732	0.974827	-0.197139
C45	C	1.009710	0.480601	-0.797744
C46	C	1.509710	0.980601	-0.297744
C47	C	0.452701	0.461303	-0.461056
C48	C	0.952701	0.961303	0.038944
C49	C	0.477028	0.535588	-0.534702
C50	C	0.977028	1.035588	-0.034702
C51	C	0.562643	0.535384	-0.534975
C52	C	1.062643	1.035384	-0.034975
C53	C	0.601084	0.461278	-0.461074
C54	C	1.101084	0.961278	0.038926
C55	C	0.573488	0.367442	-0.481640
C56	C	1.073488	0.867442	0.018360
C57	C	0.487797	0.367893	-0.482159
C58	C	0.987797	0.867893	0.017841
C59	C	0.487840	0.480003	-0.366627
C60	C	0.987840	0.980003	0.133373
C61	C	0.573360	0.482124	-0.367260
C62	C	1.073360	0.982124	0.132740
C63	C	0.684944	0.461258	-0.461081
C64	C	1.184944	0.961258	0.038919
C65	C	0.368841	0.461316	-0.461050
C66	C	0.868841	0.961316	0.038950
C67	C	1.219679	0.461314	-0.461043
C68	C	1.719679	0.961314	0.038957
C69	C	1.301992	0.461329	-0.461039
C70	C	1.801992	0.961329	0.038961
C71	C	1.038435	0.225188	-0.447484
C72	C	1.538435	0.725188	0.052516
C73	C	1.043514	0.124581	-0.441702
C74	C	1.543514	0.624581	0.058298
C75	C	1.100853	0.979435	-0.375665
C76	C	1.600853	1.479435	0.124335
C77	C	1.096154	1.073966	-0.381131
C78	C	1.596154	1.573966	0.118869
C79	C	0.995570	1.080657	-0.496813
C80	C	1.495570	1.580657	0.003187
C81	C	1.000269	0.986126	-0.491346
C82	C	1.500269	1.486126	0.008654
C83	C	1.052912	0.935518	-0.430770
C84	C	1.552912	1.435518	0.069230
C85	C	1.057606	0.840984	-0.425299
C86	C	1.557606	1.340984	0.074701
C87	C	0.957026	0.847677	-0.540984
C88	C	1.457026	1.347677	-0.040984
C89	C	0.952327	0.942209	-0.546451
C90	C	1.452327	1.442209	-0.046451
C91	C	1.100836	0.375673	-0.980134
C92	C	1.600836	0.875673	-0.480134
C93	C	1.096120	0.381095	-1.074662
C94	C	1.596120	0.881095	-0.574662
C95	C	0.995557	0.496861	-1.081329
C96	C	1.495557	0.996861	-0.581329
C97	C	1.000274	0.491439	-0.986801
C98	C	1.500274	0.991439	-0.486801
C99	C	1.052916	0.430844	-0.936207
C100	C	1.552916	0.930844	-0.436207
C101	C	1.057635	0.425428	-0.841678
C102	C	1.557635	0.925428	-0.341678
C103	C	0.957070	0.541188	-0.848346
C104	C	1.457070	1.041188	-0.348346
C105	C	0.952353	0.546610	-0.942874
C106	C	1.452353	1.046610	-0.442874
C107	C	1.038304	0.447717	-0.225882
C108	C	1.538304	0.947717	0.274118
C109	C	1.043483	0.441688	-0.125263
C110	C	1.543483	0.941688	0.374737
H111	H	0.580924	0.605141	-0.522716
H112	H	1.080924	1.105141	-0.022716
C113	C	0.894418	0.997888	-0.613076
C114	C	1.394418	1.497888	-0.113076
N115	N	0.850798	1.039824	-0.663256
N116	N	1.350798	1.539824	-0.163256
H117	H	0.591143	0.551146	-0.351648
H118	H	1.091143	1.051146	0.148352
C119	C	0.904286	0.799361	-0.601603
C120	C	1.404286	1.299361	-0.101603
N121	N	0.864562	0.762968	-0.647259
N122	N	1.364562	1.262968	-0.147259
C123	C	1.115540	0.358770	-0.786026
C124	C	1.615540	0.858770	-0.286026
N125	N	1.159153	0.308558	-0.744111
N126	N	1.659153	0.808558	-0.244111
H127	H	0.452771	0.523833	-0.604379
H128	H	0.952771	1.023833	-0.104379
H129	H	1.143703	0.326339	-0.938940
H130	H	1.643703	0.826339	-0.438940
H131	H	1.135140	0.336167	-1.110424
H132	H	1.635140	0.836167	-0.610424
H133	H	0.952698	0.546194	-1.122538
H134	H	1.452698	1.046194	-0.622538
H135	H	0.592526	0.350519	-0.549725
H136	H	1.092526	0.850519	-0.049725
C137	C	0.467432	0.406820	-0.292587
C138	C	0.967432	0.906820	0.207413
N139	N	0.452056	0.351697	-0.236826
N140	N	0.952056	0.851697	0.263174
C141	C	1.115514	0.785316	-0.358664
C142	C	1.615514	1.285316	0.141336
N143	N	1.159134	0.743390	-0.308475
N144	N	1.659134	1.243390	0.191525
H145	H	0.909492	0.595943	-0.984080
H146	H	1.409492	1.095943	-0.484080
C147	C	0.904354	0.601881	-0.800019
C148	C	1.404354	1.101881	-0.300019
N149	N	0.864651	0.647595	-0.763617
N150	N	1.364651	1.147595	-0.263617
H151	H	0.952715	1.121879	-0.546137
H152	H	1.452715	1.621879	-0.046137
H153	H	0.580389	0.523449	-0.605051
H154	H	1.080389	1.023449	-0.105051
C155	C	0.445476	0.630154	-0.518413
C156	C	0.945476	1.130154	-0.018413
N157	N	0.421705	0.701384	-0.506144
N158	N	0.921705	1.201384	-0.006144
H159	H	0.463999	0.546969	-0.346881
H160	H	0.963999	1.046969	0.153119
C161	C	1.158759	0.923763	-0.309029
C162	C	1.658759	1.423763	0.190971
N163	N	1.202375	0.881833	-0.258839
N164	N	1.702375	1.381833	0.241161
H165	H	1.135195	1.109720	-0.336261
H166	H	1.635195	1.609720	0.163739
H167	H	0.465352	0.351385	-0.551027
H168	H	0.965352	0.851385	-0.051027
H169	H	0.472210	0.310870	-0.430668
H170	H	0.972210	0.810870	0.069332
H171	H	0.599001	0.310834	-0.429432
H172	H	1.099001	0.810834	0.070568
C173	C	0.609163	0.413733	-0.289750
C174	C	1.109163	0.913733	0.210250
N175	N	0.636128	0.362210	-0.231371
N176	N	1.136128	0.862210	0.268629
