data_functionalizedCrystal
_audit_creation_method	'MofGen! by Chris Wilmer'
_symmetry_space_group_name_H-M	'P1'
_symmetry_Int_Tables_number	1
_symmetry_cell_setting	triclinic
loop_
_symmetry_equiv_pos_as_xyz
  x,y,z
_cell_length_a	19.188905
_cell_length_b	19.188930
_cell_length_c	18.266242
_cell_angle_alpha	89.988525
_cell_angle_beta	89.983837
_cell_angle_gamma	83.139668
loop_
_atom_site_label
_atom_site_type_symbol
_atom_site_fract_x
_atom_site_fract_y
_atom_site_fract_z
O1	O	0.926160	0.087085	-0.061010
O2	O	0.722847	0.098838	-0.060986
O3	O	0.830371	-0.008694	-0.060984
O4	O	0.818636	0.194618	-0.061011
O5	O	0.830353	-0.008700	0.060778
O6	O	0.722828	0.098833	0.060776
O7	O	0.926142	0.087080	0.060752
Zn8	Zn	0.824482	0.092955	0.080097
Zn9	Zn	0.824506	0.092963	-0.080330
O10	O	0.818618	0.194612	0.060751
C11	C	0.696826	0.098458	-0.000102
C12	C	0.619321	0.097324	-0.000092
C13	C	0.582939	0.096782	-0.066466
C14	C	0.510115	0.095709	-0.066475
C15	C	0.473678	0.095164	-0.000106
C16	C	0.510068	0.095709	0.066277
C17	C	0.582890	0.096789	0.066284
N18	N	0.364651	0.053733	0.049292
N19	N	0.295474	0.052705	0.049280
C20	C	0.254272	0.091911	-0.000123
N21	N	0.284861	0.132174	-0.049526
N22	N	0.354045	0.133199	-0.049517
C23	C	0.394716	0.093993	-0.000106
C24	C	0.138926	0.090207	-0.066512
C25	C	0.066100	0.089138	-0.066518
C26	C	0.066056	0.089132	0.066236
C27	C	0.138879	0.090207	0.066240
C28	C	0.175310	0.090742	-0.000136
C29	C	0.829982	-0.034708	-0.000101
C30	C	0.828841	-0.112213	-0.000095
C31	C	0.891933	-0.157142	-0.000099
C32	C	0.890861	-0.229966	-0.000110
C33	C	0.826694	-0.257857	-0.000103
C34	C	0.763594	-0.212917	-0.000103
C35	C	0.764668	-0.140095	-0.000099
N36	N	0.777640	-0.365859	0.041341
N37	N	0.776624	-0.435038	0.041338
C38	C	0.823456	-0.477265	-0.000118
N39	N	0.871352	-0.447702	-0.041561
N40	N	0.872369	-0.378517	-0.041556
C41	C	0.825523	-0.336819	-0.000108
C42	C	0.885390	-0.601159	-0.000135
C43	C	0.884315	-0.673984	-0.000151
C44	C	0.757047	-0.656933	-0.000137
C45	C	0.758123	-0.584110	-0.000128
C46	C	0.822296	-0.556228	-0.000124
C47	C	0.952163	0.087460	-0.000134
C48	C	1.029668	0.088594	-0.000148
C49	C	0.819007	0.220626	-0.000134
C50	C	0.820148	0.298131	-0.000145
N51	N	0.824471	0.092950	0.189583
N52	N	0.824523	0.092962	-0.189817
C53	C	0.872098	0.045358	0.227893
C54	C	0.872103	0.045355	0.304538
C55	C	0.824487	0.092956	0.342870
C56	C	0.776851	0.140551	0.304552
C57	C	0.776843	0.140549	0.227908
N58	N	0.815411	0.154764	0.463195
N59	N	0.815423	0.154764	0.536003
C60	C	0.824506	0.092966	0.573793
N61	N	0.833592	0.031165	0.536024
N62	N	0.833584	0.031165	0.463209
C63	C	0.824490	0.092963	0.425977
C64	C	0.872141	0.045366	0.695210
C65	C	0.872141	0.045362	0.771856
C66	C	0.776892	0.140565	0.771868
C67	C	0.776889	0.140563	0.695223
C68	C	0.824517	0.092964	0.656898
H69	H	0.036389	0.088692	0.120275
O70	O	0.947708	-0.574037	-0.000011
C71	C	1.022759	-0.501700	0.063044
C72	C	0.952167	-0.532378	0.063005
H73	H	1.026381	-0.468000	0.113979
H74	H	1.067697	-0.546299	0.063078
H75	H	1.026440	-0.468048	0.012066
H76	H	0.948418	-0.566021	0.113973
H77	H	0.907263	-0.487745	0.062932
H78	H	0.704801	-0.679641	-0.000135
O79	O	0.730563	0.186706	0.657970
C80	C	0.635194	0.201818	0.571431
C81	C	0.687609	0.149483	0.613588
H82	H	0.600461	0.171744	0.535527
H83	H	0.601110	0.235834	0.611956
H84	H	0.665245	0.236629	0.535563
H85	H	0.657614	0.114626	0.649458
H86	H	0.721692	0.115516	0.573024
H87	H	0.480487	0.095269	-0.120527
O88	O	0.918339	-0.000974	0.341685
C89	C	0.959601	-0.122481	0.365201
C90	C	0.907215	-0.070092	0.323075
H91	H	0.950616	-0.178374	0.350182
H92	H	1.015508	-0.113585	0.350098
H93	H	0.951429	-0.114263	0.426559
H94	H	0.915322	-0.078279	0.261708
H95	H	0.851327	-0.079001	0.338239
O96	O	0.918330	-0.000950	0.657984
C97	C	0.959669	-0.122440	0.634499
C98	C	0.907311	-0.070079	0.676703
H99	H	0.950788	-0.178342	0.649629
H100	H	0.951466	-0.114294	0.573137
H101	H	1.015556	-0.113441	0.649527
H102	H	0.851403	-0.079046	0.661736
H103	H	0.915575	-0.078237	0.738055
O104	O	0.954207	-0.129942	-0.000073
C105	C	1.012268	-0.025314	-0.000127
C106	C	0.941694	-0.056026	-0.000135
H107	H	1.002176	0.034451	-0.000193
H108	H	1.043441	-0.043794	0.050837
H109	H	1.043440	-0.043869	-0.051077
H110	H	0.910466	-0.037484	0.050780
H111	H	0.910575	-0.037550	-0.051133
O112	O	0.952196	-0.273551	-0.000208
C113	C	1.060637	-0.310432	-0.063309
C114	C	0.991210	-0.261024	-0.063282
H115	H	1.092193	-0.300331	-0.114307
H116	H	1.092263	-0.300322	-0.012386
H117	H	1.048825	-0.367263	-0.063276
H118	H	1.002958	-0.204175	-0.063342
H119	H	0.959604	-0.271194	-0.114201
H120	H	0.036479	0.088702	-0.120570
O121	O	0.701306	-0.240090	-0.000193
C122	C	0.626229	-0.312369	-0.063293
C123	C	0.696803	-0.281657	-0.063269
H124	H	0.622559	-0.345970	-0.114292
H125	H	0.622525	-0.346092	-0.012371
H126	H	0.581329	-0.267732	-0.063254
H127	H	0.741743	-0.326249	-0.063334
H128	H	0.700446	-0.247916	-0.114187
H129	H	0.738080	0.179308	0.335766
O130	O	0.730540	0.186736	0.809061
C131	C	0.609016	0.227988	0.832512
C132	C	0.661436	0.175650	0.790355
H133	H	0.553134	0.219053	0.817392
H134	H	0.617138	0.219816	0.893882
H135	H	0.617975	0.283881	0.817433
H136	H	0.652508	0.119736	0.805372
H137	H	0.653300	0.183883	0.728996
H138	H	0.706747	-0.547527	-0.000121
H139	H	0.480396	0.095267	0.120315
H140	H	0.910879	0.006599	0.196691
H141	H	0.713289	-0.103513	-0.000096
H142	H	0.738058	0.179304	0.196716
H143	H	0.168589	0.090650	-0.120559
H144	H	0.612597	0.097218	-0.120515
H145	H	0.910922	0.006603	0.803048
H146	H	0.935694	-0.710565	-0.000158
H147	H	0.168502	0.090644	0.120290
O148	O	0.618131	0.097278	0.130829
C149	C	0.610397	0.097201	0.262500
C150	C	0.570399	0.096633	0.189456
H151	H	0.571821	0.096695	0.309919
H152	H	0.651016	0.048841	0.265877
H153	H	0.637965	0.146545	0.265774
H154	H	0.542789	0.047321	0.186133
H155	H	0.529819	0.145026	0.186109
