data_functionalizedCrystal
_audit_creation_method	'MofGen! by Chris Wilmer'
_symmetry_space_group_name_H-M	'P1'
_symmetry_Int_Tables_number	1
_symmetry_cell_setting	triclinic
loop_
_symmetry_equiv_pos_as_xyz
  x,y,z
_cell_length_a	6.817900
_cell_length_b	17.078472
_cell_length_c	16.255661
_cell_angle_alpha	96.262601
_cell_angle_beta	103.488922
_cell_angle_gamma	99.306020
loop_
_atom_site_label
_atom_site_type_symbol
_atom_site_fract_x
_atom_site_fract_y
_atom_site_fract_z
V1	V	-4.005724	-0.110408	-0.263786
O2	O	-4.015074	0.004646	-0.258852
O3	O	-3.936769	-0.218286	-0.261897
O4	O	-3.957554	-0.108999	-0.378870
O5	O	-3.994145	-0.105398	-0.141069
V6	V	-4.491986	-0.096612	-0.249118
O7	O	-4.260975	-0.140671	-0.295960
O8	O	-4.686932	-0.066349	-0.216943
O9	O	-4.337734	0.011266	-0.251006
O10	O	-4.600033	-0.211666	-0.254052
O11	O	-4.620962	-0.101622	-0.371834
O12	O	-4.316949	-0.098021	-0.134034
C13	C	-3.776761	-0.244575	-0.257714
C14	C	-3.801671	-0.332769	-0.256938
C15	C	-3.994710	-0.378254	-0.260791
C16	C	-4.018106	-0.461122	-0.260066
C17	C	-3.848456	-0.498502	-0.255482
C18	C	-3.655402	-0.453012	-0.251631
C19	C	-3.632012	-0.370147	-0.252362
C20	C	-3.898967	-0.745900	-0.252849
C21	C	-3.922372	-0.828771	-0.252116
C22	C	-4.285076	-0.836875	-0.260553
C23	C	-4.261666	-0.754007	-0.261278
C24	C	-4.068617	-0.708525	-0.257432
N25	N	-3.872364	-0.583206	-0.254738
N26	N	-4.044714	-0.623823	-0.258181
C27	C	-3.803274	-0.105168	-0.406923
C28	C	-3.845037	-0.104730	-0.501005
C29	C	-3.756589	-0.099496	-0.723828
C30	C	-3.900164	-0.167046	-0.793252
C31	C	-3.921578	-0.103908	-0.673254
C32	C	-3.852440	-0.035585	-0.771468
C33	C	-3.995497	-0.103111	-0.839638
C34	C	-4.064623	-0.171518	-0.741448
C35	C	-4.016849	-0.039998	-0.719649
C36	C	-4.160557	-0.107567	-0.789054
C37	C	-3.878989	-0.104368	-0.577405
C38	C	-4.038102	-0.102657	-0.935487
C39	C	-4.161083	0.037551	-0.255187
C40	C	-4.115412	0.125744	-0.255969
C41	C	-4.134570	-0.101855	-0.105976
C42	C	-4.072047	-0.102289	-0.011893
H43	H	-4.175297	-0.498152	-0.263205
C44	C	-4.185238	-0.249215	-0.723206
C45	C	-4.421590	-0.268788	-0.753797
C46	C	-4.542193	-0.346486	-0.735553
C47	C	-4.426445	-0.404610	-0.686718
C48	C	-4.190080	-0.385039	-0.656124
C49	C	-4.069477	-0.307342	-0.674368
H50	H	-4.507285	-0.225760	-0.789950
H51	H	-4.717166	-0.360973	-0.758201
H52	H	-4.515722	-0.462126	-0.673213
H53	H	-4.104385	-0.428067	-0.619971
H54	H	-3.894504	-0.292854	-0.651720
C55	C	-3.686607	-0.695878	-0.248600
C56	C	-3.576420	-0.714906	-0.318829
C57	C	-3.364042	-0.664881	-0.314574
C58	C	-3.261851	-0.595830	-0.240090
C59	C	-3.372038	-0.576799	-0.169855
C60	C	-3.584416	-0.626824	-0.174110
H61	H	-3.652068	-0.766025	-0.373972
H62	H	-3.282475	-0.678969	-0.366567
H63	H	-3.104637	-0.558799	-0.236940
H64	H	-3.296391	-0.525680	-0.114712
H65	H	-3.665983	-0.612736	-0.122117
H66	H	-3.784222	-0.859207	-0.248403
C67	C	-4.082775	0.032566	-0.676317
C68	C	-3.982516	0.118456	-0.682674
C69	C	-4.048416	0.191028	-0.639336
C70	C	-4.214576	0.177709	-0.589641
C71	C	-4.314845	0.091816	-0.583281
C72	C	-4.248945	0.019244	-0.626619
H73	H	-3.859505	0.128318	-0.719464
H74	H	-3.974190	0.254612	-0.644044
H75	H	-4.263360	0.231431	-0.557560
H76	H	-4.437856	0.081953	-0.546492
H77	H	-4.323171	-0.044341	-0.621911
C78	C	-3.731799	0.042026	-0.789874
C79	C	-3.495338	0.061189	-0.760037
C80	C	-3.374682	0.138796	-0.778441
C81	C	-3.490487	0.197240	-0.826681
C82	C	-3.726962	0.178079	-0.856520
C83	C	-3.847618	0.100472	-0.838116
H84	H	-3.409600	0.017924	-0.724325
H85	H	-3.199627	0.152980	-0.756352
H86	H	-3.401170	0.254689	-0.840304
H87	H	-3.812699	0.221344	-0.892232
H88	H	-4.022673	0.086288	-0.860205
H89	H	-3.851280	-0.220759	-0.825296
H90	H	-4.132858	-0.347824	-0.264516
H91	H	-4.442249	-0.873916	-0.263684
H92	H	-4.399820	-0.723579	-0.265017
H93	H	-3.517275	-0.483455	-0.247903
H94	H	-3.474823	-0.333114	-0.249227
H95	H	-4.331777	-0.110998	-0.817398
H96	H	-3.585467	-0.096171	-0.695350
