data_functionalizedCrystal
_audit_creation_method	'MofGen! by Chris Wilmer'
_symmetry_space_group_name_H-M	'P1'
_symmetry_Int_Tables_number	1
_symmetry_cell_setting	triclinic
loop_
_symmetry_equiv_pos_as_xyz
  x,y,z
_cell_length_a	10.654543
_cell_length_b	10.868271
_cell_length_c	11.792254
_cell_angle_alpha	90.005308
_cell_angle_beta	95.659614
_cell_angle_gamma	90.000354
loop_
_atom_site_label
_atom_site_type_symbol
_atom_site_fract_x
_atom_site_fract_y
_atom_site_fract_z
O1	O	-1.667403	0.102191	0.159383
O2	O	-1.301881	0.102222	0.174580
O3	O	-1.493504	0.102197	0.001832
O4	O	-1.475780	0.102216	0.332131
O5	O	-1.493488	-0.102448	0.001825
O6	O	-1.301865	-0.102423	0.174573
O7	O	-1.667387	-0.102454	0.159377
Zn8	Zn	-1.484624	-0.134930	0.166974
Zn9	Zn	-1.484645	0.134698	0.166983
O10	O	-1.475764	-0.102429	0.332124
C11	C	-1.255078	-0.000096	0.173462
C12	C	-1.115644	-0.000084	0.170129
N13	N	-1.484619	-0.318944	0.166967
C14	C	-1.035875	-0.000080	0.271839
C15	C	-0.904863	-0.000099	0.268700
C16	C	-0.933400	-0.000120	0.062132
C17	C	-1.064410	-0.000111	0.065272
C18	C	-1.484638	-0.569950	0.166980
C19	C	-1.484623	-0.430273	0.166976
C20	C	-0.714189	-0.000127	0.160500
C21	C	-0.853621	-0.000112	0.163850
C22	C	-1.492380	-0.000125	-0.040464
C23	C	-1.489038	-0.000124	-0.166485
N24	N	-1.484660	0.318712	0.166981
C25	C	-1.486323	-0.000119	-0.268828
C26	C	-1.482927	-0.000107	-0.397222
C27	C	-1.476889	-0.000104	0.374421
C28	C	-1.480230	-0.000098	0.500441
H29	H	-0.891669	-0.000149	-0.023240
O30	O	-1.085438	-0.000120	0.373790
C31	C	-0.986931	-0.000091	0.462887
H32	H	-0.897730	-0.038844	0.430367
H33	H	-0.968601	0.098088	0.494313
C34	C	-1.134144	-0.032739	0.601632
C35	C	-1.024588	-0.080346	0.561693
H36	H	-1.157373	-0.082239	0.662583
H37	H	-1.200511	-0.032754	0.541607
H38	H	-1.118854	0.049076	0.627813
H39	H	-1.039884	-0.162153	0.535500
H40	H	-0.958225	-0.080347	0.621716
O41	O	-0.827196	-0.000140	0.367395
C42	C	-0.700575	-0.000125	0.342146
H43	H	-0.694945	-0.038887	0.252958
H44	H	-0.662713	0.098051	0.346143
C45	C	-0.627929	-0.032759	0.539185
C46	C	-0.621012	-0.080378	0.429647
H47	H	-0.578848	-0.082258	0.593162
H48	H	-0.713235	-0.032765	0.556198
H49	H	-0.596379	0.049053	0.542500
H50	H	-0.652576	-0.162182	0.426329
H51	H	-0.535709	-0.080388	0.412636
O52	O	-1.141726	-0.000059	-0.033643
C53	C	-1.068416	-0.000104	-0.126865
H54	H	-0.970841	0.038638	-0.098831
H55	H	-1.058878	-0.098287	-0.158956
C56	C	-1.252872	0.032558	-0.257649
C57	C	-1.133032	0.080152	-0.223219
H58	H	-1.292732	0.082058	-0.317087
H59	H	-1.302264	0.032584	-0.194844
H60	H	-1.244907	-0.049260	-0.284383
H61	H	-1.141000	0.161962	-0.196472
H62	H	-1.083643	0.080141	-0.286022
