data_functionalizedCrystal
_audit_creation_method	'MofGen! by Chris Wilmer'
_symmetry_space_group_name_H-M	'P1'
_symmetry_Int_Tables_number	1
_symmetry_cell_setting	triclinic
loop_
_symmetry_equiv_pos_as_xyz
  x,y,z
_cell_length_a	12.837943
_cell_length_b	14.044220
_cell_length_c	11.295483
_cell_angle_alpha	94.468632
_cell_angle_beta	85.461227
_cell_angle_gamma	94.008909
loop_
_atom_site_label
_atom_site_type_symbol
_atom_site_fract_x
_atom_site_fract_y
_atom_site_fract_z
O1	O	1.404877	0.242691	-0.099010
O2	O	1.101936	0.230415	-0.099017
O3	O	1.248859	0.098158	-0.099002
O4	O	1.257954	0.374947	-0.099025
O5	O	1.235952	0.109755	0.099047
O6	O	1.089030	0.242012	0.099032
O7	O	1.391970	0.254287	0.099039
Cu8	Cu	1.239322	0.249208	0.117119
Cu9	Cu	1.254585	0.235494	-0.117097
O10	O	1.245048	0.386544	0.099024
C11	C	1.056479	0.232067	0.000007
C12	C	0.940259	0.219699	0.000005
C13	C	0.713048	0.368378	0.000009
C14	C	0.603848	0.356763	0.000008
C15	C	0.612656	0.184853	0.000010
C16	C	0.721856	0.196469	0.000011
C17	C	0.772048	0.288234	0.000009
C18	C	0.881251	0.299849	0.000002
C19	C	0.890056	0.127940	0.000012
C20	C	0.780856	0.116324	0.000011
C21	C	1.238424	0.068282	0.000023
C22	C	1.226550	-0.038016	0.000024
C23	C	1.204843	-0.232639	0.000007
C24	C	1.289060	-0.282665	0.000005
C25	C	1.276982	-0.390961	-0.000005
C26	C	1.216919	-0.124334	0.000016
C27	C	1.437428	0.252635	0.000012
C28	C	1.553649	0.265002	0.000007
C29	C	1.255482	0.416420	-0.000004
C30	C	1.267357	0.522717	-0.000013
N31	N	1.228594	0.258854	0.281854
N32	N	1.265320	0.225841	-0.281832
C33	C	1.342540	0.156351	0.531156
C34	C	1.334441	0.163648	0.655818
C35	C	1.204292	0.280740	0.655845
C36	C	1.212391	0.273443	0.531182
C37	C	1.281518	0.211247	0.468842
C38	C	1.289622	0.203956	0.344177
C39	C	1.159469	0.321042	0.344206
C40	C	1.151370	0.328339	0.468869
H41	H	0.739974	0.041612	0.000026
H42	H	1.123677	-0.271140	0.000002
H43	H	0.938107	0.062681	0.000004
O44	O	1.356786	0.143463	0.283801
C45	C	1.485059	0.028130	0.296938
C46	C	1.409022	0.096588	0.365457
H47	H	1.527329	-0.009772	0.362927
H48	H	1.439346	-0.027194	0.238620
H49	H	1.544850	0.070733	0.238527
H50	H	1.349215	0.054065	0.423932
H51	H	1.454805	0.151912	0.423699
O52	O	1.100299	0.374520	0.283731
C53	C	1.056854	0.532939	0.245669
C54	C	1.123937	0.472489	0.314206
H55	H	1.075925	0.612159	0.270301
H56	H	1.074521	0.517131	0.145844
H57	H	0.970386	0.514268	0.270184
H58	H	1.210425	0.491125	0.289790
H59	H	1.106181	0.488305	0.414014
O60	O	1.409709	0.095864	0.470776
C61	C	1.538003	-0.019451	0.483900
C62	C	1.461957	0.048995	0.552426
H63	H	1.580282	-0.057348	0.549885
H64	H	1.492296	-0.074779	0.425582
H65	H	1.597785	0.023161	0.425489
H66	H	1.402159	0.006463	0.610902
H67	H	1.507734	0.104324	0.610669
H68	H	1.384129	0.118944	0.706551
O69	O	0.929901	0.389025	-0.000157
C70	C	0.962513	0.533489	-0.102791
C71	C	0.907345	0.432522	-0.102749
H72	H	0.944315	0.568678	-0.185740
H73	H	0.933448	0.578497	-0.019962
H74	H	1.050689	0.528009	-0.102735
H75	H	0.819163	0.437912	-0.102847
H76	H	0.936495	0.387553	-0.185571
H77	H	1.148003	0.331371	0.706619
H78	H	1.095084	0.378975	0.519641
H79	H	1.370237	-0.244167	-0.000073
H80	H	0.753915	0.443098	0.000006
O81	O	0.564014	0.095663	-0.000143
C82	C	0.544737	-0.060805	-0.102779
C83	C	0.599921	0.040158	-0.102739
H84	H	0.573730	-0.105703	-0.185731
H85	H	0.563004	-0.096128	-0.019953
H86	H	0.456556	-0.055302	-0.102716
H87	H	0.688114	0.034740	-0.102843
H88	H	0.581568	0.075443	-0.185558
O89	O	0.546696	0.434713	-0.000049
C90	C	0.549483	0.606454	0.000019
C91	C	0.614336	0.518252	0.000055
H92	H	0.604141	0.674019	0.000128
H93	H	0.503567	0.600532	-0.082886
H94	H	0.492712	0.610107	0.082881
H95	H	0.671163	0.514545	-0.082752
H96	H	0.660181	0.524211	0.083014
