data_functionalizedCrystal
_audit_creation_method	'MofGen! by Chris Wilmer'
_symmetry_space_group_name_H-M	'P1'
_symmetry_Int_Tables_number	1
_symmetry_cell_setting	triclinic
loop_
_symmetry_equiv_pos_as_xyz
  x,y,z
_cell_length_a	11.169417
_cell_length_b	12.759400
_cell_length_c	12.759393
_cell_angle_alpha	89.969553
_cell_angle_beta	89.981972
_cell_angle_gamma	90.014415
loop_
_atom_site_label
_atom_site_type_symbol
_atom_site_fract_x
_atom_site_fract_y
_atom_site_fract_z
Zn1	Zn	1.834921	-0.418169	-0.593976
Zn2	Zn	1.834806	-0.593888	-0.418300
Zn3	Zn	1.634212	-0.418228	-0.418317
Zn4	Zn	1.634205	-0.593811	-0.593943
O5	O	1.734536	-0.506024	-0.506134
O6	O	2.002856	-0.441487	-0.570679
O7	O	1.808152	-0.570643	-0.271281
O8	O	1.660888	-0.271199	-0.441640
O9	O	2.002771	-0.570587	-0.441611
O10	O	1.808348	-0.271156	-0.570696
O11	O	1.660776	-0.441586	-0.271294
O12	O	1.466262	-0.441511	-0.441608
O13	O	1.660875	-0.570455	-0.740968
O14	O	1.466256	-0.570511	-0.570639
O15	O	1.808341	-0.441412	-0.740993
O16	O	1.808144	-0.740899	-0.441578
O17	O	1.660763	-0.740842	-0.570622
C18	C	1.422711	-0.506010	-0.506122
C19	C	1.289311	-0.506029	-0.506142
C20	C	1.734473	-0.778991	-0.506118
C21	C	1.734556	-0.895768	-0.506146
C22	C	1.811300	-0.950528	-0.573400
C23	C	1.811356	-1.060252	-0.573426
C24	C	1.657920	-1.060446	-0.438933
C25	C	1.657859	-0.950724	-0.438914
C26	C	1.887997	-0.895572	-0.640632
C27	C	1.964748	-0.950332	-0.707891
C28	C	1.964804	-1.060056	-0.707917
C29	C	1.888108	-1.115020	-0.640683
C30	C	2.047578	-0.506039	-0.506147
C31	C	2.180978	-0.506045	-0.506152
C32	C	1.734620	-0.505918	-0.780168
C33	C	1.734656	-0.505873	-0.896944
C34	C	1.734632	-0.231991	-0.506174
C35	C	1.734673	-0.115214	-0.506191
C36	C	1.811452	-0.438674	-0.951821
C37	C	1.811480	-0.438636	-1.061545
C38	C	1.657914	-0.573005	-1.061506
C39	C	1.657880	-0.573037	-0.951784
C40	C	1.888228	-0.371510	-0.896981
C41	C	1.965031	-0.304306	-0.951858
C42	C	1.965059	-0.304268	-1.061582
C43	C	1.888285	-0.371434	-1.116429
C44	C	1.734521	-0.506054	-0.233167
C45	C	1.734718	-0.505803	-0.116391
H46	H	1.887962	-0.806229	-0.640616
H47	H	1.595407	-0.627688	-1.106172
C48	C	1.573419	-0.646958	-0.891400
C49	C	1.436985	-0.638383	-0.906464
C50	C	1.352524	-0.712302	-0.846074
C51	C	1.404496	-0.794797	-0.770620
C52	C	1.540937	-0.803377	-0.755553
C53	C	1.625398	-0.729457	-0.815943
H54	H	1.398506	-0.577312	-0.962323
H55	H	1.251521	-0.705951	-0.857229
H56	H	1.341972	-0.849517	-0.725916
H57	H	1.579416	-0.864447	-0.699694
H58	H	1.726401	-0.735808	-0.804788
C59	C	2.049476	-0.230425	-0.891531
C60	C	2.049454	-0.230463	-0.770841
C61	C	2.133901	-0.156579	-0.710517
C62	C	2.218371	-0.082657	-0.770883
C63	C	2.218397	-0.082615	-0.891580
C64	C	2.133950	-0.156499	-0.951904
H65	H	1.986921	-0.285188	-0.726148
H66	H	2.133881	-0.156611	-0.621169
H67	H	2.280884	-0.027964	-0.726228
H68	H	2.280930	-0.027891	-0.936273
H69	H	2.133970	-0.156468	-1.041252
H70	H	2.027184	-0.905574	-0.762637
C71	C	1.573570	-1.120905	-0.364973
C72	C	1.625675	-1.196357	-0.282541
C73	C	1.541327	-1.256814	-0.208576
C74	C	1.404874	-1.241819	-0.217043
C75	C	1.352762	-1.166363	-0.299478
C76	C	1.437110	-1.105906	-0.373443
H77	H	1.726692	-1.207461	-0.276270
H78	H	1.579905	-1.312672	-0.147552
H79	H	1.342435	-1.286573	-0.162290
H80	H	1.251745	-1.155259	-0.305749
H81	H	1.398532	-1.050048	-0.434467
H82	H	2.027288	-1.104638	-0.762690
H83	H	1.595366	-0.906138	-0.384150
H84	H	2.027587	-0.249540	-1.106259
H85	H	1.888146	-1.204364	-0.640722
H86	H	1.888216	-0.371535	-0.807638
H87	H	1.888300	-0.371385	-1.205774
