data_functionalizedCrystal
_audit_creation_method	'MofGen! by Chris Wilmer'
_symmetry_space_group_name_H-M	'P1'
_symmetry_Int_Tables_number	1
_symmetry_cell_setting	triclinic
loop_
_symmetry_equiv_pos_as_xyz
  x,y,z
_cell_length_a	21.295419
_cell_length_b	21.295416
_cell_length_c	21.395356
_cell_angle_alpha	90.028650
_cell_angle_beta	89.983518
_cell_angle_gamma	89.954868
loop_
_atom_site_label
_atom_site_type_symbol
_atom_site_fract_x
_atom_site_fract_y
_atom_site_fract_z
Zn1	Zn	0.962306	0.250373	-0.354259
Zn2	Zn	1.462306	0.750373	0.145741
Zn3	Zn	0.962224	0.355643	-0.249481
Zn4	Zn	1.462224	0.855643	0.250519
Zn5	Zn	0.857044	0.250419	-0.249496
Zn6	Zn	1.357044	0.750419	0.250504
Zn7	Zn	0.856999	0.355636	-0.354221
Zn8	Zn	1.356999	0.855636	0.145779
O9	O	0.909643	0.303018	-0.301864
O10	O	1.409643	0.803018	0.198136
O11	O	1.050385	0.264322	-0.340370
O12	O	1.550385	0.764322	0.159630
O13	O	0.948256	0.341706	-0.161805
O14	O	1.448256	0.841706	0.338195
O15	O	0.871061	0.162323	-0.263415
O16	O	1.371061	0.662323	0.236585
O17	O	1.050324	0.341663	-0.263390
O18	O	1.550324	0.841663	0.236610
O19	O	0.948396	0.162290	-0.340385
O20	O	1.448396	0.662290	0.159615
O21	O	0.870981	0.264398	-0.161816
O22	O	1.370981	0.764398	0.338184
O23	O	0.768949	0.264392	-0.263378
O24	O	1.268949	0.764392	0.236622
O25	O	0.870984	0.341651	-0.441904
O26	O	1.370984	0.841651	0.058096
O27	O	0.768916	0.341695	-0.340320
O28	O	1.268916	0.841695	0.159680
O29	O	0.948353	0.264315	-0.441932
O30	O	1.448353	0.764315	0.058068
O31	O	0.948212	0.443731	-0.263353
O32	O	1.448212	0.943731	0.236647
O33	O	0.870904	0.443726	-0.340305
O34	O	1.370904	0.943726	0.159695
C35	C	0.746092	0.303048	-0.301847
C36	C	1.246092	0.803048	0.198153
C37	C	0.676124	0.303076	-0.301854
C38	C	1.176124	0.803076	0.198146
C39	C	0.909561	0.466569	-0.301837
C40	C	1.409561	0.966569	0.198163
C41	C	0.909584	0.536537	-0.301846
C42	C	1.409584	1.036537	0.198154
C43	C	0.643311	0.262870	-0.342000
C44	C	1.143311	0.762870	0.158000
C45	C	0.577569	0.262853	-0.342002
C46	C	1.077569	0.762853	0.157998
C47	C	0.544641	0.303053	-0.301866
C48	C	1.044641	0.803053	0.198134
C49	C	0.577462	0.343262	-0.261712
C50	C	1.077462	0.843262	0.238288
C51	C	0.643203	0.343273	-0.261707
C52	C	1.143203	0.843273	0.238293
N53	N	0.441367	0.358131	-0.296971
N54	N	0.941367	0.858131	0.203029
N55	N	0.378915	0.358119	-0.296980
N56	N	0.878915	0.858119	0.203020
C57	C	0.346566	0.303021	-0.301879
C58	C	0.846566	0.803021	0.198121
N59	N	0.379028	0.247934	-0.306781
N60	N	0.879028	0.747934	0.193219
N61	N	0.441486	0.247948	-0.306776
N62	N	0.941486	0.747948	0.193224
C63	C	0.473356	0.303045	-0.301867
C64	C	0.973356	0.803045	0.198133
C65	C	0.242468	0.262794	-0.342030
C66	C	0.742468	0.762794	0.157970
C67	C	0.176725	0.262776	-0.342028
C68	C	0.676725	0.762776	0.157972
C69	C	0.176619	0.343189	-0.261741
C70	C	0.676619	0.843189	0.238259
C71	C	0.242362	0.343202	-0.261740
C72	C	0.742362	0.843202	0.238260
C73	C	0.275282	0.303005	-0.301887
C74	C	0.775282	0.803005	0.198113
C75	C	0.949874	0.569386	-0.261819
C76	C	1.449874	1.069386	0.238181
C77	C	0.949904	0.635128	-0.261836
C78	C	1.449904	1.135128	0.238164
C79	C	0.909632	0.668020	-0.301873
C80	C	1.409632	1.168020	0.198127
C81	C	0.869339	0.635164	-0.341907
C82	C	1.369339	1.135164	0.158093
C83	C	0.869315	0.569422	-0.341894
C84	C	1.369315	1.069422	0.158106
N85	N	0.854565	0.771300	-0.306648
N86	N	1.354565	1.271300	0.193352
N87	N	0.854589	0.833751	-0.306657
N88	N	1.354589	1.333751	0.193343
C89	C	0.909703	0.866095	-0.301918
C90	C	1.409703	1.366095	0.198082
N91	N	0.964793	0.833627	-0.297156
N92	N	1.464793	1.333627	0.202844
N93	N	0.964767	0.771170	-0.297143
N94	N	1.464767	1.271170	0.202857
C95	C	0.909654	0.739305	-0.301893
C96	C	1.409654	1.239305	0.198107
C97	C	0.950029	0.970228	-0.261907
C98	C	1.450029	1.470228	0.238093
C99	C	0.950060	1.035972	-0.261929
C100	C	1.450060	1.535972	0.238071
C101	C	0.869489	1.036006	-0.341996
C102	C	1.369489	1.536006	0.158004
C103	C	0.869464	0.970264	-0.341978
C104	C	1.369464	1.470264	0.158022
C105	C	0.909733	0.937379	-0.301930
C106	C	1.409733	1.437379	0.198070
C107	C	1.073834	0.302988	-0.301882
C108	C	1.573834	0.802988	0.198118
C109	C	1.143802	0.302975	-0.301890
C110	C	1.643802	0.802975	0.198110
C111	C	0.909673	0.302977	-0.465288
C112	C	1.409673	0.802977	0.034712
C113	C	0.909685	0.302960	-0.534929
C114	C	1.409685	0.802960	-0.034929
C115	C	0.909744	1.138827	-0.301917
C116	C	1.409744	1.638827	0.198083
C117	C	0.909788	1.068859	-0.301967
C118	C	1.409788	1.568859	0.198033
C119	C	0.950030	0.262591	-1.036741
C120	C	1.450030	0.762591	-0.536741
C121	C	0.950025	0.262606	-0.971306
C122	C	1.450025	0.762606	-0.471306
C123	C	0.909739	0.302876	-0.938568
C124	C	1.409739	0.802876	-0.438568
C125	C	0.869466	0.343145	-0.971270
C126	C	1.369466	0.843145	-0.471270
C127	C	0.869477	0.343134	-1.036705
C128	C	1.369477	0.843134	-0.536705
C129	C	0.853005	0.307876	-0.834891
C130	C	1.353005	0.807876	-0.334891
C131	C	0.852993	0.307883	-0.769458
C132	C	1.352993	0.807883	-0.269458
C133	C	0.909707	0.302916	-0.736747
C134	C	1.409707	0.802916	-0.236747
C135	C	0.966433	0.297929	-0.769476
C136	C	1.466433	0.797929	-0.269476
C137	C	0.966444	0.297917	-0.834910
C138	C	1.466444	0.797917	-0.334910
C139	C	0.909723	0.302894	-0.867615
C140	C	1.409723	0.802894	-0.367615
C141	C	0.949975	0.262669	-0.633099
C142	C	1.449975	0.762669	-0.133099
C143	C	0.949971	0.262689	-0.567663
C144	C	1.449971	0.762689	-0.067663
C145	C	0.869406	0.343225	-0.567629
C146	C	1.369406	0.843225	-0.067629
C147	C	0.869416	0.343209	-0.633064
C148	C	1.369416	0.843209	-0.133064
C149	C	0.909699	0.302927	-0.665795
C150	C	1.409699	0.802927	-0.165795
C151	C	0.909651	0.303013	-0.139077
C152	C	1.409651	0.803013	0.360923
C153	C	0.909760	0.302852	-0.069436
C154	C	1.409760	0.802852	0.430564
H155	H	0.550847	0.230110	-0.374692
H156	H	1.050847	0.730110	0.125308
H157	H	0.550648	0.375992	-0.229032
H158	H	1.050648	0.875992	0.270968
N159	N	0.676733	0.384348	-0.220708
N160	N	1.176733	0.884348	0.279292
N161	N	0.735430	0.384355	-0.220713
N162	N	1.235430	0.884355	0.279287
H163	H	0.759114	0.413365	-0.191758
H164	H	1.259114	0.913365	0.308242
H165	H	0.982817	0.229818	-0.944680
H166	H	1.482817	0.729818	-0.444680
H167	H	0.269274	0.230059	-0.374716
H168	H	0.769274	0.730059	0.125284
H169	H	0.982665	0.542613	-0.229212
H170	H	1.482665	1.042613	0.270788
H171	H	0.836551	0.661948	-0.374507
H172	H	1.336551	1.161948	0.125493
H173	H	0.836683	0.375920	-1.063324
H174	H	1.336683	0.875920	-0.563324
H175	H	0.150010	0.230032	-0.374718
H176	H	0.650010	0.730032	0.125282
N177	N	0.142983	0.384242	-0.220738
N178	N	0.642983	0.884242	0.279262
N179	N	0.084286	0.384223	-0.220744
N180	N	0.584286	0.884223	0.279256
H181	H	0.060527	0.413214	-0.191781
H182	H	0.560527	0.913214	0.308219
N183	N	0.275873	0.384277	-0.220729
N184	N	0.775873	0.884277	0.279271
N185	N	0.246469	0.420165	-0.184893
N186	N	0.746469	0.920165	0.315107
H187	H	0.270136	0.449175	-0.155925
H188	H	0.770136	0.949175	0.344075
N189	N	0.991061	0.668682	-0.220940
N190	N	1.491061	1.168682	0.279060
N191	N	1.027008	0.639313	-0.185186
N192	N	1.527008	1.139313	0.314814
H193	H	1.056074	0.663007	-0.156300
H194	H	1.556074	1.163007	0.343700
H195	H	0.836505	0.542677	-0.374489
H196	H	1.336505	1.042677	0.125511
H197	H	0.982820	0.943452	-0.229300
H198	H	1.482820	1.443452	0.270700
N199	N	0.828244	0.384352	-0.534197
N200	N	1.328244	0.884352	-0.034197
N201	N	0.770162	0.380184	-0.541500
N202	N	1.270162	0.880184	-0.041500
H203	H	0.741090	0.409232	-0.517888
H204	H	1.241090	0.909232	-0.017888
N205	N	0.991229	1.069518	-0.221044
N206	N	1.491229	1.569518	0.278956
N207	N	1.027180	1.040146	-0.185295
N208	N	1.527180	1.540146	0.314705
H209	H	1.056259	1.063838	-0.156420
H210	H	1.556259	1.563838	0.343580
H211	H	1.012633	0.293857	-0.861556
H212	H	1.512633	0.793857	-0.361556
H213	H	0.836702	1.062786	-0.374598
H214	H	1.336702	1.562786	0.125402
H215	H	0.836621	0.375991	-0.659684
H216	H	1.336621	0.875991	-0.159684
H217	H	0.836654	0.943517	-0.374569
H218	H	1.336654	1.443517	0.125431
N219	N	0.828313	0.384270	-0.937822
N220	N	1.328313	0.884270	-0.437822
N221	N	0.788207	0.362135	-0.901313
N222	N	1.288207	0.862135	-0.401313
H223	H	0.759142	0.391182	-0.877690
H224	H	1.259142	0.891182	-0.377690
H225	H	0.982835	0.229794	-1.063387
H226	H	1.482835	0.729794	-0.563387
N227	N	1.024364	0.292845	-0.736061
N228	N	1.524364	0.792845	-0.236061
N229	N	1.024349	0.292855	-0.677639
N230	N	1.524349	0.792855	-0.177639
H231	H	1.065260	0.289261	-0.654036
H232	H	1.565260	0.789261	-0.154036
N233	N	0.991123	0.221519	-0.666528
N234	N	1.491123	0.721519	-0.166528
N235	N	1.027079	0.185575	-0.637325
N236	N	1.527079	0.685575	-0.137325
H237	H	1.056139	0.156511	-0.660932
H238	H	1.556139	0.656511	-0.160932
H239	H	0.982768	0.229905	-0.541043
H240	H	1.482768	0.729905	-0.041043
H241	H	0.806803	0.311944	-0.742815
H242	H	1.306803	0.811944	-0.242815
H243	H	0.806819	0.311921	-0.861520
H244	H	1.306819	0.811921	-0.361520
H245	H	0.670111	0.230138	-0.374691
H246	H	1.170111	0.730138	0.125309
