data_functionalizedCrystal
_audit_creation_method	'MofGen! by Chris Wilmer'
_symmetry_space_group_name_H-M	'P1'
_symmetry_Int_Tables_number	1
_symmetry_cell_setting	triclinic
loop_
_symmetry_equiv_pos_as_xyz
  x,y,z
_cell_length_a	23.532355
_cell_length_b	22.610064
_cell_length_c	15.944551
_cell_angle_alpha	89.996881
_cell_angle_beta	83.163118
_cell_angle_gamma	90.002356
loop_
_atom_site_label
_atom_site_type_symbol
_atom_site_fract_x
_atom_site_fract_y
_atom_site_fract_z
O1	O	0.755677	0.049105	0.101745
O2	O	1.089010	0.382439	0.435079
O3	O	1.422343	0.715772	0.768412
O4	O	0.589867	0.049124	0.116544
O5	O	0.923200	0.382458	0.449878
O6	O	1.256533	0.715791	0.783211
O7	O	0.677300	0.049109	-0.013169
O8	O	1.010633	0.382442	0.320164
O9	O	1.343966	0.715776	0.653497
O10	O	0.668244	0.049121	0.231459
O11	O	1.001577	0.382454	0.564792
O12	O	1.334910	0.715787	0.898126
O13	O	0.677284	-0.049260	-0.013150
O14	O	1.010617	0.284073	0.320183
O15	O	1.343951	0.617407	0.653516
O16	O	0.589851	-0.049245	0.116563
O17	O	0.923184	0.284089	0.449897
O18	O	1.256518	0.617422	0.783230
O19	O	0.755661	-0.049264	0.101764
O20	O	1.088995	0.284070	0.435098
O21	O	1.422328	0.617403	0.768431
Zn22	Zn	0.672754	-0.064872	0.109167
Zn23	Zn	1.006087	0.268461	0.442500
Zn24	Zn	1.339420	0.601794	0.775833
Zn25	Zn	0.672774	0.064733	0.109142
Zn26	Zn	1.006107	0.398066	0.442475
Zn27	Zn	1.339441	0.731400	0.775809
O28	O	0.668228	-0.049248	0.231478
O29	O	1.001562	0.284085	0.564811
O30	O	1.334895	0.617418	0.898145
C31	C	0.568641	-0.000058	0.116184
C32	C	0.901974	0.333276	0.449517
C33	C	1.235307	0.666609	0.782851
C34	C	0.505418	-0.000051	0.115072
C35	C	0.838751	0.333283	0.448405
C36	C	1.172085	0.666616	0.781738
N37	N	0.672744	-0.153325	0.109183
N38	N	1.006077	0.180008	0.442517
N39	N	1.339411	0.513342	0.775850
C40	C	0.113369	-0.053697	0.108094
C41	C	0.446702	0.279636	0.441427
C42	C	0.780035	0.612970	0.774761
C43	C	0.053965	-0.053699	0.107036
C44	C	0.387298	0.279634	0.440369
C45	C	0.720632	0.612967	0.773703
O46	O	0.023237	-0.099301	0.106469
O47	O	0.356570	0.234032	0.439802
O48	O	0.689904	0.567365	0.773136
N49	N	0.024263	-0.000078	0.106501
N50	N	0.357596	0.333255	0.439834
N51	N	0.690930	0.666588	0.773168
C52	C	0.053968	0.053548	0.107015
C53	C	0.387302	0.386882	0.440349
C54	C	0.720635	0.720215	0.773682
O55	O	0.023250	0.099157	0.106462
O56	O	0.356583	0.432490	0.439796
O57	O	0.689916	0.765823	0.773129
C58	C	0.113371	0.053550	0.108068
C59	C	0.446705	0.386883	0.441401
C60	C	0.780038	0.720217	0.774734
C61	C	0.143069	-0.000074	0.108611
C62	C	0.476403	0.333259	0.441944
C63	C	0.809736	0.666592	0.775278
C64	C	0.143067	-0.107317	0.108637
C65	C	0.476400	0.226017	0.441970
C66	C	0.809734	0.559350	0.775303
C67	C	0.202466	-0.107314	0.109696
C68	C	0.535800	0.226019	0.443030
C69	C	0.869133	0.559352	0.776363
C70	C	0.232167	-0.053692	0.110213
C71	C	0.565500	0.279642	0.443547
C72	C	0.898834	0.612975	0.776880
C73	C	0.202469	-0.000072	0.109671
C74	C	0.535802	0.333262	0.443004
C75	C	0.869135	0.666595	0.776337
C76	C	0.143076	0.107176	0.108576
C77	C	0.476409	0.440509	0.441909
C78	C	0.809743	0.773843	0.775243
C79	C	0.202483	0.107173	0.109628
C80	C	0.535816	0.440506	0.442961
C81	C	0.869150	0.773840	0.776294
C82	C	0.232181	0.053549	0.110171
C83	C	0.565515	0.386882	0.443504
C84	C	0.898848	0.720215	0.776838
C85	C	0.291569	0.053553	0.111247
C86	C	0.624902	0.386887	0.444581
C87	C	0.958236	0.720220	0.777914
N88	N	0.321271	-0.000067	0.111782
N89	N	0.654604	0.333266	0.445116
N90	N	0.987938	0.666599	0.778449
C91	C	0.291570	-0.053690	0.111265
C92	C	0.624903	0.279643	0.444599
C93	C	0.958237	0.612977	0.777932
C94	C	-0.070782	0.053541	0.104805
C95	C	0.262551	0.386874	0.438138
C96	C	0.595885	0.720207	0.771471
C97	C	-0.130184	0.053539	0.103759
C98	C	0.203149	0.386873	0.437092
C99	C	0.536482	0.720206	0.770425
C100	C	-0.130183	-0.053708	0.103777
C101	C	0.203150	0.279625	0.437111
C102	C	0.536483	0.612958	0.770444
C103	C	-0.070780	-0.053707	0.104829
C104	C	0.262553	0.279627	0.438163
C105	C	0.595886	0.612960	0.771496
C106	C	-0.041080	-0.000080	0.105340
C107	C	0.292254	0.333253	0.438673
C108	C	0.625587	0.666586	0.772006
C109	C	0.416313	-0.053681	0.113491
C110	C	0.749646	0.279653	0.446825
C111	C	1.082979	0.612986	0.780158
C112	C	0.475717	-0.053673	0.114555
C113	C	0.809050	0.279660	0.447888
C114	C	1.142384	0.612993	0.781221
C115	C	0.475711	0.053574	0.114531
C116	C	0.809044	0.386907	0.447865
C117	C	1.142378	0.720241	0.781198
C118	C	0.416312	0.053567	0.113473
C119	C	0.749645	0.386900	0.446806
C120	C	1.082978	0.720234	0.780139
C121	C	0.386614	-0.000065	0.112950
C122	C	0.719948	0.333268	0.446283
C123	C	1.053281	0.666602	0.779617
O124	O	0.322335	0.099132	0.111812
O125	O	0.655668	0.432465	0.445145
O126	O	0.989002	0.765799	0.778478
O127	O	0.322297	-0.099291	0.111807
O128	O	0.655630	0.234043	0.445141
O129	O	0.988963	0.567376	0.778474
C130	C	0.711491	-0.561973	0.051713
C131	C	1.044825	-0.228640	0.385047
C132	C	1.378158	0.104694	0.718380
C133	C	0.711494	-0.623893	0.051707
C134	C	1.044827	-0.290560	0.385041
C135	C	1.378161	0.042774	0.718374
O136	O	0.744414	-0.655918	0.002857
O137	O	1.077747	-0.322584	0.336190
O138	O	1.411081	0.010749	0.669524
N139	N	0.672774	-0.654862	0.109124
N140	N	1.006107	-0.321529	0.442458
N141	N	1.339440	0.011805	0.775791
C142	C	0.634044	-0.623908	0.166546
C143	C	0.967377	-0.290575	0.499879
C144	C	1.300711	0.042759	0.833212
O145	O	0.601109	-0.655935	0.215382
O146	O	0.934442	-0.322602	0.548716
O147	O	1.267776	0.010731	0.882049
C148	C	0.634039	-0.561989	0.166547
C149	C	0.967372	-0.228656	0.499881
C150	C	1.300705	0.104677	0.833214
C151	C	0.672766	-0.531023	0.109132
C152	C	1.006099	-0.197690	0.442465
C153	C	1.339432	0.135643	0.775799
C154	C	0.750215	-0.531007	-0.005698
C155	C	1.083548	-0.197674	0.327636
C156	C	1.416881	0.135659	0.660969
C157	C	0.750212	-0.469092	-0.005690
C158	C	1.083546	-0.135758	0.327643
C159	C	1.416879	0.197575	0.660976
C160	C	0.711487	-0.438142	0.051728
C161	C	1.044820	-0.104809	0.385061
C162	C	1.378153	0.228525	0.718395
C163	C	0.672763	-0.469108	0.109139
C164	C	1.006097	-0.135774	0.442473
C165	C	1.339430	0.197559	0.775806
C166	C	0.595307	-0.531036	0.223964
C167	C	0.928640	-0.197703	0.557297
C168	C	1.261973	0.135630	0.890631
C169	C	0.595305	-0.469113	0.223960
C170	C	0.928638	-0.135780	0.557293
C171	C	1.261971	0.197553	0.890627
C172	C	0.634031	-0.438147	0.166545
C173	C	0.967365	-0.104814	0.499878
C174	C	1.300698	0.228519	0.833211
C175	C	0.634035	-0.376242	0.166565
C176	C	0.967369	-0.042909	0.499899
C177	C	1.300702	0.290424	0.833232
N178	N	0.672756	-0.345273	0.109148
N179	N	1.006089	-0.011940	0.442481
N180	N	1.339422	0.321393	0.775815
C181	C	0.711481	-0.376223	0.051730
C182	C	1.044815	-0.042890	0.385063
C183	C	1.378148	0.290444	0.718396
C184	C	0.634057	-0.753942	0.166537
C185	C	0.967390	-0.420608	0.499871
C186	C	1.300724	-0.087275	0.833204
C187	C	0.634065	-0.815859	0.166541
C188	C	0.967398	-0.482526	0.499874
C189	C	1.300731	-0.149193	0.833207
C190	C	0.711514	-0.815840	0.051701
C191	C	1.044848	-0.482507	0.385034
C192	C	1.378181	-0.149173	0.718368
C193	C	0.711509	-0.753921	0.051702
C194	C	1.044842	-0.420588	0.385036
C195	C	1.378176	-0.087255	0.718369
C196	C	0.672778	-0.722973	0.109120
C197	C	1.006111	-0.389639	0.442454
C198	C	1.339444	-0.056306	0.775787
C199	C	0.711474	-0.246196	0.051750
C200	C	1.044807	0.087138	0.385083
C201	C	1.378141	0.420471	0.718417
C202	C	0.711470	-0.184275	0.051765
C203	C	1.044803	0.149059	0.385098
C204	C	1.378136	0.482392	0.718431
C205	C	0.634018	-0.184299	0.166601
C206	C	0.967352	0.149034	0.499934
C207	C	1.300685	0.482367	0.833268
C208	C	0.634024	-0.246215	0.166590
C209	C	0.967358	0.087118	0.499923
C210	C	1.300691	0.420452	0.833256
C211	C	0.672754	-0.277162	0.109157
C212	C	1.006088	0.056172	0.442490
C213	C	1.339421	0.389505	0.775824
O214	O	0.601131	-0.344179	0.215388
O215	O	0.934464	-0.010845	0.548722
O216	O	1.267797	0.322488	0.882055
O217	O	0.744406	-0.344188	0.002894
O218	O	1.077739	-0.010855	0.336227
O219	O	1.411072	0.322478	0.669560
C220	C	0.776887	-0.000080	0.102125
C221	C	1.110220	0.333253	0.435458
C222	C	1.443554	0.666586	0.768791
C223	C	0.840110	-0.000083	0.103237
C224	C	1.173443	0.333250	0.436570
C225	C	1.506777	0.666583	0.769904
C226	C	0.676916	-0.000076	-0.044451
C227	C	1.010249	0.333258	0.288883
C228	C	1.343583	0.666591	0.622216
C229	C	0.675789	-0.000076	-0.137687
C230	C	1.009122	0.333258	0.195647
C231	C	1.342456	0.666591	0.528980
N232	N	0.672788	0.153186	0.109119
N233	N	1.006122	0.486519	0.442452
N234	N	1.339455	0.819852	0.775785
C235	C	0.618900	-0.000061	-0.352049
C236	C	0.952233	0.333272	-0.018715
C237	C	1.285566	0.666606	0.314618
C238	C	0.645310	-0.048566	-0.413286
C239	C	0.978643	0.284767	-0.079953
C240	C	1.311976	0.618101	0.253380
C241	C	0.673750	-0.000071	-0.308395
C242	C	1.007083	0.333262	0.024938
C243	C	1.340417	0.666596	0.358272
C244	C	0.645338	0.048418	-0.413289
C245	C	0.978671	0.381752	-0.079955
C246	C	1.312004	0.715085	0.253378
C247	C	0.671776	-0.000064	-0.473290
C248	C	1.005110	0.333270	-0.139957
C249	C	1.338443	0.666603	0.193376
C250	C	0.700175	-0.048616	-0.368405
C251	C	1.033508	0.284717	-0.035071
C252	C	1.366841	0.618051	0.298262
C253	C	0.700195	0.048412	-0.368400
C254	C	1.033529	0.381745	-0.035067
C255	C	1.366862	0.715079	0.298266
C256	C	0.726645	-0.000105	-0.429621
C257	C	1.059978	0.333228	-0.096288
C258	C	1.393312	0.666562	0.237046
C259	C	0.674885	-0.000076	-0.213403
C260	C	1.008219	0.333258	0.119931
C261	C	1.341552	0.666591	0.453264
C262	C	0.670645	-0.000063	-0.568282
C263	C	1.003979	0.333270	-0.234948
C264	C	1.337312	0.666603	0.098385
C265	C	0.668612	-0.000062	0.262759
C266	C	1.001945	0.333271	0.596093
C267	C	1.335279	0.666604	0.929426
C268	C	0.669739	-0.000058	0.355995
C269	C	1.003072	0.333275	0.689329
C270	C	1.336406	0.666608	1.022662
H271	H	0.392139	-0.097353	0.113073
H272	H	0.725473	0.235980	0.446407
H273	H	1.058806	0.569314	0.779740
N274	N	0.592265	-0.279624	0.228519
N275	N	0.925598	0.053709	0.561853
N276	N	1.258931	0.387043	0.895186
H277	H	0.598824	-0.268856	0.288086
H278	H	0.932158	0.064478	0.621419
H279	H	1.265491	0.397811	0.954753
H280	H	0.551864	-0.268837	0.219090
H281	H	0.885197	0.064496	0.552424
H282	H	1.218530	0.397830	0.885757
N283	N	0.614579	-0.102878	-0.439660
N284	N	0.947913	0.230456	-0.106327
N285	N	1.281246	0.563789	0.227006
H286	H	0.634887	-0.139510	-0.422529
H287	H	0.968220	0.193823	-0.089196
H288	H	1.301553	0.527156	0.244137
H289	H	0.573888	-0.102788	-0.411144
H290	H	0.907221	0.230545	-0.077810
H291	H	1.240555	0.563879	0.255523
N292	N	0.753273	-0.720534	-0.010242
N293	N	1.086606	-0.387200	0.323091
N294	N	1.419939	-0.053867	0.656425
H295	H	0.731506	-0.694850	-0.047268
H296	H	1.064840	-0.361517	0.286066
H297	H	1.398173	-0.028183	0.619399
H298	H	0.778482	-0.694872	0.021705
H299	H	1.111816	-0.361539	0.355039
H300	H	1.445149	-0.028205	0.688372
N301	N	0.111058	0.165016	0.107979
N302	N	0.444391	0.498350	0.441312
N303	N	0.777725	0.831683	0.774646
H304	H	0.091033	0.167401	0.055461
H305	H	0.424367	0.500734	0.388795
H306	H	0.757700	0.834067	0.722128
H307	H	0.081821	0.167386	0.159649
H308	H	0.415155	0.500720	0.492982
H309	H	0.748488	0.834053	0.826316
N310	N	0.234517	0.165014	0.110172
N311	N	0.567851	0.498348	0.443505
N312	N	0.901184	0.831681	0.776839
H313	H	0.206686	0.198980	0.109667
H314	H	0.540019	0.532314	0.443000
H315	H	0.873353	0.865647	0.776334
H316	H	0.254545	0.167359	0.162688
H317	H	0.587878	0.500693	0.496021
H318	H	0.921211	0.834026	0.829354
H319	H	-0.046604	0.097212	0.105228
H320	H	0.286729	0.430546	0.438561
H321	H	0.620063	0.763879	0.771894
N322	N	0.614604	0.102732	-0.439643
N323	N	0.947937	0.436066	-0.106309
N324	N	1.281270	0.769399	0.227024
H325	H	0.601086	0.127192	-0.388106
H326	H	0.934419	0.460525	-0.054773
H327	H	1.267752	0.793859	0.278560
H328	H	0.641594	0.126989	-0.479951
H329	H	0.974928	0.460322	-0.146618
H330	H	1.308261	0.793656	0.186715
N331	N	0.592289	-0.720560	0.228481
N332	N	0.925623	-0.387227	0.561814
N333	N	1.258956	-0.053894	0.895148
H334	H	0.567069	-0.694872	0.196585
H335	H	0.900402	-0.361538	0.529918
H336	H	1.233736	-0.028205	0.863252
H337	H	0.567802	-0.749614	0.264838
H338	H	0.901136	-0.416281	0.598171
H339	H	1.234469	-0.082947	0.931505
N340	N	0.234488	-0.165156	0.110278
N341	N	0.567821	0.168178	0.443612
N342	N	0.901155	0.501511	0.776945
H343	H	0.228763	-0.188597	0.058021
H344	H	0.562096	0.144736	0.391355
H345	H	0.895429	0.478069	0.724688
H346	H	0.276615	-0.156981	0.111058
H347	H	0.609949	0.176352	0.444391
H348	H	0.943282	0.509685	0.777724
N349	N	0.558596	-0.000113	-0.307396
N350	N	0.891929	0.333220	0.025937
N351	N	1.225263	0.666554	0.359271
H352	H	0.537661	0.036145	-0.324401
H353	H	0.870994	0.369478	0.008932
H354	H	1.204328	0.702812	0.342266
H355	H	0.537992	-0.036807	-0.323604
H356	H	0.871326	0.296526	0.009729
H357	H	1.204659	0.629860	0.343063
H358	H	0.781745	-0.443883	-0.052445
H359	H	1.115079	-0.110549	0.280888
H360	H	1.448412	0.222784	0.614222
N361	N	0.730874	-0.102994	-0.342193
N362	N	1.064207	0.230339	-0.008859
N363	N	1.397540	0.563672	0.324474
H364	H	0.731428	-0.102671	-0.278953
H365	H	1.064762	0.230663	0.054381
H366	H	1.398095	0.563996	0.387714
H367	H	0.710289	-0.139551	-0.358951
H368	H	1.043623	0.193783	-0.025618
H369	H	1.376956	0.527116	0.307716
N370	N	0.787003	-0.000142	-0.474074
N371	N	1.120336	0.333191	-0.140740
N372	N	1.453669	0.666525	0.192593
H373	H	0.807634	-0.036795	-0.457773
H374	H	1.140968	0.296539	-0.124440
H375	H	1.474301	0.629872	0.208894
H376	H	0.785869	0.000228	-0.537192
H377	H	1.119203	0.333562	-0.203859
H378	H	1.452536	0.666895	0.129474
N379	N	0.111039	-0.165158	0.108076
N380	N	0.444372	0.168176	0.441409
N381	N	0.777705	0.501509	0.774743
H382	H	0.138924	-0.199118	0.108006
H383	H	0.472258	0.134215	0.441340
H384	H	0.805591	0.467548	0.774673
H385	H	0.082040	-0.167669	0.160009
H386	H	0.415374	0.165665	0.493342
H387	H	0.748707	0.498998	0.826676
H388	H	0.392129	0.097232	0.113044
H389	H	0.725462	0.430566	0.446377
H390	H	1.058796	0.763899	0.779710
N391	N	0.730908	0.102726	-0.342013
N392	N	1.064241	0.436060	-0.008679
N393	N	1.397575	0.769393	0.324654
H394	H	0.704154	0.126604	-0.300861
H395	H	1.037487	0.459937	0.032472
H396	H	1.370820	0.793271	0.365805
H397	H	0.765376	0.090321	-0.314133
H398	H	1.098709	0.423654	0.019200
H399	H	1.432042	0.756988	0.352533
H400	H	0.499894	-0.097343	0.115000
H401	H	0.833228	0.235991	0.448333
H402	H	1.166561	0.569324	0.781667
N403	N	0.592251	-0.150912	0.228529
N404	N	0.925585	0.182421	0.561863
N405	N	1.258918	0.515755	0.895196
H406	H	0.598128	-0.106989	0.219813
H407	H	0.931461	0.226345	0.553146
H408	H	1.264794	0.559678	0.886480
H409	H	0.551853	-0.161737	0.219131
H410	H	0.885187	0.171596	0.552464
H411	H	1.218520	0.504930	0.885798
H412	H	-0.046604	-0.097372	0.105273
H413	H	0.286729	0.235961	0.438606
H414	H	0.620063	0.569294	0.771940
H415	H	-0.154376	-0.097371	0.103355
H416	H	0.178957	0.235963	0.436688
H417	H	0.512290	0.569296	0.770021
H418	H	-0.154361	0.097206	0.103329
H419	H	0.178973	0.430539	0.436663
H420	H	0.512306	0.763873	0.769996
H421	H	0.499904	0.097232	0.114956
H422	H	0.833237	0.430566	0.448289
H423	H	1.166571	0.763899	0.781623
H424	H	0.743008	-0.159064	0.005010
H425	H	1.076341	0.174269	0.338344
H426	H	1.409674	0.507603	0.671677
N427	N	0.753249	-0.279569	-0.010188
N428	N	1.086582	0.053765	0.323145
N429	N	1.419916	0.387098	0.656479
H430	H	0.777779	-0.250549	-0.046549
H431	H	1.111112	0.082784	0.286784
H432	H	1.444445	0.416118	0.620117
H433	H	0.778426	-0.305256	0.021777
H434	H	1.111760	0.028077	0.355110
H435	H	1.445093	0.361410	0.688444
H436	H	0.781750	-0.556201	-0.052459
H437	H	1.115083	-0.222868	0.280875
H438	H	1.448416	0.110466	0.614208
H439	H	0.743046	-0.841051	0.004946
H440	H	1.076379	-0.507717	0.338280
H441	H	1.409713	-0.174384	0.671613
H442	H	0.602536	-0.841067	0.213302
H443	H	0.935869	-0.507734	0.546635
H444	H	1.269202	-0.174401	0.879969
H445	H	0.563772	-0.556240	0.270716
H446	H	0.897105	-0.222907	0.604049
H447	H	1.230438	0.110427	0.937383
N448	N	0.553526	-0.435733	0.285887
N449	N	0.886860	-0.102400	0.619220
N450	N	1.220193	0.230933	0.952554
H451	H	0.528997	-0.464750	0.322254
H452	H	0.862330	-0.131416	0.655587
H453	H	1.195663	0.201917	0.988921
H454	H	0.575323	-0.410043	0.322860
H455	H	0.908656	-0.076710	0.656193
H456	H	1.241990	0.256623	0.989527
