data_functionalizedCrystal
_audit_creation_method	'MofGen! by Chris Wilmer'
_symmetry_space_group_name_H-M	'P1'
_symmetry_Int_Tables_number	1
_symmetry_cell_setting	triclinic
loop_
_symmetry_equiv_pos_as_xyz
  x,y,z
_cell_length_a	9.065218
_cell_length_b	14.853567
_cell_length_c	8.140239
_cell_angle_alpha	90.000276
_cell_angle_beta	89.997198
_cell_angle_gamma	84.325408
loop_
_atom_site_label
_atom_site_type_symbol
_atom_site_fract_x
_atom_site_fract_y
_atom_site_fract_z
O1	O	1.957778	0.132191	-0.136602
O2	O	1.528278	0.143034	-0.136603
O3	O	1.754501	0.006468	-0.136607
O4	O	1.731555	0.268757	-0.136598
O5	O	1.754488	0.006466	0.136620
O6	O	1.528266	0.143032	0.136624
O7	O	1.957765	0.132189	0.136625
Zn8	Zn	1.743014	0.137611	0.180005
Zn9	Zn	1.743030	0.137613	-0.179983
O10	O	1.731543	0.268756	0.136630
C11	C	1.473306	0.141991	0.000010
C12	C	1.309525	0.138875	0.000009
C13	C	1.753455	-0.027130	0.000001
C14	C	1.750339	-0.127236	-0.000013
C15	C	1.602788	-0.540862	0.000018
C16	C	1.871546	-0.560154	0.000019
C17	C	1.874475	-0.466099	0.000009
C18	C	1.741559	-0.409421	0.000006
C19	C	1.605714	-0.446798	0.000013
C20	C	2.010318	-0.428714	0.000018
C21	C	2.013253	-0.334654	0.000011
C22	C	1.880335	-0.277974	-0.000004
C23	C	1.744484	-0.315356	0.000002
C24	C	1.611568	-0.258678	-0.000001
C25	C	1.475716	-0.296059	-0.000008
C26	C	1.472796	-0.390118	-0.000001
C27	C	1.883255	-0.183915	-0.000010
C28	C	1.614494	-0.164614	-0.000006
C29	C	2.012738	0.133232	0.000008
C30	C	2.176519	0.136348	-0.000001
C31	C	1.732589	0.302353	0.000017
C32	C	1.735704	0.402460	0.000021
N33	N	1.743013	0.137609	0.425688
N34	N	1.743042	0.137608	-0.425666
H35	H	1.506255	-0.118471	-0.000015
H36	H	1.367496	-0.249899	0.000002
H37	H	2.123872	-0.304227	0.000014
O38	O	2.000694	-0.615168	0.000312
C39	C	2.083177	-0.598032	0.141789
H40	H	2.005356	-0.566527	0.240697
H41	H	2.142208	-0.664264	0.189291
H42	H	2.168663	-0.549451	0.109785
O43	O	1.340933	-0.426538	-0.000212
C44	C	1.331192	-0.480359	-0.141728
H45	H	1.447428	-0.502823	-0.188910
H46	H	1.272273	-0.542421	-0.109887
H47	H	1.265999	-0.439357	-0.240820
O48	O	1.470955	-0.577317	0.000087
C49	C	1.496863	-0.672489	0.000041
H50	H	1.611946	-0.693632	0.051769
H51	H	1.409923	-0.702073	0.079363
H52	H	1.489668	-0.698722	-0.131042
O53	O	2.015240	-0.147643	-0.000299
C54	C	2.096302	-0.176521	-0.141778
H55	H	2.016881	-0.196741	-0.240682
H56	H	2.159180	-0.119042	-0.189285
H57	H	2.178394	-0.237131	-0.109772
H58	H	2.118531	-0.474868	0.000036
