data_functionalizedCrystal
_audit_creation_method	'MofGen! by Chris Wilmer'
_symmetry_space_group_name_H-M	'P1'
_symmetry_Int_Tables_number	1
_symmetry_cell_setting	triclinic
loop_
_symmetry_equiv_pos_as_xyz
  x,y,z
_cell_length_a	9.065218
_cell_length_b	14.472310
_cell_length_c	9.065215
_cell_angle_alpha	89.999982
_cell_angle_beta	85.015291
_cell_angle_gamma	90.013153
loop_
_atom_site_label
_atom_site_type_symbol
_atom_site_fract_x
_atom_site_fract_y
_atom_site_fract_z
O1	O	1.960419	0.076841	0.216347
O2	O	1.531134	0.076842	0.234094
O3	O	1.754651	0.076838	0.010578
O4	O	1.736901	0.076846	0.439863
O5	O	1.754593	-0.076844	0.010590
O6	O	1.531075	-0.076840	0.234106
O7	O	1.960360	-0.076841	0.216360
Cu8	Cu	1.745713	-0.090873	0.225234
Cu9	Cu	1.745781	0.090874	0.225219
O10	O	1.736842	-0.076836	0.439876
C11	C	1.476118	0.000002	0.232394
C12	C	1.312275	0.000002	0.227295
N13	N	1.745675	-0.218703	0.225244
C14	C	1.745779	-0.592795	0.225213
C15	C	1.625767	-0.553626	0.344400
C16	C	1.626054	-0.446538	0.344845
C17	C	1.745726	-0.407204	0.225228
C18	C	1.900135	-0.446040	0.260913
C19	C	1.899464	-0.553162	0.261763
C20	C	1.712751	-0.553327	0.070002
C21	C	1.709234	-0.446199	0.070987
C22	C	1.745706	-0.302315	0.225234
C23	C	1.745810	-0.697683	0.225211
C24	C	2.015376	0.000002	0.218059
C25	C	2.179219	0.000008	0.223159
C26	C	1.752917	-0.000002	-0.044403
C27	C	1.747819	0.000001	-0.208246
N28	N	1.745830	0.218705	0.225198
C29	C	1.738576	0.000006	0.494856
C30	C	1.743674	0.000009	0.658699
H31	H	1.510692	-0.579414	0.323161
O32	O	1.937592	-0.586249	0.411784
H33	H	2.039601	-0.628924	0.398499
H34	H	1.646791	-0.580534	0.458887
O35	O	1.654283	-0.412566	0.497349
H36	H	1.667798	-0.472650	0.571065
O37	O	1.558757	-0.412584	0.035184
H38	H	1.570424	-0.372008	-0.069080
O39	O	2.021455	-0.587492	0.151307
H40	H	2.080675	-0.527580	0.097529
O41	O	1.817306	-0.410764	-0.052223
H42	H	1.899085	-0.364601	-0.005238
H43	H	1.991660	-0.420559	0.176498
O44	O	1.566675	-0.589157	0.025244
H45	H	1.545947	-0.560339	-0.084525
O46	O	1.939112	-0.410506	0.409253
H47	H	1.943953	-0.333883	0.406575
O48	O	1.474106	-0.411747	0.316312
H49	H	1.399755	-0.471435	0.302076
O50	O	1.828626	-0.586882	-0.047532
H51	H	1.909360	-0.631452	0.004250
