data_functionalizedCrystal
_audit_creation_method	'MofGen! by Chris Wilmer'
_symmetry_space_group_name_H-M	'P1'
_symmetry_Int_Tables_number	1
_symmetry_cell_setting	triclinic
loop_
_symmetry_equiv_pos_as_xyz
  x,y,z
_cell_length_a	16.974810
_cell_length_b	15.500227
_cell_length_c	16.974755
_cell_angle_alpha	90.826733
_cell_angle_beta	96.375854
_cell_angle_gamma	90.810502
loop_
_atom_site_label
_atom_site_type_symbol
_atom_site_fract_x
_atom_site_fract_y
_atom_site_fract_z
O1	O	-1.049310	0.005480	0.100460
O2	O	-0.819954	0.022386	0.112442
O3	O	-0.940625	0.005475	-0.008229
O4	O	-0.928639	0.022391	0.221131
O5	O	-0.933303	-0.137390	-0.000936
O6	O	-0.812631	-0.120478	0.119735
O7	O	-1.041987	-0.137385	0.107754
Cu8	Cu	-0.926641	-0.141976	0.114411
Cu9	Cu	-0.935301	0.026978	0.105785
O10	O	-0.921316	-0.120473	0.228425
C11	C	-0.786938	-0.047031	0.115498
C12	C	-0.699470	-0.041027	0.113731
C13	C	-0.654391	-0.116084	0.116874
C14	C	-0.572207	-0.110447	0.115201
C15	C	-0.535104	-0.029751	0.110389
C16	C	-0.580190	0.045312	0.107243
C17	C	-0.662373	0.039673	0.108911
C18	C	-0.289742	-0.004536	0.104970
C19	C	-0.207553	0.001097	0.103304
C20	C	-0.199577	-0.154662	0.111260
C21	C	-0.281761	-0.160293	0.112933
C22	C	-0.326840	-0.085231	0.109782
N23	N	-0.451099	-0.023986	0.108681
N24	N	-0.410844	-0.090997	0.111485
N25	N	-0.920556	-0.260810	0.120477
C26	C	-0.971706	-0.313252	0.069364
C27	C	-0.967111	-0.403181	0.073959
C28	C	-0.911369	-0.440666	0.129672
C29	C	-0.860213	-0.388216	0.180788
C30	C	-0.864805	-0.298289	0.176188
C31	C	-0.894828	-0.711813	0.146229
C32	C	-0.890242	-0.801747	0.150826
C33	C	-0.997139	-0.816706	0.043995
C34	C	-1.001729	-0.726776	0.039404
C35	C	-0.950570	-0.674335	0.090517
C36	C	-0.906673	-0.532587	0.134372
C37	C	-0.955264	-0.582415	0.085812
C38	C	-0.075004	-0.067965	0.104693
C39	C	-0.162474	-0.073960	0.106448
C40	C	-0.936375	-0.067972	-0.033938
C41	C	-0.934609	-0.073974	-0.121408
N42	N	-0.941392	0.145810	0.099712
C43	C	-0.924174	-0.116077	-0.613338
C44	C	-0.925840	-0.110442	-0.531151
C45	C	-0.930671	-0.029748	-0.494026
C46	C	-0.933828	0.045317	-0.539091
C47	C	-0.932156	0.039682	-0.621275
C48	C	-0.936094	-0.004544	-0.248657
C49	C	-0.937768	0.001086	-0.166467
C50	C	-0.929779	-0.154674	-0.158533
C51	C	-0.928112	-0.160303	-0.240720
C52	C	-0.931265	-0.085237	-0.285777
N53	N	-0.932376	-0.023987	-0.410019
N54	N	-0.929553	-0.090999	-0.369782
C55	C	-0.925567	-0.047025	0.254133
C56	C	-0.927333	-0.041017	0.341603
H57	H	-0.684593	-0.181795	0.120799
C58	C	-0.922781	-0.249063	-0.281553
H59	H	-0.922241	-0.241668	-0.336953
H60	H	-0.875509	-0.276498	-0.260547
H61	H	-0.967316	-0.283778	-0.272362
C62	C	-0.838562	-0.654139	0.202457
H63	H	-0.804715	-0.689346	0.236302
H64	H	-0.807487	-0.618761	0.172226
H65	H	-0.868777	-0.618735	0.233550
C66	C	-0.926300	-0.237237	-0.108968
H67	H	-0.927980	-0.222327	-0.054704
H68	H	-0.970283	-0.273796	-0.126707
H69	H	-0.878475	-0.266520	-0.114904
H70	H	-0.920243	-0.181787	-0.643559
H71	H	-1.008761	-0.445880	0.032338
H72	H	-0.938668	0.056580	-0.285333
C73	C	-1.033027	-0.272023	0.008086
H74	H	-1.028444	-0.210954	0.012671
H75	H	-1.023601	-0.289847	-0.043773
H76	H	-1.084876	-0.289824	0.017566
C77	C	-0.922374	-0.193008	-0.481591
H78	H	-0.919269	-0.241874	-0.515473
H79	H	-0.876959	-0.190424	-0.443461
H80	H	-0.968768	-0.197673	-0.455272
C81	C	-1.053403	-0.874388	-0.012233
H82	H	-1.087260	-0.839184	-0.046069
H83	H	-1.023192	-0.909794	-0.043321
H84	H	-1.084480	-0.909765	0.018005
C85	C	-0.828881	-0.842979	0.212071
H86	H	-0.799053	-0.798868	0.241837
H87	H	-0.855466	-0.877752	0.246768
H88	H	-0.794247	-0.877745	0.185373
C89	C	-0.943081	0.089853	-0.125630
H90	H	-0.944714	0.133754	-0.164234
H91	H	-0.989803	0.091656	-0.099641
H92	H	-0.897994	0.098916	-0.087829
C93	C	-0.939143	0.134079	-0.498256
H94	H	-0.939695	0.126686	-0.442857
H95	H	-0.894611	0.168789	-0.507451
H96	H	-0.986418	0.161518	-0.519262
H97	H	-1.000646	-0.551892	0.040448
H98	H	-0.934724	0.100804	-0.657961
H99	H	-0.861288	-0.563114	0.179736
H100	H	-0.814823	-0.418741	0.226148
H101	H	-0.535509	-0.171567	0.117747
H102	H	-0.311965	-0.226005	0.116847
C103	C	-1.063041	-0.685549	-0.021885
H104	H	-1.092842	-0.729663	-0.051674
H105	H	-1.097695	-0.650763	0.004760
H106	H	-1.036406	-0.650797	-0.056565
C107	C	-0.149985	-0.237220	0.114753
H108	H	-0.095725	-0.222308	0.113076
H109	H	-0.155927	-0.266489	0.162571
H110	H	-0.167701	-0.273794	0.070763
H111	H	-0.177346	0.066813	0.099389
H112	H	-0.549974	0.111016	0.103320
C113	C	-0.711959	0.122236	0.105459
H114	H	-0.678092	0.171104	0.102362
H115	H	-0.750086	0.119644	0.060042
H116	H	-0.738282	0.126903	0.151853
H117	H	-0.326436	0.056585	0.102402
H118	H	-0.823152	-0.255591	0.217809
