data_functionalizedCrystal
_audit_creation_method	'MofGen! by Chris Wilmer'
_symmetry_space_group_name_H-M	'P1'
_symmetry_Int_Tables_number	1
_symmetry_cell_setting	triclinic
loop_
_symmetry_equiv_pos_as_xyz
  x,y,z
_cell_length_a	12.759394
_cell_length_b	12.759401
_cell_length_c	12.759393
_cell_angle_alpha	89.981198
_cell_angle_beta	89.968528
_cell_angle_gamma	90.014481
loop_
_atom_site_label
_atom_site_type_symbol
_atom_site_fract_x
_atom_site_fract_y
_atom_site_fract_z
Zn1	Zn	-0.418223	1.606251	-0.593994
Zn2	Zn	-0.593939	1.606146	-0.418312
Zn3	Zn	-0.418274	1.430554	-0.418331
Zn4	Zn	-0.593860	1.430541	-0.593951
O5	O	-0.506074	1.518373	-0.506147
O6	O	-0.441544	1.753258	-0.570699
O7	O	-0.570692	1.582815	-0.271293
O8	O	-0.271246	1.453910	-0.441659
O9	O	-0.570642	1.753181	-0.441626
O10	O	-0.271209	1.582994	-0.570718
O11	O	-0.441631	1.453808	-0.271307
O12	O	-0.441554	1.283531	-0.441618
O13	O	-0.570506	1.453888	-0.740978
O14	O	-0.570556	1.283522	-0.570645
O15	O	-0.441467	1.582981	-0.741009
O16	O	-0.740950	1.582802	-0.441584
O17	O	-0.740891	1.453786	-0.570626
C18	C	-0.506052	1.245406	-0.506130
C19	C	-0.506068	1.128629	-0.506147
C20	C	-0.438831	0.964016	-0.439091
C21	C	-0.438809	1.073740	-0.439081
C22	C	-0.573346	1.073788	-0.573236
C23	C	-0.573362	0.964066	-0.573251
C24	C	-0.371575	0.909133	-0.372013
C25	C	-0.304296	0.963966	-0.304926
C26	C	-0.304274	1.073691	-0.304915
C27	C	-0.371531	1.128581	-0.371992
C28	C	-0.779042	1.518310	-0.506121
C29	C	-0.895818	1.518379	-0.506146
C30	C	-0.895826	1.652824	-0.371875
C31	C	-0.950691	1.720074	-0.304753
C32	C	-1.060412	1.720136	-0.304781
C33	C	-1.115272	1.652942	-0.371942
C34	C	-1.060407	1.585693	-0.439065
C35	C	-0.950683	1.585636	-0.439027
C36	C	-1.060399	1.451254	-0.573339
C37	C	-0.950678	1.451186	-0.573307
C38	C	-1.115259	1.384061	-0.640500
C39	C	-1.060394	1.316804	-0.707619
C40	C	-0.950666	1.316744	-0.707587
C41	C	-0.895813	1.383936	-0.640429
C42	C	-0.232041	1.518465	-0.506195
C43	C	-0.115264	1.518504	-0.506216
C44	C	-0.505972	1.518445	-0.780180
C45	C	-0.505928	1.518476	-0.896957
C46	C	-0.506097	1.792406	-0.506165
C47	C	-0.506106	1.909183	-0.506172
C48	C	-0.573053	1.451311	-1.061529
C49	C	-0.573091	1.451279	-0.951805
C50	C	-0.438715	1.585702	-0.951839
C51	C	-0.438673	1.585729	-1.061561
C52	C	-0.640228	1.384117	-1.116372
C53	C	-0.707440	1.316889	-1.061498
C54	C	-0.707478	1.316856	-0.951774
C55	C	-0.640304	1.384052	-0.896924
C56	C	-0.506100	1.518362	-0.233179
C57	C	-0.505847	1.518535	-0.116403
H58	H	-0.371588	0.819790	-0.372012
H59	H	-0.249531	0.919267	-0.250321
Br60	Br	-0.876216	1.225480	-0.798696
H61	H	-0.806485	1.652767	-0.371832
H62	H	-0.640338	1.384017	-0.807579
Br63	Br	-0.212954	1.148106	-0.213884
H64	H	-0.628105	1.118489	-0.627846
H65	H	-0.384027	1.640410	-0.907171
H66	H	-0.806472	1.383887	-0.640390
H67	H	-1.204600	1.384120	-0.640523
Br68	Br	-0.347429	1.676928	-1.136040
H69	H	-0.371498	1.217926	-0.371989
Br70	Br	-1.134849	1.225633	-0.798766
Br71	Br	-0.640187	1.384165	-1.265283
Br72	Br	-0.664658	0.889642	-0.664298
H73	H	-0.906015	1.774785	-0.250073
Br74	Br	-1.134876	1.811412	-0.213694
H75	H	-1.204613	1.653008	-0.371968
Br76	Br	-0.798586	1.225687	-1.135934
H77	H	-0.762196	1.262107	-0.907098
