data_functionalizedCrystal
_audit_creation_method	'MofGen! by Chris Wilmer'
_symmetry_space_group_name_H-M	'P1'
_symmetry_Int_Tables_number	1
_symmetry_cell_setting	triclinic
loop_
_symmetry_equiv_pos_as_xyz
  x,y,z
_cell_length_a	11.792241
_cell_length_b	9.065218
_cell_length_c	8.140239
_cell_angle_alpha	90.001330
_cell_angle_beta	89.997269
_cell_angle_gamma	84.604650
loop_
_atom_site_label
_atom_site_type_symbol
_atom_site_fract_x
_atom_site_fract_y
_atom_site_fract_z
O1	O	-1.508025	-0.202221	-0.136447
O2	O	-1.008025	0.297779	0.363553
O3	O	-1.177800	-0.223062	-0.136484
O4	O	-0.677800	0.276938	0.363516
O5	O	-1.349738	0.002065	-0.136461
O6	O	-0.849738	0.502065	0.363539
O7	O	-1.336087	-0.427348	-0.136470
O8	O	-0.836087	0.072652	0.363530
O9	O	-1.349733	0.002066	0.136766
O10	O	-0.849733	0.502066	0.636766
O11	O	-1.177794	-0.223061	0.136743
O12	O	-0.677794	0.276939	0.636743
O13	O	-1.508020	-0.202219	0.136780
O14	O	-1.008020	0.297781	0.636780
Zn15	Zn	-1.342906	-0.212640	0.180142
Zn16	Zn	-0.842906	0.287360	0.680142
Zn17	Zn	-1.342914	-0.212642	-0.179846
Zn18	Zn	-0.842914	0.287358	0.320154
O19	O	-1.336081	-0.427346	0.136757
O20	O	-0.836081	0.072654	0.636757
C21	C	-1.348424	0.057040	0.000149
C22	C	-0.848424	0.557040	0.500149
C23	C	-1.344501	0.220846	0.000141
C24	C	-0.844501	0.720846	0.500141
C25	C	-1.135499	-0.221752	0.000124
C26	C	-0.635499	0.278248	0.500124
C27	C	-1.009464	-0.217834	0.000110
C28	C	-0.509464	0.282166	0.500110
C29	C	-1.550321	-0.203529	0.000168
C30	C	-1.050321	0.296471	0.500168
C31	C	-1.676356	-0.207448	0.000172
C32	C	-1.176356	0.292552	0.500172
C33	C	-0.778711	-0.210629	0.000157
C34	C	-0.278711	0.289371	0.500157
C35	C	-0.907119	-0.214632	0.000131
C36	C	-0.407119	0.285368	0.500131
C37	C	-1.337396	-0.482322	0.000143
C38	C	-0.837396	0.017678	0.500143
C39	C	-1.341319	-0.646128	0.000141
C40	C	-0.841319	-0.146128	0.500141
N41	N	-1.342910	-0.212638	0.425825
N42	N	-0.842910	0.287362	0.925825
N43	N	-1.342919	-0.212633	-0.425529
N44	N	-0.842919	0.287367	0.074471
