data_functionalizedCrystal
_audit_creation_method	'MofGen! by Chris Wilmer'
_symmetry_space_group_name_H-M	'P1'
_symmetry_Int_Tables_number	1
_symmetry_cell_setting	triclinic
loop_
_symmetry_equiv_pos_as_xyz
  x,y,z
_cell_length_a	17.639115
_cell_length_b	18.215404
_cell_length_c	18.215399
_cell_angle_alpha	90.027515
_cell_angle_beta	78.794130
_cell_angle_gamma	78.828295
loop_
_atom_site_label
_atom_site_type_symbol
_atom_site_fract_x
_atom_site_fract_y
_atom_site_fract_z
Zn1	Zn	-1.208241	0.520259	-0.188245
Zn2	Zn	-1.208145	0.643313	-0.065197
Zn3	Zn	-1.076077	0.495423	-0.090118
Zn4	Zn	-1.076043	0.618423	-0.213137
O5	O	-1.142127	0.569354	-0.139174
O6	O	-1.318825	0.557394	-0.151075
O7	O	-1.190600	0.623717	0.034476
O8	O	-1.093663	0.395743	-0.103147
O9	O	-1.318755	0.647800	-0.060673
O10	O	-1.190764	0.413991	-0.175240
O11	O	-1.093570	0.515063	0.016167
O12	O	-0.965476	0.490928	-0.127284
O13	O	-1.093605	0.605379	-0.312814
O14	O	-0.965451	0.581295	-0.217665
O15	O	-1.190731	0.533259	-0.294526
O16	O	-1.190567	0.742985	-0.084810
O17	O	-1.093512	0.724698	-0.193500
C18	C	-0.936787	0.530716	-0.177880
C19	C	-0.848941	0.514204	-0.194456
C20	C	-0.725163	0.443939	-0.264955
C21	C	-0.807707	0.459460	-0.249374
C22	C	-0.807641	0.553447	-0.155094
C23	C	-0.725096	0.537932	-0.170665
C24	C	-0.683863	0.483177	-0.225596
C25	C	-0.683796	0.577170	-0.131307
C26	C	-0.601257	0.561658	-0.146879
C27	C	-0.560019	0.506908	-0.201809
C28	C	-0.601324	0.467665	-0.241169
C29	C	-0.725030	0.631928	-0.076379
C30	C	-0.683731	0.671167	-0.037021
C31	C	-0.601191	0.655651	-0.052589
C32	C	-0.559952	0.600901	-0.107519
C33	C	-0.559885	0.694894	-0.013230
C34	C	-0.477347	0.679382	-0.028802
C35	C	-0.477413	0.585389	-0.123092
C36	C	-1.142047	0.760546	-0.139164
C37	C	-1.142085	0.842352	-0.139171
C38	C	-0.348268	0.608132	-0.100311
C39	C	-0.436114	0.624627	-0.083733
C40	C	-1.192744	1.040066	-0.082649
C41	C	-1.192781	1.116932	-0.082664
C42	C	-1.091630	1.097913	-0.195783
C43	C	-1.091598	1.021050	-0.195770
C44	C	-1.142154	0.992128	-0.139199
C45	C	-1.142223	1.145857	-0.139227
C46	C	-1.142262	1.229198	-0.139243
C47	C	-1.142115	0.908782	-0.139183
C48	C	-1.142175	0.569313	-0.331118
C49	C	-1.142195	0.569295	-0.412913
C50	C	-1.142233	1.377421	-0.139209
C51	C	-1.142291	1.295633	-0.139255
C52	C	-1.192787	0.531701	-0.591582
C53	C	-1.192796	0.531682	-0.668439
C54	C	-1.091660	0.606785	-0.687471
C55	C	-1.091647	0.606800	-0.610616
C56	C	-1.142215	0.569260	-0.562673
C57	C	-1.142237	0.569226	-0.716385
C58	C	-1.142247	0.569204	-0.799717
C59	C	-1.142204	0.569280	-0.479336
C60	C	-1.142124	0.569351	0.052032
C61	C	-1.142257	0.569191	0.133855
H62	H	-0.691588	0.399344	-0.309677
H63	H	-1.233978	1.155961	-0.036616
H64	H	-1.233976	0.501096	-0.691973
H65	H	-1.050468	1.121471	-0.241839
H66	H	-1.050401	0.982015	-0.241823
O67	O	-0.852119	0.612495	-0.095842
H68	H	-0.889734	0.657049	-0.121611
O69	O	-1.037096	0.647304	-0.579422
H70	H	-0.996903	0.606795	-0.551997
O71	O	-1.037121	0.647275	-0.739180
H72	H	-1.045629	0.640961	-0.797479
O73	O	-1.247319	0.491208	-0.539870
H74	H	-1.282480	0.465082	-0.572889
H75	H	-0.443839	0.540794	-0.167814
H76	H	-1.233911	1.016521	-0.036586
H77	H	-0.492811	0.494281	-0.214489
H78	H	-0.567750	0.423070	-0.285891
H79	H	-0.792239	0.644545	-0.063691
O80	O	-0.852255	0.417131	-0.291822
H81	H	-0.809714	0.376448	-0.332629
O82	O	-0.728208	0.730214	0.022232
H83	H	-0.765824	0.774769	-0.003537
O84	O	-0.604360	0.753948	0.046017
H85	H	-0.668693	0.758140	0.050235
H86	H	-0.443719	0.711335	0.003246
