data_functionalizedCrystal
_audit_creation_method	'MofGen! by Chris Wilmer'
_symmetry_space_group_name_H-M	'P1'
_symmetry_Int_Tables_number	1
_symmetry_cell_setting	triclinic
loop_
_symmetry_equiv_pos_as_xyz
  x,y,z
_cell_length_a	19.077399
_cell_length_b	18.215405
_cell_length_c	18.215399
_cell_angle_alpha	89.969449
_cell_angle_beta	92.275086
_cell_angle_gamma	92.324501
loop_
_atom_site_label
_atom_site_type_symbol
_atom_site_fract_x
_atom_site_fract_y
_atom_site_fract_z
Zn1	Zn	1.075970	-0.247799	-0.371003
Zn2	Zn	1.575970	0.252201	0.128997
Zn3	Zn	1.075882	-0.370874	-0.247935
Zn4	Zn	1.575882	0.129126	0.252065
Zn5	Zn	0.958274	-0.252766	-0.252883
Zn6	Zn	1.458274	0.247234	0.247117
Zn7	Zn	0.958241	-0.375773	-0.375891
Zn8	Zn	1.458241	0.124227	0.124109
O9	O	1.017092	-0.311803	-0.311928
O10	O	1.517092	0.188197	0.188072
O11	O	1.174448	-0.259996	-0.350561
O12	O	1.674448	0.240004	0.149439
O13	O	1.060258	-0.355235	-0.145608
O14	O	1.560258	0.144765	0.354392
O15	O	0.973936	-0.149120	-0.268578
O16	O	1.473936	0.350880	0.231422
O17	O	1.174384	-0.350419	-0.260143
O18	O	1.674384	0.149581	0.239857
O19	O	1.060407	-0.145471	-0.355360
O20	O	1.560407	0.354529	0.144640
O21	O	0.973852	-0.268461	-0.149244
O22	O	1.473852	0.231539	0.350756
O23	O	0.859780	-0.273212	-0.273317
O24	O	1.359780	0.226788	0.226683
O25	O	0.973881	-0.358769	-0.478225
O26	O	1.473881	0.141231	0.021775
O27	O	0.859756	-0.363585	-0.363690
O28	O	1.359756	0.136415	0.136310
O29	O	1.060376	-0.264747	-0.474635
O30	O	1.560376	0.235253	0.025365
O31	O	1.060227	-0.474510	-0.264883
O32	O	1.560227	0.025490	0.235117
O33	O	0.973796	-0.478110	-0.358891
O34	O	1.473796	0.021890	0.141109
C35	C	1.017017	-0.503012	-0.311896
C36	C	1.517017	-0.003012	0.188104
C37	C	1.017050	-0.584810	-0.311904
C38	C	1.517050	-0.084810	0.188096
C39	C	0.834230	-0.319469	-0.319571
C40	C	1.334230	0.180531	0.180429
C41	C	0.756001	-0.322767	-0.322859
C42	C	1.256001	0.177233	0.177141
C43	C	1.062160	-0.771101	-0.263036
C44	C	1.562160	-0.271101	0.236964
C45	C	1.062191	-0.847958	-0.263052
C46	C	1.562191	-0.347958	0.236948
C47	C	0.972113	-0.851749	-0.360869
C48	C	1.472113	-0.351749	0.139131
C49	C	0.972086	-0.774893	-0.360856
C50	C	1.472086	-0.274893	0.139144
C51	C	1.017108	-0.734571	-0.311935
C52	C	1.517108	-0.234571	0.188065
C53	C	1.017167	-0.888284	-0.311965
C54	C	1.517167	-0.388284	0.188035
C55	C	1.017201	-0.971617	-0.311983
C56	C	1.517201	-0.471617	0.188017
C57	C	1.017076	-0.651233	-0.311917
C58	C	1.517076	-0.151233	0.188083
C59	C	0.719241	-0.277193	-0.277428
C60	C	1.219241	0.222807	0.222572
C61	C	0.645737	-0.280297	-0.280517
C62	C	1.145737	0.219703	0.219483
C63	C	0.608994	-0.328973	-0.329040
C64	C	1.108994	0.171027	0.170960
C65	C	0.645759	-0.374552	-0.374473
C66	C	1.145759	0.125448	0.125527
C67	C	0.719262	-0.371451	-0.371380
C68	C	1.219262	0.128549	0.128620
C69	C	0.389164	-0.343305	-0.343325
C70	C	0.889164	0.156695	0.156675
C71	C	0.315656	-0.346402	-0.346416
C72	C	0.815656	0.153598	0.153584
C73	C	0.315639	-0.252147	-0.252458
C74	C	0.815639	0.247853	0.247542
C75	C	0.389143	-0.249047	-0.249373
C76	C	0.889143	0.250953	0.250627
C77	C	0.425902	-0.294629	-0.294803
C78	C	0.925902	0.205371	0.205197
N79	N	0.533861	-0.332146	-0.332200
N80	N	1.033861	0.167854	0.167800
N81	N	0.501034	-0.291459	-0.291638
N82	N	1.001034	0.208541	0.208362
C83	C	1.200667	-0.304107	-0.304255
C84	C	1.700667	0.195893	0.195745
C85	C	1.278896	-0.300828	-0.300985
C86	C	1.778896	0.199172	0.199015
C87	C	1.017134	-0.311750	-0.503879
C88	C	1.517134	0.188250	-0.003879
C89	C	1.017153	-0.311728	-0.585677
C90	C	1.517153	0.188272	-0.085677
C91	C	1.017185	-0.119846	-0.311976
C92	C	1.517185	0.380154	0.188024
C93	C	1.017225	-0.038045	-0.311996
C94	C	1.517225	0.461955	0.188004
C95	C	1.062207	-0.262726	-0.772002
C96	C	1.562207	0.237274	-0.272002
C97	C	1.062215	-0.262704	-0.848860
C98	C	1.562215	0.237296	-0.348860
C99	C	0.972148	-0.360614	-0.852588
C100	C	1.472148	0.139386	-0.352588
C101	C	0.972137	-0.360632	-0.775731
C102	C	1.472137	0.139368	-0.275731
C103	C	1.017170	-0.311689	-0.735440
C104	C	1.517170	0.188311	-0.235440
C105	C	1.017190	-0.311649	-0.889155
C106	C	1.517190	0.188351	-0.389155
C107	C	1.017199	-0.311626	-0.972489
C108	C	1.517199	0.188374	-0.472489
C109	C	1.017161	-0.311711	-0.652101
C110	C	1.517161	0.188289	-0.152101
C111	C	1.017089	-0.311800	-0.120722
C112	C	1.517089	0.188200	0.379278
C113	C	1.017208	-0.311610	-0.038918
C114	C	1.517208	0.188390	0.461082
H115	H	1.098878	-0.877697	-0.223234
H116	H	1.598878	-0.377697	0.276766
N117	N	0.923552	-0.895240	-0.413629
N118	N	1.423552	-0.395240	0.086371
H119	H	0.930403	-0.949472	-0.406216
H120	H	1.430403	-0.449472	0.093784
H121	H	0.873290	-0.883965	-0.404226
H122	H	1.373290	-0.383965	0.095774
N123	N	0.923494	-0.735487	-0.413601
N124	N	1.423494	-0.235487	0.086399
H125	H	0.894973	-0.772692	-0.444591
H126	H	1.394973	-0.272692	0.055409
H127	H	0.890931	-0.705014	-0.384969
H128	H	1.390931	-0.205014	0.115031
N129	N	0.606090	-0.231121	-0.231537
N130	N	1.106090	0.268879	0.268463
H131	H	0.553951	-0.240467	-0.240860
H132	H	1.053951	0.259533	0.259140
H133	H	0.618904	-0.241947	-0.178412
H134	H	1.118904	0.258053	0.321588
H135	H	0.749152	-0.237550	-0.237921
H136	H	1.249152	0.262450	0.262079
N137	N	1.110775	-0.209939	-0.728543
N138	N	1.610775	0.290061	-0.228543
H139	H	1.139306	-0.178918	-0.763371
H140	H	1.639306	0.321082	-0.263371
H141	H	1.082137	-0.177091	-0.697859
H142	H	1.582137	0.322909	-0.197859
H143	H	0.935458	-0.400503	-0.745962
H144	H	1.435458	0.099497	-0.245962
N145	N	1.110788	-0.209886	-0.888287
N146	N	1.610788	0.290114	-0.388287
H147	H	1.161069	-0.219208	-0.872813
H148	H	1.661069	0.280792	-0.372813
H149	H	1.103905	-0.217317	-0.943080
H150	H	1.603905	0.282683	-0.443080
N151	N	1.110720	-0.727608	-0.210277
N152	N	1.610720	-0.227608	0.289723
H153	H	1.139266	-0.762415	-0.179304
H154	H	1.639266	-0.262415	0.320696
H155	H	1.143261	-0.694304	-0.238898
H156	H	1.643261	-0.194304	0.261102
H157	H	0.419054	-0.209415	-0.209855
H158	H	0.919054	0.290585	0.290145
H159	H	0.935486	-0.400463	-0.885403
H160	H	1.435486	0.099537	-0.385403
N161	N	0.275992	-0.203001	-0.203447
N162	N	0.775992	0.296999	0.296553
H163	H	0.223853	-0.212355	-0.212762
H164	H	0.723853	0.287645	0.287238
H165	H	0.288821	-0.213862	-0.150332
H166	H	0.788821	0.286138	0.349668
N167	N	0.276024	-0.398898	-0.398760
N168	N	0.776024	0.101102	0.101240
H169	H	0.310463	-0.427303	-0.427072
H170	H	0.810463	0.072697	0.072928
H171	H	0.245498	-0.434201	-0.370029
H172	H	0.745498	0.065799	0.129971
N173	N	0.428806	-0.392467	-0.392320
N174	N	0.928806	0.107533	0.107680
H175	H	0.394374	-0.423770	-0.423529
H176	H	0.894374	0.076230	0.076471
H177	H	0.459329	-0.361271	-0.425149
H178	H	0.959329	0.138729	0.074851
N179	N	0.606128	-0.427055	-0.426804
N180	N	1.106128	0.072945	0.073196
H181	H	0.575656	-0.398477	-0.462245
H182	H	1.075656	0.101523	0.037755
H183	H	0.640613	-0.455447	-0.455063
H184	H	1.140613	0.044553	0.044937
N185	N	0.758915	-0.420609	-0.420376
N186	N	1.258915	0.079391	0.079624
H187	H	0.724486	-0.451915	-0.451585
H188	H	1.224486	0.048085	0.048415
H189	H	0.789437	-0.389412	-0.453204
H190	H	1.289437	0.110588	0.046796
