data_functionalizedCrystal
_audit_creation_method	'MofGen! by Chris Wilmer'
_symmetry_space_group_name_H-M	'P1'
_symmetry_Int_Tables_number	1
_symmetry_cell_setting	triclinic
loop_
_symmetry_equiv_pos_as_xyz
  x,y,z
_cell_length_a	13.897449
_cell_length_b	12.759399
_cell_length_c	12.759393
_cell_angle_alpha	90.030906
_cell_angle_beta	89.978412
_cell_angle_gamma	89.983604
loop_
_atom_site_label
_atom_site_type_symbol
_atom_site_fract_x
_atom_site_fract_y
_atom_site_fract_z
Zn1	Zn	1.474728	0.418180	-0.594035
Zn2	Zn	1.808061	0.751513	-0.260702
Zn3	Zn	2.141395	1.084846	0.072631
Zn4	Zn	1.474627	0.593895	-0.418354
Zn5	Zn	1.807960	0.927228	-0.085021
Zn6	Zn	2.141294	1.260562	0.248312
Zn7	Zn	1.313415	0.418235	-0.418369
Zn8	Zn	1.646748	0.751568	-0.085035
Zn9	Zn	1.980081	1.084901	0.248298
Zn10	Zn	1.313406	0.593821	-0.593989
Zn11	Zn	1.646739	0.927154	-0.260656
Zn12	Zn	1.980073	1.260488	0.072677
O13	O	1.394044	0.506033	-0.506187
O14	O	1.727377	0.839366	-0.172854
O15	O	2.060711	1.172699	0.160480
O16	O	1.609696	0.441497	-0.570744
O17	O	1.943030	0.774830	-0.237411
O18	O	2.276363	1.108163	0.095923
O19	O	1.453203	0.570648	-0.271335
O20	O	1.786536	0.903981	0.061998
O21	O	2.119870	1.237314	0.395332
O22	O	1.334859	0.271206	-0.441696
O23	O	1.668193	0.604540	-0.108363
O24	O	2.001526	0.937873	0.224970
O25	O	1.609622	0.570594	-0.441672
O26	O	1.942955	0.903927	-0.108339
O27	O	2.276289	1.237261	0.224995
O28	O	1.453375	0.271166	-0.570758
O29	O	1.786709	0.604499	-0.237425
O30	O	2.120042	0.937833	0.095909
O31	O	1.334761	0.441591	-0.271345
O32	O	1.668094	0.774924	0.061988
O33	O	2.001428	1.108257	0.395321
O34	O	1.178432	0.441519	-0.441652
O35	O	1.511765	0.774852	-0.108318
O36	O	1.845099	1.108185	0.225015
O37	O	1.334845	0.570468	-0.741017
O38	O	1.668178	0.903801	-0.407683
O39	O	2.001511	1.237134	-0.074350
O40	O	1.178426	0.570521	-0.570680
O41	O	1.511759	0.903854	-0.237346
O42	O	1.845092	1.237188	0.095987
O43	O	1.453367	0.441425	-0.741050
O44	O	1.786700	0.774758	-0.407717
O45	O	2.120034	1.108091	-0.074384
O46	O	1.453195	0.740906	-0.441627
O47	O	1.786528	1.074240	-0.108294
O48	O	2.119861	1.407573	0.225039
O49	O	1.334746	0.740852	-0.570666
O50	O	1.668080	1.074185	-0.237332
O51	O	2.001413	1.407519	0.096001
C52	C	1.393985	0.779000	-0.506163
C53	C	1.727318	1.112333	-0.172830
C54	C	2.060651	1.445667	0.160504
C55	C	1.394048	0.895777	-0.506188
C56	C	1.727381	1.229110	-0.172855
C57	C	2.060714	1.562443	0.160479
C58	C	1.143430	0.506019	-0.506163
C59	C	1.476763	0.839352	-0.172830
C60	C	1.810096	1.172685	0.160504
C61	C	1.036216	0.506038	-0.506178
C62	C	1.369549	0.839371	-0.172844
C63	C	1.702882	1.172705	0.160489
C64	C	1.394116	0.505932	-0.780220
C65	C	1.727449	0.839265	-0.446887
C66	C	2.060783	1.172598	-0.113554
C67	C	1.394147	0.505889	-0.896997
C68	C	1.727480	0.839222	-0.563664
C69	C	2.060814	1.172555	-0.230330
C70	C	0.839921	0.506042	-0.506205
C71	C	1.173254	0.839375	-0.172872
C72	C	1.506587	1.172708	0.160462
C73	C	0.949153	0.506036	-0.506187
C74	C	1.282486	0.839370	-0.172854
C75	C	1.615820	1.172703	0.160480
C76	C	1.645637	0.506047	-0.506212
C77	C	1.978970	0.839381	-0.172878
C78	C	2.312304	1.172714	0.160455
C79	C	1.752851	0.506054	-0.506222
C80	C	2.086184	0.839387	-0.172889
C81	C	2.419517	1.172720	0.160445
C82	C	1.394130	0.231999	-0.506234
C83	C	1.727463	0.565333	-0.172901
C84	C	2.060796	0.898666	0.160433
C85	C	1.394166	0.115223	-0.506254
C86	C	1.727499	0.448556	-0.172921
C87	C	2.060833	0.781889	0.160413
C88	C	1.455794	0.950632	-0.439074
C89	C	1.789127	1.283965	-0.105741
C90	C	2.122461	1.617299	0.227593
C91	C	1.455856	1.060356	-0.439109
C92	C	1.789189	1.393689	-0.105776
C93	C	2.122523	1.727023	0.227557
C94	C	1.332417	1.060360	-0.573375
C95	C	1.665750	1.393693	-0.240042
C96	C	1.999084	1.727026	0.093291
C97	C	1.332361	0.950638	-0.573345
C98	C	1.665694	1.283971	-0.240011
C99	C	1.999027	1.617304	0.093322
C100	C	1.455866	0.438685	-0.951878
C101	C	1.789199	0.772019	-0.618545
C102	C	2.122533	1.105352	-0.285212
C103	C	1.455882	0.438640	-1.061602
C104	C	1.789216	0.771973	-0.728269
C105	C	2.122549	1.105307	-0.394936
C106	C	1.332458	0.573011	-1.061554
C107	C	1.665791	0.906344	-0.728221
C108	C	1.999124	1.239677	-0.394888
C109	C	1.332437	0.573050	-0.951832
C110	C	1.665770	0.906383	-0.618499
C111	C	1.999104	1.239717	-0.285166
C112	C	1.394028	0.506057	-0.233219
C113	C	1.727361	0.839391	0.100114
C114	C	2.060694	1.172724	0.433447
C115	C	1.394184	0.505804	-0.116443
C116	C	1.727517	0.839138	0.216890
C117	C	2.060850	1.172471	0.550223
H118	H	1.506025	0.905967	-0.384392
H119	H	1.839358	1.239300	-0.051059
H120	H	2.172692	1.572633	0.282274
H121	H	1.506112	0.383996	-0.907235
H122	H	1.839445	0.717329	-0.573901
H123	H	2.172778	1.050662	-0.240568
Br124	Br	1.248660	0.664252	-0.877343
Br125	Br	1.581994	0.997585	-0.544010
Br126	Br	1.915327	1.330919	-0.210677
H127	H	1.282079	0.905971	-0.628002
H128	H	1.615413	1.239305	-0.294668
H129	H	1.948746	1.572638	0.038665
Br130	Br	1.539655	0.347439	-1.136081
Br131	Br	1.872988	0.680772	-0.802747
Br132	Br	2.206322	1.014106	-0.469414
H133	H	1.282218	0.627693	-1.106215
H134	H	1.615551	0.961026	-0.772881
H135	H	1.948885	1.294360	-0.439548
H136	H	1.282192	1.105041	-0.628050
H137	H	1.615525	1.438374	-0.294717
H138	H	1.948859	1.771707	0.038617
Br139	Br	1.539664	1.134799	-0.348028
Br140	Br	1.872997	1.468132	-0.014694
Br141	Br	2.206330	1.801466	0.318639
