data_functionalizedCrystal
_audit_creation_method	'MofGen! by Chris Wilmer'
_symmetry_space_group_name_H-M	'P1'
_symmetry_Int_Tables_number	1
_symmetry_cell_setting	triclinic
loop_
_symmetry_equiv_pos_as_xyz
  x,y,z
_cell_length_a	10.654550
_cell_length_b	9.198806
_cell_length_c	10.654550
_cell_angle_alpha	89.996705
_cell_angle_beta	95.515069
_cell_angle_gamma	90.000721
loop_
_atom_site_label
_atom_site_type_symbol
_atom_site_fract_x
_atom_site_fract_y
_atom_site_fract_z
O1	O	1.667840	0.120784	-0.176397
O2	O	1.302362	0.120810	-0.193203
O3	O	1.493504	0.120787	-0.002061
O4	O	1.476698	0.120807	-0.367539
O5	O	1.493489	-0.120998	-0.002059
O6	O	1.302347	-0.120975	-0.193201
O7	O	1.667825	-0.121002	-0.176395
Cu8	Cu	1.485085	-0.143065	-0.184798
Cu9	Cu	1.485103	0.142874	-0.184800
O10	O	1.476683	-0.120978	-0.367537
C11	C	1.255556	-0.000079	-0.191968
C12	C	1.116113	-0.000069	-0.188276
N13	N	1.485081	-0.344179	-0.184796
C14	C	1.036628	-0.000067	-0.300818
C15	C	0.905607	-0.000093	-0.297341
C16	C	0.933570	-0.000116	-0.068772
C17	C	1.064588	-0.000101	-0.072250
C18	C	1.558323	-0.416378	-0.257632
C19	C	1.558343	-0.583791	-0.257631
C20	C	1.714631	-0.000109	-0.177630
C21	C	1.854074	-0.000110	-0.181322
C22	C	1.492263	-0.000105	0.044738
C23	C	1.488571	-0.000102	0.184181
N24	N	1.485116	0.343988	-0.184792
C25	C	1.477925	-0.000084	-0.414336
C26	C	1.481616	-0.000077	-0.553779
C27	C	1.601112	-0.000110	0.263667
C28	C	1.597636	-0.000092	0.394688
C29	C	1.369066	-0.000065	0.366725
C30	C	1.372544	-0.000072	0.235706
H31	H	1.078574	-0.000052	-0.395294
H32	H	1.274601	-0.000043	0.408693
O33	O	0.819871	-0.000086	-0.418724
H34	H	0.877716	-0.000053	-0.499983
O35	O	1.726254	-0.000127	0.208098
H36	H	1.709770	-0.000144	0.103638
O37	O	1.251155	-0.000080	0.149960
H38	H	1.169891	-0.000085	0.207797
O39	O	1.402064	-0.426464	-0.102163
H40	H	1.348426	-0.348111	-0.048792
H41	H	1.621020	-0.354251	-0.319986
O42	O	0.877999	-0.000139	0.056369
H43	H	0.773539	-0.000136	0.039883
H44	H	1.422401	-0.593932	-0.122437
H45	H	1.129309	-0.000106	0.019401
H46	H	1.689279	-0.000095	0.459401
O47	O	1.641422	-0.666016	-0.340227
H48	H	1.628412	-0.784604	-0.327252
