data_functionalizedCrystal
_audit_creation_method	'MofGen! by Chris Wilmer'
_symmetry_space_group_name_H-M	'P1'
_symmetry_Int_Tables_number	1
_symmetry_cell_setting	triclinic
loop_
_symmetry_equiv_pos_as_xyz
  x,y,z
_cell_length_a	6.817900
_cell_length_b	17.296766
_cell_length_c	17.329378
_cell_angle_alpha	95.724032
_cell_angle_beta	103.025558
_cell_angle_gamma	102.621013
loop_
_atom_site_label
_atom_site_type_symbol
_atom_site_fract_x
_atom_site_fract_y
_atom_site_fract_z
V1	V	-4.010749	-0.094238	-0.251734
V2	V	-3.510749	0.405762	0.248266
O3	O	-3.997997	0.021338	-0.238846
O4	O	-3.497997	0.521338	0.261154
O5	O	-3.962923	-0.203025	-0.257799
O6	O	-3.462923	0.296975	0.242201
O7	O	-3.955114	-0.085413	-0.357972
O8	O	-3.455114	0.414587	0.142028
O9	O	-4.005860	-0.097088	-0.137980
O10	O	-3.505860	0.402912	0.362020
V11	V	-4.495240	-0.081285	-0.237183
V12	V	-3.995240	0.418715	0.262817
O13	O	-4.269884	-0.122651	-0.283655
O14	O	-3.769884	0.377349	0.216345
O15	O	-4.686302	-0.052873	-0.205262
O16	O	-4.186302	0.447127	0.294738
O17	O	-4.319858	0.027501	-0.231118
O18	O	-3.819858	0.527501	0.268882
O19	O	-4.625388	-0.196861	-0.250071
O20	O	-4.125388	0.303139	0.249929
O21	O	-4.617525	-0.078435	-0.350937
O22	O	-4.117525	0.421565	0.149063
O23	O	-4.327668	-0.090111	-0.130945
O24	O	-3.827668	0.409889	0.369055
C25	C	-3.808298	-0.229775	-0.255837
C26	C	-3.308298	0.270225	0.244163
C27	C	-3.850434	-0.318662	-0.261504
C28	C	-3.350434	0.181338	0.238496
C29	C	-3.834790	-0.353806	-0.191728
C30	C	-3.334790	0.146194	0.308272
C31	C	-3.874401	-0.437325	-0.197055
C32	C	-3.374401	0.062675	0.302945
C33	C	-3.929641	-0.485699	-0.272159
C34	C	-3.429641	0.014301	0.227841
C35	C	-3.945290	-0.450550	-0.341941
C36	C	-3.445290	0.049450	0.158059
C37	C	-3.905694	-0.367032	-0.336613
C38	C	-3.405694	0.132968	0.163387
C39	C	-4.050981	-0.738200	-0.291870
C40	C	-3.550981	-0.238200	0.208130
C41	C	-4.090571	-0.821722	-0.297192
C42	C	-3.590571	-0.321722	0.202808
C43	C	-4.019683	-0.808492	-0.152307
C44	C	-3.519683	-0.308492	0.347693
C45	C	-3.980078	-0.724973	-0.146985
C46	C	-3.480078	-0.224973	0.353015
C47	C	-3.995741	-0.689832	-0.216767
C48	C	-3.495741	-0.189832	0.283233
C49	C	-3.970124	-0.571069	-0.277606
C50	C	-3.470124	-0.071069	0.222394
C51	C	-3.955272	-0.604463	-0.211319
C52	C	-3.455272	-0.104463	0.288681
C53	C	-3.798336	-0.079749	-0.383617
C54	C	-3.298336	0.420251	0.116383
C55	C	-3.834136	-0.073253	-0.470518
C56	C	-3.334136	0.426747	0.029482
C57	C	-3.890757	-0.142640	-0.527721
C58	C	-3.390757	0.357360	-0.027721
C59	C	-3.924403	-0.136535	-0.609374
C60	C	-3.424403	0.363465	-0.109374
C61	C	-3.901412	-0.061043	-0.633821
C62	C	-3.401412	0.438957	-0.133821
C63	C	-3.844791	0.008349	-0.576611
C64	C	-3.344791	0.508349	-0.076611
C65	C	-3.811161	0.002244	-0.494960
C66	C	-3.311161	0.502244	0.005040
C67	C	-4.000976	-0.038983	-0.879534
C68	C	-3.500976	0.461017	-0.379534
C69	C	-4.034606	-0.032883	-0.961191
C70	C	-3.534606	0.467117	-0.461191
C71	C	-4.114219	-0.177768	-0.993949
C72	C	-3.614219	0.322232	-0.493949
C73	C	-4.080572	-0.183867	-0.912295
C74	C	-3.580572	0.316133	-0.412295
C75	C	-4.023965	-0.114475	-0.855092
C76	C	-3.523965	0.385525	-0.355092
C77	C	-3.935796	-0.054801	-0.717282
C78	C	-3.435796	0.445199	-0.217282
C79	C	-3.989596	-0.120718	-0.771633
C80	C	-3.489596	0.379282	-0.271633
C81	C	-4.137826	0.054247	-0.233078
C82	C	-3.637826	0.554247	0.266922
C83	C	-4.074928	0.143134	-0.227416
C84	C	-3.574928	0.643134	0.272584
C85	C	-4.147788	-0.095778	-0.105297
C86	C	-3.647788	0.404222	0.394703
C87	C	-4.091227	-0.102270	-0.018395
C88	C	-3.591227	0.397730	0.481605
H89	H	-3.918455	-0.338420	-0.393433
H90	H	-3.418455	0.161580	0.106567
F91	F	-3.896511	-0.552980	-0.131392
F92	F	-3.396511	-0.052980	0.368608
H93	H	-4.135545	-0.861107	-0.358354
H94	H	-3.635545	-0.361107	0.141646
F95	F	-4.014075	-0.201060	-0.745612
F96	F	-3.514075	0.298940	-0.245612
F97	F	-4.067641	-0.700810	-0.366138
F98	F	-3.567641	-0.200810	0.133862
H99	H	-3.935112	-0.685592	-0.085828
H100	H	-3.435112	-0.185592	0.414172
H101	H	-4.160313	-0.234263	-1.040531
H102	H	-3.660313	0.265737	-0.540531
F103	F	-3.984669	-0.210387	-0.670251
F104	F	-3.484669	0.289613	-0.170251
H105	H	-4.015103	-0.610465	-0.338756
H106	H	-3.515103	-0.110465	0.161244
H107	H	-4.015923	0.028595	-0.981092
H108	H	-3.515923	0.528595	-0.481092
H109	H	-3.909468	-0.204114	-0.507823
H110	H	-3.409468	0.295886	-0.007823
F111	F	-4.105065	-0.264217	-0.886284
F112	F	-3.605065	0.235783	-0.386284
H113	H	-3.954885	0.017521	-0.832968
H114	H	-3.454885	0.517521	-0.332968
H115	H	-3.917075	0.006666	-0.737196
H116	H	-3.417075	0.506666	-0.237196
H117	H	-3.826086	0.069817	-0.596522
H118	H	-3.326086	0.569817	-0.096522
F119	F	-3.775987	-0.302330	-0.111791
F120	F	-3.275987	0.197670	0.388209
F121	F	-3.750929	0.076094	-0.434080
F122	F	-3.250929	0.576094	0.065920
F123	F	-4.003027	-0.845899	-0.078046
F124	F	-3.503027	-0.345899	0.421954
F125	F	-3.857766	-0.474724	-0.122790
F126	F	-3.357766	0.025276	0.377210
H127	H	-3.990283	-0.489943	-0.403092
H128	H	-3.490283	0.010057	0.096908
