data_functionalizedCrystal
_audit_creation_method	'MofGen! by Chris Wilmer'
_symmetry_space_group_name_H-M	'P1'
_symmetry_Int_Tables_number	1
_symmetry_cell_setting	triclinic
loop_
_symmetry_equiv_pos_as_xyz
  x,y,z
_cell_length_a	6.817900
_cell_length_b	7.190334
_cell_length_c	9.109307
_cell_angle_alpha	87.558614
_cell_angle_beta	111.764999
_cell_angle_gamma	60.611776
loop_
_atom_site_label
_atom_site_type_symbol
_atom_site_fract_x
_atom_site_fract_y
_atom_site_fract_z
V1	V	-4.289826	0.705750	-0.222600
V2	V	-3.789826	1.205750	0.277400
O3	O	-4.202714	0.649895	0.013368
O4	O	-3.702714	1.149895	0.513368
O5	O	-4.306500	0.741721	-0.443948
O6	O	-3.806500	1.241721	0.056052
O7	O	-4.325610	0.994938	-0.218004
O8	O	-3.825610	1.494938	0.281996
O9	O	-4.183472	0.394925	-0.214140
O10	O	-3.683472	0.894925	0.285860
V11	V	-4.754114	0.663616	-0.194514
V12	V	-4.254114	1.163616	0.305486
O13	O	-4.593279	0.798172	-0.284210
O14	O	-4.093279	1.298172	0.215790
O15	O	-4.900858	0.571193	-0.132905
O16	O	-4.400858	1.071193	0.367095
O17	O	-4.514233	0.627645	0.026834
O18	O	-4.014233	1.127645	0.526834
O19	O	-4.958623	0.719471	-0.430483
O20	O	-4.458623	1.219471	0.069517
O21	O	-4.977865	0.974441	-0.202975
O22	O	-4.477865	1.474441	0.297025
O23	O	-4.495123	0.374428	-0.199111
O24	O	-3.995123	0.874428	0.300889
C25	C	-4.164607	0.741115	-0.497945
C26	C	-3.664607	1.241115	0.002055
C27	C	-4.260088	0.772454	-0.678892
C28	C	-3.760088	1.272454	-0.178892
C29	C	-4.188992	1.064114	-0.209723
C30	C	-3.688992	1.564114	0.290277
C31	C	-4.302047	1.305243	-0.207384
C32	C	-3.802047	1.805243	0.292616
C33	C	-4.319469	0.628247	0.080822
C34	C	-3.819469	1.128247	0.580822
C35	C	-4.203231	0.596922	0.261767
C36	C	-3.703231	1.096922	0.761767
H37	H	-4.081537	0.422622	-0.650604
H38	H	-3.581537	0.922622	-0.150604
H39	H	-4.381808	0.946767	-0.766531
H40	H	-3.881808	1.446767	-0.266531
