data_functionalizedCrystal
_audit_creation_method	'MofGen! by Chris Wilmer'
_symmetry_space_group_name_H-M	'P1'
_symmetry_Int_Tables_number	1
_symmetry_cell_setting	triclinic
loop_
_symmetry_equiv_pos_as_xyz
  x,y,z
_cell_length_a	17.640112
_cell_length_b	16.120484
_cell_length_c	17.639477
_cell_angle_alpha	81.041669
_cell_angle_beta	114.276174
_cell_angle_gamma	103.499326
loop_
_atom_site_label
_atom_site_type_symbol
_atom_site_fract_x
_atom_site_fract_y
_atom_site_fract_z
Zn1	Zn	1.163257	-0.037966	-0.213959
Zn2	Zn	1.181194	-0.200856	-0.085980
Zn3	Zn	1.050482	-0.084920	-0.106810
Zn4	Zn	1.015618	-0.200839	-0.251540
O5	O	1.102638	-0.131145	-0.164572
O6	O	1.282127	-0.039930	-0.172537
O7	O	1.185953	-0.205134	0.025387
O8	O	1.072526	0.037992	-0.114013
O9	O	1.295306	-0.159604	-0.078511
O10	O	1.155381	0.072489	-0.192735
O11	O	1.089919	-0.119956	0.010083
O12	O	0.929367	-0.119940	-0.150454
O13	O	1.013105	-0.159577	-0.360684
O14	O	0.903752	-0.205106	-0.256786
O15	O	1.121575	-0.039914	-0.333074
O16	O	1.152146	-0.317536	-0.114952
O17	O	1.030498	-0.317524	-0.236588
C18	C	0.886354	-0.167617	-0.209959
C19	C	0.793822	-0.183237	-0.229396
C20	C	0.556007	-0.012469	-0.016916
C21	C	0.469056	-0.027161	-0.035192
C22	C	0.442464	-0.116021	-0.145745
C23	C	0.529414	-0.101333	-0.127481
C24	C	0.586180	-0.049557	-0.063065
C25	C	0.559587	-0.138422	-0.173629
C26	C	0.646530	-0.123739	-0.155363
C27	C	0.703300	-0.071967	-0.090949
C28	C	0.673123	-0.034874	-0.044799
C29	C	0.502820	-0.190203	-0.238041
C30	C	0.532993	-0.227292	-0.284190
C31	C	0.619936	-0.212604	-0.265928
C32	C	0.676707	-0.160832	-0.201513
C33	C	0.650114	-0.249697	-0.312078
C34	C	0.737057	-0.235013	-0.293812
C35	C	0.763650	-0.146148	-0.183247
C36	C	1.089505	-0.347778	-0.177601
C37	C	1.083957	-0.440437	-0.183186
C38	C	1.073830	-0.610082	-0.193398
C39	C	1.131592	-0.651340	-0.135728
C40	C	1.125957	-0.745736	-0.141411
C41	C	1.079464	-0.515677	-0.187717
C42	C	1.319766	-0.094531	-0.119009
C43	C	1.412293	-0.078928	-0.099592
C44	C	1.061450	-0.094506	-0.377299
C45	C	1.043898	-0.078893	-0.467951
C46	C	1.115842	0.086341	-0.151506
C47	C	1.121468	0.179020	-0.145938
C48	C	1.236182	-0.249279	-0.726226
C49	C	1.219679	-0.234600	-0.811409
C50	C	1.119686	-0.145911	-0.827343
C51	C	1.136177	-0.160585	-0.742161
C52	C	1.194427	-0.212270	-0.691609
C53	C	1.094422	-0.123576	-0.707543
C54	C	1.110916	-0.138246	-0.622367
C55	C	1.169164	-0.189926	-0.571810
C56	C	1.210920	-0.226940	-0.606433
C57	C	1.036177	-0.071887	-0.758095
C58	C	0.994422	-0.034878	-0.723478
C59	C	1.010911	-0.049552	-0.638302
C60	C	1.069160	-0.101232	-0.587744
C61	C	0.969155	-0.012538	-0.603678
C62	C	0.985648	-0.027208	-0.518503
C63	C	1.085653	-0.115902	-0.502568
C64	C	1.143717	-0.167573	0.047341
C65	C	1.161445	-0.182925	0.138040
H66	H	1.185275	-0.615768	-0.082088
H67	H	0.921735	0.029549	-0.644849
C68	C	0.798940	-0.055808	-0.070853
C69	C	0.860631	-0.082581	0.016313
C70	C	0.956270	-0.066420	0.036409
C71	C	0.990218	-0.023486	-0.030661
C72	C	0.928526	0.003290	-0.117833
C73	C	0.832887	-0.012871	-0.137929
H74	H	0.835501	-0.114366	0.065968
H75	H	1.001938	-0.086241	0.100939
H76	H	1.061016	-0.011523	-0.015785
H77	H	0.953656	0.035074	-0.167488
H78	H	0.787219	0.006950	-0.202459
C79	C	1.001308	-0.658132	-0.265857
C80	C	0.995707	-0.753894	-0.271503
C81	C	0.923185	-0.801956	-0.343960
C82	C	0.856263	-0.754255	-0.410771
C83	C	0.861861	-0.658487	-0.405128
C84	C	0.934384	-0.610425	-0.332671
H85	H	1.045248	-0.789210	-0.222043
H86	H	0.919041	-0.872850	-0.348137
H87	H	0.802578	-0.789833	-0.464407
H88	H	0.812320	-0.623171	-0.454587
H89	H	0.938528	-0.539531	-0.328494
H90	H	0.719343	0.007302	0.007644
H91	H	1.133094	-0.157980	-0.461403
H92	H	0.602228	0.029707	0.035527
H93	H	1.258361	-0.269017	-0.565268
H94	H	1.182594	-0.201866	-0.502454
C95	C	1.300246	-0.306141	-0.670603
C96	C	1.393032	-0.281380	-0.662027
C97	C	1.457089	-0.338240	-0.606399
C98	C	1.428360	-0.419862	-0.559347
C99	C	1.335569	-0.444627	-0.567922
C100	C	1.271512	-0.387766	-0.623550
H101	H	1.414303	-0.220956	-0.696858
H102	H	1.525779	-0.319907	-0.600052
H103	H	1.475779	-0.461953	-0.518168
H104	H	1.314298	-0.505051	-0.533090
H105	H	1.202822	-0.406100	-0.629897
H106	H	1.072262	-0.103827	-0.868513
H107	H	0.444495	0.003052	0.002387
C108	C	1.265587	-0.275332	-0.849507
C109	C	1.255282	-0.373287	-0.844922
C110	C	1.301177	-0.414021	-0.883028
C111	C	1.357378	-0.356800	-0.925719
C112	C	1.367685	-0.258839	-0.930305
C113	C	1.321790	-0.218105	-0.892199
H114	H	1.213676	-0.415650	-0.813318
H115	H	1.293547	-0.486538	-0.879633
H116	H	1.391353	-0.386953	-0.953927
H117	H	1.409291	-0.216475	-0.961909
H118	H	1.329420	-0.145587	-0.895595
C119	C	0.930347	0.021969	-0.779091
C120	C	0.837567	-0.002820	-0.787646
C121	C	0.773488	0.054023	-0.843259
C122	C	0.802187	0.135656	-0.890316
C123	C	0.894971	0.160450	-0.881762
C124	C	0.959051	0.103606	-0.826150
H125	H	0.816318	-0.063254	-0.752810
H126	H	0.704803	0.035669	-0.849590
H127	H	0.754752	0.177735	-0.931484
H128	H	0.916220	0.220883	-0.916598
H129	H	1.027735	0.121960	-0.819818
C130	C	0.939718	0.013500	-0.480417
C131	C	0.875645	0.070346	-0.536020
C132	C	0.829717	0.111059	-0.497933
C133	C	0.847864	0.094926	-0.404242
C134	C	0.911941	0.038076	-0.348633
C135	C	0.957868	-0.002637	-0.386720
H136	H	0.862209	0.082292	-0.605381
H137	H	0.782283	0.153143	-0.539099
H138	H	0.813866	0.125064	-0.376048
H139	H	0.925377	0.026130	-0.279273
H140	H	1.005302	-0.044721	-0.345554
H141	H	1.022754	-0.059940	-0.827449
H142	H	0.809871	-0.103972	-0.130805
H143	H	0.486763	-0.269451	-0.336635
C144	C	0.380017	-0.172971	-0.216602
C145	C	0.387558	-0.266898	-0.212987
C146	C	0.325113	-0.323846	-0.283847
C147	C	0.255126	-0.286868	-0.358320
C148	C	0.247582	-0.192937	-0.361938
C149	C	0.310028	-0.135988	-0.291078
H150	H	0.439370	-0.294276	-0.157855
H151	H	0.330698	-0.393381	-0.281169
H152	H	0.208900	-0.329025	-0.410775
H153	H	0.195771	-0.165559	-0.417070
H154	H	0.304443	-0.066454	-0.293756
C155	C	0.770255	-0.275806	-0.344574
C156	C	0.753894	-0.373770	-0.345979
C157	C	0.787094	-0.414568	-0.396739
C158	C	0.836656	-0.357401	-0.446093
C159	C	0.853020	-0.259431	-0.444690
C160	C	0.819820	-0.218634	-0.393930
H161	H	0.717203	-0.416094	-0.309443
H162	H	0.774979	-0.487092	-0.397777
H163	H	0.861232	-0.387601	-0.483668
H164	H	0.889711	-0.217107	-0.481226
H165	H	0.831934	-0.146110	-0.392892
H166	H	0.603884	-0.291859	-0.364520
H167	H	0.432026	-0.202157	-0.252911
