data_functionalizedCrystal
_audit_creation_method	'MofGen! by Chris Wilmer'
_symmetry_space_group_name_H-M	'P1'
_symmetry_Int_Tables_number	1
_symmetry_cell_setting	triclinic
loop_
_symmetry_equiv_pos_as_xyz
  x,y,z
_cell_length_a	14.628931
_cell_length_b	27.440280
_cell_length_c	14.628931
_cell_angle_alpha	90.003821
_cell_angle_beta	60.000000
_cell_angle_gamma	59.998426
loop_
_atom_site_label
_atom_site_type_symbol
_atom_site_fract_x
_atom_site_fract_y
_atom_site_fract_z
Zr1	Zr	1.000475	0.469502	-0.119852
O2	O	1.191197	0.391684	-0.265831
O3	O	0.809764	0.493358	-0.075101
O4	O	1.000469	0.493358	-0.265807
O5	O	1.000493	0.391683	0.075306
O6	O	1.000452	0.573561	-0.265788
O7	O	1.000492	0.391683	-0.075125
O8	O	0.659315	0.573560	0.075350
O9	O	1.341629	0.391684	-0.265831
O10	O	0.888189	0.563386	-0.056002
O11	O	0.888202	0.503532	0.056250
O12	O	1.112733	0.503532	-0.168282
O13	O	1.112746	0.443678	-0.056030
Zr14	Zr	1.000448	0.597416	0.120100
Zr15	Zr	1.000447	0.597416	-0.119822
Zr16	Zr	1.000476	0.469502	0.120069
Zr17	Zr	1.240396	0.469502	-0.119852
Zr18	Zr	0.760526	0.597416	0.120100
O19	O	1.191158	0.573561	0.075349
O20	O	1.191157	0.573561	-0.265788
O21	O	1.191198	0.391683	0.075306
O22	O	0.809725	0.675235	0.266079
O23	O	0.809724	0.675235	-0.075058
O24	O	0.809765	0.493358	0.266036
O25	O	1.000430	0.675235	-0.075059
O26	O	1.000453	0.573560	0.266054
O27	O	1.000471	0.493358	0.266036
O28	O	1.000430	0.675235	0.075373
O29	O	1.341607	0.493358	-0.265807
O30	O	0.659316	0.573560	0.266055
O31	O	0.659293	0.675235	0.266079
O32	O	0.659293	0.675235	0.075374
O33	O	1.341630	0.391684	-0.075126
O34	O	1.341607	0.493358	-0.075102
O35	O	0.888189	0.563386	0.168529
O36	O	0.888176	0.623241	0.056278
O37	O	1.112720	0.563387	-0.056002
O38	O	1.112734	0.503532	0.056249
C39	C	0.700356	0.533459	0.000124
C40	C	0.598503	0.533459	0.000124
C41	C	0.553087	0.563151	-0.055560
C42	C	0.447817	0.563151	-0.055561
C43	C	1.000496	0.373458	0.000086
C44	C	1.000508	0.319155	0.000074
C45	C	0.883230	0.013701	0.058764
C46	C	0.883223	-0.037318	0.058774
O47	O	0.783541	-0.037134	0.108652
N48	N	1.000431	-0.094078	0.000164
C49	C	1.117655	-0.099819	-0.058451
O50	O	1.217349	-0.152782	-0.108302
C51	C	1.117660	-0.048801	-0.058454
C52	C	1.000444	0.007959	0.000151
C53	C	0.766024	0.070458	0.117365
C54	C	0.766031	0.121472	0.117353
C55	C	0.883245	0.115730	0.058740
C56	C	1.000452	0.058974	0.000139
C57	C	1.234882	-0.054542	-0.117061
C58	C	1.234878	-0.003518	-0.117058
C59	C	1.117662	0.053241	-0.058453
C60	C	1.117674	0.104246	-0.058485
N61	N	1.000465	0.161006	0.000125
C62	C	0.883251	0.166748	0.058737
C63	C	1.117634	-0.206957	-0.058439
C64	C	1.117629	-0.257974	-0.058444
C65	C	0.883197	-0.195470	0.058783
C66	C	0.883203	-0.144452	0.058780
C67	C	1.000425	-0.150197	0.000171
C68	C	0.883276	0.273881	0.058707
C69	C	0.883294	0.324897	0.058686
C70	C	1.117725	0.262389	-0.058535
C71	C	1.117708	0.211376	-0.058519
C72	C	1.000473	0.217126	0.000110
O73	O	1.217305	0.104109	-0.108335
O74	O	0.783574	0.219713	0.108592
C75	C	1.300566	0.533460	0.000123
C76	C	1.402419	0.533460	0.000123
C77	C	1.000460	0.533460	-0.299981
C78	C	1.000460	0.533460	-0.401834
C79	C	1.000426	0.693460	0.000161
C80	C	1.000414	0.747763	0.000174
C81	C	1.111849	0.503768	-0.502941
C82	C	1.111851	0.503767	-0.608213
C83	C	1.000462	0.533459	0.300229
C84	C	1.000462	0.533459	0.402082
C85	C	0.700321	0.693460	0.000162
C86	C	0.598456	0.747763	0.000175
C87	C	0.700357	0.533459	0.300229
C88	C	0.598504	0.533459	0.402082
C89	C	0.700322	0.693460	0.300267
C90	C	0.598457	0.747763	0.402132
C91	C	1.300601	0.373459	-0.300019
C92	C	1.402465	0.319156	-0.401885
C93	C	1.300602	0.373458	0.000086
C94	C	1.402467	0.319156	0.000073
C95	C	1.300566	0.533460	-0.299981
C96	C	1.402418	0.533460	-0.401834
C97	C	0.550626	0.742021	-0.058438
C98	C	0.454926	0.793039	-0.058448
C99	C	0.407052	0.849799	0.000161
C100	C	0.454891	0.855540	0.058776
C101	C	0.550596	0.804522	0.058779
C102	C	0.550613	0.804513	0.391376
C103	C	0.454914	0.855541	0.487080
C104	C	0.407054	0.849818	0.593540
C105	C	0.454907	0.793062	0.604295
C106	C	0.550611	0.742035	0.508592
C107	C	1.450321	0.262406	-0.391128
C108	C	1.546050	0.211378	-0.486832
C109	C	1.593915	0.217101	-0.593293
C110	C	1.546056	0.273857	-0.604047
C111	C	1.450335	0.324884	-0.508344
C112	C	1.450307	0.324898	0.058676
C113	C	1.546033	0.273879	0.058660
C114	C	1.593910	0.217119	0.000047
C115	C	1.546066	0.211378	-0.058563
C116	C	1.450348	0.262396	-0.058553
C117	C	0.553089	0.563150	0.503190
C118	C	0.447819	0.563151	0.608461
H119	H	0.408766	0.588569	-0.103240
H120	H	0.905093	0.558877	-0.511186
H121	H	1.584971	0.278565	0.106391
H122	H	0.415925	0.788411	0.690988
H123	H	0.415987	0.788353	-0.106179
H124	H	0.441475	0.508035	0.047794
H125	H	1.411332	0.371110	0.106413
H126	H	0.905098	0.558881	-0.393207
C127	C	0.603226	0.679611	0.520443
N128	N	0.642853	0.632594	0.529378
C129	C	0.603277	0.679589	-0.122925
N130	N	0.642934	0.632567	-0.171507
H131	H	0.408761	0.588572	0.695197
C132	C	1.397720	0.256070	-0.123010
N133	N	1.358083	0.251300	-0.171561
H134	H	0.559448	0.508041	0.047800
H135	H	0.787755	-0.190802	0.106505
H136	H	0.787839	0.371113	0.106413
H137	H	1.585063	0.165158	-0.106285
C138	C	1.598675	0.148952	-0.474977
N139	N	1.638310	0.101934	-0.466044
H140	H	0.329122	0.891336	0.000151
H141	H	0.415898	0.901761	0.106494
H142	H	0.441466	0.508041	0.511434
H143	H	0.592146	0.588568	0.511816
C144	C	0.754311	0.280215	0.123193
N145	N	0.657175	0.284986	0.171757
C146	C	0.754257	-0.082020	0.123257
N147	N	0.657130	-0.034996	0.171828
C148	C	1.699197	0.161004	0.000052
N149	N	1.778496	0.118739	0.000065
H150	H	0.589527	0.809206	0.106515
C151	C	0.545751	0.499116	0.390422
N152	N	0.506017	0.473249	0.381636
H153	H	0.670568	0.075143	0.165100
C154	C	0.637083	0.183904	0.181834
N155	N	0.539952	0.230926	0.230408
C156	C	0.603249	0.810823	0.274278
N157	N	0.642895	0.815581	0.186082
C158	C	1.246576	-0.320406	-0.122926
N159	N	1.343704	-0.367430	-0.171491
H160	H	1.213096	-0.211643	-0.106171
C161	C	1.363832	-0.116969	-0.181528
N162	N	1.460965	-0.163990	-0.230087
H163	H	1.213155	0.165159	-0.106255
H164	H	0.329125	0.891372	0.671459
C165	C	1.363836	-0.009844	-0.181539
N166	N	1.460966	-0.014610	-0.230110
H167	H	1.207215	0.478344	-0.694949
C168	C	1.240685	0.469431	-0.514602
N169	N	1.337727	0.443569	-0.523388
H170	H	1.585040	0.278510	-0.690739
C171	C	0.402281	0.917967	0.475225
N172	N	0.362638	0.964984	0.466292
C173	C	1.699201	0.160964	-0.698559
N174	N	1.778497	0.118679	-0.777842
H175	H	1.213158	0.257723	-0.106260
H176	H	0.592132	0.588574	-0.103228
H177	H	1.411354	0.257735	-0.304451
H178	H	1.411372	0.371091	-0.517116
