data_functionalizedCrystal
_audit_creation_method	'MofGen! by Chris Wilmer'
_symmetry_space_group_name_H-M	'P1'
_symmetry_Int_Tables_number	1
_symmetry_cell_setting	triclinic
loop_
_symmetry_equiv_pos_as_xyz
  x,y,z
_cell_length_a	19.077105
_cell_length_b	12.759400
_cell_length_c	19.076919
_cell_angle_alpha	92.274856
_cell_angle_beta	90.076224
_cell_angle_gamma	87.711168
loop_
_atom_site_label
_atom_site_type_symbol
_atom_site_fract_x
_atom_site_fract_y
_atom_site_fract_z
Zn1	Zn	1.058328	-0.508276	-0.440436
Zn2	Zn	1.062987	-0.677203	-0.322935
Zn3	Zn	0.945544	-0.494202	-0.318229
Zn4	Zn	0.940808	-0.676569	-0.435688
O5	O	1.001917	-0.589062	-0.379322
O6	O	1.157278	-0.536840	-0.428806
O7	O	1.051339	-0.647302	-0.223980
O8	O	0.960537	-0.349051	-0.334457
O9	O	1.160701	-0.660950	-0.342479
O10	O	1.043399	-0.359391	-0.424243
O11	O	0.965055	-0.512852	-0.220522
O12	O	0.846583	-0.512238	-0.329853
O13	O	0.952466	-0.659870	-0.534649
O14	O	0.843104	-0.646223	-0.416150
O15	O	1.038807	-0.536225	-0.538138
O16	O	1.046747	-0.824137	-0.337875
O17	O	0.956983	-0.823671	-0.420714
C18	C	0.819347	-0.577635	-0.371976
C19	C	0.741242	-0.572772	-0.368850
C20	C	0.702758	-0.640344	-0.412241
C21	C	0.629371	-0.635761	-0.409307
C22	C	0.594468	-0.563612	-0.362979
C23	C	0.632957	-0.496033	-0.319586
C24	C	0.706344	-0.500611	-0.322524
C25	C	0.375179	-0.542424	-0.349385
C26	C	0.301787	-0.537853	-0.346449
C27	C	0.298205	-0.677581	-0.436172
C28	C	0.371593	-0.682157	-0.439102
C29	C	0.410076	-0.614574	-0.395712
N30	N	0.519454	-0.558928	-0.359977
N31	N	0.485088	-0.619253	-0.398718
C32	C	1.001876	-0.862026	-0.379306
C33	C	1.001921	-0.978807	-0.379325
C34	C	1.048709	-1.033882	-0.336242
C35	C	1.048751	-1.143610	-0.336266
C36	C	0.955212	-1.143177	-0.422456
C37	C	0.955173	-1.033452	-0.422436
C38	C	1.095457	-0.979237	-0.293132
C39	C	1.142248	-1.034313	-0.250045
C40	C	1.142290	-1.144041	-0.250068
C41	C	1.095542	-1.198693	-0.293178
C42	C	1.185199	-0.600535	-0.386697
C43	C	1.263303	-0.605424	-0.389840
C44	C	0.994588	-0.599547	-0.562603
C45	C	0.991465	-0.604015	-0.640706
C46	C	1.001976	-0.315035	-0.379355
C47	C	1.002002	-0.198260	-0.379368
C48	C	1.034949	-0.541742	-0.679216
C49	C	1.032006	-0.545935	-0.752602
C50	C	0.985583	-0.612408	-0.787477
C51	C	0.942094	-0.674683	-0.748961
C52	C	0.945034	-0.670484	-0.675576
C53	C	0.971967	-0.631866	-1.006758
C54	C	0.969032	-0.636063	-1.080148
C55	C	1.058943	-0.507313	-1.083785
C56	C	1.061882	-0.503124	-1.010398
C57	C	1.018391	-0.565395	-0.971889
N58	N	0.982575	-0.616698	-0.862489
N59	N	1.021396	-0.561099	-0.896878
C60	C	1.009257	-0.578545	-0.196756
C61	C	1.012516	-0.573790	-0.118659
H62	H	0.731171	-0.699099	-0.449965
F63	F	0.416125	-0.470493	-0.303207
H64	H	0.273372	-0.479088	-0.308727
F65	F	0.925680	-0.698141	-0.965783
H66	H	0.604534	-0.437283	-0.281867
F67	F	0.905378	-0.974833	-0.468290
F68	F	0.588416	-0.707680	-0.455490
H69	H	1.094350	-0.456614	-1.115147
H70	H	1.067417	-0.495228	-0.783954
H71	H	1.099687	-0.448998	-0.982009
F72	F	0.919617	-0.706812	-1.117263
H73	H	0.904293	-0.728803	-0.777361
H74	H	1.095585	-1.288042	-0.293200
F75	F	0.408734	-0.758950	-0.488410
H76	H	0.266865	-0.732601	-0.471498
H77	H	0.737676	-0.445582	-0.287194
F78	F	0.898751	-0.736761	-0.634591
F79	F	1.192094	-1.202654	-0.204219
H80	H	1.095426	-0.889891	-0.293106
H81	H	1.180314	-0.989810	-0.214950
F82	F	0.905461	-1.201346	-0.468332
H83	H	1.072754	-0.487616	-0.650827
