data_functionalizedCrystal
_audit_creation_method	'MofGen! by Chris Wilmer'
_symmetry_space_group_name_H-M	'P1'
_symmetry_Int_Tables_number	1
_symmetry_cell_setting	triclinic
loop_
_symmetry_equiv_pos_as_xyz
  x,y,z
_cell_length_a	10.908878
_cell_length_b	9.730217
_cell_length_c	11.026607
_cell_angle_alpha	90.003060
_cell_angle_beta	84.335404
_cell_angle_gamma	90.003777
loop_
_atom_site_label
_atom_site_type_symbol
_atom_site_fract_x
_atom_site_fract_y
_atom_site_fract_z
O1	O	1.662458	0.114267	-0.179074
O2	O	1.309523	0.114274	-0.088534
O3	O	1.456739	0.114266	-0.304554
O4	O	1.515241	0.114275	0.036946
O5	O	1.456724	-0.114314	-0.304559
O6	O	1.309508	-0.114306	-0.088539
O7	O	1.662443	-0.114313	-0.179079
Zn8	Zn	1.485973	-0.150602	-0.133809
Zn9	Zn	1.485993	0.150562	-0.133804
O10	O	1.515226	-0.114305	0.036941
C11	C	1.263630	-0.000016	-0.080075
C12	C	1.126902	-0.000013	-0.054876
C13	C	1.056640	-0.000015	-0.146821
C14	C	0.915324	-0.000012	-0.120779
N15	N	1.485968	-0.356138	-0.133816
C16	C	1.304640	-0.356195	-0.244524
C17	C	1.213988	-0.428164	-0.299884
C18	C	1.214006	-0.572044	-0.299888
C19	C	1.304684	-0.643958	-0.244523
C20	C	1.395335	-0.571990	-0.189164
C21	C	1.395309	-0.428107	-0.189169
C22	C	1.576657	-0.571933	-0.078449
C23	C	1.576646	-0.428053	-0.078451
C24	C	1.667334	-0.643847	-0.023084
C25	C	1.757993	-0.571879	0.032269
C26	C	1.757972	-0.427990	0.032269
C27	C	1.667297	-0.356084	-0.023092
C28	C	1.708336	-0.000021	-0.187538
C29	C	1.845063	-0.000014	-0.212737
C30	C	1.445939	-0.000022	-0.347589
C31	C	1.413766	-0.000017	-0.475811
N32	N	1.486005	0.356099	-0.133808
C33	C	1.502601	-0.000016	-0.567544
C34	C	1.469351	-0.000011	-0.700068
C35	C	1.526026	-0.000014	0.079976
C36	C	1.558199	-0.000010	0.208198
H37	H	1.101105	-0.000011	-0.244817
Cl38	Cl	1.871938	-0.337528	0.101873
Cl39	Cl	1.713640	-0.000007	-0.761602
H40	H	1.313096	-0.000006	-0.495386
H41	H	0.870864	-0.000003	-0.022776
Cl42	Cl	1.099995	-0.337751	-0.369475
H43	H	1.140185	-0.630640	-0.344959
Cl44	Cl	0.913695	-0.000002	-0.364049
Cl45	Cl	1.658034	-0.000011	-0.537333
Cl46	Cl	1.058262	0.000003	0.096428
H47	H	1.304623	-0.239041	-0.244537
Cl48	Cl	1.313912	0.000006	-0.730272
H49	H	1.304681	-0.761113	-0.244518
Cl50	Cl	1.871966	-0.662291	0.101874
Cl51	Cl	1.667267	-0.175206	-0.023101
Cl52	Cl	1.667350	-0.824726	-0.023079
