data_functionalizedCrystal
_audit_creation_method	'MofGen! by Chris Wilmer'
_symmetry_space_group_name_H-M	'P1'
_symmetry_Int_Tables_number	1
_symmetry_cell_setting	triclinic
loop_
_symmetry_equiv_pos_as_xyz
  x,y,z
_cell_length_a	13.897447
_cell_length_b	10.686220
_cell_length_c	10.686551
_cell_angle_alpha	90.308082
_cell_angle_beta	94.405975
_cell_angle_gamma	85.598804
loop_
_atom_site_label
_atom_site_type_symbol
_atom_site_fract_x
_atom_site_fract_y
_atom_site_fract_z
Zn1	Zn	-0.235165	-1.972263	0.562384
Zn2	Zn	-0.409754	-1.956015	0.352625
Zn3	Zn	-0.259840	-1.746379	0.368702
Zn4	Zn	-0.407799	-1.762446	0.578402
O5	O	-0.328140	-1.859276	0.465528
O6	O	-0.248816	-2.145651	0.521128
O7	O	-0.401012	-1.914683	0.179212
O8	O	-0.121579	-1.776418	0.394419
O9	O	-0.377086	-2.133714	0.367018
O10	O	-0.103451	-1.942375	0.536717
O11	O	-0.290871	-1.760664	0.191024
O12	O	-0.288976	-1.572967	0.409951
O13	O	-0.373754	-1.803802	0.751823
O14	O	-0.397681	-1.584772	0.564017
O15	O	-0.246920	-1.957954	0.740055
O16	O	-0.544482	-1.930262	0.382550
O17	O	-0.543046	-1.788048	0.548428
C18	C	-0.578761	-1.859171	0.465507
C19	C	-0.685969	-1.859245	0.465531
C20	C	-0.345794	-1.533353	0.490467
C21	C	-0.353369	-1.393924	0.501166
C22	C	-0.307367	-1.884483	0.792729
C23	C	-0.298515	-1.895224	0.932162
C24	C	-0.773034	-1.859308	0.465555
C25	C	-0.882260	-1.859398	0.465581
C26	C	-0.076536	-1.859417	0.465574
C27	C	0.030683	-1.859477	0.465594
C28	C	-0.310416	-2.186471	0.440493
C29	C	-0.302864	-2.325902	0.429824
C30	C	-0.348758	-1.834239	0.139595
C31	C	-0.357325	-1.823740	0.000144
H32	H	-0.253831	-1.374333	0.360559
H33	H	-0.414450	-1.754326	0.951676
C34	C	-0.414517	-1.198446	0.587536
C35	C	-0.419570	-1.328549	0.594678
H36	H	-0.455382	-1.158089	0.645271
H37	H	-0.435041	-1.170527	0.504853
H38	H	-0.349700	-1.178488	0.607661
H39	H	-0.484387	-1.348508	0.574544
H40	H	-0.399051	-1.356478	0.677379
C41	C	-0.227248	-1.981801	1.127686
C42	C	-0.221390	-1.988941	0.997589
H43	H	-0.179629	-2.039650	1.168076
H44	H	-0.289713	-2.001764	1.147676
H45	H	-0.216356	-1.899148	1.155539
H46	H	-0.232288	-2.071591	0.969735
H47	H	-0.158910	-1.968986	0.977590
