data_functionalizedCrystal
_audit_creation_method	'MofGen! by Chris Wilmer'
_symmetry_space_group_name_H-M	'P1'
_symmetry_Int_Tables_number	1
_symmetry_cell_setting	triclinic
loop_
_symmetry_equiv_pos_as_xyz
  x,y,z
_cell_length_a	19.077105
_cell_length_b	21.295417
_cell_length_c	19.076919
_cell_angle_alpha	92.266620
_cell_angle_beta	90.076224
_cell_angle_gamma	87.726672
loop_
_atom_site_label
_atom_site_type_symbol
_atom_site_fract_x
_atom_site_fract_y
_atom_site_fract_z
Zn1	Zn	1.058236	-0.304534	-0.440387
Zn2	Zn	1.391569	0.028799	-0.107054
Zn3	Zn	1.724902	0.362132	0.226280
Zn4	Zn	1.062864	-0.405747	-0.322870
Zn5	Zn	1.396197	-0.072414	0.010463
Zn6	Zn	1.729531	0.260919	0.343796
Zn7	Zn	0.945454	-0.296102	-0.318181
Zn8	Zn	1.278788	0.037232	0.015152
Zn9	Zn	1.612121	0.370565	0.348485
Zn10	Zn	0.940686	-0.405368	-0.435623
Zn11	Zn	1.274019	-0.072034	-0.102289
Zn12	Zn	1.607352	0.261299	0.231044
O13	O	1.001810	-0.352938	-0.379265
O14	O	1.335143	-0.019605	-0.045932
O15	O	1.668477	0.313729	0.287401
O16	O	1.157181	-0.321649	-0.428754
O17	O	1.490514	0.011685	-0.095421
O18	O	1.823848	0.345018	0.237912
O19	O	1.051222	-0.387832	-0.223917
O20	O	1.384555	-0.054499	0.109416
O21	O	1.717889	0.278834	0.442749
O22	O	0.960474	-0.209134	-0.334424
O23	O	1.293807	0.124199	-0.001091
O24	O	1.627140	0.457532	0.332243
O25	O	1.160581	-0.396009	-0.342415
O26	O	1.493915	-0.062676	-0.009082
O27	O	1.827248	0.270657	0.324251
O28	O	1.043334	-0.215330	-0.424208
O29	O	1.376667	0.118004	-0.090875
O30	O	1.710000	0.451337	0.242459
O31	O	0.964962	-0.307276	-0.220472
O32	O	1.298295	0.026057	0.112861
O33	O	1.631628	0.359390	0.446194
O34	O	0.846490	-0.306908	-0.329804
O35	O	1.179824	0.026425	0.003529
O36	O	1.513157	0.359758	0.336863
O37	O	0.952346	-0.395362	-0.534586
O38	O	1.285680	-0.062029	-0.201252
O39	O	1.619013	0.271304	0.132081
O40	O	0.842987	-0.387185	-0.416088
O41	O	1.176320	-0.053852	-0.082754
O42	O	1.509654	0.279481	0.250579
O43	O	1.038710	-0.321280	-0.538086
O44	O	1.372043	0.012053	-0.204753
O45	O	1.705376	0.345386	0.128581
O46	O	1.046598	-0.493783	-0.337795
O47	O	1.379931	-0.160450	-0.004462
O48	O	1.713265	0.172883	0.328871
O49	O	0.956834	-0.493504	-0.420634
O50	O	1.290168	-0.160171	-0.087301
O51	O	1.623501	0.173162	0.246032
C52	C	0.819242	-0.346091	-0.371921
C53	C	1.152576	-0.012758	-0.038587
C54	C	1.485909	0.320576	0.294746
C55	C	0.741139	-0.343178	-0.368795
C56	C	1.074472	-0.009844	-0.035462
C57	C	1.407805	0.323489	0.297872
C58	C	0.702642	-0.383663	-0.412179
C59	C	1.035976	-0.050330	-0.078846
C60	C	1.369309	0.283003	0.254487
C61	C	0.629255	-0.380918	-0.409246
C62	C	0.962589	-0.047584	-0.075913
C63	C	1.295922	0.285749	0.257421
C64	C	0.594366	-0.337689	-0.362924
C65	C	0.927699	-0.004356	-0.029591
C66	C	1.261033	0.328978	0.303742
C67	C	0.632868	-0.297199	-0.319538
C68	C	0.966201	0.036134	0.013795
C69	C	1.299534	0.369468	0.347128
C70	C	0.706253	-0.299942	-0.322476
C71	C	1.039586	0.033391	0.010858
C72	C	1.372920	0.366725	0.344191
C73	C	0.375080	-0.324994	-0.349333
C74	C	0.708414	0.008339	-0.016000
C75	C	1.041747	0.341672	0.317334
C76	C	0.301690	-0.322256	-0.346397
C77	C	0.635023	0.011078	-0.013064
C78	C	0.968356	0.344411	0.320269
C79	C	0.298082	-0.405974	-0.436106
C80	C	0.631416	-0.072640	-0.102773
C81	C	0.964749	0.260693	0.230560
C82	C	0.371470	-0.408715	-0.439037
C83	C	0.704803	-0.075382	-0.105703
C84	C	1.038136	0.257951	0.227630
C85	C	0.409965	-0.368223	-0.395653
C86	C	0.743298	-0.034890	-0.062320
C87	C	1.076631	0.298443	0.271013
N88	N	0.519353	-0.334883	-0.359923
N89	N	0.852686	-0.001550	-0.026590
N90	N	1.186020	0.331784	0.306743
N91	N	0.484976	-0.371027	-0.398658
N92	N	0.818310	-0.037693	-0.065325
N93	N	1.151643	0.295640	0.268008
C94	C	1.001719	-0.516485	-0.379223
C95	C	1.335053	-0.183151	-0.045889
C96	C	1.668386	0.150182	0.287444
C97	C	1.001744	-0.586454	-0.379231
C98	C	1.335077	-0.253121	-0.045897
C99	C	1.668411	0.080213	0.287436
C100	C	1.048522	-0.619448	-0.336144
C101	C	1.381855	-0.286115	-0.002811
C102	C	1.715189	0.047219	0.330523
C103	C	1.048554	-0.685192	-0.336161
C104	C	1.381888	-0.351859	-0.002828
C105	C	1.715221	-0.018526	0.330505
C106	C	1.001796	-0.717939	-0.379257
C107	C	1.335130	-0.384606	-0.045924
C108	C	1.668463	-0.051273	0.287410
C109	C	0.955015	-0.684937	-0.422352
C110	C	1.288348	-0.351604	-0.089019
C111	C	1.621681	-0.018271	0.244315
C112	C	0.954989	-0.619195	-0.422339
C113	C	1.288322	-0.285862	-0.089006
C114	C	1.621655	0.047472	0.244328
N115	N	0.940111	-0.819089	-0.382141
N116	N	1.273444	-0.485755	-0.048807
N117	N	1.606777	-0.152422	0.284526
N118	N	0.940138	-0.881541	-0.382149
N119	N	1.273471	-0.548208	-0.048816
N120	N	1.606804	-0.214875	0.284517
C121	C	1.001873	-0.916018	-0.379300
C122	C	1.335207	-0.582685	-0.045967
C123	C	1.668540	-0.249352	0.287366
N124	N	1.063583	-0.885683	-0.376429
N125	N	1.396916	-0.552350	-0.043096
N126	N	1.730250	-0.219016	0.290238
N127	N	1.063555	-0.823224	-0.376417
N128	N	1.396888	-0.489891	-0.043084
N129	N	1.730222	-0.156558	0.290250
C130	C	1.001820	-0.789226	-0.379276
C131	C	1.335153	-0.455893	-0.045943
C132	C	1.668486	-0.122560	0.287390
C133	C	1.048690	-1.020300	-0.336230
C134	C	1.382024	-0.686967	-0.002897
C135	C	1.715357	-0.353633	0.330436
C136	C	1.048724	-1.086046	-0.336252
C137	C	1.382057	-0.752712	-0.002919
C138	C	1.715390	-0.419379	0.330414
C139	C	0.955178	-1.085789	-0.422439
C140	C	1.288511	-0.752456	-0.089106
C141	C	1.621845	-0.419122	0.244227
C142	C	0.955151	-1.020045	-0.422421
C143	C	1.288484	-0.686712	-0.089088
C144	C	1.621817	-0.353378	0.244245
C145	C	1.001906	-0.987304	-0.379313
C146	C	1.335240	-0.653971	-0.045979
C147	C	1.668573	-0.320638	0.287354
C148	C	1.185090	-0.359812	-0.386639
C149	C	1.518424	-0.026479	-0.053306
C150	C	1.851757	0.306855	0.280027
C151	C	1.263193	-0.362741	-0.389782
C152	C	1.596527	-0.029408	-0.056448
C153	C	1.929860	0.303925	0.276885
C154	C	0.994480	-0.359220	-0.562545
C155	C	1.327813	-0.025886	-0.229212
C156	C	1.661146	0.307447	0.104122
C157	C	0.991356	-0.361897	-0.640648
C158	C	1.324689	-0.028563	-0.307314
C159	C	1.658023	0.304770	0.026019
C160	C	1.001919	-0.188754	-0.379324
C161	C	1.335253	0.144580	-0.045991
C162	C	1.668586	0.477913	0.287342
C163	C	1.001966	-0.118788	-0.379349
C164	C	1.335299	0.214545	-0.046016
C165	C	1.668633	0.547879	0.287317
C166	C	1.034851	-0.324586	-0.679164
C167	C	1.368184	0.008748	-0.345831
C168	C	1.701518	0.342081	-0.012497
C169	C	1.031907	-0.327098	-0.752550
C170	C	1.365241	0.006235	-0.419216
C171	C	1.698574	0.339569	-0.085883
C172	C	0.985472	-0.366925	-0.787418
C173	C	1.318805	-0.033592	-0.454084
C174	C	1.652139	0.299741	-0.120751
C175	C	0.941972	-0.404238	-0.748896
C176	C	1.275306	-0.070905	-0.415563
C177	C	1.608639	0.262429	-0.082229
C178	C	0.944913	-0.401722	-0.675512
C179	C	1.278246	-0.068388	-0.342178
C180	C	1.611579	0.264945	-0.008845
C181	C	0.971853	-0.378584	-1.006698
C182	C	1.305186	-0.045250	-0.673364
C183	C	1.638519	0.288083	-0.340031
C184	C	0.968917	-0.381099	-1.080087
C185	C	1.302250	-0.047765	-0.746754
C186	C	1.635584	0.285568	-0.413421
C187	C	1.058852	-0.303958	-1.083736
C188	C	1.392185	0.029376	-0.750402
C189	C	1.725518	0.362709	-0.417069
C190	C	1.061791	-0.301448	-1.010350
C191	C	1.395124	0.031886	-0.677017
C192	C	1.728458	0.365219	-0.343683
C193	C	1.018289	-0.338758	-0.971835
C194	C	1.351622	-0.005424	-0.638501
C195	C	1.684955	0.327909	-0.305168
N196	N	0.982464	-0.369496	-0.862429
N197	N	1.315797	-0.036163	-0.529096
N198	N	1.649130	0.297171	-0.195763
N199	N	1.021294	-0.336183	-0.896824
N200	N	1.354627	-0.002850	-0.563491
N201	N	1.687961	0.330483	-0.230157
C202	C	1.009152	-0.346637	-0.196700
C203	C	1.342485	-0.013303	0.136633
C204	C	1.675819	0.320030	0.469966
C205	C	1.012412	-0.343787	-0.118604
C206	C	1.345745	-0.010454	0.214730
C207	C	1.679079	0.322879	0.548063
H208	H	0.406414	-0.292027	-0.314002
H209	H	0.739748	0.041306	0.019332
H210	H	1.073081	0.374639	0.352665
O211	O	1.101032	-0.267734	-1.121256
O212	O	1.434365	0.065599	-0.787922
O213	O	1.767698	0.398933	-0.454589
C214	C	1.088494	-0.278504	-1.193504
C215	C	1.421827	0.054829	-0.860171
C216	C	1.755161	0.388163	-0.526837
H217	H	1.033852	-0.297431	-1.201335
H218	H	1.367185	0.035902	-0.868002
H219	H	1.700519	0.369235	-0.534669
H220	H	1.092172	-0.232488	-1.221602
H221	H	1.425506	0.100846	-0.888269
H222	H	1.758839	0.434179	-0.554935
H223	H	1.129319	-0.314300	-1.215997
H224	H	1.462652	0.019033	-0.882664
H225	H	1.795986	0.352367	-0.549331
O226	O	1.106819	-0.262654	-0.976524
O227	O	1.440152	0.070679	-0.643191
O228	O	1.773485	0.404012	-0.309857
C229	C	1.090781	-0.199965	-0.993892
C230	C	1.424114	0.133368	-0.660559
C231	C	1.757448	0.466702	-0.327226
H232	H	1.033836	-0.195386	-1.011796
H233	H	1.367169	0.137947	-0.678462
H234	H	1.700502	0.471280	-0.345129
H235	H	1.098791	-0.167425	-0.945899
H236	H	1.432124	0.165908	-0.612566
H237	H	1.765457	0.499241	-0.279233
H238	H	1.126748	-0.186391	-1.038025
H239	H	1.460081	0.146943	-0.704692
H240	H	1.793414	0.480276	-0.371358
H241	H	0.604455	-0.261999	-0.281825
H242	H	0.937788	0.071334	0.051508
H243	H	1.271121	0.404668	0.384842
H244	H	0.399871	-0.443918	-0.476755
H245	H	0.733205	-0.110585	-0.143422
H246	H	1.066538	0.222749	0.189912
H247	H	0.916895	-0.592330	-0.457426
H248	H	1.250229	-0.258997	-0.124093
H249	H	1.583562	0.074336	0.209241
H250	H	1.072666	-0.292156	-0.650780
H251	H	1.405999	0.041178	-0.317447
H252	H	1.739333	0.374511	0.015887
O253	O	0.923761	-0.419698	-1.114031
O254	O	1.257094	-0.086365	-0.780698
O255	O	1.590428	0.246969	-0.447364
C256	C	0.876696	-0.383604	-1.154650
C257	C	1.210029	-0.050271	-0.821317
C258	C	1.543362	0.283062	-0.487983
H259	H	0.901079	-0.337212	-1.166661
H260	H	1.234413	-0.003879	-0.833328
H261	H	1.567746	0.329454	-0.499995
H262	H	0.865188	-0.410658	-1.205864
H263	H	1.198521	-0.077325	-0.872531
H264	H	1.531855	0.256008	-0.539198
H265	H	0.825762	-0.373757	-1.124271
H266	H	1.159095	-0.040423	-0.790938
H267	H	1.492428	0.292910	-0.457605
H268	H	0.917110	-1.112451	-0.457532
H269	H	1.250443	-0.779118	-0.124199
H270	H	1.583776	-0.445785	0.209135
O271	O	1.094019	-0.717153	-0.294237
O272	O	1.427352	-0.383820	0.039097
O273	O	1.760686	-0.050486	0.372430
C274	C	1.135293	-0.674158	-0.256201
C275	C	1.468627	-0.340825	0.077133
C276	C	1.801960	-0.007492	0.410466
H277	H	1.106597	-0.626155	-0.252580
H278	H	1.439931	-0.292822	0.080753
H279	H	1.773264	0.040512	0.414086
H280	H	1.145047	-0.691556	-0.201150
H281	H	1.478380	-0.358223	0.132184
H282	H	1.811713	-0.024889	0.465517
H283	H	1.187610	-0.669997	-0.284114
H284	H	1.520944	-0.336664	0.049219
H285	H	1.854277	-0.003330	0.382553
O286	O	0.929561	-0.414880	-0.969397
O287	O	1.262894	-0.081546	-0.636064
O288	O	1.596228	0.251787	-0.302731
C289	C	0.887931	-0.450554	-1.015911
C290	C	1.221264	-0.117221	-0.682578
C291	C	1.554598	0.216112	-0.349245
H292	H	0.914626	-0.455620	-1.069375
H293	H	1.247959	-0.122287	-0.736042
H294	H	1.581292	0.211046	-0.402709
H295	H	0.881229	-0.499136	-0.994382
H296	H	1.214563	-0.165803	-0.661049
H297	H	1.547896	0.167530	-0.327715
H298	H	0.834276	-0.425755	-1.021588
H299	H	1.167609	-0.092422	-0.688255
H300	H	1.500942	0.240912	-0.354921
H301	H	1.067327	-0.296717	-0.783907
H302	H	1.400661	0.036616	-0.450573
H303	H	1.733994	0.369950	-0.117240
H304	H	0.904161	-0.436664	-0.777291
H305	H	1.237494	-0.103330	-0.443958
H306	H	1.570828	0.230003	-0.110625
O307	O	0.902644	-0.438036	-0.638203
O308	O	1.235977	-0.104703	-0.304869
O309	O	1.569311	0.228630	0.028464
C310	C	0.861020	-0.473722	-0.684712
C311	C	1.194353	-0.140388	-0.351378
C312	C	1.527687	0.192945	-0.018045
H313	H	0.887701	-0.478767	-0.738184
H314	H	1.221034	-0.145434	-0.404851
H315	H	1.554367	0.187900	-0.071517
H316	H	0.854352	-0.522312	-0.663191
H317	H	1.187685	-0.188978	-0.329858
H318	H	1.521018	0.144355	0.003476
H319	H	0.807351	-0.448944	-0.690368
H320	H	1.140684	-0.115610	-0.357035
H321	H	1.474017	0.217723	-0.023702
H322	H	0.737596	-0.266971	-0.287151
H323	H	1.070929	0.066362	0.046182
H324	H	1.404262	0.399695	0.379516
H325	H	1.086820	-1.112908	-0.301168
H326	H	1.420154	-0.779575	0.032166
H327	H	1.753487	-0.446242	0.365499
O328	O	0.736419	-0.425674	-0.457239
O329	O	1.069753	-0.092341	-0.123906
O330	O	1.403086	0.240992	0.209427
C331	C	0.686701	-0.460828	-0.494890
C332	C	1.020035	-0.127495	-0.161557
C333	C	1.353368	0.205839	0.171776
H334	H	0.634305	-0.433178	-0.495281
H335	H	0.967638	-0.099844	-0.161948
H336	H	1.300971	0.233489	0.171386
H337	H	0.705698	-0.470308	-0.551090
H338	H	1.039031	-0.136975	-0.217756
H339	H	1.372364	0.196358	0.115577
H340	H	0.679899	-0.507424	-0.468748
H341	H	1.013232	-0.174090	-0.135414
H342	H	1.346566	0.159243	0.197919
H343	H	0.597915	-0.413886	-0.444573
H344	H	0.931248	-0.080553	-0.111240
H345	H	1.264582	0.252781	0.222093
H346	H	0.273285	-0.287047	-0.308681
H347	H	0.606618	0.046287	0.024652
H348	H	0.939952	0.379620	0.357986
O349	O	0.260580	-0.445237	-0.478224
O350	O	0.593914	-0.111904	-0.144891
O351	O	0.927247	0.221429	0.188443
C352	C	0.188327	-0.433560	-0.465689
C353	C	0.521661	-0.100227	-0.132356
C354	C	0.854994	0.233107	0.200977
H355	H	0.179240	-0.383790	-0.442374
H356	H	0.512573	-0.050457	-0.109041
H357	H	0.845906	0.282877	0.224293
H358	H	0.158343	-0.438663	-0.517199
H359	H	0.491676	-0.105330	-0.183866
H360	H	0.825009	0.228003	0.149467
H361	H	0.168974	-0.468784	-0.427360
H362	H	0.502307	-0.135450	-0.094027
H363	H	0.835640	0.197883	0.239307
H364	H	1.086595	-0.592792	-0.301045
H365	H	1.419928	-0.259459	0.032289
H366	H	1.753261	0.073874	0.365622
H367	H	0.916945	-0.711604	-0.457442
H368	H	1.250279	-0.378271	-0.124109
H369	H	1.583612	-0.044938	0.209224
H370	H	0.917057	-0.993179	-0.457503
H371	H	1.250390	-0.659846	-0.124170
H372	H	1.583723	-0.326513	0.209163
O373	O	1.094176	-0.988590	-0.294340
O374	O	1.427509	-0.655257	0.038993
O375	O	1.760842	-0.321923	0.372326
C376	C	1.135464	-1.031813	-0.256304
C377	C	1.468797	-0.698479	0.077029
C378	C	1.802130	-0.365146	0.410363
H379	H	1.136746	-1.079738	-0.285198
H380	H	1.470079	-0.746404	0.048136
H381	H	1.803413	-0.413071	0.381469
H382	H	1.191122	-1.014590	-0.251073
H383	H	1.524456	-0.681257	0.082260
H384	H	1.857789	-0.347923	0.415594
H385	H	1.111911	-1.036061	-0.201885
H386	H	1.445244	-0.702727	0.131448
H387	H	1.778578	-0.369394	0.464781
