data_functionalizedCrystal
_audit_creation_method	'MofGen! by Chris Wilmer'
_symmetry_space_group_name_H-M	'P1'
_symmetry_Int_Tables_number	1
_symmetry_cell_setting	triclinic
loop_
_symmetry_equiv_pos_as_xyz
  x,y,z
_cell_length_a	12.827893
_cell_length_b	19.121073
_cell_length_c	12.827885
_cell_angle_alpha	92.401750
_cell_angle_beta	89.980538
_cell_angle_gamma	92.470437
loop_
_atom_site_label
_atom_site_type_symbol
_atom_site_fract_x
_atom_site_fract_y
_atom_site_fract_z
Zn1	Zn	1.579826	-0.279579	-0.608523
Zn2	Zn	1.572222	-0.397046	-0.441209
Zn3	Zn	1.405065	-0.279613	-0.433799
Zn4	Zn	1.397558	-0.396993	-0.615906
O5	O	1.488668	-0.338308	-0.524859
O6	O	1.725053	-0.295169	-0.586340
O7	O	1.550007	-0.381504	-0.293992
O8	O	1.434571	-0.181325	-0.450785
O9	O	1.719466	-0.381471	-0.463415
O10	O	1.562968	-0.181300	-0.579154
O11	O	1.427198	-0.295227	-0.288548
O12	O	1.257833	-0.295176	-0.457944
O13	O	1.421777	-0.381382	-0.761160
O14	O	1.252318	-0.381415	-0.591737
O15	O	1.555689	-0.295118	-0.755736
O16	O	1.542728	-0.495323	-0.470574
O17	O	1.414404	-0.495284	-0.598923
C18	C	1.217159	-0.338294	-0.524838
C19	C	1.101005	-0.338305	-0.524855
C20	C	1.476955	-0.520788	-0.536376
C21	C	1.472040	-0.598853	-0.541338
C22	C	1.046515	-0.381046	-0.590967
C23	C	0.926463	-0.381058	-0.590986
C24	C	1.440921	-1.040377	-0.572836
C25	C	1.445539	-0.967026	-0.568162
C26	C	1.514710	-0.930349	-0.499048
C27	C	1.579274	-0.967028	-0.434612
C28	C	1.574661	-1.040377	-0.439292
C29	C	1.531990	-0.708881	-0.481582
C30	C	1.536597	-0.635526	-0.476905
C31	C	1.402862	-0.635530	-0.610456
C32	C	1.398250	-0.708881	-0.615126
C33	C	1.462818	-0.745552	-0.550694
C34	C	1.519430	-0.855373	-0.494267
C35	C	1.458103	-0.820527	-0.555481
C36	C	1.761237	-0.338322	-0.524880
C37	C	1.877390	-0.338328	-0.524890
C38	C	1.488744	-0.338240	-0.797425
C39	C	1.488777	-0.338212	-0.913576
C40	C	1.500455	-0.155116	-0.513319
C41	C	1.505478	-0.077050	-0.508402
C42	C	1.428027	-0.295511	-0.962667
C43	C	1.428060	-0.295480	-1.082715
C44	C	1.488655	-0.338324	-0.253350
C45	C	1.488838	-0.338155	-0.137187
H46	H	1.088741	-0.417625	-0.647556
Br47	Br	1.030637	-0.277323	-0.430543
H48	H	0.924233	-0.301737	-0.468283
Br49	Br	1.341377	-0.234538	-1.153088
Br50	Br	1.575541	-0.399088	-1.066820
Br51	Br	1.347031	-1.090145	-0.666628
Br52	Br	1.357928	-0.917258	-0.655618
H53	H	0.879613	-0.417652	-0.647583
H54	H	1.341912	-0.738738	-0.671393
H55	H	1.540809	-0.374748	-0.960424
H56	H	1.350295	-0.605665	-0.662915
H57	H	1.401788	-0.850393	-0.611757
Br58	Br	1.630460	-0.585751	-0.383084
H59	H	1.375990	-0.258978	-0.915819
Br60	Br	1.619619	-0.758641	-0.394138
Br61	Br	1.673159	-0.917253	-0.340823
H62	H	1.627233	-1.070236	-0.386826
H63	H	1.575748	-0.825505	-0.437991
