data_functionalizedCrystal
_audit_creation_method	'MofGen! by Chris Wilmer'
_symmetry_space_group_name_H-M	'P1'
_symmetry_Int_Tables_number	1
_symmetry_cell_setting	triclinic
loop_
_symmetry_equiv_pos_as_xyz
  x,y,z
_cell_length_a	18.101398
_cell_length_b	18.101395
_cell_length_c	18.101389
_cell_angle_alpha	89.983159
_cell_angle_beta	90.009745
_cell_angle_gamma	89.973339
loop_
_atom_site_label
_atom_site_type_symbol
_atom_site_fract_x
_atom_site_fract_y
_atom_site_fract_z
Zn1	Zn	1.132121	0.294995	0.418559
Zn2	Zn	1.132017	0.418821	0.294721
Zn3	Zn	1.008280	0.294988	0.294751
Zn4	Zn	1.008231	0.418790	0.418541
O5	O	1.070162	0.356898	0.356643
O6	O	1.235740	0.311437	0.402126
O7	O	1.115580	0.402404	0.191092
O8	O	1.024772	0.191356	0.311195
O9	O	1.235663	0.402411	0.311143
O10	O	1.115757	0.191361	0.402156
O11	O	1.024671	0.311425	0.191114
O12	O	0.904640	0.311395	0.311178
O13	O	1.024688	0.402358	0.522176
O14	O	0.904604	0.402351	0.402125
O15	O	1.115710	0.311407	0.522189
O16	O	1.115532	0.522450	0.311125
O17	O	1.024587	0.522427	0.402095
C18	C	0.877751	0.356869	0.356653
C19	C	0.795437	0.356875	0.356675
C20	C	0.496346	0.356918	0.356644
C21	C	0.527674	0.414422	0.413583
C22	C	0.613292	0.414242	0.413817
C23	C	0.644729	0.356897	0.356660
C24	C	0.613675	0.278899	0.377985
C25	C	0.528029	0.279244	0.378390
C26	C	0.527894	0.376725	0.278242
C27	C	0.613544	0.378437	0.278661
C28	C	0.728588	0.356881	0.356667
C29	C	0.412487	0.356930	0.356639
C30	C	1.070063	0.549309	0.356621
C31	C	1.070088	0.631623	0.356637
C32	C	1.070205	0.356880	0.549805
C33	C	1.070223	0.356872	0.632119
C34	C	1.263324	0.356928	0.356633
C35	C	1.345638	0.356941	0.356629
C36	C	1.070282	0.163736	0.356681
C37	C	1.070333	0.081422	0.356697
C38	C	1.070251	0.930714	0.356676
C39	C	1.013163	0.899405	0.414054
C40	C	1.012892	0.813787	0.413875
C41	C	1.070170	0.782331	0.356657
C42	C	1.049041	0.813467	0.278611
C43	C	1.048673	0.899112	0.278955
C44	C	1.148592	0.899067	0.376658
C45	C	1.148132	0.813417	0.378369
C46	C	1.070126	0.698472	0.356642
C47	C	1.070293	1.014573	0.356687
C48	C	1.070162	0.356864	0.164232
C49	C	1.070287	0.356663	0.081919
C50	C	1.070266	0.356733	0.931210
C51	C	1.012801	0.413775	0.899877
C52	C	1.012956	0.414040	0.814258
C53	C	1.070244	0.356802	0.782827
C54	C	1.148270	0.377992	0.813914
C55	C	1.147949	0.378366	0.899559
C56	C	1.050385	0.278374	0.899637
C57	C	1.048649	0.278826	0.813987
C58	C	1.070236	0.356839	0.698968
C59	C	1.070279	0.356697	1.015070
H60	H	0.507308	0.234865	0.338820
H61	H	0.634039	0.234893	0.337807
H62	H	1.025796	0.471503	0.921400
H63	H	1.167856	0.920627	0.432598
C64	C	1.170712	0.455750	0.926558
C65	C	1.175130	0.472110	1.009921
C66	C	1.197892	0.549496	1.036916
C67	C	1.216234	0.610521	0.980547
C68	C	1.211816	0.594162	0.897179
C69	C	1.189055	0.516777	0.870184
H70	H	1.161552	0.426934	1.051653
H71	H	1.201162	0.561605	1.098631
H72	H	1.233083	0.667807	1.000530
H73	H	1.225395	0.639339	0.855447
H74	H	1.185785	0.504667	0.808469
C75	C	0.934398	0.396034	0.927693
C76	C	0.872476	0.378507	0.872056
C77	C	0.794072	0.360760	0.899876
C78	C	0.777589	0.360539	0.983334
C79	C	0.839512	0.378066	1.038976
C80	C	0.917916	0.395814	1.011156
H81	H	0.884677	0.378670	0.810271
H82	H	0.748232	0.347785	0.858686
H83	H	0.719549	0.347401	1.003928
H84	H	0.827311	0.377903	1.100761
H85	H	0.963756	0.408788	1.052346
C86	C	1.207670	0.323631	0.786417
C87	C	1.185965	0.259213	0.735294
C88	C	1.245364	0.204849	0.707799
C89	C	1.326467	0.214904	0.731427
C90	C	1.348175	0.279326	0.782553
C91	C	1.288777	0.333690	0.810048
H92	H	1.125925	0.251766	0.717800
H93	H	1.229294	0.157160	0.669951
H94	H	1.370437	0.174661	0.711073
H95	H	1.408216	0.286772	0.800047
H96	H	1.304847	0.381379	0.847895
H97	H	0.506163	0.401485	0.471339
H98	H	0.992380	0.792075	0.261380
H99	H	1.165415	0.434665	0.792469
C100	C	0.500525	0.320148	0.220923
C101	C	0.519515	0.237721	0.230115
C102	C	0.492143	0.181142	0.172803
C103	C	0.445779	0.206989	0.106299
C104	C	0.426786	0.289420	0.097103
C105	C	0.454159	0.345999	0.154415
H106	H	0.553839	0.218584	0.279349
H107	H	0.506203	0.120121	0.179611
H108	H	0.425516	0.165106	0.063873
H109	H	0.392463	0.308557	0.047870
H110	H	0.440099	0.407020	0.147608
C111	C	1.106921	0.220954	0.927014
C112	C	1.153724	0.177268	0.870997
C113	C	1.210262	0.119856	0.898378
C114	C	1.219997	0.106129	0.981776
C115	C	1.173192	0.149816	1.037798
C116	C	1.116654	0.207229	1.010417
H117	H	1.146519	0.187429	0.809256
H118	H	1.244910	0.087516	0.856906
H119	H	1.261850	0.063629	1.002045
H120	H	1.180397	0.139656	1.099539
H121	H	1.082007	0.239569	1.051889
H122	H	1.026082	0.472122	0.793774
H123	H	0.633848	0.435832	0.262577
C124	C	0.642447	0.325963	0.218266
C125	C	0.695106	0.262349	0.238809
C126	C	0.724010	0.209869	0.178416
C127	C	0.700256	0.221002	0.097480
C128	C	0.647594	0.284619	0.076934
C129	C	0.618690	0.337099	0.137327
H130	H	0.712693	0.254105	0.298725
H131	H	0.762994	0.162776	0.193626
H132	H	0.721652	0.182153	0.052774
H133	H	0.630007	0.292863	0.017017
H134	H	0.579706	0.384192	0.122117
C135	C	0.501056	0.256555	0.455819
C136	C	0.452326	0.187496	0.465345
C137	C	0.425356	0.164809	0.542776
C138	C	0.447117	0.211179	0.610683
C139	C	0.495850	0.280242	0.601159
C140	C	0.522820	0.302930	0.523728
H141	H	0.436214	0.153166	0.415074
H142	H	0.389281	0.113684	0.549826
H143	H	0.427153	0.194385	0.668002
H144	H	0.511961	0.314572	0.651430
H145	H	0.558895	0.354054	0.516679
C146	C	1.030702	0.785340	0.492064
C147	C	1.045276	0.840553	0.555103
C148	C	1.063062	0.812111	0.633301
C149	C	1.066275	0.728455	0.648460
C150	C	1.051701	0.673237	0.585418
C151	C	1.033915	0.701680	0.507220
H152	H	1.042898	0.902485	0.543884
H153	H	1.073851	0.852988	0.679968
H154	H	1.079442	0.707401	0.706346
H155	H	1.054079	0.611306	0.596638
H156	H	1.023126	0.660803	0.460553
C157	C	0.642664	0.255789	0.454575
C158	C	0.587965	0.240224	0.517833
C159	C	0.616953	0.217120	0.594425
C160	C	0.700642	0.209580	0.607758
C161	C	0.755347	0.225145	0.544497
C162	C	0.726358	0.248249	0.467906
H163	H	0.526009	0.245805	0.507965
H164	H	0.576457	0.205598	0.641254
H165	H	0.722101	0.192477	0.664455
H166	H	0.817302	0.219564	0.554366
H167	H	0.766854	0.259772	0.421077
C168	C	0.641661	0.492383	0.395776
C169	C	0.586386	0.555384	0.381052
C170	C	0.614751	0.633530	0.363017
C171	C	0.698392	0.648674	0.359705
C172	C	0.753672	0.585670	0.374429
C173	C	0.725307	0.507525	0.392464
H174	H	0.524465	0.544176	0.383503
H175	H	0.573828	0.680169	0.352117
H176	H	0.719389	0.706522	0.346354
H177	H	0.815593	0.596879	0.371977
H178	H	0.766231	0.460886	0.403364
H179	H	0.991229	0.262847	0.793669
C180	C	1.030842	0.927172	0.492492
C181	C	1.097330	0.978617	0.505407
C182	C	1.115013	1.006385	0.583848
C183	C	1.066208	0.982709	0.649373
C184	C	0.999716	0.931261	0.636460
C185	C	0.982033	0.903492	0.558019
H186	H	1.133462	0.996147	0.456900
H187	H	1.164235	1.044471	0.593407
H188	H	1.079298	1.003264	0.707440
H189	H	0.963584	0.913731	0.684968
H190	H	0.932811	0.865407	0.548461
C191	C	1.207767	0.324698	0.927568
C192	C	1.255676	0.281638	0.872002
C193	C	1.315500	0.227979	0.900007
C194	C	1.327415	0.217381	0.983578
C195	C	1.279504	0.260442	1.039149
C196	C	1.219681	0.314101	1.011144
H197	H	1.246856	0.289482	0.810134
H198	H	1.350966	0.196102	0.858870
H199	H	1.371700	0.177660	1.004309
H200	H	1.288324	0.252598	1.101017
H201	H	1.184214	0.345977	1.052281
H202	H	0.507058	0.472452	0.400367
H203	H	1.087450	0.234070	0.792592
H204	H	0.955448	0.920985	0.400987
H205	H	1.192915	0.792001	0.339623
H206	H	0.994478	0.259069	0.921237
H207	H	0.954823	0.793357	0.400641
H208	H	0.633794	0.401138	0.471908
C209	C	0.498691	0.452242	0.252052
C210	C	0.445814	0.496890	0.301528
C211	C	0.416610	0.572409	0.275347
C212	C	0.440283	0.603280	0.199690
C213	C	0.493163	0.558631	0.150209
C214	C	0.522367	0.483112	0.176390
H215	H	0.428287	0.474038	0.357538
H216	H	0.377465	0.605461	0.311977
H217	H	0.418665	0.659184	0.180310
H218	H	0.510690	0.581484	0.094199
H219	H	0.561512	0.450060	0.139760
C220	C	0.971309	0.926185	0.256093
C221	C	0.910292	0.869875	0.237651
C222	C	0.832926	0.896944	0.214792
C223	C	0.816575	0.980323	0.210374
C224	C	0.877593	1.036638	0.228817
C225	C	0.954960	1.009569	0.251676
H226	H	0.922395	0.808149	0.240921
H227	H	0.787756	0.855255	0.201139
H228	H	0.759303	1.000360	0.193453
H229	H	0.865491	1.098364	0.225547
H230	H	1.000129	1.051258	0.265329
C231	C	1.169660	0.785921	0.455963
C232	C	1.184577	0.841858	0.518279
C233	C	1.206100	0.814358	0.595874
C234	C	1.212704	0.730922	0.611152
C235	C	1.197786	0.674980	0.548833
C236	C	1.176264	0.702480	0.471239
H237	H	1.179689	0.903627	0.506971
H238	H	1.217143	0.855771	0.642006
H239	H	1.228636	0.710565	0.668592
H240	H	1.202675	0.613211	0.560141
H241	H	1.165221	0.661067	0.425106
C242	C	1.206056	0.926417	0.320207
C243	C	1.197048	0.907498	0.237761
C244	C	1.254505	0.934851	0.181308
C245	C	1.320969	0.981123	0.207302
C246	C	1.329980	1.000045	0.289753
C247	C	1.272523	0.972692	0.346205
H248	H	1.147845	0.873242	0.218514
H249	H	1.247834	0.920843	0.120273
H250	H	1.363502	1.001372	0.165513
H251	H	1.379183	1.034301	0.308999
H252	H	1.279194	0.986699	0.407241
C253	C	0.934791	0.396123	0.785867
C254	C	0.898094	0.322142	0.806253
C255	C	0.819924	0.304227	0.777871
C256	C	0.778451	0.360292	0.729101
C257	C	0.815148	0.434277	0.708711
C258	C	0.893318	0.452193	0.737094
H259	H	0.928795	0.280635	0.842358
H260	H	0.792758	0.249457	0.792965
H261	H	0.720584	0.347030	0.708090
H262	H	0.784447	0.475784	0.672607
H263	H	0.920483	0.506962	0.722000
H264	H	1.088449	0.919824	0.234746
H265	H	1.089313	0.793092	0.234695
