data_functionalizedCrystal
_audit_creation_method	'MofGen! by Chris Wilmer'
_symmetry_space_group_name_H-M	'P1'
_symmetry_Int_Tables_number	1
_symmetry_cell_setting	triclinic
loop_
_symmetry_equiv_pos_as_xyz
  x,y,z
_cell_length_a	10.967829
_cell_length_b	17.038278
_cell_length_c	10.065918
_cell_angle_alpha	99.251885
_cell_angle_beta	111.710614
_cell_angle_gamma	87.838447
loop_
_atom_site_label
_atom_site_type_symbol
_atom_site_fract_x
_atom_site_fract_y
_atom_site_fract_z
O1	O	0.299276	1.055642	0.183886
O2	O	0.799276	1.555642	0.683886
O3	O	0.294813	0.827892	0.182837
O4	O	0.794813	1.327892	0.682837
O5	O	0.109183	0.942986	0.139173
O6	O	0.609183	1.442986	0.639173
O7	O	0.484905	0.940548	0.227550
O8	O	0.984905	1.440548	0.727550
O9	O	0.073113	0.921495	-0.096299
O10	O	0.573113	1.421495	0.403701
O11	O	0.258743	0.806402	-0.052635
O12	O	0.758743	1.306402	0.447365
O13	O	0.263205	1.034152	-0.051586
O14	O	0.763205	1.534152	0.448414
Zn15	Zn	0.255247	0.916865	-0.089497
Zn16	Zn	0.755247	1.416865	0.410503
Zn17	Zn	0.302771	0.945179	0.220748
Zn18	Zn	0.802771	1.445179	0.720748
O19	O	0.448835	0.919058	-0.007923
O20	O	0.948835	1.419058	0.492077
C21	C	0.272716	0.787910	0.064146
C22	C	0.772716	1.287910	0.564146
C23	C	0.260599	0.700792	0.061296
C24	C	0.760599	1.200792	0.561296
C25	C	0.186156	0.208386	0.043791
C26	C	0.686156	0.708386	0.543791
C27	C	0.197550	0.290241	0.046463
C28	C	0.697550	0.790241	0.546463
C29	C	0.320213	0.324962	0.075321
C30	C	0.820213	0.824962	0.575321
C31	C	0.431486	0.277822	0.101495
C32	C	0.931486	0.777822	0.601495
C33	C	0.420089	0.195967	0.098813
C34	C	0.920089	0.695967	0.598813
C35	C	0.360475	0.571798	0.084788
C36	C	0.860475	1.071798	0.584788
C37	C	0.371865	0.653659	0.087472
C38	C	0.871865	1.153659	0.587472
C39	C	0.137927	0.666072	0.032437
C40	C	0.637927	1.166072	0.532437
C41	C	0.126542	0.584217	0.029765
C42	C	0.626542	1.084217	0.529765
C43	C	0.237814	0.537083	0.055932
C44	C	0.737814	1.037083	0.555932
C45	C	0.331863	0.408631	0.078058
C46	C	0.831863	0.908631	0.578058
C47	C	0.226161	0.453414	0.053185
C48	C	0.726161	0.953414	0.553185
C49	C	0.042837	0.930440	0.010076
C50	C	0.542837	1.430440	0.510076
C51	C	-0.101115	0.925064	-0.023775
C52	C	0.398885	1.425064	0.476225
C53	C	-0.146602	0.933800	0.083116
C54	C	0.353398	1.433800	0.583116
C55	C	-0.295384	0.928244	0.048132
C56	C	0.204616	1.428244	0.548132
C57	C	0.515182	0.931605	0.121177
C58	C	1.015182	1.431605	0.621177
C59	C	0.659135	0.936981	0.155038
C60	C	1.159135	1.436981	0.655038
C61	C	0.285302	1.074134	0.067108
C62	C	0.785302	1.574134	0.567108
C63	C	0.297421	1.161253	0.069967
C64	C	0.797421	1.661253	0.569967
N65	N	0.222813	0.897546	-0.301232
N66	N	0.722813	1.397546	0.198768
C67	C	0.291486	0.938453	-0.352858
C68	C	0.791486	1.438453	0.147142
C69	C	0.266513	0.923591	-0.515899
C70	C	0.766513	1.423591	-0.015899
N71	N	0.335196	0.964503	0.432480
N72	N	0.835196	1.464503	0.932480
H73	H	0.106945	0.328614	0.025141
H74	H	0.606945	0.828614	0.525141
N75	N	0.164126	0.862628	-0.617219
N76	N	0.664126	1.362628	-0.117219
H77	H	0.160795	0.860654	-0.719329
H78	H	0.660795	1.360654	-0.219329
H79	H	0.187587	0.808652	-0.586819
H80	H	0.687587	1.308652	-0.086819
N81	N	0.504171	0.691106	0.118587
N82	N	1.004171	1.191106	0.618587
H83	H	0.494503	0.750113	0.116323
H84	H	0.994503	1.250113	0.616323
H85	H	0.566628	0.682051	0.217424
H86	H	1.066628	1.182051	0.717424
N87	N	0.053855	0.170935	0.012651
N88	N	0.553855	0.670935	0.512651
H89	H	0.057272	0.145216	0.097596
H90	H	0.557272	0.645216	0.597596
H91	H	-0.014834	0.213254	-0.003569
H92	H	0.485166	0.713254	0.496431
H93	H	0.451083	0.533432	0.106102
H94	H	0.951083	1.033432	0.606102
H95	H	-0.172319	0.913466	-0.141188
H96	H	0.327681	1.413466	0.358812
H97	H	0.145528	0.851525	-0.377737
H98	H	0.645528	1.351525	0.122263
H99	H	0.026657	0.555953	0.006266
H100	H	0.526657	1.055953	0.506266
H101	H	0.412481	1.010532	-0.491022
H102	H	0.912481	1.510532	0.008978
H103	H	-0.075397	0.945389	0.200530
H104	H	0.424603	1.445389	0.700530
H105	H	0.531360	0.306097	0.124984
H106	H	1.031360	0.806097	0.624984
H107	H	0.368763	0.984479	-0.276355
H108	H	0.868763	1.484479	0.223645
H109	H	0.510693	0.157591	0.120124
H110	H	1.010693	0.657591	0.620124
H111	H	0.431737	0.436910	0.101559
H112	H	0.931737	0.936910	0.601559
N113	N	0.017917	0.716907	0.004208
N114	N	0.517917	1.216907	0.504208
H115	H	0.043743	0.774030	0.010283
H116	H	0.543743	1.274030	0.510283
H117	H	-0.048515	0.697342	-0.095571
H118	H	0.451485	1.197342	0.404429
N119	N	0.093867	0.415962	0.022049
N120	N	0.593867	0.915962	0.522049
H121	H	0.097301	0.390241	0.106999
H122	H	0.597301	0.890241	0.606999
H123	H	0.025169	0.458276	0.005837
H124	H	0.525169	0.958276	0.505837
H125	H	-0.366584	0.916646	-0.069289
H126	H	0.133416	1.416646	0.430711
H127	H	-0.269664	0.948565	0.272460
H128	H	0.230336	1.448565	0.772460
