data_functionalizedCrystal
_audit_creation_method	'MofGen! by Chris Wilmer'
_symmetry_space_group_name_H-M	'P1'
_symmetry_Int_Tables_number	1
_symmetry_cell_setting	triclinic
loop_
_symmetry_equiv_pos_as_xyz
  x,y,z
_cell_length_a	12.759395
_cell_length_b	12.759394
_cell_length_c	12.759393
_cell_angle_alpha	89.968618
_cell_angle_beta	89.983099
_cell_angle_gamma	90.014682
loop_
_atom_site_label
_atom_site_type_symbol
_atom_site_fract_x
_atom_site_fract_y
_atom_site_fract_z
Zn1	Zn	1.606241	-0.418218	-0.593968
Zn2	Zn	1.606139	-0.593934	-0.418286
Zn3	Zn	1.430547	-0.418270	-0.418309
Zn4	Zn	1.430532	-0.593855	-0.593929
O5	O	1.518365	-0.506069	-0.506123
O6	O	1.753249	-0.441539	-0.570671
O7	O	1.582811	-0.570687	-0.271268
O8	O	1.453903	-0.271242	-0.441636
O9	O	1.753174	-0.570637	-0.441598
O10	O	1.582985	-0.271204	-0.570693
O11	O	1.453804	-0.441626	-0.271284
O12	O	1.283524	-0.441550	-0.441598
O13	O	1.453876	-0.570502	-0.740955
O14	O	1.283513	-0.570552	-0.570625
O15	O	1.582969	-0.441462	-0.740984
O16	O	1.582795	-0.740945	-0.441560
O17	O	1.453777	-0.740887	-0.570603
C18	C	1.518302	-0.779037	-0.506098
C19	C	1.518371	-0.895814	-0.506122
C20	C	1.245397	-0.506049	-0.506110
C21	C	1.128621	-0.506065	-0.506129
C22	C	1.652819	-0.895821	-0.371849
C23	C	1.720070	-0.950685	-0.304725
C24	C	1.720131	-1.060407	-0.304754
C25	C	1.652937	-1.115266	-0.371916
C26	C	1.585686	-1.060402	-0.439040
C27	C	1.585629	-0.950678	-0.439002
C28	C	1.451245	-1.060395	-0.573316
C29	C	1.451176	-0.950673	-0.573284
C30	C	1.384050	-1.115255	-0.640478
C31	C	1.316792	-1.060390	-0.707598
C32	C	1.316733	-0.950662	-0.707566
C33	C	1.383925	-0.895809	-0.640408
C34	C	1.128679	-0.371853	-0.640750
C35	C	1.073848	-0.304759	-0.708069
C36	C	0.964126	-0.304778	-0.708082
C37	C	0.909234	-0.371895	-0.640767
C38	C	0.964065	-0.438988	-0.573448
C39	C	1.073789	-0.438965	-0.573444
C40	C	0.964006	-0.573194	-0.438824
C41	C	1.073728	-0.573182	-0.438814
C42	C	0.909114	-0.640311	-0.371508
C43	C	0.963945	-0.707411	-0.304193
C44	C	1.073673	-0.707391	-0.304184
C45	C	1.128559	-0.640276	-0.371495
C46	C	1.792398	-0.506091	-0.506136
C47	C	1.909175	-0.506100	-0.506142
C48	C	1.518432	-0.505968	-0.780156
C49	C	1.518461	-0.505925	-0.896933
C50	C	1.518457	-0.232036	-0.506171
C51	C	1.518496	-0.115259	-0.506192
C52	C	1.451264	-0.573084	-0.951782
C53	C	1.451303	-0.573046	-1.061506
C54	C	1.585737	-0.438680	-1.061523
C55	C	1.585703	-0.438724	-0.951801
C56	C	1.373647	-0.650656	-0.951772
C57	C	1.373685	-0.650618	-1.061497
C58	C	1.518358	-0.506095	-0.233156
C59	C	1.518533	-0.505842	-0.116379
H60	H	1.774781	-0.906009	-0.250045
C61	C	1.224022	-0.703230	-1.162665
C62	C	1.263870	-0.621160	-1.101716
H63	H	1.156229	-0.685043	-1.187489
H64	H	1.269241	-0.715322	-1.220552
H65	H	1.219557	-0.764981	-1.121278
H66	H	1.268343	-0.559411	-1.143105
H67	H	1.218640	-0.609055	-1.043820
H68	H	1.640431	-0.384047	-0.907148
H69	H	1.296353	-0.621515	-0.917745
C70	C	1.320875	-0.800358	-0.850581
C71	C	1.403012	-0.760516	-0.911546
H72	H	1.339003	-0.868181	-0.825752
H73	H	1.308771	-0.755174	-0.792696
H74	H	1.259150	-0.804755	-0.891958
H75	H	1.464735	-0.756112	-0.870167
H76	H	1.415129	-0.805711	-0.969439
H77	H	0.919243	-0.762048	-0.249386
C78	C	0.930399	-0.253843	-0.886083
C79	C	0.903846	-0.231034	-0.782080
H80	H	0.893178	-0.208321	-0.931765
H81	H	1.003591	-0.244213	-0.895707
H82	H	0.912420	-0.324461	-0.901315
H83	H	0.921832	-0.160417	-0.766846
H84	H	0.830638	-0.240655	-0.772452
C85	C	1.552791	-0.738754	-0.344941
C86	C	1.652745	-0.775213	-0.371808
H87	H	1.552750	-0.664296	-0.344909
H88	H	1.503165	-0.763571	-0.394547
H89	H	1.534679	-0.763659	-0.277137
H90	H	1.670854	-0.750315	-0.439616
H91	H	1.702386	-0.750386	-0.322201
H92	H	1.402811	-0.727906	-1.095514
C93	C	1.861531	-1.183694	-0.290314
C94	C	1.794062	-1.120715	-0.230977
H95	H	1.907178	-1.220919	-0.244767
H96	H	1.821519	-1.232063	-0.330300
H97	H	1.901666	-1.140807	-0.336106
H98	H	1.753922	-1.163604	-0.185190
H99	H	1.834079	-1.072341	-0.190973
C100	C	1.285744	-0.740221	-0.398084
C101	C	1.249167	-0.640252	-0.371490
H102	H	1.360202	-0.740199	-0.398087
H103	H	1.260908	-0.789782	-0.348361
H104	H	1.260938	-0.758472	-0.465851
H105	H	1.273966	-0.622004	-0.303719
H106	H	1.274013	-0.590675	-0.421215
C107	C	1.645480	-0.378949	-1.229728
C108	C	1.659639	-0.364807	-1.121838
H109	H	1.691101	-0.333335	-1.266960
H110	H	1.660842	-0.449525	-1.247692
H111	H	1.574898	-0.363559	-1.247704
H112	H	1.730220	-0.380205	-1.103861
H113	H	1.644285	-0.294215	-1.103867
C114	C	1.107420	-0.885224	-0.252679
C115	C	1.133944	-0.781145	-0.230188
H116	H	1.144632	-0.930756	-0.207000
H117	H	1.034227	-0.894829	-0.243047
H118	H	1.125432	-0.900674	-0.323243
H119	H	1.115925	-0.765693	-0.159626
H120	H	1.207153	-0.771535	-0.239811
C121	C	1.410886	-1.272323	-0.740488
C122	C	1.384125	-1.235862	-0.640514
H123	H	1.410937	-1.346782	-0.740506
H124	H	1.361217	-1.247505	-0.790064
H125	H	1.478663	-1.247422	-0.758685
H126	H	1.316344	-1.260758	-0.622320
H127	H	1.433796	-1.260691	-0.590922
H128	H	1.653002	-1.204607	-0.371942
C129	C	0.752027	-0.345008	-0.540879
C130	C	0.788626	-0.371909	-0.640773
H131	H	0.677569	-0.345013	-0.540886
H132	H	0.776823	-0.394576	-0.491170
H133	H	0.776857	-0.277182	-0.522844
H134	H	0.763802	-0.439739	-0.658806
H135	H	0.763820	-0.322340	-0.690498
H136	H	1.262093	-1.105066	-0.762281
C137	C	1.242074	-0.245141	-0.767845
C138	C	1.134188	-0.230990	-0.782063
H139	H	1.279319	-0.199601	-0.813531
H140	H	1.260025	-0.229666	-0.697291
H141	H	1.260044	-0.315752	-0.783090
H142	H	1.116216	-0.160380	-0.766811
H143	H	1.116229	-0.246457	-0.852634
H144	H	1.261973	-0.905997	-0.762230
C145	C	0.751978	-0.667259	-0.471419
C146	C	0.788506	-0.640336	-0.371521
H147	H	0.677519	-0.667284	-0.471423
H148	H	0.776817	-0.617687	-0.521128
H149	H	0.776813	-0.735077	-0.489445
H150	H	0.763677	-0.572515	-0.353498
H151	H	0.763656	-0.689912	-0.321796
H152	H	1.383876	-0.806468	-0.640368
H153	H	1.218021	-0.371826	-0.640742
