data_functionalizedCrystal
_audit_creation_method	'MofGen! by Chris Wilmer'
_symmetry_space_group_name_H-M	'P1'
_symmetry_Int_Tables_number	1
_symmetry_cell_setting	triclinic
loop_
_symmetry_equiv_pos_as_xyz
  x,y,z
_cell_length_a	11.792254
_cell_length_b	15.944493
_cell_length_c	10.868271
_cell_angle_alpha	90.000739
_cell_angle_beta	89.995741
_cell_angle_gamma	83.836821
loop_
_atom_site_label
_atom_site_type_symbol
_atom_site_fract_x
_atom_site_fract_y
_atom_site_fract_z
O1	O	1.505918	0.115182	-0.102304
O2	O	1.175478	0.127036	-0.102305
O3	O	1.349756	-0.001128	-0.102315
O4	O	1.331641	0.243346	-0.102294
O5	O	1.349742	-0.001133	0.102330
O6	O	1.175464	0.127031	0.102340
O7	O	1.505904	0.115177	0.102341
Zn8	Zn	1.340682	0.121103	0.134832
Zn9	Zn	1.340701	0.121110	-0.134796
O10	O	1.331626	0.243341	0.102350
C11	C	1.133187	0.126287	0.000017
C12	C	1.007193	0.124052	0.000016
C13	C	0.904872	0.122236	0.000011
C14	C	0.776504	0.119965	0.000010
C15	C	1.349009	-0.032429	0.000002
C16	C	1.346789	-0.125687	-0.000013
C17	C	1.449373	-0.360981	0.000010
C18	C	1.394060	-0.411798	-0.100890
C19	C	1.342676	-0.296427	0.000002
C20	C	1.394021	-0.411779	0.100874
C21	C	1.338711	-0.461355	0.000022
C22	C	1.287392	-0.346016	-0.100981
C23	C	1.287368	-0.345994	0.100873
C24	C	1.231977	-0.396778	-0.000052
C25	C	1.344963	-0.201417	-0.000011
C26	C	1.336415	-0.556362	0.000026
C27	C	1.548196	0.115926	0.000016
C28	C	1.674190	0.118161	0.000009
C29	C	1.332374	0.274642	0.000031
C30	C	1.334594	0.367900	0.000038
N31	N	1.340677	0.121098	0.318846
N32	N	1.340714	0.121108	-0.318810
C33	C	1.340695	0.121108	0.569852
C34	C	1.340681	0.121105	0.430175
H35	H	1.541279	-0.344935	-0.000091
C36	C	1.454943	-0.450631	-0.216126
N37	N	1.500809	-0.479880	-0.302916
H38	H	1.242364	-0.317399	-0.186376
C39	C	1.107722	-0.418241	-0.000125
N40	N	1.014134	-0.434409	-0.000187
H41	H	1.242342	-0.317240	0.186180
C42	C	1.454912	-0.450580	0.216116
N43	N	1.500782	-0.479802	0.302912
