data_functionalizedCrystal
_audit_creation_method	'MofGen! by Chris Wilmer'
_symmetry_space_group_name_H-M	'P1'
_symmetry_Int_Tables_number	1
_symmetry_cell_setting	triclinic
loop_
_symmetry_equiv_pos_as_xyz
  x,y,z
_cell_length_a	19.077236
_cell_length_b	29.839131
_cell_length_c	19.076919
_cell_angle_alpha	87.739939
_cell_angle_beta	90.112677
_cell_angle_gamma	92.327558
loop_
_atom_site_label
_atom_site_type_symbol
_atom_site_fract_x
_atom_site_fract_y
_atom_site_fract_z
Zn1	Zn	1.058245	-0.163079	0.440490
Zn2	Zn	1.558245	0.336921	0.940490
Zn3	Zn	1.062865	-0.235075	0.322961
Zn4	Zn	1.562865	0.264925	0.822961
Zn5	Zn	0.945461	-0.162844	0.318271
Zn6	Zn	1.445461	0.337156	0.818271
Zn7	Zn	0.940683	-0.241068	0.435697
Zn8	Zn	1.440683	0.258932	0.935697
O9	O	1.001814	-0.200517	0.379355
O10	O	1.501814	0.299483	0.879355
O11	O	1.157193	-0.170220	0.428869
O12	O	1.657193	0.329780	0.928869
O13	O	1.051224	-0.222886	0.224009
O14	O	1.551224	0.277114	0.724009
O15	O	0.960488	-0.100007	0.334526
O16	O	1.460488	0.399993	0.834526
O17	O	1.160587	-0.223115	0.342521
O18	O	1.660587	0.276885	0.842521
O19	O	1.043351	-0.100180	0.424321
O20	O	1.543351	0.399820	0.924321
O21	O	0.964968	-0.169819	0.220563
O22	O	1.464968	0.330181	0.720563
O23	O	0.846493	-0.175630	0.329879
O24	O	1.346493	0.324370	0.829879
O25	O	0.952345	-0.233330	0.534663
O26	O	1.452345	0.266670	1.034663
O27	O	0.842982	-0.233102	0.416152
O28	O	1.342982	0.266898	0.916152
O29	O	1.038717	-0.176032	0.538185
O30	O	1.538717	0.323968	1.038185
O31	O	1.046591	-0.298738	0.337873
O32	O	1.546591	0.201262	0.837873
O33	O	0.956824	-0.303141	0.420700
O34	O	1.456824	0.196859	0.920700
C35	C	0.819240	-0.204991	0.371986
C36	C	1.319240	0.295009	0.871986
C37	C	0.741134	-0.206916	0.368851
C38	C	1.241134	0.293084	0.868851
C39	C	0.702670	-0.180329	0.412403
C40	C	1.202670	0.319671	0.912403
C41	C	0.629282	-0.182136	0.409451
C42	C	1.129282	0.317864	0.909451
C43	C	0.594358	-0.210533	0.362949
C44	C	1.094358	0.289467	0.862949
C45	C	0.632827	-0.237121	0.319392
C46	C	1.132827	0.262879	0.819392
C47	C	0.706214	-0.235312	0.322341
C48	C	1.206214	0.264688	0.822341
C49	C	0.375062	-0.218890	0.349297
C50	C	0.875062	0.281110	0.849297
C51	C	0.301669	-0.220699	0.346353
C52	C	0.801669	0.279301	0.846353
C53	C	0.298129	-0.165712	0.436411
C54	C	0.798129	0.334288	0.936411
C55	C	0.371518	-0.163907	0.439359
C56	C	0.871518	0.336093	0.939359
C57	C	0.409981	-0.190494	0.395799
C58	C	0.909981	0.309506	0.895799
N59	N	0.519342	-0.212381	0.359932
N60	N	1.019342	0.287619	0.859932
N61	N	0.484995	-0.188643	0.398814
N62	N	0.984995	0.311357	0.898814
C63	C	1.001709	-0.317240	0.379291
C64	C	1.501709	0.182760	0.879291
C65	C	1.001727	-0.367174	0.379290
C66	C	1.501727	0.132826	0.879290
C67	C	1.044948	-0.676874	0.426174
C68	C	1.544948	-0.176874	0.926174
C69	C	1.045022	-0.864546	0.426220
C70	C	1.545022	-0.364546	0.926220
O71	O	1.081666	-0.888861	0.466034
O72	O	1.581666	-0.388861	0.966034
N73	N	1.001930	-0.887958	0.379438
N74	N	1.501930	-0.387958	0.879438
C75	C	0.958812	-0.864448	0.332644
C76	C	1.458812	-0.364448	0.832644
O77	O	0.922156	-0.888668	0.292859
O78	O	1.422156	-0.388668	0.792859
C79	C	0.958735	-0.676777	0.332603
C80	C	1.458735	-0.176777	0.832603
C81	C	1.001835	-0.653368	0.379383
C82	C	1.501835	-0.153368	0.879383
C83	C	1.088044	-0.653465	0.472952
C84	C	1.588044	-0.153465	0.972952
C85	C	1.088028	-0.606550	0.472937
C86	C	1.588028	-0.106550	0.972937
C87	C	1.044915	-0.583043	0.426146
C88	C	1.544915	-0.083043	0.926146
C89	C	1.001819	-0.606453	0.379369
C90	C	1.501819	-0.106453	0.879369
C91	C	0.915614	-0.653269	0.285813
C92	C	1.415614	-0.153269	0.785813
C93	C	0.915597	-0.606348	0.285808
C94	C	1.415597	-0.106348	0.785808
C95	C	0.958697	-0.582939	0.332588
C96	C	1.458697	-0.082939	0.832588
C97	C	0.958690	-0.536031	0.332563
C98	C	1.458690	-0.036031	0.832563
N99	N	1.001782	-0.512620	0.379345
N100	N	1.501782	-0.012620	0.879345
C101	C	1.044895	-0.536126	0.426136
C102	C	1.544895	-0.036126	0.926136
C103	C	0.958857	-0.962978	0.332668
C104	C	1.458857	-0.462978	0.832668
C105	C	0.958877	-1.009896	0.332677
C106	C	1.458877	-0.509896	0.832677
C107	C	1.045086	-1.009991	0.426254
C108	C	1.545086	-0.509991	0.926254
C109	C	1.045069	-0.963072	0.426241
C110	C	1.545069	-0.463072	0.926241
C111	C	1.001950	-0.939567	0.379450
C112	C	1.501950	-0.439567	0.879450
C113	C	1.044858	-0.437600	0.426102
C114	C	1.544858	0.062400	0.926102
C115	C	1.044840	-0.390680	0.426082
C116	C	1.544840	0.109320	0.926082
C117	C	0.958628	-0.390590	0.332508
C118	C	1.458628	0.109410	0.832508
C119	C	0.958649	-0.437505	0.332525
C120	C	1.458649	0.062495	0.832525
C121	C	1.001766	-0.461009	0.379328
C122	C	1.501766	0.038991	0.879328
O123	O	0.922059	-0.511688	0.292775
O124	O	1.422059	-0.011688	0.792775
O125	O	1.081534	-0.511899	0.465926
O126	O	1.581534	-0.011899	0.965926
C127	C	1.044964	-0.723790	0.426189
C128	C	1.544964	-0.223790	0.926189
C129	C	1.001867	-0.747199	0.379412
C130	C	1.501867	-0.247199	0.879412
C131	C	0.958755	-0.723693	0.332620
C132	C	1.458755	-0.223693	0.832620
C133	C	1.001888	-0.794116	0.379421
C134	C	1.501888	-0.294116	0.879421
C135	C	1.045000	-0.817623	0.426213
C136	C	1.545000	-0.317623	0.926213
C137	C	1.088093	-0.794211	0.472995
C138	C	1.588093	-0.294211	0.972995
C139	C	1.088076	-0.747296	0.472980
C140	C	1.588076	-0.247296	0.972980
C141	C	0.915663	-0.747104	0.285838
C142	C	1.415663	-0.247104	0.785838
C143	C	0.915683	-0.794019	0.285856
C144	C	1.415683	-0.294019	0.785856
C145	C	0.958796	-0.817526	0.332647
C146	C	1.458796	-0.317526	0.832647
C147	C	1.185100	-0.196025	0.386753
C148	C	1.685100	0.303975	0.886753
C149	C	1.263205	-0.194111	0.389905
C150	C	1.763205	0.305889	0.889905
C151	C	0.994483	-0.205376	0.562633
C152	C	1.494483	0.294624	1.062633
C153	C	0.991359	-0.207446	0.640735
C154	C	1.491359	0.292554	1.140735
C155	C	1.001937	-0.083337	0.379435
C156	C	1.501937	0.416663	0.879435
C157	C	1.001990	-0.033402	0.379469
C158	C	1.501990	0.466598	0.879469
C159	C	1.009156	-0.195643	0.196792
C160	C	1.509156	0.304357	0.696792
C161	C	1.012417	-0.193443	0.118696
C162	C	1.512417	0.306557	0.618696
C163	C	1.034858	-0.178588	0.679262
C164	C	1.534858	0.321412	1.179262
C165	C	1.031914	-0.180532	0.752647
C166	C	1.531914	0.319468	1.252647
C167	C	0.985474	-0.211337	0.787503
C168	C	1.485474	0.288663	1.287503
C169	C	0.941969	-0.240196	0.748971
C170	C	1.441969	0.259804	1.248971
C171	C	0.944910	-0.238250	0.675587
C172	C	1.444910	0.261750	1.175587
C173	C	0.971853	-0.220355	1.006780
C174	C	1.471853	0.279645	1.506780
C175	C	0.968917	-0.222301	1.080169
C176	C	1.468917	0.277699	1.580169
C177	C	1.058861	-0.162636	1.083839
C178	C	1.558861	0.337364	1.583839
C179	C	1.061801	-0.160694	1.010454
C180	C	1.561801	0.339306	1.510454
C181	C	1.018294	-0.189552	0.971928
C182	C	1.518294	0.310448	1.471928
N183	N	0.982465	-0.213326	0.862514
N184	N	1.482465	0.286674	1.362514
N185	N	1.021300	-0.187560	0.896918
N186	N	1.521300	0.312440	1.396918
H187	H	0.273236	-0.243825	0.308485
H188	H	0.773236	0.256175	0.808485
N189	N	0.912123	-0.365235	0.282045
N190	N	1.412123	0.134765	0.782045
H191	H	0.925082	-0.371809	0.232289
H192	H	1.425082	0.128191	0.732289
H193	H	0.918671	-0.331970	0.289199
H194	H	1.418671	0.168030	0.789199
H195	H	0.399948	-0.140785	0.477228
H196	H	0.899948	0.359215	0.977228
H197	H	1.080165	-0.944015	0.464334
H198	H	1.580165	-0.444015	0.964334
H199	H	1.123173	-0.728239	0.511073
H200	H	1.623173	-0.228239	1.011073
N201	N	0.869190	-0.819261	0.235394
N202	N	1.369190	-0.319261	0.735394
H203	H	0.835467	-0.840289	0.262615
H204	H	1.335467	-0.340289	0.762615
H205	H	0.899123	-0.837134	0.204019
H206	H	1.399123	-0.337134	0.704019
N207	N	0.416541	-0.247563	0.302315
N208	N	0.916541	0.252437	0.802315
H209	H	0.383279	-0.265827	0.272412
H210	H	0.883279	0.234173	0.772412
H211	H	0.445842	-0.268389	0.332072
H212	H	0.945842	0.231611	0.832072
H213	H	1.094281	-0.139141	1.115215
H214	H	1.594281	0.360859	1.615215
N215	N	0.912351	-0.937629	0.282194
N216	N	1.412351	-0.437629	0.782194
H217	H	0.885061	-0.959584	0.252561
H218	H	1.385061	-0.459584	0.752561
H219	H	0.942274	-0.916595	0.250850
H220	H	1.442274	-0.416595	0.750850
H221	H	1.067338	-0.157034	0.784012
H222	H	1.567338	0.342966	1.284012
H223	H	0.737531	-0.256962	0.286876
H224	H	1.237531	0.243038	0.786876
N225	N	0.256645	-0.137037	0.483389
N226	N	0.756645	0.362963	0.983389
H227	H	0.204855	-0.142491	0.474467
H228	H	0.704855	0.357509	0.974467
H229	H	0.269929	-0.104337	0.473066
H230	H	0.769929	0.395663	0.973066
H231	H	0.936437	-0.243860	0.975421
H232	H	1.436437	0.256140	1.475421
H233	H	1.099620	-0.135611	0.982079
H234	H	1.599620	0.364389	1.482079
H235	H	0.931097	-0.247387	1.108547
H236	H	1.431097	0.252613	1.608547
H237	H	0.604386	-0.260240	0.281526
H238	H	1.104386	0.239760	0.781526
N239	N	0.891863	-0.273412	0.786561
N240	N	1.391863	0.226588	1.286561
H241	H	0.896597	-0.270265	0.838896
H242	H	1.396597	0.229735	1.338896
H243	H	0.903266	-0.304892	0.774159
H244	H	1.403266	0.195108	1.274159
N245	N	0.587807	-0.153450	0.456421
N246	N	1.087807	0.346550	0.956421
H247	H	0.598573	-0.161491	0.507120
H248	H	1.098573	0.338509	1.007120
H249	H	0.536030	-0.158908	0.447440
H250	H	1.036030	0.341092	0.947440
N251	N	1.134597	-0.819569	0.523461
N252	N	1.634597	-0.319569	1.023461
H253	H	1.128063	-0.852842	0.516365
H254	H	1.628063	-0.352842	1.016365
H255	H	1.121608	-0.812958	0.573191
H256	H	1.621608	-0.312958	1.073191
N257	N	1.091329	-0.365432	0.476539
N258	N	1.591329	0.134568	0.976539
H259	H	1.118640	-0.387445	0.506183
H260	H	1.618640	0.112555	1.006183
H261	H	1.061393	-0.347533	0.507873
H262	H	1.561393	0.152467	1.007873
N263	N	1.091573	-1.035342	0.476746
N264	N	1.591573	-0.535342	0.976746
H265	H	1.142226	-1.025636	0.467918
H266	H	1.642226	-0.525636	0.967918
H267	H	1.084985	-1.068610	0.469637
H268	H	1.584985	-0.568610	0.969637
N269	N	1.091353	-0.462947	0.476588
N270	N	1.591353	0.037053	0.976588
H271	H	1.118647	-0.440993	0.506217
H272	H	1.618647	0.059007	1.006217
H273	H	1.125050	-0.480852	0.449340
H274	H	1.625050	0.019148	0.949340
N275	N	1.134509	-0.581305	0.523398
N276	N	1.634509	-0.081305	1.023398
H277	H	1.161817	-0.603321	0.553041
H278	H	1.661817	-0.103321	1.053041
H279	H	1.104569	-0.563410	0.554734
H280	H	1.604569	-0.063410	1.054734
N281	N	0.897987	-0.269371	0.634029
N282	N	1.397987	0.230629	1.134029
H283	H	0.868119	-0.289180	0.667245
H284	H	1.368119	0.210820	1.167245
H285	H	0.927782	-0.288654	0.604719
H286	H	1.427782	0.211346	1.104719
N287	N	1.134529	-0.678815	0.523441
N288	N	1.634529	-0.178815	1.023441
H289	H	1.161816	-0.656859	0.553073
H290	H	1.661816	-0.156859	1.053073
H291	H	1.168232	-0.696720	0.496201
H292	H	1.668232	-0.196720	0.996201
N293	N	0.912402	-1.035141	0.282211
N294	N	1.412402	-0.535141	0.782211
H295	H	0.885089	-1.013127	0.252571
H296	H	1.385089	-0.513127	0.752571
H297	H	0.878722	-1.056173	0.309475
H298	H	1.378722	-0.556173	0.809475
H299	H	0.880517	-0.672320	0.247719
H300	H	1.380517	-0.172320	0.747719
N301	N	0.740336	-0.149703	0.462564
N302	N	1.240336	0.350297	0.962564
H303	H	0.704830	-0.133134	0.489704
H304	H	1.204830	0.366866	0.989704
H305	H	0.771937	-0.127377	0.435250
H306	H	1.271937	0.372623	0.935250
N307	N	0.869086	-0.580996	0.235341
N308	N	1.369086	-0.080996	0.735341
H309	H	0.841789	-0.602948	0.205711
H310	H	1.341789	-0.102948	0.705711
H311	H	0.899007	-0.559962	0.203993
H312	H	1.399007	-0.059962	0.703993
N313	N	0.869163	-0.721754	0.235365
N314	N	1.369163	-0.221754	0.735365
H315	H	0.841871	-0.743708	0.205734
H316	H	1.341871	-0.243708	0.705734
H317	H	0.899089	-0.700722	0.204020
H318	H	1.399089	-0.200722	0.704020
N319	N	0.912173	-0.462757	0.282063
N320	N	1.412173	0.037243	0.782063
H321	H	0.884861	-0.440744	0.252417
H322	H	1.384861	0.059256	0.752417
H323	H	0.878491	-0.483784	0.309333
H324	H	1.378491	0.016216	0.809333
H325	H	1.072677	-0.153505	0.650887
H326	H	1.572677	0.346495	1.150887
