data_functionalizedCrystal
_audit_creation_method	'MofGen! by Chris Wilmer'
_symmetry_space_group_name_H-M	'P1'
_symmetry_Int_Tables_number	1
_symmetry_cell_setting	triclinic
loop_
_symmetry_equiv_pos_as_xyz
  x,y,z
_cell_length_a	12.759387
_cell_length_b	19.805407
_cell_length_c	19.805405
_cell_angle_alpha	89.973590
_cell_angle_beta	89.963006
_cell_angle_gamma	90.023842
loop_
_atom_site_label
_atom_site_type_symbol
_atom_site_fract_x
_atom_site_fract_y
_atom_site_fract_z
Zn1	Zn	-0.594053	-1.034764	-0.269427
Zn2	Zn	-0.418355	-1.034671	-0.382631
Zn3	Zn	-0.418380	-0.921570	-0.269461
Zn4	Zn	-0.593984	-0.921542	-0.382580
O5	O	-0.506193	-0.978137	-0.326025
O6	O	-0.570765	-1.129468	-0.284451
O7	O	-0.271337	-1.019640	-0.367654
O8	O	-0.441723	-0.936637	-0.174740
O9	O	-0.441680	-1.129400	-0.367622
O10	O	-0.570790	-1.019800	-0.174715
O11	O	-0.271355	-0.936546	-0.284509
O12	O	-0.441655	-0.826850	-0.284460
O13	O	-0.741014	-0.936589	-0.367534
O14	O	-0.570671	-0.826830	-0.367567
O15	O	-0.741065	-1.019773	-0.284402
O16	O	-0.441613	-1.019613	-0.477341
O17	O	-0.570646	-0.936498	-0.477303
C18	C	-0.506159	-0.802281	-0.326012
C19	C	-0.506169	-0.727049	-0.326023
C20	C	-0.780226	-0.978188	-0.325959
C21	C	-0.897003	-0.978210	-0.325930
C22	C	-0.506142	-0.978061	-0.501881
C23	C	-0.506155	-0.978090	-0.577113
C24	C	-0.897076	-1.064835	-0.239370
C25	C	-0.951974	-1.108157	-0.196080
C26	C	-1.061695	-1.108173	-0.196055
C27	C	-1.116522	-1.064862	-0.239324
C28	C	-1.061625	-1.021540	-0.282614
C29	C	-0.951901	-1.021529	-0.282636
C30	C	-1.061552	-0.934912	-0.369170
C31	C	-0.951830	-0.934898	-0.369199
C32	C	-1.116379	-0.891601	-0.412439
C33	C	-1.061481	-0.848281	-0.455734
C34	C	-0.951753	-0.848267	-0.455757
C35	C	-0.896933	-0.891576	-0.412489
C36	C	-0.233225	-0.978125	-0.326042
C37	C	-0.116449	-0.978234	-0.325880
C38	C	-0.506228	-1.154680	-0.326038
C39	C	-0.506242	-1.229912	-0.326044
C40	C	-0.573239	-0.691712	-0.369362
C41	C	-0.573254	-0.621023	-0.369363
C42	C	-0.506193	-0.585673	-0.326028
C43	C	-0.439120	-0.621015	-0.282684
C44	C	-0.439112	-0.691703	-0.282680
C45	C	-0.439155	-0.335942	-0.282699
C46	C	-0.439167	-0.265250	-0.282708
C47	C	-0.573297	-0.265263	-0.369382
C48	C	-0.573288	-0.335950	-0.369378
C49	C	-0.506220	-0.371286	-0.326032
C50	C	-0.506206	-0.447934	-0.326030
C51	C	-0.506201	-0.509026	-0.326033
C52	C	-0.439038	-1.021410	-0.612454
C53	C	-0.439061	-1.021439	-0.683143
C54	C	-0.506197	-0.978144	-0.718489
C55	C	-0.573322	-0.934822	-0.683142
C56	C	-0.573304	-0.934797	-0.612455
C57	C	-0.573400	-0.934922	-0.968216
C58	C	-0.573411	-0.934948	-1.038908
C59	C	-0.439158	-1.021563	-1.038903
C60	C	-0.439139	-1.021539	-0.968216
C61	C	-0.506267	-0.978220	-0.932876
C62	C	-0.506243	-0.978190	-0.856227
C63	C	-0.506217	-0.978169	-0.795136
C64	C	-0.506267	-0.978232	-0.149482
C65	C	-0.506298	-0.978272	-0.074250
H66	H	-0.807735	-1.064832	-0.239392
H67	H	-0.627911	-0.236484	-0.404675
H68	H	-0.628056	-0.899649	-0.939447
H69	H	-0.384467	-1.056791	-0.939439
H70	H	-1.106393	-1.143445	-0.160800
H71	H	-0.627959	-0.899522	-0.583681
H72	H	-0.384523	-0.592228	-0.247397
H73	H	-0.384558	-0.236470	-0.247415
H74	H	-0.627867	-0.592255	-0.404655
H75	H	-0.384502	-0.720473	-0.247385
Br76	Br	-0.347975	-1.080237	-0.731103
H77	H	-0.384502	-1.056838	-1.067685
Br78	Br	-0.348140	-0.383889	-0.223868
Br79	Br	-0.664446	-0.876069	-0.731111
Br80	Br	-0.347909	-1.080165	-0.564492
Br81	Br	-0.664531	-0.876186	-1.086877
Br82	Br	-0.664296	-0.383922	-0.428196
H83	H	-0.907322	-1.143419	-0.160850
Br84	Br	-0.748024	-0.891565	-0.412522
Br85	Br	-0.664247	-0.739680	-0.428183
H86	H	-1.106130	-0.813017	-0.490956
H87	H	-0.907062	-0.812982	-0.491002
H88	H	-1.205863	-1.064873	-0.239294
Br89	Br	-1.265288	-0.891621	-0.412405
