data_functionalizedCrystal
_audit_creation_method	'MofGen! by Chris Wilmer'
_symmetry_space_group_name_H-M	'P1'
_symmetry_Int_Tables_number	1
_symmetry_cell_setting	triclinic
loop_
_symmetry_equiv_pos_as_xyz
  x,y,z
_cell_length_a	23.532350
_cell_length_b	22.010155
_cell_length_c	23.532407
_cell_angle_alpha	90.004256
_cell_angle_beta	97.163005
_cell_angle_gamma	89.997170
loop_
_atom_site_label
_atom_site_type_symbol
_atom_site_fract_x
_atom_site_fract_y
_atom_site_fract_z
O1	O	-0.755285	0.050457	0.068971
O2	O	-0.255285	0.550457	0.568971
O3	O	-0.589417	0.050477	0.079009
O4	O	-0.089417	0.550477	0.579009
O5	O	-0.677353	0.050449	-0.008943
O6	O	-0.177353	0.550449	0.491057
O7	O	-0.667349	0.050485	0.156923
O8	O	-0.167349	0.550485	0.656923
O9	O	-0.677337	-0.050601	-0.008930
O10	O	-0.177337	0.449399	0.491070
O11	O	-0.589401	-0.050573	0.079022
O12	O	-0.089401	0.449427	0.579022
O13	O	-0.755269	-0.050593	0.068984
O14	O	-0.255269	0.449407	0.568984
Cu15	Cu	-0.672334	-0.059810	0.074004
Cu16	Cu	-0.172334	0.440190	0.574004
Cu17	Cu	-0.672352	0.059694	0.073989
Cu18	Cu	-0.172352	0.559694	0.573989
O19	O	-0.667333	-0.050566	0.156936
O20	O	-0.167333	0.449434	0.656936
C21	C	-0.568192	-0.000046	0.078765
C22	C	-0.068192	0.499954	0.578765
C23	C	-0.504974	-0.000039	0.078012
C24	C	-0.004974	0.499961	0.578012
N25	N	-0.672324	-0.143862	0.074015
N26	N	-0.172324	0.356138	0.574015
C27	C	-0.112950	-0.055150	0.073289
C28	C	0.387050	0.444850	0.573289
C29	C	-0.053550	-0.055152	0.072573
C30	C	0.446450	0.444848	0.572573
O31	O	-0.022824	-0.101998	0.072189
O32	O	0.477176	0.398002	0.572189
N33	N	-0.023851	-0.000070	0.072210
N34	N	0.476149	0.499930	0.572210
C35	C	-0.053554	0.055018	0.072558
C36	C	0.446446	0.555018	0.572558
O37	O	-0.022838	0.101870	0.072184
O38	O	0.477162	0.601870	0.572184
C39	C	-0.112953	0.055020	0.073271
C40	C	0.387047	0.555020	0.573271
C41	C	-0.142649	-0.000065	0.073639
C42	C	0.357351	0.499935	0.573639
C43	C	-0.142646	-0.110231	0.073656
C44	C	0.357354	0.389769	0.573656
C45	C	-0.202041	-0.110228	0.074374
C46	C	0.297959	0.389772	0.574374
C47	C	-0.231741	-0.055144	0.074723
C48	C	0.268259	0.444856	0.574723
C49	C	-0.202044	-0.000062	0.074356
C50	C	0.297956	0.499938	0.574356
C51	C	-0.142656	0.110108	0.073615
C52	C	0.357344	0.610108	0.573615
C53	C	-0.202059	0.110106	0.074326
C54	C	0.297941	0.610106	0.574326
C55	C	-0.231755	0.055020	0.074694
C56	C	0.268245	0.555020	0.574694
C57	C	-0.291139	0.055025	0.075423
C58	C	0.208861	0.555025	0.575423
N59	N	-0.320839	-0.000057	0.075785
N60	N	0.179161	0.499943	0.575785
C61	C	-0.291140	-0.055141	0.075436
C62	C	0.208860	0.444859	0.575436
C63	C	0.071188	0.055010	0.071062
C64	C	0.571188	0.555010	0.571062
C65	C	0.130586	0.055008	0.070354
C66	C	0.630586	0.555008	0.570354
C67	C	0.130586	-0.055163	0.070367
C68	C	0.630586	0.444837	0.570367
C69	C	0.071187	-0.055161	0.071079
C70	C	0.571187	0.444839	0.571079
C71	C	0.041488	-0.000073	0.071424
C72	C	0.541488	0.499927	0.571424
C73	C	-0.415874	-0.055131	0.076942
C74	C	0.084126	0.444869	0.576942
C75	C	-0.475274	-0.055123	0.077662
C76	C	0.024726	0.444877	0.577662
C77	C	-0.475269	0.055047	0.077646
C78	C	0.024731	0.555047	0.577646
C79	C	-0.415874	0.055040	0.076929
C80	C	0.084126	0.555040	0.576929
C81	C	-0.386178	-0.000054	0.076576
C82	C	0.113822	0.499946	0.576576
O83	O	-0.321903	0.101846	0.075805
O84	O	0.178097	0.601846	0.575805
O85	O	-0.321864	-0.101985	0.075803
O86	O	0.178136	0.398015	0.575803
C87	C	-0.711293	-0.563654	0.035049
C88	C	-0.211293	-0.063654	0.535049
C89	C	-0.711295	-0.627262	0.035045
C90	C	-0.211295	-0.127262	0.535045
O91	O	-0.744404	-0.660164	0.001923
O92	O	-0.244404	-0.160164	0.501923
N93	N	-0.672352	-0.659070	0.073977
N94	N	-0.172352	-0.159070	0.573977
C95	C	-0.633400	-0.627267	0.112911
C96	C	-0.133400	-0.127267	0.612911
O97	O	-0.600276	-0.660162	0.146024
O98	O	-0.100276	-0.160162	0.646024
C99	C	-0.633395	-0.563660	0.112912
C100	C	-0.133395	-0.063660	0.612912
C101	C	-0.672345	-0.531856	0.073981
C102	C	-0.172345	-0.031856	0.573981
C103	C	-0.750239	-0.531850	-0.003878
C104	C	-0.250239	-0.031850	0.496122
C105	C	-0.750236	-0.468246	-0.003873
C106	C	-0.250236	0.031754	0.496127
C107	C	-0.711288	-0.436448	0.035059
C108	C	-0.211288	0.063552	0.535059
C109	C	-0.672342	-0.468252	0.073986
C110	C	-0.172342	0.031748	0.573986
C111	C	-0.594441	-0.531858	0.151842
C112	C	-0.094441	-0.031858	0.651842
C113	C	-0.594439	-0.468247	0.151840
C114	C	-0.094439	0.031753	0.651840
C115	C	-0.633388	-0.436443	0.112909
C116	C	-0.133388	0.063557	0.612909
C117	C	-0.633392	-0.372850	0.112923
C118	C	-0.133392	0.127150	0.612923
N119	N	-0.672335	-0.341043	0.073992
N120	N	-0.172335	0.158957	0.573992
C121	C	-0.711283	-0.372841	0.035060
C122	C	-0.211283	0.127159	0.535060
C123	C	-0.633413	-0.760844	0.112906
C124	C	-0.133413	-0.260844	0.612906
C125	C	-0.633420	-0.824450	0.112908
C126	C	-0.133420	-0.324450	0.612908
C127	C	-0.711314	-0.824440	0.035042
C128	C	-0.211314	-0.324440	0.535042
C129	C	-0.711310	-0.760834	0.035042
C130	C	-0.211310	-0.260834	0.535042
C131	C	-0.672356	-0.729036	0.073974
C132	C	-0.172356	-0.229036	0.573974
C133	C	-0.711276	-0.239270	0.035073
C134	C	-0.211276	0.260730	0.535073
C135	C	-0.711272	-0.175661	0.035083
C136	C	-0.211272	0.324339	0.535083
C137	C	-0.633376	-0.175676	0.112947
C138	C	-0.133376	0.324324	0.612947
C139	C	-0.633382	-0.239279	0.112939
C140	C	-0.133382	0.260721	0.612939
C141	C	-0.672334	-0.271075	0.073998
C142	C	-0.172334	0.228925	0.573998
O143	O	-0.600299	-0.339908	0.146027
O144	O	-0.100299	0.160092	0.646027
O145	O	-0.744397	-0.339938	0.001947
O146	O	-0.244397	0.160062	0.501947
C147	C	0.223507	-0.000070	0.069233
C148	C	0.723507	0.499930	0.569233
C149	C	0.160290	-0.000077	0.070001
C150	C	0.660290	0.499923	0.570001
C151	C	-0.677090	-0.000079	-0.030152
C152	C	-0.177090	0.499921	0.469848
C153	C	-0.676324	-0.000088	-0.093369
C154	C	-0.176324	0.499912	0.406631
N155	N	-0.672366	0.143746	0.073974
N156	N	-0.172366	0.643746	0.573974
C157	C	-0.621127	-0.000043	-0.359525
C158	C	-0.121127	0.499957	0.140475
C159	C	-0.621839	-0.000048	-0.300125
C160	C	-0.121839	0.499952	0.199875
O161	O	-0.578051	-0.000024	-0.263371
O162	O	-0.078051	0.499976	0.236629
N163	N	-0.674116	-0.000061	-0.277510
N164	N	-0.174116	0.499939	0.222490
C165	C	-0.725686	-0.000064	-0.314298
C166	C	-0.225686	0.499936	0.185702
O167	O	-0.770218	-0.000075	-0.289607
O168	O	-0.270218	0.499925	0.210393
C169	C	-0.724974	-0.000055	-0.373697
C170	C	-0.224974	0.499945	0.126303
C171	C	-0.672693	-0.000048	-0.396309
C172	C	-0.172693	0.499952	0.103691
C173	C	-0.568850	-0.000035	-0.382138
C174	C	-0.068850	0.499965	0.117862
C175	C	-0.568139	-0.000032	-0.441534
C176	C	-0.068139	0.499968	0.058466
C177	C	-0.619705	-0.000036	-0.478317
C178	C	-0.119705	0.499964	0.021683
C179	C	-0.671982	-0.000044	-0.455705
C180	C	-0.171982	0.499956	0.044295
C181	C	-0.776543	-0.000053	-0.410484
C182	C	-0.276543	0.499947	0.089516
C183	C	-0.775826	-0.000043	-0.469886
C184	C	-0.275826	0.499957	0.030114
C185	C	-0.723545	-0.000036	-0.492498
C186	C	-0.223545	0.499964	0.007502
C187	C	-0.722836	-0.000045	-0.551884
C188	C	-0.222836	0.499955	-0.051884
N189	N	-0.670558	-0.000031	-0.574500
N190	N	-0.170558	0.499969	-0.074500
C191	C	-0.618993	-0.000027	-0.537716
C192	C	-0.118993	0.499973	-0.037716
C193	C	-0.727177	-0.000082	-0.189556
C194	C	-0.227177	0.499918	0.310444
C195	C	-0.727890	-0.000095	-0.130158
C196	C	-0.227890	0.499905	0.369842
C197	C	-0.624042	-0.000078	-0.115989
C198	C	-0.124042	0.499922	0.384011
C199	C	-0.623330	-0.000069	-0.175388
C200	C	-0.123330	0.499931	0.324612
C201	C	-0.674900	-0.000069	-0.212171
C202	C	-0.174900	0.499931	0.287829
C203	C	-0.617503	-0.000020	-0.662453
C204	C	-0.117503	0.499980	-0.162453
C205	C	-0.616796	-0.000019	-0.721854
C206	C	-0.116796	0.499981	-0.221854
C207	C	-0.720644	-0.000032	-0.736018
C208	C	-0.220644	0.499968	-0.236018
C209	C	-0.721351	-0.000037	-0.676621
C210	C	-0.221351	0.499963	-0.176621
C211	C	-0.669776	-0.000028	-0.639839
C212	C	-0.169776	0.499972	-0.139839
O213	O	-0.766600	-0.000067	-0.588672
O214	O	-0.266600	0.499933	-0.088672
O215	O	-0.574468	-0.000008	-0.562415
O216	O	-0.074468	0.499992	-0.062415
C217	C	-0.667596	-0.000036	0.178145
C218	C	-0.167596	0.499964	0.678145
C219	C	-0.668362	-0.000023	0.241362
C220	C	-0.168362	0.499977	0.741362
H221	H	-0.391702	-0.099994	0.076660
H222	H	0.108298	0.400006	0.576660
H223	H	-0.743025	-0.734942	0.003342
H224	H	-0.243025	-0.234942	0.503342
H225	H	0.047012	-0.100016	0.071379
H226	H	0.547012	0.399984	0.571379
C227	C	-0.562290	0.051897	-0.233952
C228	C	-0.062290	0.551897	0.266048
C229	C	-0.565863	-0.000055	-0.200242
C230	C	-0.065863	0.499945	0.299758
H231	H	-0.526811	0.051904	-0.249295
H232	H	-0.026811	0.551904	0.250705
H233	H	-0.564732	0.087124	-0.211066
H234	H	-0.064732	0.587124	0.288934
H235	H	-0.592899	0.051891	-0.264361
H236	H	-0.092899	0.551891	0.235639
H237	H	-0.535256	-0.000047	-0.169830
H238	H	-0.035256	0.499953	0.330170
H239	H	-0.563415	-0.035291	-0.223129
H240	H	-0.063415	0.464709	0.276871
C241	C	-0.745320	-0.844030	-0.063735
C242	C	-0.245320	-0.344030	0.436265
C243	C	-0.754126	-0.859400	-0.007759
C244	C	-0.254126	-0.359400	0.492241
H245	H	-0.771751	-0.865611	-0.090155
H246	H	-0.271751	-0.365611	0.409845
H247	H	-0.707351	-0.854458	-0.069713
H248	H	-0.207351	-0.354458	0.430287
H249	H	-0.750896	-0.801596	-0.069300
H250	H	-0.250896	-0.301596	0.430700
H251	H	-0.748545	-0.901833	-0.002192
H252	H	-0.248545	-0.401833	0.497808
H253	H	-0.792104	-0.848975	-0.001778
H254	H	-0.292104	-0.348975	0.498222
H255	H	-0.770463	-0.000111	-0.111753
H256	H	-0.270463	0.499889	0.388247
C257	C	-0.275514	-0.174154	0.026213
C258	C	0.224486	0.325846	0.526213
C259	C	-0.234680	-0.170781	0.074768
C260	C	0.265320	0.329219	0.574768
H261	H	-0.295662	-0.211537	0.026457
H262	H	0.204338	0.288463	0.526457
H263	H	-0.256873	-0.171865	-0.007274
H264	H	0.243127	0.328135	0.492726
H265	H	-0.301707	-0.141350	0.026532
H266	H	0.198293	0.358650	0.526532
H267	H	-0.208484	-0.203582	0.074446
H268	H	0.291516	0.296418	0.574446
H269	H	-0.253321	-0.173075	0.108263
H270	H	0.246679	0.326925	0.608263
C271	C	-0.829899	-0.000110	-0.197585
C272	C	-0.329899	0.499890	0.302415
C273	C	-0.783868	-0.000093	-0.229985
C274	C	-0.283868	0.499907	0.270015
H275	H	-0.864896	-0.000120	-0.222544
H276	H	-0.364896	0.499880	0.277456
H277	H	-0.828022	0.035125	-0.174119
H278	H	-0.328022	0.535125	0.325881
H279	H	-0.828000	-0.035353	-0.174125
H280	H	-0.328000	0.464647	0.325875
H281	H	-0.785764	0.035152	-0.253443
H282	H	-0.285764	0.535152	0.246557
H283	H	-0.785746	-0.035331	-0.253461
H284	H	-0.285746	0.464669	0.246539
H285	H	-0.118488	0.154965	0.073314
H286	H	0.381512	0.654965	0.573314
H287	H	-0.226237	0.154966	0.074608
H288	H	0.273763	0.654966	0.574608
C289	C	-0.620573	-0.310812	0.190517
C290	C	-0.120573	0.189188	0.690517
C291	C	-0.590570	-0.274239	0.155736
C292	C	-0.090570	0.225761	0.655736
H293	H	-0.594139	-0.332387	0.216938
H294	H	-0.094139	0.167613	0.716938
H295	H	-0.643760	-0.338855	0.167331
H296	H	-0.143760	0.161145	0.667331
H297	H	-0.644162	-0.285993	0.210879
H298	H	-0.144162	0.214007	0.710879
H299	H	-0.566984	-0.299058	0.135371
H300	H	-0.066984	0.200942	0.635371
H301	H	-0.567374	-0.246192	0.178925
H302	H	-0.067374	0.253808	0.678925
H303	H	-0.601709	-0.850340	0.144614
H304	H	-0.101709	-0.350340	0.644614
H305	H	-0.781955	-0.557734	-0.035584
H306	H	-0.281955	-0.057734	0.464416
H307	H	-0.601693	-0.734958	0.144613
H308	H	-0.101693	-0.234958	0.644613
H309	H	-0.118471	-0.155090	0.073370
H310	H	0.381529	0.344910	0.573370
C311	C	-0.517438	-0.525451	0.228797
C312	C	-0.017438	-0.025451	0.728797
C313	C	-0.551623	-0.566806	0.194634
C314	C	-0.051623	-0.066806	0.694634
H315	H	-0.491000	-0.547027	0.255213
H316	H	0.009000	-0.047027	0.755213
H317	H	-0.541026	-0.500642	0.249158
H318	H	-0.041026	-0.000642	0.749158
H319	H	-0.497095	-0.500643	0.205186
H320	H	0.002905	-0.000643	0.705186
H321	H	-0.571968	-0.591611	0.218244
H322	H	-0.071968	-0.091611	0.718244
H323	H	-0.528031	-0.591626	0.174271
H324	H	-0.028031	-0.091626	0.674271
H325	H	-0.499450	-0.099982	0.077964
H326	H	0.000550	0.400018	0.577964
H327	H	-0.819116	-0.000058	-0.392084
H328	H	-0.319116	0.499942	0.107916
C329	C	-0.516850	-0.396730	0.164615
C330	C	-0.016850	0.103270	0.664615
C331	C	-0.551619	-0.433297	0.194637
C332	C	-0.051619	0.066703	0.694637
H333	H	-0.490415	-0.375158	0.191038
H334	H	0.009585	0.124842	0.691038
H335	H	-0.540043	-0.368684	0.141440
H336	H	-0.040043	0.131316	0.641440
H337	H	-0.496505	-0.421552	0.141014
H338	H	0.003495	0.078448	0.641014
H339	H	-0.571967	-0.408475	0.218236
H340	H	-0.071967	0.091525	0.718236
H341	H	-0.528423	-0.461347	0.217823
H342	H	-0.028423	0.038653	0.717823
C343	C	-0.599364	-0.156075	0.211718
C344	C	-0.099364	0.343925	0.711718
C345	C	-0.590566	-0.140713	0.155739
C346	C	-0.090566	0.359287	0.655739
H347	H	-0.572935	-0.134485	0.238133
H348	H	-0.072935	0.365515	0.738133
H349	H	-0.593785	-0.198502	0.217290
H350	H	-0.093785	0.301498	0.717290
H351	H	-0.637339	-0.145646	0.217698
H352	H	-0.137339	0.354354	0.717698
H353	H	-0.552592	-0.151145	0.149757
H354	H	-0.052592	0.348855	0.649757
H355	H	-0.596140	-0.098276	0.150165
H356	H	-0.096140	0.401724	0.650165
C357	C	-0.466134	-0.000029	-0.374115
C358	C	0.033866	0.499971	0.125885
C359	C	-0.512162	-0.000036	-0.341711
C360	C	-0.012162	0.499964	0.158289
H361	H	-0.431136	-0.000037	-0.349159
H362	H	0.068864	0.499963	0.150841
H363	H	-0.468023	0.035213	-0.397567
H364	H	0.031977	0.535213	0.102433
H365	H	-0.468024	-0.035265	-0.397589
H366	H	0.031976	0.464735	0.102411
H367	H	-0.510275	0.035202	-0.318240
H368	H	-0.010275	0.535202	0.181760
H369	H	-0.510272	-0.035281	-0.318249
H370	H	-0.010272	0.464719	0.181751
C371	C	-0.002288	0.118934	0.022896
C372	C	0.497712	0.618934	0.522896
C373	C	0.038547	0.115569	0.071451
C374	C	0.538547	0.615569	0.571451
H375	H	-0.022433	0.156323	0.023135
H376	H	0.477567	0.656323	0.523135
H377	H	-0.028478	0.086139	0.023218
H378	H	0.471522	0.586139	0.523218
H379	H	0.016356	0.116635	-0.010594
H380	H	0.516356	0.616635	0.489406
H381	H	0.019903	0.117864	0.104941
H382	H	0.519903	0.617864	0.604941
H383	H	0.064741	0.148373	0.071134
H384	H	0.564741	0.648373	0.571134
H385	H	-0.525566	-0.000021	-0.459938
H386	H	-0.025566	0.499979	0.040062
H387	H	-0.817821	-0.000039	-0.499833
H388	H	-0.317821	0.499961	0.000167
H389	H	-0.574221	-0.000016	-0.740261
H390	H	-0.074221	0.499984	-0.240261
C391	C	-0.514782	-0.000011	-0.654430
C392	C	-0.014782	0.499989	-0.154430
C393	C	-0.560811	-0.000016	-0.622028
C394	C	-0.060811	0.499984	-0.122028
H395	H	-0.479784	-0.000015	-0.629473
H396	H	0.020216	0.499985	-0.129473
H397	H	-0.516671	0.035228	-0.677886
H398	H	-0.016671	0.535228	-0.177886
H399	H	-0.516669	-0.035249	-0.677900
H400	H	-0.016669	0.464751	-0.177900
H401	H	-0.558926	0.035226	-0.598561
H402	H	-0.058926	0.535226	-0.098561
H403	H	-0.558921	-0.035258	-0.598562
H404	H	-0.058921	0.464742	-0.098562
C405	C	-0.579030	-0.000068	-0.018639
C406	C	-0.079030	0.499932	0.481361
C407	C	-0.567359	-0.000064	-0.075548
C408	C	-0.067359	0.499936	0.424452
H409	H	-0.544038	-0.000054	0.006327
H410	H	-0.044038	0.499946	0.506327
H411	H	-0.600468	-0.035310	-0.011824
H412	H	-0.100468	0.464690	0.488176
H413	H	-0.600493	0.035167	-0.011823
H414	H	-0.100493	0.535167	0.488177
H415	H	-0.545899	-0.035301	-0.082366
H416	H	-0.045899	0.464699	0.417634
H417	H	-0.545912	0.035182	-0.082366
H418	H	-0.045912	0.535182	0.417634
H419	H	0.154777	-0.100015	0.070081
H420	H	0.654777	0.399985	0.570081
H421	H	-0.763922	-0.000051	-0.658210
H422	H	-0.263922	0.499949	-0.158210
H423	H	-0.762627	-0.000039	-0.765978
H424	H	-0.262627	0.499961	-0.265978
H425	H	-0.391693	0.099895	0.076639
H426	H	0.108307	0.599895	0.576639
C427	C	0.155546	0.148924	0.119088
C428	C	0.655546	0.648924	0.619088
C429	C	0.163224	0.115561	0.069956
C430	C	0.663224	0.615561	0.569956
H431	H	0.175691	0.186310	0.118838
H432	H	0.675691	0.686310	0.618838
H433	H	0.169822	0.126300	0.152183
H434	H	0.669822	0.626300	0.652183
H435	H	0.115917	0.156799	0.119559
H436	H	0.615917	0.656799	0.619559
H437	H	0.202853	0.107683	0.069487
H438	H	0.702853	0.607683	0.569487
H439	H	0.148950	0.138190	0.036852
H440	H	0.648950	0.638190	0.536852
C441	C	-0.566330	0.103957	0.078727
C442	C	-0.066330	0.603957	0.578727
C443	C	-0.507923	0.115594	0.078026
C444	C	-0.007923	0.615594	0.578026
H445	H	-0.586489	0.141337	0.078955
H446	H	-0.086489	0.641337	0.578955
H447	H	-0.571524	0.081340	0.112064
H448	H	-0.071524	0.581340	0.612064
H449	H	-0.580587	0.081310	0.045632
H450	H	-0.080587	0.581310	0.545632
H451	H	-0.493664	0.138238	0.111124
H452	H	0.006336	0.638238	0.611124
H453	H	-0.502725	0.138221	0.044686
H454	H	-0.002725	0.638221	0.544686
C455	C	-0.788268	-0.182051	-0.041889
C456	C	-0.288268	0.317949	0.458111
C457	C	-0.754086	-0.140702	-0.007715
C458	C	-0.254086	0.359298	0.492285
H459	H	-0.814695	-0.160469	-0.068312
H460	H	-0.314695	0.339531	0.431688
H461	H	-0.808618	-0.206856	-0.018292
H462	H	-0.308618	0.293144	0.481708
H463	H	-0.764672	-0.206863	-0.062249
H464	H	-0.264672	0.293137	0.437751
H465	H	-0.777682	-0.115893	0.012648
H466	H	-0.277682	0.384107	0.512648
H467	H	-0.733735	-0.115887	-0.031316
H468	H	-0.233735	0.384113	0.468684
H469	H	-0.742994	-0.265151	0.003362
H470	H	-0.242994	0.234849	0.503362
H471	H	-0.781951	-0.442355	-0.035575
H472	H	-0.281951	0.057645	0.464425
