data_functionalizedCrystal
_audit_creation_method	'MofGen! by Chris Wilmer'
_symmetry_space_group_name_H-M	'P1'
_symmetry_Int_Tables_number	1
_symmetry_cell_setting	triclinic
loop_
_symmetry_equiv_pos_as_xyz
  x,y,z
_cell_length_a	14.560438
_cell_length_b	21.606444
_cell_length_c	21.606444
_cell_angle_alpha	60.001331
_cell_angle_beta	90.003088
_cell_angle_gamma	60.000320
loop_
_atom_site_label
_atom_site_type_symbol
_atom_site_fract_x
_atom_site_fract_y
_atom_site_fract_z
Zr1	Zr	0.884736	0.677461	-0.081191
O2	O	0.738080	0.806582	-0.180015
O3	O	0.929695	0.548342	-0.050899
O4	O	0.929683	0.677466	-0.180018
O5	O	0.738100	0.677454	0.050957
O6	O	1.080822	0.677468	-0.180016
O7	O	0.738092	0.677458	-0.050897
O8	O	1.080843	0.446489	0.050953
O9	O	0.738079	0.908433	-0.180012
O10	O	1.061661	0.601451	-0.037975
O11	O	0.948874	0.601447	0.038036
O12	O	0.948860	0.753473	-0.113984
O13	O	0.836073	0.753469	-0.037973
Zr14	Zr	1.125796	0.677457	0.081257
Zr15	Zr	1.125784	0.677464	-0.081189
Zr16	Zr	0.884748	0.677454	0.081254
Zr17	Zr	0.884733	0.839901	-0.081186
Zr18	Zr	1.125799	0.515017	0.081252
O19	O	1.080837	0.806576	0.050965
O20	O	1.080820	0.806586	-0.180012
O21	O	0.738098	0.806572	0.050961
O22	O	1.272452	0.548336	0.180081
O23	O	1.272434	0.548346	-0.050895
O24	O	0.929712	0.548332	0.180077
O25	O	1.272432	0.677464	-0.050891
O26	O	1.080849	0.677452	0.180083
O27	O	0.929710	0.677451	0.180082
O28	O	1.272440	0.677460	0.050963
O29	O	0.929680	0.908435	-0.180010
O30	O	1.080852	0.446483	0.180076
O31	O	1.272453	0.446485	0.180078
O32	O	1.272444	0.446491	0.050955
O33	O	0.738088	0.908427	-0.050890
O34	O	0.929689	0.908430	-0.050887
O35	O	1.061672	0.601445	0.114050
O36	O	1.174459	0.601449	0.038039
O37	O	1.061658	0.753472	-0.037970
O38	O	0.948871	0.753467	0.038041
C39	C	1.005269	0.474271	0.000026
C40	C	1.005270	0.405311	0.000024
C41	C	0.703752	0.677456	0.000030
C42	C	0.601420	0.677454	0.000029
C43	C	1.064141	0.372916	-0.039654
C44	C	1.064145	0.308116	-0.039649
C45	C	1.005271	0.275717	0.000030
C46	C	0.946398	0.308114	0.039713
C47	C	0.946401	0.372909	0.039712
C48	C	0.946385	0.046805	0.039720
C49	C	0.946383	-0.017992	0.039716
C50	C	1.064129	-0.017988	-0.039642
C51	C	1.064132	0.046806	-0.039643
C52	C	1.005265	0.079195	0.000043
C53	C	1.005263	0.149458	0.000039
C54	C	1.005266	0.205460	0.000031
C55	C	0.612223	0.598102	0.039704
C56	C	0.516068	0.598106	0.039711
C57	C	0.398311	0.756822	-0.039640
C58	C	0.494465	0.756817	-0.039642
C59	C	0.719178	0.518739	0.079374
C60	C	0.729985	0.439380	0.119052
C61	C	0.633830	0.439384	0.119059
C62	C	0.526868	0.518747	0.079388
C63	C	1.306780	0.677463	0.000036
C64	C	1.409112	0.677464	0.000037
C65	C	1.005251	0.677468	-0.203162
C66	C	1.005246	0.677471	-0.272124
C67	C	1.005263	0.880647	0.000039
C68	C	1.005262	0.949607	0.000042
C69	C	0.946364	0.756824	-0.344199
C70	C	0.946374	0.756822	-0.408994
C71	C	1.005259	0.677465	-0.401712
C72	C	1.064148	0.598106	-0.329630
C73	C	1.064144	0.598109	-0.264837
C74	C	1.064166	0.598090	-0.590933
C75	C	1.064162	0.598093	-0.655734
C76	C	0.946395	0.756803	-0.735090
C77	C	0.946392	0.756807	-0.670297
C78	C	1.005285	0.677448	-0.598220
C79	C	1.005275	0.677451	-0.527963
C80	C	1.005263	0.677461	-0.471968
C81	C	1.005281	0.677450	0.203227
C82	C	1.005287	0.677447	0.272190
C83	C	1.306784	0.474275	0.000030
C84	C	1.409116	0.405316	0.000028
C85	C	1.005285	0.474262	0.203221
C86	C	1.005291	0.405299	0.272181
C87	C	1.306799	0.474266	0.203224
C88	C	1.409136	0.405304	0.272185
C89	C	0.703733	0.880652	-0.203158
C90	C	0.601396	0.949614	-0.272120
C91	C	0.703748	0.880644	0.000036
C92	C	0.601416	0.949603	0.000037
C93	C	1.005248	0.880656	-0.203155
C94	C	1.005241	0.949619	-0.272115
C95	C	1.398293	0.372933	-0.039657
C96	C	1.494435	0.308147	-0.039674
C97	C	1.601400	0.275742	0.000001
C98	C	1.612222	0.308131	0.039688
C99	C	1.516080	0.372920	0.039699
C100	C	1.064173	0.372912	0.344251
C101	C	1.064175	0.308123	0.409052
C102	C	1.005300	0.275718	0.401783
C103	C	0.946410	0.308111	0.329705
C104	C	0.946403	0.372903	0.264905
C105	C	1.516079	0.372921	0.264893
C106	C	1.612245	0.308133	0.329683
C107	C	1.601466	0.275725	0.401765
C108	C	1.494512	0.308114	0.409056
C109	C	1.398349	0.372905	0.344266
C110	C	0.494453	0.982005	-0.264827
C111	C	0.398287	1.046813	-0.329618
C112	C	0.409066	1.079225	-0.401699
C113	C	0.516020	1.046832	-0.408990
C114	C	0.612183	0.982029	-0.344201
C115	C	0.612240	0.981992	0.039716
C116	C	0.516097	1.046795	0.039715
C117	C	0.409132	1.079203	0.000038
C118	C	0.398310	1.046811	-0.039646
C119	C	0.494452	0.982014	-0.039648
C120	C	1.064128	0.982004	-0.264821
C121	C	1.064144	1.046794	-0.329610
C122	C	1.005266	1.079201	-0.401693
C123	C	0.946378	1.046810	-0.408985
C124	C	0.946369	0.982017	-0.344197
H125	H	1.112078	0.399295	-0.071970
H126	H	0.817078	0.374766	0.151356
C127	C	0.482539	0.946379	-0.083287
H128	H	0.555110	0.903148	-0.077614
H129	H	0.442581	0.921111	-0.063688
H130	H	0.442582	0.992901	-0.135491
H131	H	0.898429	0.821439	-0.467678
C132	C	0.645716	0.352096	0.162703
H133	H	0.723186	0.304833	0.186323
H134	H	0.610667	0.348790	0.200255
H135	H	0.610642	0.348805	0.128449
H136	H	0.311218	0.821436	-0.071940
C137	C	0.303283	1.150502	-0.472963
H138	H	0.325011	1.165175	-0.516941
H139	H	0.259787	1.129261	-0.472961
H140	H	0.259795	1.201055	-0.472957
C141	C	1.128934	0.408553	0.352258
H142	H	1.120512	0.451776	0.303348
H143	H	1.099853	0.433832	0.379178
H144	H	1.206402	0.362033	0.379185
H145	H	1.699325	0.281737	0.071989
H146	H	0.898459	0.399286	0.072020
H147	H	0.485666	0.821433	-0.071934
H148	H	1.112099	0.533492	-0.323706
H149	H	0.898457	0.399264	0.206225
C150	C	1.128918	0.272470	-0.083283
H151	H	1.120503	0.229229	-0.077590
H152	H	1.099850	0.318977	-0.135486
H153	H	1.206382	0.247191	-0.063677
H154	H	0.524783	1.073230	-0.467687
H155	H	1.699323	0.281768	0.323734
C156	C	1.128968	0.272495	0.488327
H157	H	1.164044	0.301066	0.483370
H158	H	1.078162	0.283117	0.515260
H159	H	1.184691	0.211317	0.515253
H160	H	0.524929	1.073158	0.072033
C161	C	1.128898	0.082439	-0.083287
H162	H	1.163971	0.053858	-0.106912
H163	H	1.078081	0.143613	-0.120834
H164	H	1.184623	0.071810	-0.049031
C165	C	1.128941	0.510797	-0.647722
H166	H	1.164023	0.463533	-0.595516
H167	H	1.078121	0.507496	-0.671348
H168	H	1.184658	0.507504	-0.671351
C169	C	1.482664	0.272461	0.488346
H170	H	1.405201	0.301027	0.483418
H171	H	1.517741	0.211286	0.515268
H172	H	1.517730	0.283089	0.515266
C173	C	1.128903	0.946364	-0.185539
H174	H	1.163981	0.974931	-0.190485
H175	H	1.078091	0.956983	-0.158609
H176	H	1.184624	0.885186	-0.158617
C177	C	1.128904	0.510823	-0.185553
H178	H	1.120477	0.522189	-0.148008
H179	H	1.099832	0.478215	-0.179870
H180	H	1.206373	0.478217	-0.179866
H181	H	1.005315	0.222960	0.454553
C182	C	0.881657	0.272458	0.321714
H183	H	0.846577	0.301026	0.269512
H184	H	0.932491	0.211284	0.345350
H185	H	0.825941	0.283083	0.345344
H186	H	0.699258	0.955657	-0.350147
H187	H	1.524877	0.399298	0.206206
C188	C	0.280646	1.082460	-0.083280
H189	H	0.224947	1.125681	-0.077583
H190	H	0.272185	1.107743	-0.135484
H191	H	0.272208	1.035941	-0.063676
C192	C	0.729891	0.946355	0.083360
H193	H	0.785611	0.903119	0.077686
H194	H	0.738321	0.992874	0.063762
H195	H	0.738328	0.921076	0.135563
H196	H	1.679778	0.222967	0.454515
H197	H	1.311275	0.399263	0.350214
C198	C	0.303382	1.150476	0.000047
H199	H	0.238122	1.165146	-0.029268
H200	H	0.303393	1.129231	0.050601
H201	H	0.303387	1.201030	-0.021198
C202	C	0.881570	0.946412	-0.352226
H203	H	0.889991	0.903180	-0.303321
H204	H	0.804115	0.992943	-0.379154
H205	H	0.910643	0.921133	-0.379151
C206	C	0.482574	0.946373	-0.185546
H207	H	0.405104	0.974962	-0.190493
H208	H	0.517627	0.885200	-0.158614
H209	H	0.517643	0.956999	-0.158625
H210	H	1.112096	1.073160	-0.323658
C211	C	1.128899	-0.053628	-0.083286
H212	H	1.120480	-0.096866	-0.077596
H213	H	1.099821	-0.007114	-0.135486
H214	H	1.206366	-0.078908	-0.063685
H215	H	0.311210	1.073177	-0.323667
H216	H	1.524908	0.399277	0.072020
C217	C	1.005275	1.150478	-0.472953
H218	H	1.048772	1.165126	-0.458279
H219	H	1.036795	1.129253	-0.502274
H220	H	0.930255	1.201042	-0.502263
C221	C	0.881607	1.082472	-0.488278
H222	H	0.890042	1.125705	-0.525813
H223	H	0.910665	1.035970	-0.493979
H224	H	0.804139	1.107763	-0.493965
C225	C	0.881595	0.844118	-0.352214
H226	H	0.846540	0.891377	-0.404421
H227	H	0.825876	0.847424	-0.328591
H228	H	0.932427	0.847414	-0.328586
H229	H	0.448577	0.518744	0.079401
H230	H	0.898439	-0.044370	0.072030
C231	C	0.824947	0.518731	0.079372
H232	H	0.890193	0.460103	0.108684
H233	H	0.824942	0.548046	0.028820
H234	H	0.824966	0.548030	0.100626
H235	H	0.898445	0.821421	-0.793784
C236	C	0.881621	0.082433	0.083364
H237	H	0.846548	0.053864	0.106987
H238	H	0.932440	0.071813	0.120913
H239	H	0.825897	0.143611	0.049111
H240	H	0.898436	0.821427	-0.676232
C241	C	0.881679	0.272451	0.083390
H242	H	0.846639	0.301012	0.107036
H243	H	0.825952	0.283053	0.049166
H244	H	0.932541	0.211275	0.120937
C245	C	1.128933	0.510799	-0.511659
H246	H	1.163990	0.463540	-0.516606
H247	H	1.184651	0.507496	-0.484728
H248	H	1.078103	0.507502	-0.484738
H249	H	1.311205	0.399317	-0.071974
H250	H	1.485603	0.281784	-0.071991
H251	H	1.679676	0.222986	-0.000014
