data_functionalizedCrystal
_audit_creation_method	'MofGen! by Chris Wilmer'
_symmetry_space_group_name_H-M	'P1'
_symmetry_Int_Tables_number	1
_symmetry_cell_setting	triclinic
loop_
_symmetry_equiv_pos_as_xyz
  x,y,z
_cell_length_a	20.875650
_cell_length_b	14.560438
_cell_length_c	14.560438
_cell_angle_alpha	90.000977
_cell_angle_beta	57.600010
_cell_angle_gamma	62.450707
loop_
_atom_site_label
_atom_site_type_symbol
_atom_site_fract_x
_atom_site_fract_y
_atom_site_fract_z
Zr1	Zr	0.701910	0.921936	-0.157074
O2	O	0.835688	0.782376	-0.310694
O3	O	0.568131	0.959804	-0.105149
O4	O	0.701912	0.966891	-0.303722
O5	O	0.701906	0.775290	0.039020
O6	O	0.701914	1.118029	-0.303720
O7	O	0.701908	0.775290	-0.112121
O8	O	0.462605	1.105352	0.051491
O9	O	0.941215	0.787967	-0.316191
O10	O	0.623158	1.094684	-0.088840
O11	O	0.623155	0.981892	0.023953
O12	O	0.780665	0.990235	-0.209841
O13	O	0.780662	0.877443	-0.097048
Zr14	Zr	0.701910	1.162984	0.083982
Zr15	Zr	0.701913	1.162984	-0.157070
Zr16	Zr	0.701907	0.921936	0.083978
Zr17	Zr	0.870213	0.930852	-0.165841
Zr18	Zr	0.533607	1.154068	0.092749
O19	O	0.835688	1.125116	0.032057
O20	O	0.835692	1.125116	-0.310688
O21	O	0.835684	0.782377	0.032052
O22	O	0.568131	1.302544	0.237601
O23	O	0.568136	1.302543	-0.105144
O24	O	0.568127	0.959804	0.237596
O25	O	0.701914	1.309630	-0.112112
O26	O	0.701908	1.118029	0.230630
O27	O	0.701906	0.966891	0.230628
O28	O	0.701912	1.309630	0.039028
O29	O	0.941217	0.979568	-0.316188
O30	O	0.462602	1.105352	0.243095
O31	O	0.462605	1.296953	0.243098
O32	O	0.462607	1.296953	0.051494
O33	O	0.941213	0.787967	-0.124586
O34	O	0.941215	0.979568	-0.124583
O35	O	0.623155	1.094685	0.136749
O36	O	0.623158	1.207477	0.023956
O37	O	0.780665	1.103028	-0.097045
O38	O	0.780662	0.990236	0.015748
C39	C	0.491388	1.031308	-0.025580
C40	C	0.419939	1.027523	-0.021858
C41	C	0.017470	1.000271	0.005860
C42	C	0.084648	1.003771	0.002292
C43	C	0.118241	1.064392	-0.058377
C44	C	0.084644	1.121525	-0.115472
C45	C	0.017463	1.118031	-0.111897
C46	C	0.319162	1.081162	-0.075378
C47	C	0.386350	1.084649	-0.078952
C48	C	0.386348	0.966896	0.038814
C49	C	0.319169	0.963401	0.042378
C50	C	0.285575	1.020540	-0.014711
N51	N	0.186910	1.067968	-0.062029
N52	N	0.216903	1.016969	-0.011052
C53	C	0.701906	0.740945	-0.036551
C54	C	0.701905	0.638614	-0.036552
C55	C	0.701913	1.042460	-0.338066
C56	C	0.701915	1.042460	-0.440399
C57	C	0.912431	1.053612	-0.047512
C58	C	0.983880	1.057397	-0.051234
C59	C	0.619690	0.645057	0.026609
C60	C	0.619694	0.548902	0.026618
C61	C	0.784137	0.439865	-0.099703
C62	C	0.784131	0.536019	-0.099706
C63	C	0.524750	0.708008	0.099535
C64	C	0.524754	0.611853	0.099545
C65	C	0.701913	1.343975	-0.036541
C66	C	0.701915	1.446306	-0.036540
C67	C	0.784130	0.987934	-0.551636
C68	C	0.784126	0.987937	-0.647785
C69	C	0.619683	1.096993	-0.521444
C70	C	0.619689	1.096996	-0.425298
C71	C	0.879070	0.924967	-0.624579
C72	C	0.879066	0.924970	-0.720727
C73	C	0.701906	1.042460	0.264974
C74	C	0.701905	1.042460	0.367307
C75	C	0.491392	1.332822	-0.025575
C76	C	0.419944	1.431369	-0.021852
C77	C	0.491385	1.031308	0.275940
C78	C	0.419935	1.027523	0.381994
C79	C	0.491388	1.332822	0.275944
C80	C	0.419939	1.431369	0.382001
C81	C	0.912431	0.752098	-0.349036
C82	C	0.983880	0.653551	-0.455093
C83	C	0.912428	0.752098	-0.047517
C84	C	0.983876	0.653551	-0.051240
C85	C	0.912435	1.053612	-0.349032
C86	C	0.983885	1.057397	-0.455087
C87	C	0.386392	1.418770	-0.078992
C88	C	0.319268	1.511356	-0.075517
C89	C	0.285694	1.616539	-0.014894
C90	C	0.319253	1.629136	0.042248
C91	C	0.386380	1.536551	0.038765
C92	C	0.386381	1.084622	0.490688
C93	C	0.319255	1.081062	0.590346
C94	C	0.285680	1.020408	0.581309
C95	C	0.319240	0.963302	0.472604
C96	C	0.386369	0.966857	0.372948
C97	C	0.386388	1.536534	0.372929
C98	C	0.319263	1.629138	0.472571
C99	C	0.285687	1.616575	0.581283
C100	C	0.319245	1.511399	0.590352
C101	C	0.386373	1.418797	0.490711
C102	C	1.017440	0.548387	-0.446022
C103	C	1.084586	0.455783	-0.545664
C104	C	1.118166	0.468347	-0.654377
C105	C	1.084603	0.573523	-0.663446
C106	C	1.017463	0.666124	-0.563804
C107	C	1.017435	0.666150	0.005890
C108	C	1.084577	0.573565	0.002387
C109	C	1.118154	0.468382	-0.058240
C110	C	1.084591	0.455785	-0.115377
C111	C	1.017455	0.548370	-0.111880
C112	C	1.017439	1.118061	-0.446012
C113	C	1.084565	1.121639	-0.545653
C114	C	1.118141	1.064546	-0.654366
C115	C	1.084580	1.003880	-0.663437
C116	C	1.017451	1.000309	-0.563798
H117	H	0.413706	0.920378	0.085295
H118	H	0.291898	1.501186	0.678879
H119	H	0.990102	0.751787	0.055266
H120	H	1.111893	0.583843	0.048919
C121	C	0.874574	0.528924	-0.169184
N122	N	0.942700	0.523578	-0.221521
C123	C	0.423306	1.151343	0.500656
N124	N	0.451119	1.201594	0.508174
C125	C	0.121563	0.940968	0.065144
N126	N	0.149356	0.893679	0.112505
C127	C	0.282342	1.143899	0.709910
N128	N	0.254539	1.191231	0.799963
H129	H	1.172803	1.067462	-0.735489
C130	C	0.928315	0.978671	-0.627163
N131	N	0.965403	1.019123	-0.629108
H132	H	0.851082	0.356323	-0.151121
H133	H	0.495290	0.601576	0.188138
H134	H	0.231019	1.017523	0.662465
C135	C	1.192002	0.366547	-0.062069
N136	N	1.247622	0.289848	-0.064945
H137	H	0.291893	0.913919	0.465263
H138	H	1.111901	0.370153	-0.538258
H139	H	1.111928	0.957396	-0.751965
C140	C	0.475674	0.609131	0.050802
N141	N	0.438764	0.607042	0.014014
C142	C	0.423314	1.550381	0.253354
N143	N	0.451127	1.560820	0.163293
C144	C	0.980561	0.933553	-0.573800
N145	N	0.952781	0.883267	-0.581342
C146	C	0.423296	1.151346	-0.145690
N147	N	0.451124	1.201579	-0.195954
H148	H	-0.009872	0.950900	0.055256
C149	C	0.211837	1.718451	0.690881
N150	N	0.156210	1.795188	0.773426
C151	C	0.918872	0.809477	-0.614860
N152	N	0.948851	0.722489	-0.607540
H153	H	0.231034	1.691919	-0.012066
C154	C	0.475501	0.775925	0.223722
N155	N	0.438409	0.827079	0.317258
C156	C	1.192014	0.366470	-0.763974
N157	N	1.247633	0.289733	-0.846520
C158	C	0.121614	1.188188	-0.182232
N159	N	0.149467	1.238388	-0.232530
H160	H	0.291907	1.714788	0.091605
H161	H	0.291821	0.914039	0.091783
C162	C	0.918827	0.987720	-0.791571
N163	N	0.948758	1.035002	-0.844918
C164	C	0.423261	0.904052	0.253388
N165	N	0.451044	0.856745	0.163337
H166	H	0.552738	1.141394	-0.509163
H167	H	0.915512	0.836873	-0.774822
C168	C	0.484951	0.774685	0.041008
N169	N	0.454975	0.824908	-0.003075
H170	H	0.291817	1.127684	-0.121865
H171	H	0.291952	1.501078	-0.122049
C172	C	0.282353	1.744821	0.462569
N173	N	0.254552	1.831951	0.455033
H174	H	0.413682	1.333170	0.498114
H175	H	0.552741	1.141409	-0.334726
H176	H	1.111952	0.583739	-0.751971
C177	C	0.980514	1.180881	-0.326437
N178	N	0.952701	1.228206	-0.236375
C179	C	1.121474	1.188372	-0.535648
N180	N	1.149272	1.238635	-0.528109
H181	H	0.990139	0.751751	-0.571204
H182	H	0.413727	1.333133	-0.128372
H183	H	0.990103	0.538136	-0.357512
H184	H	-0.009887	1.164551	-0.158387
H185	H	0.413690	1.546824	0.085303
H186	H	1.111940	0.370133	-0.164738
H187	H	0.990133	0.538096	-0.158399
