data_functionalizedCrystal
_audit_creation_method	'MofGen! by Chris Wilmer'
_symmetry_space_group_name_H-M	'P1'
_symmetry_Int_Tables_number	1
_symmetry_cell_setting	triclinic
loop_
_symmetry_equiv_pos_as_xyz
  x,y,z
_cell_length_a	10.489716
_cell_length_b	17.699083
_cell_length_c	16.176319
_cell_angle_alpha	90.002310
_cell_angle_beta	89.989528
_cell_angle_gamma	96.093925
loop_
_atom_site_label
_atom_site_type_symbol
_atom_site_fract_x
_atom_site_fract_y
_atom_site_fract_z
O1	O	0.161274	-1.005123	0.068623
O2	O	0.661274	-0.505123	0.568623
O3	O	0.182259	-0.784881	0.068649
O4	O	0.682259	-0.284881	0.568649
O5	O	-0.013927	-0.900023	0.068639
O6	O	0.486073	-0.400023	0.568639
O7	O	0.357460	-0.889981	0.068634
O8	O	0.857460	-0.389981	0.568634
O9	O	-0.013891	-0.900012	-0.068855
O10	O	0.486109	-0.400012	0.431145
O11	O	0.182294	-0.784870	-0.068844
O12	O	0.682294	-0.284870	0.431156
O13	O	0.161309	-1.005112	-0.068870
O14	O	0.661309	-0.505112	0.431130
Cu15	Cu	0.171805	-0.894990	-0.081411
Cu16	Cu	0.671805	-0.394990	0.418589
Cu17	Cu	0.171763	-0.895003	0.081191
Cu18	Cu	0.671763	-0.395003	0.581191
O19	O	0.357495	-0.889970	-0.068859
O20	O	0.857495	-0.389970	0.431141
C21	C	0.181525	-0.756673	-0.000094
C22	C	0.681525	-0.256673	0.499906
C23	C	0.179269	-0.672641	-0.000083
C24	C	0.679269	-0.172641	0.499917
C25	C	-0.061427	-0.899263	-0.000105
C26	C	0.438573	-0.399263	0.499895
C27	C	-0.203016	-0.897006	-0.000098
C28	C	0.296984	-0.397006	0.499902
C29	C	0.162043	-1.033319	-0.000125
C30	C	0.662043	-0.533319	0.499875
C31	C	0.164299	-1.117352	-0.000130
C32	C	0.664299	-0.617352	0.499870
C33	C	-0.302002	-0.967614	-0.000113
C34	C	0.197998	-0.467614	0.499887
C35	C	-0.378687	-0.930309	0.067680
C36	C	0.121313	-0.430309	0.567680
C37	C	-0.378616	-0.930281	-0.067877
C38	C	0.121384	-0.430281	0.432123
C39	C	-0.277836	-0.859729	0.067752
C40	C	0.222164	-0.359729	0.567752
C41	C	-0.277760	-0.859712	-0.067866
C42	C	0.222240	-0.359712	0.432134
C43	C	-0.354395	-0.822355	-0.000056
C44	C	0.145605	-0.322355	0.499944
C45	C	0.404995	-0.890730	-0.000113
C46	C	0.904995	-0.390730	0.499887
C47	C	0.546584	-0.892987	-0.000116
C48	C	1.046584	-0.392987	0.499884
N49	N	0.171834	-0.894986	-0.195776
N50	N	0.671834	-0.394986	0.304224
C51	C	0.294426	-0.624767	-0.000085
C52	C	0.794426	-0.124767	0.499915
C53	C	0.292299	-0.545810	-0.000096
C54	C	0.792299	-0.045810	0.499904
C55	C	0.175013	-0.514728	-0.000099
C56	C	0.675013	-0.014728	0.499901
C57	C	0.059847	-0.562608	-0.000100
C58	C	0.559847	-0.062608	0.499900
C59	C	0.061976	-0.641563	-0.000095
C60	C	0.561976	-0.141563	0.499905
C61	C	0.051261	-0.244189	-0.000120
C62	C	0.551261	0.255811	0.499880
C63	C	0.049141	-0.165227	-0.000122
C64	C	0.549141	0.334773	0.499878
C65	C	0.281583	-0.148436	-0.000121
C66	C	0.781583	0.351564	0.499879
C67	C	0.283712	-0.227391	-0.000116
C68	C	0.783712	0.272609	0.499884
C69	C	0.168547	-0.275264	-0.000121
C70	C	0.668547	0.224736	0.499879
C71	C	0.170855	-0.360878	-0.000111
C72	C	0.670855	0.139122	0.499889
C73	C	0.172704	-0.429115	-0.000103
C74	C	0.672704	0.070885	0.499897
C75	C	0.094472	-0.848693	-0.761159
C76	C	0.594472	-0.348693	-0.261159
C77	C	0.094482	-0.848692	-0.674612
C78	C	0.594482	-0.348692	-0.174612
C79	C	0.171752	-0.895006	-0.631352
C80	C	0.671752	-0.395006	-0.131352
C81	C	0.249007	-0.941330	-0.674643
C82	C	0.749007	-0.441330	-0.174643
C83	C	0.248990	-0.941335	-0.761188
C84	C	0.748990	-0.441335	-0.261188
C85	C	0.249079	-0.941312	-0.325614
C86	C	0.749079	-0.441312	0.174386
C87	C	0.249094	-0.941302	-0.239063
C88	C	0.749094	-0.441302	0.260937
C89	C	0.094572	-0.848669	-0.239039
C90	C	0.594572	-0.348669	0.260961
C91	C	0.094554	-0.848674	-0.325584
C92	C	0.594554	-0.348674	0.174416
C93	C	0.171804	-0.895001	-0.368867
C94	C	0.671804	-0.395001	0.131133
C95	C	0.171790	-0.895003	-0.462712
C96	C	0.671790	-0.395003	0.037288
C97	C	0.171773	-0.895000	-0.537509
C98	C	0.671773	-0.395000	-0.037509
N99	N	0.171724	-0.895012	0.195556
N100	N	0.671724	-0.395012	0.695556
H101	H	-0.278467	-1.029032	-0.000052
H102	H	0.221533	-0.529032	0.499948
H103	H	0.386071	-0.506834	-0.000096
H104	H	0.886071	-0.006834	0.499904
H105	H	0.031572	-0.810976	-0.639374
H106	H	0.531572	-0.310976	-0.139374
H107	H	-0.233674	-0.829927	-0.125177
H108	H	0.266326	-0.329927	0.374823
N109	N	0.015647	-0.801366	-0.194806
N110	N	0.515647	-0.301366	0.305194
N111	N	-0.068734	-0.830470	-0.146497
N112	N	0.431266	-0.330470	0.353503
H113	H	-0.124472	-0.797064	-0.115256
H114	H	0.375528	-0.297064	0.384744
H115	H	0.311916	-0.979044	-0.639413
H116	H	0.811916	-0.479044	-0.139413
N117	N	0.015546	-0.801372	-0.805332
N118	N	0.515546	-0.301372	-0.305332
N119	N	-0.053423	-0.760019	-0.766671
N120	N	0.446577	-0.260019	-0.266671
H121	H	-0.109169	-0.726597	-0.797865
H122	H	0.390831	-0.226597	-0.297865
N123	N	0.015626	-0.801355	-0.369760
N124	N	0.515626	-0.301355	0.130240
N125	N	-0.053346	-0.760002	-0.331102
N126	N	0.446654	-0.260002	0.168898
H127	H	-0.109094	-0.726582	-0.362299
H128	H	0.390906	-0.226582	0.137701
H129	H	0.312020	-0.979019	-0.203842
H130	H	0.812020	-0.479019	0.296158
N131	N	0.327990	-0.988638	-0.369807
N132	N	0.827990	-0.488638	0.130193
N133	N	0.396974	-1.029984	-0.331168
N134	N	0.896974	-0.529984	0.168832
H135	H	0.452710	-1.063410	-0.362381
H136	H	0.952710	-0.563410	0.137619
N137	N	0.327901	-0.988658	-0.805393
N138	N	0.827901	-0.488658	-0.305393
N139	N	0.396885	-1.030008	-0.766760
N140	N	0.896885	-0.530008	-0.266760
H141	H	0.452615	-1.063435	-0.797978
H142	H	0.952615	-0.563435	-0.297978
N143	N	-0.433997	-0.967693	0.139570
N144	N	0.066003	-0.467693	0.639570
N145	N	-0.494137	-0.931712	0.190317
N146	N	0.005863	-0.431712	0.690317
H147	H	-0.533201	-0.958118	0.241087
H148	H	-0.033201	-0.458118	0.741087
H149	H	-0.377683	-0.760891	-0.000012
H150	H	0.122317	-0.260891	0.499988
N151	N	-0.222831	-0.822380	0.139739
N152	N	0.277169	-0.322380	0.639739
N153	N	-0.162035	-0.858236	0.190221
N154	N	0.337965	-0.358236	0.690221
H155	H	-0.123185	-0.831862	0.241063
H156	H	0.376815	-0.331862	0.741063
N157	N	-0.433822	-0.967692	-0.139773
N158	N	0.066178	-0.467692	0.360227
N159	N	-0.421976	-1.036355	-0.151839
N160	N	0.078024	-0.536355	0.348161
H161	H	-0.460964	-1.062782	-0.202612
H162	H	0.039036	-0.562782	0.297388
H163	H	0.389933	-0.650067	-0.000082
H164	H	0.889933	-0.150067	0.499918
N165	N	0.403527	-0.259127	-0.000105
N166	N	0.903527	0.240873	0.499895
N167	N	0.506340	-0.216373	-0.000107
N168	N	1.006340	0.283627	0.499893
H169	H	0.590963	-0.238785	-0.000100
H170	H	1.090963	0.261215	0.499900
N171	N	0.399214	-0.099522	-0.000135
N172	N	0.899214	0.400478	0.499865
N173	N	0.423977	-0.053597	-0.058097
N174	N	0.923977	0.446403	0.441903
H175	H	0.507051	-0.019052	-0.058106
H176	H	1.007051	0.480948	0.441894
H177	H	-0.046372	-0.139924	-0.000126
H178	H	0.453628	0.360076	0.499874
H179	H	-0.035649	-0.537295	-0.000114
H180	H	0.464351	-0.037295	0.499886
N181	N	-0.066384	-0.293072	-0.000122
N182	N	0.433616	0.206928	0.499878
N183	N	-0.171091	-0.265307	-0.000120
N184	N	0.328909	0.234693	0.499880
H185	H	-0.254186	-0.299833	-0.000119
H186	H	0.245814	0.200167	0.499881
H187	H	-0.031797	-0.680542	-0.000093
H188	H	0.468203	-0.180542	0.499907
