data_functionalizedCrystal
_audit_creation_method	'MofGen! by Chris Wilmer'
_symmetry_space_group_name_H-M	'P1'
_symmetry_Int_Tables_number	1
_symmetry_cell_setting	triclinic
loop_
_symmetry_equiv_pos_as_xyz
  x,y,z
_cell_length_a	12.759401
_cell_length_b	17.637651
_cell_length_c	12.759393
_cell_angle_alpha	78.750889
_cell_angle_beta	89.981079
_cell_angle_gamma	101.218910
loop_
_atom_site_label
_atom_site_type_symbol
_atom_site_fract_x
_atom_site_fract_y
_atom_site_fract_z
Zn1	Zn	1.521684	-0.314737	-0.509322
Zn2	Zn	2.021684	0.185263	-0.009322
Zn3	Zn	1.486047	-0.446973	-0.298065
Zn4	Zn	1.986047	0.053027	0.201935
Zn5	Zn	1.345976	-0.314775	-0.333649
Zn6	Zn	1.845976	0.185225	0.166351
Zn7	Zn	1.310459	-0.446913	-0.473721
Zn8	Zn	1.810459	0.053087	0.026279
O9	O	1.416041	-0.380850	-0.403689
O10	O	1.916041	0.119150	0.096311
O11	O	1.663975	-0.332288	-0.481305
O12	O	2.163975	0.167712	0.018695
O13	O	1.467417	-0.429477	-0.155754
O14	O	1.967417	0.070523	0.344246
O15	O	1.399062	-0.204129	-0.386744
O16	O	1.899062	0.295871	0.113256
O17	O	1.637793	-0.429441	-0.326096
O18	O	2.137793	0.070559	0.173904
O19	O	1.528154	-0.204101	-0.515810
O20	O	2.028154	0.295899	-0.015810
O21	O	1.364507	-0.332352	-0.181897
O22	O	1.864507	0.167648	0.318103
O23	O	1.194246	-0.332294	-0.352223
O24	O	1.694246	0.167706	0.147777
O25	O	1.338528	-0.429339	-0.625476
O26	O	1.838528	0.070661	-0.125476
O27	O	1.168152	-0.429376	-0.455133
O28	O	1.668152	0.070624	0.044867
O29	O	1.493714	-0.332230	-0.651631
O30	O	1.993714	0.167770	-0.151631
O31	O	1.432977	-0.557606	-0.291576
O32	O	1.932977	-0.057606	0.208424
O33	O	1.303973	-0.557562	-0.420629
O34	O	1.803973	-0.057562	0.079371
C35	C	1.143078	-0.380833	-0.403677
C36	C	1.643078	0.119167	0.096323
C37	C	1.026299	-0.380845	-0.403691
C38	C	1.526299	0.119155	0.096309
C39	C	0.875282	-0.330246	-0.350248
C40	C	1.375282	0.169754	0.149752
C41	C	0.985010	-0.330229	-0.350242
C42	C	1.485010	0.169771	0.149758
C43	C	0.957854	-0.431476	-0.457159
C44	C	1.457854	0.068524	0.042841
C45	C	0.848128	-0.431488	-0.457170
C46	C	1.348128	0.068512	0.042830
C47	C	0.833998	-0.279632	-0.296786
C48	C	1.333998	0.220368	0.203214
C49	C	0.902436	-0.229000	-0.243320
C50	C	1.402436	0.271000	0.256680
C51	C	1.012164	-0.228983	-0.243314
C52	C	1.512164	0.271017	0.256686
C53	C	1.053455	-0.279598	-0.296774
C54	C	1.553455	0.220402	0.203226
C55	C	1.360782	-0.586272	-0.348401
C56	C	1.860782	-0.086272	0.151599
C57	C	1.337238	-0.674153	-0.324783
C58	C	1.837238	-0.174153	0.175217
C59	C	1.595585	-0.962815	-0.583441
C60	C	2.095585	-0.462815	-0.083441
C61	C	1.573429	-1.045392	-0.561231
C62	C	2.073429	-0.545392	-0.061231
C63	C	1.439095	-1.045528	-0.426704
C64	C	1.939095	-0.545528	0.073296
C65	C	1.461244	-0.962949	-0.448900
C66	C	1.961244	-0.462949	0.051100
C67	C	1.539490	-0.921599	-0.527271
C68	C	2.039490	-0.421599	-0.027271
C69	C	1.405148	-0.921734	-0.392729
C70	C	1.905148	-0.421734	0.107271
C71	C	1.427292	-0.839162	-0.414928
C72	C	1.927292	-0.339162	0.085072
C73	C	1.505532	-0.797806	-0.493297
C74	C	2.005532	-0.297806	0.006703
C75	C	1.561633	-0.839027	-0.549469
C76	C	2.061633	-0.339027	-0.049469
C77	C	1.326898	-0.963085	-0.314365
C78	C	1.826898	-0.463085	0.185635
C79	C	1.270802	-0.921870	-0.258194
C80	C	1.770802	-0.421870	0.241806
C81	C	1.292951	-0.839296	-0.280387
C82	C	1.792951	-0.339296	0.219613
C83	C	1.371190	-0.797940	-0.358755
C84	C	1.871190	-0.297940	0.141245
C85	C	1.236849	-0.798075	-0.224214
C86	C	1.736849	-0.298075	0.275786
C87	C	1.258993	-0.715503	-0.246413
C88	C	1.758993	-0.215503	0.253587
C89	C	1.393334	-0.715369	-0.380954
C90	C	1.893334	-0.215369	0.119046
C91	C	1.690070	-0.380867	-0.403703
C92	C	2.190070	0.119133	0.096297
C93	C	1.806845	-0.380874	-0.403708
C94	C	2.306845	0.119126	0.096292
C95	C	1.416134	-0.380774	-0.677743
C96	C	1.916134	0.119226	-0.177743
C97	C	1.416174	-0.380742	-0.794529
C98	C	1.916174	0.119258	-0.294529
C99	C	1.471545	-0.174625	-0.459217
C100	C	1.971545	0.325375	0.040783
C101	C	1.495197	-0.086744	-0.482880
C102	C	1.995197	0.413256	0.017120
C103	C	1.469767	-0.431295	-0.835781
C104	C	1.969767	0.068705	-0.335781
C105	C	1.469808	-0.431262	-0.945514
C106	C	1.969808	0.068738	-0.445514
C107	C	1.362653	-0.330118	-0.972734
C108	C	1.862653	0.169882	-0.472734
C109	C	1.362620	-0.330149	-0.863004
C110	C	1.862620	0.169851	-0.363004
C111	C	1.523322	-0.481888	-0.767305
C112	C	2.023322	0.018112	-0.267305
C113	C	1.576918	-0.532447	-0.808556
C114	C	2.076918	-0.032447	-0.308556
C115	C	1.576959	-0.532413	-0.918289
C116	C	2.076959	-0.032413	-0.418289
C117	C	1.523403	-0.481821	-0.986772
C118	C	2.023403	0.018179	-0.486772
C119	C	1.416025	-0.380868	-0.130717
C120	C	1.916025	0.119132	0.369283
C121	C	1.416248	-0.380678	-0.013992
C122	C	1.916248	0.119322	0.486008
H123	H	0.991482	-0.472685	-0.500683
H124	H	1.491482	0.027315	-0.000683
C125	C	1.681658	-0.917325	-0.669655
C126	C	2.181658	-0.417325	-0.169655
N127	N	1.746481	-0.883062	-0.734591
N128	N	2.246481	-0.383062	-0.234591
C129	C	0.772844	-0.487181	-0.515981
C130	C	1.272844	0.012819	-0.015981
N131	N	0.716139	-0.529129	-0.560281
N132	N	1.216139	-0.029129	-0.060281
H133	H	1.457057	-0.681700	-0.444763
H134	H	1.957057	-0.181700	0.055237
C135	C	1.529891	-0.706974	-0.517714
C136	C	2.029891	-0.206974	-0.017714
N137	N	1.548241	-0.638559	-0.536103
N138	N	2.048241	-0.138559	-0.036103
H139	H	1.142807	-0.279573	-0.296777
H140	H	1.642807	0.220427	0.203223
C141	C	1.302536	-1.053917	-0.289954
C142	C	1.802536	-0.553917	0.210046
N143	N	1.284186	-1.122332	-0.271570
N144	N	1.784186	-0.622332	0.228430
H145	H	1.213312	-0.681945	-0.200673
H146	H	1.713312	-0.181945	0.299327
C147	C	1.303738	-0.274476	-1.048067
C148	C	1.803738	0.225524	-0.548067
N149	N	1.259358	-0.232567	-1.104807
N150	N	1.759358	0.267433	-0.604807
H151	H	1.620529	-0.573632	-0.752792
H152	H	2.120529	-0.073632	-0.252792
H153	H	1.318984	-0.288981	-0.829418
H154	H	1.818984	0.211019	-0.329418
C155	C	1.523296	-0.481921	-0.646598
C156	C	2.023296	0.018079	-0.146598
N157	N	1.523279	-0.481943	-0.555682
N158	N	2.023279	0.018057	-0.055682
C159	C	1.647706	-0.793538	-0.635682
C160	C	2.147706	-0.293538	-0.135682
N161	N	1.712529	-0.759274	-0.700619
N162	N	2.212529	-0.259274	-0.200619
H163	H	1.619100	-1.078947	-0.606992
H164	H	2.119100	-0.578947	-0.106992
H165	H	1.375385	-1.079207	-0.362898
H166	H	1.875385	-0.579207	0.137102
H167	H	1.207092	-0.955548	-0.194387
H168	H	1.707092	-0.455548	0.305613
C169	C	1.150836	-0.843571	-0.137956
C170	C	1.650836	-0.343571	0.362044
N171	N	1.086072	-0.877839	-0.072963
N172	N	1.586072	-0.377839	0.427037
C173	C	1.635919	-0.588026	-0.963662
C174	C	2.135919	-0.088026	-0.463662
N175	N	1.680324	-0.629918	-0.997834
N176	N	2.180324	-0.129918	-0.497834
C177	C	1.087444	-0.173285	-0.184505
C178	C	1.587444	0.326715	0.315495
N179	N	1.144141	-0.131335	-0.140203
N180	N	1.644141	0.368665	0.359797
C181	C	1.523455	-0.481784	-1.107482
C182	C	2.023455	0.018216	-0.607482
N183	N	1.523491	-0.481760	-1.198399
N184	N	2.023491	0.018240	-0.698399
C185	C	0.713296	-0.279643	-0.296791
C186	C	1.213296	0.220357	0.203209
N187	N	0.622384	-0.279653	-0.296795
N188	N	1.122384	0.220347	0.203205
C189	C	0.857014	-0.173323	-0.184522
C190	C	1.357014	0.326677	0.315478
N191	N	0.822804	-0.131386	-0.140235
N192	N	1.322804	0.368614	0.359765
