data_functionalizedCrystal
_audit_creation_method	'MofGen! by Chris Wilmer'
_symmetry_space_group_name_H-M	'P1'
_symmetry_Int_Tables_number	1
_symmetry_cell_setting	triclinic
loop_
_symmetry_equiv_pos_as_xyz
  x,y,z
_cell_length_a	11.792254
_cell_length_b	11.792241
_cell_length_c	11.892095
_cell_angle_alpha	93.915739
_cell_angle_beta	86.074116
_cell_angle_gamma	84.196007
loop_
_atom_site_label
_atom_site_type_symbol
_atom_site_fract_x
_atom_site_fract_y
_atom_site_fract_z
O1	O	1.514113	0.148425	-0.094003
O2	O	1.183774	0.164443	-0.094005
O3	O	1.356959	-0.008736	-0.093996
O4	O	1.340927	0.321604	-0.094012
O5	O	1.342519	0.005681	0.094011
O6	O	1.169334	0.178860	0.094001
O7	O	1.499673	0.162842	0.094004
Zn8	Zn	1.332210	0.173140	0.123853
Zn9	Zn	1.351236	0.154145	-0.123854
O10	O	1.326487	0.336020	0.093995
C11	C	1.134263	0.170642	-0.000002
C12	C	1.008250	0.167622	-0.000003
C13	C	0.905914	0.165168	-0.000008
C14	C	0.777527	0.162099	-0.000008
C15	C	1.348732	-0.043818	0.000007
C16	C	1.345718	-0.169832	0.000006
C17	C	1.340176	-0.400546	-0.000013
C18	C	1.343255	-0.272160	-0.000003
C19	C	1.549183	0.156642	-0.000002
C20	C	1.675197	0.159662	-0.000008
C21	C	1.334715	0.371103	-0.000011
C22	C	1.337729	0.497116	-0.000017
N23	N	1.319234	0.186103	0.292906
N24	N	1.364221	0.141173	-0.292908
C25	C	1.454513	0.050907	0.529561
C26	C	1.445451	0.059976	0.647903
C27	C	1.292044	0.213304	0.647932
C28	C	1.301106	0.204235	0.529591
C29	C	1.382344	0.123035	0.470410
C30	C	1.391411	0.113972	0.352066
C31	C	1.237999	0.267294	0.352098
C32	C	1.228937	0.276363	0.470439
H33	H	1.457562	0.047857	0.303882
Br34	Br	1.564777	-0.059276	0.449241
Br35	Br	1.543393	-0.037922	0.728178
Br36	Br	1.181783	0.323484	0.728261
H37	H	1.162791	0.342472	0.518639
Br38	Br	1.140062	0.365197	0.271811
