data_functionalizedCrystal
_audit_creation_method	'MofGen! by Chris Wilmer'
_symmetry_space_group_name_H-M	'P1'
_symmetry_Int_Tables_number	1
_symmetry_cell_setting	triclinic
loop_
_symmetry_equiv_pos_as_xyz
  x,y,z
_cell_length_a	12.759401
_cell_length_b	12.594516
_cell_length_c	12.759401
_cell_angle_alpha	90.005516
_cell_angle_beta	90.003115
_cell_angle_gamma	90.016214
loop_
_atom_site_label
_atom_site_type_symbol
_atom_site_fract_x
_atom_site_fract_y
_atom_site_fract_z
Zn1	Zn	1.606086	-0.423923	0.593999
Zn2	Zn	1.606023	-0.601869	0.418326
Zn3	Zn	1.430435	-0.423905	0.418338
Zn4	Zn	1.430372	-0.601860	0.593968
O5	O	1.518229	-0.512889	0.506158
O6	O	1.753099	-0.447539	0.570703
O7	O	1.582731	-0.578258	0.271307
O8	O	1.453788	-0.274962	0.441658
O9	O	1.753053	-0.578275	0.441638
O10	O	1.582838	-0.274975	0.570715
O11	O	1.453727	-0.447509	0.271316
O12	O	1.283406	-0.447500	0.441628
O13	O	1.453681	-0.578260	0.740993
O14	O	1.283360	-0.578243	0.570662
O15	O	1.582777	-0.447530	0.741016
O16	O	1.582670	-0.750813	0.441608
O17	O	1.453620	-0.750807	0.570651
C18	C	1.245262	-0.512870	0.506144
C19	C	1.128485	-0.512887	0.506162
C20	C	1.073627	-0.581074	0.573239
C21	C	0.963903	-0.581087	0.573251
C22	C	0.963905	-0.444724	0.439099
C23	C	1.073627	-0.444706	0.439094
C24	C	1.073624	-0.659805	0.650688
C25	C	0.963900	-0.659818	0.650699
C26	C	1.518160	-0.789430	0.506147
C27	C	1.518227	-0.907736	0.506178
C28	C	1.448030	-0.977024	0.576315
C29	C	1.422456	-1.047854	0.480449
C30	C	1.543896	-1.047704	0.602061
C31	C	1.492603	-0.977008	0.410261
C32	C	1.614087	-0.976851	0.531938
C33	C	1.588550	-1.047650	0.436005
C34	C	1.792262	-0.512910	0.506173
C35	C	1.909039	-0.512918	0.506179
C36	C	1.518229	-0.512896	0.780191
C37	C	1.518229	-0.512899	0.896968
C38	C	1.518327	-0.235268	0.506191
C39	C	1.518369	-0.116963	0.506205
C40	C	1.585390	-0.580976	0.951823
C41	C	1.585393	-0.580974	1.061547
C42	C	1.451064	-0.444816	1.061551
C43	C	1.451068	-0.444813	0.951829
C44	C	1.662941	-0.659590	0.951821
C45	C	1.662943	-0.659588	1.061545
C46	C	1.518223	-0.512905	1.233190
C47	C	1.518228	-0.512900	1.116414
H48	H	0.934109	-0.742224	0.628770
C49	C	1.668826	-1.089290	0.355801
N50	N	1.729285	-1.120658	0.295388
H51	H	1.633777	-0.737895	0.917776
H52	H	1.470855	-0.946083	0.329163
H53	H	1.565550	-1.078758	0.683137
H54	H	1.396387	-0.389370	0.907170
C55	C	1.723483	-0.934668	0.561414
N56	N	1.805877	-0.902887	0.583630
H57	H	1.396385	-0.389382	1.106233
H58	H	1.744320	-0.637520	0.922054
H59	H	1.740253	-0.630073	1.095584
H60	H	1.118289	-0.389175	0.384480
C61	C	0.903551	-0.369733	0.365324
N62	N	0.858094	-0.313249	0.309754
C63	C	1.113870	-0.630179	0.760668
N64	N	1.144183	-0.607874	0.843505
C65	C	1.633449	-0.770947	1.101765
N66	N	1.611231	-0.854819	1.132058
H67	H	1.341455	-1.079066	0.458683
C68	C	1.119589	-0.765519	0.611134
N69	N	1.154211	-0.845143	0.581340
H70	H	0.929882	-0.630426	0.728050
H71	H	1.388561	-0.946011	0.635542
