data_functionalizedCrystal
_audit_creation_method	'MofGen! by Chris Wilmer'
_symmetry_space_group_name_H-M	'P1'
_symmetry_Int_Tables_number	1
_symmetry_cell_setting	triclinic
loop_
_symmetry_equiv_pos_as_xyz
  x,y,z
_cell_length_a	10.654554
_cell_length_b	14.044190
_cell_length_c	9.130313
_cell_angle_alpha	89.993628
_cell_angle_beta	89.999583
_cell_angle_gamma	88.839310
loop_
_atom_site_label
_atom_site_type_symbol
_atom_site_fract_x
_atom_site_fract_y
_atom_site_fract_z
O1	O	1.681225	0.133249	-0.121824
O2	O	1.317023	0.145938	-0.121827
O3	O	1.493653	0.001573	-0.121797
O4	O	1.504595	0.277614	-0.121855
O5	O	1.493651	0.001577	0.121802
O6	O	1.317021	0.145942	0.121771
O7	O	1.681223	0.133253	0.121775
Cu8	Cu	1.499122	0.139598	0.144016
Cu9	Cu	1.499124	0.139593	-0.144068
O10	O	1.504593	0.277618	0.121744
C11	C	1.270130	0.145007	-0.000028
C12	C	1.130407	0.142217	-0.000028
C13	C	0.938773	0.051970	-0.000022
C14	C	1.070058	0.054591	-0.000012
C15	C	1.059463	0.227227	-0.000040
C16	C	0.928181	0.224605	-0.000039
C17	C	0.878432	-0.035661	-0.000020
C18	C	0.949366	-0.120672	-0.000006
C19	C	1.080651	-0.118051	0.000004
C20	C	1.141002	-0.030419	0.000000
C21	C	1.488865	-0.033771	0.000007
C22	C	1.474586	-0.139091	0.000019
C23	C	1.549751	-0.388883	-0.000037
C24	C	1.448501	-0.331921	-0.000028
C25	C	1.463018	-0.224621	-0.000002
C26	C	1.535236	-0.496193	-0.000064
C27	C	1.728116	0.134184	-0.000028
C28	C	1.867839	0.136974	-0.000038
C29	C	1.509381	0.312962	-0.000063
C30	C	1.523661	0.418282	-0.000085
N31	N	1.499129	0.139600	0.346638
N32	N	1.499126	0.139583	-0.346691
C33	C	1.577365	0.075697	0.423304
C34	C	1.577361	0.075686	0.576640
C35	C	1.420881	0.203489	0.576633
C36	C	1.420880	0.203495	0.423299
C37	C	1.655614	0.011803	0.346643
C38	C	1.733858	-0.052105	0.423309
C39	C	1.733853	-0.052116	0.576645
C40	C	1.655605	0.011780	0.653317
H41	H	1.108612	0.298573	-0.000045
C42	C	1.819928	-0.122380	0.338977
H43	H	1.808738	-0.113215	0.236676
H44	H	1.799203	-0.185790	0.364101
H45	H	1.904957	-0.111475	0.364116
C46	C	1.158681	-0.211553	0.000026
H47	H	1.245512	-0.197445	0.000041
H48	H	1.139345	-0.247448	-0.084918
H49	H	1.139338	-0.247448	0.084990
C50	C	1.285412	-0.027532	0.000021
H51	H	1.311191	0.036831	0.000021
H52	H	1.317078	-0.058820	-0.084914
H53	H	1.317057	-0.058814	0.084993
H54	H	1.655599	0.011759	0.778174
C55	C	1.819904	-0.122413	0.660981
H56	H	1.808691	-0.113276	0.763281
H57	H	1.904933	-0.111519	0.635854
H58	H	1.799160	-0.185820	0.635849
C59	C	0.850149	0.318107	-0.000074
H60	H	0.904886	0.370672	-0.000100
H61	H	0.798710	0.320676	0.084870
H62	H	0.798721	0.320664	-0.085037
H63	H	1.357172	0.255530	0.360877
H64	H	1.350915	-0.363739	-0.000037
H65	H	0.771533	-0.037805	-0.000032
C66	C	1.681572	-0.345905	-0.000003
H67	H	1.674157	-0.278380	0.000028
H68	H	1.725955	-0.366385	-0.084946
H69	H	1.725922	-0.366419	0.084961
H70	H	1.655628	0.011808	0.221789
C71	C	1.334829	0.273776	0.660968
H72	H	1.346045	0.264626	0.763268
H73	H	1.249799	0.262889	0.635846
H74	H	1.355578	0.337184	0.635831
H75	H	0.900220	-0.192018	-0.000015
