data_functionalizedCrystal
_audit_creation_method	'MofGen! by Chris Wilmer'
_symmetry_space_group_name_H-M	'P1'
_symmetry_Int_Tables_number	1
_symmetry_cell_setting	triclinic
loop_
_symmetry_equiv_pos_as_xyz
  x,y,z
_cell_length_a	33.428889
_cell_length_b	33.428139
_cell_length_c	33.424847
_cell_angle_alpha	60.004234
_cell_angle_beta	60.008465
_cell_angle_gamma	59.994972
loop_
_atom_site_label
_atom_site_type_symbol
_atom_site_fract_x
_atom_site_fract_y
_atom_site_fract_z
O1	O	0.055565	-0.584504	0.488714
O2	O	0.020982	-0.455083	0.393778
O3	O	0.102943	-0.536959	0.393689
O4	O	-0.026396	-0.502628	0.488803
O5	O	0.130140	-0.509767	0.420792
O6	O	0.048179	-0.427891	0.420881
O7	O	0.082762	-0.557312	0.515817
Cu8	Cu	0.067954	-0.490119	0.470823
Cu9	Cu	0.035790	-0.522276	0.438771
O10	O	0.000801	-0.475436	0.515906
N11	N	0.090577	-0.467504	0.493370
N12	N	0.013171	-0.544895	0.416225
C13	C	0.143377	-0.280390	0.546067
C14	C	0.143515	-0.414755	0.680369
C15	C	0.143392	-0.414735	0.546069
C16	C	0.277766	-0.414702	0.545966
C17	C	0.158177	-0.324719	0.560828
C18	C	0.158255	-0.399967	0.636038
C19	C	0.233434	-0.399936	0.560773
C20	C	0.158186	-0.399955	0.560829
C21	C	0.124540	-0.223964	0.527278
C22	C	0.124565	-0.433545	0.527281
C23	C	0.177014	-0.381145	0.579617
C24	C	0.359814	-0.400540	0.502735
C25	C	0.411105	-0.417624	0.485606
C26	C	0.411136	-0.500620	0.517255
C27	C	0.359845	-0.483534	0.534385
C28	C	0.136887	-0.198305	0.476855
C29	C	0.119761	-0.147011	0.459777
C30	C	0.077945	-0.147038	0.543547
C31	C	0.095072	-0.198332	0.560625
C32	C	0.074134	-0.421169	0.539710
C33	C	0.057023	-0.438269	0.522625
C34	C	0.140770	-0.480120	0.480694
C35	C	0.157883	-0.463020	0.497773
C36	C	0.074339	-0.421208	0.762475
C37	C	0.057288	-0.438323	0.813768
C38	C	0.141075	-0.480183	0.813699
C39	C	0.158125	-0.463069	0.762404
C40	C	0.124756	-0.433580	0.736794
C41	C	0.334186	-0.433494	0.527123
C42	C	-0.173769	-0.597444	0.363037
C43	C	-0.039302	-0.597595	0.228856
C44	C	-0.039496	-0.597587	0.363300
C45	C	-0.039512	-0.731889	0.363237
C46	C	-0.129442	-0.612265	0.348329
C47	C	-0.054138	-0.612351	0.273187
C48	C	-0.054257	-0.687554	0.348440
C49	C	-0.054247	-0.612346	0.348477
C50	C	-0.230191	-0.578579	0.381758
C51	C	-0.020722	-0.578803	0.382168
C52	C	-0.073020	-0.631130	0.329609
C53	C	-0.053713	-0.813916	0.406386
C54	C	-0.036654	-0.865210	0.423504
C55	C	0.046338	-0.865293	0.391984
C56	C	0.029278	-0.813999	0.374865
C57	C	-0.255900	-0.590938	0.432169
C58	C	-0.307191	-0.573786	0.449185
C59	C	-0.307060	-0.531922	0.365377
C60	C	-0.255769	-0.549074	0.348360
C61	C	-0.033081	-0.528377	0.369764
C62	C	-0.016014	-0.511306	0.386922
C63	C	0.025770	-0.595083	0.428877
C64	C	0.008703	-0.612156	0.411725
C65	C	-0.032755	-0.528393	0.146761
C66	C	-0.015585	-0.511324	0.095468
C67	C	0.026262	-0.595106	0.095516
C68	C	0.009094	-0.612174	0.146811
C69	C	-0.020417	-0.578816	0.172432
C70	C	-0.020748	-0.788312	0.382068
N71	N	0.436037	-0.467415	0.493101
O72	O	0.592642	-0.471896	0.376066
O73	O	0.592838	-0.567146	0.505347
O74	O	0.592754	-0.566928	0.423360
O75	O	0.592727	-0.472113	0.458053
O76	O	0.511269	-0.539835	0.450606
O77	O	0.511353	-0.540052	0.532594
O78	O	0.511157	-0.444802	0.403312
Cu79	Cu	0.503815	-0.489954	0.470441
Cu80	Cu	0.600180	-0.521995	0.438219
O81	O	0.511242	-0.445020	0.485300
N82	N	0.667959	-0.544533	0.415554
N83	N	0.090544	-0.122107	0.493359
O84	O	-0.026406	0.034587	0.488773
O85	O	0.102877	0.034627	0.393499
O86	O	0.020848	0.034591	0.393771
O87	O	0.055623	0.034623	0.488500
O88	O	0.048051	-0.046899	0.420925
O89	O	0.130080	-0.046864	0.420653
O90	O	0.000796	-0.046903	0.515927
Cu91	Cu	0.067922	-0.054324	0.470769
Cu92	Cu	0.035752	0.042048	0.438656
O93	O	0.082825	-0.046867	0.515655
N94	N	0.013123	0.109830	0.416068
N95	N	0.090892	-0.467554	0.838649
O96	O	0.086330	-0.584488	0.995334
O97	O	-0.008902	-0.455160	0.995379
O98	O	-0.008679	-0.537172	0.995355
O99	O	0.086107	-0.502475	0.995358
O100	O	0.018452	-0.509990	0.913868
O101	O	0.018230	-0.427978	0.913891
O102	O	0.113461	-0.557306	0.913847
Cu103	Cu	0.068323	-0.490160	0.906429
Cu104	Cu	0.036237	-0.522306	1.002797
O105	O	0.113239	-0.475293	0.913870
N106	N	0.013667	-0.544916	1.070577
C107	C	0.031339	-0.425179	0.394250
C108	C	0.132837	-0.526572	0.394139
C109	C	0.072405	-0.587216	0.515344
C110	C	-0.029093	-0.485823	0.515455
C111	C	0.552119	-0.566716	0.535258
C112	C	0.552016	-0.566447	0.433726
C113	C	0.551873	-0.445232	0.373402
C114	C	0.551980	-0.445502	0.474933
C115	C	0.132731	-0.006013	0.393923
C116	C	0.031182	-0.006158	0.394293
C117	C	-0.029092	-0.006163	0.515469
C118	C	0.072491	-0.006119	0.515133
C119	C	-0.008451	-0.425276	0.954641
C120	C	-0.008170	-0.526833	0.954596
C121	C	0.113010	-0.587190	0.954585
C122	C	0.112735	-0.485627	0.954611
H123	H	0.016234	-0.428240	0.834672
H124	H	0.168250	-0.504186	0.834549
H125	H	-0.038348	-0.388133	0.954654
H126	H	0.023949	-0.388000	0.364433
C127	C	0.183022	-0.536453	0.353789
N128	N	0.220822	-0.543896	0.323398
H129	H	0.552170	-0.596617	0.572390
C130	C	-0.048382	-0.536845	0.954548
N131	N	-0.078670	-0.544386	0.954510
H132	H	0.551811	-0.415327	0.336274
H133	H	0.169783	-0.005775	0.363939
H134	H	0.023733	-0.006162	0.364531
C135	C	-0.079260	-0.006149	0.555867
N136	N	-0.117050	-0.006128	0.586290
H137	H	0.142910	-0.624330	0.954565
H138	H	0.552029	-0.596233	0.426301
H139	H	0.142514	-0.478200	0.954606
H140	H	0.047163	-0.397193	0.741627
H141	H	0.199181	-0.473148	0.741498
H142	H	0.551974	-0.415718	0.482355
C143	C	0.082552	-0.006111	0.555341
N144	N	0.090131	-0.006104	0.585626
C145	C	0.082387	-0.637442	0.555628
N146	N	0.089905	-0.675273	0.585969
H147	H	-0.066242	-0.478508	0.545321
H148	H	0.015959	-0.428182	0.532734
C149	C	0.037481	-0.388739	0.572160
N150	N	0.009873	-0.364309	0.596600
H151	H	0.198948	-0.473094	0.487648
C152	C	0.177426	-0.512547	0.448237
N153	N	0.205034	-0.536970	0.423789
H154	H	0.432025	-0.541365	0.523165
C155	C	0.439298	-0.381372	0.458774
N156	N	0.460533	-0.354066	0.438561
C157	C	0.331589	-0.345492	0.494747
N158	N	0.310333	-0.304030	0.488729
C159	C	0.331659	-0.519790	0.561214
N160	N	0.310429	-0.547100	0.581420
H161	H	0.053957	-0.126168	0.570702
C162	C	0.133340	-0.118783	0.404307
N163	N	0.143569	-0.097524	0.362527
C164	C	0.081490	-0.226554	0.616094
N165	N	0.071260	-0.247811	0.657874
C166	C	-0.029171	-0.455854	0.067237
N167	N	-0.039403	-0.414073	0.045973
C168	C	0.169302	-0.226497	0.440169
N169	N	0.193717	-0.247732	0.412537
H170	H	-0.056788	-0.501226	0.167618
H171	H	0.019144	-0.653235	0.167709
C172	C	0.058715	-0.631803	0.067335
N173	N	0.083161	-0.659444	0.046109
H174	H	-0.057039	-0.501216	0.345698
H175	H	0.049734	-0.622248	0.452940
C176	C	0.022299	-0.667628	0.425368
N177	N	0.032542	-0.709409	0.435644
C178	C	0.065543	-0.785840	0.348127
N179	N	0.092860	-0.764630	0.327993
C180	C	0.101368	-0.893547	0.384062
N181	N	0.142818	-0.914830	0.378095
C182	C	-0.029606	-0.455835	0.373276
N183	N	-0.039842	-0.414055	0.362997
H184	H	-0.094449	-0.793002	0.412253
C185	C	-0.227767	-0.623391	0.468909
N186	N	-0.206575	-0.647834	0.496582
C187	C	-0.072919	-0.893376	0.450261
N188	N	-0.100234	-0.914592	0.470420
H189	H	-0.328125	-0.583847	0.490235
H190	H	-0.234840	-0.539009	0.307312
C191	C	-0.335197	-0.499470	0.328637
N192	N	-0.356388	-0.475025	0.300964
