data_functionalizedCrystal
_audit_creation_method	'MofGen! by Chris Wilmer'
_symmetry_space_group_name_H-M	'P1'
_symmetry_Int_Tables_number	1
_symmetry_cell_setting	triclinic
loop_
_symmetry_equiv_pos_as_xyz
  x,y,z
_cell_length_a	14.628931
_cell_length_b	20.875492
_cell_length_c	20.875641
_cell_angle_alpha	60.662107
_cell_angle_beta	90.001288
_cell_angle_gamma	58.317473
loop_
_atom_site_label
_atom_site_type_symbol
_atom_site_fract_x
_atom_site_fract_y
_atom_site_fract_z
Zr1	Zr	0.832656	0.731507	-0.117949
O2	O	0.682366	0.864503	-0.223426
O3	O	0.885686	0.593227	-0.080715
O4	O	0.883107	0.723888	-0.216362
O5	O	0.679064	0.741695	0.013649
O6	O	1.033539	0.723888	-0.216363
O7	O	0.684945	0.733842	-0.087779
O8	O	1.038153	0.490160	0.026285
O9	O	0.674450	0.975423	-0.228999
O10	O	1.012161	0.652060	-0.070754
O11	O	0.895506	0.657920	0.004941
O12	O	0.892470	0.811757	-0.154766
O13	O	0.775815	0.817617	-0.079071
Zr14	Zr	1.063197	0.744030	0.043818
Zr15	Zr	1.072577	0.731507	-0.117949
Zr16	Zr	0.823275	0.744030	0.043818
Zr17	Zr	0.820031	0.908411	-0.126836
Zr18	Zr	1.075822	0.567126	0.052705
O19	O	1.010166	0.882310	0.006584
O20	O	1.023504	0.864503	-0.223427
O21	O	0.669029	0.882310	0.006585
O22	O	1.213486	0.611034	0.149296
O23	O	1.226824	0.593227	-0.080716
O24	O	0.872349	0.611034	0.149296
O25	O	1.216789	0.733842	-0.087780
O26	O	1.012745	0.751649	0.142232
O27	O	0.862313	0.751649	0.142232
O28	O	1.210907	0.741695	0.013648
O29	O	0.865156	0.975423	-0.228999
O30	O	1.030697	0.500114	0.154868
O31	O	1.221402	0.500114	0.154868
O32	O	1.228858	0.490160	0.026285
O33	O	0.666994	0.985377	-0.100416
O34	O	0.857700	0.985377	-0.100416
O35	O	1.003383	0.663780	0.080635
O36	O	1.120038	0.657920	0.004940
O37	O	1.000346	0.817617	-0.079072
O38	O	0.883691	0.823477	-0.003376
C39	C	0.963718	0.516488	-0.025949
C40	C	0.969078	0.441388	-0.022176
C41	C	0.887597	0.462907	-0.079364
C42	C	0.892637	0.392353	-0.075846
C43	C	0.979154	0.300281	-0.015136
C44	C	1.060643	0.278763	0.042055
C45	C	1.055607	0.349316	0.038533
C46	C	1.003228	0.083184	0.001714
C47	C	1.008256	0.012630	0.005233
C48	C	0.840250	0.126226	-0.112669
C49	C	0.835217	0.196775	-0.116183
C50	C	0.916710	0.175250	-0.058994
N51	N	0.984306	0.228163	-0.011538
N52	N	0.911562	0.247368	-0.062596
C53	C	0.647821	0.737769	-0.037065
C54	C	0.545968	0.737769	-0.037065
C55	C	0.503638	0.733657	-0.090168
C56	C	0.398368	0.733657	-0.090169
C57	C	1.248031	0.737769	-0.037066
C58	C	1.349884	0.737769	-0.037066
C59	C	0.959660	0.722104	-0.239411
C60	C	0.963642	0.716787	-0.308085
C61	C	0.932134	0.959049	-0.048182
C62	C	0.926774	1.034149	-0.051955
C63	C	0.903037	0.797647	-0.384202
C64	C	0.906794	0.792646	-0.448725
C65	C	0.971149	0.706784	-0.437131
C66	C	1.031761	0.625918	-0.361007
C67	C	1.028011	0.630920	-0.296484
C68	C	0.989072	0.682886	-0.625399
C69	C	0.992815	0.677890	-0.689929
C70	C	0.867849	0.844619	-0.777644
C71	C	0.864099	0.849613	-0.713116
C72	C	0.924715	0.768747	-0.636998
N73	N	0.974987	0.701670	-0.503084
N74	N	0.920883	0.773862	-0.571047
C75	C	0.936193	0.753434	0.165280
C76	C	0.932211	0.758750	0.233954
C77	C	1.263824	0.516488	-0.025949
C78	C	1.371036	0.441388	-0.022176
C79	C	0.951985	0.532153	0.176397
C80	C	0.953362	0.462369	0.248844
C81	C	1.252090	0.532153	0.176396
C82	C	1.355321	0.462369	0.248843
C83	C	0.643762	0.943384	-0.250527
C84	C	0.540532	1.013168	-0.322974
C85	C	0.632029	0.959049	-0.048182
C86	C	0.524816	1.034149	-0.051954
C87	C	0.943868	0.943384	-0.250528
C88	C	0.942490	1.013168	-0.322975
C89	C	1.365075	0.403060	-0.059923
C90	C	1.465803	0.332504	-0.056394
C91	C	1.572493	0.300272	-0.015113
C92	C	1.578452	0.338607	0.022635
C93	C	1.477724	0.409166	0.019101
C94	C	1.010319	0.432658	0.322384
C95	C	1.011608	0.367099	0.390462
C96	C	0.955946	0.331248	0.384997
C97	C	0.898982	0.360966	0.311449
C98	C	0.897687	0.426529	0.243373
C99	C	1.464701	0.426539	0.243353
C100	C	1.561706	0.360979	0.311418
C101	C	1.549328	0.331246	0.384973
C102	C	1.439935	0.367083	0.390461
C103	C	1.342933	0.432646	0.322397
C104	C	0.431150	1.049006	-0.317484
C105	C	0.334144	1.114588	-0.385550
C106	C	0.346522	1.144326	-0.459105
C107	C	0.455915	1.108484	-0.464593
C108	C	0.552918	1.042908	-0.396528
C109	C	0.530778	1.072484	-0.014215
C110	C	0.430049	1.143058	-0.017763
C111	C	0.323359	1.175292	-0.059046
C112	C	0.317400	1.136955	-0.096791
C113	C	0.418128	1.066386	-0.093247
C114	C	0.998163	1.048998	-0.317485
C115	C	0.996891	1.114559	-0.385550
C116	C	0.939938	1.144292	-0.459104
C117	C	0.884264	1.108455	-0.464592
C118	C	0.885544	1.042891	-0.396528
H119	H	0.773904	0.143740	-0.159230
C120	C	0.239815	1.216454	-0.533972
H121	H	0.262845	1.229039	-0.578569
H122	H	0.198174	1.193321	-0.532806
H123	H	0.192602	1.271508	-0.536732
C124	C	0.469516	1.141194	-0.545505
H125	H	0.396074	1.185372	-0.585250
H126	H	0.507644	1.168285	-0.552563
H127	H	0.513208	1.090096	-0.548625
C128	C	0.399056	0.742529	0.024355
H129	H	0.354976	0.745116	0.057667
H130	H	0.476231	0.689381	0.054702
H131	H	0.396278	0.796045	-0.001416
C132	C	0.648122	1.037038	0.031201
H133	H	0.637230	1.069990	0.053160
H134	H	0.690477	0.973314	0.071942
H135	H	0.689045	1.045965	-0.003489
H136	H	0.811697	0.919531	-0.722566
C137	C	0.832251	0.892096	-0.396962
H138	H	0.796707	0.939536	-0.451537
H139	H	0.775170	0.897520	-0.373618
H140	H	0.881223	0.897507	-0.373614
H141	H	0.957010	0.277863	0.440435
C142	C	0.840123	0.881592	-0.532451
H143	H	0.801247	0.933444	-0.530115
H144	H	0.892003	0.883113	-0.559446
H145	H	0.785967	0.883102	-0.559444
H146	H	1.057999	0.342910	0.450341
H147	H	1.042226	1.143731	-0.381066
C148	C	0.801188	0.933563	-0.861371
H149	H	0.812644	0.918290	-0.898139
H150	H	0.721883	0.968638	-0.868821
H151	H	0.827933	0.968629	-0.868811
C152	C	0.559956	0.728896	-0.151585
H153	H	0.519753	0.726308	-0.184898
H154	H	0.557464	0.782043	-0.181932
H155	H	0.637397	0.675380	-0.125812
H156	H	1.044541	1.024800	-0.257599
H157	H	1.278212	0.429302	-0.093548
C158	C	1.682023	0.321561	0.305367
H159	H	1.675495	0.348650	0.251812
H160	H	1.719614	0.334951	0.328303
H161	H	1.725183	0.256758	0.332244
C162	C	1.459234	0.290338	-0.097910
H163	H	1.534498	0.243705	-0.089904
H164	H	1.420307	0.264320	-0.077005
H165	H	1.418855	0.336981	-0.152440
H166	H	1.429874	0.342864	0.450358
H167	H	0.851310	0.450711	0.183496
C168	C	1.102534	0.531470	-0.348248
H169	H	1.138093	0.484029	-0.293672
H170	H	1.053561	0.526064	-0.371596
H171	H	1.159622	0.526042	-0.371592
C172	C	1.094667	0.541977	-0.212755
H173	H	1.083224	0.557252	-0.175988
H174	H	1.067935	0.506905	-0.205309
H175	H	1.173978	0.506906	-0.205307
H176	H	0.504278	0.741283	0.008401
C177	C	0.349188	0.728894	-0.151585
H178	H	0.284894	0.729510	-0.143524
H179	H	0.326193	0.780440	-0.202616
H180	H	0.406141	0.673777	-0.146493
H181	H	1.045221	0.607968	-0.680480
H182	H	0.938905	1.197680	-0.514521
H183	H	1.474802	0.450738	0.183468
C184	C	0.213825	1.154000	-0.379503
H185	H	0.157817	1.197323	-0.430572
H186	H	0.207498	1.105414	-0.350151
H187	H	0.201927	1.183594	-0.354065
H188	H	1.654503	0.242817	-0.012240
H189	H	0.641980	1.013728	-0.401007
C190	C	1.055736	0.593937	-0.541679
H191	H	1.094587	0.542088	-0.544018
H192	H	1.109893	0.592416	-0.514680
H193	H	1.003843	0.592424	-0.514689
C194	C	0.200042	1.172410	-0.142194
H195	H	0.210905	1.139480	-0.164170
H196	H	0.159132	1.163486	-0.107499
H197	H	0.157689	1.236139	-0.182934
C198	C	0.212565	1.252913	-0.062938
H199	H	0.148165	1.266629	-0.092933
H200	H	0.211304	1.233676	-0.011432
H201	H	0.209870	1.306329	-0.086862
C202	C	0.417511	1.016318	-0.236584
H203	H	0.338468	1.047071	-0.243074
H204	H	0.455597	0.951775	-0.206416
H205	H	0.450034	1.029966	-0.210357
H206	H	0.817133	0.537874	-0.128793
C207	C	1.656038	0.259119	0.459837
H208	H	1.722951	0.242036	0.446026
H209	H	1.652717	0.284497	0.487873
H210	H	1.658290	0.206314	0.491792
C211	C	1.695813	0.303137	0.068048
H212	H	1.754941	0.255618	0.064751
H213	H	1.701748	0.352271	0.046004
H214	H	1.703164	0.279617	0.121421
H215	H	0.826286	0.409883	-0.122414
H216	H	1.482594	0.440364	0.049844
C217	C	1.071534	0.472094	0.328410
H218	H	1.105621	0.445012	0.381963
H219	H	1.129187	0.458712	0.305468
H220	H	1.017542	0.536896	0.301531
H221	H	0.853664	0.331766	0.307011
C222	C	1.222618	0.472049	0.328442
H223	H	1.166610	0.515360	0.277374
H224	H	1.216304	0.423456	0.357804
H225	H	1.210708	0.501655	0.353870
C226	C	0.821610	1.141176	-0.545505
H227	H	0.828816	1.185364	-0.585250
H228	H	0.854475	1.090094	-0.548637
H229	H	0.742867	1.168282	-0.552551
C230	C	1.103425	-0.088650	0.072019
H231	H	1.151242	-0.091366	0.105572
H232	H	1.069919	-0.116580	0.101120
H233	H	1.147836	-0.120484	0.050562
H234	H	0.434923	1.174261	0.012977
C235	C	0.411563	1.024213	-0.134753
H236	H	0.486826	0.977569	-0.126737
H237	H	0.372622	0.998207	-0.113852
H238	H	0.371197	1.070851	-0.189284
C239	C	0.824278	1.003497	-0.402573
H240	H	0.833192	0.960188	-0.351506
H241	H	0.745126	1.052095	-0.431935
H242	H	0.856737	0.973890	-0.428002
H243	H	1.069585	0.065646	0.048281
C244	C	0.740058	0.298049	-0.182969
H245	H	0.692258	0.300760	-0.216530
H246	H	0.695644	0.329886	-0.161521
H247	H	0.773570	0.325977	-0.212071
H248	H	1.121958	0.331788	0.085102
C249	C	1.155809	0.177487	0.108835
H250	H	1.147133	0.138549	0.102748
H251	H	1.228454	0.163763	0.107204
H252	H	1.150533	0.167666	0.157758
