data_functionalizedCrystal
_audit_creation_method	'MofGen! by Chris Wilmer'
_symmetry_space_group_name_H-M	'P1'
_symmetry_Int_Tables_number	1
_symmetry_cell_setting	triclinic
loop_
_symmetry_equiv_pos_as_xyz
  x,y,z
_cell_length_a	18.050591
_cell_length_b	29.839131
_cell_length_c	29.839135
_cell_angle_alpha	90.015469
_cell_angle_beta	90.019832
_cell_angle_gamma	90.037426
loop_
_atom_site_label
_atom_site_type_symbol
_atom_site_fract_x
_atom_site_fract_y
_atom_site_fract_z
Zn1	Zn	1.135216	-0.178974	0.254080
Zn2	Zn	1.135101	-0.254083	0.178950
Zn3	Zn	1.011038	-0.178963	0.178955
Zn4	Zn	1.010955	-0.254073	0.254044
O5	O	1.073077	-0.216523	0.216507
O6	O	1.239126	-0.188947	0.244128
O7	O	1.118630	-0.244118	0.116084
O8	O	1.027594	-0.116097	0.188938
O9	O	1.239041	-0.244129	0.188930
O10	O	1.118827	-0.116105	0.244132
O11	O	1.027482	-0.188927	0.116087
O12	O	0.907102	-0.188917	0.188902
O13	O	1.027452	-0.244111	0.316916
O14	O	0.907041	-0.244100	0.244069
O15	O	1.118746	-0.188936	0.316943
O16	O	1.118549	-0.316949	0.188894
O17	O	1.027340	-0.316941	0.244065
C18	C	0.880125	-0.216506	0.216482
C19	C	0.797580	-0.216510	0.216483
C20	C	0.598141	-0.186467	0.186552
C21	C	0.548706	-0.227440	0.175494
C22	C	0.646449	-0.216524	0.216503
C23	C	0.548802	-0.175564	0.227559
C24	C	0.500464	-0.216533	0.216522
C25	C	0.598101	-0.257519	0.205424
C26	C	0.598203	-0.205615	0.257508
C27	C	0.548790	-0.246617	0.246466
C28	C	0.730548	-0.216518	0.216491
C29	C	0.416368	-0.216544	0.216534
C30	C	1.072943	-0.333246	0.216485
C31	C	1.072954	-0.383180	0.216491
C32	C	1.120657	-0.692815	0.187822
C33	C	1.120748	-0.880488	0.187839
O34	O	1.161200	-0.904746	0.163447
N35	N	1.073231	-0.903965	0.216541
C36	C	1.025692	-0.880521	0.245243
O37	O	0.985283	-0.904796	0.269659
C38	C	1.025604	-0.692849	0.245227
C39	C	1.073119	-0.669374	0.216520
C40	C	1.168168	-0.669340	0.159118
C41	C	1.168142	-0.622425	0.159112
C42	C	1.120604	-0.598984	0.187810
C43	C	1.073093	-0.622459	0.216515
C44	C	0.978069	-0.669406	0.273931
C45	C	0.978053	-0.622485	0.273925
C46	C	1.025567	-0.599010	0.245218
C47	C	1.025529	-0.552103	0.245207
N48	N	1.073046	-0.528626	0.216505
C49	C	1.120583	-0.552066	0.187807
C50	C	1.025740	-0.979052	0.245248
C51	C	1.025761	-1.025970	0.245252
C52	C	1.120818	-1.025933	0.187849
C53	C	1.120793	-0.979015	0.187843
C54	C	1.073257	-0.955575	0.216546
C55	C	1.120524	-0.453540	0.187797
C56	C	1.120491	-0.406621	0.187792
C57	C	1.025437	-0.406661	0.245197
C58	C	1.025467	-0.453577	0.245200
C59	C	1.073016	-0.477015	0.216498
O60	O	0.985104	-0.527816	0.269590
O61	O	1.160997	-0.527783	0.163401
C62	C	1.120683	-0.739730	0.187828
C63	C	1.073172	-0.763205	0.216532
C64	C	1.025634	-0.739765	0.245230
C65	C	1.073192	-0.810123	0.216535
C66	C	1.120730	-0.833564	0.187837
C67	C	1.168247	-0.810087	0.159135
C68	C	1.168220	-0.763171	0.159129
C69	C	0.978117	-0.763242	0.273932
C70	C	0.978147	-0.810157	0.273935
C71	C	1.025684	-0.833598	0.245237
C72	C	1.266783	-0.216540	0.216533
C73	C	1.349329	-0.216548	0.216543
C74	C	1.073103	-0.216524	0.333686
C75	C	1.073114	-0.216524	0.383620
C76	C	1.073232	-0.099345	0.216540
C77	C	1.073298	-0.049410	0.216553
C78	C	1.025613	-0.187788	0.693268
C79	C	1.025601	-0.187785	0.880941
O80	O	0.985219	-0.163362	0.905210
N81	N	1.073057	-0.216519	0.904405
C82	C	1.120517	-0.245257	0.880948
O83	O	1.160875	-0.269699	0.905212
C84	C	1.120524	-0.245261	0.693276
C85	C	1.073070	-0.216523	0.669814
C86	C	0.978162	-0.159053	0.669806
C87	C	0.978169	-0.159052	0.622891
C88	C	1.025626	-0.187787	0.599437
C89	C	1.073076	-0.216522	0.622899
C90	C	1.167979	-0.274001	0.669820
C91	C	1.167975	-0.274001	0.622899
C92	C	1.120521	-0.245262	0.599437
C93	C	1.120540	-0.245256	0.552530
N94	N	1.073084	-0.216523	0.529066
C95	C	1.025627	-0.187788	0.552519
C96	C	1.120510	-0.245252	0.979479
C97	C	1.120509	-0.245250	1.026397
C98	C	1.025593	-0.187779	1.026386
C99	C	1.025598	-0.187779	0.979468
C100	C	1.073054	-0.216518	0.956015
C101	C	1.025644	-0.187789	0.453993
C102	C	1.025657	-0.187789	0.407074
C103	C	1.120570	-0.245261	0.407088
C104	C	1.120560	-0.245259	0.454004
C105	C	1.073091	-0.216522	0.477455
O106	O	1.160895	-0.269671	0.528232
O107	O	0.985262	-0.163356	0.528247
C108	C	1.025607	-0.187789	0.740184
C109	C	1.073057	-0.216525	0.763645
C110	C	1.120515	-0.245259	0.740191
C111	C	1.073057	-0.216523	0.810563
C112	C	1.025600	-0.187788	0.834017
C113	C	0.978143	-0.159055	0.810553
C114	C	0.978150	-0.159054	0.763637
C115	C	1.167971	-0.273992	0.763655
C116	C	1.167961	-0.273991	0.810571
C117	C	1.120504	-0.245256	0.834025
C118	C	1.073051	-0.216528	1.099785
C119	C	1.073052	-0.216515	1.049850
H120	H	1.159183	-0.387509	0.164414
Br121	Br	0.961226	-0.148784	0.485813
H122	H	1.206834	-0.603314	0.135738
Br123	Br	0.913745	-0.120050	0.731804
H124	H	0.987014	-0.164385	0.387974
H125	H	1.159526	-1.045027	0.164481
Br126	Br	0.961194	-0.148776	0.947632
Br127	Br	0.634258	-0.144146	0.144293
H128	H	0.619961	-0.196369	0.292168
Br129	Br	1.185056	-0.485342	0.148844
H130	H	0.986779	-0.472691	0.268577
Br131	Br	0.961187	-0.148782	1.058225
H132	H	0.939374	-0.688511	0.297305
Br133	Br	0.913760	-0.120050	0.591057
H134	H	0.526965	-0.236674	0.140824
H135	H	1.206614	-0.297394	0.744564
H136	H	0.986730	-0.387569	0.268561
Br137	Br	0.913538	-0.590676	0.312883
H138	H	1.206911	-0.744061	0.135754
H139	H	0.527258	-0.272068	0.271803
H140	H	1.159484	-0.959904	0.164468
Br141	Br	0.913654	-0.842010	0.312897
H142	H	1.206951	-0.829180	0.135766
H143	H	0.939407	-0.744160	0.297303
Br144	Br	0.512699	-0.117826	0.243132
Br145	Br	1.184925	-0.284246	1.058231
H146	H	1.206883	-0.688421	0.135748
H147	H	1.206625	-0.297401	0.603806
Br148	Br	0.634039	-0.315277	0.189783
Br149	Br	1.232373	-0.312995	0.842406
H150	H	1.159210	-0.268655	0.473107
Br151	Br	1.184924	-0.284257	0.947656
Br152	Br	1.232380	-0.313009	0.701648
Br153	Br	0.961263	-1.057823	0.284206
Br154	Br	1.184978	-0.284253	0.375249
Br155	Br	0.913742	-0.120056	0.842392
H156	H	0.987028	-0.959970	0.268622
H157	H	0.939513	-0.135653	0.688898
