data_functionalizedCrystal
_audit_creation_method	'MofGen! by Chris Wilmer'
_symmetry_space_group_name_H-M	'P1'
_symmetry_Int_Tables_number	1
_symmetry_cell_setting	triclinic
loop_
_symmetry_equiv_pos_as_xyz
  x,y,z
_cell_length_a	19.805407
_cell_length_b	12.759399
_cell_length_c	19.805399
_cell_angle_alpha	89.976347
_cell_angle_beta	89.982197
_cell_angle_gamma	90.012432
loop_
_atom_site_label
_atom_site_type_symbol
_atom_site_fract_x
_atom_site_fract_y
_atom_site_fract_z
Zn1	Zn	1.034789	-0.418366	-0.382706
Zn2	Zn	1.534789	0.081634	0.117294
Zn3	Zn	1.034726	-0.594059	-0.269526
Zn4	Zn	1.534726	-0.094059	0.230474
Zn5	Zn	0.921603	-0.418387	-0.269534
Zn6	Zn	1.421603	0.081613	0.230466
Zn7	Zn	0.921589	-0.593995	-0.382676
Zn8	Zn	1.421589	-0.093995	0.117324
O9	O	0.978177	-0.506202	-0.326110
O10	O	1.478177	-0.006202	0.173890
O11	O	1.129497	-0.441690	-0.367702
O12	O	1.629497	0.058310	0.132298
O13	O	1.019700	-0.570791	-0.174810
O14	O	1.519700	-0.070791	0.325190
O15	O	0.936650	-0.271363	-0.284563
O16	O	1.436650	0.228637	0.215437
O17	O	1.129451	-0.570771	-0.284548
O18	O	1.629451	-0.070771	0.215452
O19	O	1.019807	-0.271348	-0.367710
O20	O	1.519807	0.228652	0.132290
O21	O	0.936589	-0.441725	-0.174816
O22	O	1.436589	0.058275	0.325184
O23	O	0.826885	-0.441663	-0.284534
O24	O	1.326885	0.058337	0.215466
O25	O	0.936626	-0.570662	-0.477397
O26	O	1.436626	-0.070662	0.022603
O27	O	0.826875	-0.570682	-0.367658
O28	O	1.326875	-0.070682	0.132342
O29	O	1.019793	-0.441628	-0.477419
O30	O	1.519793	0.058372	0.022581
O31	O	1.019686	-0.741072	-0.284519
O32	O	1.519686	-0.241072	0.215481
O33	O	0.936565	-0.741025	-0.367650
O34	O	1.436565	-0.241025	0.132350
C35	C	0.802321	-0.506169	-0.326094
C36	C	1.302321	-0.006169	0.173906
C37	C	0.727089	-0.506180	-0.326103
C38	C	1.227089	-0.006180	0.173897
C39	C	0.978135	-0.779169	-0.326095
C40	C	1.478135	-0.279169	0.173905
C41	C	0.978180	-0.895946	-0.326111
C42	C	1.478180	-0.395946	0.173889
C43	C	0.691769	-0.439086	-0.369467
C44	C	1.191769	0.060914	0.130533
C45	C	0.621081	-0.439092	-0.369469
C46	C	1.121081	0.060908	0.130531
C47	C	0.585713	-0.506197	-0.326111
C48	C	1.085713	-0.006197	0.173889
C49	C	0.621038	-0.573294	-0.282743
C50	C	1.121038	-0.073294	0.217257
C51	C	0.691725	-0.573282	-0.282737
C52	C	1.191725	-0.073282	0.217263
C53	C	0.335964	-0.573341	-0.282763
C54	C	0.835964	-0.073341	0.217237
C55	C	0.265272	-0.573350	-0.282774
C56	C	0.765272	-0.073350	0.217226
C57	C	0.265321	-0.439151	-0.369496
C58	C	0.765321	0.060849	0.130504
C59	C	0.336008	-0.439139	-0.369490
C60	C	0.836008	0.060861	0.130510
C61	C	0.371326	-0.506231	-0.326119
C62	C	0.871326	-0.006231	0.173881
C63	C	0.447974	-0.506223	-0.326116
C64	C	0.947974	-0.006223	0.173884
C65	C	0.509066	-0.506211	-0.326117
C66	C	1.009066	-0.006211	0.173883
C67	C	1.021510	-0.950797	-0.282874
C68	C	1.521510	-0.450797	0.217126
C69	C	1.021553	-1.060521	-0.282897
C70	C	1.521553	-0.560521	0.217103
C71	C	0.934930	-1.060533	-0.369396
C72	C	1.434930	-0.560533	0.130604
C73	C	0.934891	-0.950811	-0.369376
C74	C	1.434891	-0.450811	0.130624
C75	C	1.101446	-1.210401	-0.258812
C76	C	1.601446	-0.710401	0.241188
C77	C	1.144771	-1.265256	-0.215564
C78	C	1.644771	-0.765256	0.284436
C79	C	1.155188	-1.229704	-0.149523
C80	C	1.655188	-0.729704	0.350477
C81	C	1.122271	-1.139298	-0.126717
C82	C	1.622271	-0.639298	0.373283
C83	C	1.078942	-1.084449	-0.169961
C84	C	1.578942	-0.584449	0.330039
C85	C	1.068537	-1.119999	-0.236011
C86	C	1.568537	-0.619999	0.263989
C87	C	0.854997	-0.800929	-0.393454
C88	C	1.354997	-0.300929	0.106546
C89	C	0.811663	-0.746077	-0.436695
C90	C	1.311663	-0.246077	0.063305
C91	C	0.801239	-0.781627	-0.502737
C92	C	1.301239	-0.281627	-0.002737
C93	C	0.834144	-0.872037	-0.525541
C94	C	1.334144	-0.372037	-0.025541
C95	C	0.877478	-0.926888	-0.482300
C96	C	1.377478	-0.426888	0.017700
C97	C	0.887903	-0.891331	-0.416259
C98	C	1.387903	-0.391331	0.083741
C99	C	1.154720	-0.506236	-0.326127
C100	C	1.654720	-0.006236	0.173873
C101	C	1.229952	-0.506250	-0.326135
C102	C	1.729952	-0.006250	0.173865
C103	C	0.978215	-0.506136	-0.502653
C104	C	1.478215	-0.006136	-0.002653
C105	C	0.978231	-0.506107	-0.577885
C106	C	1.478231	-0.006107	-0.077885
C107	C	0.978237	-0.232168	-0.326141
C108	C	1.478237	0.267832	0.173859
C109	C	0.978263	-0.115392	-0.326154
C110	C	1.478263	0.384608	0.173846
C111	C	1.021537	-0.438916	-0.613242
C112	C	1.521537	0.061084	-0.113242
C113	C	1.021544	-0.438886	-0.683931
C114	C	1.521544	0.061114	-0.183931
C115	C	0.978248	-0.506052	-0.719261
C116	C	1.478248	-0.006052	-0.219261
C117	C	0.934937	-0.573247	-0.683899
C118	C	1.434937	-0.073247	-0.183899
C119	C	0.934927	-0.573271	-0.613212
C120	C	1.434927	-0.073271	-0.113212
C121	C	0.934975	-0.573149	-0.968973
C122	C	1.434975	-0.073149	-0.468973
C123	C	0.934990	-0.573122	-1.039665
C124	C	1.434990	-0.073122	-0.539665
C125	C	1.021592	-0.438763	-1.039691
C126	C	1.521592	0.061237	-0.539691
C127	C	1.021582	-0.438788	-0.969004
C128	C	1.521582	0.061212	-0.469004
C129	C	0.978269	-0.505977	-0.933648
C130	C	1.478269	-0.005977	-0.433648
C131	C	0.978261	-0.506008	-0.857000
C132	C	1.478261	-0.006008	-0.357000
C133	C	0.978259	-0.506028	-0.795908
C134	C	1.478259	-0.006028	-0.295908
C135	C	0.978178	-0.506192	-0.150255
C136	C	1.478178	-0.006192	0.349745
C137	C	0.978293	-0.505924	-0.075023
C138	C	1.478293	-0.005924	0.424977
H139	H	0.720561	-0.384444	-0.404776
H140	H	1.220561	0.115556	0.095224
H141	H	0.899656	-0.627975	-0.584425
H142	H	1.399656	-0.127975	-0.084425
Br143	Br	0.739659	-0.664340	-0.223883
Br144	Br	1.239659	-0.164340	0.276117
Br145	Br	1.080259	-0.876341	-0.224159
Br146	Br	1.580259	-0.376341	0.275841
H147	H	0.765951	-0.736958	-0.537943
H148	H	1.265951	-0.236958	-0.037943
H149	H	1.056857	-0.384050	-1.068486
H150	H	1.556857	0.115950	-0.568486
H151	H	0.899730	-0.627819	-1.068429
H152	H	1.399730	-0.127819	-0.568429
H153	H	1.190465	-1.274375	-0.114311
H154	H	1.690465	-0.774375	0.385689
Br155	Br	0.876192	-0.664333	-0.920999
Br156	Br	1.376192	-0.164333	-0.420999
Br157	Br	0.876173	-0.664397	-0.731847
Br158	Br	1.376173	-0.164397	-0.231847
Br159	Br	1.080347	-0.347635	-0.921059
Br160	Br	1.580347	0.152365	-0.421059
H161	H	1.171572	-1.338865	-0.234139
H162	H	1.671572	-0.838865	0.265861
Br163	Br	0.922135	-1.049590	-0.513248
Br164	Br	1.422135	-0.549590	-0.013248
Br165	Br	0.573150	-0.348033	-0.428323
Br166	Br	1.073150	0.151967	0.071677
H167	H	0.364801	-0.384499	-0.404799
H168	H	0.864801	0.115501	0.095201
H169	H	1.056810	-0.384174	-0.712715
H170	H	1.556810	0.115826	-0.212715
Br171	Br	1.087323	-1.258645	-0.348447
Br172	Br	1.587323	-0.758645	0.151553
Br173	Br	0.869148	-0.752670	-0.303823
Br174	Br	1.369148	-0.252670	0.196177
H175	H	0.236478	-0.627997	-0.247464
H176	H	0.736478	-0.127997	0.252536
Br177	Br	0.217385	-0.348094	-0.428357
Br178	Br	0.717385	0.151906	0.071643
H179	H	0.899685	-1.105217	-0.404619
H180	H	1.399685	-0.605217	0.095381
Br181	Br	0.766978	-0.623407	-0.405735
Br182	Br	1.266978	-0.123407	0.094265
Br183	Br	0.383887	-0.664367	-0.223886
Br184	Br	0.883887	-0.164367	0.276114
Br185	Br	0.573039	-0.664358	-0.223893
Br186	Br	1.073039	-0.164358	0.276107
Br187	Br	1.034265	-0.961769	-0.139014
Br188	Br	1.534265	-0.461769	0.360986
Br189	Br	1.136401	-1.091064	-0.037080
Br190	Br	1.636401	-0.591064	0.462920
H191	H	0.825657	-0.900982	-0.579318
H192	H	1.325657	-0.400982	-0.079318
Br193	Br	1.080305	-0.347764	-0.565301
Br194	Br	1.580305	0.152236	-0.065301
