data_functionalizedCrystal
_audit_creation_method	'MofGen! by Chris Wilmer'
_symmetry_space_group_name_H-M	'P1'
_symmetry_Int_Tables_number	1
_symmetry_cell_setting	triclinic
loop_
_symmetry_equiv_pos_as_xyz
  x,y,z
_cell_length_a	10.868271
_cell_length_b	14.853567
_cell_length_c	11.792241
_cell_angle_alpha	96.085827
_cell_angle_beta	89.996428
_cell_angle_gamma	89.998625
loop_
_atom_site_label
_atom_site_type_symbol
_atom_site_fract_x
_atom_site_fract_y
_atom_site_fract_z
O1	O	0.102223	-1.196942	0.148176
O2	O	0.602223	-0.696942	0.648176
O3	O	0.102243	-0.934551	0.165828
O4	O	0.602243	-0.434551	0.665828
O5	O	0.102240	-1.072114	-0.008207
O6	O	0.602240	-0.572114	0.491793
O7	O	0.102226	-1.059379	0.322212
O8	O	0.602226	-0.559379	0.822212
O9	O	-0.102405	-1.072102	-0.008202
O10	O	0.397595	-0.572102	0.491798
O11	O	-0.102402	-0.934539	0.165834
O12	O	0.397598	-0.434539	0.665834
O13	O	-0.102421	-1.196929	0.148182
O14	O	0.397579	-0.696929	0.648182
Zn15	Zn	-0.134903	-1.065732	0.157009
Zn16	Zn	0.365097	-0.565732	0.657009
Zn17	Zn	0.134725	-1.065749	0.157002
Zn18	Zn	0.634725	-0.565749	0.657002
O19	O	-0.102418	-1.059367	0.322218
O20	O	0.397582	-0.559367	0.822218
C21	C	-0.000077	-0.900953	0.165032
C22	C	0.499923	-0.400953	0.665032
C23	C	-0.000069	-0.800860	0.162635
C24	C	0.499931	-0.300860	0.662635
N25	N	-0.318917	-1.065727	0.157013
N26	N	0.181083	-0.565727	0.657013
C27	C	-0.000078	-1.071308	-0.050491
C28	C	0.499922	-0.571308	0.449509
C29	C	-0.000064	-1.068913	-0.176489
C30	C	0.499936	-0.568913	0.323511
C31	C	-0.430255	-1.065734	0.157014
C32	C	0.069745	-0.565734	0.657014
C33	C	-0.569932	-1.065746	0.157003
C34	C	-0.069932	-0.565746	0.657003
N35	N	0.318739	-1.065760	0.156988
N36	N	0.818739	-0.565760	0.656988
C37	C	-0.000099	-1.230527	0.148979
C38	C	0.499901	-0.730527	0.648979
C39	C	-0.000099	-1.330621	0.151376
C40	C	0.499901	-0.830621	0.651376
C41	C	-0.000091	-0.387884	0.049122
C42	C	0.499909	0.112116	0.549122
C43	C	-0.000099	-0.367408	0.255880
C44	C	0.499901	0.132592	0.755880
C45	C	-0.000095	-0.461451	0.258134
C46	C	0.499905	0.038549	0.758134
C47	C	-0.000088	-0.518715	0.155880
C48	C	0.499912	-0.018715	0.655880
C49	C	-0.000084	-0.481936	0.051372
C50	C	0.499916	0.018064	0.551372
C51	C	-0.000086	-0.498237	0.362640
C52	C	0.499914	0.001763	0.862640
C53	C	-0.000081	-0.592285	0.364898
C54	C	0.499919	-0.092285	0.864898
C55	C	-0.000082	-0.649550	0.262642
C56	C	0.499918	-0.149550	0.762642
C57	C	-0.000080	-0.612766	0.158131
C58	C	0.499920	-0.112766	0.658131
C59	C	-0.000073	-0.670030	0.055877
C60	C	0.499927	-0.170030	0.555877
C61	C	-0.000079	-0.633248	-0.048637
C62	C	0.499921	-0.133248	0.451363
C63	C	-0.000085	-0.539201	-0.050883
C64	C	0.499915	-0.039201	0.449117
C65	C	-0.000076	-0.743596	0.264889
C66	C	0.499924	-0.243596	0.764889
C67	C	-0.000065	-0.764081	0.058127
C68	C	0.499935	-0.264081	0.558127
C69	C	-0.000098	-1.060173	0.364501
C70	C	0.499902	-0.560173	0.864501
C71	C	-0.000103	-1.062567	0.490500
C72	C	0.499897	-0.562567	0.990500
C73	C	-0.000073	-1.066970	0.721185
C74	C	0.499927	-0.566970	1.221185
C75	C	-0.000090	-1.064524	0.592815
C76	C	0.499910	-0.564524	1.092815
H77	H	-0.000064	-0.810700	-0.025142
H78	H	0.499936	-0.310700	0.474858
H79	H	-0.000076	-0.622224	0.449998
H80	H	0.499924	-0.122224	0.949998
C81	C	-0.000064	-0.784054	0.379837
C82	C	0.499936	-0.284054	0.879837
H83	H	-0.000071	-0.736481	0.440413
H84	H	0.499929	-0.236481	0.940413
H85	H	0.071300	-0.820318	0.385005
H86	H	0.571300	-0.320318	0.885005
H87	H	-0.071437	-0.820314	0.385021
H88	H	0.428563	-0.320314	0.885021
H89	H	-0.000120	-0.509244	-0.135972
H90	H	0.499880	-0.009244	0.364028
C91	C	-0.000093	-0.347429	-0.065833
C92	C	0.499907	0.152571	0.434167
H93	H	-0.000093	-0.283217	-0.052535
H94	H	0.499907	0.216783	0.447465
H95	H	-0.071452	-0.367055	-0.107941
H96	H	0.428548	0.132945	0.392059
H97	H	0.071286	-0.367047	-0.107938
H98	H	0.571286	0.132953	0.392062
H99	H	-0.000065	-0.679884	-0.131891
H100	H	0.499935	-0.179884	0.368109
H101	H	-0.000095	-0.320779	0.339131
H102	H	0.499905	0.179221	0.839131
C103	C	-0.000100	-0.435249	0.475108
C104	C	0.499900	0.064751	0.975108
H105	H	-0.000122	-0.373971	0.458797
H106	H	0.499878	0.126029	0.958797
H107	H	0.071264	-0.446444	0.517956
H108	H	0.571264	0.053556	1.017956
H109	H	-0.071474	-0.446459	0.517952
H110	H	0.428526	0.053541	1.017952
