data_functionalizedCrystal
_audit_creation_method	'MofGen! by Chris Wilmer'
_symmetry_space_group_name_H-M	'P1'
_symmetry_Int_Tables_number	1
_symmetry_cell_setting	triclinic
loop_
_symmetry_equiv_pos_as_xyz
  x,y,z
_cell_length_a	25.639239
_cell_length_b	16.625547
_cell_length_c	25.639233
_cell_angle_alpha	90.019870
_cell_angle_beta	89.981253
_cell_angle_gamma	89.962128
loop_
_atom_site_label
_atom_site_type_symbol
_atom_site_fract_x
_atom_site_fract_y
_atom_site_fract_z
Zn1	Zn	-0.208226	-1.232532	-0.295710
Zn2	Zn	-0.295645	-1.232414	-0.208275
Zn3	Zn	-0.208224	-1.097711	-0.208278
Zn4	Zn	-0.295631	-1.097626	-0.295668
O5	O	-0.251931	-1.165071	-0.251983
O6	O	-0.219829	-1.345349	-0.284128
O7	O	-0.284053	-1.214532	-0.135110
O8	O	-0.135059	-1.115680	-0.219895
O9	O	-0.284055	-1.345262	-0.219889
O10	O	-0.135060	-1.214733	-0.284131
O11	O	-0.219825	-1.115566	-0.135112
O12	O	-0.219812	-0.984867	-0.219854
O13	O	-0.284031	-1.115536	-0.368839
O14	O	-0.284029	-0.984805	-0.284059
O15	O	-0.219815	-1.214651	-0.368870
O16	O	-0.368808	-1.214450	-0.219848
O17	O	-0.368798	-1.115422	-0.284056
C18	C	-0.251919	-0.955580	-0.251953
C19	C	-0.251927	-0.865959	-0.251952
C20	C	-0.251927	-0.793177	-0.251957
C21	C	-0.251929	-0.701868	-0.251968
C22	C	-0.251933	-0.629092	-0.251979
C23	C	-0.251936	-0.537777	-0.251989
C24	C	-0.387774	-1.164935	-0.251959
C25	C	-0.445888	-1.164951	-0.251966
C26	C	-0.806244	-1.216770	-0.218607
C27	C	-0.860848	-1.216801	-0.218614
O28	O	-0.889078	-1.260718	-0.190224
N29	N	-0.888170	-1.165213	-0.252017
C30	C	-0.860885	-1.113596	-0.285420
O31	O	-0.889139	-1.069720	-0.313833
C32	C	-0.806282	-1.113569	-0.285415
C33	C	-0.778963	-1.165155	-0.252006
C34	C	-0.778924	-1.268352	-0.185200
C35	C	-0.724323	-1.268319	-0.185193
C36	C	-0.697042	-1.216704	-0.218592
C37	C	-0.724362	-1.165122	-0.251998
C38	C	-0.778998	-1.061957	-0.318820
C39	C	-0.724391	-1.061935	-0.318812
C40	C	-0.697072	-1.113521	-0.285403
C41	C	-0.642481	-1.113475	-0.285389
N42	N	-0.615158	-1.165063	-0.251986
C43	C	-0.642439	-1.216678	-0.218587
C44	C	-0.975556	-1.113657	-0.285428
C45	C	-1.030158	-1.113679	-0.285430
C46	C	-1.030117	-1.216885	-0.218625
C47	C	-0.975514	-1.216858	-0.218620
C48	C	-0.948234	-1.165245	-0.252024
C49	C	-0.527774	-1.216605	-0.218573
C50	C	-0.473169	-1.216566	-0.218567
C51	C	-0.473215	-1.113363	-0.285374
C52	C	-0.527815	-1.113399	-0.285379
C53	C	-0.555094	-1.165027	-0.251976
O54	O	-0.614215	-1.069583	-0.313766
O55	O	-0.614179	-1.260554	-0.190183
C56	C	-0.115558	-1.165229	-0.252018
C57	C	-0.057444	-1.165297	-0.252033
C58	C	-0.251922	-1.165097	-0.388356
C59	C	-0.251918	-1.165108	-0.446470
C60	C	-0.251941	-0.375380	-0.252007
C61	C	-0.251940	-0.465001	-0.252001
C62	C	-0.218381	-1.216783	-0.806855
C63	C	-0.218367	-1.216793	-0.861459
O64	O	-0.189915	-1.260663	-0.889714
N65	N	-0.251796	-1.165197	-0.888752
C66	C	-0.285237	-1.113582	-0.861439
O67	O	-0.313669	-1.069697	-0.889668
C68	C	-0.285248	-1.113569	-0.806835
C69	C	-0.251821	-1.165174	-0.779545
C70	C	-0.184957	-1.268383	-0.779564
C71	C	-0.184972	-1.268373	-0.724964
C72	C	-0.218412	-1.216764	-0.697654
C73	C	-0.251837	-1.165165	-0.724944
C74	C	-0.318687	-1.061951	-0.779522
C75	C	-0.318695	-1.061941	-0.724915
C76	C	-0.285268	-1.113546	-0.697625
C77	C	-0.285292	-1.113546	-0.643034
N78	N	-0.251863	-1.165142	-0.615740
C79	C	-0.218423	-1.216751	-0.643050
C80	C	-0.285210	-1.113614	-0.976109
C81	C	-0.285201	-1.113630	-1.030712
C82	C	-0.218331	-1.216840	-1.030728
C83	C	-0.218342	-1.216826	-0.976125
C84	C	-0.251781	-1.165209	-0.948816
C85	C	-0.218458	-1.216729	-0.528385
C86	C	-0.218478	-1.216717	-0.473780
C87	C	-0.285347	-1.113505	-0.473768
C88	C	-0.285329	-1.113519	-0.528368
C89	C	-0.251881	-1.165133	-0.555676
O90	O	-0.313728	-1.069696	-0.614744
O91	O	-0.189991	-1.260622	-0.614815
C92	C	-0.251903	-1.165092	-0.116140
C93	C	-0.251759	-1.165237	-0.058026
H94	H	-0.450927	-1.258573	-0.191359
H95	H	-1.052397	-1.071665	-0.312631
H96	H	-0.312553	-1.071506	-0.550589
H97	H	-0.312574	-1.071489	-0.451522
H98	H	-0.953347	-1.071620	-0.312628
C99	C	-0.355485	-1.005165	-0.694878
C100	C	-0.396549	-1.040048	-0.657346
C101	C	-0.433341	-0.983276	-0.627311
C102	C	-0.429069	-0.891620	-0.634808
C103	C	-0.388003	-0.856733	-0.672342
C104	C	-0.351211	-0.913505	-0.702377
H105	H	-0.399712	-1.107901	-0.651794
H106	H	-0.463740	-1.009103	-0.599525
H107	H	-0.456304	-0.849594	-0.612574
H108	H	-0.384840	-0.788880	-0.677894
H109	H	-0.320812	-0.887678	-0.730163
C110	C	-0.809038	-1.005214	-0.355576
C111	C	-0.801582	-0.913553	-0.351255
C112	C	-0.831620	-0.856807	-0.388015
C113	C	-0.869112	-0.891722	-0.429095
C114	C	-0.876569	-0.983387	-0.433418
C115	C	-0.846532	-1.040133	-0.396658
H116	H	-0.773827	-0.887703	-0.320843
H117	H	-0.826099	-0.788950	-0.384814
H118	H	-0.891348	-0.849715	-0.456307
H119	H	-0.904325	-1.009237	-0.463830
H120	H	-0.852053	-1.107990	-0.399858
H121	H	-0.702183	-1.019906	-0.346016
H122	H	-0.953273	-1.258864	-0.191416
C123	C	-0.557775	-1.273390	-0.181828
C124	C	-0.550292	-1.266858	-0.122386
C125	C	-0.580293	-1.323636	-0.085638
C126	C	-0.617777	-1.386947	-0.108332
C127	C	-0.625262	-1.393482	-0.167776
C128	C	-0.595261	-1.336703	-0.204524
H129	H	-0.522542	-1.219989	-0.105585
H130	H	-0.574752	-1.318799	-0.041633
H131	H	-0.639986	-1.428978	-0.081129
H132	H	-0.653012	-1.440350	-0.184578
H133	H	-0.600802	-1.341541	-0.248529
H134	H	-0.801130	-1.310387	-0.158003
C135	C	-1.060133	-1.273668	-0.181888
C136	C	-1.120194	-1.273697	-0.181901
C137	C	-1.150211	-1.330476	-0.145166
C138	C	-1.120167	-1.387226	-0.108419
C139	C	-1.060102	-1.387199	-0.108405
C140	C	-1.030085	-1.330420	-0.145139
H141	H	-1.142438	-1.231686	-0.209104
H142	H	-1.194676	-1.330496	-0.145176
H143	H	-1.142388	-1.429258	-0.081225
H144	H	-1.037859	-1.429211	-0.081201
H145	H	-0.985621	-1.330401	-0.145129
H146	H	-0.550060	-1.071396	-0.312585
H147	H	-0.702083	-1.310327	-0.157990
H148	H	-0.312443	-1.071580	-0.953878
H149	H	-0.450994	-1.071336	-0.312566
H150	H	-0.191257	-1.258743	-0.451562
H151	H	-0.345907	-1.019928	-0.801733
C152	C	-0.321972	-1.056865	-1.060728
C153	C	-0.358751	-1.000096	-1.030680
C154	C	-0.395519	-0.943322	-1.060693
C155	C	-0.395508	-0.943317	-1.120755
C156	C	-0.358728	-1.000089	-1.150806
C157	C	-0.321960	-1.056863	-1.120792
H158	H	-0.358760	-1.000097	-0.986215
H159	H	-0.422746	-0.901295	-1.038447
H160	H	-0.422726	-0.901290	-1.142973
H161	H	-0.358718	-1.000088	-1.195270
H162	H	-0.294733	-1.098889	-1.143039
C163	C	-0.181669	-1.273508	-0.558418
C164	C	-0.185950	-1.365162	-0.550917
C165	C	-0.149164	-1.421946	-0.580950
C166	C	-0.108097	-1.387077	-0.618484
C167	C	-0.103814	-1.295418	-0.625987
C168	C	-0.140600	-1.238634	-0.595954
H169	H	-0.216352	-1.390979	-0.523130
H170	H	-0.152334	-1.489798	-0.575395
H171	H	-0.080865	-1.429112	-0.640716
H172	H	-0.073412	-1.269601	-0.653774
H173	H	-0.137429	-1.170782	-0.601509
C174	C	-0.148171	-1.325163	-0.809598
C175	C	-0.170821	-1.388456	-0.847137
C176	C	-0.134036	-1.445246	-0.877166
C177	C	-0.074601	-1.438743	-0.869657
C178	C	-0.051947	-1.375446	-0.832117
C179	C	-0.088732	-1.318656	-0.802087
H180	H	-0.214822	-1.393273	-0.852698
H181	H	-0.150806	-1.492102	-0.904956
H182	H	-0.047370	-1.480782	-0.891887
H183	H	-0.007946	-1.370629	-0.826556
H184	H	-0.071962	-1.271800	-0.774298
H185	H	-0.157751	-1.310394	-0.702749
H186	H	-0.191122	-1.258846	-0.953909
H187	H	-0.191101	-1.258861	-1.052974
