data_functionalizedCrystal
_audit_creation_method	'MofGen! by Chris Wilmer'
_symmetry_space_group_name_H-M	'P1'
_symmetry_Int_Tables_number	1
_symmetry_cell_setting	triclinic
loop_
_symmetry_equiv_pos_as_xyz
  x,y,z
_cell_length_a	14.519709
_cell_length_b	27.732048
_cell_length_c	12.996460
_cell_angle_alpha	89.988908
_cell_angle_beta	90.000034
_cell_angle_gamma	83.161400
loop_
_atom_site_label
_atom_site_type_symbol
_atom_site_fract_x
_atom_site_fract_y
_atom_site_fract_z
O1	O	1.222766	0.063362	-0.085445
O2	O	1.722766	0.563362	0.414555
O3	O	0.954160	0.070824	-0.085477
O4	O	1.454160	0.570824	0.414523
O5	O	1.096805	-0.003264	-0.085440
O6	O	1.596805	0.496736	0.414560
O7	O	1.080121	0.137450	-0.085482
O8	O	1.580121	0.637450	0.414518
O9	O	1.096791	-0.003268	0.085693
O10	O	1.596791	0.496732	0.585693
O11	O	0.954145	0.070820	0.085656
O12	O	1.454145	0.570820	0.585656
O13	O	1.222752	0.063358	0.085689
O14	O	1.722752	0.563358	0.585689
Cu15	Cu	1.088447	0.067089	0.101299
Cu16	Cu	1.588447	0.567089	0.601299
Cu17	Cu	1.088464	0.067093	-0.101087
Cu18	Cu	1.588464	0.567093	0.398913
O19	O	1.080106	0.137446	0.085652
O20	O	1.580106	0.637446	0.585652
C21	C	0.919799	0.070474	0.000086
C22	C	1.419799	0.570474	0.500086
C23	C	0.817435	0.069432	0.000074
C24	C	1.317435	0.569432	0.500074
C25	C	0.442606	0.065596	0.000122
C26	C	0.942606	0.565596	0.500122
C27	C	0.546896	0.066661	0.000108
C28	C	1.046896	0.566661	0.500108
C29	C	0.630018	0.067514	0.000097
C30	C	1.130018	0.567514	0.500097
C31	C	0.734314	0.068579	0.000085
C32	C	1.234314	0.568579	0.500085
C33	C	1.096448	-0.021274	0.000129
C34	C	1.596448	0.478726	0.500129
C35	C	1.095393	-0.074934	0.000138
C36	C	1.595393	0.425066	0.500138
C37	C	1.173048	-0.413378	0.000094
C38	C	1.673048	0.086622	0.500094
C39	C	1.169135	-0.615057	0.000080
C40	C	1.669135	-0.115057	0.500080
O41	O	1.240145	-0.645973	0.000043
O42	O	1.740145	-0.145973	0.500043
N43	N	1.084552	-0.634585	0.000070
N44	N	1.584552	-0.134585	0.500070
C45	C	1.000941	-0.603690	0.000058
C46	C	1.500941	-0.103690	0.500058
O47	O	0.928909	-0.624927	0.000039
O48	O	1.428909	-0.124927	0.500039
C49	C	1.004855	-0.402012	0.000065
C50	C	1.504855	0.097988	0.500065
C51	C	1.089444	-0.382487	0.000085
C52	C	1.589444	0.117513	0.500085
C53	C	1.257630	-0.393853	0.000113
C54	C	1.757630	0.106147	0.500113
C55	C	1.258607	-0.343436	0.000122
C56	C	1.758607	0.156564	0.500122
C57	C	1.175003	-0.312545	0.000113
C58	C	1.675003	0.187455	0.500113
C59	C	1.090421	-0.332071	0.000094
C60	C	1.590421	0.167929	0.500094
C61	C	0.921246	-0.371118	0.000045
C62	C	1.421246	0.128882	0.500045
C63	C	0.922232	-0.320696	0.000045
C64	C	1.422232	0.179304	0.500045
C65	C	1.006820	-0.301171	0.000064
C66	C	1.506820	0.198829	0.500064
C67	C	1.007794	-0.250763	0.000094
C68	C	1.507794	0.249237	0.500094
N69	N	1.092377	-0.231235	0.000104
N70	N	1.592377	0.268765	0.500104
C71	C	1.175981	-0.262126	0.000113
C72	C	1.675981	0.237874	0.500113
C73	C	0.998893	-0.709574	0.000056
C74	C	1.498893	-0.209574	0.500056
C75	C	0.997914	-0.759993	0.000056
C76	C	1.497914	-0.259993	0.500056
C77	C	1.166108	-0.771356	0.000076
C78	C	1.666108	-0.271356	0.500076
C79	C	1.167086	-0.720936	0.000083
C80	C	1.667086	-0.220936	0.500083
C81	C	1.083476	-0.690045	0.000065
C82	C	1.583476	-0.190045	0.500065
C83	C	1.178028	-0.156247	0.000133
C84	C	1.678028	0.343753	0.500133
C85	C	1.178998	-0.105825	0.000147
C86	C	1.678998	0.394175	0.500147
C87	C	1.010804	-0.094466	0.000122
C88	C	1.510804	0.405534	0.500122
C89	C	1.009833	-0.144883	0.000114
C90	C	1.509833	0.355117	0.500114
C91	C	1.093453	-0.175773	0.000116
C92	C	1.593453	0.324227	0.500116
O93	O	0.936822	-0.219818	0.000119
O94	O	1.436822	0.280182	0.500119
O95	O	1.248004	-0.240879	0.000109
O96	O	1.748004	0.259121	0.500109
C97	C	1.172071	-0.463795	0.000085
C98	C	1.672071	0.036205	0.500085
C99	C	1.087489	-0.483320	0.000066
C100	C	1.587489	0.016680	0.500066
C101	C	1.003885	-0.452429	0.000057
C102	C	1.503885	0.047571	0.500057
C103	C	1.086510	-0.533740	0.000066
C104	C	1.586510	-0.033740	0.500066
C105	C	1.170115	-0.564631	0.000076
C106	C	1.670115	-0.064631	0.500076
C107	C	1.254698	-0.545103	0.000085
C108	C	1.754698	-0.045103	0.500085
C109	C	1.255675	-0.494686	0.000094
C110	C	1.755675	0.005314	0.500094
C111	C	0.919302	-0.471957	0.000048
C112	C	1.419302	0.028043	0.500048
C113	C	0.918331	-0.522375	0.000039
C114	C	1.418331	-0.022375	0.500039
C115	C	1.001936	-0.553266	0.000049
C116	C	1.501936	-0.053266	0.500049
C117	C	1.257113	0.063708	0.000124
C118	C	1.757113	0.563708	0.500124
C119	C	1.359476	0.064750	0.000129
C120	C	1.859476	0.564750	0.500129
C121	C	1.080464	0.155456	0.000080
C122	C	1.580464	0.655456	0.500080
C123	C	1.081518	0.209116	0.000065
C124	C	1.581518	0.709116	0.500065
N125	N	1.088442	0.067085	0.243646
N126	N	1.588442	0.567085	0.743646
N127	N	1.088477	0.067093	-0.243434
N128	N	1.588477	0.567093	0.256566
C129	C	1.088463	0.067094	0.663460
C130	C	1.588463	0.567094	1.163460
C131	C	1.088454	0.067093	0.546655
C132	C	1.588454	0.567093	1.046655
C133	C	1.088453	0.067090	0.453557
C134	C	1.588453	0.567090	0.953557
C135	C	1.088443	0.067088	0.336744
C136	C	1.588443	0.567088	0.836744
H137	H	1.246119	-0.181392	0.000131
H138	H	1.746119	0.318608	0.500131
H139	H	1.324556	-0.478794	0.000110
H140	H	1.824556	0.021206	0.500110
H141	H	1.325714	-0.419000	0.000117
H142	H	1.825714	0.081000	0.500117
H143	H	1.327488	-0.327544	0.000134
H144	H	1.827488	0.172456	0.500134
O145	O	0.915721	-0.778933	-0.000135
O146	O	1.415721	-0.278933	0.499865
C147	C	0.771650	-0.784602	-0.088789
C148	C	1.271650	-0.284602	0.411211
C149	C	0.864713	-0.763132	-0.088705
C150	C	1.364713	-0.263132	0.411295
H151	H	0.730375	-0.771828	-0.160379
H152	H	1.230375	-0.271828	0.339621
H153	H	0.785245	-0.825947	-0.088854
H154	H	1.285245	-0.325947	0.411146
H155	H	0.730405	-0.771899	-0.017143
H156	H	1.230405	-0.271899	0.482857
H157	H	0.906005	-0.775799	-0.160338
H158	H	1.406005	-0.275799	0.339662
H159	H	0.851052	-0.721790	-0.088586
H160	H	1.351052	-0.221790	0.411414
H161	H	1.235965	-0.705043	0.000098
H162	H	1.735965	-0.205043	0.500098
O163	O	1.247299	-0.801388	-0.000106
O164	O	1.747299	-0.301388	0.499894
C165	C	1.343760	-0.864924	-0.088749
C166	C	1.843760	-0.364924	0.411251
C167	C	1.251794	-0.830931	-0.088672
C168	C	1.751794	-0.330931	0.411328
H169	H	1.347416	-0.888826	-0.160336
H170	H	1.847416	-0.388826	0.339664
H171	H	1.404425	-0.842336	-0.088815
H172	H	1.904425	-0.342336	0.411185
H173	H	1.347494	-0.888800	-0.017101
H174	H	1.847494	-0.388800	0.482899
H175	H	1.247969	-0.807049	-0.160308
H176	H	1.747969	-0.307049	0.339692
H177	H	1.191172	-0.853549	-0.088552
H178	H	1.691172	-0.353549	0.411448
O179	O	0.840925	-0.290759	0.000073
O180	O	1.340925	0.209241	0.500073
C181	C	0.673998	-0.284813	-0.000027
C182	C	1.173998	0.215187	0.499973
C183	C	0.766006	-0.318771	-0.000037
C184	C	1.266006	0.181229	0.499963
H185	H	0.613402	-0.307448	-0.000138
H186	H	1.113402	0.192552	0.499862
H187	H	0.670171	-0.260941	0.071611
H188	H	1.170171	0.239059	0.571611
H189	H	0.670310	-0.260907	-0.071628
H190	H	1.170310	0.239093	0.428372
H191	H	0.769755	-0.342708	0.071515
H192	H	1.269755	0.157292	0.571515
H193	H	0.769794	-0.342611	-0.071722
H194	H	1.269794	0.157389	0.428278
H195	H	0.852365	-0.387006	0.000023
H196	H	1.352365	0.112994	0.500023
O197	O	0.929510	-0.064523	0.000150
O198	O	1.429510	0.435477	0.500150
C199	C	0.762581	-0.058559	0.000032
C200	C	1.262581	0.441441	0.500032
C201	C	0.854577	-0.092526	0.000037
C202	C	1.354577	0.407474	0.500037
H203	H	0.701973	-0.081185	-0.000081
H204	H	1.201973	0.418815	0.499919
H205	H	0.758758	-0.034683	0.071665
H206	H	1.258758	0.465317	0.571665
H207	H	0.758910	-0.034655	-0.071573
H208	H	1.258910	0.465345	0.428427
H209	H	0.858310	-0.116460	0.071594
H210	H	1.358310	0.383540	0.571594
H211	H	0.858362	-0.116369	-0.071644
H212	H	1.358362	0.383631	0.428356
O213	O	0.917691	-0.679550	-0.000137
O214	O	1.417691	-0.179550	0.499863
C215	C	0.821188	-0.616010	-0.088771
C216	C	1.321188	-0.116010	0.411229
C217	C	0.913173	-0.649987	-0.088699
C218	C	1.413173	-0.149987	0.411301
H219	H	0.817514	-0.592092	-0.160355
H220	H	1.317514	-0.092092	0.339645
H221	H	0.760540	-0.638610	-0.088842
H222	H	1.260540	-0.138610	0.411158
H223	H	0.817441	-0.592149	-0.017119
H224	H	1.317441	-0.092149	0.482881
H225	H	0.917010	-0.673854	-0.160338
H226	H	1.417010	-0.173854	0.339662
H227	H	0.973777	-0.627358	-0.088575
H228	H	1.473777	-0.127358	0.411425
O229	O	0.927726	-0.163912	-0.000034
O230	O	1.427726	0.336088	0.499966
C231	C	0.828996	-0.214202	-0.088760
C232	C	1.328996	0.285798	0.411240
C233	C	0.922024	-0.192698	-0.088696
C234	C	1.422024	0.307302	0.411304
H235	H	0.824347	-0.237472	-0.160447
H236	H	1.324347	0.262528	0.339553
H237	H	0.824312	-0.237567	-0.017199
H238	H	1.324312	0.262433	0.482801
H239	H	0.769424	-0.183454	-0.088710
H240	H	1.269424	0.316546	0.411290
H241	H	0.981649	-0.223415	-0.088783
H242	H	1.481649	0.276585	0.411217
H243	H	0.926626	-0.169321	-0.160251
H244	H	1.426626	0.330679	0.339749
H245	H	1.322771	-0.570263	0.000097
H246	H	1.822771	-0.070263	0.500097
H247	H	0.849444	-0.538266	0.000032
H248	H	1.349444	-0.038266	0.500032
H249	H	0.851220	-0.446810	0.000038
H250	H	1.351220	0.053190	0.500038
H251	H	1.247882	-0.089931	0.000166
H252	H	1.747882	0.410069	0.500166
