data_functionalizedCrystal
_audit_creation_method	'MofGen! by Chris Wilmer'
_symmetry_space_group_name_H-M	'P1'
_symmetry_Int_Tables_number	1
_symmetry_cell_setting	triclinic
loop_
_symmetry_equiv_pos_as_xyz
  x,y,z
_cell_length_a	21.395362
_cell_length_b	19.077068
_cell_length_c	21.395355
_cell_angle_alpha	92.279051
_cell_angle_beta	89.956060
_cell_angle_gamma	92.343691
loop_
_atom_site_label
_atom_site_type_symbol
_atom_site_fract_x
_atom_site_fract_y
_atom_site_fract_z
Zn1	Zn	0.947861	-0.279990	-0.364586
Zn2	Zn	0.943561	-0.397672	-0.264012
Zn3	Zn	0.843074	-0.280023	-0.259789
Zn4	Zn	0.838842	-0.397686	-0.368717
O5	O	0.893334	-0.338843	-0.314276
O6	O	1.034969	-0.295581	-0.351283
O7	O	0.930203	-0.382073	-0.175774
O8	O	0.860546	-0.181525	-0.270194
O9	O	1.031810	-0.382041	-0.277392
O10	O	0.937532	-0.181501	-0.347188
O11	O	0.856376	-0.295637	-0.172671
O12	O	0.754834	-0.295651	-0.274200
O13	O	0.853331	-0.382066	-0.455847
O14	O	0.751725	-0.382098	-0.354229
O15	O	0.933427	-0.295595	-0.452812
O16	O	0.926098	-0.496167	-0.281398
O17	O	0.849162	-0.496177	-0.358324
C18	C	0.730545	-0.338880	-0.314205
C19	C	0.660903	-0.338913	-0.314190
C20	C	0.626585	-0.383985	-0.355803
C21	C	0.561150	-0.383968	-0.355830
C22	C	0.530036	-0.338886	-0.314233
C23	C	0.564362	-0.293804	-0.272617
C24	C	0.629796	-0.293818	-0.272595
C25	C	0.426513	-0.333216	-0.257626
C26	C	0.361081	-0.333207	-0.257647
C27	C	0.328216	-0.338840	-0.314301
C28	C	0.360792	-0.344496	-0.370937
C29	C	0.426226	-0.344510	-0.370915
C30	C	0.459084	-0.338866	-0.314253
C31	C	0.222946	-0.383896	-0.355947
C32	C	0.157511	-0.383874	-0.355976
C33	C	0.160724	-0.293714	-0.272756
C34	C	0.226158	-0.293732	-0.272734
C35	C	0.257266	-0.338827	-0.314328
C36	C	0.886721	-0.521710	-0.320781
C37	C	0.883949	-0.599942	-0.323585
C38	C	0.922735	-0.636666	-0.284884
C39	C	0.920132	-0.710173	-0.287525
C40	C	0.878739	-0.746954	-0.328864
C41	C	0.839952	-0.710224	-0.367570
C42	C	0.842559	-0.636719	-0.364931
C43	C	0.866647	-0.966795	-0.341049
C44	C	0.864041	-1.040305	-0.343683
C45	C	0.944222	-1.040249	-0.263639
C46	C	0.946823	-0.966742	-0.261002
C47	C	0.908038	-0.930019	-0.299709
N48	N	0.876076	-0.822090	-0.331564
N49	N	0.910705	-0.854884	-0.297013
C50	C	1.056759	-0.338806	-0.314348
C51	C	1.126401	-0.338790	-0.314379
C52	C	0.893387	-0.338828	-0.477699
C53	C	0.893409	-0.338822	-0.547340
C54	C	0.899990	-0.155261	-0.307759
C55	C	0.902827	-0.077030	-0.304982
C56	C	0.935113	-0.293795	-0.578474
C57	C	0.935114	-0.293765	-0.643908
C58	C	0.893416	-0.338774	-0.678207
C59	C	0.851704	-0.383805	-0.647065
C60	C	0.851700	-0.383829	-0.581632
C61	C	0.886177	-0.402150	-0.784134
C62	C	0.886184	-0.402127	-0.849566
C63	C	0.893422	-0.338700	-0.880025
C64	C	0.900666	-0.275294	-0.845043
C65	C	0.900663	-0.275318	-0.779610
C66	C	0.893414	-0.338753	-0.749158
C67	C	0.935129	-0.293636	-0.982110
C68	C	0.935125	-0.293605	-1.047545
C69	C	0.851718	-0.383651	-1.050701
C70	C	0.851719	-0.383676	-0.985267
C71	C	0.893428	-0.338670	-0.950975
C72	C	0.893320	-0.338806	-0.151487
C73	C	0.893426	-0.338614	-0.081839
H74	H	0.452747	-0.349113	-0.417029
Cl75	Cl	0.525248	-0.237126	-0.220326
H76	H	0.129570	-0.420576	-0.389866
H77	H	0.969088	-0.256985	-0.954188
H78	H	0.657737	-0.257112	-0.238708
H79	H	0.135391	-0.257003	-0.238890
H80	H	0.254101	-0.257033	-0.238845
H81	H	0.806252	-0.740177	-0.401232
Cl82	Cl	0.998870	-0.920508	-0.209039
Cl83	Cl	0.992981	-1.086419	-0.214986
Cl84	Cl	0.793800	-0.590551	-0.413588
Cl85	Cl	0.319485	-0.351573	-0.442165
Cl86	Cl	0.987544	-0.237211	-0.535367
Cl87	Cl	0.909769	-0.195551	-0.883326
Cl88	Cl	0.799290	-0.440288	-0.946125
H89	H	0.533203	-0.420671	-0.389719
Cl90	Cl	0.877084	-0.481837	-0.893537
H91	H	0.969073	-0.257094	-0.669262
Cl92	Cl	0.262056	-0.440581	-0.408240
H93	H	0.334562	-0.328606	-0.211530
Cl94	Cl	0.987568	-0.237004	-1.086686
Cl95	Cl	0.467821	-0.326137	-0.186396
H96	H	0.817737	-0.420495	-0.556283
Cl97	Cl	0.968895	-0.756338	-0.238872
Cl98	Cl	0.665688	-0.440673	-0.408096
H99	H	0.835065	-0.936900	-0.372565
Cl100	Cl	0.799292	-0.440229	-1.093813
H101	H	0.880115	-0.453787	-0.759340
Cl102	Cl	0.974770	-0.590434	-0.232908
H103	H	0.817751	-0.420450	-0.674995
Cl104	Cl	0.811993	-1.086543	-0.395648
H105	H	0.906559	-0.223690	-0.751130
