data_functionalizedCrystal
_audit_creation_method	'MofGen! by Chris Wilmer'
_symmetry_space_group_name_H-M	'P1'
_symmetry_Int_Tables_number	1
_symmetry_cell_setting	triclinic
loop_
_symmetry_equiv_pos_as_xyz
  x,y,z
_cell_length_a	17.699083
_cell_length_b	10.654550
_cell_length_c	16.176319
_cell_angle_alpha	90.005221
_cell_angle_beta	89.986753
_cell_angle_gamma	83.883973
loop_
_atom_site_label
_atom_site_type_symbol
_atom_site_fract_x
_atom_site_fract_y
_atom_site_fract_z
O1	O	-1.005072	-0.158809	-0.068630
O2	O	-0.784825	-0.179471	-0.068657
O3	O	-0.900013	0.013688	-0.068638
O4	O	-0.889885	-0.351968	-0.068650
O5	O	-0.900029	0.013701	0.068855
O6	O	-0.784841	-0.179458	0.068836
O7	O	-1.005088	-0.158796	0.068863
Cu8	Cu	-0.894966	-0.169126	0.081404
Cu9	Cu	-0.894947	-0.169141	-0.081198
O10	O	-0.889901	-0.351955	0.068844
C11	C	-0.756632	-0.178724	0.000086
C12	C	-0.672599	-0.176503	0.000076
C13	C	-0.899277	0.060479	0.000108
C14	C	-0.897052	0.199884	0.000106
C15	C	-1.033282	-0.159543	0.000118
C16	C	-1.117314	-0.161764	0.000123
C17	C	-0.624699	-0.289883	0.000072
C18	C	-0.545743	-0.287788	0.000083
C19	C	-0.514688	-0.172313	0.000091
C20	C	-0.562594	-0.058924	0.000097
C21	C	-0.641549	-0.061020	0.000092
C22	C	-0.244177	-0.050470	0.000118
C23	C	-0.165216	-0.048383	0.000120
C24	C	-0.148371	-0.277239	0.000109
C25	C	-0.227326	-0.279334	0.000104
C26	C	-0.275225	-0.165946	0.000114
C27	C	-0.360839	-0.168219	0.000104
C28	C	-0.429076	-0.170039	0.000095
C29	C	-0.890637	-0.398746	0.000096
C30	C	-0.892861	-0.538151	0.000092
N31	N	-0.894934	-0.169143	-0.195563
C32	C	-0.964873	0.280556	0.000114
C33	C	-0.962778	0.411541	0.000104
C34	C	-0.825036	0.381166	0.000081
C35	C	-0.827132	0.250185	0.000086
C36	C	-0.946086	-0.083762	-0.760937
C37	C	-0.946077	-0.083761	-0.674390
C38	C	-0.894970	-0.169119	-0.631139
C39	C	-0.843863	-0.254476	-0.674439
C40	C	-0.843870	-0.254470	-0.760984
C41	C	-0.843837	-0.254500	-0.325410
C42	C	-0.843836	-0.254502	-0.238859
C43	C	-0.946045	-0.083791	-0.238816
C44	C	-0.946051	-0.083785	-0.325362
C45	C	-0.894942	-0.169137	-0.368654
C46	C	-0.894951	-0.169135	-0.462499
C47	C	-0.894963	-0.169128	-0.537296
N48	N	-0.894985	-0.169114	0.195769
H49	H	-0.649978	-0.383916	0.000065
Br50	Br	-1.015456	0.032079	-0.819628
Br51	Br	-1.054824	0.521022	0.000110
Br52	Br	-0.480737	-0.441668	0.000076
H53	H	-0.802257	-0.323971	-0.796233
Br54	Br	-1.059764	0.212294	0.000143
Br55	Br	-0.730148	0.449441	0.000050
H56	H	-0.139935	0.045657	0.000128
Br57	Br	-0.269468	-0.436056	0.000085
Br58	Br	-0.774473	-0.370355	-0.180160
Br59	Br	-0.735083	0.140690	0.000064
H60	H	-0.987687	-0.014260	-0.639141
H61	H	-0.987669	-0.014283	-0.360575
Br62	Br	-1.015408	0.032048	-0.180059
H63	H	-0.109361	-0.369564	0.000105
Br64	Br	-0.309174	0.103414	0.000134
Br65	Br	-0.520449	0.097796	0.000116
H66	H	-0.680549	0.031306	0.000094
Br67	Br	-0.774479	-0.370333	-0.384160
Br68	Br	-0.774496	-0.370314	-0.615743
