data_functionalizedCrystal
_audit_creation_method	'MofGen! by Chris Wilmer'
_symmetry_space_group_name_H-M	'P1'
_symmetry_Int_Tables_number	1
_symmetry_cell_setting	triclinic
loop_
_symmetry_equiv_pos_as_xyz
  x,y,z
_cell_length_a	15.944551
_cell_length_b	19.288865
_cell_length_c	18.366186
_cell_angle_alpha	90.011479
_cell_angle_beta	90.004555
_cell_angle_gamma	83.317493
loop_
_atom_site_label
_atom_site_type_symbol
_atom_site_fract_x
_atom_site_fract_y
_atom_site_fract_z
O1	O	-1.114185	-0.089583	-0.060482
O2	O	-0.869592	-0.100628	-0.060501
O3	O	-0.998956	0.006006	-0.060477
O4	O	-0.984821	-0.196217	-0.060507
O5	O	-0.998934	0.006012	0.060622
O6	O	-0.869570	-0.100622	0.060598
O7	O	-1.114163	-0.089578	0.060617
Zn8	Zn	-0.991863	-0.095099	0.079835
Zn9	Zn	-0.991892	-0.095106	-0.079719
O10	O	-0.984799	-0.196212	0.060593
C11	C	-0.838289	-0.100167	0.000046
C12	C	-0.745048	-0.098792	0.000039
C13	C	-0.998490	0.031887	0.000075
C14	C	-0.997125	0.108994	0.000081
C15	C	-1.145466	-0.090039	0.000068
C16	C	-1.238706	-0.091414	0.000070
C17	C	-0.530459	-0.029410	0.000064
C18	C	-0.469326	-0.061631	-0.059649
C19	C	-0.574332	-0.096305	0.000048
C20	C	-0.469326	-0.061642	0.059745
C21	C	-0.409429	-0.093898	0.000060
C22	C	-0.514427	-0.128545	-0.059714
C23	C	-0.514434	-0.128546	0.059734
C24	C	-0.453318	-0.160816	0.000006
C25	C	-0.669329	-0.097690	0.000041
C26	C	-0.314433	-0.092519	0.000062
C27	C	-0.985265	-0.222092	0.000039
C28	C	-0.986630	-0.299199	0.000028
N29	N	-0.991849	-0.095094	0.188726
C30	C	-1.073030	0.153490	0.000091
C31	C	-1.071747	0.225941	0.000079
C32	C	-0.994555	0.253891	0.000073
C33	C	-0.918641	0.209385	0.000059
C34	C	-0.919925	0.136936	0.000063
C35	C	-0.933866	0.362341	0.042486
C36	C	-0.932584	0.434788	0.042486
C37	C	-0.990589	0.477347	0.000056
C38	C	-1.049890	0.447451	-0.042365
C39	C	-1.051175	0.375003	-0.042361
C40	C	-0.993153	0.332449	0.000067
C41	C	-1.065108	0.600404	0.000052
C42	C	-1.063822	0.672855	0.000036
C43	C	-0.910714	0.656298	0.000023
C44	C	-0.912002	0.583848	0.000032
C45	C	-0.989201	0.555906	0.000050
N46	N	-0.991912	-0.095106	-0.188610
C47	C	-1.049150	-0.047900	0.226837
C48	C	-1.049156	-0.047897	0.303065
C49	C	-0.991868	-0.095100	0.341178
C50	C	-0.934556	-0.142298	0.303058
C51	C	-0.934547	-0.142295	0.226832
C52	C	-0.980624	-0.158358	0.461929
C53	C	-0.980639	-0.158362	0.538154
C54	C	-0.991892	-0.095109	0.576286
C55	C	-1.003148	-0.031849	0.538184
C56	C	-1.003138	-0.031846	0.461957
C57	C	-0.991871	-0.095108	0.423833
C58	C	-1.049202	-0.047907	0.697052
C59	C	-1.049201	-0.047903	0.773281
C60	C	-0.934606	-0.142310	0.773273
C61	C	-0.934603	-0.142308	0.697045
C62	C	-0.991905	-0.095107	0.658939
H63	H	-0.564006	0.026108	-0.000002
H64	H	-0.534315	-0.156820	-0.110252
N65	N	-1.109132	0.490916	-0.085723
N66	N	-1.110501	0.482940	-0.153238
H67	H	-1.152339	0.513640	-0.183858
H68	H	-0.887958	-0.180741	0.804305
N69	N	-0.444240	-0.026131	0.123068
N70	N	-0.406986	0.027066	0.116441
H71	H	-0.389269	0.052151	0.161160
H72	H	-0.887946	-0.180741	0.666013
H73	H	-0.884294	0.459123	0.077024
H74	H	-0.534447	-0.156815	0.110211
N75	N	-0.969153	-0.222983	0.577059
N76	N	-0.959098	-0.279454	0.543007
H77	H	-0.950987	-0.325096	0.570482
H78	H	-0.847863	0.679055	0.000014
N79	N	-0.969137	-0.222981	0.422993
N80	N	-0.959108	-0.279456	0.457018
H81	H	-0.951000	-0.325095	0.429522
H82	H	-0.886629	0.327694	0.077042
H83	H	-0.887911	-0.180730	0.334094
H84	H	-0.449334	-0.033339	-0.110125
N85	N	-0.876005	-0.190508	0.187909
N86	N	-0.824853	-0.232647	0.221943
H87	H	-0.783506	-0.266699	0.194454
H88	H	-1.095858	-0.009471	0.666025
H89	H	-0.419945	-0.216391	-0.000035
H90	H	-1.125636	0.709084	0.000039
H91	H	-1.135891	0.130744	0.000103
N92	N	-1.111750	0.344464	-0.085684
N93	N	-1.188920	0.360913	-0.074984
H94	H	-1.231702	0.339345	-0.105582
N95	N	-1.149293	0.271393	0.000088
N96	N	-1.218212	0.246435	0.000102
H97	H	-1.272980	0.278534	0.000110
N98	N	-1.014632	0.032760	0.423025
N99	N	-1.075693	0.045363	0.380480
H100	H	-1.083808	0.090991	0.352982
N101	N	-1.143969	0.571867	0.000072
N102	N	-1.211738	0.611608	0.000076
H103	H	-1.267435	0.591456	0.000092
N104	N	-0.834458	0.538402	0.000025
N105	N	-0.765541	0.563363	0.000016
H106	H	-0.710771	0.531267	0.000009
H107	H	-0.855790	0.232147	0.000052
H108	H	-1.012310	0.019658	0.569229
N109	N	-0.842379	0.091490	0.000050
N110	N	-0.773461	0.116451	0.000037
H111	H	-0.718692	0.084354	0.000027
N112	N	-1.107757	0.000259	0.187925
N113	N	-1.158962	0.042356	0.221969
H114	H	-1.200381	0.076347	0.194487
H115	H	-1.095818	-0.009464	0.334101
N116	N	-1.107735	0.000318	0.812203
N117	N	-1.158887	0.042456	0.778167
H118	H	-1.200228	0.076514	0.805655
