data_functionalizedCrystal
_audit_creation_method	'MofGen! by Chris Wilmer'
_symmetry_space_group_name_H-M	'P1'
_symmetry_Int_Tables_number	1
_symmetry_cell_setting	triclinic
loop_
_symmetry_equiv_pos_as_xyz
  x,y,z
_cell_length_a	14.971482
_cell_length_b	11.792241
_cell_length_c	14.048226
_cell_angle_alpha	89.993434
_cell_angle_beta	89.994098
_cell_angle_gamma	83.903012
loop_
_atom_site_label
_atom_site_type_symbol
_atom_site_fract_x
_atom_site_fract_y
_atom_site_fract_z
O1	O	1.187542	0.147889	-0.079149
O2	O	0.927212	0.165606	-0.079153
O3	O	1.063694	-0.008464	-0.079144
O4	O	1.051059	0.321959	-0.079158
O5	O	1.063678	-0.008474	0.079177
O6	O	0.927195	0.165596	0.079168
O7	O	1.187525	0.147879	0.079173
Zn8	Zn	1.057358	0.156736	0.104307
Zn9	Zn	1.057379	0.156749	-0.104288
O10	O	1.051043	0.321949	0.079164
C11	C	0.893876	0.164809	0.000007
C12	C	0.794569	0.162437	0.000005
C13	C	0.747911	0.161314	0.086307
C14	C	0.654603	0.159067	0.086308
C15	C	0.607955	0.157951	0.000006
C16	C	0.654620	0.159071	-0.086302
C17	C	0.747927	0.161310	-0.086302
C18	C	0.460139	0.154407	-0.086296
C19	C	0.366826	0.152170	-0.086296
C20	C	0.366816	0.152165	0.086315
C21	C	0.460123	0.154404	0.086315
C22	C	0.506781	0.155525	0.000006
C23	C	1.062892	-0.050755	0.000016
C24	C	1.060517	-0.176753	0.000015
C25	C	1.056149	-0.407437	-0.000001
C26	C	1.058576	-0.279068	0.000008
C27	C	1.220861	0.148675	0.000010
C28	C	1.320168	0.151048	0.000006
C29	C	1.051845	0.364240	0.000001
C30	C	1.054220	0.490238	-0.000004
N31	N	1.057349	0.156726	0.246668
N32	N	1.057395	0.156750	-0.246649
C33	C	1.117803	0.079679	0.296490
C34	C	1.117809	0.079679	0.396148
C35	C	1.057365	0.156731	0.445981
C36	C	0.996905	0.233781	0.396152
C37	C	0.996895	0.233775	0.296497
C38	C	0.996931	0.233789	0.603867
C39	C	0.996941	0.233796	0.703529
C40	C	1.117844	0.079693	0.703518
C41	C	1.117835	0.079687	0.603862
C42	C	1.057376	0.156739	0.554040
H43	H	0.498126	0.155321	-0.156578
H44	H	0.947667	0.296512	0.255932
H45	H	0.947695	0.296529	0.563305
H46	H	0.947686	0.296514	0.436733
H47	H	0.328823	0.151252	0.156591
O48	O	0.793202	0.162194	0.170167
C49	C	0.780037	0.063434	0.222681
H50	H	0.761143	-0.005827	0.172185
H51	H	0.844637	0.031933	0.261830
H52	H	0.723687	0.084336	0.276493
H53	H	0.616620	0.158134	0.156584
H54	H	0.616632	0.158154	-0.156571
O55	O	0.793109	0.162456	-0.170221
C56	C	0.731933	0.160966	-0.246395
H57	H	0.661887	0.195272	-0.221095
H58	H	0.753483	0.216679	-0.306757
H59	H	0.730961	0.069746	-0.272929
H60	H	0.947721	0.296539	0.744099
O61	O	1.176630	0.004806	0.444397
C62	C	1.229970	-0.063210	0.379043
H63	H	1.231184	-0.016678	0.307997
H64	H	1.301321	-0.080353	0.407819
H65	H	1.200538	-0.147599	0.368467
O66	O	0.505305	0.155438	0.170232
C67	C	0.444115	0.153995	0.246411
H68	H	0.381135	0.116495	0.221118
H69	H	0.476489	0.099581	0.306772
H70	H	0.425243	0.244741	0.272942
H71	H	0.328847	0.151263	-0.156571
O72	O	1.176538	0.004686	0.751802
C73	C	1.161452	-0.107704	0.727483
H74	H	1.126966	-0.107640	0.655136
H75	H	1.228419	-0.163449	0.724060
H76	H	1.116775	-0.142905	0.783586
H77	H	1.167057	0.016951	0.563287
H78	H	1.167027	0.016940	0.255922
