data_functionalizedCrystal
_audit_creation_method	'MofGen! by Chris Wilmer'
_symmetry_space_group_name_H-M	'P1'
_symmetry_Int_Tables_number	1
_symmetry_cell_setting	triclinic
loop_
_symmetry_equiv_pos_as_xyz
  x,y,z
_cell_length_a	17.000371
_cell_length_b	17.038272
_cell_length_c	14.421503
_cell_angle_alpha	89.999401
_cell_angle_beta	89.993068
_cell_angle_gamma	83.355402
loop_
_atom_site_label
_atom_site_type_symbol
_atom_site_fract_x
_atom_site_fract_y
_atom_site_fract_z
O1	O	1.057988	0.028038	0.077116
O2	O	1.391322	0.361371	0.410449
O3	O	1.724655	0.694704	0.743782
O4	O	0.828168	0.056283	0.077117
O5	O	1.161502	0.389616	0.410450
O6	O	1.494835	0.722949	0.743784
O7	O	0.941712	-0.071562	0.077109
O8	O	1.275046	0.261772	0.410442
O9	O	1.608379	0.595105	0.743776
O10	O	0.944444	0.155882	0.077124
O11	O	1.277778	0.489215	0.410457
O12	O	1.611111	0.822549	0.743790
O13	O	0.941728	-0.071555	-0.077114
O14	O	1.275061	0.261778	0.256219
O15	O	1.608394	0.595112	0.589552
O16	O	0.828184	0.056289	-0.077106
O17	O	1.161517	0.389623	0.256227
O18	O	1.494850	0.722956	0.589560
O19	O	1.058004	0.028044	-0.077108
O20	O	1.391337	0.361378	0.256226
O21	O	1.724670	0.694711	0.589559
Cu22	Cu	0.943095	0.042167	-0.091189
Cu23	Cu	1.276428	0.375501	0.242145
Cu24	Cu	1.609762	0.708834	0.575478
Cu25	Cu	0.943077	0.042159	0.091198
Cu26	Cu	1.276410	0.375493	0.424532
Cu27	Cu	1.609744	0.708826	0.757865
O28	O	0.944460	0.155889	-0.077100
O29	O	1.277793	0.489222	0.256234
O30	O	1.611126	0.822555	0.589567
C31	C	0.798625	0.057803	0.000006
C32	C	1.131958	0.391136	0.333339
C33	C	1.465292	0.724470	0.666672
C34	C	0.710572	0.062314	0.000006
C35	C	1.043905	0.395647	0.333339
C36	C	1.377238	0.728981	0.666673
C37	C	0.673845	-0.007108	-0.000000
C38	C	1.007179	0.326226	0.333333
C39	C	1.340512	0.659559	0.666666
C40	C	0.591110	-0.002864	0.000007
C41	C	0.924443	0.330469	0.333340
C42	C	1.257776	0.663802	0.666673
C43	C	0.545102	0.070802	0.000013
C44	C	0.878435	0.404135	0.333346
C45	C	1.211769	0.737468	0.666680
C46	C	0.581834	0.140229	0.000022
C47	C	0.915167	0.473562	0.333355
C48	C	1.248500	0.806895	0.666689
C49	C	0.664568	0.135985	0.000022
C50	C	0.997901	0.469318	0.333355
C51	C	1.331235	0.802651	0.666688
C52	C	0.295066	0.087196	0.000020
C53	C	0.628399	0.420529	0.333354
C54	C	0.961733	0.753862	0.666687
C55	C	0.212327	0.091434	0.000018
C56	C	0.545660	0.424768	0.333351
C57	C	0.878993	0.758101	0.666685
C58	C	0.221608	-0.051659	0.000004
C59	C	0.554942	0.281674	0.333338
C60	C	0.888275	0.615008	0.666671
C61	C	0.304344	-0.055897	-0.000002
C62	C	0.637677	0.277437	0.333332
C63	C	0.971010	0.610770	0.666665
C64	C	0.341068	0.013530	0.000012
C65	C	0.674402	0.346864	0.333346
C66	C	1.007735	0.680197	0.666679
C67	C	0.460533	0.075141	0.000017
C68	C	0.793866	0.408474	0.333351
C69	C	1.127199	0.741808	0.666684
C70	C	0.425636	0.009190	0.000015
C71	C	0.758969	0.342524	0.333348
C72	C	1.092303	0.675857	0.666681
C73	C	0.939235	-0.100516	-0.000002
C74	C	1.272569	0.232817	0.333331
C75	C	1.605902	0.566150	0.666664
C76	C	0.931823	-0.186802	-0.000002
C77	C	1.265156	0.146532	0.333331
C78	C	1.598489	0.479865	0.666665
C79	C	0.999881	-0.241577	-0.000003
C80	C	1.333214	0.091756	0.333330
C81	C	1.666548	0.425090	0.666663
C82	C	0.992911	-0.322650	0.000005
C83	C	1.326245	0.010683	0.333339
C84	C	1.659578	0.344016	0.666672
C85	C	0.917882	-0.348946	0.000009
C86	C	1.251216	-0.015613	0.333342
C87	C	1.584549	0.317720	0.666676
C88	C	0.849819	-0.294164	0.000013
C89	C	1.183152	0.039169	0.333346
C90	C	1.516485	0.372503	0.666680
C91	C	0.856789	-0.213093	0.000011
C92	C	1.190123	0.120241	0.333344
C93	C	1.523456	0.453574	0.666678
C94	C	0.893256	-0.593018	0.000022
C95	C	1.226590	-0.259684	0.333355
C96	C	1.559923	0.073649	0.666688
C97	C	0.886291	-0.674096	0.000021
C98	C	1.219624	-0.340763	0.333355
C99	C	1.552958	-0.007429	0.666688
C100	C	1.029384	-0.702577	0.000015
C101	C	1.362718	-0.369243	0.333349
C102	C	1.696051	-0.035910	0.666682
C103	C	1.036348	-0.621502	0.000007
C104	C	1.369682	-0.288169	0.333341
C105	C	1.703015	0.045164	0.666674
C106	C	0.968285	-0.566727	0.000016
C107	C	1.301618	-0.233394	0.333350
C108	C	1.634951	0.099940	0.666683
C109	C	0.910756	-0.431816	0.000015
C110	C	1.244089	-0.098483	0.333348
C111	C	1.577423	0.234851	0.666682
C112	C	0.975411	-0.483859	0.000017
C113	C	1.308745	-0.150526	0.333350
C114	C	1.642078	0.182807	0.666684
C115	C	1.087547	0.026524	0.000006
C116	C	1.420880	0.359857	0.333339
C117	C	1.754214	0.693191	0.666673
C118	C	1.175600	0.022013	0.000012
C119	C	1.508934	0.355346	0.333345
C120	C	1.842267	0.688679	0.666679
C121	C	0.946936	0.184843	0.000014
C122	C	1.280270	0.518177	0.333347
C123	C	1.613603	0.851510	0.666681
C124	C	0.954349	0.271129	0.000020
C125	C	1.287683	0.604462	0.333353
C126	C	1.621016	0.937795	0.666686
N127	N	0.943113	0.042172	-0.219470
N128	N	1.276447	0.375505	0.113863
N129	N	1.609780	0.708839	0.447197
C130	C	0.995628	-0.016956	-0.469103
C131	C	1.328961	0.316377	-0.135769
C132	C	1.662294	0.649711	0.197564
C133	C	0.923017	-0.027148	-0.530900
C134	C	1.256350	0.306185	-0.197567
C135	C	1.589684	0.639518	0.135766
C136	C	0.943095	0.042164	-0.408631
C137	C	1.276428	0.375497	-0.075298
C138	C	1.609762	0.708831	0.258035
C139	C	1.015686	0.052312	-0.530928
C140	C	1.349019	0.385645	-0.197594
C141	C	1.682353	0.718979	0.135739
C142	C	0.943084	0.042154	-0.591353
C143	C	1.276417	0.375487	-0.258020
C144	C	1.609750	0.708820	0.075314
C145	C	0.870446	0.031939	-0.469068
C146	C	1.203779	0.365273	-0.135735
C147	C	1.537113	0.698606	0.197598
C148	C	0.963164	0.111427	-0.469090
C149	C	1.296497	0.444760	-0.135757
C150	C	1.629831	0.778094	0.197576
C151	C	0.890504	0.101268	-0.530860
C152	C	1.223837	0.434601	-0.197527
C153	C	1.557170	0.767935	0.135807
C154	C	0.943103	0.042168	-0.303370
C155	C	1.276436	0.375501	0.029963
C156	C	1.609769	0.708834	0.363296
C157	C	0.943068	0.042151	-0.696612
C158	C	1.276401	0.375485	-0.363278
C159	C	1.609735	0.708818	-0.029945
N160	N	0.943064	0.042148	0.219480
N161	N	1.276398	0.375482	0.552813
N162	N	1.609731	0.708815	0.886146
H163	H	0.324957	0.143728	0.000038
H164	H	0.658290	0.477061	0.333371
H165	H	0.991624	0.810394	0.666705
Br166	Br	0.816370	0.184604	-0.575774
Br167	Br	1.149703	0.517937	-0.242440
Br168	Br	1.483037	0.851271	0.090893
H169	H	0.544368	0.200209	0.000033
H170	H	0.877701	0.533542	0.333367
H171	H	1.211034	0.866876	0.666700
Br172	Br	0.768087	0.017512	-0.423978
Br173	Br	1.101420	0.350845	-0.090644
Br174	Br	1.434753	0.684179	0.242689
H175	H	0.341798	-0.115883	-0.000011
H176	H	0.675132	0.217450	0.333322
H177	H	1.008465	0.550783	0.666656
Br178	Br	0.800883	-0.518690	0.000040
Br179	Br	1.134217	-0.185357	0.333373
Br180	Br	1.467550	0.147977	0.666707
H181	H	1.036500	-0.462446	0.000035
H182	H	1.369833	-0.129112	0.333368
H183	H	1.703166	0.204221	0.666701
H184	H	1.060978	-0.220174	-0.000012
H185	H	1.394311	0.113159	0.333321
H186	H	1.727644	0.446492	0.666655
Br187	Br	1.118010	0.066625	-0.576226
Br188	Br	1.451343	0.399958	-0.242892
Br189	Br	1.784676	0.733292	0.090441
H190	H	0.980170	0.169985	-0.441920
H191	H	1.313503	0.503318	-0.108586
H192	H	1.646837	0.836651	0.224747
Br193	Br	0.747992	-0.329850	0.000033
Br194	Br	1.081325	0.003483	0.333367
Br195	Br	1.414659	0.336816	0.666700
Br196	Br	0.714412	0.230204	0.000038
Br197	Br	1.047745	0.563537	0.333372
Br198	Br	1.381078	0.896870	0.666705
H199	H	0.711300	-0.067095	-0.000009
H200	H	1.044633	0.266239	0.333324
H201	H	1.377966	0.599572	0.666657
Br202	Br	1.085281	-0.396987	0.000004
Br203	Br	1.418614	-0.063653	0.333337
Br204	Br	1.751948	0.269680	0.666670
H205	H	0.561211	-0.059395	0.000002
H206	H	0.894545	0.273939	0.333336
H207	H	1.227878	0.607272	0.666669
H208	H	1.040001	-0.066974	-0.441985
H209	H	1.373334	0.266359	-0.108652
H210	H	1.706667	0.599692	0.224682
Br211	Br	0.894698	-0.124781	-0.576142
Br212	Br	1.228031	0.208552	-0.242809
Br213	Br	1.561365	0.541886	0.090524
H214	H	0.191698	-0.108182	0.000004
H215	H	0.525031	0.225151	0.333337
H216	H	0.858365	0.558484	0.666670
H217	H	0.423064	0.135120	0.000021
H218	H	0.756397	0.468453	0.333355
H219	H	1.089731	0.801787	0.666688
H220	H	1.097445	-0.600099	0.000004
H221	H	1.430778	-0.266766	0.333338
H222	H	1.764111	0.066568	0.666671
H223	H	1.084797	-0.747183	0.000010
H224	H	1.418131	-0.413849	0.333343
H225	H	1.751464	-0.080516	0.666676
Br226	Br	0.784459	-0.709782	0.000016
Br227	Br	1.117792	-0.376449	0.333350
Br228	Br	1.451126	-0.043116	0.666683
H229	H	0.174868	0.151425	0.000019
H230	H	0.508202	0.484759	0.333352
H231	H	0.841535	0.818092	0.666685
H232	H	0.463099	-0.050788	0.000015
H233	H	0.796432	0.282545	0.333348
H234	H	1.129766	0.615879	0.666682
H235	H	0.801369	-0.168494	0.000012
H236	H	1.134702	0.164839	0.333345
H237	H	1.468035	0.498173	0.666679
H238	H	0.849667	-0.453235	0.000016
H239	H	1.183000	-0.119902	0.333349
H240	H	1.516334	0.213432	0.666683
