data_functionalizedCrystal
_audit_creation_method	'MofGen! by Chris Wilmer'
_symmetry_space_group_name_H-M	'P1'
_symmetry_Int_Tables_number	1
_symmetry_cell_setting	triclinic
loop_
_symmetry_equiv_pos_as_xyz
  x,y,z
_cell_length_a	15.995292
_cell_length_b	15.995292
_cell_length_c	14.472310
_cell_angle_alpha	90.002121
_cell_angle_beta	89.985801
_cell_angle_gamma	83.468616
loop_
_atom_site_label
_atom_site_type_symbol
_atom_site_fract_x
_atom_site_fract_y
_atom_site_fract_z
O1	O	1.111004	0.107692	-0.076859
O2	O	0.867220	0.121071	-0.076855
O3	O	0.995801	-0.007511	-0.076859
O4	O	0.982423	0.236274	-0.076856
O5	O	0.995768	-0.007504	0.076823
O6	O	0.867187	0.121078	0.076827
O7	O	1.110971	0.107699	0.076823
Cu8	Cu	0.989076	0.114389	0.090857
Cu9	Cu	0.989115	0.114381	-0.090889
O10	O	0.982390	0.236281	0.076826
C11	C	0.836008	0.120530	-0.000013
C12	C	0.743055	0.118898	-0.000012
C13	C	0.405318	0.112896	-0.000022
C14	C	0.428611	0.205703	-0.000364
C15	C	0.525286	0.207467	-0.000014
C16	C	0.572873	0.115874	-0.000018
C17	C	0.543762	0.069479	0.087738
C18	C	0.446972	0.068362	0.087808
C19	C	0.447154	0.066458	-0.086957
C20	C	0.543646	0.069898	-0.088113
C21	C	0.667569	0.117552	-0.000012
C22	C	0.310622	0.111215	-0.000022
C23	C	0.995240	-0.038703	-0.000020
C24	C	0.993608	-0.131655	-0.000027
C25	C	0.987607	-0.469393	-0.000018
C26	C	1.080413	-0.446100	0.000323
C27	C	1.082177	-0.349424	-0.000026
C28	C	0.990584	-0.301837	-0.000022
C29	C	0.944204	-0.330933	-0.087778
C30	C	0.943087	-0.427723	-0.087848
C31	C	0.941154	-0.427571	0.086917
C32	C	0.944593	-0.331080	0.088073
C33	C	0.992263	-0.207141	-0.000027
C34	C	0.985926	-0.564088	-0.000019
C35	C	1.142183	0.108240	-0.000021
C36	C	1.235136	0.109873	-0.000028
C37	C	0.982951	0.267473	-0.000014
C38	C	0.984583	0.360426	-0.000013
N39	N	0.989055	0.114395	0.218688
N40	N	0.989143	0.114368	-0.218720
C41	C	0.989114	0.114377	0.592779
C42	C	0.920082	0.182948	0.553616
C43	C	0.920241	0.183198	0.446527
C44	C	0.989084	0.114386	0.407188
C45	C	1.076447	0.133450	0.446024
C46	C	1.076059	0.133938	0.553146
C47	C	0.971563	0.026539	0.553308
C48	C	0.969559	0.027125	0.446181
C49	C	0.989072	0.114390	0.302300
C50	C	0.989131	0.114376	0.697668
H51	H	0.543668	0.244027	0.063001
H52	H	0.562223	0.103678	-0.153035
H53	H	0.420134	0.100499	0.153410
H54	H	0.875041	-0.442259	-0.091821
H55	H	0.576632	0.003044	-0.093416
Br56	Br	0.867672	-0.004007	0.598390
Br57	Br	1.164114	0.052420	0.403557
H58	H	0.905294	0.012657	0.420799
Br59	Br	1.101842	0.240706	0.594780
Br60	Br	1.047929	-0.061910	0.401568
H61	H	0.872841	-0.441548	0.087511
Br62	Br	0.811988	0.164330	0.402762
H63	H	1.092286	0.196779	0.419187
H64	H	1.116172	-0.474101	0.063257
H65	H	1.116000	-0.475128	-0.062259
Br66	Br	1.055468	-0.058512	0.595515
Br67	Br	0.423864	-0.047401	-0.087948
Br68	Br	0.399964	0.114808	-0.197821
H69	H	0.931447	0.248382	0.420894
Br70	Br	0.557012	0.268023	-0.104865
H71	H	0.970367	-0.455663	0.153436
Br72	Br	0.381961	0.265327	-0.105261
H73	H	1.129031	0.085962	0.579050
H74	H	0.854932	0.171780	0.579404
H75	H	0.399571	0.241280	0.062217
H76	H	0.432435	0.000316	0.091792
Br77	Br	1.143122	-0.318759	-0.105063
Br78	Br	1.142696	-0.317714	0.104838
Br79	Br	0.596886	-0.042864	0.093171
Br80	Br	1.000873	-0.300136	0.196285
H81	H	0.563800	0.101704	0.153049
Br82	Br	0.831867	-0.277794	-0.093221
Br83	Br	0.996674	-0.472441	-0.197186
H84	H	0.976439	-0.310882	-0.153089
H85	H	0.931133	0.247765	0.580526
Br86	Br	0.833160	-0.276108	0.096916
