data_functionalizedCrystal
_audit_creation_method	'MofGen! by Chris Wilmer'
_symmetry_space_group_name_H-M	'P1'
_symmetry_Int_Tables_number	1
_symmetry_cell_setting	triclinic
loop_
_symmetry_equiv_pos_as_xyz
  x,y,z
_cell_length_a	12.759395
_cell_length_b	15.299816
_cell_length_c	15.299447
_cell_angle_alpha	88.361667
_cell_angle_beta	80.306453
_cell_angle_gamma	80.350115
loop_
_atom_site_label
_atom_site_type_symbol
_atom_site_fract_x
_atom_site_fract_y
_atom_site_fract_z
Zn1	Zn	1.771192	-0.262913	-0.555588
Zn2	Zn	1.781266	-0.434702	-0.434487
Zn3	Zn	1.571083	-0.288288	-0.409143
Zn4	Zn	1.630065	-0.409306	-0.580913
O5	O	1.688401	-0.348802	-0.495033
O6	O	1.919552	-0.285710	-0.539531
O7	O	1.732917	-0.436527	-0.308557
O8	O	1.568727	-0.162381	-0.407365
O9	O	1.926954	-0.411922	-0.450559
O10	O	1.715746	-0.143738	-0.514957
O11	O	1.578496	-0.328958	-0.289938
O12	O	1.431883	-0.304333	-0.431921
O13	O	1.669254	-0.368639	-0.700121
O14	O	1.475217	-0.393244	-0.558119
O15	O	1.772939	-0.261085	-0.681515
O16	O	1.790109	-0.553874	-0.475115
O17	O	1.679023	-0.535216	-0.582694
C18	C	1.415428	-0.348787	-0.495019
C19	C	1.298657	-0.348798	-0.495037
C20	C	1.742091	-0.576315	-0.534422
C21	C	1.765161	-0.673640	-0.551302
C22	C	1.291003	-0.217522	-0.587897
C23	C	1.232319	-0.151894	-0.634336
C24	C	1.122603	-0.151908	-0.634349
C25	C	1.071568	-0.217555	-0.587917
C26	C	1.130252	-0.283183	-0.541478
C27	C	1.239971	-0.283164	-0.541472
C28	C	1.137904	-0.414453	-0.448615
C29	C	1.247622	-0.414445	-0.448605
C30	C	1.086869	-0.480101	-0.402182
C31	C	1.145555	-0.545734	-0.355748
C32	C	1.255278	-0.545718	-0.355737
C33	C	1.306306	-0.480073	-0.402166
C34	C	1.524257	-0.987131	-0.374686
C35	C	1.502577	-0.895689	-0.358828
C36	C	1.568221	-0.840172	-0.406945
C37	C	1.655549	-0.876107	-0.470922
C38	C	1.677226	-0.967558	-0.486787
C39	C	1.721190	-0.820599	-0.519046
C40	C	1.808519	-0.856534	-0.583023
C41	C	1.830192	-0.947976	-0.598884
C42	C	1.764548	-1.003492	-0.550767
C43	C	1.699513	-0.729148	-0.503182
C44	C	1.852483	-0.709575	-0.615282
C45	C	1.874163	-0.801017	-0.631140
C46	C	1.962441	-0.348818	-0.495047
C47	C	2.079220	-0.348825	-0.495053
C48	C	1.726552	-0.309199	-0.723487
C49	C	1.742809	-0.292322	-0.820840
C50	C	1.634534	-0.120398	-0.455509
C51	C	1.611578	-0.023066	-0.438666
C52	C	1.572706	-0.468743	-1.134013
C53	C	1.557420	-0.484595	-1.042544
C54	C	1.603766	-0.436529	-0.987114
C55	C	1.665401	-0.372607	-1.023162
C56	C	1.680681	-0.356748	-1.114639
C57	C	1.711741	-0.324534	-0.967739
C58	C	1.773376	-0.260612	-1.003787
C59	C	1.788654	-0.244757	-1.095256
C60	C	1.742308	-0.292823	-1.150686
C61	C	1.696461	-0.340392	-0.876262
C62	C	1.804436	-0.228397	-0.856888
C63	C	1.819722	-0.212545	-0.948357
C64	C	1.650445	-0.388188	-0.267456
C65	C	1.634333	-0.404818	-0.170060
H66	H	1.380338	-0.217501	-0.587886
C67	C	0.966178	-0.480113	-0.402197
N68	N	0.875273	-0.480125	-0.402211
H69	H	1.945266	-0.830289	-0.683232
C70	C	0.950875	-0.217560	-0.587927
N71	N	0.859967	-0.217565	-0.587934
H72	H	1.273884	-0.098444	-0.672138
C73	C	1.628669	-0.410708	-0.836621
N74	N	1.577607	-0.463676	-0.806765
C75	C	1.058049	-0.079714	-0.685434
N76	N	1.009428	-0.025339	-0.723913
C77	C	1.544373	-0.739584	-0.389495
N78	N	1.526411	-0.663817	-0.376345
H79	H	1.534973	-0.507869	-1.179151
H80	H	1.103992	-0.599176	-0.317942
H81	H	1.754755	-0.279923	-1.225169
H82	H	1.303051	-0.599158	-0.317917
H83	H	1.782198	-1.077954	-0.563672
H84	H	1.395641	-0.480050	-0.402157
C85	C	1.856445	-0.174435	-1.134905
N86	N	1.907506	-0.121468	-1.164766
H87	H	1.628410	-0.699898	-0.451091
H88	H	1.869905	-0.160499	-0.977720
C89	C	1.855422	-0.175521	-0.795918
N90	N	1.893821	-0.135698	-0.749991
H91	H	1.470814	-1.032339	-0.335520
H92	H	1.431474	-0.866434	-0.306739
C93	C	1.489618	-0.554903	-1.002897
N94	N	1.438544	-0.607861	-0.973035
C95	C	1.924698	-0.648510	-0.668213
N96	N	1.979086	-0.602511	-0.708077
H97	H	1.901297	-0.977230	-0.650982
H98	H	1.591318	-0.449440	-0.912636
