data_functionalizedCrystal
_audit_creation_method	'MofGen! by Chris Wilmer'
_symmetry_space_group_name_H-M	'P1'
_symmetry_Int_Tables_number	1
_symmetry_cell_setting	triclinic
loop_
_symmetry_equiv_pos_as_xyz
  x,y,z
_cell_length_a	11.169417
_cell_length_b	18.215405
_cell_length_c	11.169409
_cell_angle_alpha	90.036788
_cell_angle_beta	90.019824
_cell_angle_gamma	90.023610
loop_
_atom_site_label
_atom_site_type_symbol
_atom_site_fract_x
_atom_site_fract_y
_atom_site_fract_z
Zn1	Zn	1.834859	-0.292907	0.678506
Zn2	Zn	2.168192	0.040426	1.011839
Zn3	Zn	2.501526	0.373759	1.345172
Zn4	Zn	1.834705	-0.415999	0.477807
Zn5	Zn	2.168038	-0.082665	0.811140
Zn6	Zn	2.501372	0.250668	1.144474
Zn7	Zn	1.634145	-0.292952	0.477840
Zn8	Zn	1.967478	0.040381	0.811173
Zn9	Zn	2.300812	0.373714	1.144507
Zn10	Zn	1.634109	-0.415939	0.678452
Zn11	Zn	1.967442	-0.082605	1.011785
Zn12	Zn	2.300776	0.250728	1.345118
O13	O	1.734454	-0.354449	0.578151
O14	O	2.067788	-0.021116	0.911484
O15	O	2.401121	0.312217	1.244818
O16	O	2.002788	-0.309242	0.651891
O17	O	2.336122	0.024091	0.985225
O18	O	2.669455	0.357425	1.318558
O19	O	1.808051	-0.399720	0.309861
O20	O	2.141384	-0.066387	0.643195
O21	O	2.474717	0.266947	0.976528
O22	O	1.660850	-0.189962	0.504495
O23	O	1.994183	0.143371	0.837828
O24	O	2.327516	0.476705	1.171162
O25	O	2.002675	-0.399677	0.504439
O26	O	2.336008	-0.066343	0.837772
O27	O	2.669342	0.266990	1.171105
O28	O	1.808313	-0.189929	0.651923
O29	O	2.141647	0.143404	0.985257
O30	O	2.474980	0.476738	1.318590
O31	O	1.660700	-0.309318	0.309886
O32	O	1.994033	0.024015	0.643219
O33	O	2.327367	0.357348	0.976552
O34	O	1.466190	-0.309260	0.504443
O35	O	1.799524	0.024073	0.837776
O36	O	2.132857	0.357406	1.171110
O37	O	1.660788	-0.399574	0.846409
O38	O	1.994122	-0.066241	1.179742
O39	O	2.327455	0.267092	1.513075
O40	O	1.466164	-0.399618	0.651832
O41	O	1.799497	-0.066285	0.985165
O42	O	2.132831	0.267049	1.318498
O43	O	1.808279	-0.309184	0.846448
O44	O	2.141612	0.024149	1.179782
O45	O	2.474945	0.357483	1.513115
O46	O	1.808016	-0.518975	0.504387
O47	O	2.141349	-0.185642	0.837720
O48	O	2.474683	0.147692	1.171053
O49	O	1.660639	-0.518931	0.651799
O50	O	1.993972	-0.185598	0.985133
O51	O	2.327306	0.147736	1.318466
C52	C	1.422630	-0.354438	0.578136
C53	C	1.755963	-0.021105	0.911469
C54	C	2.089296	0.312229	1.244802
C55	C	1.289230	-0.354451	0.578157
C56	C	1.622563	-0.021118	0.911491
C57	C	1.955896	0.312216	1.244824
C58	C	1.734339	-0.545656	0.578110
C59	C	2.067673	-0.212322	0.911443
C60	C	2.401006	0.121011	1.244776
C61	C	1.734400	-0.627454	0.578132
C62	C	2.067733	-0.294121	0.911465
C63	C	2.401067	0.039212	1.244799
C64	C	1.811221	-0.815570	0.655002
C65	C	2.144554	-0.482237	0.988335
C66	C	2.477888	-0.148903	1.321669
C67	C	1.811264	-0.892429	0.655024
C68	C	2.144598	-0.559096	0.988358
C69	C	2.477931	-0.225762	1.321691
C70	C	1.657836	-0.892576	0.501375
C71	C	1.991170	-0.559243	0.834708
C72	C	2.324503	-0.225910	1.168041
C73	C	1.657788	-0.815719	0.501359
C74	C	1.991121	-0.482386	0.834692
C75	C	2.324454	-0.149052	1.168026
C76	C	1.734487	-0.777218	0.578171
C77	C	2.067820	-0.443885	0.911504
C78	C	2.401153	-0.110551	1.244838
C79	C	1.734579	-0.930934	0.578209
C80	C	2.067912	-0.597601	0.911542
C81	C	2.401246	-0.264267	1.244876
C82	C	1.734626	-1.014268	0.578233
C83	C	2.067959	-0.680934	0.911566
C84	C	2.401292	-0.347601	1.244899
C85	C	1.734439	-0.693879	0.578149
C86	C	2.067772	-0.360546	0.911482
C87	C	2.401105	-0.027212	1.244816
C88	C	2.047497	-0.354461	0.578167
C89	C	2.380830	-0.021128	0.911501
C90	C	2.714163	0.312206	1.244834
C91	C	2.180897	-0.354466	0.578174
C92	C	2.514230	-0.021133	0.911507
C93	C	2.847563	0.312201	1.244841
C94	C	1.734547	-0.354368	0.891194
C95	C	2.067880	-0.021034	1.224527
C96	C	2.401213	0.312299	1.557860
C97	C	1.734586	-0.354333	1.024594
C98	C	2.067919	-0.020999	1.357927
C99	C	2.401253	0.312334	1.691260
C100	C	1.734603	-0.162496	0.578219
C101	C	2.067936	0.170837	0.911552
C102	C	2.401269	0.504170	1.244886
C103	C	1.734666	-0.080697	0.578248
C104	C	2.067999	0.252636	0.911581
C105	C	2.401332	0.585969	1.244914
C106	C	1.734432	-0.354478	0.266326
C107	C	2.067765	-0.021144	0.599660
C108	C	2.401098	0.312189	0.932993
C109	C	1.734625	-0.354305	0.132927
C110	C	2.067958	-0.020972	0.466260
C111	C	2.401292	0.312362	0.799594
H112	H	1.873672	-0.784224	0.717549
H113	H	2.207006	-0.450891	1.050882
H114	H	2.540339	-0.117558	1.384215
H115	H	1.595393	-0.923933	0.438835
H116	H	1.928726	-0.590600	0.772168
H117	H	2.262059	-0.257267	1.105502
H118	H	1.595296	-0.784490	0.438794
H119	H	1.928629	-0.451157	0.772127
H120	H	2.261962	-0.117824	1.105460
H121	H	1.873747	-0.923652	0.717591
H122	H	2.207080	-0.590319	1.050924
H123	H	2.540413	-0.256985	1.384257
