data_functionalizedCrystal
_audit_creation_method	'MofGen! by Chris Wilmer'
_symmetry_space_group_name_H-M	'P1'
_symmetry_Int_Tables_number	1
_symmetry_cell_setting	triclinic
loop_
_symmetry_equiv_pos_as_xyz
  x,y,z
_cell_length_a	9.065218
_cell_length_b	18.266242
_cell_length_c	9.065218
_cell_angle_alpha	89.996786
_cell_angle_beta	94.984115
_cell_angle_gamma	90.009009
loop_
_atom_site_label
_atom_site_type_symbol
_atom_site_fract_x
_atom_site_fract_y
_atom_site_fract_z
O1	O	1.960411	0.060880	-0.216357
O2	O	1.531126	0.060880	-0.234103
O3	O	1.754642	0.060878	-0.010588
O4	O	1.736895	0.060881	-0.439872
O5	O	1.754603	-0.060884	-0.010581
O6	O	1.531088	-0.060882	-0.234096
O7	O	1.960372	-0.060882	-0.216350
Zn8	Zn	1.745724	-0.080214	-0.225222
Zn9	Zn	1.745775	0.080212	-0.225231
O10	O	1.736857	-0.060881	-0.439865
C11	C	1.476120	-0.000001	-0.232394
C12	C	1.312277	-0.000000	-0.227294
N13	N	1.745700	-0.189701	-0.225215
C14	C	1.836373	-0.228004	-0.315964
C15	C	1.836397	-0.304648	-0.315960
C16	C	1.745721	-0.342988	-0.225224
C17	C	1.655042	-0.304677	-0.134457
C18	C	1.655031	-0.228033	-0.134452
N19	N	1.616428	-0.463341	-0.219467
N20	N	1.616442	-0.536149	-0.219480
C21	C	1.745751	-0.573911	-0.225230
N22	N	1.875046	-0.536114	-0.230995
N23	N	1.875030	-0.463299	-0.230990
C24	C	1.745724	-0.426095	-0.225218
C25	C	1.836458	-0.695320	-0.315979
C26	C	1.836486	-0.771966	-0.315965
C27	C	1.655117	-0.771993	-0.134471
C28	C	1.655103	-0.695348	-0.134477
C29	C	1.745771	-0.657016	-0.225239
C30	C	2.015378	0.000000	-0.218059
C31	C	2.179221	0.000004	-0.223158
C32	C	1.752917	-0.000001	0.044403
C33	C	1.747817	0.000002	0.208245
N34	N	1.745810	0.189699	-0.225227
C35	C	1.738582	0.000001	-0.494855
C36	C	1.743681	0.000002	-0.658698
H37	H	1.910208	-0.196798	-0.389864
H38	H	1.910333	-0.803151	-0.389860
H39	H	1.910287	-0.664108	-0.389883
H40	H	1.910235	-0.335840	-0.389862
H41	H	1.581288	-0.803209	-0.060590
H42	H	1.581191	-0.196848	-0.060552
N43	N	1.557248	-0.346023	-0.036582
H44	H	1.571011	-0.400389	-0.050357
H45	H	1.450323	-0.332636	-0.064232
N46	N	1.557301	-0.654031	-0.036600
H47	H	1.499860	-0.689946	0.020883
H48	H	1.486022	-0.622235	-0.099928
