data_functionalizedCrystal
_audit_creation_method	'MofGen! by Chris Wilmer'
_symmetry_space_group_name_H-M	'P1'
_symmetry_Int_Tables_number	1
_symmetry_cell_setting	triclinic
loop_
_symmetry_equiv_pos_as_xyz
  x,y,z
_cell_length_a	21.395362
_cell_length_b	18.050589
_cell_length_c	21.395356
_cell_angle_alpha	89.977426
_cell_angle_beta	89.964122
_cell_angle_gamma	90.044101
loop_
_atom_site_label
_atom_site_type_symbol
_atom_site_fract_x
_atom_site_fract_y
_atom_site_fract_z
Zn1	Zn	0.957820	-0.295360	-0.354610
Zn2	Zn	1.457820	0.204640	0.145390
Zn3	Zn	0.957742	-0.419553	-0.249843
Zn4	Zn	1.457742	0.080447	0.250157
Zn5	Zn	0.853050	-0.295415	-0.249811
Zn6	Zn	1.353050	0.204585	0.250189
Zn7	Zn	0.853009	-0.419547	-0.354547
Zn8	Zn	1.353009	0.080453	0.145453
O9	O	0.905406	-0.357469	-0.302203
O10	O	1.405406	0.142531	0.197797
O11	O	1.045488	-0.311813	-0.340752
O12	O	1.545488	0.188187	0.159248
O13	O	0.943839	-0.403111	-0.162161
O14	O	1.443839	0.096889	0.337839
O15	O	0.866998	-0.191483	-0.263726
O16	O	1.366998	0.308517	0.236274
O17	O	1.045431	-0.403057	-0.263780
O18	O	1.545431	0.096943	0.236220
O19	O	0.943972	-0.191443	-0.340721
O20	O	1.443972	0.308557	0.159279
O21	O	0.866922	-0.311908	-0.162138
O22	O	1.366922	0.188092	0.337862
O23	O	0.765367	-0.311903	-0.263665
O24	O	1.265367	0.188097	0.236335
O25	O	0.866928	-0.403048	-0.442234
O26	O	1.366928	0.096952	0.057766
O27	O	0.765337	-0.403101	-0.340615
O28	O	1.265337	0.096899	0.159385
O29	O	0.943933	-0.311808	-0.442280
O30	O	1.443933	0.188192	0.057720
O31	O	0.943799	-0.523476	-0.263719
O32	O	1.443799	-0.023476	0.236281
O33	O	0.866852	-0.523472	-0.340645
O34	O	1.366852	-0.023472	0.159355
C35	C	0.742618	-0.357508	-0.302130
C36	C	1.242618	0.142492	0.197870
C37	C	0.672977	-0.357543	-0.302114
C38	C	1.172977	0.142457	0.197886
C39	C	0.640264	-0.405093	-0.342121
C40	C	1.140264	0.094907	0.157879
C41	C	0.574829	-0.405075	-0.342149
C42	C	1.074829	0.094925	0.157851
C43	C	0.542108	-0.357514	-0.302159
C44	C	1.042108	0.142486	0.197841
C45	C	0.574829	-0.309955	-0.262148
C46	C	1.074829	0.190045	0.237852
C47	C	0.640263	-0.309969	-0.262126
C48	C	1.140263	0.190031	0.237874
C49	C	0.438391	-0.351543	-0.245753
C50	C	0.938391	0.148457	0.254247
C51	C	0.372958	-0.351533	-0.245774
C52	C	0.872958	0.148467	0.254226
C53	C	0.340288	-0.357466	-0.302228
C54	C	0.840288	0.142534	0.197772
C55	C	0.373058	-0.363422	-0.358662
C56	C	0.873058	0.136578	0.141338
C57	C	0.438492	-0.363437	-0.358640
C58	C	0.938492	0.136563	0.141360
C59	C	0.471156	-0.357493	-0.302179
C60	C	0.971156	0.142507	0.197821
C61	C	0.236623	-0.404999	-0.342269
C62	C	0.736623	0.095001	0.157731
C63	C	0.171186	-0.404975	-0.342298
C64	C	0.671186	0.095025	0.157702
C65	C	0.171187	-0.309859	-0.262291
C66	C	0.671187	0.190141	0.237709
C67	C	0.236622	-0.309878	-0.262268
C68	C	0.736622	0.190122	0.237732
C69	C	0.269336	-0.357452	-0.302256
C70	C	0.769336	0.142548	0.197744
C71	C	0.905330	-0.550421	-0.302192
C72	C	1.405330	-0.050421	0.197808
C73	C	0.905355	-0.632967	-0.302209
C74	C	1.405355	-0.132967	0.197791
C75	C	0.863552	-0.832442	-0.344027
C76	C	1.363552	-0.332442	0.155973
C77	C	0.848282	-0.881886	-0.286848
C78	C	1.348282	-0.381886	0.213152
C79	C	0.905416	-0.784097	-0.302217
C80	C	1.405416	-0.284097	0.197783
C81	C	0.920717	-0.881734	-0.359402
C82	C	1.420717	-0.381734	0.140598
C83	C	0.905475	-0.930082	-0.302230
C84	C	1.405475	-0.430082	0.197770
C85	C	0.890116	-0.832454	-0.245009
C86	C	1.390116	-0.332454	0.254991
C87	C	0.962578	-0.832298	-0.317601
C88	C	1.462578	-0.332298	0.182399
C89	C	0.947330	-0.881720	-0.260383
C90	C	1.447330	-0.381720	0.239617
C91	C	0.905381	-0.699999	-0.302211
C92	C	1.405381	-0.199999	0.197789
C93	C	0.905510	-1.014178	-0.302230
C94	C	1.405510	-0.514178	0.197770
C95	C	1.068829	-0.357430	-0.302276
C96	C	1.568829	0.142570	0.197724
C97	C	1.138470	-0.357413	-0.302307
C98	C	1.638470	0.142587	0.197693
C99	C	0.905435	-0.357421	-0.465626
C100	C	1.405435	0.142579	0.034374
C101	C	0.905447	-0.357401	-0.535268
C102	C	1.405447	0.142599	-0.035268
C103	C	0.905499	-0.163763	-0.302227
C104	C	1.405499	0.336237	0.197773
C105	C	0.905538	-0.081217	-0.302237
C106	C	1.405538	0.418783	0.197763
C107	C	0.945602	-0.309774	-1.037089
C108	C	1.445602	0.190226	-0.537089
C109	C	0.945597	-0.309792	-0.971653
C110	C	1.445597	0.190208	-0.471653
C111	C	0.905501	-0.357302	-0.938906
C112	C	1.405501	0.142698	-0.438906
C113	C	0.865417	-0.404811	-0.971600
C114	C	1.365417	0.095189	-0.471600
C115	C	0.865428	-0.404797	-1.037034
C116	C	1.365428	0.095203	-0.537034
C117	C	0.849032	-0.363202	-0.835211
C118	C	1.349032	0.136798	-0.335211
C119	C	0.849020	-0.363210	-0.769778
C120	C	1.349020	0.136790	-0.269778
C121	C	0.905469	-0.357349	-0.737085
C122	C	1.405469	0.142651	-0.237085
C123	C	0.961930	-0.351464	-0.769833
C124	C	1.461930	0.148536	-0.269833
C125	C	0.961941	-0.351450	-0.835267
C126	C	1.461941	0.148550	-0.335267
C127	C	0.905485	-0.357323	-0.867954
C128	C	1.405485	0.142677	-0.367954
C129	C	0.945547	-0.309866	-0.633447
C130	C	1.445547	0.190134	-0.133447
C131	C	0.945543	-0.309889	-0.568010
C132	C	1.445543	0.190111	-0.068010
C133	C	0.865358	-0.404905	-0.567958
C134	C	1.365358	0.095095	-0.067958
C135	C	0.865367	-0.404885	-0.633393
C136	C	1.365367	0.095115	-0.133393
C137	C	0.905461	-0.357362	-0.666134
C138	C	1.405461	0.142638	-0.166134
C139	C	0.905413	-0.357463	-0.139415
C140	C	1.405413	0.142537	0.360585
C141	C	0.905522	-0.357274	-0.069774
C142	C	1.405522	0.142726	0.430226
H143	H	0.346459	-0.368252	-0.404632
H144	H	0.846459	0.131748	0.095368
H145	H	0.263260	-0.443732	-0.374833
H146	H	0.763260	0.056268	0.125167
Cl147	Cl	0.130061	-0.464754	-0.392601
Cl148	Cl	0.630061	0.035246	0.107399
H149	H	0.548183	-0.271229	-0.229589
H150	H	1.048183	0.228771	0.270411
Cl151	Cl	0.130059	-0.250063	-0.212020
Cl152	Cl	0.630059	0.249937	0.287980
H153	H	0.799970	-0.903683	-0.273849
H154	H	1.299970	-0.403683	0.226151
H155	H	0.978252	-0.271080	-1.063742
H156	H	1.478252	0.228920	-0.563742
H157	H	0.832713	-0.443591	-0.541296
H158	H	1.332713	0.056409	-0.041296
H159	H	0.828097	-0.810803	-0.379334
H160	H	1.328097	-0.310803	0.120666
H161	H	0.877142	-0.810896	-0.196640
H162	H	1.377142	-0.310896	0.303360
Cl163	Cl	1.002030	-0.914918	-0.205743
Cl164	Cl	1.502030	-0.414918	0.294257
Cl165	Cl	0.681387	-0.464896	-0.392395
Cl166	Cl	1.181387	0.035104	0.107605
H167	H	0.263257	-0.271162	-0.229686
H168	H	0.763257	0.228838	0.270314
H169	H	0.548189	-0.443795	-0.374731
H170	H	1.048189	0.056205	0.125269
H171	H	0.832727	-0.443562	-0.660006
H172	H	1.332727	0.056438	-0.160006
H173	H	0.346282	-0.346688	-0.199822
H174	H	0.846282	0.153312	0.300178
H175	H	1.010880	-0.810503	-0.330628
H176	H	1.510880	-0.310503	0.169372
Cl177	Cl	0.940662	-0.915160	-0.434057
Cl178	Cl	1.440662	-0.415160	0.065943
Cl179	Cl	0.815037	-0.464516	-1.078126
Cl180	Cl	1.315037	0.035484	-0.578126
H181	H	0.465171	-0.368285	-0.404590
H182	H	0.965171	0.131715	0.095410
H183	H	1.007896	-0.346688	-0.743216
H184	H	1.507896	0.153312	-0.243216
H185	H	0.978235	-0.271109	-0.945036
H186	H	1.478235	0.228891	-0.445036
Cl187	Cl	0.778041	-0.370602	-0.728616
Cl188	Cl	1.278041	0.129398	-0.228616
H189	H	1.007914	-0.346659	-0.861928
H190	H	1.507914	0.153341	-0.361928
Cl191	Cl	0.995938	-0.250111	-0.674610
Cl192	Cl	1.495938	0.249889	-0.174610
Cl193	Cl	0.995938	-0.250174	-0.526919
Cl194	Cl	1.495938	0.249826	-0.026919
Cl195	Cl	0.815012	-0.464540	-0.930432
Cl196	Cl	1.315012	0.035460	-0.430432
H197	H	0.464986	-0.346709	-0.199778
H198	H	0.964986	0.153291	0.300222
Cl199	Cl	0.681389	-0.250187	-0.211826
Cl200	Cl	1.181389	0.249813	0.288174
H201	H	0.803062	-0.367975	-0.861825
H202	H	1.303062	0.132025	-0.361825
