data_functionalizedCrystal
_audit_creation_method	'MofGen! by Chris Wilmer'
_symmetry_space_group_name_H-M	'P1'
_symmetry_Int_Tables_number	1
_symmetry_cell_setting	triclinic
loop_
_symmetry_equiv_pos_as_xyz
  x,y,z
_cell_length_a	16.959455
_cell_length_b	19.121063
_cell_length_c	16.959447
_cell_angle_alpha	92.406624
_cell_angle_beta	89.985678
_cell_angle_gamma	92.465894
loop_
_atom_site_label
_atom_site_type_symbol
_atom_site_fract_x
_atom_site_fract_y
_atom_site_fract_z
Zn1	Zn	1.194915	-0.279656	-0.460312
Zn2	Zn	1.528248	0.053677	-0.126978
Zn3	Zn	1.861582	0.387010	0.206355
Zn4	Zn	1.189180	-0.397117	-0.333763
Zn5	Zn	1.522514	-0.063784	-0.000429
Zn6	Zn	1.855847	0.269550	0.332904
Zn7	Zn	1.062742	-0.279678	-0.328150
Zn8	Zn	1.396076	0.053655	0.005183
Zn9	Zn	1.729409	0.386988	0.338516
Zn10	Zn	1.057053	-0.397064	-0.465899
Zn11	Zn	1.390387	-0.063731	-0.132565
Zn12	Zn	1.723720	0.269602	0.200768
O13	O	1.125973	-0.338379	-0.397031
O14	O	1.459306	-0.005046	-0.063698
O15	O	1.792639	0.328288	0.269636
O16	O	1.304764	-0.295250	-0.443535
O17	O	1.638098	0.038083	-0.110202
O18	O	1.971431	0.371416	0.223131
O19	O	1.172389	-0.381570	-0.222409
O20	O	1.505722	-0.048236	0.110925
O21	O	1.839056	0.285097	0.444258
O22	O	1.085056	-0.181391	-0.340995
O23	O	1.418389	0.151942	-0.007661
O24	O	1.751723	0.485276	0.325672
O25	O	1.300551	-0.381548	-0.350560
O26	O	1.633885	-0.048215	-0.017227
O27	O	1.967218	0.285118	0.316106
O28	O	1.182163	-0.181375	-0.438093
O29	O	1.515496	0.151958	-0.104760
O30	O	1.848829	0.485292	0.228573
O31	O	1.079495	-0.295288	-0.218285
O32	O	1.412829	0.038045	0.115048
O33	O	1.746162	0.371379	0.448381
O34	O	0.951377	-0.295237	-0.346412
O35	O	1.284711	0.038096	-0.013079
O36	O	1.618044	0.371430	0.320254
O37	O	1.075360	-0.381459	-0.575767
O38	O	1.408694	-0.048125	-0.242434
O39	O	1.742027	0.285208	0.090900
O40	O	0.947198	-0.381480	-0.447615
O41	O	1.280531	-0.048147	-0.114282
O42	O	1.613864	0.285187	0.219051
O43	O	1.176646	-0.295199	-0.571662
O44	O	1.509980	0.038134	-0.238329
O45	O	1.843313	0.371467	0.095004
O46	O	1.166873	-0.495394	-0.355978
O47	O	1.500206	-0.162061	-0.022644
O48	O	1.833539	0.171273	0.310689
O49	O	1.069800	-0.495356	-0.453058
O50	O	1.403133	-0.162022	-0.119724
O51	O	1.736466	0.171311	0.213609
C52	C	0.920608	-0.338356	-0.397012
C53	C	1.253941	-0.005022	-0.063678
C54	C	1.587274	0.328311	0.269655
C55	C	0.832751	-0.338363	-0.397023
C56	C	1.166084	-0.005029	-0.063690
C57	C	1.499417	0.328304	0.269644
C58	C	0.463428	-0.293435	-0.344438
C59	C	0.796761	0.039898	-0.011105
C60	C	1.130095	0.373231	0.322229
C61	C	0.459118	-0.383380	-0.449672
C62	C	0.792451	-0.050047	-0.116338
C63	C	1.125784	0.283286	0.216995
C64	C	0.541664	-0.383370	-0.449666
C65	C	0.874997	-0.050037	-0.116333
C66	C	1.208331	0.283296	0.217000
C67	C	0.585096	-0.338393	-0.397045
C68	C	0.918430	-0.005059	-0.063712
C69	C	1.251763	0.328274	0.269621
C70	C	0.545982	-0.293425	-0.344430
C71	C	0.879315	0.039908	-0.011096
C72	C	1.212649	0.373241	0.322237
C73	C	0.580784	-0.428342	-0.502276
C74	C	0.914118	-0.095008	-0.168942
C75	C	1.247451	0.238325	0.164391
C76	C	0.663336	-0.428334	-0.502272
C77	C	0.996669	-0.095001	-0.168938
C78	C	1.330002	0.238333	0.164395
C79	C	0.706770	-0.383353	-0.449654
C80	C	1.040103	-0.050019	-0.116321
C81	C	1.373436	0.283314	0.217013
C82	C	0.667650	-0.338383	-0.397037
C83	C	1.000984	-0.005049	-0.063703
C84	C	1.334317	0.328284	0.269630
C85	C	0.711082	-0.293405	-0.344416
C86	C	1.044416	0.039928	-0.011082
C87	C	1.377749	0.373261	0.322251
C88	C	0.671965	-0.248431	-0.291802
C89	C	1.005298	0.084902	0.041532
C90	C	1.338631	0.418235	0.374865
C91	C	0.589416	-0.248444	-0.291812
C92	C	0.922749	0.084890	0.041522
C93	C	1.256082	0.418223	0.374855
C94	C	0.789319	-0.383340	-0.449644
C95	C	1.122652	-0.050007	-0.116311
C96	C	1.455985	0.283326	0.217023
C97	C	0.793636	-0.293395	-0.344407
C98	C	1.126970	0.039938	-0.011074
C99	C	1.460303	0.373271	0.322259
C100	C	1.117118	-0.520859	-0.405750
C101	C	1.450451	-0.187525	-0.072417
C102	C	1.783785	0.145808	0.260916
C103	C	1.113402	-0.598924	-0.409507
C104	C	1.446735	-0.265591	-0.076174
C105	C	1.780069	0.067742	0.257160
C106	C	1.162236	-0.635597	-0.360769
C107	C	1.495570	-0.302263	-0.027436
C108	C	1.828903	0.031070	0.305897
C109	C	1.158746	-0.708948	-0.364307
C110	C	1.492080	-0.375614	-0.030974
C111	C	1.825413	-0.042281	0.302360
C112	C	1.106417	-0.745625	-0.416579
C113	C	1.439751	-0.412292	-0.083246
C114	C	1.773084	-0.078958	0.250088
C115	C	1.057581	-0.708948	-0.465322
C116	C	1.390914	-0.375614	-0.131988
C117	C	1.724248	-0.042281	0.201345
C118	C	1.061076	-0.635598	-0.461787
C119	C	1.394409	-0.302265	-0.128454
C120	C	1.727742	0.031069	0.204879
C121	C	1.093339	-0.967094	-0.429780
C122	C	1.426673	-0.633760	-0.096447
C123	C	1.760006	-0.300427	0.236886
C124	C	1.089847	-1.040449	-0.433309
C125	C	1.423180	-0.707115	-0.099976
C126	C	1.756513	-0.373782	0.233357
C127	C	1.191013	-1.040443	-0.332295
C128	C	1.524347	-0.707110	0.001038
C129	C	1.857680	-0.373777	0.334371
C130	C	1.194500	-0.967092	-0.328762
C131	C	1.527833	-0.633759	0.004571
C132	C	1.861167	-0.300426	0.337904
C133	C	1.145667	-0.930421	-0.377508
C134	C	1.479000	-0.597088	-0.044175
C135	C	1.812333	-0.263755	0.289159
C136	C	1.102847	-0.820602	-0.420195
C137	C	1.436180	-0.487268	-0.086861
C138	C	1.769514	-0.153935	0.246472
C139	C	1.149242	-0.855446	-0.373896
C140	C	1.482575	-0.522113	-0.040563
C141	C	1.815908	-0.188780	0.292771
C142	C	1.332140	-0.338403	-0.397051
C143	C	1.665473	-0.005069	-0.063717
C144	C	1.998806	0.328264	0.269616
C145	C	1.419996	-0.338413	-0.397059
C146	C	1.753329	-0.005079	-0.063726
C147	C	2.086663	0.328254	0.269608
C148	C	1.126008	-0.338321	-0.603196
C149	C	1.459342	-0.004987	-0.269863
C150	C	1.792675	0.328346	0.063470
C151	C	1.126024	-0.338296	-0.691052
C152	C	1.459357	-0.004963	-0.357719
C153	C	1.792690	0.328371	-0.024385
C154	C	1.134884	-0.155186	-0.388295
C155	C	1.468217	0.178147	-0.054961
C156	C	1.801550	0.511480	0.278372
C157	C	1.138681	-0.077121	-0.384572
C158	C	1.472014	0.256213	-0.051239
C159	C	1.805348	0.589546	0.282095
C160	C	1.073386	-0.383133	-1.064664
C161	C	1.406720	-0.049800	-0.731330
C162	C	1.740053	0.283534	-0.397997
C163	C	1.178857	-0.293311	-1.060384
C164	C	1.512190	0.040023	-0.727051
C165	C	1.845523	0.373356	-0.393718
C166	C	1.178835	-0.293326	-0.977839
C167	C	1.512168	0.040008	-0.644506
C168	C	1.845502	0.373341	-0.311173
C169	C	1.126089	-0.338246	-0.938703
C170	C	1.459422	-0.004912	-0.605369
C171	C	1.792756	0.328421	-0.272036
C172	C	1.073365	-0.383151	-0.982111
C173	C	1.406698	-0.049818	-0.648778
C174	C	1.740031	0.283516	-0.315444
C175	C	1.231564	-0.248426	-0.934425
C176	C	1.564897	0.084907	-0.601092
C177	C	1.898230	0.418240	-0.267758
C178	C	1.231545	-0.248440	-0.851875
C179	C	1.564878	0.084893	-0.518541
C180	C	1.898211	0.418227	-0.185208
C181	C	1.178794	-0.293357	-0.812736
C182	C	1.512128	0.039976	-0.479403
C183	C	1.845461	0.373310	-0.146070
C184	C	1.126067	-0.338263	-0.856150
C185	C	1.459401	-0.004930	-0.522816
C186	C	1.792734	0.328403	-0.189483
C187	C	1.073321	-0.383183	-0.817013
C188	C	1.406654	-0.049850	-0.483680
C189	C	1.739988	0.283483	-0.150346
C190	C	1.020590	-0.428087	-0.860425
C191	C	1.353923	-0.094754	-0.527092
C192	C	1.687256	0.238580	-0.193758
C193	C	1.020614	-0.428068	-0.942973
C194	C	1.353947	-0.094735	-0.609639
C195	C	1.687281	0.238599	-0.276306
C196	C	1.178770	-0.293376	-0.730189
C197	C	1.512103	0.039957	-0.396855
C198	C	1.845436	0.373291	-0.063522
C199	C	1.073299	-0.383201	-0.734460
C200	C	1.406633	-0.049868	-0.401127
C201	C	1.739966	0.283465	-0.067794
C202	C	1.125985	-0.338386	-0.191665
C203	C	1.459318	-0.005053	0.141668
C204	C	1.792652	0.328281	0.475002
C205	C	1.126133	-0.338213	-0.103800
C206	C	1.459466	-0.004880	0.229533
C207	C	1.792799	0.328454	0.562866
H208	H	0.431575	-0.256817	-0.301603
H209	H	0.764908	0.076517	0.031730
H210	H	1.098241	0.409850	0.365063
O211	O	1.008396	-0.596047	-0.514353
O212	O	1.341730	-0.262714	-0.181020
O213	O	1.675063	0.070619	0.152313
H214	H	1.045341	-0.562584	-0.552995
H215	H	1.378674	-0.229251	-0.219661
H216	H	1.712007	0.104083	0.113672
O217	O	0.547209	-0.199956	-0.235063
O218	O	0.880542	0.133377	0.098270
O219	O	1.213875	0.466711	0.431603
H220	H	0.565699	-0.144840	-0.246080
H221	H	0.899033	0.188493	0.087253
H222	H	1.232366	0.521827	0.420586
H223	H	1.053576	-0.937242	-0.469470
H224	H	1.386909	-0.603909	-0.136136
H225	H	1.720242	-0.270575	0.197197
H226	H	1.030340	-0.419775	-0.702601
H227	H	1.363673	-0.086441	-0.369268
H228	H	1.697006	0.246892	-0.035934
O229	O	1.235636	-0.244951	-0.683363
O230	O	1.568969	0.088382	-0.350030
O231	O	1.902302	0.421715	-0.016696
H232	H	1.272316	-0.213712	-0.724445
H233	H	1.605649	0.119621	-0.391112
H234	H	1.938982	0.452955	-0.057779
H235	H	0.828993	-0.256764	-0.301561
H236	H	1.162327	0.076569	0.031772
H237	H	1.495660	0.409902	0.365106
O238	O	1.235747	-0.244868	-1.102597
O239	O	1.569080	0.088465	-0.769263
O240	O	1.902413	0.421799	-0.435930
H241	H	1.272409	-0.213650	-1.058542
H242	H	1.605742	0.119684	-0.725209
H243	H	1.939076	0.453017	-0.391876
H244	H	1.274481	-0.211876	-0.816535
H245	H	1.607815	0.121457	-0.483202
H246	H	1.941148	0.454790	-0.149869
H247	H	1.030452	-0.419690	-1.100013
H248	H	1.363785	-0.086357	-0.766680
H249	H	1.697118	0.246976	-0.433347
O250	O	1.211417	-0.748500	-0.311737
O251	O	1.544751	-0.415167	0.021596
O252	O	1.878084	-0.081833	0.354929
H253	H	1.174469	-0.781974	-0.273111
H254	H	1.507802	-0.448641	0.060223
H255	H	1.841135	-0.115308	0.393556
H256	H	0.423750	-0.420003	-0.492509
H257	H	0.757084	-0.086670	-0.159175
H258	H	1.090417	0.246664	0.174158
H259	H	1.237110	-0.937231	-0.286199
H260	H	1.570444	-0.603898	0.047135
H261	H	1.903777	-0.270564	0.380468
H262	H	0.707338	-0.211814	-0.248954
H263	H	1.040671	0.121519	0.084379
H264	H	1.374004	0.454853	0.417712
O265	O	0.963697	-0.476535	-0.818212
O266	O	1.297030	-0.143201	-0.484879
O267	O	1.630363	0.190132	-0.151545
H268	H	0.972543	-0.468998	-0.753519
H269	H	1.305876	-0.135664	-0.420185
H270	H	1.639210	0.197669	-0.086852
O271	O	0.831500	-0.431835	-0.506400
O272	O	1.164834	-0.098502	-0.173067
O273	O	1.498167	0.234832	0.160267
H274	H	0.870635	-0.400431	-0.545167
H275	H	1.203968	-0.067098	-0.211834
H276	H	1.537301	0.266236	0.121500
H277	H	0.977686	-0.464628	-0.978326
H278	H	1.311019	-0.131295	-0.644993
H279	H	1.644352	0.202039	-0.311659
H280	H	1.191851	-0.825581	-0.331339
H281	H	1.525184	-0.492248	0.001994
H282	H	1.858517	-0.158915	0.335328
H283	H	1.230772	-1.070309	-0.292611
H284	H	1.564105	-0.736975	0.040723
H285	H	1.897438	-0.403642	0.374056
H286	H	1.274511	-0.211859	-0.966296
H287	H	1.607845	0.121474	-0.632963
H288	H	1.941178	0.454808	-0.299630
O289	O	0.533945	-0.476850	-0.559031
O290	O	0.867278	-0.143517	-0.225697
O291	O	1.200611	0.189817	0.107636
H292	H	0.469972	-0.469293	-0.550204
H293	H	0.803305	-0.135960	-0.216870
H294	H	1.136639	0.197373	0.116463
H295	H	0.695178	-0.464954	-0.545114
H296	H	1.028512	-0.131621	-0.211780
H297	H	1.361845	0.201713	0.121553
H298	H	1.047244	-1.070309	-0.475889
H299	H	1.380577	-0.736976	-0.142556
H300	H	1.713910	-0.403643	0.190777
O301	O	1.001129	-0.748502	-0.521694
O302	O	1.334463	-0.415168	-0.188361
O303	O	1.667796	-0.081835	0.144973
H304	H	1.006893	-0.805668	-0.515956
H305	H	1.340227	-0.472334	-0.182622
H306	H	1.673560	-0.139001	0.150711
H307	H	1.060239	-0.850473	-0.462753
H308	H	1.393572	-0.517139	-0.129419
H309	H	1.726906	-0.183806	0.203914
O310	O	1.218680	-0.596038	-0.304393
O311	O	1.552014	-0.262705	0.028940
O312	O	1.885347	0.070629	0.362273
H313	H	1.252058	-0.633865	-0.271105
H314	H	1.585391	-0.300531	0.062229
H315	H	1.918724	0.032802	0.395562
