data_functionalizedCrystal
_audit_creation_method	'MofGen! by Chris Wilmer'
_symmetry_space_group_name_H-M	'P1'
_symmetry_Int_Tables_number	1
_symmetry_cell_setting	triclinic
loop_
_symmetry_equiv_pos_as_xyz
  x,y,z
_cell_length_a	13.339070
_cell_length_b	9.065218
_cell_length_c	7.540329
_cell_angle_alpha	89.996257
_cell_angle_beta	90.000477
_cell_angle_gamma	79.677410
loop_
_atom_site_label
_atom_site_type_symbol
_atom_site_fract_x
_atom_site_fract_y
_atom_site_fract_z
O1	O	1.349079	-0.742390	0.147519
O2	O	1.053659	-0.644946	0.147512
O3	O	1.207475	-0.481407	0.147512
O4	O	1.195262	-0.905929	0.147519
O5	O	1.207474	-0.481394	-0.147453
O6	O	1.053658	-0.644934	-0.147453
O7	O	1.349077	-0.742377	-0.147446
Cu8	Cu	1.201367	-0.693654	-0.174382
Cu9	Cu	1.201369	-0.693669	0.174448
O10	O	1.195261	-0.905917	-0.147446
C11	C	1.015818	-0.628480	0.000029
C12	C	0.903067	-0.579416	0.000026
N13	N	1.201370	-0.693669	0.419797
C14	C	1.206301	-0.425956	0.000033
C15	C	1.202791	-0.260745	0.000041
C16	C	0.541769	-0.960908	0.000061
C17	C	0.647704	-1.007010	0.000069
C18	C	0.711550	-0.900116	0.000057
C19	C	0.669450	-0.747111	0.000040
C20	C	0.563505	-0.701004	0.000046
C21	C	0.733286	-0.640212	0.000042
C22	C	0.691186	-0.487207	0.000025
C23	C	0.585251	-0.441108	0.000029
C24	C	0.521405	-0.548003	0.000040
C25	C	0.839231	-0.686319	0.000036
C26	C	0.860967	-0.426415	0.000021
C27	C	0.755032	-0.380313	0.000013
C28	C	1.386918	-0.758843	0.000041
C29	C	1.499669	-0.807907	0.000056
C30	C	1.196436	-0.961367	0.000038
C31	C	1.199945	-1.126579	0.000041
N32	N	1.201374	-0.693645	-0.419730
H33	H	0.797807	-0.937662	0.000068
H34	H	0.873498	-0.810896	0.000044
H35	H	0.720739	-0.255734	0.000014
H36	H	0.681974	-1.131586	0.000097
H37	H	0.912951	-0.339372	0.000020
H38	H	0.550977	-0.316522	0.000035
H39	H	0.435143	-0.510474	0.000033
N40	N	0.472912	-1.076189	0.000095
H41	H	0.399413	-1.023761	0.000102
H42	H	0.486672	-1.140996	-0.109248
