data_functionalizedCrystal
_audit_creation_method	'MofGen! by Chris Wilmer'
_symmetry_space_group_name_H-M	'P1'
_symmetry_Int_Tables_number	1
_symmetry_cell_setting	triclinic
loop_
_symmetry_equiv_pos_as_xyz
  x,y,z
_cell_length_a	10.968023
_cell_length_b	10.967829
_cell_length_c	10.065875
_cell_angle_alpha	86.921207
_cell_angle_beta	86.882649
_cell_angle_gamma	92.753451
loop_
_atom_site_label
_atom_site_type_symbol
_atom_site_fract_x
_atom_site_fract_y
_atom_site_fract_z
O1	O	-1.622266	0.209994	0.218566
O2	O	-1.272379	0.213446	0.135483
O3	O	-1.449069	0.036800	0.218580
O4	O	-1.445577	0.386640	0.135470
O5	O	-1.415383	0.070626	0.429691
O6	O	-1.238693	0.247272	0.346594
O7	O	-1.588580	0.243819	0.429678
Zn8	Zn	-1.408288	0.250916	0.421655
Zn9	Zn	-1.452671	0.206349	0.143506
O10	O	-1.411891	0.420465	0.346581
C11	C	-1.210618	0.227555	0.231136
C12	C	-1.076774	0.219184	0.201633
C13	C	-0.861312	0.224310	0.267344
C14	C	-0.999644	0.232972	0.297847
C15	C	-1.429427	0.008800	0.334039
C16	C	-1.421071	-0.125028	0.363544
C17	C	-1.434797	-0.202210	0.267335
C18	C	-1.426162	-0.340528	0.297828
C19	C	-0.650341	0.229714	0.334029
C20	C	-0.784181	0.238095	0.363545
C21	C	-1.431533	0.448465	0.231119
C22	C	-1.439890	0.582292	0.201606
N23	N	-1.378007	0.281331	0.611486
N24	N	-1.482962	0.175925	-0.046321
C25	C	-1.442127	0.216924	0.709491
C26	C	-1.418832	0.240342	0.855673
H27	H	-0.824938	0.206088	0.162403
Br28	Br	-1.298571	0.361144	0.896177
Br29	Br	-1.603509	0.055407	0.913180
H30	H	-1.458021	-0.381391	0.096652
Br31	Br	-1.257751	0.402128	0.651997
H32	H	-1.036014	0.251182	0.402799
Br33	Br	-1.016168	0.188850	0.026698
Br34	Br	-0.844796	0.268441	0.538468
Br35	Br	-1.465066	-0.141685	0.092424
H36	H	-1.402920	-0.161351	0.468485
H37	H	-1.408009	-0.376845	0.402776
H38	H	-1.514266	0.144440	0.685179
