data_functionalizedCrystal
_audit_creation_method	'MofGen! by Chris Wilmer'
_symmetry_space_group_name_H-M	'P1'
_symmetry_Int_Tables_number	1
_symmetry_cell_setting	triclinic
loop_
_symmetry_equiv_pos_as_xyz
  x,y,z
_cell_length_a	10.489768
_cell_length_b	19.288855
_cell_length_c	17.766277
_cell_angle_alpha	89.992196
_cell_angle_beta	89.992921
_cell_angle_gamma	83.841365
loop_
_atom_site_label
_atom_site_type_symbol
_atom_site_fract_x
_atom_site_fract_y
_atom_site_fract_z
O1	O	-1.691818	-0.098085	0.062559
O2	O	-1.358485	0.235249	0.395892
O3	O	-1.025151	0.568582	0.729226
O4	O	-1.320419	-0.107263	0.062570
O5	O	-0.987085	0.226071	0.395903
O6	O	-0.653752	0.559404	0.729236
O7	O	-1.516856	-0.001615	0.062554
O8	O	-1.183523	0.331718	0.395888
O9	O	-0.850190	0.665051	0.729221
O10	O	-1.495380	-0.203732	0.062575
O11	O	-1.162047	0.129601	0.395908
O12	O	-0.828713	0.462935	0.729241
O13	O	-1.516821	-0.001612	-0.062634
O14	O	-1.183488	0.331721	0.270699
O15	O	-0.850155	0.665054	0.604032
O16	O	-1.320383	-0.107259	-0.062619
O17	O	-0.987050	0.226074	0.270715
O18	O	-0.653717	0.559407	0.604048
O19	O	-1.691783	-0.098081	-0.062629
O20	O	-1.358450	0.235252	0.270704
O21	O	-1.025116	0.568585	0.604037
Cu22	Cu	-1.506080	-0.102670	-0.074055
Cu23	Cu	-1.172747	0.230663	0.259279
Cu24	Cu	-0.839413	0.563997	0.592612
Cu25	Cu	-1.506121	-0.102674	0.073995
Cu26	Cu	-1.172788	0.230659	0.407328
Cu27	Cu	-0.839455	0.563993	0.740662
O28	O	-1.495345	-0.203729	-0.062614
O29	O	-1.162012	0.129605	0.270719
O30	O	-0.828678	0.462938	0.604053
C31	C	-1.272886	-0.106564	-0.000023
C32	C	-0.939552	0.226770	0.333310
C33	C	-0.606219	0.560103	0.666643
C34	C	-1.131305	-0.104478	-0.000020
C35	C	-0.797972	0.228856	0.333314
C36	C	-0.464639	0.562189	0.666647
C37	C	-0.980002	-0.036014	-0.000038
C38	C	-0.646668	0.297319	0.333295
C39	C	-0.313335	0.630652	0.666629
C40	C	-1.056601	-0.070242	-0.061756
C41	C	-0.723268	0.263092	0.271577
C42	C	-0.389935	0.596425	0.604910
C43	C	-1.056591	-0.070261	0.061670
C44	C	-0.723258	0.263073	0.395003
C45	C	-0.389924	0.596406	0.728336
C46	C	-0.955641	-0.135023	-0.061809
C47	C	-0.622308	0.198310	0.271524
C48	C	-0.288975	0.531644	0.604857
C49	C	-0.955626	-0.135033	0.061672
C50	C	-0.622293	0.198301	0.395006
C51	C	-0.288959	0.531634	0.728339
C52	C	-1.032175	-0.169308	-0.000061
C53	C	-0.698842	0.164025	0.333272
C54	C	-0.365509	0.497359	0.666606
C55	C	-1.516150	0.024267	-0.000041
C56	C	-1.182817	0.357601	0.333292
C57	C	-0.849483	0.690934	0.666626
C58	C	-1.514082	0.101385	-0.000044
C59	C	-1.180748	0.434719	0.333290
C60	C	-0.847415	0.768052	0.666623
C61	C	-0.739318	-0.098769	-0.000036
C62	C	-0.405985	0.234564	0.333297
C63	C	-0.072652	0.567897	0.666630
C64	C	-0.880907	-0.100822	-0.000040
C65	C	-0.547574	0.232511	0.333294
C66	C	-0.214240	0.565844	0.666627
C67	C	-1.513136	0.137601	0.068197
C68	C	-1.179802	0.470934	0.401530
C69	C	-0.846469	0.804267	0.734863
C70	C	-1.511174	0.210060	0.068202
C71	C	-1.177841	0.543393	0.401535
C72	C	-0.844508	0.876727	0.734868
C73	C	-1.510185	0.246303	-0.000037
C74	C	-1.176851	0.579636	0.333296
C75	C	-0.843518	0.912970	0.666629
C76	C	-1.511124	0.210078	-0.068286
C77	C	-1.177791	0.543412	0.265047
C78	C	-0.844457	0.876745	0.598380
C79	C	-1.513072	0.137620	-0.068290
C80	C	-1.179739	0.470953	0.265044
C81	C	-0.846406	0.804286	0.598377
C82	C	-1.581788	0.366052	-0.052315
C83	C	-1.248455	0.699385	0.281018
C84	C	-0.915121	1.032718	0.614351
C85	C	-1.579847	0.438510	-0.052309
C86	C	-1.246514	0.771843	0.281024
C87	C	-0.913181	1.105176	0.614357
C88	C	-1.504169	0.469790	-0.000030
C89	C	-1.170836	0.803123	0.333303
C90	C	-0.837502	1.136456	0.666636
C91	C	-1.430448	0.428604	0.052255
C92	C	-1.097115	0.761937	0.385588
C93	C	-0.763782	1.095270	0.718922
C94	C	-1.432397	0.356145	0.052252
C95	C	-1.099063	0.689478	0.385585
C96	C	-0.765730	1.022812	0.718919
C97	C	-1.508071	0.324872	-0.000042
C98	C	-1.174738	0.658206	0.333292
C99	C	-0.841404	0.991539	0.666625
C100	C	-1.501094	0.584574	0.068220
C101	C	-1.167761	0.917907	0.401553
C102	C	-0.834428	1.251240	0.734886
C103	C	-1.499125	0.657034	0.068222
C104	C	-1.165792	0.990367	0.401555
C105	C	-0.832458	1.323700	0.734889
C106	C	-1.499088	0.657052	-0.068268
C107	C	-1.165754	0.990385	0.265065
C108	C	-0.832421	1.323718	0.598399
C109	C	-1.501044	0.584592	-0.068268
C110	C	-1.167711	0.917925	0.265065
C111	C	-0.834377	1.251259	0.598398
C112	C	-1.502053	0.548358	-0.000022
C113	C	-1.168720	0.881691	0.333311
C114	C	-0.835387	1.215024	0.666644
C115	C	-1.496055	0.770389	-0.000019
C116	C	-1.162722	1.103722	0.333314
C117	C	-0.829388	1.437055	0.666648
C118	C	-1.498134	0.693272	-0.000018
C119	C	-1.164800	1.026605	0.333316
C120	C	-0.831467	1.359938	0.666649
N121	N	-1.506060	-0.102667	-0.178185
N122	N	-1.172727	0.230666	0.155148
N123	N	-0.839393	0.564000	0.488482
C124	C	-1.583156	-0.145212	-0.217564
C125	C	-1.249823	0.188121	0.115770
C126	C	-0.916490	0.521455	0.449103
C127	C	-1.583176	-0.145210	-0.296365
C128	C	-1.249843	0.188123	0.036968
C129	C	-0.916510	0.521456	0.370301
C130	C	-1.506077	-0.102671	-0.335786
C131	C	-1.172743	0.230662	-0.002452
C132	C	-0.839410	0.563996	0.330881
C133	C	-1.428976	-0.060117	-0.296398
C134	C	-1.095642	0.273216	0.036936
C135	C	-0.762309	0.606549	0.370269
C136	C	-1.428967	-0.060115	-0.217597
C137	C	-1.095634	0.273218	0.115736
C138	C	-0.762301	0.606551	0.449069
C139	C	-1.391106	-0.100137	-0.460642
C140	C	-1.057772	0.233196	-0.127309
C141	C	-0.724439	0.566530	0.206025
C142	C	-1.391111	-0.100144	-0.539441
C143	C	-1.057778	0.233189	-0.206108
C144	C	-0.724444	0.566523	0.127226
C145	C	-1.506103	-0.102674	-0.578832
C146	C	-1.172770	0.230660	-0.245499
C147	C	-0.839436	0.563993	0.087835
C148	C	-1.621091	-0.105210	-0.539415
C149	C	-1.287758	0.228123	-0.206081
C150	C	-0.954425	0.561456	0.127252
C151	C	-1.621083	-0.105208	-0.460614
C152	C	-1.287750	0.228125	-0.127281
C153	C	-0.954417	0.561458	0.206052
C154	C	-1.506077	-0.102668	-0.421231
C155	C	-1.172744	0.230665	-0.087898
C156	C	-0.839411	0.563998	0.245435
C157	C	-1.583228	-0.145219	-0.703656
C158	C	-1.249894	0.188114	-0.370323
C159	C	-0.916561	0.521448	-0.036990
C160	C	-1.583250	-0.145212	-0.782460
C161	C	-1.249917	0.188121	-0.449126
C162	C	-0.916584	0.521455	-0.115793
C163	C	-1.429038	-0.060123	-0.782490
C164	C	-1.095704	0.273210	-0.449157
C165	C	-0.762371	0.606544	-0.115824
C166	C	-1.429027	-0.060126	-0.703689
C167	C	-1.095694	0.273207	-0.370355
C168	C	-0.762360	0.606541	-0.037022
C169	C	-1.506120	-0.102678	-0.664276
C170	C	-1.172786	0.230656	-0.330943
C171	C	-0.839453	0.563989	0.002390
N172	N	-1.506151	-0.102672	0.178125
N173	N	-1.172818	0.230662	0.511459
N174	N	-0.839485	0.563995	0.844792
H175	H	-0.956559	0.020344	-0.000106
H176	H	-0.623226	0.353677	0.333227
H177	H	-0.289893	0.687011	0.666561
H178	H	-1.498272	0.686559	-0.123829
H179	H	-1.164939	1.019892	0.209504
H180	H	-0.831605	1.353226	0.542837
H181	H	-1.297457	-0.098082	-0.428576
H182	H	-0.964124	0.235251	-0.095243
H183	H	-0.630790	0.568585	0.238090
H184	H	-1.366241	-0.025484	-0.671626
H185	H	-1.032908	0.307849	-0.338293
H186	H	-0.699575	0.641183	-0.004960
H187	H	-1.100683	-0.042882	-0.113942
H188	H	-0.767350	0.290452	0.219391
H189	H	-0.434016	0.623785	0.552724
H190	H	-1.645958	-0.179858	-0.328434
H191	H	-1.312625	0.153476	0.004900
H192	H	-0.979291	0.486809	0.338233
H193	H	-1.055372	-0.225708	-0.000089
H194	H	-0.722039	0.107625	0.333244
H195	H	-0.388706	0.440959	0.666577
H196	H	-0.911728	-0.162362	-0.114049
H197	H	-0.578394	0.170972	0.219285
H198	H	-0.245061	0.504305	0.552618
H199	H	-1.513837	0.108133	-0.123861
H200	H	-1.180504	0.441466	0.209473
H201	H	-0.847171	0.774800	0.542806
H202	H	-1.501825	0.555106	-0.123837
H203	H	-1.168492	0.888439	0.209497
H204	H	-0.835158	1.221772	0.542830
H205	H	-1.643413	0.340590	-0.094893
H206	H	-1.310080	0.673923	0.238440
H207	H	-0.976746	1.007257	0.571774
H208	H	-1.714711	-0.107272	-0.428524
H209	H	-1.381378	0.226061	-0.095190
H210	H	-1.048044	0.559394	0.238143
H211	H	-0.911521	-0.162368	0.113860
H212	H	-0.578187	0.170965	0.447193
H213	H	-0.244854	0.504298	0.780527
H214	H	-1.100669	-0.042891	0.113850
H215	H	-0.767335	0.290442	0.447183
H216	H	-0.434002	0.623775	0.780517
H217	H	-1.645936	-0.179858	-0.185479
H218	H	-1.312603	0.153475	0.147854
H219	H	-0.979270	0.486808	0.481188
H220	H	-1.714728	-0.107274	-0.571485
H221	H	-1.381395	0.226060	-0.238152
H222	H	-1.048062	0.559393	0.095182
H223	H	-1.639880	0.472038	-0.094881
H224	H	-1.306547	0.805372	0.238453
H225	H	-0.973214	1.138705	0.571786
H226	H	-1.366263	-0.025486	-0.814586
H227	H	-1.032930	0.307847	-0.481252
H228	H	-0.699596	0.641181	-0.147919
H229	H	-1.646002	-0.179866	-0.671565
H230	H	-1.312669	0.153467	-0.338232
H231	H	-0.979335	0.486800	-0.004899
H232	H	-1.297480	-0.098082	-0.571529
H233	H	-0.964147	0.235251	-0.238195
H234	H	-0.630813	0.568584	0.095138
H235	H	-1.513954	0.108103	0.123768
H236	H	-1.180621	0.441436	0.457101
H237	H	-0.847287	0.774770	0.790434
H238	H	-1.510396	0.239552	0.123773
H239	H	-1.177063	0.572885	0.457106
H240	H	-0.843729	0.906219	0.790439
H241	H	-1.646040	-0.179855	-0.814520
H242	H	-1.312707	0.153478	-0.481187
H243	H	-0.979374	0.486811	-0.147854
H244	H	-1.366202	-0.025481	-0.328499
H245	H	-1.032868	0.307852	0.004835
H246	H	-0.699535	0.641186	0.338168
H247	H	-1.372368	0.322614	0.094823
H248	H	-1.039035	0.655947	0.428156
H249	H	-0.705701	0.989281	0.761490
H250	H	-1.498348	0.686519	0.123794
H251	H	-1.165015	1.019852	0.457127
H252	H	-0.831682	1.353185	0.790460
H253	H	-1.510314	0.239592	-0.123847
H254	H	-1.176981	0.572925	0.209486
H255	H	-0.843648	0.906258	0.542820
H256	H	-1.368824	0.454070	0.094826
H257	H	-1.035491	0.787403	0.428159
H258	H	-0.702157	1.120736	0.761492
H259	H	-1.501909	0.555070	0.123790
H260	H	-1.168576	0.888403	0.457123
H261	H	-0.835242	1.221736	0.790456
H262	H	-1.366184	-0.025469	-0.185536
H263	H	-1.032851	0.307864	0.147798
H264	H	-0.699517	0.641198	0.481131
