data_functionalizedCrystal
_audit_creation_method	'MofGen! by Chris Wilmer'
_symmetry_space_group_name_H-M	'P1'
_symmetry_Int_Tables_number	1
_symmetry_cell_setting	triclinic
loop_
_symmetry_equiv_pos_as_xyz
  x,y,z
_cell_length_a	12.759401
_cell_length_b	13.897448
_cell_length_c	12.759393
_cell_angle_alpha	90.030809
_cell_angle_beta	89.981425
_cell_angle_gamma	89.980005
loop_
_atom_site_label
_atom_site_type_symbol
_atom_site_fract_x
_atom_site_fract_y
_atom_site_fract_z
Zn1	Zn	1.606219	0.383947	-0.593991
Zn2	Zn	1.606099	0.545276	-0.418313
Zn3	Zn	1.430521	0.383998	-0.418330
Zn4	Zn	1.430495	0.545202	-0.593954
O5	O	1.518334	0.464606	-0.506147
O6	O	1.753224	0.405357	-0.570695
O7	O	1.582769	0.523935	-0.271294
O8	O	1.453890	0.249009	-0.441654
O9	O	1.753136	0.523885	-0.441626
O10	O	1.582974	0.248972	-0.570711
O11	O	1.453773	0.405444	-0.271306
O12	O	1.283497	0.405373	-0.441618
O13	O	1.453845	0.523759	-0.740980
O14	O	1.283478	0.523809	-0.570649
O15	O	1.582949	0.405285	-0.741007
O16	O	1.582743	0.680248	-0.441590
O17	O	1.453728	0.680194	-0.570633
C18	C	1.245366	0.464589	-0.506132
C19	C	1.128590	0.464605	-0.506151
C20	C	1.073774	0.402999	-0.573461
C21	C	0.964050	0.403009	-0.573468
C22	C	0.963967	0.526239	-0.438852
C23	C	1.073689	0.526224	-0.438840
C24	C	1.518248	0.715220	-0.506129
C25	C	1.518308	0.822434	-0.506156
C26	C	1.518411	1.018729	-0.506232
C27	C	1.518351	0.909497	-0.506193
C28	C	1.792367	0.464623	-0.506162
C29	C	1.909144	0.464631	-0.506169
C30	C	1.518439	1.213013	-0.506200
C31	C	1.518461	1.105799	-0.506255
C32	C	1.518407	0.464508	-0.780180
C33	C	1.518438	0.464467	-0.896957
C34	C	1.451294	0.402757	-0.951825
C35	C	1.451319	0.402728	-1.061549
C36	C	1.585640	0.526119	-1.061528
C37	C	1.585610	0.526153	-0.951806
C38	C	1.518321	0.464633	-0.233180
C39	C	1.518493	0.464403	-0.116403
H40	H	0.919253	0.576408	-0.384051
O41	O	1.658090	0.592641	-1.120696
H42	H	1.640020	0.668351	-1.099628
H43	H	0.919425	0.352842	-0.628277
O44	O	1.132823	0.592670	-0.366235
H45	H	1.076216	0.635529	-0.319441
O46	O	1.132995	0.336530	-0.646041
H47	H	1.076440	0.293685	-0.692837
H48	H	1.396642	0.352479	-1.106218
O49	O	1.658045	0.592702	-0.892614
H50	H	1.704774	0.635577	-0.949185
H51	H	1.396599	0.352529	-0.907170
