data_functionalizedCrystal
_audit_creation_method	'MofGen! by Chris Wilmer'
_symmetry_space_group_name_H-M	'P1'
_symmetry_Int_Tables_number	1
_symmetry_cell_setting	triclinic
loop_
_symmetry_equiv_pos_as_xyz
  x,y,z
_cell_length_a	16.120530
_cell_length_b	16.120444
_cell_length_c	10.685986
_cell_angle_alpha	88.261534
_cell_angle_beta	91.231987
_cell_angle_gamma	90.168401
loop_
_atom_site_label
_atom_site_type_symbol
_atom_site_fract_x
_atom_site_fract_y
_atom_site_fract_z
Zn1	Zn	1.214549	-0.351248	-0.833525
Zn2	Zn	1.547882	-0.017915	-0.500192
Zn3	Zn	1.881216	0.315418	-0.166858
Zn4	Zn	1.216937	-0.500918	-0.634174
Zn5	Zn	1.550270	-0.167585	-0.300841
Zn6	Zn	1.883603	0.165749	0.032492
Zn7	Zn	1.086048	-0.355949	-0.613045
Zn8	Zn	1.419381	-0.022616	-0.279712
Zn9	Zn	1.752714	0.310717	0.053621
Zn10	Zn	1.068454	-0.483263	-0.832382
Zn11	Zn	1.401787	-0.149929	-0.499048
Zn12	Zn	1.735120	0.183404	-0.165715
O13	O	1.146497	-0.422845	-0.728282
O14	O	1.479830	-0.089511	-0.394948
O15	O	1.813163	0.243822	-0.061615
O16	O	1.330785	-0.376524	-0.816402
O17	O	1.664118	-0.043190	-0.483068
O18	O	1.997451	0.290143	-0.149735
O19	O	1.207936	-0.491044	-0.456150
O20	O	1.541270	-0.157710	-0.122816
O21	O	1.874603	0.175623	0.210517
O22	O	1.109457	-0.239407	-0.633928
O23	O	1.442791	0.093926	-0.300595
O24	O	1.776124	0.427259	0.032738
O25	O	1.332539	-0.486485	-0.669940
O26	O	1.665872	-0.153152	-0.336606
O27	O	1.999206	0.180181	-0.003273
O28	O	1.203867	-0.235954	-0.795914
O29	O	1.537200	0.097380	-0.462580
O30	O	1.870534	0.430713	-0.129247
O31	O	1.111773	-0.384536	-0.440626
O32	O	1.445106	-0.051202	-0.107293
O33	O	1.778439	0.282131	0.226040
O34	O	0.967795	-0.367416	-0.632820
O35	O	1.301128	-0.034083	-0.299487
O36	O	1.634461	0.299250	0.033847
O37	O	1.079471	-0.456395	-1.007755
O38	O	1.412805	-0.123061	-0.674422
O39	O	1.746138	0.210272	-0.341088
O40	O	0.954869	-0.460953	-0.793965
O41	O	1.288202	-0.127620	-0.460632
O42	O	1.621535	0.205714	-0.127299
O43	O	1.186807	-0.359404	-1.008595
O44	O	1.520140	-0.026071	-0.675262
O45	O	1.853474	0.307262	-0.341928
O46	O	1.190876	-0.614494	-0.668831
O47	O	1.524209	-0.281161	-0.335498
O48	O	1.857543	0.052172	-0.002164
O49	O	1.081786	-0.601523	-0.814453
O50	O	1.415120	-0.268190	-0.481120
O51	O	1.748453	0.065144	-0.147786
C52	C	0.931275	-0.412779	-0.710976
C53	C	1.264608	-0.079446	-0.377643
C54	C	1.597942	0.253887	-0.044310
C55	C	0.839200	-0.408492	-0.703604
C56	C	1.172533	-0.075159	-0.370271
C57	C	1.505866	0.258175	-0.036938
C58	C	0.670617	-0.400644	-0.690154
C59	C	1.003950	-0.067311	-0.356821
C60	C	1.337283	0.266023	-0.023488
C61	C	0.623209	-0.445101	-0.766505
C62	C	0.956543	-0.111768	-0.433171
C63	C	1.289876	0.221565	-0.099838
C64	C	0.529404	-0.440735	-0.759021
C65	C	0.862737	-0.107401	-0.425688
C66	C	1.196071	0.225932	-0.092354
C67	C	0.764431	-0.405010	-0.697636
C68	C	1.097764	-0.071676	-0.364303
C69	C	1.431097	0.261657	-0.030970
C70	C	1.134702	-0.638065	-0.743840
C71	C	1.468036	-0.304731	-0.410507
C72	C	1.801369	0.028602	-0.077173
C73	C	1.129730	-0.730138	-0.750544
C74	C	1.463064	-0.396805	-0.417210
C75	C	1.796397	-0.063471	-0.083877
C76	C	1.172479	-0.946132	-0.693791
C77	C	1.505812	-0.612798	-0.360457
C78	C	1.839145	-0.279465	-0.027124
C79	C	1.120668	-0.898713	-0.762798
C80	C	1.454001	-0.565379	-0.429465
C81	C	1.787334	-0.232046	-0.096131
C82	C	1.125712	-0.804909	-0.755978
C83	C	1.459045	-0.471576	-0.422644
C84	C	1.792378	-0.138242	-0.089311
C85	C	1.167436	-1.039944	-0.700609
C86	C	1.500769	-0.706611	-0.367276
C87	C	1.834102	-0.373277	-0.033943
C88	C	1.362559	-0.432950	-0.745655
C89	C	1.695892	-0.099616	-0.412322
C90	C	2.029225	0.233717	-0.078988
C91	C	1.454632	-0.437256	-0.753059
C92	C	1.787965	-0.103922	-0.419725
C93	C	2.121298	0.229411	-0.086392
C94	C	1.130910	-0.405406	-1.054879
C95	C	1.464244	-0.072072	-0.721545
C96	C	1.797577	0.261261	-0.388212
C97	C	1.124268	-0.397974	-1.194055
C98	C	1.457602	-0.064641	-0.860721
C99	C	1.790935	0.268692	-0.527388
C100	C	1.158358	-0.206784	-0.712692
C101	C	1.491692	0.126550	-0.379358
C102	C	1.825025	0.459883	-0.046025
C103	C	1.163413	-0.114711	-0.706048
C104	C	1.496747	0.218622	-0.372715
C105	C	1.830080	0.551955	-0.039382
C106	C	1.162074	-0.440158	-0.402955
C107	C	1.495407	-0.106825	-0.069621
C108	C	1.828740	0.226509	0.263712
C109	C	1.168889	-0.447363	-0.263775
C110	C	1.502222	-0.114030	0.069558
C111	C	1.835555	0.219303	0.402891
H112	H	0.653073	-0.486440	-0.837493
H113	H	0.986406	-0.153107	-0.504159
H114	H	1.319739	0.180226	-0.170826
H115	H	1.080989	-0.350006	-1.240838
H116	H	1.414323	-0.016672	-0.907505
H117	H	1.747656	0.316661	-0.574172
H118	H	1.220620	-0.916284	-0.629593
H119	H	1.553953	-0.582950	-0.296260
H120	H	1.887287	-0.249617	0.037074
H121	H	0.640755	-0.359308	-0.619173
H122	H	0.974089	-0.025974	-0.285840
H123	H	1.307422	0.307359	0.047494
N124	N	1.223198	-0.507528	-1.205071
N125	N	1.556531	-0.174194	-0.871738
N126	N	1.889865	0.159139	-0.538404
N127	N	1.228705	-0.513675	-1.088303
N128	N	1.562038	-0.180342	-0.754970
N129	N	1.895372	0.152991	-0.421637
H130	H	1.267062	-0.556164	-1.046841
H131	H	1.600395	-0.222830	-0.713507
H132	H	1.933729	0.110503	-0.380174
H133	H	1.072522	-0.928564	-0.826999
H134	H	1.405856	-0.595231	-0.493665
H135	H	1.739189	-0.261898	-0.160332
