data_functionalizedCrystal
_audit_creation_method	'MofGen! by Chris Wilmer'
_symmetry_space_group_name_H-M	'P1'
_symmetry_Int_Tables_number	1
_symmetry_cell_setting	triclinic
loop_
_symmetry_equiv_pos_as_xyz
  x,y,z
_cell_length_a	16.956985
_cell_length_b	14.853558
_cell_length_c	15.455313
_cell_angle_alpha	87.315599
_cell_angle_beta	87.535923
_cell_angle_gamma	100.157838
loop_
_atom_site_label
_atom_site_type_symbol
_atom_site_fract_x
_atom_site_fract_y
_atom_site_fract_z
O1	O	-0.100581	1.192677	-0.072121
O2	O	-0.112990	0.929275	-0.072125
O3	O	0.009276	1.076801	-0.072116
O4	O	-0.222847	1.045151	-0.072130
O5	O	0.002313	1.068367	0.072145
O6	O	-0.119952	0.920840	0.072136
O7	O	-0.107544	1.184243	0.072140
Cu8	Cu	-0.114384	1.051772	0.085311
Cu9	Cu	-0.106150	1.061746	-0.085296
O10	O	-0.229810	1.036717	0.072131
C11	C	-0.115910	0.891511	0.000005
C12	C	-0.114229	0.791555	0.000004
C13	C	0.035501	1.074204	0.000014
C14	C	0.124017	1.079023	0.000014
C15	C	-0.109645	0.749192	-0.078637
C16	C	-0.117227	0.739996	0.078643
C17	C	-0.115644	0.646083	0.078644
C18	C	-0.111060	0.603720	0.000004
C19	C	-0.108059	0.655271	-0.078638
C20	C	-0.118636	0.594527	0.157285
C21	C	-0.117051	0.500607	0.157289
C22	C	-0.112473	0.458242	0.078648
C23	C	-0.109474	0.509798	0.000003
C24	C	-0.104890	0.467436	-0.078637
C25	C	-0.101896	0.518989	-0.157283
C26	C	-0.103481	0.612905	-0.157279
C27	C	-0.110888	0.364326	0.078644
C28	C	-0.103304	0.373514	-0.078638
C29	C	0.156188	0.998460	0.000009
C30	C	0.239358	1.002993	0.000012
C31	C	0.290356	1.088090	0.000014
C32	C	0.258179	1.168658	0.000021
C33	C	0.175010	1.164124	0.000024
C34	C	0.540105	1.110532	0.000010
C35	C	0.623279	1.115060	0.000004
C36	C	0.604452	0.949394	-0.000004
C37	C	0.521282	0.944868	-0.000006
C38	C	0.489113	1.025436	0.000006
N39	N	0.375369	1.092725	0.000014
N40	N	0.404100	1.020799	0.000012
C41	C	0.743965	1.039314	0.000000
C42	C	0.655450	1.034497	-0.000001
N43	N	-0.120175	1.044763	0.205306
C44	C	-0.104624	1.222007	0.000008
C45	C	-0.106304	1.321963	0.000004
N46	N	-0.100352	1.068762	-0.205291
C47	C	-0.068252	1.107456	0.250704
C48	C	-0.072639	1.102164	0.341511
C49	C	-0.128953	1.034181	0.386919
C50	C	-0.180879	0.971481	0.341515
C51	C	-0.176488	0.976771	0.250709
C52	C	-0.147887	1.011352	0.658499
C53	C	-0.152276	1.006069	0.749311
C54	C	-0.044033	1.136751	0.749302
C55	C	-0.039650	1.142038	0.658494
C56	C	-0.091573	1.079335	0.613098
N57	N	-0.133441	1.028771	0.479739
N58	N	-0.087082	1.084741	0.520279
H59	H	-0.099576	0.339029	-0.142677
H60	H	-0.218769	0.925718	0.213747
Cl61	Cl	0.687391	1.222047	0.000000
Cl62	Cl	-0.124401	0.647786	0.256140
H63	H	-0.119488	0.458640	0.221328
H64	H	0.148818	1.229727	0.000030
Cl65	Cl	0.279798	0.901710	0.000004
H66	H	-0.190166	0.960298	0.621545
Cl67	Cl	-0.096114	0.465726	-0.256141
H68	H	0.479765	0.875573	-0.000009
Cl69	Cl	0.322290	1.275637	0.000033
Cl70	Cl	-0.099706	0.677722	-0.256138
H71	H	-0.107211	0.791170	-0.142668
Cl72	Cl	0.644899	0.848115	-0.000017
Cl73	Cl	-0.114639	0.299523	0.177504
Cl74	Cl	-0.122988	0.793254	0.177499
H75	H	0.114671	0.929166	0.000004
Cl76	Cl	-0.251673	0.886012	0.398597
H77	H	-0.001759	1.187800	0.786272
Cl78	Cl	-0.007361	1.180979	0.398585
Cl79	Cl	-0.223080	0.920598	0.806390
H80	H	0.513923	1.176136	0.000017
Cl81	Cl	0.002545	1.192929	0.193629
Cl82	Cl	0.031145	1.227503	0.601410
