data_functionalizedCrystal
_audit_creation_method	'MofGen! by Chris Wilmer'
_symmetry_space_group_name_H-M	'P1'
_symmetry_Int_Tables_number	1
_symmetry_cell_setting	triclinic
loop_
_symmetry_equiv_pos_as_xyz
  x,y,z
_cell_length_a	27.731993
_cell_length_b	26.210047
_cell_length_c	27.732048
_cell_angle_alpha	89.990375
_cell_angle_beta	97.368475
_cell_angle_gamma	90.004884
loop_
_atom_site_label
_atom_site_type_symbol
_atom_site_fract_x
_atom_site_fract_y
_atom_site_fract_z
O1	O	0.640953	0.042297	-0.057390
O2	O	0.974286	0.375630	0.275943
O3	O	1.307620	0.708964	0.609276
O4	O	0.500156	0.042329	-0.066163
O5	O	0.833489	0.375662	0.267170
O6	O	1.166822	0.708996	0.600503
O7	O	0.574927	0.042302	0.008621
O8	O	0.908261	0.375636	0.341954
O9	O	1.241594	0.708969	0.675287
O10	O	0.566181	0.042324	-0.132174
O11	O	0.899515	0.375657	0.201159
O12	O	1.232848	0.708990	0.534492
O13	O	0.574904	-0.042556	0.008621
O14	O	0.908237	0.290778	0.341954
O15	O	1.241570	0.624111	0.675287
O16	O	0.500132	-0.042529	-0.066163
O17	O	0.833466	0.290804	0.267170
O18	O	1.166799	0.624138	0.600503
O19	O	0.640930	-0.042561	-0.057390
O20	O	0.974263	0.290772	0.275943
O21	O	1.307596	0.624106	0.609276
Cu22	Cu	0.570529	-0.050293	-0.061777
Cu23	Cu	0.903862	0.283040	0.271556
Cu24	Cu	1.237195	0.616374	0.604890
Cu25	Cu	0.570556	0.050061	-0.061777
Cu26	Cu	0.903890	0.383395	0.271557
Cu27	Cu	1.237223	0.716728	0.604890
O28	O	0.566158	-0.042534	-0.132174
O29	O	0.899491	0.290799	0.201159
O30	O	1.232825	0.624132	0.534492
C31	C	0.482137	-0.000096	-0.065983
C32	C	0.815470	0.333237	0.267350
C33	C	1.148803	0.666571	0.600683
C34	C	0.428480	-0.000084	-0.065441
C35	C	0.761814	0.333249	0.267892
C36	C	1.095147	0.666582	0.601226
N37	N	0.570513	-0.120877	-0.061777
N38	N	0.903846	0.212456	0.271557
N39	N	1.237180	0.545790	0.604890
C40	C	0.045333	0.046147	-0.061510
C41	C	0.378666	0.379480	0.271823
C42	C	0.712000	0.712813	0.605156
C43	C	0.246990	0.046161	-0.063577
C44	C	0.580324	0.379494	0.269756
C45	C	0.913657	0.712827	0.603089
O46	O	0.273074	0.085501	-0.063825
O47	O	0.606408	0.418834	0.269508
O48	O	0.939741	0.752167	0.602841
N49	N	0.272198	-0.000094	-0.063836
N50	N	0.605531	0.333239	0.269497
N51	N	0.938864	0.666572	0.602831
C52	C	0.246988	-0.046356	-0.063575
C53	C	0.580322	0.286977	0.269759
C54	C	0.913655	0.620310	0.603092
O55	O	0.273057	-0.085699	-0.063837
O56	O	0.606390	0.247635	0.269496
O57	O	0.939723	0.580968	0.602830
C58	C	0.045332	-0.046370	-0.061504
C59	C	0.378666	0.286963	0.271829
C60	C	0.711999	0.620297	0.605162
C61	C	0.020127	-0.000112	-0.061251
C62	C	0.353460	0.333222	0.272083
C63	C	0.686793	0.666555	0.605416
C64	C	0.020127	0.092401	-0.061256
C65	C	0.353461	0.425734	0.272077
C66	C	0.686794	0.759067	0.605411
C67	C	-0.030284	0.092397	-0.060742
C68	C	0.303049	0.425730	0.272591
C69	C	0.636382	0.759063	0.605925
C70	C	-0.055491	0.046139	-0.060482
C71	C	0.277843	0.379472	0.272851
C72	C	0.611176	0.712805	0.606184
C73	C	-0.030285	-0.000116	-0.060736
C74	C	0.303048	0.333218	0.272597
C75	C	0.636382	0.666551	0.605930
C76	C	0.020124	-0.092631	-0.061239
C77	C	0.353458	0.240702	0.272094
C78	C	0.686791	0.574035	0.605427
C79	C	-0.030293	-0.092630	-0.060721
C80	C	0.303041	0.240703	0.272613
C81	C	0.636374	0.574036	0.605946
C82	C	-0.055498	-0.046372	-0.060467
C83	C	0.277835	0.286961	0.272867
C84	C	0.611168	0.620294	0.606200
C85	C	-0.105903	-0.046378	-0.059963
C86	C	0.227431	0.286955	0.273371
C87	C	0.560764	0.620289	0.606704
N88	N	-0.131110	-0.000123	-0.059704
N89	N	0.202223	0.333210	0.273629
N90	N	0.535556	0.666544	0.606963
C91	C	-0.105904	0.046135	-0.059964
C92	C	0.227429	0.379469	0.273370
C93	C	0.560762	0.712802	0.606703
C94	C	0.352860	-0.046346	-0.064663
C95	C	0.686194	0.286988	0.268671
C96	C	1.019527	0.620321	0.602004
C97	C	0.403274	-0.046343	-0.065181
C98	C	0.736607	0.286991	0.268152
C99	C	1.069941	0.620324	0.601485
C100	C	0.403273	0.046175	-0.065183
C101	C	0.736606	0.379508	0.268150
C102	C	1.069939	0.712841	0.601484
C103	C	0.352858	0.046171	-0.064668
C104	C	0.686191	0.379504	0.268665
C105	C	1.019524	0.712837	0.601999
C106	C	0.327653	-0.000091	-0.064404
C107	C	0.660986	0.333243	0.268929
C108	C	0.994320	0.666576	0.602263
C109	C	-0.211772	0.046123	-0.058885
C110	C	0.121561	0.379457	0.274449
C111	C	0.454894	0.712790	0.607782
C112	C	-0.262189	0.046115	-0.058372
C113	C	0.071144	0.379449	0.274961
C114	C	0.404478	0.712782	0.608294
C115	C	-0.262183	-0.046402	-0.058368
C116	C	0.071151	0.286932	0.274965
C117	C	0.404484	0.620265	0.608298
C118	C	-0.211771	-0.046394	-0.058883
C119	C	0.121562	0.286940	0.274451
C120	C	0.454896	0.620273	0.607784
C121	C	-0.186567	-0.000127	-0.059139
C122	C	0.146766	0.333206	0.274194
C123	C	0.480100	0.666539	0.607527
O124	O	-0.132017	-0.085698	-0.059709
O125	O	0.201316	0.247636	0.273624
O126	O	0.534650	0.580969	0.606958
O127	O	-0.131980	0.085472	-0.059690
O128	O	0.201354	0.418805	0.273643
O129	O	0.534687	0.752138	0.606976
C130	C	0.095745	0.046151	-0.062024
C131	C	0.429078	0.379484	0.271309
C132	C	0.762411	0.712817	0.604642
C133	C	0.120950	-0.000104	-0.062279
C134	C	0.454283	0.333230	0.271055
C135	C	0.787617	0.666563	0.604388
C136	C	0.095744	-0.046362	-0.062019
C137	C	0.429077	0.286971	0.271314
C138	C	0.762411	0.620305	0.604648
C139	C	0.171364	-0.000101	-0.062797
C140	C	0.504697	0.333233	0.270536
C141	C	0.838030	0.666566	0.603869
C142	C	0.196570	0.046158	-0.063057
C143	C	0.529903	0.379491	0.270276
C144	C	0.863237	0.712824	0.603610
C145	C	0.171362	0.092413	-0.062798
C146	C	0.504696	0.425746	0.270535
C147	C	0.838029	0.759080	0.603868
C148	C	0.120951	0.092409	-0.062284
C149	C	0.454284	0.425742	0.271049
C150	C	0.787617	0.759075	0.604382
C151	C	0.120952	-0.092617	-0.062277
C152	C	0.454285	0.240716	0.271056
C153	C	0.787618	0.574050	0.604389
C154	C	0.171363	-0.092609	-0.062792
C155	C	0.504697	0.240724	0.270541
C156	C	0.838030	0.574057	0.603875
C157	C	0.196569	-0.046351	-0.063052
C158	C	0.529903	0.286982	0.270281
C159	C	0.863236	0.620316	0.603615
C160	C	0.599649	-0.473394	-0.090882
C161	C	0.932983	-0.140060	0.242451
C162	C	1.266316	0.193273	0.575785
C163	C	0.599664	-0.687052	-0.090881
C164	C	0.932997	-0.353719	0.242452
C165	C	1.266330	-0.020385	0.575785
O166	O	0.624425	-0.714676	-0.115623
O167	O	0.957758	-0.381343	0.217711
O168	O	1.291092	-0.048009	0.551044
N169	N	0.570568	-0.713771	-0.061772
N170	N	0.903901	-0.380438	0.271561
N171	N	1.237235	-0.047104	0.604895
C172	C	0.541469	-0.687072	-0.032658
C173	C	0.874802	-0.353739	0.300675
C174	C	1.208136	-0.020405	0.634009
O175	O	0.516726	-0.714701	-0.007895
O176	O	0.850059	-0.381367	0.325439
O177	O	1.183392	-0.048034	0.658772
C178	C	0.541458	-0.473414	-0.032656
C179	C	0.874791	-0.140081	0.300677
C180	C	1.208124	0.193252	0.634011
C181	C	0.570552	-0.446698	-0.061771
C182	C	0.903885	-0.113365	0.271562
C183	C	1.237218	0.219968	0.604895
C184	C	0.628741	-0.446677	-0.119994
C185	C	0.962074	-0.113344	0.213339
C186	C	1.295408	0.219989	0.546672
C187	C	0.628735	-0.393266	-0.119996
C188	C	0.962068	-0.059933	0.213337
C189	C	1.295402	0.273401	0.546671
C190	C	0.599637	-0.366571	-0.090886
C191	C	0.932971	-0.033237	0.242448
C192	C	1.266304	0.300096	0.575781
C193	C	0.570546	-0.393287	-0.061773
C194	C	0.903879	-0.059953	0.271560
C195	C	1.237212	0.273380	0.604894
C196	C	0.512362	-0.446716	-0.003540
C197	C	0.845695	-0.113383	0.329793
C198	C	1.179029	0.219950	0.663127
C199	C	0.512363	-0.393298	-0.003541
C200	C	0.845696	-0.059965	0.329792
C201	C	1.179029	0.273368	0.663126
C202	C	0.541456	-0.366582	-0.032656
C203	C	0.874790	-0.033249	0.300677
C204	C	1.208123	0.300084	0.634010
C205	C	0.541442	-0.313180	-0.032664
C206	C	0.874775	0.020153	0.300669
C207	C	1.208109	0.353487	0.634002
N208	N	0.570538	-0.286461	-0.061774
N209	N	0.903871	0.046872	0.271559
N210	N	1.237204	0.380206	0.604893
C211	C	0.599635	-0.313156	-0.090884
C212	C	0.932969	0.020177	0.242449
C213	C	1.266302	0.353510	0.575782
C214	C	0.541476	-0.799245	-0.032662
C215	C	0.874810	-0.465912	0.300672
C216	C	1.208143	-0.132579	0.634005
C217	C	0.541479	-0.852659	-0.032663
C218	C	0.874812	-0.519326	0.300671
C219	C	1.208145	-0.185993	0.634004
C220	C	0.599674	-0.852636	-0.090886
C221	C	0.933007	-0.519303	0.242448
C222	C	1.266340	-0.185969	0.575781
C223	C	0.599669	-0.799221	-0.090887
C224	C	0.933002	-0.465887	0.242446
C225	C	1.266335	-0.132554	0.575780
C226	C	0.570572	-0.772526	-0.061771
C227	C	0.903905	-0.439193	0.271562
C228	C	1.237239	-0.105860	0.604895
C229	C	0.599621	-0.200989	-0.090886
C230	C	0.932954	0.132345	0.242447
C231	C	1.266287	0.465678	0.575780
C232	C	0.599611	-0.147572	-0.090887
C233	C	0.932944	0.185761	0.242446
C234	C	1.266277	0.519094	0.575780
C235	C	0.541418	-0.147601	-0.032662
C236	C	0.874751	0.185733	0.300671
C237	C	1.208084	0.519066	0.634004
C238	C	0.541425	-0.201012	-0.032663
C239	C	0.874759	0.132321	0.300670
C240	C	1.208092	0.465655	0.634003
C241	C	0.570531	-0.227705	-0.061777
C242	C	0.903864	0.105629	0.271557
C243	C	1.237197	0.438962	0.604890
O244	O	0.516698	-0.285523	-0.007932
O245	O	0.850031	0.047810	0.325401
O246	O	1.183364	0.381144	0.658735
O247	O	0.624383	-0.285519	-0.115636
O248	O	0.957717	0.047815	0.217697
O249	O	1.291050	0.381148	0.551031
C250	C	0.599655	-0.526805	-0.090880
C251	C	0.932988	-0.193472	0.242453
C252	C	1.266322	0.139862	0.575787
C253	C	0.570563	-0.553521	-0.061768
C254	C	0.903897	-0.220188	0.271566
C255	C	1.237230	0.113146	0.604899
C256	C	0.541466	-0.526826	-0.032657
C257	C	0.874799	-0.193492	0.300676
C258	C	1.208132	0.139841	0.634010
C259	C	0.570565	-0.606935	-0.061769
C260	C	0.903899	-0.273602	0.271565
C261	C	1.237232	0.059731	0.604898
C262	C	0.599663	-0.633631	-0.090879
C263	C	0.932996	-0.300297	0.242454
C264	C	1.266330	0.033036	0.575787
C265	C	0.628759	-0.606912	-0.119989
C266	C	0.962092	-0.273578	0.213344
C267	C	1.295425	0.059755	0.546678
C268	C	0.628753	-0.553500	-0.119991
C269	C	0.962086	-0.220167	0.213343
C270	C	1.295419	0.113166	0.546676
C271	C	0.512370	-0.553545	-0.003547
C272	C	0.845703	-0.220211	0.329786
C273	C	1.179037	0.113122	0.663119
C274	C	0.512378	-0.606956	-0.003548
C275	C	0.845711	-0.273623	0.329785
C276	C	1.179045	0.059710	0.663118
C277	C	0.541476	-0.633651	-0.032659
C278	C	0.874809	-0.300318	0.300674
C279	C	1.208142	0.033015	0.634008
C280	C	0.658949	-0.000135	-0.057570
C281	C	0.992282	0.333199	0.275763
C282	C	1.325615	0.666532	0.609096
C283	C	0.712605	-0.000143	-0.058113
C284	C	1.045938	0.333190	0.275221
C285	C	1.379272	0.666524	0.608554
C286	C	0.574732	-0.000128	0.026628
C287	C	0.908065	0.333205	0.359961
C288	C	1.241399	0.666539	0.693294
C289	C	0.574179	-0.000132	0.080282
C290	C	0.907512	0.333201	0.413616
C291	C	1.240846	0.666535	0.746949
N292	N	0.570576	0.120645	-0.061773
N293	N	0.903910	0.453979	0.271560
N294	N	1.237243	0.787312	0.604893
C295	C	0.566353	-0.000103	-0.150181
C296	C	0.899687	0.333231	0.183152
C297	C	1.233020	0.666564	0.516485
C298	C	0.566906	-0.000095	-0.203836
C299	C	0.900239	0.333238	0.129497
C300	C	1.233573	0.666571	0.462831
C301	C	0.614884	-0.000115	0.419105
C302	C	0.948217	0.333218	0.752439
C303	C	1.281551	0.666552	1.085772
C304	C	0.612833	-0.000108	0.620765
C305	C	0.946166	0.333226	0.954098
C306	C	1.279500	0.666559	1.287431
O307	O	0.650055	-0.000094	0.652028
O308	O	0.983388	0.333240	0.985361
O309	O	1.316721	0.666573	1.318694
N310	N	0.568497	-0.000098	0.639880
N311	N	0.901830	0.333235	0.973213
N312	N	1.235163	0.666569	1.306546
C313	C	0.524670	-0.000087	0.608576
C314	C	0.858003	0.333246	0.941910
C315	C	1.191336	0.666580	1.275243
O316	O	0.486912	-0.000073	0.629462
O317	O	0.820245	0.333260	0.962796
O318	O	1.153579	0.666593	1.296129
C319	C	0.526721	-0.000091	0.406918
C320	C	0.860055	0.333243	0.740252
C321	C	1.193388	0.666576	1.073585
C322	C	0.571061	-0.000106	0.387806
C323	C	0.904394	0.333228	0.721140
C324	C	1.237727	0.666561	1.054473
C325	C	0.659220	-0.000129	0.399993
C326	C	0.992553	0.333204	0.733326
C327	C	1.325886	0.666537	1.066660
C328	C	0.659732	-0.000134	0.349581
C329	C	0.993065	0.333199	0.682914
C330	C	1.326399	0.666533	1.016248
C331	C	0.615909	-0.000124	0.318282
C332	C	0.949242	0.333209	0.651615
C333	C	1.282575	0.666542	0.984948
C334	C	0.571573	-0.000110	0.337394
C335	C	0.904906	0.333223	0.670728
C336	C	1.238240	0.666556	1.004061
C337	C	0.482895	-0.000076	0.375616
C338	C	0.816228	0.333257	0.708949
C339	C	1.149562	0.666591	1.042283
C340	C	0.483412	-0.000076	0.325199
C341	C	0.816745	0.333258	0.658532
C342	C	1.150079	0.666591	0.991865
C343	C	0.527751	-0.000091	0.306087
C344	C	0.861085	0.333243	0.639420
C345	C	1.194418	0.666576	0.972753
C346	C	0.528262	-0.000105	0.255683
C347	C	0.861595	0.333228	0.589017
C348	C	1.194928	0.666561	0.922350
N349	N	0.572598	-0.000115	0.236568
N350	N	0.905932	0.333218	0.569902
N351	N	1.239265	0.666552	0.903235
C352	C	0.616422	-0.000124	0.267867
C353	C	0.949755	0.333209	0.601201
C354	C	1.283088	0.666542	0.934534
C355	C	0.523596	-0.000086	0.714450
C356	C	0.856929	0.333247	1.047784
C357	C	1.190262	0.666581	1.381117
C358	C	0.523083	-0.000086	0.764865
C359	C	0.856416	0.333248	1.098198
C360	C	1.189749	0.666581	1.431531
C361	C	0.611246	-0.000105	0.777049
C362	C	0.944579	0.333228	1.110383
C363	C	1.277913	0.666561	1.443716
C364	C	0.611759	-0.000109	0.726634
C365	C	0.945092	0.333224	1.059967
C366	C	1.278425	0.666558	1.393301
C367	C	0.567932	-0.000095	0.695335
C368	C	0.901266	0.333238	1.028669
C369	C	1.234599	0.666571	1.362002
C370	C	0.617494	-0.000135	0.161998
C371	C	0.950827	0.333199	0.495332
C372	C	1.284161	0.666532	0.828665
C373	C	0.618002	-0.000142	0.111582
C374	C	0.951336	0.333192	0.444915
C375	C	1.284669	0.666525	0.778248
C376	C	0.529839	-0.000119	0.099401
C377	C	0.863173	0.333214	0.432735
C378	C	1.196506	0.666547	0.766068
C379	C	0.529331	-0.000115	0.149814
C380	C	0.862664	0.333218	0.483147
C381	C	1.195997	0.666552	0.816480
C382	C	0.573162	-0.000121	0.181112
C383	C	0.906495	0.333212	0.514445
C384	C	1.239829	0.666546	0.847778
O385	O	0.491060	-0.000114	0.224392
O386	O	0.824393	0.333220	0.557725
O387	O	1.157727	0.666553	0.891059
O388	O	0.654174	-0.000127	0.246972
O389	O	0.987507	0.333207	0.580306
O390	O	1.320841	0.666540	0.913639
C391	C	0.614372	-0.000110	0.469517
C392	C	0.947705	0.333223	0.802851
C393	C	1.281038	0.666556	1.136184
C394	C	0.570036	-0.000096	0.488630
C395	C	0.903369	0.333237	0.821963
C396	C	1.236703	0.666570	1.155297
C397	C	0.526213	-0.000087	0.457331
C398	C	0.859546	0.333247	0.790664
C399	C	1.192879	0.666580	1.123997
C400	C	0.569523	-0.000096	0.539044
C401	C	0.902856	0.333237	0.872378
C402	C	1.236190	0.666571	1.205711
C403	C	0.613346	-0.000106	0.570343
C404	C	0.946680	0.333228	0.903677
C405	C	1.280013	0.666561	1.237010
C406	C	0.657683	-0.000115	0.551228
C407	C	0.991016	0.333218	0.884562
C408	C	1.324349	0.666551	1.217895
C409	C	0.658195	-0.000120	0.500817
C410	C	0.991528	0.333213	0.834150
C411	C	1.324862	0.666547	1.167483
C412	C	0.481876	-0.000077	0.476446
C413	C	0.815210	0.333256	0.809779
C414	C	1.148543	0.666590	1.143112
C415	C	0.481368	-0.000073	0.526858
C416	C	0.814701	0.333260	0.860191
C417	C	1.148034	0.666594	1.193525
C418	C	0.525191	-0.000083	0.558157
C419	C	0.858524	0.333251	0.891491
C420	C	1.191858	0.666584	1.224824
H421	H	-0.191257	0.083798	-0.059094
H422	H	0.142076	0.417131	0.274239
H423	H	0.475409	0.750465	0.607573
C424	C	0.431182	0.043572	0.425220
C425	C	0.764515	0.376905	0.758554
C426	C	1.097849	0.710239	1.091887
C427	C	0.434155	-0.000054	0.396615
C428	C	0.767488	0.333280	0.729948
C429	C	1.100822	0.666613	1.063281
H430	H	0.401091	0.043585	0.438185
H431	H	0.734424	0.376918	0.771518
H432	H	1.067757	0.710251	1.104851
H433	H	0.433231	0.073155	0.405801
H434	H	0.766564	0.406488	0.739134
H435	H	1.099897	0.739822	1.072468
H436	H	0.457205	0.043558	0.451081
H437	H	0.790538	0.376891	0.784415
H438	H	1.123872	0.710224	1.117748
H439	H	0.408134	-0.000037	0.370752
H440	H	0.741467	0.333296	0.704085
H441	H	1.074800	0.666629	1.037418
H442	H	0.432102	-0.029644	0.416035
H443	H	0.765435	0.303689	0.749368
H444	H	1.098768	0.637022	1.082702
H445	H	-0.282709	0.083786	-0.058167
H446	H	0.050624	0.417119	0.275166
H447	H	0.383957	0.750452	0.608499
C448	C	0.071063	0.146087	-0.103413
C449	C	0.404396	0.479420	0.229920
C450	C	0.737729	0.812753	0.563253
C451	C	0.047829	0.143253	-0.061545
C452	C	0.381162	0.476587	0.271788
C453	C	0.714496	0.809920	0.605122
H454	H	0.088163	0.177482	-0.103592
H455	H	0.421497	0.510816	0.229741
H456	H	0.754830	0.844149	0.563074
H457	H	0.047494	0.144161	-0.131404
H458	H	0.380827	0.477494	0.201930
H459	H	0.714160	0.810827	0.535263
H460	H	0.093294	0.118542	-0.103634
H461	H	0.426628	0.451875	0.229699
H462	H	0.759961	0.785209	0.563033
H463	H	0.025595	0.170796	-0.061326
H464	H	0.358928	0.504129	0.272007
H465	H	0.692261	0.837463	0.605341
H466	H	0.071401	0.145184	-0.033548
H467	H	0.404734	0.478518	0.299786
H468	H	0.738067	0.811851	0.633119
H469	H	0.494160	-0.000113	0.073909
H470	H	0.827493	0.333220	0.407242
H471	H	1.160826	0.666553	0.740575
H472	H	-0.050812	-0.130303	-0.060510
H473	H	0.282521	0.203030	0.272823
H474	H	0.615854	0.536364	0.606157
C475	C	0.693740	-0.493422	-0.122558
C476	C	1.027073	-0.160088	0.210775
C477	C	1.360407	0.173245	0.544109
C478	C	0.660734	-0.524136	-0.151993
C479	C	0.994067	-0.190802	0.181340
C480	C	1.327401	0.142531	0.514673
H481	H	0.713482	-0.475293	-0.142318
H482	H	1.046815	-0.141960	0.191016
H483	H	1.380149	0.191373	0.524349
H484	H	0.713714	-0.514259	-0.100175
H485	H	1.047047	-0.180926	0.233158
H486	H	1.380381	0.152407	0.566492
H487	H	0.676406	-0.469876	-0.105225
H488	H	1.009740	-0.136543	0.228108
H489	H	1.343073	0.196791	0.561442
H490	H	0.678068	-0.547684	-0.169324
H491	H	1.011401	-0.214351	0.164009
H492	H	1.344734	0.118983	0.497343
H493	H	0.640758	-0.503296	-0.174385
H494	H	0.974091	-0.169963	0.158948
H495	H	1.307424	0.163370	0.492282
H496	H	0.446189	-0.000068	0.450966
H497	H	0.779522	0.333265	0.784299
H498	H	1.112856	0.666598	1.117633
H499	H	0.191881	-0.130281	-0.063003
H500	H	0.525214	0.203052	0.270331
H501	H	0.858547	0.536386	0.603664
C502	C	0.705099	-0.000157	0.128698
C503	C	1.038432	0.333177	0.462031
C504	C	1.371765	0.666510	0.795364
C505	C	0.666744	-0.000153	0.090575
C506	C	1.000077	0.333180	0.423908
C507	C	1.333410	0.666513	0.757242
H508	H	0.735188	-0.000160	0.115729
H509	H	1.068521	0.333174	0.449062
H510	H	1.401854	0.666507	0.782396
H511	H	0.703057	-0.029745	0.148112
H512	H	1.036391	0.303588	0.481445
H513	H	1.369724	0.636922	0.814778
H514	H	0.703067	0.029439	0.148102
H515	H	1.036400	0.362772	0.481436
H516	H	1.369734	0.696106	0.814769
H517	H	0.668774	-0.029751	0.071172
H518	H	1.002107	0.303582	0.404506
H519	H	1.335440	0.636916	0.737839
H520	H	0.668786	0.029438	0.071153
H521	H	1.002119	0.362771	0.404486
H522	H	1.335453	0.696105	0.737820
H523	H	0.653186	-0.000138	0.187476
H524	H	0.986519	0.333196	0.520809
H525	H	1.319852	0.666529	0.854143
C526	C	0.396214	-0.000051	0.318222
C527	C	0.729547	0.333283	0.651556
C528	C	1.062880	0.666616	0.984889
C529	C	0.435235	-0.000063	0.290796
C530	C	0.768568	0.333270	0.624129
C531	C	1.101902	0.666604	0.957462
H532	H	0.366472	-0.000046	0.296983
H533	H	0.699806	0.333287	0.630316
H534	H	1.033139	0.666620	0.963650
H535	H	0.397858	0.029540	0.338133
H536	H	0.731192	0.362874	0.671466
H537	H	1.064525	0.696207	1.004799
H538	H	0.397843	-0.029644	0.338146
H539	H	0.731176	0.303690	0.671480
H540	H	1.064509	0.637023	1.004813
H541	H	0.433608	0.029532	0.270874
H542	H	0.766941	0.362866	0.604208
H543	H	1.100275	0.696199	0.937541
H544	H	0.433589	-0.029657	0.270877
H545	H	0.766923	0.303676	0.604210
H546	H	1.100256	0.637010	0.937544
C547	C	0.657139	-0.195585	-0.148443
C548	C	0.990472	0.137748	0.184890
C549	C	1.323805	0.471081	0.518224
C550	C	0.631610	-0.230324	-0.122891
C551	C	0.964943	0.103010	0.210442
C552	C	1.298277	0.436343	0.543776
H553	H	0.676883	-0.213697	-0.168204
H554	H	1.010216	0.119637	0.165129
H555	H	1.343550	0.452970	0.498462
H556	H	0.677110	-0.174754	-0.126056
H557	H	1.010443	0.158579	0.207278
H558	H	1.343777	0.491912	0.540611
H559	H	0.634734	-0.174751	-0.168404
H560	H	0.968067	0.158582	0.164930
H561	H	1.301400	0.491915	0.498263
H562	H	0.654015	-0.251155	-0.102927
H563	H	0.987349	0.082178	0.230406
H564	H	1.320682	0.415511	0.563739
H565	H	0.611637	-0.251164	-0.145281
H566	H	0.944970	0.082170	0.188052
H567	H	1.278304	0.415503	0.521386
H568	H	0.652438	-0.468407	-0.143700
H569	H	0.985772	-0.135074	0.189634
H570	H	1.319105	0.198260	0.522967
H571	H	0.694301	-0.000132	0.485261
H572	H	1.027634	0.333202	0.818594
H573	H	1.360967	0.666535	1.151927
H574	H	0.493226	-0.000117	0.165375
H575	H	0.826559	0.333216	0.498709
H576	H	1.159893	0.666549	0.832042
H577	H	-0.050802	0.130065	-0.060533
H578	H	0.282531	0.463398	0.272800
H579	H	0.615865	0.796732	0.606133
H580	H	0.652449	-0.628656	-0.143694
H581	H	0.985782	-0.295323	0.189639
H582	H	1.319115	0.038010	0.522972
H583	H	0.623302	-0.125822	-0.114598
H584	H	0.956635	0.207511	0.218735
H585	H	1.289969	0.540844	0.552068
H586	H	0.332339	0.083838	-0.064461
H587	H	0.665672	0.417172	0.268872
H588	H	0.999005	0.750505	0.602205
H589	H	0.423804	0.083840	-0.065396
H590	H	0.757137	0.417173	0.267937
H591	H	1.090471	0.750507	0.601271
C592	C	0.398200	-0.137790	-0.065123
C593	C	0.731533	0.195543	0.268210
C594	C	1.064866	0.528876	0.601543
C595	C	0.430976	-0.097191	-0.065464
C596	C	0.764309	0.236142	0.267869
C597	C	1.097643	0.569476	0.601203
H598	H	0.415302	-0.169182	-0.065293
H599	H	0.748636	0.164151	0.268041
H600	H	1.081969	0.497484	0.601374
H601	H	0.374638	-0.135863	-0.093120
H602	H	0.707971	0.197470	0.240214
H603	H	1.041305	0.530804	0.573547
H604	H	0.382436	-0.135863	-0.036721
H605	H	0.715770	0.197470	0.296613
H606	H	1.049103	0.530804	0.629946
H607	H	0.446737	-0.099116	-0.093868
H608	H	0.780070	0.234217	0.239465
H609	H	1.113404	0.567551	0.572798
H610	H	0.454547	-0.099119	-0.037465
H611	H	0.787880	0.234214	0.295868
H612	H	1.121213	0.567548	0.629202
C613	C	0.435990	-0.000062	0.747744
C614	C	0.769324	0.333271	1.081078
C615	C	1.102657	0.666605	1.414411
C616	C	0.474344	-0.000074	0.785869
C617	C	0.807677	0.333260	1.119202
C618	C	1.141010	0.666593	1.452536
H619	H	0.405900	-0.000049	0.760711
H620	H	0.739234	0.333284	1.094045
H621	H	1.072567	0.666618	1.427378
H622	H	0.438016	-0.029654	0.728341
H623	H	0.771350	0.303680	1.061674
H624	H	1.104683	0.637013	1.395007
H625	H	0.438040	0.029530	0.728330
H626	H	0.771373	0.362864	1.061663
H627	H	1.104707	0.696197	1.394997
H628	H	0.472296	-0.029668	0.805282
H629	H	0.805630	0.303665	1.138615
H630	H	1.138963	0.636998	1.471948
H631	H	0.472317	0.029521	0.805281
H632	H	0.805650	0.362854	1.138614
H633	H	1.138983	0.696187	1.471947
C634	C	0.746823	-0.000148	0.366704
C635	C	1.080156	0.333186	0.700038
C636	C	1.413490	0.666519	1.033371
C637	C	0.708472	-0.000143	0.328578
C638	C	1.041805	0.333190	0.661911
C639	C	1.375138	0.666523	0.995244
H640	H	0.776914	-0.000149	0.353739
H641	H	1.110247	0.333184	0.687073
H642	H	1.443581	0.666517	1.020406
H643	H	0.744780	-0.029738	0.386116
H644	H	1.078113	0.303596	0.719449
H645	H	1.411447	0.636929	1.052783
H646	H	0.744788	0.029446	0.386110
H647	H	1.078122	0.362780	0.719443
H648	H	1.411455	0.696113	1.052777
H649	H	0.710504	-0.029740	0.309174
H650	H	1.043838	0.303594	0.642507
H651	H	1.377171	0.636927	0.975841
H652	H	0.710516	0.029449	0.309158
H653	H	1.043849	0.362783	0.642491
H654	H	1.377182	0.696116	0.975824
H655	H	0.652428	-0.371518	-0.143703
H656	H	0.985762	-0.038185	0.189631
H657	H	1.319095	0.295148	0.522964
C658	C	0.394272	-0.000044	0.509737
C659	C	0.727605	0.333289	0.843070
C660	C	1.060938	0.666622	1.176404
C661	C	0.432625	-0.000055	0.547862
C662	C	0.765958	0.333278	0.881195
C663	C	1.099292	0.666611	1.214529
H664	H	0.364182	-0.000027	0.522704
H665	H	0.697515	0.333307	0.856037
H666	H	1.030848	0.666640	1.189371
H667	H	0.396295	-0.029639	0.490337
H668	H	0.729629	0.303695	0.823670
H669	H	1.062962	0.637028	1.157003
H670	H	0.396323	0.029545	0.490320
H671	H	0.729657	0.362879	0.823653
H672	H	1.062990	0.696212	1.156986
H673	H	0.430575	-0.029647	0.567277
H674	H	0.763908	0.303686	0.900611
H675	H	1.097242	0.637020	1.233944
H676	H	0.430600	0.029542	0.567271
H677	H	0.763933	0.362875	0.900604
H678	H	1.097267	0.696209	1.233937
H679	H	0.488671	-0.468459	0.020170
H680	H	0.822005	-0.135126	0.353503
H681	H	1.155338	0.198207	0.686836
H682	H	0.332344	-0.084020	-0.064446
H683	H	0.665677	0.249314	0.268887
H684	H	0.999010	0.582647	0.602220
H685	H	0.623359	-0.777472	-0.114595
H686	H	0.956692	-0.444139	0.218738
H687	H	1.290026	-0.110805	0.552071
H688	H	0.488676	-0.531815	0.020159
H689	H	0.822009	-0.198481	0.353493
H690	H	1.155342	0.134852	0.686826
H691	H	0.487905	-0.000075	0.688970
H692	H	0.821238	0.333259	1.022304
H693	H	1.154572	0.666592	1.355637
C694	C	0.015042	-0.184077	-0.061170
C695	C	0.348376	0.149256	0.272163
C696	C	0.681709	0.482590	0.605496
C697	C	0.047822	-0.143481	-0.061514
C698	C	0.381155	0.189853	0.271820
C699	C	0.714489	0.523186	0.605153
H700	H	0.032143	-0.215471	-0.061336
H701	H	0.365476	0.117863	0.271997
H702	H	0.698809	0.451196	0.605331
H703	H	-0.008518	-0.182151	-0.089168
H704	H	0.324815	0.151183	0.244165
H705	H	0.658149	0.484516	0.577499
H706	H	-0.000723	-0.182145	-0.032769
H707	H	0.332611	0.151189	0.300564
H708	H	0.665944	0.484522	0.633897
H709	H	0.063584	-0.145411	-0.089917
H710	H	0.396918	0.187923	0.243417
H711	H	0.730251	0.521256	0.576750
H712	H	0.071391	-0.145408	-0.033513
H713	H	0.404724	0.187926	0.299820
H714	H	0.738058	0.521259	0.633153
C715	C	-0.216836	-0.137843	-0.058825
C716	C	0.116498	0.195490	0.274508
C717	C	0.449831	0.528824	0.607842
C718	C	-0.184062	-0.097240	-0.059162
C719	C	0.149271	0.236093	0.274172
C720	C	0.482605	0.569426	0.607505
H721	H	-0.199730	-0.169234	-0.058990
H722	H	0.133604	0.164100	0.274344
H723	H	0.466937	0.497433	0.607677
H724	H	-0.240393	-0.135919	-0.086825
H725	H	0.092940	0.197414	0.246508
H726	H	0.426274	0.530747	0.579842
H727	H	-0.232605	-0.135916	-0.030426
H728	H	0.100728	0.197417	0.302907
H729	H	0.434062	0.530750	0.636241
H730	H	-0.168295	-0.099165	-0.087562
H731	H	0.165038	0.234168	0.245771
H732	H	0.498371	0.567502	0.579104
H733	H	-0.160496	-0.099165	-0.031159
H734	H	0.172837	0.234168	0.302175
H735	H	0.506171	0.567501	0.635508
C736	C	0.661817	0.043516	0.840807
C737	C	0.995151	0.376849	1.174140
C738	C	1.328484	0.710183	1.507474
C739	C	0.659419	-0.000109	0.811458
C740	C	0.992753	0.333224	1.144792
C741	C	1.326086	0.666557	1.478125
H742	H	0.691557	0.043517	0.862048
H743	H	1.024891	0.376851	1.195381
H744	H	1.358224	0.710184	1.528715
H745	H	0.635340	0.043514	0.859400
H746	H	0.968673	0.376848	1.192734
H747	H	1.302006	0.710181	1.526067
H748	H	0.660190	0.073103	0.820875
H749	H	0.993523	0.406436	1.154208
H750	H	1.326856	0.739769	1.487541
H751	H	0.661043	-0.029696	0.831391
H752	H	0.994377	0.303637	1.164724
H753	H	1.327710	0.636970	1.498057
H754	H	0.685904	-0.000112	0.792864
H755	H	1.019238	0.333221	1.126197
H756	H	1.352571	0.666554	1.459530
H757	H	0.100434	-0.130287	-0.062063
H758	H	0.433767	0.203046	0.271270
H759	H	0.767101	0.536380	0.604603
H760	H	0.693365	-0.000125	0.576721
H761	H	1.026699	0.333208	0.910055
H762	H	1.360032	0.666541	1.243388
H763	H	-0.282715	-0.084064	-0.058159
H764	H	0.050618	0.249269	0.275175
H765	H	0.383952	0.582603	0.608508
H766	H	0.488668	-0.371567	0.020169
H767	H	0.822002	-0.038233	0.353503
H768	H	1.155335	0.295100	0.686836
H769	H	0.623364	-0.874380	-0.114591
H770	H	0.956698	-0.541047	0.218743
H771	H	1.290031	-0.207714	0.552076
C772	C	0.248648	0.133489	-0.063586
C773	C	0.581981	0.466822	0.269748
C774	C	0.915315	0.800155	0.603081
C775	C	0.199076	0.143261	-0.063082
C776	C	0.532409	0.476595	0.270252
C777	C	0.865743	0.809928	0.603585
H778	H	0.265759	0.164879	-0.063756
H779	H	0.599092	0.498212	0.269578
H780	H	0.932425	0.831546	0.602911
H781	H	0.253005	0.114491	-0.091868
H782	H	0.586338	0.447824	0.241465
H783	H	0.919672	0.781158	0.574799
H784	H	0.260801	0.114475	-0.035469
H785	H	0.594134	0.447808	0.297864
H786	H	0.927467	0.781142	0.631197
H787	H	0.186923	0.162272	-0.091200
H788	H	0.520256	0.495605	0.242133
H789	H	0.853589	0.828938	0.575467
H790	H	0.194716	0.162267	-0.034796
H791	H	0.528049	0.495600	0.298537
H792	H	0.861383	0.828934	0.631870
C793	C	0.483902	-0.195665	0.024887
C794	C	0.817235	0.137669	0.358220
C795	C	1.150569	0.471002	0.691554
C796	C	0.509443	-0.230380	-0.000662
C797	C	0.842776	0.102953	0.332672
C798	C	1.176110	0.436286	0.666005
H799	H	0.464162	-0.213793	0.044648
H800	H	0.797496	0.119540	0.377982
H801	H	1.130829	0.452873	0.711315
H802	H	0.463925	-0.174836	0.002498
H803	H	0.797258	0.158497	0.335831
H804	H	1.130591	0.491830	0.669165
H805	H	0.506299	-0.174826	0.044848
H806	H	0.839633	0.158508	0.378181
H807	H	1.172966	0.491841	0.711515
H808	H	0.487046	-0.251217	-0.020626
H809	H	0.820379	0.082116	0.312708
H810	H	1.153712	0.415450	0.646041
H811	H	0.529422	-0.251217	0.021730
H812	H	0.862755	0.082116	0.355063
H813	H	1.196089	0.415449	0.688397
H814	H	0.100433	0.130077	-0.062078
H815	H	0.433766	0.463410	0.271256
H816	H	0.767099	0.796744	0.604589
C817	C	0.454859	-0.601604	0.054011
C818	C	0.788192	-0.268271	0.387344
C819	C	1.121526	0.065063	0.720677
C820	C	0.480396	-0.636320	0.028459
C821	C	0.813730	-0.302987	0.361792
C822	C	1.147063	0.030346	0.695126
H823	H	0.435121	-0.619732	0.073774
H824	H	0.768454	-0.286399	0.407108
H825	H	1.101788	0.046934	0.740441
H826	H	0.434880	-0.580775	0.031624
H827	H	0.768214	-0.247442	0.364957
H828	H	1.101547	0.085892	0.698290
H829	H	0.477259	-0.580766	0.073970
H830	H	0.810592	-0.247432	0.407303
H831	H	1.143925	0.085901	0.740637
H832	H	0.457997	-0.657156	0.008497
H833	H	0.791330	-0.323823	0.341830
H834	H	1.124663	0.009511	0.675163
H835	H	0.500377	-0.657158	0.050849
H836	H	0.833710	-0.323825	0.384182
H837	H	1.167043	0.009509	0.717515
H838	H	0.517782	-0.874407	-0.008960
H839	H	0.851115	-0.541074	0.324373
H840	H	1.184448	-0.207741	0.657707
C841	C	0.483949	-0.804645	0.024885
C842	C	0.817282	-0.471312	0.358218
C843	C	1.150616	-0.137979	0.691551
C844	C	0.509486	-0.769907	-0.000659
C845	C	0.842819	-0.436574	0.332674
C846	C	1.176152	-0.103241	0.666007
H847	H	0.464196	-0.786534	0.044637
H848	H	0.797529	-0.453201	0.377971
H849	H	1.130863	-0.119867	0.711304
H850	H	0.506345	-0.825477	0.044849
H851	H	0.839679	-0.492144	0.378182
H852	H	1.173012	-0.158810	0.711516
H853	H	0.463981	-0.825479	0.002489
H854	H	0.797314	-0.492145	0.335822
H855	H	1.130647	-0.158812	0.669156
H856	H	0.529457	-0.749076	0.021737
H857	H	0.862790	-0.415743	0.355070
H858	H	1.196123	-0.082410	0.688403
H859	H	0.487087	-0.749067	-0.020625
H860	H	0.820420	-0.415733	0.312708
H861	H	1.153753	-0.082400	0.646041
H862	H	0.517726	-0.125856	-0.008963
H863	H	0.851059	0.207478	0.324371
H864	H	1.184392	0.540811	0.657704
C865	C	0.709817	0.043481	0.463746
C866	C	1.043151	0.376815	0.797079
C867	C	1.376484	0.710148	1.130412
C868	C	0.707397	-0.000140	0.434391
C869	C	1.040730	0.333193	0.767724
C870	C	1.374064	0.666527	1.101058
H871	H	0.739564	0.043473	0.484976
H872	H	1.072897	0.376806	0.818310
H873	H	1.406231	0.710139	1.151643
H874	H	0.683348	0.043485	0.482350
H875	H	1.016681	0.376818	0.815683
H876	H	1.350015	0.710151	1.149017
H877	H	0.708189	0.073071	0.443817
H878	H	1.041523	0.406404	0.777150
H879	H	1.374856	0.739737	1.110484
H880	H	0.709021	-0.029730	0.454320
H881	H	1.042355	0.303604	0.787653
H882	H	1.375688	0.636937	1.120986
H883	H	0.733874	-0.000148	0.415785
H884	H	1.067207	0.333185	0.749118
H885	H	1.400540	0.666519	1.082452
H886	H	0.647864	-0.000121	0.711077
H887	H	0.981197	0.333213	1.044410
H888	H	1.314530	0.666546	1.377744
