data_functionalizedCrystal
_audit_creation_method	'MofGen! by Chris Wilmer'
_symmetry_space_group_name_H-M	'P1'
_symmetry_Int_Tables_number	1
_symmetry_cell_setting	triclinic
loop_
_symmetry_equiv_pos_as_xyz
  x,y,z
_cell_length_a	16.956984
_cell_length_b	11.792254
_cell_length_c	15.455313
_cell_angle_alpha	92.683372
_cell_angle_beta	87.518126
_cell_angle_gamma	80.126008
loop_
_atom_site_label
_atom_site_type_symbol
_atom_site_fract_x
_atom_site_fract_y
_atom_site_fract_z
O1	O	1.061716	0.041715	-0.072135
O2	O	1.561716	0.541715	0.427865
O3	O	0.829732	0.081546	-0.072136
O4	O	1.329732	0.581546	0.427864
O5	O	0.951348	-0.104116	-0.072129
O6	O	1.451348	0.395884	0.427871
O7	O	0.940100	0.227377	-0.072142
O8	O	1.440100	0.727377	0.427858
O9	O	0.944394	-0.093540	0.072132
O10	O	1.444394	0.406460	0.572132
O11	O	0.822777	0.092122	0.072126
O12	O	1.322777	0.592122	0.572126
O13	O	1.054762	0.052291	0.072127
O14	O	1.554762	0.552291	0.572127
Cu15	Cu	0.938135	0.073172	0.085299
Cu16	Cu	1.438135	0.573172	0.585299
Cu17	Cu	0.946359	0.060665	-0.085308
Cu18	Cu	1.446359	0.560665	0.414692
O19	O	0.933146	0.237953	0.072120
O20	O	1.433146	0.737953	0.572120
C21	C	0.796556	0.088874	-0.000005
C22	C	1.296556	0.588874	0.499995
C23	C	0.708061	0.094938	-0.000005
C24	C	1.208061	0.594938	0.499995
C25	C	0.675535	-0.006451	-0.000000
C26	C	1.175535	0.493549	0.500000
C27	C	0.592385	-0.000747	-0.000006
C28	C	1.092385	0.499253	0.499994
C29	C	0.541762	0.106347	-0.000012
C30	C	1.041762	0.606347	0.499988
C31	C	0.574294	0.207743	-0.000020
C32	C	1.074294	0.707743	0.499980
C33	C	0.657443	0.202037	-0.000020
C34	C	1.157443	0.702037	0.499980
C35	C	0.292113	0.134589	-0.000019
C36	C	0.792113	0.634589	0.499981
C37	C	0.208959	0.140287	-0.000017
C38	C	0.708959	0.640287	0.499983
C39	C	0.227056	-0.068203	-0.000005
C40	C	0.727056	0.431797	0.499995
C41	C	0.310206	-0.073899	0.000001
C42	C	0.810206	0.426101	0.500001
C43	C	0.342730	0.027496	-0.000012
C44	C	0.842730	0.527496	0.499988
N45	N	0.456769	0.112180	-0.000016
N46	N	0.956769	0.612180	0.499984
N47	N	0.427722	0.021661	-0.000014
N48	N	0.927722	0.521661	0.499986
C49	C	0.947162	-0.141046	0.000001
C50	C	1.447162	0.358954	0.500001
C51	C	0.945042	-0.266841	0.000001
C52	C	1.445042	0.233159	0.500001
C53	C	0.943318	-0.369001	-0.000003
C54	C	1.443318	0.130999	0.499997
C55	C	0.941164	-0.497167	-0.000011
C56	C	1.441164	0.002833	0.499989
C57	C	1.087938	0.044963	-0.000006
C58	C	1.587938	0.544963	0.499994
C59	C	1.176433	0.038899	-0.000011
C60	C	1.676433	0.538899	0.499989
C61	C	0.937332	0.274883	-0.000012
C62	C	1.437332	0.774883	0.499988
C63	C	0.939453	0.400678	-0.000017
C64	C	1.439453	0.900678	0.499983
N65	N	0.932355	0.081968	0.205294
N66	N	1.432355	0.581968	0.705294
N67	N	0.952145	0.051860	-0.205303
N68	N	1.452145	0.551860	0.294697
C69	C	0.984040	0.003118	0.250691
C70	C	1.484040	0.503118	0.750691
C71	C	0.979677	0.009779	0.341498
C72	C	1.479677	0.509779	0.841498
C73	C	0.923633	0.095297	0.386907
C74	C	1.423633	0.595297	0.886907
C75	C	0.871942	0.174151	0.341504
C76	C	1.371942	0.674151	0.841504
C77	C	0.876302	0.167483	0.250698
C78	C	1.376302	0.667483	0.750698
C79	C	0.904814	0.124046	0.658488
C80	C	1.404814	0.624046	1.158488
C81	C	0.900460	0.130710	0.749300
C82	C	1.400460	0.630710	1.249300
C83	C	1.008194	-0.033664	0.749288
C84	C	1.508194	0.466336	1.249288
C85	C	1.012553	-0.040320	0.658480
C86	C	1.512553	0.459680	1.158480
C87	C	0.960859	0.038530	0.613085
C88	C	1.460859	0.538530	1.113085
N89	N	0.919173	0.102110	0.479727
N90	N	1.419173	0.602110	0.979727
N91	N	0.965315	0.031711	0.520267
N92	N	1.465315	0.531711	1.020267
H93	H	0.200566	-0.150754	-0.000004
H94	H	0.700566	0.349246	0.499996
H95	H	0.826305	0.243778	0.378481
H96	H	1.326305	0.743778	0.878481
H97	H	1.029681	-0.066515	0.213725
H98	H	1.529681	0.433485	0.713725
O99	O	0.159898	0.244415	-0.000068
O100	O	0.659898	0.744415	0.499932
C101	C	0.206433	0.332689	-0.000061
C102	C	0.706433	0.832689	0.499939
H103	H	0.269674	0.296062	-0.027370
H104	H	0.769674	0.796062	0.472630
H105	H	0.178097	0.404163	-0.041953
H106	H	0.678097	0.904163	0.458047
H107	H	0.209156	0.369221	0.069144
H108	H	0.709156	0.869221	0.569144
H109	H	0.351418	-0.161106	0.000009
H110	H	0.851418	0.338894	0.500009
O111	O	0.826175	0.244233	0.206635
O112	O	1.326175	0.744233	0.706635
C113	C	0.838536	0.356968	0.228821
C114	C	1.338536	0.856968	0.728821
H115	H	0.901154	0.353424	0.253767
H116	H	1.401154	0.853424	0.753767
H117	H	0.832480	0.410372	0.169097
H118	H	1.332480	0.910372	0.669097
H119	H	0.791971	0.398269	0.281536
H120	H	1.291971	0.898269	0.781536
H121	H	0.862725	0.188251	0.621534
H122	H	1.362725	0.688251	1.121534
H123	H	0.854819	0.200353	0.786268
H124	H	1.354819	0.700353	1.286268
H125	H	0.318584	0.217151	-0.000035
H126	H	0.818584	0.717151	0.499965
H127	H	1.021763	-0.054427	0.378460
H128	H	1.521763	0.445573	0.878460
O129	O	1.067015	-0.123498	0.614507
O130	O	1.567015	0.376502	1.114507
C131	C	1.111713	-0.191650	0.674049
C132	C	1.611713	0.308350	1.174049
H133	H	1.075923	-0.185142	0.738788
H134	H	1.575923	0.314858	1.238788
H135	H	1.124741	-0.285309	0.647820
H136	H	1.624741	0.214691	1.147820
H137	H	1.170618	-0.159609	0.683687
H138	H	1.670618	0.340391	1.183687
H139	H	0.683923	0.284599	-0.000020
H140	H	1.183923	0.784599	0.499980
O141	O	0.724595	-0.110581	-0.000034
O142	O	1.224595	0.389419	0.499966
C143	C	0.678051	-0.198842	-0.000012
C144	C	1.178051	0.301158	0.499988
H145	H	0.617444	-0.166213	-0.027323
H146	H	1.117444	0.333787	0.472677
H147	H	0.710419	-0.276467	-0.041895
H148	H	1.210419	0.223533	0.458105
H149	H	0.668653	-0.225218	0.069198
H150	H	1.168653	0.274782	0.569198
H151	H	0.533070	0.294940	-0.000030
H152	H	1.033070	0.794940	0.499970
H153	H	0.565907	-0.083308	-0.000003
H154	H	1.065907	0.416692	0.499997
H155	H	1.050280	-0.097861	0.786257
H156	H	1.550280	0.402139	1.286257
