data_functionalizedCrystal
_audit_creation_method	'MofGen! by Chris Wilmer'
_symmetry_space_group_name_H-M	'P1'
_symmetry_Int_Tables_number	1
_symmetry_cell_setting	triclinic
loop_
_symmetry_equiv_pos_as_xyz
  x,y,z
_cell_length_a	15.625110
_cell_length_b	15.625429
_cell_length_c	11.295483
_cell_angle_alpha	76.082581
_cell_angle_beta	103.913491
_cell_angle_gamma	89.778684
loop_
_atom_site_label
_atom_site_type_symbol
_atom_site_fract_x
_atom_site_fract_y
_atom_site_fract_z
O1	O	1.175014	0.139053	0.348407
O2	O	0.919502	0.146126	0.235000
O3	O	1.050797	0.014833	0.348398
O4	O	1.043718	0.270346	0.235009
O5	O	1.039265	0.026346	0.536496
O6	O	0.907970	0.157640	0.423098
O7	O	1.163481	0.150566	0.536505
Cu8	Cu	1.034673	0.155154	0.496976
Cu9	Cu	1.048311	0.141538	0.274528
O10	O	1.032186	0.281860	0.423107
C11	C	0.880976	0.150420	0.315532
C12	C	0.783359	0.146048	0.275260
C13	C	0.652058	0.133613	0.115972
C14	C	0.743783	0.137721	0.153826
C15	C	0.731219	0.150276	0.358885
C16	C	0.639491	0.146174	0.321046
C17	C	0.599918	0.137841	0.199589
C18	C	0.587351	0.150402	0.404663
C19	C	0.495631	0.146296	0.366829
C20	C	0.456052	0.137961	0.245378
C21	C	0.508199	0.133735	0.161755
C22	C	0.626926	0.158729	0.526123
C23	C	0.574785	0.162957	0.609740
C24	C	0.483064	0.158857	0.571903
C25	C	0.443484	0.150522	0.450452
C26	C	0.430917	0.163083	0.655527
C27	C	0.339197	0.158976	0.617692
C28	C	0.351765	0.146415	0.412618
C29	C	1.043569	-0.012171	0.455959
C30	C	1.039200	-0.109789	0.496216
C31	C	1.056237	-0.462220	0.115986
C32	C	1.052126	-0.553944	0.153847
C33	C	1.039554	-0.541379	0.358899
C34	C	1.043669	-0.449653	0.321057
C35	C	1.052009	-0.410080	0.199599
C36	C	1.039441	-0.397513	0.404670
C37	C	1.043550	-0.305794	0.366828
C38	C	1.051887	-0.266215	0.245374
C39	C	1.056118	-0.318362	0.161757
C40	C	1.031094	-0.437086	0.526125
C41	C	1.026866	-0.384947	0.609738
C42	C	1.030982	-0.293227	0.571899
C43	C	1.039319	-0.253647	0.450445
C44	C	1.026751	-0.241080	0.655516
C45	C	1.030860	-0.149361	0.617674
C46	C	1.043428	-0.161928	0.412603
C47	C	1.202008	0.146273	0.455970
C48	C	1.299625	0.150643	0.496235
C49	C	1.039415	0.308864	0.315543
C50	C	1.043784	0.406481	0.275279
N51	N	1.025086	0.164731	0.653437
N52	N	1.057904	0.131955	0.118073
C53	C	1.126909	0.062969	0.990644
C54	C	1.119671	0.070213	1.109054
C55	C	1.003369	0.186456	1.008670
C56	C	1.010607	0.179213	0.890260
C57	C	1.072380	0.117468	0.881253
C58	C	1.079621	0.110230	0.762840
C59	C	0.963315	0.226468	0.662459
C60	C	0.956077	0.233712	0.780869
H61	H	0.381368	0.134618	0.214575
H62	H	0.296742	0.162436	0.685774
C63	C	0.801142	0.133074	0.061841
C64	C	0.801639	0.051327	0.008290
C65	C	0.859001	0.046679	-0.083688
C66	C	0.915866	0.123778	-0.122115
C67	C	0.915371	0.205531	-0.068563
C68	C	0.858010	0.210179	0.023415
H69	H	0.759542	-0.005751	0.036735
H70	H	0.859366	-0.013840	-0.123331
H71	H	0.958328	0.120338	-0.190203
H72	H	0.957468	0.262610	-0.097009
H73	H	0.857644	0.270699	0.063057
C74	C	1.147567	0.042311	0.752928
C75	C	1.142388	-0.056821	0.810635
C76	C	1.210333	-0.124744	0.800728
C77	C	1.283458	-0.093535	0.733114
C78	C	1.288641	0.005602	0.675402
C79	C	1.220695	0.073524	0.685309
H80	H	1.088254	-0.079928	0.860691
H81	H	1.206497	-0.198131	0.843450
H82	H	1.333755	-0.143815	0.725780
H83	H	1.342775	0.028709	0.625346
H84	H	1.224532	0.146912	0.642587
H85	H	0.619835	0.126838	0.017065
H86	H	0.953069	0.236721	1.016021
C87	C	1.194860	-0.004943	0.980727
C88	C	1.189696	-0.104076	1.038439
C89	C	1.257649	-0.171989	1.028526
C90	C	1.330766	-0.140768	0.960902
C91	C	1.335933	-0.041630	0.903186
C92	C	1.267980	0.026283	0.913099
H93	H	1.135568	-0.127192	1.088502
H94	H	1.253824	-0.245378	1.071251
H95	H	1.381069	-0.191041	0.953564
H96	H	1.390061	-0.018514	0.853123
H97	H	1.271805	0.099672	0.870374
H98	H	0.319542	0.139640	0.313711
C99	C	1.056773	-0.611303	0.061867
C100	C	1.131672	-0.684013	0.095920
C101	C	1.136312	-0.741374	0.003943
C102	C	1.066054	-0.726024	-0.122087
C103	C	0.991149	-0.653310	-0.156146
C104	C	0.986509	-0.595950	-0.064168
H105	H	1.183687	-0.695380	0.189220
H106	H	1.191762	-0.795201	0.029156
H107	H	1.069489	-0.768485	-0.190174
H108	H	0.939134	-0.641944	-0.249446
H109	H	0.931059	-0.542122	-0.089382
C110	C	1.179657	0.010266	1.229386
C111	C	1.247614	-0.057635	1.219471
C112	C	1.307601	-0.117586	1.339805
C113	C	1.299631	-0.109636	1.470055
C114	C	1.231671	-0.041732	1.479976
C115	C	1.171683	0.018219	1.359641
H116	H	1.253517	-0.063523	1.123047
H117	H	1.357910	-0.167853	1.332461
H118	H	1.344037	-0.154015	1.559134
H119	H	1.225768	-0.035844	1.576399
H120	H	1.121375	0.068486	1.366986
H121	H	0.701610	0.162073	0.556923
H122	H	0.475975	0.126960	0.062847
H123	H	1.019951	-0.273313	0.754403
H124	H	0.607019	0.169738	0.708633
H125	H	0.918917	0.270847	0.573376
C126	C	1.052609	-0.118387	0.279001
C127	C	1.133166	-0.064979	0.261046
C128	C	1.142345	-0.021435	0.127450
C129	C	1.070968	-0.031300	0.011810
C130	C	0.990405	-0.084710	0.029761
C131	C	0.981226	-0.128254	0.163357
H132	H	1.186009	-0.057674	0.346653
H133	H	1.201984	0.018103	0.114162
H134	H	1.077763	0.000934	-0.087085
H135	H	0.937563	-0.092015	-0.055846
H136	H	0.921588	-0.167792	0.176645
H137	H	0.763452	0.157058	0.457778
H138	H	0.463152	0.169859	0.754421
H139	H	1.055223	-0.191530	0.214561
H140	H	1.062917	-0.286141	0.062858
H141	H	1.027398	-0.106906	0.685752
H142	H	1.063036	-0.429999	0.017086
H143	H	1.032760	-0.573611	0.457790
H144	H	1.027739	-0.511769	0.556927
H145	H	1.020072	-0.417179	0.708628
H146	H	0.905781	0.283981	0.788218
