data_functionalizedCrystal
_audit_creation_method	'MofGen! by Chris Wilmer'
_symmetry_space_group_name_H-M	'P1'
_symmetry_Int_Tables_number	1
_symmetry_cell_setting	triclinic
loop_
_symmetry_equiv_pos_as_xyz
  x,y,z
_cell_length_a	12.777686
_cell_length_b	15.624803
_cell_length_c	15.625186
_cell_angle_alpha	140.974261
_cell_angle_beta	97.076928
_cell_angle_gamma	97.078956
loop_
_atom_site_label
_atom_site_type_symbol
_atom_site_fract_x
_atom_site_fract_y
_atom_site_fract_z
O1	O	-0.351495	0.482514	-0.711669
O2	O	-0.328269	0.351133	-0.580310
O3	O	-0.188415	0.421577	-0.650741
O4	O	-0.491349	0.412070	-0.641239
O5	O	-0.119331	0.650826	-0.421495
O6	O	-0.259185	0.580383	-0.351064
O7	O	-0.282411	0.711763	-0.482423
Zn8	Zn	-0.259830	0.682471	-0.380346
Zn9	Zn	-0.350851	0.380425	-0.682388
O10	O	-0.422265	0.641320	-0.411992
C11	C	-0.287931	0.448968	-0.448899
C12	C	-0.270647	0.398937	-0.398877
C13	C	-0.114740	0.536202	-0.536127
C14	C	0.004061	0.536200	-0.536126
C15	C	-0.495944	0.526684	-0.526618
C16	C	-0.614747	0.526679	-0.526625
C17	C	-0.402076	-0.390471	-0.859309
C18	C	-0.385814	-0.437478	-0.812305
C19	C	-0.310498	-0.187571	-0.562378
C20	C	-0.326748	-0.140540	-0.609362
C21	C	-0.372539	-0.241999	-0.757829
C22	C	-0.297211	0.007931	-0.507882
C23	C	-0.313466	0.054956	-0.554863
C24	C	-0.359258	-0.046490	-0.703323
C25	C	-0.388794	-0.194974	-0.804810
C26	C	-0.251428	0.109387	-0.359415
C27	C	-0.221890	0.257859	-0.257935
C28	C	-0.238138	0.304887	-0.304916
C29	C	-0.283930	0.203440	-0.453376
C30	C	-0.208602	0.453371	-0.203429
C31	C	-0.224857	0.500396	-0.250410
C32	C	-0.300184	0.250466	-0.500357
O33	O	0.311578	0.412060	-0.641239
O34	O	0.008651	0.421583	-0.650738
O35	O	0.148489	0.351140	-0.580301
O36	O	0.171740	0.482502	-0.711677
O37	O	0.217579	0.580393	-0.351058
O38	O	0.077741	0.650836	-0.421495
O39	O	0.380669	0.641313	-0.411996
Zn40	Zn	0.240174	0.682473	-0.380348
Zn41	Zn	0.149145	0.380422	-0.682386
O42	O	0.240831	0.711755	-0.482434
C43	C	-0.322750	0.613926	-0.613837
C44	C	-0.340037	0.663947	-0.663868
C45	C	0.177238	0.448990	-0.448878
C46	C	0.159954	0.399000	-0.398815
C47	C	0.212085	0.613915	-0.613847
C48	C	0.229377	0.663934	-0.663881
C49	C	0.291411	0.859393	0.390553
C50	C	0.275154	0.812376	0.437550
C51	C	0.199833	0.562449	0.187644
C52	C	0.216079	0.609445	0.140623
C53	C	0.261869	0.757919	0.242087
C54	C	0.186537	0.507970	-0.007842
C55	C	0.202787	0.554963	-0.054857
C56	C	0.248579	0.703430	0.046594
C57	C	0.278119	0.804911	0.195072
C58	C	0.140753	0.359497	-0.109303
C59	C	0.111212	0.258022	-0.257769
C60	C	0.127454	0.305015	-0.304786
C61	C	0.173246	0.453482	-0.203335
C62	C	0.097913	0.203534	-0.453264
C63	C	0.114163	0.250526	-0.500279
C64	C	0.189496	0.500475	-0.250350
N65	N	-0.197710	0.888613	-0.174213
N66	N	-0.412963	0.174287	-0.888523
N67	N	0.302310	0.888614	-0.174215
N68	N	0.087019	0.174277	-0.888514
C69	C	-0.114072	0.991930	-0.133301
C70	C	-0.070566	1.136245	0.010992
C71	C	-0.110707	1.177242	0.114367
C72	C	-0.194351	1.073911	0.073447
C73	C	-0.237849	0.929598	-0.070841
C74	C	-0.372918	0.133428	-0.991883
C75	C	-0.416385	-0.010866	-1.136195
C76	C	-0.499890	-0.114302	-1.177143
C77	C	-0.539939	-0.073434	-1.073772
C78	C	-0.496478	0.070860	-0.929465
C79	C	0.396097	0.987508	-0.128906
C80	C	0.439638	1.131812	0.015396
C81	C	0.389385	1.177223	0.114384
C82	C	0.295591	1.078316	0.069068
C83	C	0.252057	0.934012	-0.075229
C84	C	-0.006474	0.075233	-0.933678
C85	C	-0.049966	-0.069094	-1.077957
C86	C	0.000031	-0.114374	-1.177072
C87	C	0.093535	-0.015319	-1.131900
C88	C	0.137031	0.129003	-0.987621
H89	H	-0.337468	0.167846	-0.621254
C90	C	-0.070679	0.947420	-0.245640
C91	C	-0.159886	0.891765	-0.355640
C92	C	-0.119941	0.850777	-0.459129
H93	H	-0.039088	0.875189	-0.286205
H94	H	-0.014669	1.029616	-0.200656
H95	H	-0.215877	0.809578	-0.400618
H96	H	-0.191487	0.963971	-0.315118
H97	H	-0.063931	0.932973	-0.414146
H98	H	-0.088350	0.778550	-0.499683
H99	H	-0.180460	0.813023	-0.533769
H100	H	-0.200810	0.621293	-0.167774
H101	H	0.315393	0.925814	0.277695
H102	H	-0.126097	-0.149730	-1.114710
C103	C	-0.233742	0.058620	-0.308111
C104	C	-0.187355	0.179245	-0.156372
C105	C	-0.171062	0.132534	-0.109059
H106	H	-0.183911	0.005781	-0.347389
H107	H	-0.304000	-0.002038	-0.339653
H108	H	-0.117107	0.239879	-0.124844
H109	H	-0.237170	0.232097	-0.117056
H110	H	-0.241320	0.071875	-0.140601
H111	H	-0.121232	0.079694	-0.148347
H112	H	-0.139596	0.214368	-0.006100
C113	C	0.147997	-0.064227	-1.239290
C114	C	0.239205	0.053383	-1.168868
C115	C	0.289403	0.008378	-1.267750
H116	H	0.094403	-0.099481	-1.316662
H117	H	0.173793	-0.139272	-1.276748
H118	H	0.213407	0.128403	-1.131432
H119	H	0.292823	0.088652	-1.091504
H120	H	0.315199	-0.066667	-1.305208
H121	H	0.235801	-0.026876	-1.345117
H122	H	0.351299	0.088165	-1.219980
C123	C	-0.328707	0.817664	-0.114983
C124	C	-0.354564	0.884481	0.006432
C125	C	-0.438268	0.781425	-0.034170
H126	H	-0.302368	0.742840	-0.152752
H127	H	-0.394301	0.777271	-0.187107
H128	H	-0.288983	0.924852	0.078531
H129	H	-0.380921	0.959295	0.044216
H130	H	-0.503862	0.741032	-0.106294
H131	H	-0.411920	0.706607	-0.071939
H132	H	-0.455830	0.826748	0.048200
H133	H	0.213158	0.209638	-0.950865
H134	H	-0.227027	1.107310	0.157633
H135	H	-0.607934	-0.157669	-1.107131
H136	H	-0.529089	0.104113	-0.845312
C137	C	-0.282094	0.245719	-0.947299
C138	C	-0.185531	0.305086	-0.841014
C139	C	-0.101840	0.408514	-0.799934
H140	H	-0.308500	0.320570	-0.909348
H141	H	-0.264404	0.200745	-1.029487
H142	H	-0.203220	0.350062	-0.758842
H143	H	-0.159091	0.230272	-0.878933
H144	H	-0.084150	0.363539	-0.882122
H145	H	-0.128257	0.483355	-0.761990
H146	H	-0.036309	0.448798	-0.727826
H147	H	0.437028	0.950558	-0.209488
C148	C	-0.172000	0.368173	-0.096714
C149	C	-0.064682	0.460783	-0.038514
C150	C	-0.018691	0.562438	0.110003
H151	H	-0.166436	0.319095	-0.083069
H152	H	-0.219162	0.423411	-0.049087
H153	H	-0.017532	0.405552	-0.086127
H154	H	-0.070215	0.509895	-0.052120
H155	H	-0.065853	0.617675	0.157630
H156	H	-0.013134	0.513347	0.123634
H157	H	0.054124	0.625293	0.149513
H158	H	-0.002462	1.220363	0.044285
H159	H	0.226769	0.621377	-0.167727
H160	H	0.516010	1.212325	0.052269
C161	C	0.241253	1.127784	0.176760
C162	C	0.320325	1.179591	0.290658
C163	C	0.270312	1.225200	0.389903
H164	H	0.179172	1.048346	0.129326
H165	H	0.215787	1.203045	0.214279
H166	H	0.345774	1.104337	0.253142
H167	H	0.382409	1.259042	0.338130
H168	H	0.244846	1.300461	0.427421
H169	H	0.208231	1.145755	0.342455
H170	H	0.323956	1.260368	0.467200
C171	C	0.150176	0.826889	-0.124153
C172	C	0.115476	0.897570	-0.006578
C173	C	0.021617	0.798947	-0.051587
H174	H	0.169561	0.749422	-0.159331
H175	H	0.090648	0.789526	-0.199254
H176	H	0.174992	0.934911	0.068497
H177	H	0.096069	0.975029	0.028613
H178	H	-0.037911	0.761584	-0.126687
H179	H	0.041011	0.721485	-0.086764
H180	H	-0.001945	0.846893	0.028176
C181	C	-0.060545	0.124516	-0.825871
C182	C	0.018841	0.176478	-0.712042
C183	C	-0.030925	0.221894	-0.612700
H184	H	-0.122434	0.044961	-0.873245
H185	H	-0.086248	0.199658	-0.788300
H186	H	0.044528	0.101344	-0.749610
H187	H	0.080734	0.256047	-0.664630
H188	H	-0.056629	0.297036	-0.575129
H189	H	-0.092814	0.142332	-0.660087
H190	H	0.022933	0.257168	-0.535449
H191	H	-0.372498	-0.008194	-0.741572
H192	H	-0.426077	-0.277594	-0.925707
C193	C	0.149939	0.401221	0.077325
C194	C	0.042618	0.343028	-0.015270
C195	C	-0.003377	0.194506	-0.116928
H196	H	0.144378	0.387569	0.126397
H197	H	0.197096	0.353591	0.022080
H198	H	-0.004527	0.390644	0.039968
H199	H	0.048148	0.356641	-0.064376
H200	H	0.043780	0.146876	-0.172172
H201	H	-0.008931	0.180868	-0.067843
H202	H	-0.076194	0.155000	-0.179773
H203	H	-0.383762	-0.044119	-1.220345
C204	C	0.341193	1.020656	0.500935
C205	C	0.363609	1.099474	0.641027
C206	C	0.409482	1.248023	0.742739
H207	H	0.289146	1.048283	0.484074
H208	H	0.409169	1.040333	0.491776
H209	H	0.295643	1.079807	0.650181
H210	H	0.415664	1.071892	0.657934
H211	H	0.477458	1.267700	0.733580
H212	H	0.357430	1.275635	0.725866
H213	H	0.424707	1.301519	0.837803
H214	H	-0.035390	-0.231898	-1.294546
H215	H	-0.439360	-0.473090	-0.980206
H216	H	0.090098	0.167896	-0.621172
C217	C	-0.417913	-0.598748	-0.922722
C218	C	-0.461472	-0.677524	-1.062794
C219	C	-0.491046	-0.826084	-1.164542
H220	H	-0.473208	-0.626380	-0.905867
H221	H	-0.353118	-0.618456	-0.913595
H222	H	-0.526259	-0.657826	-1.071916
H223	H	-0.406196	-0.649937	-1.079695
H224	H	-0.426251	-0.845793	-1.155416
H225	H	-0.546338	-0.853701	-1.147674
H226	H	-0.520594	-0.879552	-1.259593
C227	C	-0.158722	0.563683	-0.042208
C228	C	-0.051402	0.656301	0.016009
C229	C	-0.005425	0.757951	0.164525
H230	H	-0.153163	0.514601	-0.028566
H231	H	-0.205888	0.618914	0.005411
H232	H	-0.004246	0.601076	-0.031595
H233	H	-0.056929	0.705416	0.002405
H234	H	-0.052592	0.813183	0.212145
H235	H	0.000127	0.708858	0.178154
H236	H	0.067392	0.820813	0.204047
C237	C	0.266362	0.754745	-0.004151
C238	C	0.312811	0.906485	0.116483
C239	C	0.329221	0.953806	0.069796
H240	H	0.196165	0.723280	-0.064802
H241	H	0.316205	0.715393	-0.056986
H242	H	0.262969	0.945821	0.169295
H243	H	0.383015	0.937988	0.177147
H244	H	0.379065	0.914455	0.016961
H245	H	0.259020	0.922332	0.009144
H246	H	0.360748	1.056765	0.151638
H247	H	-0.273218	-0.104975	-0.441495
H248	H	-0.075279	1.294756	0.231851
H249	H	0.127513	0.321241	-0.071013
C250	C	0.307014	0.922415	0.598699
C251	C	0.211332	0.908486	0.627231
C252	C	0.240642	1.009813	0.775658
H253	H	0.336575	1.017633	0.652546
H254	H	0.362232	0.905360	0.626176
H255	H	0.156133	0.925552	0.599770
H256	H	0.181758	0.813290	0.573420
H257	H	0.295859	0.992759	0.803135
H258	H	0.270203	1.105024	0.829493
H259	H	0.175729	1.000367	0.795035
H260	H	0.073933	0.137134	-0.340368
H261	H	0.060641	0.082646	-0.535861
H262	H	-0.535271	-0.231791	-1.294652
H263	H	0.424837	1.294732	0.231873
