data_functionalizedCrystal
_audit_creation_method	'MofGen! by Chris Wilmer'
_symmetry_space_group_name_H-M	'P1'
_symmetry_Int_Tables_number	1
_symmetry_cell_setting	triclinic
loop_
_symmetry_equiv_pos_as_xyz
  x,y,z
_cell_length_a	10.654550
_cell_length_b	16.109301
_cell_length_c	9.730223
_cell_angle_alpha	89.994178
_cell_angle_beta	89.999957
_cell_angle_gamma	83.973206
loop_
_atom_site_label
_atom_site_type_symbol
_atom_site_fract_x
_atom_site_fract_y
_atom_site_fract_z
O1	O	1.666255	0.116774	-0.114192
O2	O	1.300625	0.127899	-0.114218
O3	O	1.493484	0.001365	-0.114190
O4	O	1.473396	0.243308	-0.114220
O5	O	1.493472	0.001362	0.114390
O6	O	1.300613	0.127896	0.114362
O7	O	1.666243	0.116770	0.114388
Zn8	Zn	1.483426	0.122333	0.150667
Zn9	Zn	1.483442	0.122337	-0.150497
O10	O	1.473384	0.243304	0.114360
C11	C	1.253832	0.127081	0.000069
C12	C	1.114422	0.124637	0.000060
C13	C	1.033926	0.199138	0.000054
C14	C	0.902936	0.196836	0.000079
C15	C	0.932952	0.045526	0.000107
C16	C	1.063939	0.047828	0.000093
C17	C	1.492664	-0.029616	0.000100
C18	C	1.490225	-0.121926	0.000102
C19	C	1.598991	-0.343552	0.000088
C20	C	1.596689	-0.430286	0.000076
C21	C	1.367868	-0.411772	0.000066
C22	C	1.370172	-0.325039	0.000067
C23	C	1.485737	-0.290932	0.000085
C24	C	1.481131	-0.464398	0.000072
C25	C	1.478634	-0.558439	0.000060
C26	C	1.488234	-0.196885	0.000095
C27	C	1.713036	0.117589	0.000098
C28	C	1.852446	0.120033	0.000098
C29	C	1.474203	0.274286	0.000067
C30	C	1.476643	0.366596	0.000056
N31	N	1.483424	0.122329	0.356203
N32	N	1.483454	0.122334	-0.356033
C33	C	1.568851	0.066324	0.428141
C34	C	1.568863	0.066324	0.572024
C35	C	1.398018	0.178342	0.572018
C36	C	1.398001	0.178337	0.428138
H37	H	0.891833	-0.017009	0.000143
O38	O	1.651677	0.011839	0.641966
C39	C	1.584467	-0.039858	0.725238
H40	H	1.485431	-0.041876	0.681892
H41	H	1.577883	-0.013877	0.834278
C42	C	1.775365	-0.126218	0.780694
C43	C	1.653730	-0.128703	0.727449
H44	H	1.818091	-0.181022	0.782064
H45	H	1.820647	-0.091388	0.724596
H46	H	1.769861	-0.104564	0.871556
H47	H	1.659236	-0.150347	0.636584
H48	H	1.608450	-0.163539	0.783532
O49	O	1.315172	0.232721	0.642112
C50	C	1.333485	0.220705	0.784531
H51	H	1.433340	0.190246	0.804175
H52	H	1.262434	0.178569	0.825388
C53	C	1.191935	0.343053	0.834249
C54	C	1.314583	0.305650	0.858377
H55	H	1.180270	0.395450	0.879803
H56	H	1.179593	0.351147	0.738299
H57	H	1.132740	0.307932	0.868297
H58	H	1.373775	0.340766	0.824314
H59	H	1.326935	0.297564	0.954324
H60	H	1.328430	0.223944	0.369562
H61	H	1.075024	0.261680	0.000038
H62	H	1.129483	-0.012843	0.000101
O63	O	1.260233	-0.273833	0.000248
C64	C	1.254703	-0.223129	0.118645
H65	H	1.354380	-0.218179	0.158121
H66	H	1.197347	-0.251987	0.201539
C67	C	1.069067	-0.141525	0.034190
C68	C	1.191494	-0.135440	0.082668
H69	H	1.030072	-0.087435	0.012001
H70	H	1.072789	-0.175687	-0.045575
H71	H	1.021287	-0.165577	0.103276
H72	H	1.239276	-0.111399	0.013577
H73	H	1.187778	-0.101272	0.162421
O74	O	1.711355	-0.310556	0.000028
C75	C	1.810821	-0.375603	0.000057
H76	H	1.775634	-0.434712	-0.043215
H77	H	1.845760	-0.387680	0.109717
C78	C	1.963024	-0.277897	-0.036443
C79	C	1.919810	-0.350494	-0.089602
H80	H	2.030256	-0.262408	-0.091743
H81	H	1.896013	-0.234073	-0.036458
H82	H	1.992131	-0.287971	0.054939
H83	H	1.890689	-0.340416	-0.180975
H84	H	1.986818	-0.394316	-0.089604
H85	H	1.688912	-0.473126	0.000075
O86	O	0.824922	0.269285	0.000008
C87	C	0.897574	0.337567	0.000013
H88	H	0.995340	0.317026	-0.043272
H89	H	0.906905	0.361076	0.109666
C90	C	0.712188	0.433371	-0.036474
C91	C	0.832263	0.408145	-0.089648
H92	H	0.671899	0.476909	-0.091775
H93	H	0.663239	0.387369	-0.036472
H94	H	0.719980	0.452957	0.054903
H95	H	0.824468	0.388550	-0.181016
H96	H	0.881209	0.454145	-0.089667
H97	H	1.273779	-0.439553	0.000054
H98	H	1.638406	0.020717	0.369575
