data_functionalizedCrystal
_audit_creation_method	'MofGen! by Chris Wilmer'
_symmetry_space_group_name_H-M	'P1'
_symmetry_Int_Tables_number	1
_symmetry_cell_setting	triclinic
loop_
_symmetry_equiv_pos_as_xyz
  x,y,z
_cell_length_a	15.944551
_cell_length_b	10.654550
_cell_length_c	9.730223
_cell_angle_alpha	89.999807
_cell_angle_beta	90.004286
_cell_angle_gamma	83.991821
loop_
_atom_site_label
_atom_site_type_symbol
_atom_site_fract_x
_atom_site_fract_y
_atom_site_fract_z
O1	O	1.115457	0.161961	-0.114143
O2	O	0.871023	0.181930	-0.114177
O3	O	0.998860	-0.010867	-0.114154
O4	O	0.987620	0.354757	-0.114166
O5	O	0.998858	-0.010862	0.114426
O6	O	0.871021	0.181934	0.114403
O7	O	1.115455	0.161966	0.114437
Zn8	Zn	0.993238	0.171951	0.150712
Zn9	Zn	0.993240	0.171944	-0.150452
O10	O	0.987618	0.354762	0.114414
C11	C	0.839723	0.181103	0.000109
C12	C	0.746463	0.178618	0.000096
C13	C	0.998034	-0.057652	0.000134
C14	C	0.995565	-0.197063	0.000129
C15	C	1.070833	-0.277522	0.000144
C16	C	1.068508	-0.408513	0.000134
C17	C	0.915639	-0.378572	0.000100
C18	C	0.917965	-0.247584	0.000101
C19	C	1.159090	-0.294810	0.000169
C20	C	1.156765	-0.425801	0.000159
C21	C	0.530880	0.053173	0.000127
C22	C	0.470198	0.111423	-0.112577
C23	C	0.575711	0.174122	0.000112
C24	C	0.470219	0.111456	0.112785
C25	C	0.410773	0.169770	0.000134
C26	C	0.516257	0.232405	-0.112684
C27	C	0.516284	0.232421	0.112779
C28	C	0.455620	0.290759	0.000047
C29	C	0.670728	0.176625	0.000099
C30	C	0.315757	0.167276	0.000138
C31	C	1.146755	0.162792	0.000148
C32	C	1.240015	0.165278	0.000152
C33	C	0.988444	0.401547	0.000123
C34	C	0.990913	0.540958	0.000119
N35	N	0.993243	0.171954	0.356249
N36	N	0.993242	0.171931	-0.355988
C37	C	1.049864	0.086613	0.428185
C38	C	1.049862	0.086598	0.572068
C39	C	0.936615	0.257276	0.572066
C40	C	0.936614	0.257285	0.428185
C41	C	1.115248	-0.011924	0.428187
C42	C	1.115246	-0.011939	0.572070
H43	H	0.852460	-0.419722	0.000076
H44	H	1.179794	0.008744	0.611129
O45	O	0.445701	0.050492	-0.226209
C46	C	0.357312	0.049981	-0.225237
H47	H	0.327876	0.131117	-0.158883
H48	H	0.332169	0.061772	-0.334666
H49	H	0.340418	-0.043355	-0.181381
O50	O	1.192416	-0.252495	0.117967
C51	C	1.132136	-0.166211	0.183281
H52	H	1.066219	-0.184170	0.148237
H53	H	1.137331	-0.178905	0.299410
H54	H	1.144115	-0.065790	0.155013
O55	O	1.090803	-0.120454	0.625129
C56	C	1.008387	-0.135631	0.580267
H57	H	0.994541	-0.079840	0.481425
H58	H	1.002798	-0.239854	0.560271
H59	H	0.961180	-0.099474	0.662828
H60	H	0.856674	-0.182077	0.000070
H61	H	0.449836	0.060280	0.208064
H62	H	1.193612	-0.265901	-0.095480
H63	H	1.183439	-0.471791	-0.098532
H64	H	0.890501	0.326766	0.369616
O65	O	1.196542	-0.476020	0.114244
C66	C	1.281108	-0.448384	0.114048
H67	H	1.287100	-0.361630	0.047637
H68	H	1.301469	-0.428944	0.223649
H69	H	1.323137	-0.532228	0.070703
O70	O	0.570066	-0.066507	0.000069
C71	C	0.658174	-0.062547	0.001248
H72	H	0.673347	0.031636	0.045245
H73	H	0.688893	-0.142777	0.067590
H74	H	0.683530	-0.073299	-0.108134
O75	O	0.540538	0.293500	-0.226344
C76	C	0.581186	0.398954	-0.186134
H77	H	0.606857	0.383850	-0.077371
H78	H	0.635412	0.411065	-0.259670
H79	H	0.534159	0.487218	-0.188848
O80	O	0.416786	0.410649	-0.000268
C81	C	0.440282	0.473935	-0.119235
H82	H	0.461767	0.401836	-0.201911
H83	H	0.383966	0.538735	-0.158570
H84	H	0.494109	0.532408	-0.093425
O85	O	0.881645	0.340337	0.641794
C86	C	0.896026	0.464674	0.606679
H87	H	0.928405	0.464563	0.502220
H88	H	0.833247	0.526453	0.601748
H89	H	0.938054	0.503549	0.687671
H90	H	1.100907	-0.108271	0.389134
O91	O	1.187920	0.023868	0.374903
C92	C	1.169359	0.132646	0.293399
H93	H	1.106458	0.184231	0.327012
H94	H	1.221256	0.197603	0.306408
H95	H	1.165354	0.104066	0.180872
O96	O	0.540640	0.293217	0.226588
C97	C	0.517417	0.229141	0.345189
H98	H	0.510057	0.126756	0.318190
H99	H	0.568363	0.232209	0.426970
H100	H	0.455053	0.276641	0.386311
