data_functionalizedCrystal
_audit_creation_method	'MofGen! by Chris Wilmer'
_symmetry_space_group_name_H-M	'P1'
_symmetry_Int_Tables_number	1
_symmetry_cell_setting	triclinic
loop_
_symmetry_equiv_pos_as_xyz
  x,y,z
_cell_length_a	13.262522
_cell_length_b	14.044190
_cell_length_c	12.376457
_cell_angle_alpha	102.316217
_cell_angle_beta	63.170097
_cell_angle_gamma	88.641805
loop_
_atom_site_label
_atom_site_type_symbol
_atom_site_fract_x
_atom_site_fract_y
_atom_site_fract_z
O1	O	1.514371	0.019992	-0.559575
O2	O	1.190566	0.053044	-0.460033
O3	O	1.347600	-0.101192	-0.508285
O4	O	1.357338	0.174228	-0.511323
O5	O	1.308352	-0.062683	-0.308213
O6	O	1.151318	0.091553	-0.259961
O7	O	1.475123	0.058501	-0.359503
Zn8	Zn	1.306989	0.081141	-0.277966
Zn9	Zn	1.358700	0.030404	-0.541570
O10	O	1.318090	0.212737	-0.311251
C11	C	1.129252	0.073987	-0.347180
C12	C	1.005027	0.079009	-0.308990
C13	C	1.323719	-0.117016	-0.406937
C14	C	1.311022	-0.221535	-0.403024
C15	C	0.925278	0.102363	-0.181983
C16	C	0.808560	0.107074	-0.146092
C17	C	0.771580	0.088440	-0.237205
C18	C	0.851330	0.065093	-0.364215
C19	C	0.968059	0.060374	-0.400110
C20	C	0.814362	0.046450	-0.455332
C21	C	0.894111	0.023103	-0.582342
C22	C	1.010828	0.018386	-0.618230
C23	C	1.047808	0.037020	-0.527117
C24	C	0.697633	0.051169	-0.419437
C25	C	0.740414	0.009180	-0.637564
C26	C	0.857131	0.004469	-0.673455
C27	C	1.377859	-0.475538	-0.423615
C28	C	1.287838	-0.412914	-0.395933
C29	C	1.300740	-0.306421	-0.399879
C30	C	1.364958	-0.582041	-0.419669
C31	C	1.536438	0.037557	-0.472359
C32	C	1.660665	0.032534	-0.510556
C33	C	1.341971	0.228560	-0.412602
C34	C	1.354670	0.333078	-0.416523
N35	N	1.271706	0.115767	-0.098066
N36	N	1.393991	-0.004230	-0.721472
C37	C	1.475893	-0.084626	0.194177
C38	C	1.500582	-0.108860	0.068251
C39	C	1.443365	-0.052706	0.026665
C40	C	1.361455	0.027688	0.111018
C41	C	1.336771	0.051929	0.236955
C42	C	1.304242	0.083849	0.069443
C43	C	1.222333	0.164243	0.153796
C44	C	1.197652	0.188480	0.279720
C45	C	1.254869	0.132325	0.321305
C46	C	1.328927	0.059608	-0.056493
C47	C	1.189804	0.196163	-0.013716
C48	C	1.165116	0.220397	0.112210
H49	H	0.676543	0.092278	-0.207975
H50	H	1.201078	-0.439277	-0.369268
C51	C	1.510166	0.000147	-0.163414
C52	C	1.470502	-0.079347	-0.111755
H53	H	1.526927	-0.016310	-0.248874
H54	H	1.453197	0.056050	-0.119136
H55	H	1.577288	0.014600	-0.157283
H56	H	1.403375	-0.093795	-0.117877
H57	H	1.527476	-0.135267	-0.156045
H58	H	0.743637	0.126070	-0.042681
H59	H	1.464611	-0.449175	-0.450272
H60	H	1.395618	-0.005848	-0.125163
C61	C	1.635608	-0.241403	0.038629
C62	C	1.590604	-0.197229	-0.024462
H63	H	1.691181	-0.295965	-0.018611
H64	H	1.670105	-0.194923	0.074163
H65	H	1.576058	-0.263293	0.103111
H66	H	1.650153	-0.175331	-0.088939
H67	H	1.556108	-0.243717	-0.060016
H68	H	1.522478	-0.130335	0.228044
H69	H	1.234765	0.152054	0.423845
C70	C	1.062612	0.321023	0.309353
C71	C	1.107624	0.276854	0.372440
H72	H	1.007029	0.375578	0.366597
H73	H	1.122147	0.342916	0.244879
H74	H	1.028115	0.274532	0.273815
H75	H	1.142129	0.323343	0.407970
H76	H	1.048079	0.254962	0.436936
H77	H	1.098424	0.285856	0.180905
H78	H	1.143215	0.241891	-0.047573
H79	H	0.955400	0.117524	-0.107813
C80	C	0.499718	0.077036	-0.267561
C81	C	0.609980	0.076832	-0.279835
H82	H	0.445606	0.092875	-0.181370
H83	H	0.486365	0.124590	-0.305563
H84	H	0.492399	0.013774	-0.307412
H85	H	0.617301	0.140097	-0.239992
H86	H	0.623337	0.029277	-0.241817
H87	H	1.075759	-0.000638	-0.721650
C88	C	1.207789	-0.039981	-0.520475
C89	C	1.176108	0.031834	-0.566557
H90	H	1.286997	-0.043185	-0.544824
H91	H	1.165577	-0.023396	-0.431806
H92	H	1.192294	-0.102069	-0.553562
H93	H	1.191595	0.093924	-0.533462
H94	H	1.218334	0.015255	-0.655243
H95	H	0.922079	-0.014540	-0.776868
H96	H	0.710307	-0.005992	-0.711756
