data_functionalizedCrystal
_audit_creation_method	'MofGen! by Chris Wilmer'
_symmetry_space_group_name_H-M	'P1'
_symmetry_Int_Tables_number	1
_symmetry_cell_setting	triclinic
loop_
_symmetry_equiv_pos_as_xyz
  x,y,z
_cell_length_a	27.732048
_cell_length_b	10.654550
_cell_length_c	26.809956
_cell_angle_alpha	89.995707
_cell_angle_beta	89.989448
_cell_angle_gamma	83.563793
loop_
_atom_site_label
_atom_site_type_symbol
_atom_site_fract_x
_atom_site_fract_y
_atom_site_fract_z
O1	O	-0.641866	-0.149413	0.041415
O2	O	-0.501214	-0.172132	0.041430
O3	O	-0.574774	0.022102	0.041419
O4	O	-0.568306	-0.343648	0.041426
O5	O	-0.574751	0.022102	-0.041540
O6	O	-0.501191	-0.172132	-0.041529
O7	O	-0.641843	-0.149414	-0.041544
Zn8	Zn	-0.571513	-0.160773	-0.054708
Zn9	Zn	-0.571543	-0.160773	0.054594
O10	O	-0.568283	-0.343648	-0.041533
C11	C	-0.574287	0.068880	-0.000060
C12	C	-0.572867	0.208264	-0.000059
C13	C	-0.483193	-0.171655	-0.000047
C14	C	-0.429529	-0.170219	-0.000042
C15	C	-0.659864	-0.149890	-0.000065
C16	C	-0.713528	-0.151326	-0.000068
C17	C	-0.091372	-0.275959	-0.000061
C18	C	0.110321	-0.270631	-0.000066
O19	O	0.140974	-0.367322	-0.000086
N20	N	0.130162	-0.155458	-0.000067
C21	C	0.099576	-0.041609	-0.000071
O22	O	0.121080	0.056475	-0.000077
C23	C	-0.102116	-0.046938	-0.000070
C24	C	-0.121954	-0.162118	-0.000063
C25	C	-0.111211	-0.391130	-0.000055
C26	C	-0.161631	-0.392461	-0.000052
C27	C	-0.192213	-0.278620	-0.000054
C28	C	-0.172374	-0.163449	-0.000059
C29	C	-0.132700	0.066910	-0.000077
C30	C	-0.183126	0.065567	-0.000078
C31	C	-0.202964	-0.049613	-0.000071
C32	C	-0.253376	-0.050940	-0.000057
N33	N	-0.273217	-0.166113	-0.000056
C34	C	-0.242635	-0.279953	-0.000054
C35	C	0.205467	-0.038819	-0.000070
C36	C	0.255890	-0.037486	-0.000069
C37	C	0.266631	-0.266509	-0.000066
C38	C	0.216208	-0.267840	-0.000063
C39	C	0.185626	-0.153992	-0.000069
C40	C	-0.348522	-0.282739	-0.000046
C41	C	-0.398947	-0.284060	-0.000040
C42	C	-0.409684	-0.055038	-0.000046
C43	C	-0.359263	-0.053716	-0.000049
C44	C	-0.328683	-0.167577	-0.000051
O45	O	-0.284058	0.045700	-0.000043
O46	O	-0.264149	-0.378023	-0.000059
C47	C	-0.040952	-0.274628	-0.000065
C48	C	-0.021113	-0.159457	-0.000071
C49	C	-0.051695	-0.045616	-0.000073
C50	C	0.029309	-0.158124	-0.000070
C51	C	0.059891	-0.271965	-0.000068
C52	C	0.040050	-0.387138	-0.000067
C53	C	-0.010370	-0.388469	-0.000063
C54	C	-0.031854	0.069557	-0.000074
C55	C	0.018567	0.070878	-0.000077
C56	C	0.049148	-0.042962	-0.000076
C57	C	-0.568769	-0.390426	-0.000053
C58	C	-0.570190	-0.529810	-0.000050
N59	N	-0.571496	-0.160772	-0.129304
C60	C	-0.616177	0.289570	-0.000063
C61	C	-0.614840	0.420535	-0.000057
C62	C	-0.526876	0.388874	-0.000044
C63	C	-0.528215	0.257912	-0.000047
C64	C	-0.601105	-0.236396	-0.473932
C65	C	-0.601121	-0.236395	-0.682810
O66	O	-0.626282	-0.300680	-0.709815
N67	N	-0.571555	-0.160760	-0.708931
C68	C	-0.541986	-0.085114	-0.682830
O69	O	-0.516842	-0.020771	-0.709841
C70	C	-0.541973	-0.085109	-0.473953
C71	C	-0.571537	-0.160759	-0.447834
C72	C	-0.630667	-0.312039	-0.447813
C73	C	-0.630661	-0.312043	-0.395597
C74	C	-0.601093	-0.236406	-0.369499
C75	C	-0.571531	-0.160763	-0.395618
C76	C	-0.512407	-0.009456	-0.447853
C77	C	-0.512407	-0.009460	-0.395631
C78	C	-0.541971	-0.085109	-0.369512
C79	C	-0.541957	-0.085130	-0.317304
N80	N	-0.571522	-0.160765	-0.291183
C81	C	-0.601090	-0.236403	-0.317280
C82	C	-0.541994	-0.085123	-0.792493
C83	C	-0.541996	-0.085126	-0.844712
C84	C	-0.601132	-0.236406	-0.844688
C85	C	-0.601127	-0.236409	-0.792468
C86	C	-0.571559	-0.160758	-0.766372
C87	C	-0.601075	-0.236408	-0.207622
C88	C	-0.601064	-0.236410	-0.155401
C89	C	-0.541931	-0.085125	-0.155430
C90	C	-0.541939	-0.085128	-0.207646
C91	C	-0.571515	-0.160773	-0.233741
O92	O	-0.516812	-0.020869	-0.290267
O93	O	-0.626238	-0.300714	-0.290261
C94	C	-0.601111	-0.236392	-0.526148
C95	C	-0.571549	-0.160749	-0.552267
C96	C	-0.541981	-0.085111	-0.526170
C97	C	-0.571552	-0.160752	-0.604486
C98	C	-0.601120	-0.236390	-0.630583
C99	C	-0.630685	-0.312025	-0.604462
C100	C	-0.630679	-0.312029	-0.552246
C101	C	-0.512416	-0.009476	-0.552291
C102	C	-0.512424	-0.009479	-0.604507
C103	C	-0.541992	-0.085117	-0.630605
N104	N	-0.571564	-0.160764	0.129190
H105	H	-0.415096	-0.377858	-0.000034
H106	H	0.291540	-0.359202	-0.000064
Cl107	Cl	-0.672311	0.227160	-0.000078
H108	H	-0.343110	0.040073	-0.000047
Cl109	Cl	-0.475232	0.085600	-0.519491
Cl110	Cl	-0.669290	0.522744	-0.000062
Cl111	Cl	-0.470745	0.451298	-0.000029
H112	H	-0.488333	0.052147	-0.469110
H113	H	-0.517856	-0.023547	-0.134172
Cl114	Cl	-0.448138	0.088068	-0.000051
Cl115	Cl	-0.667845	-0.407145	-0.519418
Cl116	Cl	-0.667855	-0.407115	-0.637280
Cl117	Cl	-0.638230	-0.331528	-0.122570
Cl118	Cl	0.191274	-0.412643	-0.000056
Cl119	Cl	-0.035302	-0.533275	-0.000056
H120	H	-0.488344	0.052121	-0.625769
H121	H	-0.488330	0.052147	-0.374385
H122	H	-0.492943	0.191708	-0.000042
H123	H	-0.323629	-0.375456	-0.000048
H124	H	-0.517917	-0.023539	-0.865974
Cl125	Cl	-0.070293	0.212686	-0.000077
Cl126	Cl	0.078505	-0.530250	-0.000063
H127	H	0.034713	0.164679	-0.000079
H128	H	0.272038	0.056305	-0.000067
H129	H	-0.517860	-0.023544	-0.228913
H130	H	-0.517915	-0.023516	-0.771250
H131	H	-0.625158	-0.298005	-0.228863
Cl132	Cl	-0.186562	-0.537267	-0.000047
H133	H	0.180572	0.053896	-0.000075
H134	H	-0.654737	-0.373640	-0.374335
H135	H	-0.654747	-0.373632	-0.469056
Cl136	Cl	-0.638305	-0.331488	-0.877506
Cl137	Cl	-0.072773	-0.534264	-0.000052
Cl138	Cl	-0.107774	0.211718	-0.000076
H139	H	-0.625200	-0.298011	-0.771206
Cl140	Cl	-0.221568	0.208701	-0.000086
