data_functionalizedCrystal
_audit_creation_method	'MofGen! by Chris Wilmer'
_symmetry_space_group_name_H-M	'P1'
_symmetry_Int_Tables_number	1
_symmetry_cell_setting	triclinic
loop_
_symmetry_equiv_pos_as_xyz
  x,y,z
_cell_length_a	16.120530
_cell_length_b	29.839131
_cell_length_c	16.120256
_cell_angle_alpha	92.869474
_cell_angle_beta	90.128265
_cell_angle_gamma	87.136742
loop_
_atom_site_label
_atom_site_type_symbol
_atom_site_fract_x
_atom_site_fract_y
_atom_site_fract_z
Zn1	Zn	1.247310	-0.227608	-0.534531
Zn2	Zn	1.747310	0.272392	-0.034531
Zn3	Zn	1.254220	-0.299123	-0.395461
Zn4	Zn	1.754220	0.200877	0.104539
Zn5	Zn	1.115304	-0.220015	-0.388450
Zn6	Zn	1.615304	0.279985	0.111550
Zn7	Zn	1.108176	-0.298711	-0.527431
Zn8	Zn	1.608176	0.201289	-0.027431
O9	O	1.181252	-0.261364	-0.461468
O10	O	1.681252	0.238636	0.038532
O11	O	1.364591	-0.240445	-0.521989
O12	O	1.864591	0.259555	-0.021989
O13	O	1.241667	-0.285623	-0.278166
O14	O	1.741667	0.214377	0.221834
O15	O	1.132907	-0.158158	-0.407864
O16	O	1.632907	0.341842	0.092136
O17	O	1.369667	-0.292986	-0.419815
O18	O	1.869667	0.207014	0.080185
O19	O	1.229890	-0.163737	-0.515190
O20	O	1.729890	0.336263	-0.015190
O21	O	1.139607	-0.227503	-0.273014
O22	O	1.639607	0.272497	0.226986
O23	O	0.997995	-0.227104	-0.400980
O24	O	1.497995	0.272896	0.099020
O25	O	1.120757	-0.292285	-0.644739
O26	O	1.620757	0.207715	-0.144739
O27	O	0.992757	-0.284921	-0.503089
O28	O	1.492757	0.215079	-0.003089
O29	O	1.222978	-0.240046	-0.649955
O30	O	1.722978	0.259954	-0.149955
O31	O	1.234755	-0.361932	-0.412931
O32	O	1.734755	0.138068	0.087069
O33	O	1.127458	-0.361629	-0.509889
O34	O	1.627458	0.138371	-0.009889
C35	C	0.965204	-0.255144	-0.450504
C36	C	1.465204	0.244856	0.049496
C37	C	0.872776	-0.252495	-0.445833
C38	C	1.372776	0.247505	0.054167
C39	C	0.703550	-0.247647	-0.437312
C40	C	1.203550	0.252353	0.062688
C41	C	0.659793	-0.275116	-0.485685
C42	C	1.159793	0.224884	0.014315
C43	C	0.565629	-0.272419	-0.480944
C44	C	1.065629	0.227581	0.019056
C45	C	0.797722	-0.250343	-0.442052
C46	C	1.297722	0.249657	0.057948
C47	C	1.181104	-0.378081	-0.461419
C48	C	1.681104	0.121919	0.038581
C49	C	1.181116	-0.428016	-0.461430
C50	C	1.681116	0.071984	0.038570
C51	C	1.237215	-0.737814	-0.411065
C52	C	1.737215	-0.237814	0.088935
C53	C	1.237316	-0.925491	-0.411102
C54	C	1.737316	-0.425491	0.088898
O55	O	1.284896	-0.949883	-0.368242
O56	O	1.784896	-0.449883	0.131758
N57	N	1.181422	-0.948813	-0.461540
N58	N	1.681422	-0.448813	0.038460
C59	C	1.125502	-0.925213	-0.511975
C60	C	1.625502	-0.425213	-0.011975
O61	O	1.077968	-0.949356	-0.554882
O62	O	1.577968	-0.449356	-0.054882
C63	C	1.125405	-0.737537	-0.511942
C64	C	1.625405	-0.237537	-0.011942
C65	C	1.181298	-0.714217	-0.461495
C66	C	1.681298	-0.214217	0.038505
C67	C	1.293103	-0.714494	-0.360623
C68	C	1.793103	-0.214494	0.139377
C69	C	1.293075	-0.667578	-0.360611
C70	C	1.793075	-0.167578	0.139389
C71	C	1.237157	-0.643981	-0.411041
C72	C	1.737157	-0.143981	0.088959
C73	C	1.181269	-0.667301	-0.461483
C74	C	1.681269	-0.167301	0.038517
C75	C	1.069490	-0.713938	-0.562381
C76	C	1.569490	-0.213938	-0.062381
C77	C	1.069472	-0.667016	-0.562370
C78	C	1.569472	-0.167016	-0.062370
C79	C	1.125365	-0.643696	-0.511923
C80	C	1.625365	-0.143696	-0.011923
C81	C	1.125323	-0.596787	-0.511900
C82	C	1.625323	-0.096787	-0.011900
N83	N	1.181217	-0.573465	-0.461463
N84	N	1.681217	-0.073465	0.038537
C85	C	1.237134	-0.597062	-0.411033
C86	C	1.737134	-0.097062	0.088967
C87	C	1.125555	-1.023745	-0.511988
C88	C	1.625555	-0.523745	-0.011988
C89	C	1.125578	-1.070664	-0.511996
C90	C	1.625578	-0.570664	-0.011996
C91	C	1.237394	-1.070939	-0.411124
C92	C	1.737394	-0.570939	0.088876
C93	C	1.237366	-1.024019	-0.411112
C94	C	1.737366	-0.524019	0.088888
C95	C	1.181450	-1.000423	-0.461551
C96	C	1.681450	-0.500423	0.038449
C97	C	1.237069	-0.498534	-0.411011
C98	C	1.737069	0.001466	0.088989
C99	C	1.237033	-0.451613	-0.411000
C100	C	1.737033	0.048387	0.089000
C101	C	1.125221	-0.451342	-0.511875
C102	C	1.625221	0.048658	-0.011875
C103	C	1.125254	-0.498259	-0.511883
C104	C	1.625254	0.001741	-0.011883
C105	C	1.181185	-0.521854	-0.461448
C106	C	1.681185	-0.021854	0.038552
O107	O	1.077774	-0.572367	-0.554745
O108	O	1.577774	-0.072367	-0.054745
O109	O	1.284673	-0.572912	-0.368146
O110	O	1.784673	-0.072912	0.131854
C111	C	1.237244	-0.784731	-0.411077
C112	C	1.737244	-0.284731	0.088923
C113	C	1.181355	-0.808050	-0.461519
C114	C	1.681355	-0.308050	0.038481
C115	C	1.125438	-0.784454	-0.511949
C116	C	1.625438	-0.284454	-0.011949
C117	C	1.181378	-0.854969	-0.461527
C118	C	1.681378	-0.354969	0.038473
C119	C	1.237296	-0.878566	-0.411097
C120	C	1.737296	-0.378566	0.088903
C121	C	1.293190	-0.855244	-0.360660
C122	C	1.793190	-0.355244	0.139340
C123	C	1.293161	-0.808327	-0.360647
C124	C	1.793161	-0.308327	0.139353
C125	C	1.069544	-0.807775	-0.562386
C126	C	1.569544	-0.307775	-0.062386
C127	C	1.069577	-0.854692	-0.562394
C128	C	1.569577	-0.354692	-0.062394
C129	C	1.125494	-0.878289	-0.511964
C130	C	1.625494	-0.378289	-0.011964
C131	C	1.398145	-0.267609	-0.472476
C132	C	1.898145	0.232391	0.027524
C133	C	1.490571	-0.270270	-0.477167
C134	C	1.990571	0.229730	0.022833
C135	C	1.170302	-0.266967	-0.678362
C136	C	1.670302	0.233033	-0.178362
C137	C	1.165635	-0.269354	-0.770790
C138	C	1.665635	0.230646	-0.270790
C139	C	1.181423	-0.144192	-0.461537
C140	C	1.681423	0.355808	0.038463
C141	C	1.181495	-0.094261	-0.461566
C142	C	1.681495	0.405739	0.038434
C143	C	1.205586	-0.248902	-0.983777
C144	C	1.705586	0.251098	-0.483777
C145	C	1.157088	-0.273694	-0.940009
C146	C	1.657088	0.226306	-0.440009
C147	C	1.161845	-0.271278	-0.845847
C148	C	1.661845	0.228722	-0.345847
C149	C	1.200830	-0.251317	-1.077948
C150	C	1.700830	0.248683	-0.577948
C151	C	1.192208	-0.255752	-0.245420
C152	C	1.692208	0.244248	0.254580
C153	C	1.197036	-0.253243	-0.153002
C154	C	1.697036	0.246757	0.346998
H155	H	0.670294	-0.222106	-0.392342
H156	H	1.170294	0.277894	0.107658
H157	H	0.693050	-0.300658	-0.530660
H158	H	1.193050	0.199342	-0.030660
H159	H	1.282547	-0.432628	-0.369918
H160	H	1.782547	0.067372	0.130082
H161	H	1.111990	-0.296729	-0.973256
H162	H	1.611990	0.203271	-0.473256
Br163	Br	1.280728	-0.210498	-0.928365
Br164	Br	1.780728	0.289502	-0.428365
H165	H	1.080019	-1.004536	-0.553062
H166	H	1.580019	-0.504536	-0.053062
Br167	Br	1.312976	-0.530548	-0.342563
Br168	Br	1.812976	-0.030548	0.157437
H169	H	1.338589	-0.648594	-0.319535
H170	H	1.838589	-0.148594	0.180465
H171	H	1.338642	-0.733702	-0.319557
H172	H	1.838642	-0.233702	0.180443
H173	H	1.282879	-1.005035	-0.370035
H174	H	1.782879	-0.505035	0.129965
Br175	Br	1.313278	-1.102972	-0.342681
Br176	Br	1.813278	-0.602972	0.157319
Br177	Br	0.993640	-0.745575	-0.630858
Br178	Br	1.493640	-0.245575	-0.130858
Br179	Br	1.049710	-1.102305	-0.580449
Br180	Br	1.549710	-0.602305	-0.080449
H181	H	1.023939	-0.647807	-0.603445
H182	H	1.523939	-0.147807	-0.103445
Br183	Br	1.049380	-0.529907	-0.580325
Br184	Br	1.549380	-0.029907	-0.080325
H185	H	1.079691	-0.432122	-0.552932
H186	H	1.579691	0.067878	-0.052932
H187	H	1.338674	-0.789344	-0.319569
H188	H	1.838674	-0.289344	0.180431
H189	H	1.338718	-0.874465	-0.319595
H190	H	1.838718	-0.374465	0.180405
Br191	Br	0.993713	-0.886334	-0.630862
Br192	Br	1.493713	-0.386334	-0.130862
H193	H	1.024010	-0.788566	-0.603453
H194	H	1.524010	-0.288566	-0.103453
