data_functionalizedCrystal
_audit_creation_method	'MofGen! by Chris Wilmer'
_symmetry_space_group_name_H-M	'P1'
_symmetry_Int_Tables_number	1
_symmetry_cell_setting	triclinic
loop_
_symmetry_equiv_pos_as_xyz
  x,y,z
_cell_length_a	19.121063
_cell_length_b	12.827893
_cell_length_c	12.827885
_cell_angle_alpha	89.979001
_cell_angle_beta	87.596033
_cell_angle_gamma	87.532808
loop_
_atom_site_label
_atom_site_type_symbol
_atom_site_fract_x
_atom_site_fract_y
_atom_site_fract_z
Zn1	Zn	-0.279612	-1.579833	0.608589
Zn2	Zn	-0.397078	-1.572234	0.441281
Zn3	Zn	-0.279643	-1.405073	0.433859
Zn4	Zn	-0.397023	-1.397570	0.615972
O5	O	-0.338339	-1.488678	0.524925
O6	O	-0.295205	-1.725061	0.586411
O7	O	-0.381537	-1.550020	0.294063
O8	O	-0.181354	-1.434575	0.450841
O9	O	-0.381507	-1.719478	0.463491
O10	O	-0.181332	-1.562971	0.579214
O11	O	-0.295257	-1.427207	0.288610
O12	O	-0.295203	-1.257842	0.458001
O13	O	-0.381412	-1.421789	0.761227
O14	O	-0.381441	-1.252330	0.591799
O15	O	-0.295151	-1.555696	0.755802
O16	O	-0.495355	-1.542745	0.470651
O17	O	-0.495314	-1.414420	0.598996
C18	C	-0.338320	-1.217169	0.524896
C19	C	-0.338329	-1.101015	0.524909
C20	C	-0.381076	-0.926482	0.591034
C21	C	-0.381068	-1.046533	0.591021
C22	C	-0.520819	-1.476972	0.536453
C23	C	-0.598884	-1.472060	0.541419
C24	C	-0.635558	-1.536616	0.476986
C25	C	-0.708908	-1.532003	0.481663
C26	C	-0.745585	-1.462827	0.550769
C27	C	-0.708906	-1.398268	0.615210
C28	C	-0.635556	-1.402888	0.610537
C29	C	-0.967053	-1.445538	0.568222
C30	C	-1.040408	-1.440921	0.572888
C31	C	-1.040405	-1.574658	0.439341
C32	C	-0.967054	-1.579267	0.434671
C33	C	-0.930382	-1.514712	0.499115
C34	C	-0.820561	-1.458107	0.555549
C35	C	-0.855407	-1.519438	0.494340
C36	C	-0.155147	-1.500458	0.513376
C37	C	-0.077081	-1.505477	0.508454
C38	C	-0.338271	-1.488753	0.797491
C39	C	-0.338243	-1.488785	0.913643
C40	C	-0.338353	-0.761247	0.524947
C41	C	-0.338344	-0.877401	0.524933
C42	C	-0.338355	-1.488666	0.253416
C43	C	-0.338186	-1.488849	0.137253
C44	C	-0.295550	-1.555055	0.962743
C45	C	-0.295519	-1.555089	1.082791
H46	H	-0.417668	-0.879625	0.647629
F47	F	-0.290503	-1.045843	0.450940
H48	H	-0.374742	-1.432114	1.095025
F49	F	-0.290520	-0.938640	0.450945
F50	F	-0.385986	-1.414654	0.974859
H51	H	-0.605698	-1.350321	0.663007
F52	F	-0.247746	-1.629255	1.137991
H53	H	-0.259019	-1.611761	0.915903
H54	H	-1.070271	-1.627216	0.386876
F55	F	-0.596531	-1.610237	0.403426
H56	H	-0.937194	-1.635595	0.378399
F57	F	-0.428884	-1.101712	0.664998
F58	F	-0.859601	-1.384486	0.629094
F59	F	-0.816372	-1.593062	0.420799
F60	F	-0.747936	-1.600715	0.413086
H61	H	-1.070267	-1.384603	0.629180
H62	H	-0.937200	-1.392973	0.620693
H63	H	-0.738774	-1.341948	0.671482
