data_functionalizedCrystal
_audit_creation_method	'MofGen! by Chris Wilmer'
_symmetry_space_group_name_H-M	'P1'
_symmetry_Int_Tables_number	1
_symmetry_cell_setting	triclinic
loop_
_symmetry_equiv_pos_as_xyz
  x,y,z
_cell_length_a	12.759401
_cell_length_b	12.594516
_cell_length_c	12.759393
_cell_angle_alpha	89.970274
_cell_angle_beta	89.980198
_cell_angle_gamma	90.010901
loop_
_atom_site_label
_atom_site_type_symbol
_atom_site_fract_x
_atom_site_fract_y
_atom_site_fract_z
Zn1	Zn	1.606287	-0.423717	-0.593994
Zn2	Zn	1.606187	-0.601733	-0.418316
Zn3	Zn	1.430586	-0.423766	-0.418333
Zn4	Zn	1.430587	-0.601651	-0.593957
O5	O	1.518412	-0.512716	-0.506150
O6	O	1.753295	-0.447345	-0.570699
O7	O	1.582851	-0.578180	-0.271297
O8	O	1.453935	-0.274813	-0.441657
O9	O	1.753222	-0.578132	-0.441629
O10	O	1.583022	-0.274777	-0.570714
O11	O	1.453838	-0.447428	-0.271309
O12	O	1.283565	-0.447349	-0.441621
O13	O	1.453936	-0.577992	-0.740983
O14	O	1.283566	-0.578040	-0.570651
O15	O	1.583023	-0.447265	-0.741010
O16	O	1.582852	-0.750667	-0.441593
O17	O	1.453839	-0.750607	-0.570636
C18	C	1.245445	-0.512692	-0.506135
C19	C	1.128668	-0.512707	-0.506153
C20	C	0.964108	-0.444753	-0.573470
C21	C	1.073832	-0.444732	-0.573463
C22	C	1.073774	-0.580714	-0.438852
C23	C	0.964052	-0.580739	-0.438866
C24	C	1.518363	-0.789257	-0.506132
C25	C	1.518439	-0.907563	-0.506159
C26	C	1.588690	-0.976810	-0.436048
C27	C	1.614368	-1.047504	-0.531940
C28	C	1.492893	-1.047668	-0.410327
C29	C	1.544165	-0.976698	-0.602102
C30	C	1.422645	-0.976856	-0.480424
C31	C	1.448286	-1.047518	-0.576383
C32	C	1.792445	-0.512742	-0.506166
C33	C	1.909222	-0.512753	-0.506173
C34	C	1.518491	-0.512614	-0.780183
C35	C	1.518524	-0.512571	-0.896960
C36	C	1.518489	-0.235095	-0.506191
C37	C	1.518522	-0.116790	-0.506209
C38	C	1.585744	-0.444490	-0.951838
C39	C	1.585762	-0.444444	-1.061562
C40	C	1.451336	-0.580569	-1.061521
C41	C	1.451314	-0.580608	-0.951799
C42	C	1.518394	-0.512741	-0.233183
C43	C	1.518564	-0.512485	-0.116406
H44	H	1.648109	-0.945762	-0.376810
H45	H	1.341623	-0.945798	-0.458601
O46	O	1.711115	-1.084488	-0.557770
C47	C	1.894505	-1.090370	-0.513105
C48	C	1.784993	-1.048441	-0.483729
H49	H	1.954268	-1.061225	-0.453271
H50	H	1.893476	-1.180882	-0.513577
H51	H	1.916852	-1.059983	-0.594271
H52	H	1.762577	-1.078750	-0.402557
H53	H	1.786080	-0.957931	-0.483329
O54	O	0.910729	-0.378870	-0.638909
C55	C	0.786966	-0.364761	-0.780839
C56	C	0.847329	-0.439491	-0.706775
H57	H	0.735710	-0.413744	-0.835742
H58	H	0.735501	-0.309074	-0.732766
H59	H	0.845066	-0.316135	-0.828891
H60	H	0.789305	-0.488186	-0.658707
H61	H	0.898810	-0.495108	-0.754909
O62	O	1.467189	-1.084729	-0.313542
C63	C	1.512223	-1.090882	-0.130248
C64	C	1.541427	-1.048824	-0.239795
H65	H	1.572241	-1.061889	-0.070598
H66	H	1.431127	-1.060580	-0.107628
H67	H	1.511715	-1.181390	-0.131437
H68	H	1.541995	-0.958320	-0.238690
H69	H	1.622504	-1.079208	-0.262372
H70	H	1.118515	-0.389361	-0.628265
O71	O	1.127201	-0.646645	-0.373500
C72	C	1.296208	-0.706911	-0.313859
C73	C	1.235837	-0.632175	-0.387911
H74	H	1.384050	-0.695254	-0.325500
H75	H	1.274670	-0.688120	-0.229155
H76	H	1.274586	-0.792753	-0.332154
H77	H	1.257426	-0.546308	-0.369711
H78	H	1.257380	-0.651058	-0.472593
H79	H	0.919363	-0.636119	-0.384063
O80	O	1.385981	-0.646849	-0.898646
C81	C	1.252608	-0.781818	-0.910175
C82	C	1.326559	-0.706882	-0.970501
H83	H	1.204530	-0.830358	-0.968243
H84	H	1.300767	-0.837566	-0.858831
H85	H	1.197724	-0.732943	-0.858777
H86	H	1.381458	-0.755671	-1.021955
H87	H	1.278335	-0.651131	-1.021778
O88	O	1.570131	-0.939498	-0.698765
C89	C	1.599152	-0.785566	-0.807201
C90	C	1.569752	-0.827553	-0.697679
H91	H	1.598834	-0.695054	-0.806365
H92	H	1.680620	-0.815218	-0.829320
H93	H	1.539689	-0.815355	-0.867025
H94	H	1.629144	-0.797782	-0.637782
H95	H	1.488258	-0.797910	-0.675649
H96	H	1.640498	-0.389004	-1.106239
H97	H	1.396619	-0.635965	-1.106184
H98	H	1.388913	-1.078369	-0.635764
O99	O	1.650910	-0.378240	-0.898616
C100	C	1.701990	-0.197204	-0.865139
C101	C	1.628110	-0.272117	-0.925453
H102	H	1.683598	-0.111389	-0.886831
H103	H	1.690430	-0.208830	-0.777277
H104	H	1.786699	-0.215949	-0.886711
H105	H	1.543374	-0.253418	-0.903969
H106	H	1.639762	-0.260477	-1.013301
