data_functionalizedCrystal
_audit_creation_method	'MofGen! by Chris Wilmer'
_symmetry_space_group_name_H-M	'P1'
_symmetry_Int_Tables_number	1
_symmetry_cell_setting	triclinic
loop_
_symmetry_equiv_pos_as_xyz
  x,y,z
_cell_length_a	21.395362
_cell_length_b	25.639239
_cell_length_c	21.395356
_cell_angle_alpha	89.971496
_cell_angle_beta	89.957023
_cell_angle_gamma	90.054564
loop_
_atom_site_label
_atom_site_type_symbol
_atom_site_fract_x
_atom_site_fract_y
_atom_site_fract_z
Zn1	Zn	0.957819	-0.207942	-0.354582
Zn2	Zn	1.457819	0.292058	0.145418
Zn3	Zn	0.957709	-0.295376	-0.249803
Zn4	Zn	1.457709	0.204624	0.250197
Zn5	Zn	0.853036	-0.207981	-0.249783
Zn6	Zn	1.353036	0.292019	0.250217
Zn7	Zn	0.852988	-0.295373	-0.354508
Zn8	Zn	1.352988	0.204627	0.145492
O9	O	0.905388	-0.251668	-0.302169
O10	O	1.405388	0.248332	0.197831
O11	O	1.045482	-0.219526	-0.340722
O12	O	1.545482	0.280474	0.159278
O13	O	0.943797	-0.283800	-0.162122
O14	O	1.443797	0.216200	0.337878
O15	O	0.867001	-0.134810	-0.263708
O16	O	1.367001	0.365190	0.236292
O17	O	1.045401	-0.283763	-0.263742
O18	O	1.545401	0.216237	0.236258
O19	O	0.943985	-0.134782	-0.340703
O20	O	1.443985	0.365218	0.159297
O21	O	0.866894	-0.219591	-0.162108
O22	O	1.366894	0.280409	0.337892
O23	O	0.765351	-0.219588	-0.263636
O24	O	1.265351	0.280412	0.236364
O25	O	0.866921	-0.283758	-0.442196
O26	O	1.366921	0.216242	0.057804
O27	O	0.765317	-0.283795	-0.340576
O28	O	1.265317	0.216205	0.159424
O29	O	0.943939	-0.219523	-0.442250
O30	O	1.443939	0.280477	0.057750
O31	O	0.943751	-0.368541	-0.263669
O32	O	1.443751	0.131459	0.236331
O33	O	0.866814	-0.368539	-0.340596
O34	O	1.366814	0.131461	0.159404
C35	C	0.742600	-0.251696	-0.302096
C36	C	1.242600	0.248304	0.197904
C37	C	0.672959	-0.251720	-0.302080
C38	C	1.172959	0.248280	0.197920
C39	C	0.640244	-0.285197	-0.342083
C40	C	1.140244	0.214803	0.157917
C41	C	0.574809	-0.285184	-0.342111
C42	C	1.074809	0.214816	0.157889
C43	C	0.542091	-0.251700	-0.302125
C44	C	1.042091	0.248300	0.197875
C45	C	0.574813	-0.218217	-0.262119
C46	C	1.074813	0.281783	0.237881
C47	C	0.640247	-0.218227	-0.262097
C48	C	1.140247	0.281773	0.237903
C49	C	0.438368	-0.247496	-0.245720
C50	C	0.938368	0.252504	0.254280
C51	C	0.372935	-0.247489	-0.245741
C52	C	0.872935	0.252511	0.254259
C53	C	0.340270	-0.251666	-0.302194
C54	C	0.840270	0.248334	0.197806
C55	C	0.373046	-0.255860	-0.358627
C56	C	0.873046	0.244140	0.141373
C57	C	0.438480	-0.255870	-0.358605
C58	C	0.938480	0.244130	0.141395
C59	C	0.471138	-0.251685	-0.302145
C60	C	0.971138	0.248315	0.197855
C61	C	0.236603	-0.285130	-0.342231
C62	C	0.736603	0.214870	0.157769
C63	C	0.171166	-0.285114	-0.342260
C64	C	0.671166	0.214886	0.157740
C65	C	0.171172	-0.218149	-0.262262
C66	C	0.671172	0.281851	0.237738
C67	C	0.236607	-0.218163	-0.262239
C68	C	0.736607	0.281837	0.237761
C69	C	0.269319	-0.251657	-0.302222
C70	C	0.769319	0.248343	0.197778
C71	C	0.905282	-0.387511	-0.302140
C72	C	1.405282	0.112489	0.197860
C73	C	0.905295	-0.445625	-0.302149
C74	C	1.405295	0.054375	0.197851
C75	C	0.945554	-0.805976	-0.262182
C76	C	1.445554	-0.305976	0.237818
C77	C	0.945578	-0.860581	-0.262190
C78	C	1.445578	-0.360581	0.237810
O79	O	0.979698	-0.888808	-0.228177
O80	O	1.479698	-0.388808	0.271823
N81	N	0.905498	-0.887907	-0.302211
N82	N	1.405498	-0.387907	0.197789
C83	C	0.865396	-0.860626	-0.342230
C84	C	1.365396	-0.360626	0.157770
O85	O	0.831307	-0.888884	-0.376271
O86	O	1.331307	-0.388884	0.123729
C87	C	0.865375	-0.806023	-0.342224
C88	C	1.365375	-0.306023	0.157776
C89	C	0.905453	-0.778699	-0.302196
C90	C	1.405453	-0.278699	0.197804
C91	C	0.985629	-0.778653	-0.222158
C92	C	1.485629	-0.278653	0.277842
C93	C	0.985604	-0.724052	-0.222149
C94	C	1.485604	-0.224052	0.277851
C95	C	0.945503	-0.696775	-0.262164
C96	C	1.445503	-0.196775	0.237836
C97	C	0.905428	-0.724099	-0.302187
C98	C	1.405428	-0.224099	0.197813
C99	C	0.825276	-0.778743	-0.382246
C100	C	1.325276	-0.278743	0.117754
C101	C	0.825259	-0.724136	-0.382237
C102	C	1.325259	-0.224136	0.117763
C103	C	0.865337	-0.696813	-0.342209
C104	C	1.365337	-0.196813	0.157791
C105	C	0.865302	-0.642222	-0.342193
C106	C	1.365302	-0.142222	0.157807
N107	N	0.905382	-0.614895	-0.302173
N108	N	1.405382	-0.114895	0.197827
C109	C	0.945483	-0.642172	-0.262158
C110	C	1.445483	-0.142172	0.237842
C111	C	0.865443	-0.975297	-0.342239
C112	C	1.365443	-0.475297	0.157761
C113	C	0.865460	-1.029899	-0.342242
C114	C	1.365460	-0.529899	0.157758
C115	C	0.945643	-1.029850	-0.262204
C116	C	1.445643	-0.529850	0.237796
C117	C	0.945623	-0.975246	-0.262198
C118	C	1.445623	-0.475246	0.237802
C119	C	0.905523	-0.947971	-0.302219
C120	C	1.405523	-0.447971	0.197781
C121	C	0.945426	-0.527507	-0.262142
C122	C	1.445426	-0.027507	0.237858
C123	C	0.945395	-0.472902	-0.262134
C124	C	1.445395	0.027098	0.237866
C125	C	0.865215	-0.472956	-0.342175
C126	C	1.365215	0.027044	0.157825
C127	C	0.865243	-0.527556	-0.342180
C128	C	1.365243	-0.027556	0.157820
C129	C	0.905353	-0.554831	-0.302162
C130	C	1.405353	-0.054831	0.197838
O131	O	0.831201	-0.613960	-0.376190
O132	O	1.331201	-0.113960	0.123810
O133	O	0.979571	-0.613908	-0.228128
O134	O	1.479571	-0.113908	0.271872
C135	C	1.068811	-0.251641	-0.302242
C136	C	1.568811	0.248359	0.197758
C137	C	1.138452	-0.251629	-0.302274
C138	C	1.638452	0.248371	0.197726
C139	C	0.905437	-0.251636	-0.465592
C140	C	1.405437	0.248364	0.034408
C141	C	0.905458	-0.251622	-0.535234
C142	C	1.405458	0.248378	-0.035234
C143	C	0.905511	-0.115295	-0.302212
C144	C	1.405511	0.384705	0.197788
C145	C	0.905563	-0.057181	-0.302230
C146	C	1.405563	0.442819	0.197770
C147	C	0.865426	-0.218184	-0.567929
C148	C	1.365426	0.281816	-0.067929
C149	C	0.865423	-0.218175	-0.633365
C150	C	1.365423	0.281825	-0.133365
C151	C	0.905465	-0.251597	-0.666102
C152	C	1.405465	0.248403	-0.166102
C153	C	0.945500	-0.285041	-0.633398
C154	C	1.445500	0.214959	-0.133398
C155	C	0.945497	-0.285053	-0.567964
C156	C	1.445497	0.214947	-0.067964
C157	C	0.961916	-0.255694	-0.769807
C158	C	1.461916	0.244306	-0.269807
C159	C	0.961921	-0.255678	-0.835240
C160	C	1.461921	0.244322	-0.335240
C161	C	0.905475	-0.251562	-0.867923
C162	C	1.405475	0.248438	-0.367923
C163	C	0.849024	-0.247450	-0.835164
C164	C	1.349024	0.252550	-0.335164
C165	C	0.849020	-0.247462	-0.769730
C166	C	1.349020	0.252538	-0.269730
C167	C	0.905473	-0.251587	-0.737054
C168	C	1.405473	0.248413	-0.237054
C169	C	0.865437	-0.218112	-0.971571
C170	C	1.365437	0.281888	-0.471571
C171	C	0.865434	-0.218106	-1.037008
C172	C	1.365434	0.281894	-0.537008
C173	C	0.945517	-0.284969	-1.037040
C174	C	1.445517	0.215031	-0.537040
C175	C	0.945514	-0.284978	-0.971605
C176	C	1.445514	0.215022	-0.471605
C177	C	0.905475	-0.251547	-0.938874
C178	C	1.405475	0.248453	-0.438874
C179	C	0.905375	-0.251663	-0.139381
C180	C	1.405375	0.248337	0.360619
C181	C	0.905475	-0.251529	-0.069741
C182	C	1.405475	0.248471	0.430259
H183	H	0.346253	-0.244077	-0.199789
H184	H	0.846253	0.255923	0.300211
C185	C	0.989752	-1.059861	-0.218186
C186	C	1.489752	-0.559861	0.281814
H187	H	0.984024	-1.096294	-0.223928
H188	H	1.484024	-0.596294	0.276072
H189	H	0.980600	-1.050945	-0.176076
H190	H	1.480600	-0.550945	0.323924
H191	H	1.031846	-1.050867	-0.227408
H192	H	1.531846	-0.550867	0.272592
H193	H	0.144533	-0.190884	-0.229707
H194	H	0.644533	0.309116	0.270293
C195	C	1.024012	-0.260202	-0.871272
C196	C	1.524012	0.239798	-0.371272
H197	H	1.015932	-0.259598	-0.914922
H198	H	1.515932	0.240402	-0.414922
H199	H	1.044013	-0.292032	-0.860552
H200	H	1.544013	0.207968	-0.360552
H201	H	1.050396	-0.231756	-0.860575
H202	H	1.550396	0.268244	-0.360575
H203	H	0.464958	-0.244092	-0.199746
H204	H	0.964958	0.255908	0.300254
C205	C	0.821370	-1.059949	-0.386268
C206	C	1.321370	-0.559949	0.113732
H207	H	0.797490	-1.035879	-0.410099
H208	H	1.297490	-0.535879	0.089901
H209	H	0.794090	-1.081294	-0.362274
H210	H	1.294090	-0.581294	0.137726
H211	H	0.845336	-1.081207	-0.413606
H212	H	1.345336	-0.581207	0.086394
H213	H	0.465164	-0.259284	-0.404555
H214	H	0.965164	0.240716	0.095445
H215	H	0.978032	-0.450656	-0.229537
H216	H	1.478032	0.049344	0.270463
C217	C	0.821323	-0.945298	-0.386258
C218	C	1.321323	-0.445298	0.113742
H219	H	0.797455	-0.969397	-0.410086
H220	H	1.297455	-0.469397	0.089914
H221	H	0.845262	-0.923957	-0.413589
H222	H	1.345262	-0.423957	0.086411
H223	H	0.794023	-0.924040	-0.362250
H224	H	1.294023	-0.424040	0.137750
H225	H	0.832835	-0.190890	-0.944921
H226	H	1.332835	0.309110	-0.444921
H227	H	0.978121	-0.312181	-1.063694
H228	H	1.478121	0.187819	-0.563694
H229	H	0.792637	-0.800981	-0.414837
H230	H	1.292637	-0.300981	0.085163
H231	H	0.832563	-0.450739	-0.374753
H232	H	1.332563	0.049261	0.125247
H233	H	0.548170	-0.190953	-0.229563
H234	H	1.048170	0.309047	0.270437
C235	C	0.676238	-0.181404	-0.218091
C236	C	1.176238	0.318596	0.281909
H237	H	0.719893	-0.186204	-0.223806
H238	H	1.219893	0.313796	0.276194
H239	H	0.665457	-0.189005	-0.175980
H240	H	1.165457	0.310995	0.324020
H241	H	0.665575	-0.146281	-0.227347
H242	H	1.165575	0.353719	0.272653
H243	H	0.832830	-0.190879	-1.063628
H244	H	1.332830	0.309121	-0.563628
C245	C	0.781149	-0.694136	-0.426261
C246	C	1.281149	-0.194136	0.073739
H247	H	0.757283	-0.718233	-0.450096
H248	H	1.257283	-0.218233	0.049904
H249	H	0.805094	-0.672795	-0.453587
H250	H	1.305094	-0.172795	0.046413
H251	H	0.753846	-0.672878	-0.402256
H252	H	1.253846	-0.172878	0.097744
C253	C	0.989542	-0.557501	-0.218118
C254	C	1.489542	-0.057501	0.281882
H255	H	1.013398	-0.533401	-0.194278
H256	H	1.513398	-0.033401	0.305722
H257	H	1.016844	-0.578761	-0.242115
H258	H	1.516844	-0.078761	0.257885
H259	H	0.965593	-0.578840	-0.190787
H260	H	1.465593	-0.078840	0.309213
C261	C	1.029698	-0.694003	-0.178126
C262	C	1.529698	-0.194003	0.321874
H263	H	1.053585	-0.718075	-0.154305
H264	H	1.553585	-0.218075	0.345695
H265	H	1.005744	-0.672740	-0.150789
H266	H	1.505744	-0.172740	0.349211
H267	H	1.056980	-0.672664	-0.202131
H268	H	1.556980	-0.172664	0.297869
H269	H	1.018287	-0.800856	-0.189573
H270	H	1.518287	-0.300856	0.310427
C271	C	0.989713	-0.945195	-0.218173
C272	C	1.489713	-0.445195	0.281827
H273	H	1.013599	-0.969266	-0.194348
H274	H	1.513599	-0.469266	0.305652
H275	H	0.965756	-0.923931	-0.190840
H276	H	1.465756	-0.423931	0.309160
H277	H	1.016997	-0.923857	-0.242177
H278	H	1.516997	-0.423857	0.257823
C279	C	0.337124	-0.260453	-0.420729
C280	C	0.837124	0.239547	0.079271
H281	H	0.293460	-0.259840	-0.412664
H282	H	0.793460	0.240160	0.087336
H283	H	0.347824	-0.292306	-0.440692
H284	H	0.847824	0.207694	0.059308
H285	H	0.347919	-0.232038	-0.447141
H286	H	0.847919	0.267962	0.052859
H287	H	0.263238	-0.312400	-0.374791
H288	H	0.763238	0.187600	0.125209
H289	H	0.832825	-0.190943	-0.659991
H290	H	1.332825	0.309057	-0.159991
C291	C	0.135180	-0.321948	-0.386256
C292	C	0.635180	0.178052	0.113744
H293	H	0.164035	-0.341900	-0.410057
H294	H	0.664035	0.158100	0.089943
H295	H	0.109707	-0.301983	-0.413614
H296	H	0.609707	0.198017	0.086386
H297	H	0.109601	-0.344695	-0.362233
H298	H	0.609601	0.155305	0.137767
C299	C	0.821157	-0.557614	-0.386208
C300	C	1.321157	-0.057614	0.113792
H301	H	0.797274	-0.533546	-0.410040
H302	H	1.297274	-0.033546	0.089960
H303	H	0.793880	-0.578962	-0.362216
H304	H	1.293880	-0.078962	0.137784
H305	H	0.845129	-0.578868	-0.413545
H306	H	1.345129	-0.078868	0.086455
C307	C	0.272595	-0.181345	-0.218227
C308	C	0.772595	0.318655	0.281773
H309	H	0.243740	-0.161404	-0.194412
H310	H	0.743740	0.338596	0.305588
H311	H	0.298181	-0.158594	-0.242232
H312	H	0.798181	0.341406	0.257768
H313	H	0.298061	-0.201325	-0.190873
H314	H	0.798061	0.298675	0.309127
C315	C	0.821382	-0.181414	-0.531929
C316	C	1.321382	0.318586	-0.031929
H317	H	0.797536	-0.161501	-0.560777
H318	H	1.297536	0.338499	-0.060777
H319	H	0.845369	-0.158635	-0.506427
H320	H	1.345369	0.341365	-0.006427
H321	H	0.794058	-0.201425	-0.506379
H322	H	1.294058	0.298575	-0.006379
C323	C	0.786928	-0.242949	-0.733698
C324	C	1.286928	0.257051	-0.233698
H325	H	0.753309	-0.240499	-0.762529
H326	H	1.253309	0.259501	-0.262529
H327	H	0.787765	-0.212649	-0.708179
H328	H	1.287765	0.287351	-0.208179
H329	H	0.781399	-0.272925	-0.708162
H330	H	1.281399	0.227075	-0.208162
C331	C	0.989553	-0.321755	-0.935635
C332	C	1.489553	0.178245	-0.435635
H333	H	0.983813	-0.316979	-0.891976
H334	H	1.483813	0.183021	-0.391976
H335	H	1.031659	-0.314096	-0.946390
H336	H	1.531659	0.185904	-0.446390
H337	H	0.980347	-0.356886	-0.946341
H338	H	1.480347	0.143114	-0.446341
H339	H	1.007885	-0.259042	-0.743203
H340	H	1.507885	0.240958	-0.243203
H341	H	0.803061	-0.244094	-0.861773
H342	H	1.303061	0.255906	-0.361773
H343	H	0.978102	-0.312254	-0.660057
H344	H	1.478102	0.187746	-0.160057
C345	C	0.989538	-0.321833	-0.531997
C346	C	1.489538	0.178167	-0.031997
H347	H	1.013389	-0.341736	-0.560864
H348	H	1.513389	0.158264	-0.060864
H349	H	0.965551	-0.344621	-0.506444
H350	H	1.465551	0.155379	-0.006444
H351	H	1.016858	-0.301828	-0.506501
H352	H	1.516858	0.198172	-0.006501
H353	H	0.666874	-0.312469	-0.374642
H354	H	1.166874	0.187531	0.125358
H355	H	0.548167	-0.312445	-0.374689
H356	H	1.048167	0.187555	0.125311
