data_functionalizedCrystal
_audit_creation_method	'MofGen! by Chris Wilmer'
_symmetry_space_group_name_H-M	'P1'
_symmetry_Int_Tables_number	1
_symmetry_cell_setting	triclinic
loop_
_symmetry_equiv_pos_as_xyz
  x,y,z
_cell_length_a	23.532407
_cell_length_b	23.532407
_cell_length_c	17.766277
_cell_angle_alpha	89.996096
_cell_angle_beta	89.993822
_cell_angle_gamma	82.848712
loop_
_atom_site_label
_atom_site_type_symbol
_atom_site_fract_x
_atom_site_fract_y
_atom_site_fract_z
O1	O	0.069132	0.755262	-0.062554
O2	O	0.319132	1.005262	0.187446
O3	O	0.569132	1.255262	0.437446
O4	O	0.819132	1.505262	0.687446
O5	O	0.079135	0.589398	-0.062567
O6	O	0.329135	0.839398	0.187433
O7	O	0.579135	1.089398	0.437433
O8	O	0.829135	1.339398	0.687433
O9	O	-0.008798	0.677331	-0.062547
O10	O	0.241202	0.927331	0.187453
O11	O	0.491202	1.177331	0.437453
O12	O	0.741202	1.427331	0.687453
O13	O	0.157066	0.667328	-0.062575
O14	O	0.407066	0.917328	0.187425
O15	O	0.657066	1.167328	0.437425
O16	O	0.907066	1.417328	0.687425
O17	O	-0.008795	0.677320	0.062642
O18	O	0.241205	0.927320	0.312642
O19	O	0.491205	1.177320	0.562642
O20	O	0.741205	1.427320	0.812642
O21	O	0.079139	0.589386	0.062621
O22	O	0.329139	0.839386	0.312621
O23	O	0.579139	1.089386	0.562621
O24	O	0.829139	1.339386	0.812621
O25	O	0.069135	0.755250	0.062634
O26	O	0.319135	1.005250	0.312634
O27	O	0.569135	1.255250	0.562634
O28	O	0.819135	1.505250	0.812634
Cu29	Cu	0.074137	0.672317	0.074058
Cu30	Cu	0.324137	0.922317	0.324058
Cu31	Cu	0.574137	1.172317	0.574058
Cu32	Cu	0.824137	1.422317	0.824058
Cu33	Cu	0.074134	0.672331	-0.073991
Cu34	Cu	0.324134	0.922331	0.176009
Cu35	Cu	0.574134	1.172331	0.426009
Cu36	Cu	0.824134	1.422331	0.676009
O37	O	0.157069	0.667317	0.062614
O38	O	0.407069	0.917317	0.312614
O39	O	0.657069	1.167317	0.562614
O40	O	0.907069	1.417317	0.812614
C41	C	0.078882	0.568176	0.000026
C42	C	0.328882	0.818176	0.250026
C43	C	0.578882	1.068176	0.500026
C44	C	0.828882	1.318176	0.750026
C45	C	0.078116	0.504959	0.000021
C46	C	0.328116	0.754959	0.250021
C47	C	0.578116	1.004959	0.500021
C48	C	0.828116	1.254959	0.750021
C49	C	0.022921	0.238792	0.000051
C50	C	0.272921	0.488792	0.250051
C51	C	0.522921	0.738792	0.500051
C52	C	0.772921	0.988792	0.750051
C53	C	0.023632	0.298192	0.000051
C54	C	0.273632	0.548192	0.250051
C55	C	0.523632	0.798192	0.500051
C56	C	0.773632	1.048192	0.750051
O57	O	-0.020153	0.334937	0.000084
O58	O	0.229847	0.584937	0.250084
O59	O	0.479847	0.834937	0.500084
O60	O	0.729847	1.084937	0.750084
N61	N	0.075909	0.320818	0.000037
N62	N	0.325909	0.570818	0.250037
N63	N	0.575909	0.820818	0.500037
N64	N	0.825909	1.070818	0.750037
C65	C	0.127477	0.284041	0.000031
C66	C	0.377477	0.534041	0.250031
C67	C	0.627477	0.784041	0.500031
C68	C	0.877477	1.034041	0.750031
O69	O	0.172007	0.308740	0.000019
O70	O	0.422007	0.558740	0.250019
O71	O	0.672007	0.808740	0.500019
O72	O	0.922007	1.058740	0.750019
C73	C	0.126765	0.224642	0.000036
C74	C	0.376765	0.474642	0.250036
C75	C	0.626765	0.724642	0.500036
C76	C	0.876765	0.974642	0.750036
C77	C	0.074485	0.202019	0.000043
C78	C	0.324485	0.452019	0.250043
C79	C	0.574485	0.702019	0.500043
C80	C	0.824485	0.952019	0.750043
C81	C	-0.029354	0.216168	0.000058
C82	C	0.220646	0.466168	0.250058
C83	C	0.470646	0.716168	0.500058
C84	C	0.720646	0.966168	0.750058
C85	C	-0.030066	0.156772	0.000057
C86	C	0.219934	0.406772	0.250057
C87	C	0.469934	0.656772	0.500057
C88	C	0.719934	0.906772	0.750057
C89	C	0.021499	0.119999	0.000049
C90	C	0.271499	0.369999	0.250049
C91	C	0.521499	0.619999	0.500049
C92	C	0.771499	0.869999	0.750049
C93	C	0.073774	0.142623	0.000042
C94	C	0.323774	0.392623	0.250042
C95	C	0.573774	0.642623	0.500042
C96	C	0.823774	0.892623	0.750042
C97	C	0.178333	0.187865	0.000036
C98	C	0.428333	0.437865	0.250036
C99	C	0.678333	0.687865	0.500036
C100	C	0.928333	0.937865	0.750036
C101	C	0.177616	0.128463	0.000042
C102	C	0.427616	0.378463	0.250042
C103	C	0.677616	0.628463	0.500042
C104	C	0.927616	0.878463	0.750042
C105	C	0.125336	0.105840	0.000048
C106	C	0.375336	0.355840	0.250048
C107	C	0.625336	0.605840	0.500048
C108	C	0.875336	0.855840	0.750048
C109	C	0.124627	0.046454	0.000032
C110	C	0.374627	0.296454	0.250032
C111	C	0.624627	0.546454	0.500032
C112	C	0.874627	0.796454	0.750032
N113	N	0.072351	0.023828	0.000046
N114	N	0.322351	0.273828	0.250046
N115	N	0.572351	0.523828	0.500046
N116	N	0.822351	0.773828	0.750046
C117	C	0.020787	0.060600	0.000055
C118	C	0.270787	0.310600	0.250055
C119	C	0.520787	0.560600	0.500055
C120	C	0.770787	0.810600	0.750055
C121	C	0.128968	0.408783	0.000020
C122	C	0.378968	0.658783	0.250020
C123	C	0.628968	0.908783	0.500020
C124	C	0.878968	1.158783	0.750020
C125	C	0.129681	0.468181	0.000009
C126	C	0.379681	0.718181	0.250009
C127	C	0.629681	0.968181	0.500009
C128	C	0.879681	1.218181	0.750009
C129	C	0.025836	0.482328	0.000030
C130	C	0.275836	0.732328	0.250030
C131	C	0.525836	0.982328	0.500030
C132	C	0.775836	1.232328	0.750030
C133	C	0.025124	0.422929	0.000036
C134	C	0.275124	0.672929	0.250036
C135	C	0.525124	0.922929	0.500036
C136	C	0.775124	1.172929	0.750036
C137	C	0.076692	0.386157	0.000034
C138	C	0.326692	0.636157	0.250034
C139	C	0.576692	0.886157	0.500034
C140	C	0.826692	1.136157	0.750034
C141	C	0.019297	-0.064136	0.000052
C142	C	0.269297	0.185864	0.250052
C143	C	0.519297	0.435864	0.500052
C144	C	0.769297	0.685864	0.750052
C145	C	0.018590	-0.123538	0.000048
C146	C	0.268590	0.126462	0.250048
C147	C	0.518590	0.376462	0.500048
C148	C	0.768590	0.626462	0.750048
C149	C	0.122435	-0.137680	0.000030
C150	C	0.372435	0.112320	0.250030
C151	C	0.622435	0.362320	0.500030
C152	C	0.872435	0.612320	0.750030
C153	C	0.123142	-0.078284	0.000030
C154	C	0.373142	0.171716	0.250030
C155	C	0.623142	0.421716	0.500030
C156	C	0.873142	0.671716	0.750030
C157	C	0.071568	-0.041512	0.000044
C158	C	0.321568	0.208488	0.250044
C159	C	0.571568	0.458488	0.500044
C160	C	0.821568	0.708488	0.750044
O161	O	0.168390	0.009675	0.000002
O162	O	0.418390	0.259675	0.250002
O163	O	0.668390	0.509675	0.500002
O164	O	0.918390	0.759675	0.750002
O165	O	-0.023737	0.035892	0.000076
O166	O	0.226263	0.285892	0.250076
O167	O	0.476263	0.535892	0.500076
O168	O	0.726263	0.785892	0.750076
C169	C	-0.030012	0.677071	0.000050
C170	C	0.219988	0.927071	0.250050
C171	C	0.469988	1.177071	0.500050
C172	C	0.719988	1.427071	0.750050
C173	C	-0.093229	0.676305	0.000055
C174	C	0.156771	0.926305	0.250055
C175	C	0.406771	1.176305	0.500055
C176	C	0.656771	1.426305	0.750055
C177	C	-0.492332	0.723538	0.000018
C178	C	-0.242332	0.973538	0.250018
C179	C	0.007668	1.223538	0.500018
C180	C	0.257668	1.473538	0.750018
C181	C	-0.551733	0.722827	0.000012
C182	C	-0.301733	0.972827	0.250012
C183	C	-0.051733	1.222827	0.500012
C184	C	0.198267	1.472827	0.750012
O185	O	-0.588477	0.766613	-0.000012
O186	O	-0.338477	1.016613	0.249988
O187	O	-0.088477	1.266613	0.499988
O188	O	0.161523	1.516613	0.749988
N189	N	-0.574359	0.670551	0.000008
N190	N	-0.324359	0.920551	0.250008
N191	N	-0.074359	1.170551	0.500008
N192	N	0.175641	1.420551	0.750008
C193	C	-0.537581	0.618982	0.000003
C194	C	-0.287581	0.868982	0.250003
C195	C	-0.037581	1.118982	0.500003
C196	C	0.212419	1.368982	0.750003
O197	O	-0.562281	0.574452	-0.000001
O198	O	-0.312281	0.824452	0.249999
O199	O	-0.062281	1.074452	0.499999
O200	O	0.187719	1.324452	0.749999
C201	C	-0.478182	0.619695	0.000003
C202	C	-0.228182	0.869695	0.250003
C203	C	0.021818	1.119695	0.500003
C204	C	0.271818	1.369695	0.750003
C205	C	-0.455559	0.671974	0.000015
C206	C	-0.205559	0.921974	0.250015
C207	C	0.044441	1.171974	0.500015
C208	C	0.294441	1.421974	0.750015
C209	C	-0.469709	0.775814	0.000028
C210	C	-0.219709	1.025814	0.250028
C211	C	0.030291	1.275814	0.500028
C212	C	0.280291	1.525814	0.750028
C213	C	-0.410313	0.776525	0.000035
C214	C	-0.160313	1.026525	0.250035
C215	C	0.089687	1.276525	0.500035
C216	C	0.339687	1.526525	0.750035
C217	C	-0.373540	0.724961	0.000032
C218	C	-0.123540	0.974961	0.250032
C219	C	0.126460	1.224961	0.500032
C220	C	0.376460	1.474961	0.750032
C221	C	-0.396163	0.672685	0.000022
C222	C	-0.146163	0.922685	0.250022
C223	C	0.103837	1.172685	0.500022
C224	C	0.353837	1.422685	0.750022
C225	C	-0.441406	0.568127	-0.000007
C226	C	-0.191406	0.818127	0.249993
C227	C	0.058594	1.068127	0.499993
C228	C	0.308594	1.318127	0.749993
C229	C	-0.382003	0.568843	-0.000008
C230	C	-0.132003	0.818843	0.249992
C231	C	0.117997	1.068843	0.499992
C232	C	0.367997	1.318843	0.749992
C233	C	-0.359381	0.621123	0.000004
C234	C	-0.109381	0.871123	0.250004
C235	C	0.140619	1.121123	0.500004
C236	C	0.390619	1.371123	0.750004
C237	C	-0.299994	0.621832	0.000026
C238	C	-0.049994	0.871832	0.250026
C239	C	0.200006	1.121832	0.500026
C240	C	0.450006	1.371832	0.750026
N241	N	-0.277368	0.674109	0.000029
N242	N	-0.027368	0.924109	0.250029
N243	N	0.222632	1.174109	0.500029
N244	N	0.472632	1.424109	0.750029
C245	C	-0.314141	0.725673	0.000032
C246	C	-0.064141	0.975673	0.250032
C247	C	0.185859	1.225673	0.500032
C248	C	0.435859	1.475673	0.750032
C249	C	-0.662324	0.617491	0.000001
C250	C	-0.412324	0.867491	0.250001
C251	C	-0.162324	1.117491	0.500001
C252	C	0.087676	1.367491	0.750001
C253	C	-0.721722	0.616778	0.000006
C254	C	-0.471722	0.866778	0.250006
C255	C	-0.221722	1.116778	0.500006
C256	C	0.028278	1.366778	0.750006
C257	C	-0.735869	0.720623	0.000013
C258	C	-0.485869	0.970623	0.250013
C259	C	-0.235869	1.220623	0.500013
C260	C	0.014131	1.470623	0.750013
C261	C	-0.676470	0.721335	0.000014
C262	C	-0.426470	0.971335	0.250014
C263	C	-0.176470	1.221335	0.500014
C264	C	0.073530	1.471335	0.750014
C265	C	-0.639698	0.669767	0.000004
C266	C	-0.389698	0.919767	0.250004
C267	C	-0.139698	1.169767	0.500004
C268	C	0.110302	1.419767	0.750004
C269	C	-0.189404	0.727163	0.000048
C270	C	0.060596	0.977163	0.250048
C271	C	0.310596	1.227163	0.500048
C272	C	0.560596	1.477163	0.750048
C273	C	-0.130002	0.727869	0.000058
C274	C	0.119998	0.977869	0.250058
C275	C	0.369998	1.227869	0.500058
C276	C	0.619998	1.477869	0.750058
C277	C	-0.115860	0.624025	0.000047
C278	C	0.134140	0.874025	0.250047
C279	C	0.384140	1.124025	0.500047
C280	C	0.634140	1.374025	0.750047
C281	C	-0.175257	0.623318	0.000041
C282	C	0.074743	0.873318	0.250041
C283	C	0.324743	1.123318	0.500041
C284	C	0.574743	1.373318	0.750041
C285	C	-0.212028	0.674891	0.000039
C286	C	0.037972	0.924891	0.250039
C287	C	0.287972	1.174891	0.500039
C288	C	0.537972	1.424891	0.750039
O289	O	-0.263215	0.578069	0.000047
O290	O	-0.013215	0.828069	0.250047
O291	O	0.236785	1.078069	0.500047
O292	O	0.486785	1.328069	0.750047
O293	O	-0.289433	0.770196	0.000027
O294	O	-0.039433	1.020196	0.250027
O295	O	0.210567	1.270196	0.500027
O296	O	0.460567	1.520196	0.750027
C297	C	0.178283	0.667577	0.000016
C298	C	0.428283	0.917577	0.250016
C299	C	0.678283	1.167577	0.500016
C300	C	0.928283	1.417577	0.750016
C301	C	0.241500	0.668343	0.000005
C302	C	0.491500	0.918343	0.250005
C303	C	0.741500	1.168343	0.500005
C304	C	0.991500	1.418343	0.750005
C305	C	0.069389	0.776472	0.000040
C306	C	0.319389	1.026472	0.250040
C307	C	0.569389	1.276472	0.500040
C308	C	0.819389	1.526472	0.750040
C309	C	0.070155	0.839689	0.000039
C310	C	0.320155	1.089689	0.250039
C311	C	0.570155	1.339689	0.500039
C312	C	0.820155	1.589689	0.750039
N313	N	0.074140	0.672311	0.178189
N314	N	0.324140	0.922311	0.428189
N315	N	0.574140	1.172311	0.678189
N316	N	0.824140	1.422311	0.928189
N317	N	0.074127	0.672341	-0.178122
N318	N	0.324127	0.922341	0.071878
N319	N	0.574127	1.172341	0.321878
N320	N	0.824127	1.422341	0.571878
C321	C	0.108488	0.706685	0.782473
C322	C	0.358488	0.956685	1.032473
C323	C	0.608488	1.206685	1.282473
C324	C	0.858488	1.456685	1.532473
C325	C	0.108494	0.706679	0.703672
C326	C	0.358494	0.956679	0.953672
C327	C	0.608494	1.206679	1.203672
C328	C	0.858494	1.456679	1.453672
C329	C	0.074127	0.672336	0.664278
C330	C	0.324127	0.922336	0.914278
C331	C	0.574127	1.172336	1.164278
C332	C	0.824127	1.422336	1.414278
C333	C	0.039764	0.637985	0.703692
C334	C	0.289764	0.887985	0.953692
C335	C	0.539764	1.137985	1.203692
C336	C	0.789764	1.387985	1.453692
C337	C	0.039764	0.637988	0.782492
C338	C	0.289764	0.887988	1.032492
C339	C	0.539764	1.137988	1.282492
C340	C	0.789764	1.387988	1.532492
C341	C	0.022783	0.671051	0.539442
C342	C	0.272783	0.921051	0.789442
C343	C	0.522783	1.171051	1.039442
C344	C	0.772783	1.421051	1.289442
C345	C	0.022782	0.671052	0.460643
C346	C	0.272782	0.921052	0.710643
C347	C	0.522782	1.171052	0.960643
C348	C	0.772782	1.421052	1.210643
C349	C	0.074129	0.672326	0.421231
C350	C	0.324129	0.922326	0.671231
C351	C	0.574129	1.172326	0.921231
C352	C	0.824129	1.422326	1.171231
C353	C	0.125477	0.673609	0.460628
C354	C	0.375477	0.923609	0.710628
C355	C	0.625477	1.173609	0.960628
C356	C	0.875477	1.423609	1.210628
C357	C	0.125476	0.673612	0.539428
C358	C	0.375476	0.923612	0.789428
C359	C	0.625476	1.173612	1.039428
C360	C	0.875476	1.423612	1.289428
C361	C	0.074124	0.672330	0.578832
C362	C	0.324124	0.922330	0.828832
C363	C	0.574124	1.172330	1.078832
C364	C	0.824124	1.422330	1.328832
C365	C	0.108499	0.706665	0.296381
C366	C	0.358499	0.956665	0.546381
C367	C	0.608499	1.206665	0.796381
C368	C	0.858499	1.456665	1.046381
C369	C	0.108506	0.706656	0.217577
C370	C	0.358506	0.956656	0.467577
C371	C	0.608506	1.206656	0.717577
C372	C	0.858506	1.456656	0.967577
C373	C	0.039770	0.637965	0.217599
C374	C	0.289770	0.887965	0.467599
C375	C	0.539770	1.137965	0.717599
C376	C	0.789770	1.387965	0.967599
C377	C	0.039769	0.637971	0.296401
C378	C	0.289769	0.887971	0.546401
C379	C	0.539769	1.137971	0.796401
C380	C	0.789769	1.387971	1.046401
C381	C	0.074132	0.672325	0.335787
C382	C	0.324132	0.922325	0.585787
C383	C	0.574132	1.172325	0.835787
C384	C	0.824132	1.422325	1.085787
H385	H	-0.017447	0.404515	0.000042
H386	H	0.232553	0.654515	0.250042
H387	H	0.482553	0.904515	0.500042
H388	H	0.732553	1.154515	0.750042
H389	H	-0.019029	0.670011	0.428572
H390	H	0.230971	0.920011	0.678572
H391	H	0.480971	1.170011	0.928572
H392	H	0.730971	1.420011	1.178572
H393	H	-0.111587	0.770443	0.000070
H394	H	0.138413	1.020443	0.250070
H395	H	0.388413	1.270443	0.500070
H396	H	0.638413	1.520443	0.750070
F397	F	0.003190	0.601433	0.824431
F398	F	0.253190	0.851433	1.074431
F399	F	0.503190	1.101433	1.324431
F400	F	0.753190	1.351433	1.574431
F401	F	0.145064	0.743244	0.824386
F402	F	0.395064	0.993244	1.074386
F403	F	0.645064	1.243244	1.324386
F404	F	0.895064	1.493244	1.574386
F405	F	0.183858	0.369651	0.000010
F406	F	0.433858	0.619651	0.250010
F407	F	0.683858	0.869651	0.500010
F408	F	0.933858	1.119651	0.750010
H409	H	0.136477	0.734646	0.671582
H410	H	0.386477	0.984646	0.921582
H411	H	0.636477	1.234646	1.171582
H412	H	0.886477	1.484646	1.421582
H413	H	0.172252	0.486595	-0.000007
H414	H	0.422252	0.736595	0.249993
H415	H	0.672252	0.986595	0.499993
H416	H	0.922252	1.236595	0.749993
F417	F	-0.508838	0.830701	0.000031
F418	F	-0.258838	1.080701	0.250031
F419	F	-0.008838	1.330701	0.500031
F420	F	0.241162	1.580701	0.750031
F421	F	-0.199334	0.567676	0.000042
F422	F	0.050666	0.817676	0.250042
F423	F	0.300666	1.067676	0.500042
F424	F	0.550666	1.317676	0.750042
F425	F	-0.465469	0.512483	-0.000023
F426	F	-0.215469	0.762483	0.249977
F427	F	0.034531	1.012483	0.499977
F428	F	0.284531	1.262483	0.749977
F429	F	0.180123	0.674975	0.581354
F430	F	0.430123	0.924975	0.831354
F431	F	0.680123	1.174975	1.081354
F432	F	0.930123	1.424975	1.331354
F433	F	0.178783	-0.054206	0.000013
F434	F	0.428783	0.195794	0.250013
F435	F	0.678783	0.445794	0.500013
F436	F	0.928783	0.695794	0.750013
H437	H	-0.740135	0.574207	0.000010
H438	H	-0.490135	0.824207	0.250010
H439	H	-0.240135	1.074207	0.500010
H440	H	0.009865	1.324207	0.750010
F441	F	0.003191	0.601433	0.661765
F442	F	0.253191	0.851433	0.911765
F443	F	0.503191	1.101433	1.161765
F444	F	0.753191	1.351433	1.411765
H445	H	-0.019031	0.670008	0.571525
H446	H	0.230969	0.920008	0.821525
H447	H	0.480969	1.170008	1.071525
H448	H	0.730969	1.420008	1.321525
F449	F	-0.652399	0.776978	0.000026
F450	F	-0.402399	1.026978	0.250026
F451	F	-0.152399	1.276978	0.500026
F452	F	0.097601	1.526978	0.750026
F453	F	-0.084241	0.255297	0.000069
F454	F	0.165759	0.505297	0.250069
F455	F	0.415759	0.755297	0.500069
F456	F	0.665759	1.005297	0.750069
F457	F	0.232503	0.089330	0.000043
F458	F	0.482503	0.339330	0.250043
F459	F	0.732503	0.589330	0.500043
F460	F	0.982503	0.839330	0.750043
H461	H	0.136482	0.734635	0.328450
H462	H	0.386482	0.984635	0.578450
H463	H	0.636482	1.234635	0.828450
H464	H	0.886482	1.484635	1.078450
H465	H	-0.391900	0.819097	0.000041
H466	H	-0.141900	1.069097	0.250041
H467	H	0.108100	1.319097	0.500041
H468	H	0.358100	1.569097	0.750041
H469	H	0.167288	0.674646	0.428541
H470	H	0.417288	0.924646	0.678541
H471	H	0.667288	1.174646	0.928541
H472	H	0.917288	1.424646	1.178541
F473	F	0.003199	0.601410	0.175678
F474	F	0.253199	0.851410	0.425678
F475	F	0.503199	1.101410	0.675678
F476	F	0.753199	1.351410	0.925678
F477	F	-0.623192	0.562602	-0.000002
F478	F	-0.373192	0.812602	0.249998
F479	F	-0.123192	1.062602	0.499998
F480	F	0.126808	1.312602	0.749998
F481	F	-0.342870	0.513956	-0.000019
F482	F	-0.092870	0.763956	0.249981
F483	F	0.157130	1.013956	0.499981
F484	F	0.407130	1.263956	0.749981
H485	H	-0.765821	0.762610	0.000013
H486	H	-0.515821	1.012610	0.250013
H487	H	-0.265821	1.262610	0.500013
H488	H	-0.015821	1.512610	0.750013
F489	F	0.233977	0.211929	0.000029
F490	F	0.483977	0.461929	0.250029
F491	F	0.733977	0.711929	0.500029
F492	F	0.983977	0.961929	0.750029
H493	H	-0.219337	0.769159	0.000044
H494	H	0.030663	1.019159	0.250044
H495	H	0.280663	1.269159	0.500044
H496	H	0.530663	1.519159	0.750044
H497	H	0.011786	0.610007	0.328485
H498	H	0.261786	0.860007	0.578485
H499	H	0.511786	1.110007	0.828485
H500	H	0.761786	1.360007	1.078485
H501	H	-0.085909	0.582043	0.000047
H502	H	0.164091	0.832043	0.250047
H503	H	0.414091	1.082043	0.500047
H504	H	0.664091	1.332043	0.750047
F505	F	0.145090	0.743200	0.175640
F506	F	0.395090	0.993200	0.425640
F507	F	0.645090	1.243200	0.675640
F508	F	0.895090	1.493200	0.925640
H509	H	-0.023984	-0.141954	0.000051
H510	H	0.226016	0.108046	0.250051
H511	H	0.476016	0.358046	0.500051
H512	H	0.726016	0.608046	0.750051
H513	H	-0.072637	0.138359	0.000066
H514	H	0.177363	0.388359	0.250066
H515	H	0.427363	0.638359	0.500066
H516	H	0.677363	0.888359	0.750066
F517	F	-0.035594	-0.025010	0.000066
F518	F	0.214406	0.224990	0.250066
F519	F	0.464406	0.474990	0.500066
F520	F	0.714406	0.724990	0.750066
H521	H	-0.016150	0.512280	0.000037
H522	H	0.233850	0.762280	0.250037
H523	H	0.483850	1.012280	0.500037
H524	H	0.733850	1.262280	0.750037
H525	H	0.164417	-0.167631	0.000019
H526	H	0.414417	0.082369	0.250019
H527	H	0.664417	0.332369	0.500019
H528	H	0.914417	0.582369	0.750019
