data_functionalizedCrystal
_audit_creation_method	'MofGen! by Chris Wilmer'
_symmetry_space_group_name_H-M	'P1'
_symmetry_Int_Tables_number	1
_symmetry_cell_setting	triclinic
loop_
_symmetry_equiv_pos_as_xyz
  x,y,z
_cell_length_a	22.010155
_cell_length_b	8.559649
_cell_length_c	8.597304
_cell_angle_alpha	102.375305
_cell_angle_beta	82.304463
_cell_angle_gamma	90.007067
loop_
_atom_site_label
_atom_site_type_symbol
_atom_site_fract_x
_atom_site_fract_y
_atom_site_fract_z
O1	O	-0.047732	-2.119308	-0.053165
O2	O	-0.051970	-1.655370	0.027734
O3	O	-0.037833	-1.896465	-0.242277
O4	O	-0.061869	-1.878212	0.216847
O5	O	0.063215	-1.896422	-0.242236
O6	O	0.049078	-1.655326	0.027775
O7	O	0.053316	-2.119264	-0.053123
Cu8	Cu	0.060424	-1.887291	-0.012670
Cu9	Cu	-0.059078	-1.887343	-0.012719
O10	O	0.039179	-1.878168	0.216888
C11	C	-0.001767	-1.595914	0.033885
C12	C	-0.002723	-1.418819	0.052134
N13	N	0.144474	-1.887266	-0.012638
N14	N	-0.143128	-1.887380	-0.012765
C15	C	0.570517	-1.994107	-0.132266
C16	C	0.634125	-1.994114	-0.132277
O17	O	0.672341	-2.084890	-0.233961
N18	N	0.659687	-1.887341	-0.012752
C19	C	0.621638	-1.780544	0.106784
O20	O	0.649221	-1.689725	0.208448
C21	C	0.558031	-1.780530	0.106788
C22	C	0.532473	-1.887321	-0.012737
C23	C	0.544958	-2.100887	-0.251781
C24	C	0.481354	-2.100882	-0.251767
C25	C	0.443309	-1.994096	-0.132238
C26	C	0.468869	-1.887315	-0.012723
C27	C	0.519984	-1.673726	0.226315
C28	C	0.456373	-1.673720	0.226308
C29	C	0.430814	-1.780511	0.106784
C30	C	0.367220	-1.780523	0.106820
N31	N	0.341658	-1.887296	-0.012705
C32	C	0.379703	-1.994082	-0.132234
C33	C	0.755217	-1.780579	0.106766
C34	C	0.818822	-1.780599	0.106770
C35	C	0.831305	-1.994168	-0.132294
C36	C	0.767698	-1.994154	-0.132290
C37	C	0.729655	-1.887351	-0.012760
C38	C	0.246129	-1.994063	-0.132196
C39	C	0.182519	-1.994052	-0.132167
C40	C	0.170042	-1.780479	0.106891
C41	C	0.233646	-1.780494	0.106868
C42	C	0.271689	-1.887292	-0.012689
O43	O	0.328967	-1.689789	0.208449
O44	O	0.352111	-2.084871	-0.233893
C45	C	0.015739	-1.894481	-0.300491
C46	C	0.024819	-1.888616	-0.474007
C47	C	0.003112	-2.178720	-0.059275
C48	C	0.004064	-2.355815	-0.077523
C49	C	-0.014394	-1.880153	0.275101
C50	C	-0.023478	-1.886018	0.448618
H51	H	0.161711	-2.081020	-0.229499
O52	O	0.012731	-1.463816	-0.243064
H53	H	0.057385	-1.439986	-0.309332
O54	O	0.261213	-1.665319	0.235793
H55	H	0.286628	-1.733632	0.303881
H56	H	-0.009269	-1.337267	0.177109
O57	O	0.585987	-2.216095	-0.380693
H58	H	0.557516	-2.290345	-0.463774
H59	H	0.839626	-1.693657	0.204112
H60	H	0.277097	-2.081026	-0.229551
H61	H	-0.071778	-1.888278	-0.484881
H62	H	0.073121	-1.886333	-0.540511
H63	H	0.460548	-2.187835	-0.349098
H64	H	0.746892	-2.081111	-0.229617
H65	H	0.724244	-1.693611	0.204114
O66	O	0.872345	-2.109337	-0.261235
H67	H	0.920867	-2.091382	-0.241158
O68	O	0.129005	-1.665264	0.235776
H69	H	0.080484	-1.683185	0.215671
H70	H	0.540784	-1.586767	0.323642
H71	H	0.425401	-1.586744	0.323643
