data_functionalizedCrystal
_audit_creation_method	'MofGen! by Chris Wilmer'
_symmetry_space_group_name_H-M	'P1'
_symmetry_Int_Tables_number	1
_symmetry_cell_setting	triclinic
loop_
_symmetry_equiv_pos_as_xyz
  x,y,z
_cell_length_a	16.992694
_cell_length_b	8.597304
_cell_length_c	15.455313
_cell_angle_alpha	85.021039
_cell_angle_beta	87.142206
_cell_angle_gamma	87.974141
loop_
_atom_site_label
_atom_site_type_symbol
_atom_site_fract_x
_atom_site_fract_y
_atom_site_fract_z
O1	O	1.047467	0.324513	-0.096268
O2	O	0.819142	0.320880	-0.096022
O3	O	0.937002	0.096304	-0.079224
O4	O	0.929606	0.549090	-0.113066
O5	O	0.930262	0.109089	0.064082
O6	O	0.812401	0.333666	0.047284
O7	O	1.040726	0.337299	0.047038
Cu8	Cu	0.925948	0.336650	0.060246
Cu9	Cu	0.933920	0.321529	-0.109230
O10	O	0.922866	0.561876	0.030240
C11	C	0.786507	0.322603	-0.024023
C12	C	0.699307	0.308668	-0.022992
C13	C	0.932463	0.044492	-0.003222
C14	C	0.928968	-0.128940	0.009734
C15	C	0.650576	0.443112	-0.033040
C16	C	0.568642	0.430012	-0.032049
C17	C	0.535440	0.282465	-0.021015
C18	C	0.584177	0.148011	-0.010964
C19	C	0.666109	0.161113	-0.011949
C20	C	0.291231	0.228159	-0.016933
C21	C	0.209293	0.215066	-0.015952
C22	C	0.193763	0.497069	-0.037034
C23	C	0.275698	0.510158	-0.038024
C24	C	0.324427	0.375704	-0.027968
N25	N	0.451690	0.269070	-0.020005
N26	N	0.408175	0.389101	-0.028973
C27	C	1.073361	0.335576	-0.024962
C28	C	1.160562	0.349510	-0.026000
C29	C	0.927406	0.613687	-0.045763
C30	C	0.930900	0.787119	-0.058725
N31	N	0.920347	0.347285	0.179446
N32	N	0.939527	0.310883	-0.228429
C33	C	0.970437	0.251916	0.231974
C34	C	0.966209	0.259974	0.322179
C35	C	0.911894	0.363410	0.359854
C36	C	0.861799	0.458782	0.307320
C37	C	0.866024	0.450715	0.217117
C38	C	0.893657	0.398188	0.628834
C39	C	0.889437	0.406251	0.719044
C40	C	0.993846	0.207440	0.733897
C41	C	0.998070	0.199389	0.643691
C42	C	0.947972	0.294756	0.591165
N43	N	0.907572	0.371652	0.452058
N44	N	0.952290	0.286504	0.498964
H45	H	0.528968	0.539491	-0.040232
O46	O	1.023078	0.151289	0.195315
C47	C	0.982362	0.045042	0.150787
H48	H	0.922270	0.098324	0.133184
H49	H	0.974067	-0.067807	0.194261
C50	C	1.104075	-0.055989	0.088818
C51	C	1.030271	0.009458	0.067192
H52	H	1.133628	-0.077946	0.037255
H53	H	1.131507	0.015587	0.118820
H54	H	1.097152	-0.150023	0.125048
H55	H	1.037195	0.103500	0.030972
H56	H	1.002841	-0.062103	0.037182
H57	H	0.924632	-0.189762	0.078267
O58	O	0.936164	-0.140509	-0.140518
C59	C	1.005368	-0.193617	-0.184415
H60	H	1.024539	-0.313090	-0.153225
H61	H	1.054152	-0.107406	-0.179881
C62	C	0.965623	-0.059961	-0.318931
C63	C	0.989165	-0.206706	-0.280628
H64	H	0.955630	-0.068029	-0.378280
H65	H	0.918999	-0.024176	-0.289356
H66	H	1.006280	0.011866	-0.315143
H67	H	0.948504	-0.278525	-0.284405
H68	H	1.035781	-0.242503	-0.310205
O69	O	0.682955	0.586318	-0.043790
C70	C	0.765720	0.569063	-0.042486
H71	H	0.784859	0.447255	-0.060692
H72	H	0.785381	0.585605	0.025485
C73	C	0.780209	0.842019	-0.085925
C74	C	0.803717	0.692416	-0.108293
H75	H	0.803649	0.918112	-0.126514
H76	H	0.724449	0.853646	-0.086800
H77	H	0.796595	0.855782	-0.029281
H78	H	0.787323	0.678649	-0.164931
H79	H	0.859475	0.680789	-0.107429
O80	O	0.552023	0.004588	-0.000356
C81	C	0.580236	-0.084595	-0.068417
H82	H	0.638678	-0.037199	-0.096869
H83	H	0.535486	-0.077058	-0.121297
C84	C	0.520783	-0.314432	0.002051
C85	C	0.592565	-0.256228	-0.032890
H86	H	0.528385	-0.420305	0.023964
H87	H	0.501772	-0.254348	0.047903
H88	H	0.483498	-0.308137	-0.042022
H89	H	0.629845	-0.262506	0.011186
H90	H	0.611582	-0.316318	-0.078734
O91	O	0.817448	0.543589	0.166110
C92	C	0.830895	0.701647	0.176488
H93	H	0.892605	0.712533	0.200627
H94	H	0.785436	0.746695	0.225832
C95	C	0.747837	0.785373	0.058910
C96	C	0.823634	0.798745	0.088551
H97	H	0.743355	0.845271	0.004669
H98	H	0.738775	0.678887	0.051920
H99	H	0.709964	0.822911	0.100038
H100	H	0.861505	0.761189	0.047429
H101	H	0.832702	0.905228	0.095532
H102	H	1.042297	0.115164	0.613018
H103	H	0.302725	0.630305	-0.047018
H104	H	1.006995	0.182317	0.364947
H105	H	1.034632	0.129796	0.776671
H106	H	0.845205	0.490487	0.749713
H107	H	0.154079	0.606533	-0.045220
O108	O	0.338589	0.097618	-0.007028
C109	C	0.382982	0.103390	0.067240
H110	H	0.351452	0.184077	0.113436
H111	H	0.443777	0.149704	0.046884
C112	C	0.430668	-0.160966	0.056725
C113	C	0.391939	-0.061874	0.113467
H114	H	0.436197	-0.262908	0.085238
H115	H	0.400763	-0.164853	0.006688
H116	H	0.481327	-0.122351	0.039766
H117	H	0.341278	-0.100478	0.130416
H118	H	0.421837	-0.057997	0.163509
H119	H	0.852867	0.475842	0.586074
O120	O	0.809106	0.559223	0.344052
C121	C	0.816105	0.545872	0.434933
H122	H	0.877299	0.496494	0.451021
H123	H	0.769588	0.464306	0.466812
C124	C	0.728765	0.768817	0.449653
C125	C	0.803927	0.708183	0.469411
H126	H	0.721249	0.868935	0.470922
H127	H	0.724047	0.777809	0.388425
H128	H	0.690009	0.700830	0.476220
H129	H	0.842681	0.776158	0.442836
H130	H	0.808651	0.699206	0.530636
H131	H	0.182263	0.094910	-0.006968
H132	H	0.705786	0.051634	-0.003768
