data_functionalizedCrystal
_audit_creation_method	'MofGen! by Chris Wilmer'
_symmetry_space_group_name_H-M	'P1'
_symmetry_Int_Tables_number	1
_symmetry_cell_setting	triclinic
loop_
_symmetry_equiv_pos_as_xyz
  x,y,z
_cell_length_a	19.188930
_cell_length_b	19.188930
_cell_length_c	13.596369
_cell_angle_alpha	89.988893
_cell_angle_beta	89.980792
_cell_angle_gamma	83.144779
loop_
_atom_site_label
_atom_site_type_symbol
_atom_site_fract_x
_atom_site_fract_y
_atom_site_fract_z
O1	O	0.926146	0.087169	-0.082119
O2	O	1.259479	0.420502	0.251215
O3	O	1.592812	0.753835	0.584548
O4	O	0.722834	0.098903	-0.082053
O5	O	1.056168	0.432236	0.251281
O6	O	1.389501	0.765570	0.584614
O7	O	0.830357	-0.008620	-0.082068
O8	O	1.163690	0.324714	0.251265
O9	O	1.497024	0.658047	0.584598
O10	O	0.818623	0.194692	-0.082103
O11	O	1.151956	0.528025	0.251230
O12	O	1.485289	0.861358	0.584564
O13	O	0.830346	-0.008625	0.081515
O14	O	1.163680	0.324708	0.414848
O15	O	1.497013	0.658041	0.748181
O16	O	0.722824	0.098897	0.081530
O17	O	1.056157	0.432231	0.414864
O18	O	1.389490	0.765564	0.748197
O19	O	0.926135	0.087163	0.081464
O20	O	1.259468	0.420496	0.414798
O21	O	1.592802	0.753830	0.748131
Zn22	Zn	0.824478	0.093029	0.107470
Zn23	Zn	1.157811	0.426363	0.440803
Zn24	Zn	1.491144	0.759696	0.774136
Zn25	Zn	0.824492	0.093037	-0.108058
Zn26	Zn	1.157825	0.426370	0.225275
Zn27	Zn	1.491158	0.759703	0.558609
O28	O	0.818612	0.194686	0.081480
O29	O	1.151945	0.528019	0.414813
O30	O	1.485279	0.861353	0.748147
C31	C	0.696818	0.098520	-0.000252
C32	C	1.030151	0.431854	0.333081
C33	C	1.363485	0.765187	0.666414
C34	C	0.619313	0.097380	-0.000226
C35	C	0.952647	0.430713	0.333107
C36	C	1.285980	0.764046	0.666440
C37	C	0.574389	0.160470	-0.000253
C38	C	0.907723	0.493804	0.333081
C39	C	1.241056	0.827137	0.666414
C40	C	0.501566	0.159399	-0.000263
C41	C	0.834899	0.492732	0.333070
C42	C	1.168232	0.826065	0.666403
C43	C	0.473669	0.095233	-0.000267
C44	C	0.807002	0.428566	0.333066
C45	C	1.140336	0.761899	0.666399
C46	C	0.518603	0.032133	-0.000236
C47	C	0.851936	0.365467	0.333098
C48	C	1.185270	0.698800	0.666431
C49	C	0.591425	0.033207	-0.000215
C50	C	0.924758	0.366540	0.333118
C51	C	1.258092	0.699874	0.666451
N52	N	0.365693	0.046188	-0.055973
N53	N	0.699026	0.379521	0.277360
N54	N	1.032359	0.712854	0.610694
N55	N	0.296514	0.045172	-0.055995
N56	N	0.629847	0.378505	0.277339
N57	N	0.963181	0.711839	0.610672
C58	C	0.254260	0.091994	-0.000327
C59	C	0.587594	0.425328	0.333006
C60	C	0.920927	0.758661	0.666340
N61	N	0.283798	0.139881	0.055351
N62	N	0.617131	0.473215	0.388684
N63	N	0.950464	0.806548	0.722017
N64	N	0.352982	0.140899	0.055368
N65	N	0.686316	0.474232	0.388701
N66	N	1.019649	0.807565	0.722034
C67	C	0.394707	0.094062	-0.000289
C68	C	0.728040	0.427395	0.333044
C69	C	1.061373	0.760728	0.666378
C70	C	0.130372	0.153928	-0.000363
C71	C	0.463705	0.487261	0.332970
C72	C	0.797039	0.820594	0.666303
C73	C	0.057547	0.152853	-0.000368
C74	C	0.390881	0.486187	0.332965
C75	C	0.724214	0.819520	0.666299
C76	C	0.074586	0.025586	-0.000350
C77	C	0.407919	0.358920	0.332983
C78	C	0.741253	0.692253	0.666316
C79	C	0.147409	0.026662	-0.000336
C80	C	0.480743	0.359996	0.332998
C81	C	0.814076	0.693329	0.666331
C82	C	0.175298	0.090835	-0.000347
C83	C	0.508631	0.424168	0.332986
C84	C	0.841964	0.757502	0.666320
C85	C	0.829972	-0.034634	-0.000274
C86	C	1.163305	0.298700	0.333059
C87	C	1.496638	0.632033	0.666393
C88	C	0.828831	-0.112138	-0.000265
C89	C	1.162164	0.221195	0.333068
C90	C	1.495498	0.554529	0.666402
C91	C	0.891922	-0.157062	-0.000281
C92	C	1.225255	0.176271	0.333053
C93	C	1.558589	0.509605	0.666386
C94	C	0.890850	-0.229886	-0.000296
C95	C	1.224184	0.103448	0.333037
C96	C	1.557517	0.436781	0.666370
C97	C	0.826684	-0.257782	-0.000276
C98	C	1.160017	0.075551	0.333057
C99	C	1.493351	0.408884	0.666391
C100	C	0.763585	-0.212849	-0.000266
C101	C	1.096918	0.120485	0.333067
C102	C	1.430252	0.453818	0.666401
C103	C	0.764658	-0.140026	-0.000260
C104	C	1.097992	0.193307	0.333073
C105	C	1.431325	0.526640	0.666406
N106	N	0.777633	-0.365789	0.055410
N107	N	1.110966	-0.032456	0.388744
N108	N	1.444300	0.300877	0.722077
N109	N	0.776618	-0.434968	0.055407
N110	N	1.109951	-0.101635	0.388740
N111	N	1.443284	0.231699	0.722074
C112	C	0.823446	-0.477191	-0.000295
C113	C	1.156779	-0.143858	0.333038
C114	C	1.490113	0.189476	0.666372
N115	N	0.871339	-0.447624	-0.055981
N116	N	1.204672	-0.114290	0.277352
N117	N	1.538005	0.219043	0.610685
N118	N	0.872356	-0.378439	-0.055974
N119	N	1.205690	-0.045106	0.277360
N120	N	1.539023	0.288228	0.610693
C121	C	0.825513	-0.336745	-0.000283
C122	C	1.158846	-0.003412	0.333051
C123	C	1.492180	0.329922	0.666384
C124	C	0.885379	-0.601079	-0.000329
C125	C	1.218712	-0.267746	0.333005
C126	C	1.552046	0.065587	0.666338
C127	C	0.884305	-0.673904	-0.000350
C128	C	1.217638	-0.340571	0.332983
C129	C	1.550971	-0.007238	0.666316
C130	C	0.757038	-0.656865	-0.000310
C131	C	1.090371	-0.323532	0.333023
C132	C	1.423704	0.009801	0.666357
C133	C	0.758114	-0.584042	-0.000298
C134	C	1.091447	-0.250709	0.333035
C135	C	1.424781	0.082624	0.666368
C136	C	0.822286	-0.556154	-0.000303
C137	C	1.155620	-0.222821	0.333030
C138	C	1.488953	0.110513	0.666364
C139	C	0.952151	0.087546	-0.000338
C140	C	1.285485	0.420879	0.332995
C141	C	1.618818	0.754213	0.666329
C142	C	1.029656	0.088687	-0.000370
C143	C	1.362989	0.422020	0.332963
C144	C	1.696322	0.755353	0.666296
C145	C	0.818997	0.220700	-0.000317
C146	C	1.152331	0.554033	0.333017
C147	C	1.485664	0.887366	0.666350
C148	C	0.820138	0.298204	-0.000332
C149	C	1.153471	0.631538	0.333001
C150	C	1.486805	0.964871	0.666335
N151	N	0.824473	0.093024	0.254561
N152	N	1.157806	0.426357	0.587895
N153	N	1.491140	0.759691	0.921228
N154	N	0.824502	0.093037	-0.255150
N155	N	1.157835	0.426370	0.078184
N156	N	1.491168	0.759703	0.411517
C157	C	0.824491	0.093038	0.655852
C158	C	1.157824	0.426371	0.989186
C159	C	1.491157	0.759704	1.322519
C160	C	0.824484	0.093036	0.544201
C161	C	1.157817	0.426369	0.877534
C162	C	1.491150	0.759703	1.210868
C163	C	0.824482	0.093031	0.455211
C164	C	1.157816	0.426365	0.788544
C165	C	1.491149	0.759698	1.121877
C166	C	0.824475	0.093029	0.343552
C167	C	1.157808	0.426362	0.676885
C168	C	1.491141	0.759695	1.010219
H169	H	0.464982	0.210776	-0.000282
H170	H	0.798315	0.544110	0.333052
H171	H	1.131648	0.877443	0.666385
H172	H	0.706738	-0.547464	-0.000280
H173	H	1.040072	-0.214131	0.333053
H174	H	1.373405	0.119203	0.666387
H175	H	0.597091	0.212725	-0.000264
H176	H	0.930424	0.546058	0.333070
H177	H	1.263758	0.879391	0.666403
H178	H	0.495885	-0.020111	-0.000253
H179	H	0.829218	0.313222	0.333081
H180	H	1.162551	0.646556	0.666414
N181	N	0.158853	0.219481	-0.000369
N182	N	0.492187	0.552814	0.332965
N183	N	0.825520	0.886147	0.666298
N184	N	0.118730	0.275810	-0.000380
N185	N	0.452064	0.609143	0.332953
N186	N	0.785397	0.942476	0.666287
H187	H	0.138843	0.322108	-0.000382
H188	H	0.472176	0.655441	0.332951
H189	H	0.805509	0.988775	0.666284
N190	N	0.955292	-0.275795	-0.000295
N191	N	1.288626	0.057538	0.333038
N192	N	1.621959	0.390872	0.666371
N193	N	0.954322	-0.340813	-0.000293
N194	N	1.287655	-0.007479	0.333040
N195	N	1.620988	0.325854	0.666373
H196	H	0.999833	-0.373236	-0.000291
H197	H	1.333167	-0.039902	0.333043
H198	H	1.666500	0.293431	0.666376
H199	H	0.020970	0.204232	-0.000384
H200	H	0.354303	0.537565	0.332950
H201	H	0.687637	0.870898	0.666283
H202	H	0.628003	-0.018171	-0.000194
H203	H	0.961336	0.315162	0.333139
H204	H	1.294670	0.648496	0.666472
H205	H	0.935683	-0.710481	-0.000369
H206	H	1.269017	-0.377148	0.332965
H207	H	1.602350	-0.043815	0.666298
H208	H	0.944176	-0.134360	-0.000288
H209	H	1.277509	0.198973	0.333045
H210	H	1.610843	0.532306	0.666379
H211	H	0.183988	-0.024713	-0.000320
H212	H	0.517321	0.308620	0.333013
H213	H	0.850654	0.641954	0.666347
H214	H	0.051874	-0.026659	-0.000415
H215	H	0.385207	0.306674	0.332919
H216	H	0.718540	0.640008	0.666252
N217	N	0.698047	-0.241352	-0.000254
N218	N	1.031380	0.091981	0.333079
N219	N	1.364713	0.425314	0.666413
N220	N	0.697096	-0.306372	-0.000258
N221	N	1.030430	0.026961	0.333075
N222	N	1.363763	0.360294	0.666408
H223	H	0.650808	-0.326504	-0.000255
H224	H	0.984141	0.006830	0.333079
H225	H	1.317475	0.340163	0.666412
N226	N	0.700203	-0.094143	-0.000249
N227	N	1.033536	0.239190	0.333084
N228	N	1.366870	0.572523	0.666417
N229	N	0.642915	-0.119055	-0.000241
N230	N	0.976248	0.214278	0.333092
N231	N	1.309581	0.547611	0.666425
H232	H	0.597391	-0.086650	-0.000233
H233	H	0.930725	0.246683	0.333100
H234	H	1.264058	0.580017	0.666433
H235	H	0.704792	-0.679578	-0.000299
H236	H	1.038126	-0.346245	0.333035
H237	H	1.371459	-0.012911	0.666368
H238	H	0.937632	-0.578372	-0.000337
H239	H	1.270966	-0.245038	0.332996
H240	H	1.604299	0.088295	0.666330
