data_functionalizedCrystal
_audit_creation_method	'MofGen! by Chris Wilmer'
_symmetry_space_group_name_H-M	'P1'
_symmetry_Int_Tables_number	1
_symmetry_cell_setting	triclinic
loop_
_symmetry_equiv_pos_as_xyz
  x,y,z
_cell_length_a	15.538191
_cell_length_b	11.026607
_cell_length_c	10.065875
_cell_angle_alpha	79.268236
_cell_angle_beta	84.760469
_cell_angle_gamma	102.070945
loop_
_atom_site_label
_atom_site_type_symbol
_atom_site_fract_x
_atom_site_fract_y
_atom_site_fract_z
O1	O	1.197729	0.388979	-0.113456
O2	O	0.945580	0.258601	-0.113466
O3	O	1.050756	0.491237	-0.113457
O4	O	1.092553	0.156343	-0.113465
O5	O	1.030723	0.446744	0.113530
O6	O	0.925547	0.214107	0.113521
O7	O	1.177696	0.344486	0.113531
Zn8	Zn	1.048441	0.272232	0.149565
Zn9	Zn	1.074835	0.330854	-0.149500
O10	O	1.072520	0.111849	0.113522
C11	C	0.902782	0.222713	0.000027
C12	C	0.805098	0.182081	0.000023
C13	C	1.033029	0.510806	0.000035
C14	C	1.010044	0.635396	0.000029
C15	C	1.220495	0.380374	0.000036
C16	C	1.318179	0.421008	0.000030
C17	C	1.674424	0.017335	0.000016
C18	C	1.766210	0.055543	0.000021
C19	C	1.752208	0.270459	0.000027
C20	C	1.660418	0.232268	0.000029
C21	C	1.621534	0.105704	0.000022
C22	C	1.607528	0.320638	0.000034
C23	C	1.515747	0.282450	0.000029
C24	C	1.476856	0.155893	0.000018
C25	C	1.529753	0.067517	0.000017
C26	C	1.646415	0.447203	0.000031
C27	C	1.593525	0.535572	0.000037
C28	C	1.501741	0.497383	0.000041
C29	C	1.462850	0.370826	0.000030
C30	C	1.448844	0.585759	0.000043
C31	C	1.357063	0.547572	0.000037
C32	C	1.371069	0.332639	0.000025
C33	C	1.090247	0.092282	0.000027
C34	C	1.113233	-0.032307	0.000024
N35	N	1.030434	0.232228	0.353669
C36	C	1.073511	0.737157	0.000030
C37	C	1.049757	0.865929	0.000024
N38	N	1.092848	0.370871	-0.353604
C39	C	1.068563	0.316940	0.421451
C40	C	1.054713	0.286146	0.578617
H41	H	1.339406	0.229574	0.000038
F42	F	0.955743	0.876650	0.000008
H43	H	1.185170	0.959511	-0.000076
F44	F	1.149102	0.495351	0.570178
F45	F	0.916035	0.646124	0.000013
F46	F	1.488362	-0.067192	0.000033
F47	F	0.974356	0.107635	0.429896
H48	H	1.402122	0.124804	0.000009
F49	F	0.998632	0.161547	0.654839
F50	F	1.633033	-0.117374	0.000033
H51	H	1.809270	-0.016431	0.000033
F52	F	1.167522	0.726433	0.000025
H53	H	1.721152	0.478296	0.000010
F54	F	1.793601	0.405154	0.000034
F55	F	1.124446	0.441667	0.345225
H56	H	1.625197	0.638621	0.000038
H57	H	1.480519	0.688810	0.000035
H58	H	1.313999	0.619532	0.000040
