data_functionalizedCrystal
_audit_creation_method	'MofGen! by Chris Wilmer'
_symmetry_space_group_name_H-M	'P1'
_symmetry_Int_Tables_number	1
_symmetry_cell_setting	triclinic
loop_
_symmetry_equiv_pos_as_xyz
  x,y,z
_cell_length_a	9.065215
_cell_length_b	12.837942
_cell_length_c	8.140239
_cell_angle_alpha	90.003061
_cell_angle_beta	89.998019
_cell_angle_gamma	90.078148
loop_
_atom_site_label
_atom_site_type_symbol
_atom_site_fract_x
_atom_site_fract_y
_atom_site_fract_z
O1	O	-1.978903	0.152183	0.136586
O2	O	-1.551136	0.164669	0.136595
O3	O	-1.755535	0.007434	0.136580
O4	O	-1.774505	0.309418	0.136600
O5	O	-1.755522	0.007432	-0.136647
O6	O	-1.551124	0.164668	-0.136632
O7	O	-1.978891	0.152181	-0.136642
Zn8	Zn	-1.765005	0.158424	-0.180018
Zn9	Zn	-1.765022	0.158426	0.179971
O10	O	-1.774492	0.309416	-0.136627
C11	C	-1.495998	0.163469	-0.000018
C12	C	-1.331718	0.159883	-0.000015
C13	C	-1.749120	-0.031247	-0.000032
C14	C	-1.730007	-0.146504	-0.000029
C15	C	-1.959783	-0.385306	0.000000
C16	C	-1.941831	-0.493601	0.000003
C17	C	-1.676153	-0.471389	-0.000008
C18	C	-1.694104	-0.363094	-0.000011
C19	C	-1.835924	-0.320058	-0.000010
C20	C	-1.853875	-0.211761	-0.000024
C21	C	-1.588197	-0.189551	-0.000024
C22	C	-1.570245	-0.297846	-0.000021
C23	C	-1.034030	0.153381	-0.000024
C24	C	-1.198309	0.156967	-0.000014
C25	C	-1.780907	0.348098	-0.000011
C26	C	-1.800021	0.463354	-0.000003
N27	N	-1.765004	0.158422	-0.425700
N28	N	-1.765033	0.158420	0.425653
H29	H	-1.969351	-0.176723	-0.000029
N30	N	-2.075415	-0.563984	0.000007
H31	H	-2.136616	-0.549989	0.101292
H32	H	-2.136499	-0.549965	-0.101345
N33	N	-2.112735	-0.338879	-0.000024
H34	H	-2.188478	-0.396648	-0.000026
H35	H	-2.125979	-0.294425	0.101262
N36	N	-1.523201	-0.517816	0.000008
H37	H	-1.530630	-0.596321	0.000018
H38	H	-1.468326	-0.494050	-0.101285
H39	H	-1.454779	-0.332901	-0.000016
H40	H	-1.487342	-0.136413	-0.000045
