data_functionalizedCrystal
_audit_creation_method	'MofGen! by Chris Wilmer'
_symmetry_space_group_name_H-M	'P1'
_symmetry_Int_Tables_number	1
_symmetry_cell_setting	triclinic
loop_
_symmetry_equiv_pos_as_xyz
  x,y,z
_cell_length_a	14.519731
_cell_length_b	14.519709
_cell_length_c	13.330367
_cell_angle_alpha	90.003343
_cell_angle_beta	90.007784
_cell_angle_gamma	83.684499
loop_
_atom_site_label
_atom_site_type_symbol
_atom_site_fract_x
_atom_site_fract_y
_atom_site_fract_z
O1	O	1.223860	0.120981	0.083428
O2	O	0.955386	0.135197	0.083430
O3	O	1.096741	-0.006149	0.083420
O4	O	1.082505	0.262327	0.083438
O5	O	1.096720	-0.006146	-0.083427
O6	O	0.955364	0.135200	-0.083417
O7	O	1.223838	0.120984	-0.083419
Cu8	Cu	1.089599	0.128092	-0.098653
Cu9	Cu	1.089625	0.128089	0.098663
O10	O	1.082483	0.262330	-0.083409
C11	C	0.921016	0.134532	0.000006
C12	C	0.818635	0.132536	0.000007
C13	C	1.096067	-0.040507	-0.000004
C14	C	1.094079	-0.142889	-0.000005
C15	C	0.735491	0.130915	0.000011
C16	C	0.631182	0.128888	0.000011
C17	C	0.548043	0.127280	0.000011
C18	C	0.443728	0.125253	0.000013
C19	C	1.086759	-0.517785	0.000022
C20	C	1.088792	-0.413477	0.000014
C21	C	1.090419	-0.330340	0.000008
C22	C	1.092452	-0.226025	0.000002
C23	C	1.258209	0.121649	0.000006
C24	C	1.360589	0.123645	0.000013
C25	C	1.083157	0.296688	0.000017
C26	C	1.085146	0.399070	0.000024
N27	N	1.089588	0.128094	-0.237434
C28	C	1.033570	0.072031	-0.289963
C29	C	1.145618	0.184153	-0.289934
C30	C	1.145629	0.184152	-0.394952
C31	C	1.089610	0.128089	-0.447481
C32	C	1.033581	0.072027	-0.394991
C33	C	1.201664	0.240207	-0.447450
C34	C	1.201678	0.240208	-0.552474
C35	C	1.145654	0.184149	-0.605005
C36	C	1.089621	0.128085	-0.552509
C37	C	1.033603	0.072022	-0.605038
C38	C	0.977565	0.015962	-0.552543
C39	C	0.977557	0.015968	-0.447522
C40	C	1.145662	0.184143	-0.710027
C41	C	1.033614	0.072017	-0.710066
N42	N	1.089643	0.128080	0.237445
H43	H	0.931959	-0.029689	-0.595326
O44	O	1.256023	0.294791	-0.396532
C45	C	1.230621	0.388346	-0.422177
H46	H	1.194879	0.392227	-0.498445
H47	H	1.181192	0.422203	-0.363087
C48	C	1.361823	0.434796	-0.333313
C49	C	1.317931	0.439563	-0.426991
H50	H	1.415678	0.466391	-0.336278
H51	H	1.378935	0.371767	-0.316032
H52	H	1.320623	0.463009	-0.284081
H53	H	1.359126	0.411340	-0.476219
H54	H	1.300827	0.502589	-0.444281
O55	O	0.979191	0.017444	-0.239088
C56	C	1.004606	-0.076111	-0.264727
H57	H	1.040380	-0.079993	-0.340967
H58	H	1.054010	-0.109965	-0.205602
C59	C	0.873368	-0.122562	-0.175974
C60	C	0.917300	-0.127330	-0.269617
H61	H	0.819515	-0.154159	-0.178986
H62	H	0.856247	-0.059532	-0.158697
H63	H	0.914548	-0.150772	-0.126713
H64	H	0.876124	-0.099110	-0.318874
H65	H	0.934412	-0.190357	-0.286903
O66	O	1.199978	0.238739	-0.239020
C67	C	1.174567	0.332294	-0.264660
H68	H	1.138816	0.336174	-0.340923
H69	H	1.125143	0.366146	-0.205562
C70	C	1.305775	0.378751	-0.175814
C71	C	1.261872	0.383517	-0.269485
H72	H	1.359627	0.410350	-0.178786
H73	H	1.322894	0.315722	-0.158536
H74	H	1.264579	0.406960	-0.126575
H75	H	1.303063	0.355298	-0.318719
H76	H	1.244762	0.446543	-0.286772
O77	O	0.923047	-0.038515	-0.396685
C78	C	0.873620	-0.088017	-0.465564
H79	H	0.868302	-0.049853	-0.540428
H80	H	0.911494	-0.160321	-0.476729
C81	C	0.782185	-0.142845	-0.332644
C82	C	0.775646	-0.095968	-0.424591
H83	H	0.721751	-0.147754	-0.307369
H84	H	0.815486	-0.109498	-0.286238
H85	H	0.813750	-0.203093	-0.341961
H86	H	0.744091	-0.035717	-0.415271
H87	H	0.742337	-0.129305	-0.470995
O88	O	0.979302	0.017419	-0.761044
C89	C	1.004674	-0.076130	-0.735354
H90	H	1.079023	-0.084881	-0.706461
H91	H	0.956285	-0.097638	-0.674407
C92	C	0.906008	-0.126696	-0.864137
C93	C	0.997327	-0.137445	-0.828658
H94	H	0.901472	-0.164520	-0.921689
H95	H	0.888911	-0.063671	-0.881443
H96	H	0.865693	-0.144619	-0.813339
H97	H	1.037637	-0.119512	-0.879450
H98	H	1.014430	-0.200470	-0.811362
H99	H	1.247306	0.285856	-0.595206
H100	H	1.191290	0.229782	-0.752763
