data_functionalizedCrystal
_audit_creation_method	'MofGen! by Chris Wilmer'
_symmetry_space_group_name_H-M	'P1'
_symmetry_Int_Tables_number	1
_symmetry_cell_setting	triclinic
loop_
_symmetry_equiv_pos_as_xyz
  x,y,z
_cell_length_a	21.295417
_cell_length_b	11.169417
_cell_length_c	11.169409
_cell_angle_alpha	89.978351
_cell_angle_beta	90.041399
_cell_angle_gamma	89.971271
loop_
_atom_site_label
_atom_site_type_symbol
_atom_site_fract_x
_atom_site_fract_y
_atom_site_fract_z
Zn1	Zn	-0.250588	-1.834794	0.678525
Zn2	Zn	0.249412	-1.334794	1.178525
Zn3	Zn	-0.355876	-1.834613	0.477811
Zn4	Zn	0.144124	-1.334613	0.977811
Zn5	Zn	-0.250622	-1.634080	0.477853
Zn6	Zn	0.249378	-1.134080	0.977853
Zn7	Zn	-0.355820	-1.634017	0.678449
Zn8	Zn	0.144180	-1.134017	1.178449
O9	O	-0.303227	-1.734376	0.578160
O10	O	0.196773	-1.234376	1.078160
O11	O	-0.264564	-2.002720	0.651914
O12	O	0.235436	-1.502720	1.151914
O13	O	-0.341951	-1.807962	0.309866
O14	O	0.158049	-1.307962	0.809866
O15	O	-0.162528	-1.660807	0.504523
O16	O	0.337472	-1.160807	1.004523
O17	O	-0.341919	-2.002587	0.504450
O18	O	0.158081	-1.502587	1.004450
O19	O	-0.162503	-1.808271	0.651956
O20	O	0.337497	-1.308271	1.151956
O21	O	-0.264621	-1.660632	0.309898
O22	O	0.235379	-1.160632	0.809898
O23	O	-0.264567	-1.466122	0.504449
O24	O	0.235433	-0.966122	1.004449
O25	O	-0.341823	-1.660700	0.846409
O26	O	0.158177	-1.160700	1.346409
O27	O	-0.341856	-1.466076	0.651826
O28	O	0.158144	-0.966076	1.151826
O29	O	-0.264510	-1.808210	0.846465
O30	O	0.235490	-1.308210	1.346465
O31	O	-0.443958	-1.807901	0.504376
O32	O	0.056042	-1.307901	1.004376
O33	O	-0.443917	-1.660524	0.651784
O34	O	0.056083	-1.160524	1.151784
C35	C	-0.303209	-1.422551	0.578134
C36	C	0.196791	-0.922551	1.078134
C37	C	-0.303217	-1.289151	0.578152
C38	C	0.196783	-0.789151	1.078152
C39	C	-0.466778	-1.734219	0.578093
C40	C	0.033222	-1.234219	1.078093
C41	C	-0.536746	-1.734261	0.578105
C42	C	-0.036746	-1.234261	1.078105
C43	C	-0.569613	-1.811069	0.501428
C44	C	-0.069613	-1.311069	1.001428
C45	C	-0.635356	-1.811125	0.501455
C46	C	-0.135356	-1.311125	1.001455
C47	C	-0.668229	-1.734352	0.578146
C48	C	-0.168229	-1.234352	1.078146
C49	C	-0.635354	-1.657539	0.654838
C50	C	-0.135354	-1.157539	1.154838
C51	C	-0.569612	-1.657494	0.654817
C52	C	-0.069612	-1.157494	1.154817
N53	N	-0.771492	-1.629362	0.587287
N54	N	-0.271492	-1.129362	1.087287
N55	N	-0.833943	-1.629409	0.587300
N56	N	-0.333943	-1.129409	1.087300
C57	C	-0.866303	-1.734487	0.578215
C58	C	-0.366303	-1.234487	1.078215
N59	N	-0.833853	-1.839518	0.569094
N60	N	-0.333853	-1.339518	1.069094
N61	N	-0.771396	-1.839470	0.569075
N62	N	-0.271396	-1.339470	1.069075
C63	C	-0.739514	-1.734394	0.578178
C64	C	-0.239514	-1.234394	1.078178
C65	C	-0.970456	-1.811362	0.501563
C66	C	-0.470456	-1.311362	1.001563
C67	C	-1.036200	-1.811420	0.501599
C68	C	-0.536200	-1.311420	1.001599
C69	C	-1.036196	-1.657824	0.654976
C70	C	-0.536196	-1.157824	1.154976
C71	C	-0.970454	-1.657776	0.654946
C72	C	-0.470454	-1.157776	1.154946
C73	C	-0.937588	-1.734543	0.578234
C74	C	-0.437588	-1.234543	1.078234
C75	C	-0.139036	-1.734567	0.578253
C76	C	0.360964	-1.234567	1.078253
C77	C	-0.069068	-1.734648	0.578292
C78	C	0.430932	-1.234648	1.078292
C79	C	-0.303157	-1.734468	0.891202
C80	C	0.196843	-1.234468	1.391202
C81	C	-0.303127	-1.734507	1.024602
C82	C	0.196873	-1.234507	1.524602
C83	C	-0.303238	-1.047418	0.578178
C84	C	0.196762	-0.547418	1.078178
C85	C	-0.303227	-1.180818	0.578165
C86	C	0.196773	-0.680818	1.078165
C87	C	-0.303251	-1.734353	0.266335
C88	C	0.196749	-1.234353	0.766335
C89	C	-0.303103	-1.734547	0.132936
C90	C	0.196897	-1.234547	0.632936
H91	H	-0.542856	-1.873580	0.438967
H92	H	-0.042856	-1.373580	0.938967
H93	H	-0.662122	-1.873675	0.439016
H94	H	-0.162122	-1.373675	0.939016
C95	C	-1.072354	-1.895918	0.417243
C96	C	-0.572354	-1.395918	0.917243
N97	N	-1.099585	-1.959561	0.353701
N98	N	-0.599585	-1.459561	0.853701
H99	H	-0.662123	-1.595033	0.717283
H100	H	-0.162123	-1.095033	1.217283
C101	C	-0.934298	-1.573305	0.739323
C102	C	-0.434298	-1.073305	1.239323
N103	N	-0.907066	-1.509691	0.802893
N104	N	-0.407066	-1.009691	1.302893
C105	C	-0.533457	-1.573011	0.739187
C106	C	-0.033457	-1.073011	1.239187
N107	N	-0.506224	-1.509382	0.802740
N108	N	-0.006224	-1.009382	1.302740
C109	C	-1.072352	-1.573375	0.739340
C110	C	-0.572352	-1.073375	1.239340
N111	N	-1.099589	-1.509767	0.802887
N112	N	-0.599589	-1.009767	1.302887
C113	C	-0.934301	-1.895824	0.417197
C114	C	-0.434301	-1.395824	0.917197
N115	N	-0.907071	-1.959446	0.353655
N116	N	-0.407071	-1.459446	0.853655
