data_functionalizedCrystal
_audit_creation_method	'MofGen! by Chris Wilmer'
_symmetry_space_group_name_H-M	'P1'
_symmetry_Int_Tables_number	1
_symmetry_cell_setting	triclinic
loop_
_symmetry_equiv_pos_as_xyz
  x,y,z
_cell_length_a	11.792241
_cell_length_b	14.853568
_cell_length_c	13.330367
_cell_angle_alpha	89.997774
_cell_angle_beta	90.001786
_cell_angle_gamma	96.085698
loop_
_atom_site_label
_atom_site_type_symbol
_atom_site_fract_x
_atom_site_fract_y
_atom_site_fract_z
O1	O	0.148180	-1.196942	0.083359
O2	O	0.165831	-0.934552	0.083375
O3	O	-0.008204	-1.072115	0.083359
O4	O	0.322216	-1.059380	0.083374
O5	O	-0.008199	-1.072100	-0.083488
O6	O	0.165837	-0.934537	-0.083472
O7	O	0.148185	-1.196928	-0.083489
Cu8	Cu	0.157011	-1.065732	-0.098715
Cu9	Cu	0.157005	-1.065748	0.098601
O10	O	0.322221	-1.059365	-0.083473
C11	C	0.165034	-0.900953	-0.000047
C12	C	0.162637	-0.800860	-0.000040
C13	C	-0.050487	-1.071308	-0.000064
C14	C	-0.176486	-1.068913	-0.000063
C15	C	0.049123	-0.387884	-0.000069
C16	C	0.255882	-0.367408	-0.000059
C17	C	0.258135	-0.461451	-0.000056
C18	C	0.155882	-0.518714	-0.000057
C19	C	0.051374	-0.481936	-0.000063
C20	C	0.362641	-0.498237	-0.000040
C21	C	0.364899	-0.592284	-0.000035
C22	C	0.262644	-0.649550	-0.000044
C23	C	0.158132	-0.612766	-0.000051
C24	C	0.055878	-0.670030	-0.000053
C25	C	-0.048635	-0.633247	-0.000066
C26	C	-0.050881	-0.539201	-0.000072
C27	C	0.264891	-0.743596	-0.000039
C28	C	0.058129	-0.764081	-0.000046
C29	C	-0.407171	-1.064510	-0.000046
C30	C	-0.278801	-1.066957	-0.000055
C31	C	0.364504	-1.060172	-0.000048
C32	C	0.490503	-1.062567	-0.000042
N33	N	0.157015	-1.065726	-0.237496
C34	C	0.148982	-0.230527	-0.000066
C35	C	0.151377	-0.330620	-0.000068
C36	C	0.234054	-1.004805	-0.290015
C37	C	0.079971	-1.126653	-0.290006
C38	C	0.079967	-1.126662	-0.395024
C39	C	0.157006	-1.065741	-0.447543
C40	C	0.234050	-1.004810	-0.395043
C41	C	0.002917	-1.187585	-0.447532
C42	C	0.002908	-1.187596	-0.552557
C43	C	0.079954	-1.126679	-0.605077
C44	C	0.157002	-1.065746	-0.552571
C45	C	0.234041	-1.004825	-0.605089
C46	C	0.311095	-0.943896	-0.552585
C47	C	0.311096	-0.943892	-0.447563
C48	C	0.079953	-1.126682	-0.710099
C49	C	0.234037	-1.004830	-0.710117
N50	N	0.156993	-1.065761	0.237383
H51	H	-0.131889	-0.679884	-0.000061
H52	H	0.349984	-0.773540	-0.000029
H53	H	0.296776	-0.955224	-0.752871
H54	H	0.445891	-0.451606	-0.000028
C55	C	-0.059294	-0.881721	0.085728
C56	C	-0.054272	-0.827025	-0.000047
H57	H	-0.128683	-0.920583	0.085722
H58	H	-0.055884	-0.844603	0.143895
H59	H	0.003271	-0.917084	0.085727
H60	H	-0.116834	-0.791658	-0.000042
H61	H	-0.057693	-0.864148	-0.058229
H62	H	0.373816	-0.894289	-0.595357
C63	C	0.430427	-0.952831	-0.257694
C64	C	0.318750	-0.937835	-0.232306
H65	H	0.482713	-0.911489	-0.222060
H66	H	0.441437	-0.944111	-0.327749
H67	H	0.442873	-1.013060	-0.240473
H68	H	0.306301	-0.877608	-0.249534
H69	H	0.307735	-0.946548	-0.162235
C70	C	0.569050	-0.562587	-0.000036
C71	C	0.479776	-0.632711	-0.000034
H72	H	0.639969	-0.587548	-0.000044
H73	H	0.563874	-0.526338	0.058145
H74	H	0.563860	-0.526327	-0.058222
H75	H	0.484962	-0.668968	0.058157
H76	H	0.484955	-0.668976	-0.058221
C77	C	-0.021445	-1.310172	-0.670646
C78	C	-0.081777	-1.254571	-0.610270
H79	H	-0.073726	-1.351517	-0.706280
H80	H	0.025861	-1.342825	-0.629667
H81	H	0.024433	-1.273882	-0.716949
H82	H	-0.127649	-1.290862	-0.563962
H83	H	-0.129103	-1.221916	-0.651252
H84	H	0.017212	-1.176285	-0.752843
C85	C	0.344229	-0.214152	-0.000067
C86	C	0.368275	-0.304466	-0.000060
H87	H	0.413621	-0.175293	-0.000076
H88	H	0.301395	-0.202952	0.058112
H89	H	0.301379	-0.202957	-0.058255
H90	H	0.411118	-0.315663	0.058131
H91	H	0.411127	-0.315671	-0.058246
C92	C	-0.116371	-1.178677	-0.257538
C93	C	-0.004652	-1.193613	-0.232221
H94	H	-0.168596	-1.220015	-0.221838
H95	H	-0.127452	-1.187441	-0.327579
H96	H	-0.128836	-1.118446	-0.240349
H97	H	0.007816	-1.253843	-0.249416
H98	H	0.006434	-1.184857	-0.162164
H99	H	0.373829	-0.894286	-0.404807
C100	C	-0.193397	-1.239669	-0.414880
C101	C	-0.081627	-1.254546	-0.389667
H102	H	-0.245549	-1.281008	-0.379106
H103	H	-0.204567	-1.248475	-0.484905
H104	H	-0.205879	-1.179438	-0.397710
H105	H	-0.069143	-1.314776	-0.406843
H106	H	-0.070453	-1.245748	-0.319626
C107	C	-0.227811	-0.527693	-0.085847
C108	C	-0.165755	-0.498769	-0.000076
H109	H	-0.298725	-0.502724	-0.085846
H110	H	-0.241105	-0.591890	-0.085840
H111	H	-0.185693	-0.508064	-0.144023
H112	H	-0.207869	-0.518404	0.058101
H113	H	-0.152465	-0.434558	-0.000073
C114	C	-0.046146	-0.252818	-0.000087
C115	C	-0.065755	-0.347458	-0.000080
H116	H	-0.117069	-0.227863	-0.000087
H117	H	-0.004046	-0.233206	-0.058267
H118	H	-0.004040	-0.233202	0.058100
H119	H	-0.107854	-0.367074	-0.058271
H120	H	-0.107872	-0.367078	0.058106
