data_functionalizedCrystal
_audit_creation_method	'MofGen! by Chris Wilmer'
_symmetry_space_group_name_H-M	'P1'
_symmetry_Int_Tables_number	1
_symmetry_cell_setting	triclinic
loop_
_symmetry_equiv_pos_as_xyz
  x,y,z
_cell_length_a	17.699077
_cell_length_b	17.699092
_cell_length_c	16.776229
_cell_angle_alpha	89.995030
_cell_angle_beta	89.993415
_cell_angle_gamma	83.283472
loop_
_atom_site_label
_atom_site_type_symbol
_atom_site_fract_x
_atom_site_fract_y
_atom_site_fract_z
O1	O	1.004084	0.095691	-0.066275
O2	O	0.783706	0.108148	-0.066278
O3	O	0.900118	-0.008269	-0.066274
O4	O	0.887672	0.212109	-0.066278
O5	O	0.900102	-0.008276	0.066302
O6	O	0.783690	0.108141	0.066298
O7	O	1.004069	0.095684	0.066302
Zn8	Zn	0.893877	0.101911	0.087349
Zn9	Zn	0.893897	0.101921	-0.087326
O10	O	0.887656	0.212101	0.066298
C11	C	0.755501	0.107699	0.000010
C12	C	0.671482	0.106362	0.000008
C13	C	0.632007	0.105729	0.072276
C14	C	0.553064	0.104460	0.072277
C15	C	0.513598	0.103831	0.000009
C16	C	0.553080	0.104463	-0.072265
C17	C	0.632021	0.105726	-0.072265
C18	C	0.234716	0.099370	-0.072266
C19	C	0.155768	0.098109	-0.072261
C20	C	0.155759	0.098104	0.072276
C21	C	0.234701	0.099367	0.072276
C22	C	0.274176	0.099994	0.000003
C23	C	0.359774	0.101368	0.000002
C24	C	0.428000	0.102463	0.000008
C25	C	0.899663	-0.036470	0.000013
C26	C	0.898322	-0.120487	0.000009
C27	C	0.897702	-0.159951	-0.072260
C28	C	0.896437	-0.238894	-0.072260
C29	C	0.895798	-0.278373	0.000008
C30	C	0.896415	-0.238903	0.072282
C31	C	0.897675	-0.159961	0.072282
C32	C	0.891335	-0.557268	0.072283
C33	C	0.890078	-0.636216	0.072277
C34	C	0.890097	-0.636201	-0.072260
C35	C	0.891357	-0.557259	-0.072259
C36	C	0.891970	-0.517796	0.000014
C37	C	0.893341	-0.432197	0.000014
C38	C	0.894433	-0.363971	0.000008
C39	C	1.032274	0.096133	0.000012
C40	C	1.116292	0.097470	0.000009
C41	C	0.888111	0.240302	0.000009
C42	C	0.889452	0.324320	0.000008
N43	N	0.893869	0.101905	0.206561
N44	N	0.893912	0.101922	-0.206537
C45	C	0.945432	0.050376	0.248279
C46	C	0.945436	0.050375	0.331732
C47	C	0.893880	0.101907	0.373464
C48	C	0.842312	0.153438	0.331739
C49	C	0.842304	0.153435	0.248288
C50	C	0.842339	0.153453	0.668286
C51	C	0.842352	0.153454	0.751743
C52	C	0.945470	0.050394	0.751729
C53	C	0.945463	0.050390	0.668279
C54	C	0.893892	0.101918	0.626562
C55	C	0.893888	0.101917	0.536073
C56	C	0.893888	0.101913	0.463950
H57	H	0.123637	0.097596	-0.131114
H58	H	0.987460	0.008434	0.785705
H59	H	0.889594	-0.668341	-0.131108
H60	H	0.987422	0.008416	0.365699
O61	O	0.995573	0.000258	0.627865
C62	C	1.097883	-0.101942	0.636661
C63	C	1.041166	-0.045217	0.682527
H64	H	1.134770	-0.138712	0.680836
H65	H	1.065312	-0.139764	0.597628
H66	H	1.135592	-0.069300	0.597556
H67	H	1.003442	-0.077797	0.721676
H68	H	1.073784	-0.007396	0.721511
O69	O	0.889419	-0.674445	0.142554
C70	C	0.889565	-0.666139	0.285921
C71	C	0.890294	-0.622748	0.206397
H72	H	0.890288	-0.624363	0.337558
H73	H	0.836017	-0.696053	0.289579
H74	H	0.941910	-0.710139	0.289494
H75	H	0.837985	-0.578711	0.202770
H76	H	0.943876	-0.592886	0.202772
O77	O	0.792189	0.203540	0.792159
C78	C	0.689924	0.305785	0.783371
C79	C	0.746675	0.249098	0.737500
H80	H	0.653121	0.342645	0.739199
H81	H	0.652136	0.273189	0.822433
H82	H	0.722544	0.343525	0.822448
H83	H	0.714117	0.211344	0.698379
H84	H	0.784462	0.281741	0.698488
H85	H	0.800350	0.195410	0.634327
H86	H	0.266848	0.099878	-0.131116
H87	H	0.800330	0.195394	0.365722
H88	H	0.123609	0.097590	0.131125
H89	H	0.520941	0.103946	-0.131107
H90	H	0.891850	-0.525149	0.131132
H91	H	0.266829	0.099883	0.131124
O92	O	0.895829	-0.277372	0.142413
C93	C	0.893847	-0.398986	0.206473
C94	C	0.894522	-0.355519	0.126991
H95	H	0.892774	-0.462173	0.194033
H96	H	0.947050	-0.390546	0.242121
H97	H	0.841157	-0.376403	0.242113
H98	H	0.947176	-0.378074	0.091287
H99	H	0.841284	-0.363958	0.091404
H100	H	0.800316	0.195394	0.214322
H101	H	0.898169	-0.127829	0.131130
H102	H	0.664161	0.106243	-0.131113
O103	O	0.898288	-0.121717	-0.142534
C104	C	0.898216	-0.130049	-0.285899
C105	C	0.897536	-0.173437	-0.206370
H106	H	0.897624	-0.171848	-0.337532
H107	H	0.845847	-0.086085	-0.289569
H108	H	0.951741	-0.100092	-0.289470
H109	H	0.844046	-0.203440	-0.202746
H110	H	0.949941	-0.217358	-0.202734
H111	H	0.664133	0.106247	0.131126
H112	H	0.520928	0.103932	0.131125
O113	O	0.891833	-0.518830	-0.142423
C114	C	0.827588	-0.421087	-0.226322
C115	C	0.826997	-0.464525	-0.146815
H116	H	0.775166	-0.377184	-0.229906
H117	H	0.881069	-0.391071	-0.230011
H118	H	0.826942	-0.462896	-0.277939
H119	H	0.827615	-0.422767	-0.095152
H120	H	0.773520	-0.494553	-0.143196
H121	H	0.987417	0.008416	0.214307
H122	H	0.895936	-0.271022	-0.131109
