data_functionalizedCrystal
_audit_creation_method	'MofGen! by Chris Wilmer'
_symmetry_space_group_name_H-M	'P1'
_symmetry_Int_Tables_number	1
_symmetry_cell_setting	triclinic
loop_
_symmetry_equiv_pos_as_xyz
  x,y,z
_cell_length_a	14.044220
_cell_length_b	23.532357
_cell_length_c	12.503572
_cell_angle_alpha	93.494896
_cell_angle_beta	86.164750
_cell_angle_gamma	88.008585
loop_
_atom_site_label
_atom_site_type_symbol
_atom_site_fract_x
_atom_site_fract_y
_atom_site_fract_z
O1	O	1.261863	0.134223	-0.089231
O2	O	1.761863	0.634223	0.410769
O3	O	0.985944	0.129270	-0.089257
O4	O	1.485944	0.629270	0.410743
O5	O	1.132247	0.049266	-0.089221
O6	O	1.632247	0.549266	0.410779
O7	O	1.115560	0.214227	-0.089267
O8	O	1.615560	0.714227	0.410733
O9	O	1.121244	0.055293	0.089418
O10	O	1.621244	0.555293	0.589418
O11	O	0.974941	0.135297	0.089382
O12	O	1.474941	0.635297	0.589382
O13	O	1.250860	0.140250	0.089409
O14	O	1.750860	0.640250	0.589409
Cu15	Cu	1.111896	0.138324	0.105707
Cu16	Cu	1.611896	0.638324	0.605707
Cu17	Cu	1.124908	0.131196	-0.105555
Cu18	Cu	1.624908	0.631196	0.394445
O19	O	1.104557	0.220254	0.089373
O20	O	1.604557	0.720254	0.589373
C21	C	0.945149	0.130116	0.000060
C22	C	1.445149	0.630116	0.500060
C23	C	0.839987	0.123649	0.000051
C24	C	1.339987	0.623649	0.500051
C25	C	0.647439	0.111829	0.000075
C26	C	1.147439	0.611829	0.500075
C27	C	0.589361	0.157688	0.000067
C28	C	1.089361	0.657688	0.500067
C29	C	0.482220	0.151111	0.000081
C30	C	0.982220	0.651111	0.500081
C31	C	0.754589	0.118405	0.000062
C32	C	1.254589	0.618405	0.500062
C33	C	1.126328	0.031040	0.000102
C34	C	1.626328	0.531040	0.500102
C35	C	1.125072	-0.032246	0.000112
C36	C	1.625072	0.467754	0.500112
C37	C	1.123194	-0.427972	-0.097323
C38	C	1.623194	0.072028	0.402677
C39	C	1.122001	-0.487436	-0.097329
C40	C	1.622001	0.012564	0.402671
O41	O	1.126453	-0.520982	-0.180144
O42	O	1.626453	-0.020982	0.319856
N43	N	1.115412	-0.513894	0.000046
N44	N	1.615412	-0.013894	0.500046
C45	C	1.110005	-0.480884	0.097433
C46	C	1.610005	0.019116	0.597433
O47	O	1.104290	-0.508848	0.180257
O48	O	1.604290	-0.008848	0.680257
C49	C	1.111191	-0.421420	0.097438
C50	C	1.611191	0.078580	0.597438
C51	C	1.117791	-0.394966	0.000057
C52	C	1.617791	0.105034	0.500057
C53	C	1.129792	-0.401518	-0.194696
C54	C	1.629792	0.098482	0.305304
C55	C	1.130986	-0.342057	-0.194690
C56	C	1.630986	0.157943	0.305310
C57	C	1.125583	-0.309052	-0.097310
C58	C	1.625583	0.190948	0.402690
C59	C	1.118985	-0.335506	0.000064
C60	C	1.618985	0.164494	0.500064
C61	C	1.105778	-0.388411	0.194825
C62	C	1.605778	0.111589	0.694825
C63	C	1.106964	-0.328944	0.194821
C64	C	1.606964	0.171056	0.694821
C65	C	1.113563	-0.302490	0.097440
C66	C	1.613563	0.197510	0.597440
C67	C	1.114776	-0.243040	0.097450
C68	C	1.614776	0.256960	0.597450
N69	N	1.121366	-0.216582	0.000075
N70	N	1.621366	0.283418	0.500075
C71	C	1.126769	-0.249588	-0.097305
C72	C	1.626769	0.250412	0.402695
C73	C	1.107513	-0.605761	0.097415
C74	C	1.607513	-0.105761	0.597415
C75	C	1.106334	-0.665223	0.097411
C76	C	1.606334	-0.165223	0.597411
C77	C	1.118328	-0.671772	-0.097352
C78	C	1.618328	-0.171772	0.402648
C79	C	1.119514	-0.612309	-0.097347
C80	C	1.619514	-0.112309	0.402653
C81	C	1.114103	-0.579303	0.000040
C82	C	1.614103	-0.079303	0.500040
C83	C	1.129278	-0.124717	-0.097283
C84	C	1.629278	0.375283	0.402717
C85	C	1.130476	-0.065252	-0.097268
C86	C	1.630476	0.434748	0.402732
C87	C	1.118476	-0.058708	0.097494
C88	C	1.618476	0.441292	0.597494
C89	C	1.117283	-0.118169	0.097479
C90	C	1.617283	0.381831	0.597479
C91	C	1.122681	-0.151172	0.000082
C92	C	1.622681	0.348828	0.500082
O93	O	1.110324	-0.209458	0.180223
O94	O	1.610324	0.290542	0.680223
O95	O	1.132471	-0.221616	-0.180115
O96	O	1.632471	0.278384	0.319885
C97	C	1.291655	0.139404	0.000090
C98	C	1.791655	0.639404	0.500090
C99	C	1.396818	0.145870	0.000092
C100	C	1.896818	0.645870	0.500092
C101	C	1.110476	0.238480	0.000047
C102	C	1.610476	0.738480	0.500047
C103	C	1.111732	0.301766	0.000030
C104	C	1.611732	0.801766	0.500030
N105	N	1.102751	0.143338	0.254297
N106	N	1.602751	0.643338	0.754297
N107	N	1.134061	0.126178	-0.254145
N108	N	1.634061	0.626178	0.245855
C109	C	1.089298	0.150718	0.473409
C110	C	1.589298	0.650718	0.973409
C111	C	1.147511	0.118799	0.526750
C112	C	1.647511	0.618799	1.026750
C113	C	1.140026	0.122906	0.648671
C114	C	1.640026	0.622906	1.148671
C115	C	1.096782	0.146612	0.351476
C116	C	1.596782	0.646612	0.851476
H117	H	0.620103	0.201889	0.000050
H118	H	1.120103	0.701889	0.500050
F119	F	1.112728	-0.023571	0.201127
F120	F	1.612728	0.476429	0.701127
F121	F	1.220284	0.079236	0.466761
F122	F	1.720284	0.579236	0.966761
F123	F	1.101761	-0.570639	0.201074
F124	F	1.601761	-0.070639	0.701074
H125	H	0.616698	0.067632	0.000093
H126	H	1.116698	0.567632	0.500093
H127	H	1.100406	-0.409939	0.274123
H128	H	1.600406	0.090061	0.774123
F129	F	1.016813	0.190466	0.533396
F130	F	1.516813	0.690466	1.033396
H131	H	1.135852	-0.043716	-0.176571
H132	H	1.635852	0.456284	0.323429
H133	H	1.133669	-0.151582	-0.176593
H134	H	1.633669	0.348418	0.323407
F135	F	1.126536	-0.584160	-0.200992
F136	F	1.626536	-0.084160	0.299008
F137	F	1.138004	-0.313910	-0.298337
F138	F	1.638004	0.186090	0.201663
H139	H	1.134189	-0.428385	-0.273999
H140	H	1.634189	0.071615	0.226001
F141	F	1.124073	-0.706910	-0.200993
F142	F	1.624073	-0.206910	0.299007
H143	H	1.100975	-0.686757	0.176709
H144	H	1.600975	-0.186757	0.676709
H145	H	1.102543	-0.302073	0.274127
H146	H	1.602543	0.197927	0.774127
F147	F	1.110277	-0.146325	0.201123
F148	F	1.610277	0.353675	0.701123
