data_functionalizedCrystal
_audit_creation_method	'MofGen! by Chris Wilmer'
_symmetry_space_group_name_H-M	'P1'
_symmetry_Int_Tables_number	1
_symmetry_cell_setting	triclinic
loop_
_symmetry_equiv_pos_as_xyz
  x,y,z
_cell_length_a	6.817900
_cell_length_b	12.908942
_cell_length_c	12.908943
_cell_angle_alpha	95.895910
_cell_angle_beta	100.860631
_cell_angle_gamma	100.860556
loop_
_atom_site_label
_atom_site_type_symbol
_atom_site_fract_x
_atom_site_fract_y
_atom_site_fract_z
V1	V	-3.982913	-0.144539	-0.328101
O2	O	-3.985073	0.008300	-0.322459
O3	O	-3.921446	-0.287899	-0.325276
O4	O	-3.921449	-0.141721	-0.471462
O5	O	-3.985070	-0.138889	-0.175261
V6	V	-4.469927	-0.126328	-0.309890
O7	O	-4.236514	-0.184486	-0.368047
O8	O	-4.666524	-0.086380	-0.269945
O9	O	-4.308188	0.017032	-0.312715
O10	O	-4.585164	-0.279166	-0.315533
O11	O	-4.585167	-0.131977	-0.462730
O12	O	-4.308185	-0.129145	-0.166530
C13	C	-3.763691	-0.322865	-0.319951
C14	C	-3.794634	-0.440060	-0.318597
C15	C	-3.763694	-0.136400	-0.506423
C16	C	-3.794638	-0.135045	-0.623618
C17	C	-4.215088	-0.670981	-0.326552
C18	C	-4.244172	-0.781096	-0.325281
C19	C	-3.881889	-0.770408	-0.314790
C20	C	-3.852805	-0.660293	-0.316061
C21	C	-4.019413	-0.610583	-0.321941
C22	C	-3.990325	-0.500465	-0.323205
C23	C	-3.628047	-0.489780	-0.312722
C24	C	-3.657130	-0.599895	-0.311450
C25	C	-4.215081	-0.142961	-0.854532
C26	C	-4.244165	-0.141688	-0.964647
C27	C	-3.881889	-0.131220	-0.953963
C28	C	-3.852806	-0.132493	-0.843848
C29	C	-4.019410	-0.138365	-0.794137
C30	C	-3.990326	-0.139645	-0.684021
C31	C	-3.628051	-0.129169	-0.673338
C32	C	-3.657134	-0.127897	-0.783453
C33	C	-4.129285	0.051993	-0.318038
C34	C	-4.077579	0.169186	-0.319398
C35	C	-4.129282	-0.134470	-0.131562
C36	C	-4.077578	-0.135819	-0.014367
H37	H	-4.125984	-0.459992	-0.327985
H38	H	-3.468718	-0.125431	-0.624153
C39	C	-4.456638	-0.846760	-0.330493
C40	C	-4.512182	-0.924119	-0.421140
C41	C	-4.707908	-0.984620	-0.425983
H42	H	-4.456605	-0.880655	-0.268568
H43	H	-4.551778	-0.801426	-0.334234
H44	H	-4.417068	-0.969447	-0.417390
H45	H	-4.512261	-0.890254	-0.483080
H46	H	-4.803047	-0.939286	-0.429724
H47	H	-4.707856	-1.018507	-0.364054
H48	H	-4.745627	-1.037108	-0.487491
C49	C	-4.171193	-0.146236	-0.630021
C50	C	-4.193377	-0.238347	-0.580986
C51	C	-4.359990	-0.244458	-0.531246
H52	H	-4.148419	-0.085307	-0.577833
H53	H	-4.291960	-0.148847	-0.681742
H54	H	-4.072639	-0.235727	-0.529270
H55	H	-4.216184	-0.299291	-0.633151
H56	H	-4.480757	-0.247070	-0.582967
H57	H	-4.337200	-0.183525	-0.479063
H58	H	-4.375075	-0.306960	-0.497978
H59	H	-3.521491	-0.640385	-0.306667
H60	H	-3.468709	-0.440592	-0.308966
C61	C	-4.456726	-0.146910	-1.030205
C62	C	-4.587162	-0.241452	-1.020506
C63	C	-4.782987	-0.246307	-1.080895
H64	H	-4.507518	-0.087628	-1.005037
H65	H	-4.450291	-0.145373	-1.102926
H66	H	-4.593603	-0.242980	-0.947800
H67	H	-4.536435	-0.300750	-1.045680
H68	H	-4.776552	-0.244770	-1.153617
H69	H	-4.833759	-0.187021	-1.055722
H70	H	-4.871507	-0.310458	-1.074331
H71	H	-3.746258	-0.810903	-0.310013
H72	H	-4.350742	-0.630504	-0.331324
H73	H	-4.350741	-0.147753	-0.814059
H74	H	-3.746255	-0.126432	-0.994456
H75	H	-3.521496	-0.123112	-0.823943
