data_functionalizedCrystal
_audit_creation_method	'MofGen! by Chris Wilmer'
_symmetry_space_group_name_H-M	'P1'
_symmetry_Int_Tables_number	1
_symmetry_cell_setting	triclinic
loop_
_symmetry_equiv_pos_as_xyz
  x,y,z
_cell_length_a	15.995350
_cell_length_b	14.971506
_cell_length_c	13.448316
_cell_angle_alpha	89.992937
_cell_angle_beta	90.002483
_cell_angle_gamma	96.442619
loop_
_atom_site_label
_atom_site_type_symbol
_atom_site_fract_x
_atom_site_fract_y
_atom_site_fract_z
O1	O	-0.109197	1.186811	-0.082690
O2	O	-0.122246	0.926399	-0.082689
O3	O	0.006158	1.063724	-0.082693
O4	O	-0.237602	1.049487	-0.082685
O5	O	0.006166	1.063706	0.082691
O6	O	-0.122238	0.926382	0.082695
O7	O	-0.109189	1.186794	0.082694
Cu8	Cu	-0.115713	1.056586	0.097795
Cu9	Cu	-0.115722	1.056607	-0.097790
O10	O	-0.237594	1.049469	0.082698
C11	C	-0.121656	0.893067	0.000003
C12	C	-0.119898	0.793772	0.000003
C13	C	-0.188625	0.355411	-0.000005
C14	C	-0.190270	0.448710	-0.000009
C15	C	-0.114827	0.506016	-0.000007
C16	C	-0.037734	0.470019	-0.000011
C17	C	-0.036090	0.376723	-0.000014
C18	C	-0.041167	0.664478	-0.000003
C19	C	-0.042811	0.757782	0.000002
C20	C	-0.195347	0.736466	0.000002
C21	C	-0.193702	0.643169	-0.000001
C22	C	-0.116609	0.607179	-0.000003
C23	C	-0.268793	1.050067	0.000008
C24	C	-0.361745	1.051831	0.000010
C25	C	-0.699500	1.058168	-0.000005
C26	C	-0.652170	1.155969	-0.000375
C27	C	-0.555478	1.154204	0.000004
C28	C	-0.531936	1.055025	0.000002
C29	C	-0.572962	1.006777	0.094441
C30	C	-0.669601	1.009233	0.094514
C31	C	-0.669955	1.007233	-0.093558
C32	C	-0.573010	1.007256	-0.094801
C33	C	-0.437236	1.053243	0.000009
C34	C	-0.794199	1.059947	-0.000006
C35	C	0.037358	1.063127	-0.000004
C36	C	0.130310	1.061362	-0.000014
C37	C	-0.109780	1.220127	0.000000
C38	C	-0.111538	1.319421	-0.000006
N39	N	-0.115706	1.056579	0.235360
N40	N	-0.115723	1.056622	-0.235354
C41	C	-0.058872	1.117405	0.287398
C42	C	-0.058871	1.117410	0.391502
C43	C	-0.115709	1.056593	0.443564
C44	C	-0.172546	0.995761	0.391519
C45	C	-0.172542	0.995751	0.287417
C46	C	-0.172552	0.995785	0.608499
C47	C	-0.172557	0.995795	0.712607
C48	C	-0.058881	1.117444	0.712583
C49	C	-0.058877	1.117435	0.608482
C50	C	-0.115715	1.056603	0.556443
H51	H	-0.527095	1.192134	-0.067690
H52	H	-0.012592	1.166939	0.433871
H53	H	-0.671883	1.194913	0.066907
H54	H	0.023692	0.516686	-0.000016
Br55	Br	-0.549296	0.885329	0.100297
H56	H	0.018621	0.804439	-0.000005
H57	H	-0.012601	1.166975	0.754959
H58	H	-0.253041	0.478008	-0.000018
Br59	Br	-0.249680	0.913214	0.462171
H60	H	-0.250059	0.308758	0.000001
Br61	Br	0.018253	1.199980	0.537821
Br62	Br	-0.525730	1.062610	0.211588
H63	H	-0.258119	0.765773	0.000004
Br64	Br	-0.249687	0.913222	0.537878
Br65	Br	-0.249698	0.913254	0.783256
H66	H	0.021610	0.635179	-0.000009
Br67	Br	-0.509097	1.217812	0.113038
H68	H	-0.255134	0.596512	0.000004
H69	H	0.026682	0.347421	-0.000017
Br70	Br	-0.683119	1.221138	-0.113261
H71	H	-0.557566	0.934933	-0.100508
H72	H	-0.687940	1.044403	0.165111
Br73	Br	-0.527572	1.065971	-0.211252
Br74	Br	-0.704256	1.060530	-0.212867
H75	H	-0.701772	0.937430	0.098807
H76	H	-0.701626	0.935120	-0.094186
Br77	Br	-0.249672	0.913192	0.216793
Br78	Br	0.018264	1.199954	0.216752
