data_functionalizedCrystal
_audit_creation_method	'MofGen! by Chris Wilmer'
_symmetry_space_group_name_H-M	'P1'
_symmetry_Int_Tables_number	1
_symmetry_cell_setting	triclinic
loop_
_symmetry_equiv_pos_as_xyz
  x,y,z
_cell_length_a	19.851628
_cell_length_b	14.809374
_cell_length_c	19.851628
_cell_angle_alpha	127.161426
_cell_angle_beta	90.001870
_cell_angle_gamma	67.424787
loop_
_atom_site_label
_atom_site_type_symbol
_atom_site_fract_x
_atom_site_fract_y
_atom_site_fract_z
Zr1	Zr	0.731110	1.000498	0.170452
O2	O	0.639203	1.191246	0.293692
O3	O	0.748428	0.809779	0.121818
O4	O	0.764088	1.000518	0.278020
O5	O	0.623540	1.000482	0.026624
O6	O	0.874948	1.000500	0.278005
O7	O	0.623544	1.000508	0.137490
O8	O	0.846936	0.659304	-0.001412
O9	O	0.651552	1.341678	0.306040
O10	O	0.851664	0.888201	0.114179
O11	O	0.768928	0.888195	0.031452
O12	O	0.787365	1.112765	0.215359
O13	O	0.704629	1.112759	0.132632
Zr14	Zr	0.907914	1.000429	-0.006391
Zr15	Zr	0.907919	1.000470	0.170429
Zr16	Zr	0.731105	1.000458	-0.006367
Zr17	Zr	0.750805	1.240420	0.190146
Zr18	Zr	0.888219	0.760507	-0.026084
O19	O	0.890596	1.191148	0.042243
O20	O	0.890603	1.191206	0.293658
O21	O	0.639196	1.191188	0.042277
O22	O	0.999821	0.809681	-0.129631
O23	O	0.999829	0.809739	0.121784
O24	O	0.748421	0.809722	-0.129597
O25	O	1.015484	1.000445	0.137438
O26	O	0.874936	1.000410	-0.113958
O27	O	0.764076	1.000428	-0.113943
O28	O	1.015480	1.000420	0.026571
O29	O	0.792092	1.341656	0.306021
O30	O	0.846932	0.659272	-0.141960
O31	O	0.987472	0.659249	-0.141979
O32	O	0.987476	0.659281	-0.001431
O33	O	0.651548	1.341646	0.165492
O34	O	0.792088	1.341624	0.165473
O35	O	0.851659	0.888163	-0.051298
O36	O	0.934396	0.888169	0.031430
O37	O	0.870096	1.112733	0.132609
O38	O	0.787360	1.112727	0.049882
C39	C	0.794876	0.700358	0.057397
C40	C	0.786515	0.598504	0.049037
C41	C	0.823830	0.553098	0.086348
C42	C	0.815189	0.447827	0.077708
C43	C	0.598350	1.000499	0.082060
C44	C	0.523290	1.000511	0.082071
C45	C	0.306884	1.122924	0.137208
C46	C	0.279500	1.061732	0.164876
C47	C	0.385881	1.000478	0.082044
C48	C	0.279525	1.061678	0.054392
C49	C	0.253147	1.000454	0.082020
C50	C	0.359485	0.939285	0.109758
C51	C	0.359509	0.939248	-0.000769
C52	C	0.332171	0.877966	0.026873
C53	C	0.462344	1.000494	0.082060
C54	C	0.176687	1.000428	0.082004
C55	C	1.040674	1.000429	0.082001
C56	C	1.115734	1.000417	0.081991
C57	C	0.819519	1.000515	0.303205
C58	C	0.819521	1.000532	0.378270
C59	C	0.844148	1.300570	0.106664
C60	C	0.852509	1.402423	0.115024
C61	C	0.784446	1.122957	0.614785
C62	C	0.857211	1.061747	0.632117
C63	C	0.819514	1.000508	0.515678
C64	C	0.746754	1.061736	0.632092
C65	C	0.819501	1.000494	0.648412
C66	C	0.892324	0.939297	0.532020
C67	C	0.781812	0.939303	0.532000
C68	C	0.854616	0.878003	0.549270
C69	C	0.819520	1.000519	0.439215
C70	C	0.819502	1.000473	0.724870
C71	C	0.819503	1.000431	0.860864
C72	C	0.819495	1.000466	0.785823
C73	C	1.016038	0.700322	0.057367
C74	C	1.082737	0.598457	0.048997
C75	C	0.794869	0.700307	-0.163777
C76	C	0.786506	0.598437	-0.247202
C77	C	1.016031	0.700272	-0.163807
C78	C	1.082728	0.598389	-0.247242
C79	C	0.622993	1.300656	0.327868
C80	C	0.556296	1.402538	0.411303
C81	C	0.622986	1.300605	0.106694
C82	C	0.556287	1.402470	0.115064
C83	C	0.844155	1.300621	0.327838
C84	C	0.852518	1.402491	0.411263
C85	C	1.070874	0.550637	0.088268
C86	C	1.133539	0.454937	0.080421
C87	C	1.208066	0.407053	0.033297
C88	C	1.219927	0.454882	-0.005975
C89	C	1.157263	0.550587	0.001878
C90	C	0.825763	0.550580	-0.329581
C91	C	0.817903	0.454876	-0.407973
C92	C	0.770789	0.407022	-0.403985
C93	C	0.731527	0.454888	-0.321597
C94	C	0.739384	0.550597	-0.243206
C95	C	1.157244	0.550547	-0.243241
C96	C	1.219921	0.454831	-0.321629
C97	C	1.208079	0.406952	-0.404018
C98	C	1.133555	0.454804	-0.408016
C99	C	1.070881	0.550525	-0.329629
C100	C	0.481781	1.450392	0.407303
C101	C	0.419107	1.546138	0.485694
C102	C	0.430949	1.594022	0.568083
C103	C	0.505472	1.546164	0.572081
C104	C	0.568145	1.450426	0.493692
C105	C	0.568151	1.450301	0.075801
C106	C	0.505488	1.546027	0.083670
C107	C	0.430962	1.593915	0.130797
C108	C	0.419100	1.546081	0.170065
C109	C	0.481762	1.450363	0.162201
C110	C	0.899638	1.450314	0.407246
C111	C	0.907511	1.546019	0.485625
C112	C	0.868260	1.593907	0.568020
C113	C	0.821138	1.546074	0.572035
C114	C	0.813270	1.450364	0.493657
H115	H	0.748173	0.559441	0.010695
N116	N	0.876583	0.602178	-0.333896
H117	H	0.900253	0.557331	-0.397984
H118	H	0.844816	0.698261	-0.298619
N119	N	0.990509	0.602093	-0.333956
H120	H	0.952594	0.669994	-0.271802
H121	H	0.987226	0.641717	-0.361895
H122	H	0.874674	1.671841	0.631834
H123	H	0.749912	0.887602	0.488948
H124	H	1.280615	0.415881	-0.044343
N125	N	0.973876	0.870805	0.475153
H126	H	1.002398	0.916702	0.512589
H127	H	1.000417	0.778573	0.450302
N128	N	0.293722	1.260053	0.199063
H129	H	0.263301	1.306788	0.178826
H130	H	0.264199	1.306053	0.261583
H131	H	1.166932	0.589510	-0.030107
H132	H	1.259119	0.329010	-0.467840
H133	H	0.776844	0.408767	0.039363
H134	H	0.244940	1.113493	0.234900
N135	N	1.120788	0.403156	-0.496881
H136	H	1.171803	0.335255	-0.545926
H137	H	1.086355	0.363510	-0.506670
H138	H	0.472123	1.411410	0.340225
N139	N	0.338734	1.597741	0.481370
H140	H	0.340747	1.552864	0.417280
H141	H	0.306219	1.581108	0.507393
N142	N	0.874617	0.604838	0.137142
H143	H	0.898331	0.560074	0.160856
H144	H	0.916640	0.588171	0.096087
H145	H	0.379910	1.671977	0.631906
H146	H	0.693167	0.415912	-0.318363
N147	N	0.990498	0.602267	0.139097
H148	H	0.952592	0.670150	0.138116
H149	H	0.977973	0.529165	0.110420
N150	N	0.518239	1.597815	0.660946
H151	H	0.467225	1.665719	0.709991
H152	H	0.543417	1.524729	0.661483
N153	N	0.903308	0.454138	0.165815
H154	H	0.945375	0.437471	0.124805
H155	H	0.871506	0.550210	0.217141
H156	H	0.789182	1.585079	0.639132
N157	N	0.648515	1.398812	0.498012
H158	H	0.646499	1.443678	0.562102
H159	H	0.671766	1.302736	0.462751
H160	H	0.849879	0.415915	-0.475049
H161	H	1.280596	0.415880	-0.318358
H162	H	0.358412	1.585086	0.208436
N163	N	1.120732	0.403347	0.122768
H164	H	1.171733	0.335456	0.110650
H165	H	1.095534	0.476462	0.189167
N166	N	1.170037	0.602159	-0.154391
H167	H	1.204449	0.641866	-0.144530
H168	H	1.119002	0.670007	-0.105383
N169	N	1.275650	0.303830	0.024832
H170	H	1.256819	0.280807	0.056862
H171	H	1.303051	0.224460	-0.040200
H172	H	0.472092	1.411422	0.194172
N173	N	0.697052	0.602184	-0.154359
H174	H	0.709174	0.670075	-0.105297
H175	H	0.639910	0.641825	-0.144565
N176	N	0.648530	1.398663	0.024976
H177	H	0.651879	1.358953	-0.038702
H178	H	0.661080	1.471745	0.053703
N179	N	0.518291	1.597606	0.041313
H180	H	0.575011	1.552729	0.010259
H181	H	0.489541	1.580953	-0.003468
N182	N	0.762321	0.303785	-0.488537
H183	H	0.740480	0.337093	-0.519745
H184	H	0.814317	0.224401	-0.528937
H185	H	0.774897	1.411437	0.496940
N186	N	0.363379	1.697154	0.139275
H187	H	0.382209	1.720178	0.107246
H188	H	0.326723	1.663777	0.111977
N189	N	0.405111	0.870797	0.140831
H190	H	0.455853	0.871261	0.140675
H191	H	0.375164	0.916736	0.203168
H192	H	0.685226	1.113519	0.675150
H193	H	0.884315	0.774386	0.522154
N194	N	0.941976	1.398678	0.318383
H195	H	0.973021	1.443503	0.327745
H196	H	0.977503	1.302594	0.279348
N197	N	0.958338	1.597595	0.481283
H198	H	0.982001	1.552739	0.417191
H199	H	0.926578	1.693678	0.516557
H200	H	0.394071	0.887531	-0.070774
N201	N	0.345544	0.740716	-0.034935
H202	H	0.375162	0.694651	-0.013947
H203	H	0.294432	0.741556	-0.034980
H204	H	0.244973	1.113442	0.031015
H205	H	0.754858	1.226490	0.641739
N206	N	0.899448	1.130278	0.689153
H207	H	0.872925	1.222775	0.714519
H208	H	0.899554	1.128930	0.739415
