data_functionalizedCrystal
_audit_creation_method	'MofGen! by Chris Wilmer'
_symmetry_space_group_name_H-M	'P1'
_symmetry_Int_Tables_number	1
_symmetry_cell_setting	triclinic
loop_
_symmetry_equiv_pos_as_xyz
  x,y,z
_cell_length_a	10.654550
_cell_length_b	10.654552
_cell_length_c	9.730223
_cell_angle_alpha	89.997973
_cell_angle_beta	90.003749
_cell_angle_gamma	84.485284
loop_
_atom_site_label
_atom_site_type_symbol
_atom_site_fract_x
_atom_site_fract_y
_atom_site_fract_z
O1	O	-1.667835	-0.176393	-0.114392
O2	O	-1.302357	-0.193199	-0.114369
O3	O	-1.493498	-0.002057	-0.114383
O4	O	-1.476694	-0.367535	-0.114377
O5	O	-1.493496	-0.002062	0.114197
O6	O	-1.302355	-0.193204	0.114211
O7	O	-1.667833	-0.176398	0.114188
Zn8	Zn	-1.485093	-0.184802	0.150492
Zn9	Zn	-1.485096	-0.184795	-0.150672
O10	O	-1.476692	-0.367540	0.114203
C11	C	-1.255558	-0.191968	-0.000076
C12	C	-1.116114	-0.188276	-0.000067
C13	C	-1.492262	0.044739	-0.000097
C14	C	-1.488570	0.184182	-0.000107
C15	C	-1.714632	-0.177629	-0.000108
C16	C	-1.854075	-0.181321	-0.000125
C17	C	-1.036629	-0.300817	-0.000086
C18	C	-0.905609	-0.297341	-0.000109
C19	C	-0.933571	-0.068771	-0.000103
C20	C	-1.064589	-0.072249	-0.000069
C21	C	-1.088155	-0.416844	-0.000084
C22	C	-1.008669	-0.529394	-0.000104
C23	C	-0.877648	-0.525918	-0.000127
C24	C	-0.826113	-0.409891	-0.000132
C25	C	-1.486838	0.249696	-0.124705
C26	C	-1.483358	0.380717	-0.124699
C27	C	-1.483345	0.380697	0.124511
C28	C	-1.486817	0.249678	0.124504
C29	C	-1.488591	0.184200	-0.249316
C30	C	-1.486862	0.249715	-0.373924
C31	C	-1.483381	0.380735	-0.373918
C32	C	-1.481630	0.446241	-0.249306
C33	C	-1.477927	0.585664	-0.000089
C34	C	-1.481617	0.446221	-0.000096
N35	N	-1.485101	-0.184805	0.356028
N36	N	-1.485099	-0.184782	-0.356209
C37	C	-1.569760	-0.100196	0.427948
C38	C	-1.569756	-0.100181	0.571831
C39	C	-1.400431	-0.269395	0.571862
C40	C	-1.400429	-0.269403	0.427982
C41	C	-1.654431	-0.015599	0.355994
C42	C	-1.739098	0.069016	0.427914
C43	C	-1.739095	0.069031	0.571797
C44	C	-1.654425	-0.015568	0.643760
H45	H	-1.050637	-0.623860	-0.000088
O46	O	-1.488701	0.179007	0.258889
H47	H	-1.402591	0.193703	0.318654
O48	O	-1.481466	0.451340	0.258910
H49	H	-1.567577	0.436623	0.318654
O50	O	-1.309129	-0.360661	0.649464
H51	H	-1.247635	-0.307236	0.715032
H52	H	-1.654421	-0.015540	0.760920
H53	H	-1.331490	-0.338298	0.369424
H54	H	-0.812933	-0.617562	-0.000129
O55	O	-0.877984	0.056362	-0.000111
H56	H	-0.955268	0.134038	-0.000079
O57	O	-1.229470	-0.420589	-0.000045
H58	H	-1.251949	-0.520173	-0.000035
O59	O	-0.684798	-0.406133	-0.000155
H60	H	-0.638180	-0.503884	-0.000170
O61	O	-1.830415	0.160293	0.649358
H62	H	-1.777033	0.221850	0.714895
O63	O	-1.150333	0.049130	-0.000059
H64	H	-1.092496	0.130395	-0.000089
O65	O	-1.492639	0.042923	-0.249317
H66	H	-1.493668	0.008395	-0.356896
O67	O	-1.488743	0.179074	-0.508324
H68	H	-1.491465	0.076963	-0.487399
H69	H	-1.481960	0.434072	-0.475379
O70	O	-1.477892	0.587559	-0.249292
H71	H	-1.476992	0.622116	-0.356868
H72	H	-1.654444	-0.015606	0.238838
H73	H	-1.808028	0.137901	0.369314
