data_functionalizedCrystal
_audit_creation_method	'MofGen! by Chris Wilmer'
_symmetry_space_group_name_H-M	'P1'
_symmetry_Int_Tables_number	1
_symmetry_cell_setting	triclinic
loop_
_symmetry_equiv_pos_as_xyz
  x,y,z
_cell_length_a	10.967874
_cell_length_b	11.792254
_cell_length_c	9.482900
_cell_angle_alpha	99.398945
_cell_angle_beta	68.707142
_cell_angle_gamma	84.459369
loop_
_atom_site_label
_atom_site_type_symbol
_atom_site_fract_x
_atom_site_fract_y
_atom_site_fract_z
O1	O	1.746063	0.077825	-0.558321
O2	O	1.367712	0.106876	-0.463539
O3	O	1.566059	-0.073133	-0.513217
O4	O	1.547716	0.257834	-0.508643
O5	O	1.525771	-0.036428	-0.261334
O6	O	1.327424	0.143582	-0.211656
O7	O	1.705775	0.114531	-0.306438
Cu8	Cu	1.512921	0.132408	-0.236048
Cu9	Cu	1.560566	0.088999	-0.533929
O10	O	1.507429	0.294540	-0.256760
C11	C	1.299131	0.125888	-0.325463
C12	C	1.154803	0.127840	-0.289307
C13	C	1.111327	0.109695	-0.403670
C14	C	0.962157	0.111712	-0.366304
C15	C	1.544759	-0.097032	-0.386987
C16	C	1.541300	-0.222926	-0.386122
C17	C	1.538491	-0.325166	-0.385423
C18	C	1.534979	-0.453434	-0.384556
C19	C	1.774357	0.095518	-0.444517
C20	C	1.918687	0.093565	-0.480683
C21	C	1.528729	0.318437	-0.382994
C22	C	1.532189	0.444330	-0.383869
N23	N	1.479420	0.162938	-0.026537
N24	N	1.594078	0.058459	-0.743442
C25	C	1.550676	0.097998	0.027815
C26	C	1.522812	0.123409	0.202211
H27	H	1.081588	0.144873	-0.163733
Cl28	Cl	1.396760	0.238294	0.329691
H29	H	1.632305	0.023584	-0.054758
Cl30	Cl	1.353374	0.277819	0.100946
H31	H	1.675712	-0.015960	0.173987
Cl32	Cl	1.031705	0.067289	-0.674576
H33	H	1.184540	0.092674	-0.529244
H34	H	0.888945	0.128747	-0.240721
