data_functionalizedCrystal
_audit_creation_method	'MofGen! by Chris Wilmer'
_symmetry_space_group_name_H-M	'P1'
_symmetry_Int_Tables_number	1
_symmetry_cell_setting	triclinic
loop_
_symmetry_equiv_pos_as_xyz
  x,y,z
_cell_length_a	10.654550
_cell_length_b	15.995350
_cell_length_c	9.730223
_cell_angle_alpha	90.000899
_cell_angle_beta	89.996251
_cell_angle_gamma	83.988639
loop_
_atom_site_label
_atom_site_type_symbol
_atom_site_fract_x
_atom_site_fract_y
_atom_site_fract_z
O1	O	1.666298	0.117599	-0.114395
O2	O	1.300673	0.128803	-0.114373
O3	O	1.493480	0.001371	-0.114383
O4	O	1.473491	0.245031	-0.114385
O5	O	1.493478	0.001375	0.114197
O6	O	1.300671	0.128806	0.114207
O7	O	1.666295	0.117602	0.114185
Zn8	Zn	1.483483	0.123205	0.150488
Zn9	Zn	1.483486	0.123200	-0.150676
O10	O	1.473488	0.245034	0.114195
C11	C	1.253885	0.127982	-0.000080
C12	C	1.114473	0.125521	-0.000071
C13	C	1.034008	0.200551	-0.000092
C14	C	0.903017	0.198233	-0.000116
C15	C	0.932971	0.045849	-0.000104
C16	C	1.063959	0.048168	-0.000071
C17	C	1.084522	0.277904	-0.000093
C18	C	1.004055	0.352940	-0.000115
C19	C	0.873064	0.350622	-0.000138
C20	C	0.822541	0.273268	-0.000140
C21	C	1.492652	-0.029827	-0.000096
C22	C	1.490175	-0.122791	-0.000104
C23	C	1.481278	-0.460591	-0.000098
C24	C	1.343964	-0.413954	-0.000603
C25	C	1.346442	-0.317249	-0.000087
C26	C	1.485691	-0.293004	-0.000102
C27	C	1.553417	-0.333687	0.130422
C28	C	1.549968	-0.430342	0.130531
C29	C	1.552807	-0.430688	-0.129407
C30	C	1.552775	-0.333743	-0.131132
C31	C	1.488192	-0.198292	-0.000099
C32	C	1.478780	-0.555303	-0.000092
C33	C	1.713084	0.118423	-0.000111
C34	C	1.852495	0.120884	-0.000129
C35	C	1.474316	0.276232	-0.000095
C36	C	1.476793	0.369197	-0.000097
N37	N	1.483490	0.123207	0.356024
N38	N	1.483488	0.123191	-0.356212
C39	C	1.568886	0.066800	0.427946
C40	C	1.568883	0.066789	0.571829
C41	C	1.398083	0.179602	0.571856
C42	C	1.398081	0.179607	0.427976
C43	C	1.654295	0.010400	0.355994
C44	C	1.739700	-0.046012	0.427915
C45	C	1.739697	-0.046022	0.571798
C46	C	1.654289	0.010379	0.643760
H47	H	1.293204	-0.289138	-0.093652
C48	C	1.833633	-0.108072	0.650909
H49	H	1.884501	-0.141654	0.587446
H50	H	1.788471	-0.143214	0.707035
H51	H	1.885904	-0.077621	0.707036
C52	C	1.691615	-0.313799	0.136981
H53	H	1.709277	-0.280425	0.059995
H54	H	1.746068	-0.364770	0.135768
H55	H	1.704751	-0.283915	0.219226
C56	C	0.678455	0.270715	-0.000156
H57	H	0.659893	0.213902	-0.000150
H58	H	0.643303	0.298330	-0.079870
H59	H	0.643280	0.298329	0.079562
H60	H	0.891824	-0.017129	-0.000128
C61	C	1.489861	-0.295728	0.261654
H62	H	1.422063	-0.255098	0.237181
H63	H	1.549835	-0.269641	0.314465
H64	H	1.458446	-0.339035	0.314267
C65	C	1.228606	0.280452	-0.000081
H66	H	1.269295	0.224688	-0.000081
H67	H	1.252704	0.309122	0.079624
H68	H	1.252712	0.309108	-0.079808
C69	C	1.304147	0.241651	0.348851
H70	H	1.316370	0.233568	0.252857
H71	H	1.317768	0.297620	0.372429
H72	H	1.220338	0.232025	0.372437
C73	C	1.654277	0.010367	0.802028
H74	H	1.591180	0.052034	0.834580
H75	H	1.734534	0.022321	0.834581
H76	H	1.637085	-0.043261	0.834562
H77	H	1.129477	-0.012928	-0.000058
H78	H	1.650782	-0.462005	0.136444
H79	H	1.654308	0.010404	0.238837
H80	H	1.654321	-0.317791	-0.139024
H81	H	1.328548	0.225522	0.630457
H82	H	0.807551	0.411720	-0.000142
C83	C	1.059626	0.438021	-0.000111
H84	H	1.149162	0.428658	-0.000107
H85	H	1.031989	0.468952	0.079592
H86	H	1.032021	0.468941	-0.079840
C87	C	1.269809	-0.439428	-0.127034
H88	H	1.321919	-0.478738	-0.180645
H89	H	1.244554	-0.391000	-0.180785
H90	H	1.197207	-0.464284	-0.097664
C91	C	1.270149	-0.440838	0.125153
H92	H	1.322651	-0.480358	0.177965
H93	H	1.197858	-0.465803	0.095150
H94	H	1.244419	-0.392934	0.179946
C95	C	1.833645	-0.108044	0.348764
H96	H	1.821428	-0.099954	0.252773
H97	H	1.820025	-0.164016	0.372328
H98	H	1.917452	-0.098419	0.372350
H99	H	1.292844	-0.289694	0.093643
H100	H	1.500580	-0.448929	0.228110
H101	H	1.507914	-0.451490	-0.228337
H102	H	1.503258	-0.306783	-0.227690
H103	H	1.654048	-0.461861	-0.130294
