data_functionalizedCrystal
_audit_creation_method	'MofGen! by Chris Wilmer'
_symmetry_space_group_name_H-M	'P1'
_symmetry_Int_Tables_number	1
_symmetry_cell_setting	triclinic
loop_
_symmetry_equiv_pos_as_xyz
  x,y,z
_cell_length_a	10.967926
_cell_length_b	17.019294
_cell_length_c	10.065875
_cell_angle_alpha	94.957055
_cell_angle_beta	93.120479
_cell_angle_gamma	84.884424
loop_
_atom_site_label
_atom_site_type_symbol
_atom_site_fract_x
_atom_site_fract_y
_atom_site_fract_z
O1	O	1.615134	0.135993	0.250397
O2	O	2.115134	0.635993	0.750397
O3	O	1.265126	0.138220	0.167813
O4	O	1.765126	0.638220	0.667813
O5	O	1.447829	0.023860	0.224231
O6	O	1.947829	0.523860	0.724231
O7	O	1.432431	0.250352	0.193978
O8	O	1.932431	0.750352	0.693978
O9	O	1.412992	0.045759	0.440451
O10	O	1.912992	0.545759	0.940451
O11	O	1.230289	0.160118	0.384033
O12	O	1.730289	0.660118	0.884033
O13	O	1.580296	0.157891	0.466617
O14	O	2.080296	0.657891	0.966617
Zn15	Zn	1.399761	0.162481	0.459654
Zn16	Zn	1.899761	0.662481	0.959654
Zn17	Zn	1.445661	0.133629	0.174775
Zn18	Zn	1.945661	0.633629	0.674775
O19	O	1.397594	0.272250	0.410198
O20	O	1.897594	0.772250	0.910198
C21	C	1.202884	0.147352	0.265594
C22	C	1.702884	0.647352	0.765594
C23	C	1.069325	0.141930	0.234818
C24	C	1.569325	0.641930	0.734818
C25	C	0.991732	0.150856	0.333105
C26	C	1.491732	0.650856	0.833105
C27	C	0.853691	0.145252	0.301299
C28	C	1.353691	0.645252	0.801299
C29	C	1.429139	0.005732	0.335458
C30	C	1.929139	0.505732	0.835458
C31	C	1.425338	-0.080910	0.344743
C32	C	1.925338	0.419090	0.844743
C33	C	1.442545	-0.133547	0.231245
C34	C	1.942545	0.366453	0.731245
C35	C	1.438965	-0.214956	0.239971
C36	C	1.938965	0.285044	0.739971
C37	C	1.418187	-0.243727	0.362199
C38	C	1.918187	0.256273	0.862199
C39	C	1.400976	-0.191083	0.475705
C40	C	1.900976	0.308917	0.975705
C41	C	1.404547	-0.109676	0.466975
C42	C	1.904547	0.390324	0.966975
C43	C	1.406446	-0.488929	0.394451
C44	C	1.906446	0.011071	0.894451
C45	C	1.402879	-0.570343	0.403173
C46	C	1.902879	-0.070343	0.903173
C47	C	1.440867	-0.594210	0.167438
C48	C	1.940867	-0.094210	0.667438
C49	C	1.444444	-0.512800	0.158721
C50	C	1.944444	-0.012800	0.658721
C51	C	1.427226	-0.460163	0.272225
C52	C	1.927226	0.039837	0.772225
C53	C	1.414531	-0.326940	0.371122
C54	C	1.914531	0.173060	0.871122
C55	C	1.430873	-0.376952	0.263298
C56	C	1.930873	0.123048	0.763298
C57	C	1.642539	0.148758	0.368833
C58	C	2.142539	0.648758	0.868833
C59	C	1.776100	0.154180	0.399600
C60	C	2.276100	0.654180	0.899600
C61	C	1.416284	0.290378	0.298968
C62	C	1.916284	0.790378	0.798968
C63	C	1.420086	0.377020	0.289675
C64	C	1.920086	0.877020	0.789675
N65	N	1.368445	0.182172	0.654079
N66	N	1.868445	0.682172	1.154079
N67	N	1.476987	0.113933	-0.019647
N68	N	1.976987	0.613933	0.480353
C69	C	1.434758	0.140475	0.742357
C70	C	1.934758	0.640475	1.242357
C71	C	1.410665	0.155636	0.892075
C72	C	1.910665	0.655636	1.392075
H73	H	1.033558	0.130136	0.127124
H74	H	1.533558	0.630136	0.627124
H75	H	1.551597	0.067005	0.945099
H76	H	2.051597	0.567005	1.445099
H77	H	1.293831	0.229091	0.689339
H78	H	1.793831	0.729091	1.189339
O79	O	1.311852	0.217809	0.938771
O80	O	1.811852	0.717809	1.438771
H81	H	1.266945	0.246050	0.851332
H82	H	1.766945	0.746050	1.351332
H83	H	1.027500	0.162643	0.440800
H84	H	1.527500	0.662643	0.940800
O85	O	1.533569	0.078312	0.695639
O86	O	2.033569	0.578312	1.195639
H87	H	1.623416	0.093445	0.742300
H88	H	2.123416	0.593445	1.242300
O89	O	0.823465	0.169814	0.542260
O90	O	1.323465	0.669814	1.042260
H91	H	0.780482	0.227376	0.584735
H92	H	1.280482	0.727376	1.084735
O93	O	1.464944	-0.102520	0.099407
O94	O	1.964944	0.397480	0.599407
H95	H	1.555177	-0.128440	0.064331
H96	H	2.055177	0.371560	0.564331
O97	O	0.806340	0.129635	0.158630
O98	O	1.306340	0.629635	0.658630
H99	H	0.705347	0.127691	0.156034
H100	H	1.205347	0.627691	0.656034
O101	O	1.457477	-0.271715	0.117528
O102	O	1.957477	0.228285	0.617528
H103	H	1.549083	-0.266393	0.079090
H104	H	2.049083	0.233607	0.579090
O105	O	1.466830	-0.481767	0.026884
O106	O	1.966830	0.018233	0.526884
H107	H	1.478177	-0.532045	-0.050579
H108	H	1.978177	-0.032045	0.449421
O109	O	1.459417	-0.650979	0.045014
O110	O	1.959417	-0.150979	0.545014
H111	H	1.453432	-0.712421	0.071609
H112	H	1.953432	-0.212421	0.571609
O113	O	1.380455	-0.601378	0.535007
O114	O	1.880455	-0.101378	1.035007
H115	H	1.369068	-0.551100	0.612465
H116	H	1.869068	-0.051100	1.112465
H117	H	1.392450	-0.446082	0.486880
H118	H	1.892450	0.053918	0.986880
H119	H	1.384050	-0.214514	0.575223
H120	H	1.884050	0.285486	1.075223
H121	H	1.390518	-0.066817	0.559393
H122	H	1.890518	0.433183	1.059393
O123	O	1.453278	-0.345927	0.131465
O124	O	1.953278	0.154073	0.631465
H125	H	1.537635	-0.313978	0.141636
H126	H	2.037635	0.186022	0.641636
O127	O	1.392156	-0.357982	0.502955
O128	O	1.892156	0.142018	1.002955
H129	H	1.307811	-0.389944	0.492795
H130	H	1.807811	0.110056	0.992795
