data_functionalizedCrystal
_audit_creation_method	'MofGen! by Chris Wilmer'
_symmetry_space_group_name_H-M	'P1'
_symmetry_Int_Tables_number	1
_symmetry_cell_setting	triclinic
loop_
_symmetry_equiv_pos_as_xyz
  x,y,z
_cell_length_a	29.839131
_cell_length_b	29.839134
_cell_length_c	19.805399
_cell_angle_alpha	90.028355
_cell_angle_beta	90.029565
_cell_angle_gamma	90.036281
loop_
_atom_site_label
_atom_site_type_symbol
_atom_site_fract_x
_atom_site_fract_y
_atom_site_fract_z
Zn1	Zn	-0.178925	0.686748	0.382869
Zn2	Zn	0.321075	1.186748	0.882869
Zn3	Zn	-0.254053	0.686672	0.269677
Zn4	Zn	0.245947	1.186672	0.769677
Zn5	Zn	-0.178931	0.611622	0.269676
Zn6	Zn	0.321069	1.111622	0.769676
Zn7	Zn	-0.254022	0.611578	0.382806
Zn8	Zn	0.245978	1.111578	0.882806
O9	O	-0.216483	0.649155	0.326257
O10	O	0.283517	1.149155	0.826257
O11	O	-0.188902	0.749605	0.367880
O12	O	0.311098	1.249605	0.867880
O13	O	-0.244103	0.676703	0.174960
O14	O	0.255897	1.176703	0.674960
O15	O	-0.116063	0.621638	0.284717
O16	O	0.383937	1.121638	0.784717
O17	O	-0.244097	0.749549	0.284718
O18	O	0.255903	1.249549	0.784718
O19	O	-0.116059	0.676833	0.367880
O20	O	0.383941	1.176833	0.867880
O21	O	-0.188911	0.621564	0.174960
O22	O	0.311089	1.121564	0.674960
O23	O	-0.188882	0.548749	0.284657
O24	O	0.311118	1.048749	0.784657
O25	O	-0.244045	0.621563	0.477531
O26	O	0.255955	1.121563	0.977531
O27	O	-0.244051	0.548717	0.367773
O28	O	0.255949	1.048717	0.867773
O29	O	-0.188872	0.676790	0.477577
O30	O	0.311128	1.176790	0.977577
O31	O	-0.316916	0.676660	0.284657
O32	O	0.183084	1.176660	0.784657
O33	O	-0.316893	0.621489	0.367773
O34	O	0.183107	1.121489	0.867773
C35	C	-0.216464	0.532433	0.326208
C36	C	0.283536	1.032433	0.826208
C37	C	-0.216466	0.482498	0.326203
C38	C	0.283534	0.982498	0.826203
C39	C	-0.245252	0.172847	0.369482
C40	C	0.254748	0.672847	0.869482
C41	C	-0.245265	-0.014826	0.369512
C42	C	0.254735	0.485174	0.869512
O43	O	-0.269718	-0.039097	0.406281
O44	O	0.230282	0.460903	0.906281
N45	N	-0.216499	-0.038287	0.326308
N46	N	0.283501	0.461713	0.826308
C47	C	-0.187727	-0.014827	0.283096
C48	C	0.312273	0.485173	0.783096
O49	O	-0.163257	-0.039089	0.246353
O50	O	0.336743	0.460911	0.746353
C51	C	-0.187712	0.172845	0.283070
C52	C	0.312288	0.672845	0.783070
C53	C	-0.216483	0.196304	0.326272
C54	C	0.283517	0.696304	0.826272
C55	C	-0.274020	0.196306	0.412682
C56	C	0.225980	0.696306	0.912682
C57	C	-0.274018	0.243222	0.412671
C58	C	0.225982	0.743222	0.912671
C59	C	-0.245249	0.266678	0.369461
C60	C	0.254751	0.766678	0.869461
C61	C	-0.216481	0.243219	0.326262
C62	C	0.283519	0.743219	0.826262
C63	C	-0.158938	0.196304	0.239861
C64	C	0.341062	0.696304	0.739861
C65	C	-0.158936	0.243225	0.239860
C66	C	0.341064	0.743225	0.739860
C67	C	-0.187706	0.266684	0.283063
C68	C	0.312294	0.766684	0.783063
C69	C	-0.187710	0.313591	0.283041
C70	C	0.312290	0.813591	0.783041
N71	N	-0.216475	0.337053	0.326246
N72	N	0.283525	0.837053	0.826246
C73	C	-0.245244	0.313596	0.369456
C74	C	0.254756	0.813596	0.869456
C75	C	-0.187737	-0.113358	0.283112
C76	C	0.312263	0.386642	0.783112
C77	C	-0.187741	-0.160276	0.283117
C78	C	0.312259	0.339724	0.783117
C79	C	-0.245279	-0.160271	0.369535
C80	C	0.254721	0.339729	0.869535
C81	C	-0.245276	-0.113352	0.369526
C82	C	0.254724	0.386648	0.869526
C83	C	-0.216502	-0.089896	0.326316
C84	C	0.283498	0.410104	0.826316
C85	C	-0.245239	0.412122	0.369430
C86	C	0.254761	0.912122	0.869430
C87	C	-0.245236	0.459042	0.369413
C88	C	0.254764	0.959042	0.869413
C89	C	-0.187697	0.459033	0.282998
C90	C	0.312303	0.959033	0.782998
C91	C	-0.187701	0.412117	0.283012
C92	C	0.312299	0.912117	0.783012
C93	C	-0.216474	0.388663	0.326233
C94	C	0.283526	0.888663	0.826233
O95	O	-0.163266	0.337891	0.246297
O96	O	0.336734	0.837891	0.746297
O97	O	-0.269703	0.337866	0.406203
O98	O	0.230297	0.837866	0.906203
C99	C	-0.245254	0.125932	0.369493
C100	C	0.254746	0.625932	0.869493
C101	C	-0.216486	0.102473	0.326293
C102	C	0.283514	0.602473	0.826293
C103	C	-0.187717	0.125930	0.283083
C104	C	0.312283	0.625930	0.783083
C105	C	-0.216490	0.055555	0.326299
C106	C	0.283510	0.555555	0.826299
C107	C	-0.245260	0.032099	0.369509
C108	C	0.254740	0.532099	0.869509
C109	C	-0.274025	0.055560	0.412714
C110	C	0.225975	0.555560	0.912714
C111	C	-0.274023	0.102475	0.412703
C112	C	0.225977	0.602475	0.912703
C113	C	-0.158951	0.102468	0.239879
C114	C	0.341049	0.602468	0.739879
C115	C	-0.158956	0.055553	0.239892
C116	C	0.341044	0.555553	0.739892
C117	C	-0.187725	0.032096	0.283102
C118	C	0.312275	0.532096	0.783102
C119	C	-0.333205	0.649074	0.326223
C120	C	0.166795	1.149074	0.826223
C121	C	-0.383140	0.649080	0.326232
C122	C	0.116860	1.149080	0.826232
C123	C	-0.692782	0.677935	0.283042
C124	C	-0.192782	1.177935	0.783042
C125	C	-0.880455	0.677990	0.283068
C126	C	-0.380455	1.177990	0.783068
O127	O	-0.904719	0.702459	0.246321
O128	O	-0.404719	1.202459	0.746321
N129	N	-0.903925	0.649248	0.326308
N130	N	-0.403925	1.149248	0.826308
C131	C	-0.880473	0.620492	0.369547
C132	C	-0.380473	1.120492	0.869547
O133	O	-0.904742	0.596050	0.406331
O134	O	-0.404742	1.096050	0.906331
C135	C	-0.692801	0.620440	0.369524
C136	C	-0.192801	1.120440	0.869524
C137	C	-0.669334	0.649180	0.326277
C138	C	-0.169334	1.149180	0.826277
C139	C	-0.669315	0.706673	0.239798
C140	C	-0.169315	1.206673	0.739798
C141	C	-0.622400	0.706657	0.239790
C142	C	-0.122400	1.206657	0.739790
C143	C	-0.598951	0.677903	0.283024
C144	C	-0.098951	1.177903	0.783024
C145	C	-0.622419	0.649164	0.326268
C146	C	-0.122419	1.149164	0.826268
C147	C	-0.669350	0.591687	0.412767
C148	C	-0.169350	1.091687	0.912767
C149	C	-0.622429	0.591677	0.412758
C150	C	-0.122429	1.091677	0.912758
C151	C	-0.598962	0.620417	0.369511
C152	C	-0.098962	1.120417	0.869511
C153	C	-0.552055	0.620394	0.369494
C154	C	-0.052055	1.120394	0.869494
N155	N	-0.528585	0.649136	0.326254
N156	N	-0.028585	1.149136	0.826254
C157	C	-0.552034	0.677890	0.283019
C158	C	-0.052034	1.177890	0.783019
C159	C	-0.979004	0.620522	0.369556
C160	C	-0.479004	1.120522	0.869556
C161	C	-1.025922	0.620534	0.369561
C162	C	-0.525922	1.120534	0.869561
C163	C	-1.025901	0.678033	0.283082
C164	C	-0.525901	1.178033	0.783082
C165	C	-0.978982	0.678017	0.283074
C166	C	-0.478982	1.178017	0.783074
C167	C	-0.955534	0.649264	0.326316
C168	C	-0.455534	1.149264	0.826316
C169	C	-0.453508	0.677855	0.283004
C170	C	0.046492	1.177855	0.783004
C171	C	-0.406588	0.677835	0.282997
C172	C	0.093412	1.177835	0.782997
C173	C	-0.406613	0.620338	0.369478
C174	C	0.093387	1.120338	0.869478
C175	C	-0.453529	0.620356	0.369482
C176	C	0.046471	1.120356	0.869482
C177	C	-0.476975	0.649118	0.326243
C178	C	0.023025	1.149118	0.826243
O179	O	-0.527762	0.595942	0.406227
O180	O	-0.027762	1.095942	0.906227
O181	O	-0.527757	0.702336	0.246252
O182	O	-0.027757	1.202336	0.746252
C183	C	-0.739698	0.677951	0.283051
C184	C	-0.239698	1.177951	0.783051
C185	C	-0.763165	0.649212	0.326294
C186	C	-0.263165	1.149212	0.826294
C187	C	-0.739717	0.620458	0.369529
C188	C	-0.239717	1.120458	0.869529
C189	C	-0.810083	0.649225	0.326299
C190	C	-0.310083	1.149225	0.826299
C191	C	-0.833531	0.677979	0.283064
C192	C	-0.333531	1.177979	0.783064
C193	C	-0.810061	0.706721	0.239825
C194	C	-0.310061	1.206721	0.739825
C195	C	-0.763146	0.706705	0.239816
C196	C	-0.263146	1.206705	0.739816
C197	C	-0.763186	0.591716	0.412769
C198	C	-0.263186	1.091716	0.912769
C199	C	-0.810102	0.591733	0.412773
C200	C	-0.310102	1.091733	0.912773
C201	C	-0.833550	0.620488	0.369539
C202	C	-0.333550	1.120488	0.869539
C203	C	-0.099304	0.649249	0.326305
C204	C	0.400696	1.149249	0.826305
C205	C	-0.049370	0.649289	0.326326
C206	C	0.450630	1.149289	0.826326
C207	C	-0.216455	0.649180	0.502800
C208	C	0.283545	1.149180	1.002800
C209	C	-0.216443	0.649191	0.578032
C210	C	0.283557	1.149191	1.078032
C211	C	-0.216502	0.766333	0.326306
C212	C	0.283498	1.266333	0.826306
C213	C	-0.216511	0.816268	0.326327
C214	C	0.283489	1.316268	0.826327
C215	C	-0.216479	0.649156	0.150401
C216	C	0.283521	1.149156	0.650401
C217	C	-0.216364	0.649232	0.075169
C218	C	0.283636	1.149232	0.575169
C219	C	-0.187712	0.677948	0.613401
C220	C	0.312288	1.177948	1.113401
C221	C	-0.187699	0.677953	0.684089
C222	C	0.312301	1.177953	1.184089
C223	C	-0.216419	0.649202	0.719407
C224	C	0.283581	1.149202	1.219407
C225	C	-0.245151	0.620442	0.684033
C226	C	0.254849	1.120442	1.184033
C227	C	-0.245161	0.620435	0.613346
C228	C	0.254839	1.120435	1.113346
C229	C	-0.245109	0.620467	0.969107
C230	C	0.254891	1.120467	1.469107
C231	C	-0.245097	0.620477	1.039799
C232	C	0.254903	1.120477	1.539799
C233	C	-0.187647	0.677985	1.039850
C234	C	0.312353	1.177985	1.539850
C235	C	-0.187657	0.677978	0.969163
C236	C	0.312343	1.177978	1.469163
C237	C	-0.216387	0.649216	0.933795
C238	C	0.283613	1.149216	1.433795
C239	C	-0.216400	0.649211	0.857146
C240	C	0.283600	1.149211	1.357146
C241	C	-0.216408	0.649209	0.796055
C242	C	0.283592	1.149209	1.296055
H243	H	-0.164275	0.478140	0.247816
H244	H	0.335725	0.978140	0.747816
F245	F	-0.304642	0.171349	0.458677
F246	F	0.195358	0.671349	0.958677
H247	H	-0.297445	0.262318	0.447853
H248	H	0.202555	0.762318	0.947853
H249	H	-0.268667	0.393031	0.404626
H250	H	0.231333	0.893031	0.904626
F251	F	-0.275666	0.589875	1.077385
F252	F	0.224334	1.089875	1.577385
F253	F	-0.835072	0.561140	0.458805
F254	F	-0.335072	1.061140	0.958805
H255	H	-0.268703	-0.094255	0.404706
H256	H	0.231297	0.405745	0.904706
F257	F	-0.275895	-0.185243	0.415526
F258	F	0.224105	0.314757	0.915526
H259	H	-0.164318	-0.179372	0.247930
H260	H	0.335682	0.320628	0.747930
H261	H	-0.164305	-0.094264	0.247922
H262	H	0.335695	0.405736	0.747922
H263	H	-0.135523	0.121562	0.204691
H264	H	0.364477	0.621562	0.704691
H265	H	-0.297451	0.121571	0.447884
H266	H	0.202549	0.621571	0.947884
F267	F	-0.304645	0.030588	0.458698
F268	F	0.195355	0.530588	0.958698
F269	F	-0.128313	0.171347	0.193882
F270	F	0.371687	0.671347	0.693882
F271	F	-0.128334	0.030591	0.193904
F272	F	0.371666	0.530591	0.693904
H273	H	-0.268552	0.597014	0.584549
H274	H	0.231448	1.097014	1.084549
F275	F	-0.128309	0.268186	0.193870
F276	F	0.371691	0.768186	0.693870
H277	H	-0.164275	0.393016	0.247832
H278	H	0.335725	0.893016	0.747832
F279	F	-0.275715	0.589841	0.721623
F280	F	0.224285	1.089841	1.221623
F281	F	-0.954011	0.708607	0.237045
F282	F	-0.454011	1.208607	0.737045
H283	H	-0.829161	0.730133	0.204619
H284	H	-0.329161	1.230133	0.704619
F285	F	-0.275860	0.484006	0.415396
F286	F	0.224140	0.984006	0.915396
F287	F	-0.157146	0.708551	0.575819
F288	F	0.342854	1.208551	1.075819
H289	H	-0.387483	0.701239	0.247777
H290	H	0.112517	1.201239	0.747777
F291	F	-0.478454	0.708466	0.236984
F292	F	0.021546	1.208466	0.736984
H293	H	-0.688449	0.568281	0.447980
H294	H	-0.188449	1.068281	0.947980
H295	H	-0.603295	0.730062	0.204576
H296	H	-0.103295	1.230062	0.704576
H297	H	-0.387515	0.596925	0.404677
H298	H	0.112485	1.096925	0.904677
H299	H	-1.045000	0.701446	0.247879
H300	H	-0.545000	1.201446	0.747879
F301	F	-0.157068	0.708595	1.077497
F302	F	0.342932	1.208595	1.577497
H303	H	-0.688402	0.730091	0.204591
H304	H	-0.188402	1.230091	0.704591
H305	H	-0.959916	0.597106	0.404769
H306	H	-0.459916	1.097106	0.904769
F307	F	-1.050892	0.589940	0.415583
F308	F	-0.550892	1.089940	0.915583
H309	H	-0.603341	0.568262	0.447973
H310	H	-0.103341	1.068262	0.947973
F311	F	-0.478505	0.589759	0.415498
F312	F	0.021495	1.089759	0.915498
H313	H	-0.744042	0.730108	0.204600
H314	H	-0.244042	1.230108	0.704600
F315	F	-0.738237	0.561110	0.458788
F316	F	-0.238237	1.061110	0.958788
H317	H	-0.164305	0.701371	0.712884
H318	H	0.335695	1.201371	1.212884
H319	H	-0.164272	0.701391	0.940411
H320	H	0.335728	1.201391	1.440411
H321	H	-0.268509	0.597054	0.940318
H322	H	0.231491	1.097054	1.440318
