data_functionalizedCrystal
_audit_creation_method	'MofGen! by Chris Wilmer'
_symmetry_space_group_name_H-M	'P1'
_symmetry_Int_Tables_number	1
_symmetry_cell_setting	triclinic
loop_
_symmetry_equiv_pos_as_xyz
  x,y,z
_cell_length_a	19.188929
_cell_length_b	19.288840
_cell_length_c	18.366186
_cell_angle_alpha	89.983729
_cell_angle_beta	90.028034
_cell_angle_gamma	96.864604
loop_
_atom_site_label
_atom_site_type_symbol
_atom_site_fract_x
_atom_site_fract_y
_atom_site_fract_z
O1	O	-0.087016	0.921370	-0.060706
O2	O	-0.098784	0.719108	-0.060685
O3	O	0.008757	0.826076	-0.060651
O4	O	-0.194556	0.814402	-0.060740
O5	O	0.008762	0.826058	0.060448
O6	O	-0.098778	0.719090	0.060414
O7	O	-0.087011	0.921352	0.060394
Zn8	Zn	-0.092894	0.820218	0.079631
Zn9	Zn	-0.092901	0.820242	-0.079923
O10	O	-0.194551	0.814384	0.060359
C11	C	-0.098405	0.693222	-0.000132
C12	C	-0.097277	0.616118	-0.000122
C13	C	-0.096738	0.579924	-0.066135
C14	C	-0.095671	0.507477	-0.066143
C15	C	-0.095128	0.471228	-0.000135
C16	C	-0.095671	0.507430	0.065886
C17	C	-0.096746	0.579875	0.065893
C18	C	-0.052528	0.361890	0.050445
C19	C	-0.051449	0.289447	0.050435
C20	C	-0.091817	0.247784	-0.000153
C21	C	-0.133255	0.278575	-0.050744
C22	C	-0.134330	0.351019	-0.050737
C23	C	-0.093963	0.392674	-0.000135
C24	C	-0.090121	0.133035	-0.066179
C25	C	-0.089058	0.060586	-0.066185
C26	C	-0.089052	0.060542	0.065847
C27	C	-0.090122	0.132989	0.065851
C28	C	-0.090653	0.169231	-0.000164
C29	C	-0.220565	0.814771	-0.000202
C30	C	-0.298069	0.815906	-0.000237
C31	C	-0.343003	0.753141	-0.000216
C32	C	-0.415827	0.754207	-0.000199
C33	C	-0.443713	0.818042	-0.000189
C34	C	-0.398769	0.880816	-0.000215
C35	C	-0.325947	0.879748	-0.000238
N36	N	-0.551672	0.866830	0.041064
N37	N	-0.620850	0.867840	0.041088
C38	C	-0.663121	0.821263	-0.000120
N39	N	-0.633602	0.773628	-0.041344
N40	N	-0.564417	0.772616	-0.041364
C41	C	-0.522675	0.819207	-0.000164
C42	C	-0.787020	0.759650	-0.000082
C43	C	-0.859844	0.760719	-0.000070
C44	C	-0.842784	0.887329	-0.000078
C45	C	-0.769961	0.886258	-0.000097
C46	C	-0.742084	0.822417	-0.000096
C47	C	0.034770	0.825689	-0.000091
C48	C	0.112275	0.824554	-0.000061
C49	C	-0.087389	0.947238	-0.000161
C50	C	-0.088517	1.024343	-0.000176
N51	N	-0.092888	0.820207	0.188522
N52	N	-0.092900	0.820259	-0.188814
C53	C	-0.045293	0.867588	0.226638
C54	C	-0.045290	0.867592	0.302865
C55	C	-0.092894	0.820222	0.340975
C56	C	-0.140494	0.772833	0.302850
C57	C	-0.140491	0.772825	0.226624
C58	C	-0.156512	0.810929	0.461708
C59	C	-0.156516	0.810941	0.537933
C60	C	-0.092903	0.820242	0.576082
C61	C	-0.029284	0.829545	0.537997
C62	C	-0.029281	0.829537	0.461771
C63	C	-0.092902	0.820225	0.423630
C64	C	-0.045300	0.867630	0.696853
C65	C	-0.045296	0.867630	0.773082
C66	C	-0.140506	0.772874	0.773065
C67	C	-0.140504	0.772871	0.696838
C68	C	-0.092902	0.820253	0.658736
H69	H	-0.097171	0.609428	-0.119890
H70	H	-0.168071	0.376085	-0.091928
Br71	Br	0.019310	0.931888	0.174928
Br72	Br	-0.749181	0.673010	-0.000082
H73	H	-0.006530	0.906177	0.333905
Br74	Br	0.019304	0.931931	0.645141
H75	H	-0.452420	0.703094	-0.000181
H76	H	-0.017704	0.264384	0.091626
H77	H	-0.179263	0.734292	0.665802
Br78	Br	-0.436612	0.967450	-0.000209
Br79	Br	-0.094941	0.458346	-0.155739
Br80	Br	-0.090851	0.182113	0.155445
Br81	Br	-0.097479	0.628998	0.155489
H82	H	-0.019654	0.395807	0.091643
Br83	Br	-0.264960	0.964936	-0.000267
H84	H	0.022520	0.837110	0.430765
Br85	Br	-0.920829	0.675529	-0.000054
H86	H	-0.095231	0.477912	0.119631
Br87	Br	-0.242855	0.798324	0.589612
Br88	Br	-0.242853	0.798375	0.409942
H89	H	-0.865488	0.939305	-0.000123
H90	H	-0.733375	0.937369	-0.000110
H91	H	-0.166129	0.244654	-0.091935
Br92	Br	0.057054	0.842177	0.589761
Br93	Br	0.019309	0.931931	0.824815
H94	H	-0.320310	0.701156	-0.000221
H95	H	-0.179264	0.734302	0.804093
H96	H	-0.179253	0.734262	0.333883
H97	H	-0.090562	0.162545	-0.119933
Br98	Br	-0.088336	0.011463	-0.155782
Br99	Br	-0.205089	0.708517	0.174891
Br100	Br	-0.088326	0.011354	0.155431
