data_functionalizedCrystal
_audit_creation_method	'MofGen! by Chris Wilmer'
_symmetry_space_group_name_H-M	'P1'
_symmetry_Int_Tables_number	1
_symmetry_cell_setting	triclinic
loop_
_symmetry_equiv_pos_as_xyz
  x,y,z
_cell_length_a	16.992694
_cell_length_b	11.026607
_cell_length_c	15.455313
_cell_angle_alpha	93.255562
_cell_angle_beta	87.142206
_cell_angle_gamma	99.627120
loop_
_atom_site_label
_atom_site_type_symbol
_atom_site_fract_x
_atom_site_fract_y
_atom_site_fract_z
O1	O	1.079936	0.255850	-0.072014
O2	O	0.851247	0.252986	-0.072040
O3	O	0.946638	0.075927	-0.072026
O4	O	0.984545	0.432909	-0.072028
O5	O	0.941177	0.086007	0.072235
O6	O	0.845786	0.263067	0.072221
O7	O	1.074474	0.265931	0.072247
Cu8	Cu	0.959632	0.265419	0.085406
Cu9	Cu	0.966090	0.253498	-0.085199
O10	O	0.979084	0.442990	0.072233
C11	C	0.818785	0.254344	0.000087
C12	C	0.730190	0.243358	0.000077
C13	C	0.694911	0.349355	0.000078
C14	C	0.611666	0.339026	0.000090
C15	C	0.563702	0.222699	0.000095
C16	C	0.598986	0.116694	0.000098
C17	C	0.682229	0.127024	0.000092
C18	C	0.314060	0.179884	0.000119
C19	C	0.230811	0.169561	0.000122
C20	C	0.243497	0.391895	0.000115
C21	C	0.326741	0.402215	0.000104
C22	C	0.362018	0.296210	0.000111
N23	N	0.478612	0.212138	0.000105
N24	N	0.447106	0.306772	0.000108
C25	C	0.936914	0.035078	0.000103
C26	C	0.916067	-0.101658	0.000097
C27	C	0.973629	-0.169881	0.000103
C28	C	0.952084	-0.311205	0.000097
C29	C	1.106937	0.264572	0.000118
C30	C	1.195532	0.275558	0.000122
C31	C	0.988808	0.483838	0.000102
C32	C	1.009655	0.620574	0.000102
N33	N	0.955095	0.273804	0.205401
N34	N	0.970632	0.245104	-0.205194
C35	C	0.995642	0.198614	0.250801
C36	C	0.992220	0.204967	0.341609
C37	C	0.948255	0.286517	0.387014
C38	C	0.907702	0.361709	0.341608
C39	C	0.911120	0.355349	0.250802
C40	C	0.933497	0.313936	0.658594
C41	C	0.930084	0.320293	0.749406
C42	C	1.014601	0.163549	0.749400
C43	C	1.018019	0.157201	0.658593
C44	C	0.977463	0.232389	0.613194
N45	N	0.944758	0.293015	0.479834
N46	N	0.980956	0.225883	0.520376
H47	H	0.191760	0.074828	0.000126
C48	C	0.378921	0.528435	0.000208
C49	C	0.424317	0.546056	0.074399
C50	C	0.472408	0.662303	0.074501
H51	H	0.346095	0.590219	0.000246
H52	H	0.413588	0.533542	-0.050085
H53	H	0.389653	0.540960	0.124679
H54	H	0.457157	0.484300	0.074377
H55	H	0.507075	0.667411	0.024208
H56	H	0.439576	0.724078	0.074537
H57	H	0.503220	0.674270	0.124834
H58	H	0.582946	0.425341	0.000089
C59	C	0.352204	0.064646	0.000078
C60	C	0.292380	-0.039437	0.000059
C61	C	0.327492	-0.145620	0.000011
H62	H	0.382508	0.067393	0.050371
H63	H	0.386292	0.060462	-0.050249
H64	H	0.258306	-0.035254	0.050382
H65	H	0.262072	-0.042225	-0.050230
H66	H	0.361580	-0.149804	-0.050317
H67	H	0.357795	-0.142860	0.050305
H68	H	0.286908	-0.216253	-0.000010
H69	H	0.894281	0.386706	0.786371
C70	C	0.546879	-0.009587	-0.000075
C71	C	0.501534	-0.027212	-0.074304
C72	C	0.453533	-0.143536	-0.074501
H73	H	0.512173	-0.014853	0.050174
H74	H	0.579788	-0.071280	-0.000121
H75	H	0.468628	0.034463	-0.074249
H76	H	0.536219	-0.021971	-0.124565
H77	H	0.486442	-0.205228	-0.074547
H78	H	0.418833	-0.148791	-0.024249
H79	H	0.422767	-0.155514	-0.124868
C80	C	0.829040	-0.163043	0.000041
C81	C	0.780112	-0.072716	0.000015
C82	C	0.699937	-0.129215	-0.000049
H83	H	0.816498	-0.209340	0.050330
H84	H	0.820384	-0.216334	-0.050290
H85	H	0.788764	-0.019447	0.050341
H86	H	0.792628	-0.026414	-0.050271
H87	H	0.691281	-0.182505	-0.050380
H88	H	0.687404	-0.175510	0.050241
H89	H	0.666730	-0.067938	-0.000074
H90	H	1.074893	-0.333219	0.000044
H91	H	1.031448	0.132213	0.213838
H92	H	0.214765	0.478198	0.000111
H93	H	1.025236	0.143741	0.378573
H94	H	0.900477	0.375160	0.621637
H95	H	1.053819	0.090797	0.621625
H96	H	1.047619	0.102333	0.786372
C97	C	1.060630	-0.108345	-0.000069
C98	C	1.101152	-0.149280	-0.074297
C99	C	1.181298	-0.092610	-0.074492
H100	H	1.084555	-0.128927	0.050181
H101	H	1.063584	-0.021544	-0.000116
H102	H	1.098203	-0.236062	-0.074242
H103	H	1.077252	-0.128699	-0.124559
H104	H	1.184251	-0.005809	-0.074539
H105	H	1.205214	-0.113196	-0.024239
H106	H	1.208800	-0.120368	-0.124858
C107	C	0.860043	0.450216	0.391060
C108	C	0.865747	0.439722	0.480301
C109	C	0.821864	0.521251	0.525880
H110	H	0.805628	0.430705	0.376293
H111	H	0.880835	0.532163	0.376217
H112	H	0.844952	0.357793	0.495138
H113	H	0.920151	0.459244	0.495093
H114	H	0.842655	0.603198	0.511038
H115	H	0.767451	0.501733	0.511107
H116	H	0.825733	0.514150	0.586435
C117	C	0.746845	0.475770	0.000115
C118	C	0.698127	0.566388	0.000141
C119	C	0.745937	0.682859	0.000190
H120	H	0.781491	0.481084	-0.050181
H121	H	0.777671	0.488004	0.050440
H122	H	0.667314	0.554159	-0.050178
H123	H	0.663481	0.561114	0.050433
H124	H	0.776763	0.695092	0.050515
H125	H	0.780581	0.688159	-0.050106
H126	H	0.712888	0.744357	0.000216
C127	C	0.867078	0.437134	0.201664
C128	C	0.827861	0.509938	0.260862
C129	C	0.787285	0.585303	0.215629
H130	H	0.829014	0.387289	0.166247
H131	H	0.904227	0.488736	0.166250
H132	H	0.790715	0.458342	0.296260
H133	H	0.865906	0.559808	0.296281
H134	H	0.824435	0.636905	0.180215
H135	H	0.749226	0.535449	0.180213
H136	H	0.760678	0.634717	0.255787
H137	H	0.710952	0.040709	0.000091
H138	H	0.886850	-0.357418	0.000084
