data_functionalizedCrystal
_audit_creation_method	'MofGen! by Chris Wilmer'
_symmetry_space_group_name_H-M	'P1'
_symmetry_Int_Tables_number	1
_symmetry_cell_setting	triclinic
loop_
_symmetry_equiv_pos_as_xyz
  x,y,z
_cell_length_a	19.288864
_cell_length_b	17.766277
_cell_length_c	19.288862
_cell_angle_alpha	90.015225
_cell_angle_beta	83.135763
_cell_angle_gamma	90.012907
loop_
_atom_site_label
_atom_site_type_symbol
_atom_site_fract_x
_atom_site_fract_y
_atom_site_fract_z
O1	O	-0.921342	-0.062848	-0.086651
O2	O	-0.588008	0.270485	0.246682
O3	O	-0.254675	0.603819	0.580015
O4	O	-0.719081	-0.062798	-0.098340
O5	O	-0.385748	0.270535	0.234993
O6	O	-0.052414	0.603869	0.568326
O7	O	-0.826056	-0.062805	0.008635
O8	O	-0.492723	0.270528	0.341968
O9	O	-0.159390	0.603862	0.675301
O10	O	-0.814366	-0.062841	-0.193626
O11	O	-0.481033	0.270493	0.139707
O12	O	-0.147699	0.603826	0.473040
O13	O	-0.826059	0.062383	0.008645
O14	O	-0.492726	0.395717	0.341979
O15	O	-0.159392	0.729050	0.675312
O16	O	-0.719084	0.062390	-0.098330
O17	O	-0.385750	0.395724	0.235004
O18	O	-0.052417	0.729057	0.568337
O19	O	-0.921344	0.062341	-0.086641
O20	O	-0.588011	0.395674	0.246693
O21	O	-0.254678	0.729007	0.580026
Cu22	Cu	-0.820214	0.073796	-0.092484
Cu23	Cu	-0.486881	0.407130	0.240849
Cu24	Cu	-0.153547	0.740463	0.574182
Cu25	Cu	-0.820211	-0.074254	-0.092497
Cu26	Cu	-0.486878	0.259080	0.240836
Cu27	Cu	-0.153544	0.592413	0.574170
O28	O	-0.814369	0.062348	-0.193616
O29	O	-0.481035	0.395681	0.139718
O30	O	-0.147702	0.729014	0.473051
C31	C	-0.693206	-0.000197	-0.097959
C32	C	-0.359872	0.333136	0.235375
C33	C	-0.026539	0.666470	0.568708
C34	C	-0.616102	-0.000177	-0.096830
C35	C	-0.282769	0.333156	0.236504
C36	C	0.050564	0.666489	0.569837
C37	C	-0.825682	-0.000207	0.034516
C38	C	-0.492349	0.333126	0.367850
C39	C	-0.159015	0.666459	0.701183
C40	C	-0.824554	-0.000197	0.111620
C41	C	-0.491220	0.333136	0.444953
C42	C	-0.157887	0.666469	0.778287
N43	N	-0.820209	-0.178384	-0.092501
N44	N	-0.486876	0.154949	0.240833
N45	N	-0.153543	0.488283	0.574166
C46	C	-0.947219	-0.000262	-0.087022
C47	C	-0.613886	0.333071	0.246311
C48	C	-0.280553	0.666405	0.579644
C49	C	-1.024323	-0.000287	-0.088151
C50	C	-0.690990	0.333047	0.245182
C51	C	-0.357656	0.666380	0.578515
C52	C	-0.571405	-0.000200	-0.159598
C53	C	-0.238072	0.333133	0.173736
C54	C	0.095261	0.666467	0.507069
C55	C	-0.498958	-0.000208	-0.158537
C56	C	-0.165625	0.333125	0.174796
C57	C	0.167708	0.666458	0.508130
C58	C	-0.471211	-0.000209	-0.094705
C59	C	-0.137878	0.333125	0.238629
C60	C	0.195455	0.666458	0.571962
C61	C	-0.515918	-0.000181	-0.031929
C62	C	-0.182585	0.333152	0.301405
C63	C	0.150749	0.666485	0.634738
C64	C	-0.588363	-0.000166	-0.032991
C65	C	-0.255030	0.333168	0.300342
C66	C	0.078303	0.666501	0.633676
C67	C	-0.362949	-0.044084	-0.044529
C68	C	-0.029615	0.289249	0.288804
C69	C	0.303718	0.622583	0.622137
C70	C	-0.290504	-0.044104	-0.043470
C71	C	0.042829	0.289229	0.289864
C72	C	0.376162	0.622562	0.623197
C73	C	-0.247766	-0.000254	-0.091425
C74	C	0.085568	0.333080	0.241908
C75	C	0.418901	0.666413	0.575241
C76	C	-0.277479	0.043608	-0.140453
C77	C	0.055854	0.376941	0.192881
C78	C	0.389188	0.710275	0.526214
C79	C	-0.349924	0.043624	-0.141515
C80	C	-0.016591	0.376957	0.191818
C81	C	0.316742	0.710290	0.525152
C82	C	-0.392657	-0.000225	-0.093546
C83	C	-0.059324	0.333108	0.239788
C84	C	0.274009	0.666442	0.573121
C85	C	-0.124513	-0.000284	-0.153047
C86	C	0.208820	0.333049	0.180286
C87	C	0.542154	0.666382	0.513619
C88	C	-0.052065	-0.000288	-0.151984
C89	C	0.281268	0.333046	0.181349
C90	C	0.614602	0.666379	0.514683
C91	C	-0.069026	-0.000268	-0.025374
C92	C	0.264307	0.333065	0.307960
C93	C	0.597640	0.666398	0.641293
C94	C	-0.141473	-0.000257	-0.026439
C95	C	0.191861	0.333076	0.306894
C96	C	0.525194	0.666409	0.640228
C97	C	-0.169211	-0.000269	-0.090278
C98	C	0.164122	0.333064	0.243056
C99	C	0.497455	0.666398	0.576389
C100	C	-0.867662	-0.217774	-0.045224
C101	C	-0.534329	0.115559	0.288109
C102	C	-0.200995	0.448893	0.621442
C103	C	-0.867668	-0.296576	-0.045223
C104	C	-0.534335	0.036757	0.288110
C105	C	-0.201002	0.370091	0.621443
C106	C	-0.820209	-0.335985	-0.092492
C107	C	-0.486876	-0.002651	0.240842
C108	C	-0.153543	0.330682	0.574175
C109	C	-0.772753	-0.296585	-0.139777
C110	C	-0.439419	0.036748	0.193557
C111	C	-0.106086	0.370082	0.526890
C112	C	-0.772753	-0.217785	-0.139781
C113	C	-0.439419	0.115549	0.193552
C114	C	-0.106086	0.448882	0.526885
C115	C	-0.756922	-0.460815	-0.101637
C116	C	-0.423588	-0.127482	0.231696
C117	C	-0.090255	0.205852	0.565030
C118	C	-0.756921	-0.539614	-0.101628
C119	C	-0.423588	-0.206281	0.231706
C120	C	-0.090254	0.127053	0.565039
C121	C	-0.820210	-0.579031	-0.092482
C122	C	-0.486876	-0.245698	0.240852
C123	C	-0.153543	0.087636	0.574185
C124	C	-0.883502	-0.539639	-0.083331
C125	C	-0.550169	-0.206306	0.250003
C126	C	-0.216835	0.127027	0.583336
C127	C	-0.883502	-0.460839	-0.083335
C128	C	-0.550169	-0.127506	0.249998
C129	C	-0.216835	0.205828	0.583332
C130	C	-0.820204	-0.421430	-0.092492
C131	C	-0.486871	-0.088097	0.240841
C132	C	-0.153538	0.245236	0.574174
C133	C	-0.867673	-0.703867	-0.045202
C134	C	-0.534340	-0.370534	0.288132
C135	C	-0.201006	-0.037200	0.621465
C136	C	-0.867680	-0.782670	-0.045205
C137	C	-0.534347	-0.449337	0.288128
C138	C	-0.201013	-0.116004	0.621461
C139	C	-0.772759	-0.782678	-0.139755
C140	C	-0.439425	-0.449344	0.193578
C141	C	-0.106092	-0.116011	0.526911
C142	C	-0.772758	-0.703876	-0.139755
C143	C	-0.439424	-0.370543	0.193578
C144	C	-0.106091	-0.037209	0.526912
C145	C	-0.820214	-0.664475	-0.092474
C146	C	-0.486881	-0.331142	0.240859
C147	C	-0.153547	0.002191	0.574192
N148	N	-0.820221	0.177927	-0.092475
N149	N	-0.486888	0.511260	0.240858
N150	N	-0.153555	0.844593	0.574192
C151	C	-0.887322	-0.000207	0.156316
C152	C	-0.553988	0.333126	0.489650
C153	C	-0.220655	0.666459	0.822983
C154	C	-0.886262	-0.000216	0.228764
C155	C	-0.552928	0.333118	0.562097
C156	C	-0.219595	0.666451	0.895430
C157	C	-0.822430	-0.000199	0.256511
C158	C	-0.489096	0.333134	0.589844
C159	C	-0.155763	0.666467	0.923178
C160	C	-0.759653	-0.000193	0.211805
C161	C	-0.426320	0.333140	0.545138
C162	C	-0.092987	0.666473	0.878472
C163	C	-0.760715	-0.000192	0.139359
C164	C	-0.427382	0.333141	0.472693
C165	C	-0.094049	0.666474	0.806026
C166	C	-0.772252	0.043669	0.364802
C167	C	-0.438919	0.377002	0.698136
C168	C	-0.105585	0.710335	1.031469
C169	C	-0.771193	0.043672	0.437247
C170	C	-0.437860	0.377006	0.770580
C171	C	-0.104526	0.710339	1.103914
C172	C	-0.819152	-0.000206	0.479957
C173	C	-0.485819	0.333128	0.813290
C174	C	-0.152485	0.666461	1.146624
C175	C	-0.868182	-0.044078	0.450215
C176	C	-0.534849	0.289256	0.783548
C177	C	-0.201516	0.622589	1.116882
C178	C	-0.869244	-0.044077	0.377770
C179	C	-0.535911	0.289257	0.711103
C180	C	-0.202578	0.622590	1.044436
C181	C	-0.821271	-0.000201	0.335065
C182	C	-0.487938	0.333133	0.668399
C183	C	-0.154605	0.666466	1.001732
C184	C	-0.880775	-0.000226	0.603209
C185	C	-0.547442	0.333107	0.936543
C186	C	-0.214109	0.666441	1.269876
C187	C	-0.879713	-0.000239	0.675658
C188	C	-0.546379	0.333094	1.008991
C189	C	-0.213046	0.666427	1.342324
C190	C	-0.753102	-0.000209	0.658697
C191	C	-0.419769	0.333124	0.992031
C192	C	-0.086436	0.666457	1.325364
C193	C	-0.754167	-0.000204	0.586251
C194	C	-0.420833	0.333130	0.919584
C195	C	-0.087500	0.666463	1.252917
C196	C	-0.818005	-0.000208	0.558511
C197	C	-0.484672	0.333125	0.891845
C198	C	-0.151339	0.666458	1.225178
C199	C	-0.814745	-0.000241	0.780503
C200	C	-0.481412	0.333093	1.113836
C201	C	-0.148079	0.666426	1.447170
C202	C	-0.815880	-0.000224	0.703400
C203	C	-0.482547	0.333109	1.036733
C204	C	-0.149213	0.666443	1.370067
H205	H	-0.593985	-0.000211	-0.211580
H206	H	-0.260652	0.333122	0.121753
H207	H	0.072682	0.666456	0.455087
C208	C	-0.682886	-0.000194	0.689207
C209	C	-0.349553	0.333139	1.022541
C210	C	-0.016220	0.666473	1.355874
H211	H	-0.645655	-0.000191	0.652208
H212	H	-0.312321	0.333143	0.985542
H213	H	0.021012	0.666476	1.318875
H214	H	-0.679839	0.043460	0.717130
H215	H	-0.346506	0.376793	1.050463
H216	H	-0.013172	0.710127	1.383797
H217	H	-0.679842	-0.043858	0.717101
H218	H	-0.346508	0.289476	1.050435
H219	H	-0.013175	0.622809	1.383768
H220	H	-0.462559	-0.000225	-0.209652
H221	H	-0.129226	0.333109	0.123681
H222	H	0.204108	0.666442	0.457015
H223	H	-0.906312	-0.328653	-0.006724
H224	H	-0.572978	0.004680	0.326609
H225	H	-0.239645	0.338013	0.659943
H226	H	-0.374114	0.079340	-0.181433
H227	H	-0.040781	0.412673	0.151901
H228	H	0.292553	0.746006	0.485234
C229	C	-0.637535	-0.000146	0.036055
C230	C	-0.304202	0.333187	0.369388
C231	C	0.029132	0.666520	0.702721
H232	H	-0.684654	-0.000135	0.026279
H233	H	-0.351321	0.333199	0.359612
H234	H	-0.017987	0.666532	0.692946
H235	H	-0.629161	-0.043799	0.062237
H236	H	-0.295828	0.289534	0.395570
H237	H	0.037505	0.622868	0.728903
H238	H	-0.629133	0.043519	0.062241
H239	H	-0.295799	0.376852	0.395574
H240	H	0.037534	0.710185	0.728908
C241	C	-0.720555	-0.826014	-0.191753
C242	C	-0.387222	-0.492681	0.141580
C243	C	-0.053889	-0.159347	0.474913
H244	H	-0.692295	-0.791265	-0.219913
H245	H	-0.358961	-0.457932	0.113421
H246	H	-0.025628	-0.124598	0.446754
H247	H	-0.691776	-0.856741	-0.166781
H248	H	-0.358443	-0.523408	0.166552
H249	H	-0.025110	-0.190074	0.499885
H250	H	-0.745394	-0.856767	-0.220659
H251	H	-0.412061	-0.523433	0.112674
H252	H	-0.078727	-0.190100	0.446008
H253	H	-0.733196	0.079404	0.330033
H254	H	-0.399863	0.412737	0.663366
H255	H	-0.066530	0.746070	0.996700
H256	H	-0.906306	-0.185696	-0.006727
H257	H	-0.572972	0.147637	0.326606
H258	H	-0.239639	0.480970	0.659939
H259	H	-0.266317	-0.079822	-0.003551
H260	H	0.067016	0.253511	0.329782
H261	H	0.400349	0.586845	0.663115
H262	H	-0.397742	-0.079797	-0.005477
H263	H	-0.064408	0.253536	0.327857
H264	H	0.268925	0.586869	0.661190
C265	C	-0.485399	-0.000186	0.038285
C266	C	-0.152066	0.333147	0.371618
C267	C	0.181267	0.666480	0.704951
H268	H	-0.435851	-0.000207	0.029928
H269	H	-0.102518	0.333126	0.363262
H270	H	0.230815	0.666459	0.696595
H271	H	-0.500737	0.043476	0.064127
H272	H	-0.167403	0.376809	0.397460
H273	H	0.165930	0.710143	0.730793
H274	H	-0.500775	-0.043842	0.064114
H275	H	-0.167441	0.289492	0.397447
H276	H	0.165892	0.622825	0.730781
C277	C	-0.689438	-0.000178	0.242321
C278	C	-0.356105	0.333155	0.575654
C279	C	-0.022772	0.666489	0.908988
H280	H	-0.652206	-0.000179	0.205322
H281	H	-0.318873	0.333155	0.538655
H282	H	0.014460	0.666488	0.871989
H283	H	-0.686389	0.043477	0.270241
H284	H	-0.353056	0.376811	0.603574
H285	H	-0.019722	0.710144	0.936908
H286	H	-0.686396	-0.043840	0.270217
H287	H	-0.353063	0.289493	0.603550
H288	H	-0.019730	0.622826	0.936884
H289	H	-0.703054	-0.000191	0.549858
H290	H	-0.369721	0.333142	0.883191
H291	H	-0.036387	0.666475	1.216524
H292	H	-0.937377	-0.000227	0.265162
H293	H	-0.604043	0.333106	0.598496
H294	H	-0.270710	0.666440	0.931829
H295	H	-0.242682	0.079316	-0.179502
H296	H	0.090651	0.412649	0.153831
H297	H	0.423984	0.745983	0.487164
C298	C	-0.691667	-0.000174	0.090191
C299	C	-0.358334	0.333159	0.423525
C300	C	-0.025001	0.666492	0.756858
H301	H	-0.653498	-0.000162	0.117090
H302	H	-0.320164	0.333171	0.450423
H303	H	0.013169	0.666504	0.783756
H304	H	-0.689449	-0.043826	0.061562
H305	H	-0.356115	0.289507	0.394896
H306	H	-0.022782	0.622840	0.728229
H307	H	-0.689453	0.043491	0.061594
H308	H	-0.356119	0.376825	0.394927
H309	H	-0.022786	0.710158	0.728261
C310	C	-0.923166	-0.092340	0.345054
C311	C	-0.589832	0.240994	0.678388
C312	C	-0.256499	0.574327	1.011721
H313	H	-0.951575	-0.118478	0.380861
H314	H	-0.618242	0.214855	0.714195
H315	H	-0.284908	0.548188	1.047528
H316	H	-0.951626	-0.060729	0.320555
H317	H	-0.618293	0.272604	0.653888
H318	H	-0.284959	0.605937	0.987221
H319	H	-0.899556	-0.127602	0.313570
H320	H	-0.566222	0.205732	0.646903
H321	H	-0.232889	0.539065	0.980236
H322	H	-0.705385	-0.571680	-0.109071
H323	H	-0.372051	-0.238347	0.224262
H324	H	-0.038718	0.094986	0.557596
H325	H	-0.731267	0.079391	0.461456
H326	H	-0.397933	0.412725	0.794790
H327	H	-0.064600	0.746058	1.128123
H328	H	-0.147099	-0.000282	-0.205029
H329	H	0.186234	0.333051	0.128305
H330	H	0.519568	0.666384	0.461638
H331	H	-0.705381	-0.428728	-0.109088
H332	H	-0.372048	-0.095395	0.224245
H333	H	-0.038714	0.237938	0.557579
C334	C	-0.002898	-0.000313	-0.221033
C335	C	0.330436	0.333020	0.112301
C336	C	0.663769	0.666354	0.445634
H337	H	-0.029797	-0.000325	-0.259202
H338	H	0.303536	0.333009	0.074132
H339	H	0.636870	0.666342	0.407465
H340	H	0.025732	0.043337	-0.223251
H341	H	0.359065	0.376670	0.110082
H342	H	0.692399	0.710004	0.443415
H343	H	0.025699	-0.043980	-0.223248
H344	H	0.359032	0.289353	0.110085
H345	H	0.692366	0.622686	0.443419
C346	C	-0.920937	-0.092351	0.497186
C347	C	-0.587603	0.240982	0.830519
C348	C	-0.254270	0.574316	1.163852
H349	H	-0.913278	-0.086078	0.544591
H350	H	-0.579945	0.247255	0.877924
H351	H	-0.246611	0.580588	1.211257
H352	H	-0.967068	-0.076944	0.491476
H353	H	-0.633734	0.256389	0.824810
H354	H	-0.300401	0.589722	1.158143
H355	H	-0.914998	-0.143817	0.484476
H356	H	-0.581665	0.189516	0.817809
H357	H	-0.248331	0.522849	1.151142
C358	C	-0.953115	-0.417507	-0.073273
C359	C	-0.619782	-0.084174	0.260060
C360	C	-0.286448	0.249159	0.593393
H361	H	-0.944047	-0.364933	-0.074581
H362	H	-0.610714	-0.031600	0.258752
H363	H	-0.277381	0.301734	0.592086
H364	H	-0.980142	-0.430438	-0.109588
H365	H	-0.646809	-0.097105	0.223745
H366	H	-0.313476	0.236228	0.557079
H367	H	-0.978098	-0.430410	-0.029433
H368	H	-0.644764	-0.097077	0.303900
H369	H	-0.311431	0.236256	0.637234
C370	C	-0.038513	-0.000273	0.044841
C371	C	0.294820	0.333060	0.378174
C372	C	0.628153	0.666393	0.711507
H373	H	0.011035	-0.000291	0.036485
H374	H	0.344368	0.333042	0.369818
H375	H	0.677701	0.666375	0.703151
H376	H	-0.053853	0.043387	0.070684
H377	H	0.279480	0.376720	0.404018
H378	H	0.612813	0.710053	0.737351
H379	H	-0.053887	-0.043931	0.070667
H380	H	0.279447	0.289402	0.404001
H381	H	0.612780	0.622736	0.737334
H382	H	-0.935038	-0.571731	-0.075888
H383	H	-0.601705	-0.238398	0.257445
H384	H	-0.268371	0.094936	0.590778
C385	C	-0.190641	-0.000244	0.042607
C386	C	0.142692	0.333089	0.375940
C387	C	0.476025	0.666423	0.709273
H388	H	-0.163742	-0.000252	0.080776
H389	H	0.169591	0.333082	0.414109
H390	H	0.502924	0.666415	0.747443
H391	H	-0.219240	0.043417	0.044830
H392	H	0.114093	0.376750	0.378163
H393	H	0.447426	0.710084	0.711496
H394	H	-0.219268	-0.043901	0.044817
H395	H	0.114065	0.289433	0.378151
H396	H	0.447398	0.622766	0.711484
H397	H	-0.939304	-0.000214	0.133736
H398	H	-0.605971	0.333120	0.467069
H399	H	-0.272637	0.666453	0.800403
C400	C	-0.919876	-0.660520	0.006797
C401	C	-0.586543	-0.327186	0.340130
C402	C	-0.253209	0.006147	0.673463
H403	H	-0.913073	-0.607947	0.000030
H404	H	-0.579740	-0.274613	0.333363
H405	H	-0.246407	0.058720	0.666696
H406	H	-0.966182	-0.673445	-0.000718
H407	H	-0.632848	-0.340112	0.332615
H408	H	-0.299515	-0.006778	0.665949
H409	H	-0.912567	-0.673418	0.053162
H410	H	-0.579234	-0.340085	0.386496
H411	H	-0.245900	-0.006752	0.719829
C412	C	-0.919880	-0.826000	0.006802
C413	C	-0.586547	-0.492666	0.340135
C414	C	-0.253214	-0.159333	0.673469
H415	H	-0.948137	-0.791245	0.034962
H416	H	-0.614803	-0.457912	0.368295
H417	H	-0.281470	-0.124578	0.701629
H418	H	-0.948663	-0.856755	-0.018165
H419	H	-0.615330	-0.523422	0.315168
H420	H	-0.281997	-0.190088	0.648501
H421	H	-0.895040	-0.856723	0.035707
H422	H	-0.561707	-0.523390	0.369040
H423	H	-0.228373	-0.190057	0.702373
C424	C	-0.720554	-0.660545	-0.191755
C425	C	-0.387221	-0.327211	0.141579
C426	C	-0.053887	0.006122	0.474912
H427	H	-0.692286	-0.695299	-0.219904
H428	H	-0.358953	-0.361966	0.113430
H429	H	-0.025619	-0.028632	0.446763
H430	H	-0.745386	-0.629820	-0.220660
H431	H	-0.412053	-0.296487	0.112673
H432	H	-0.078719	0.036846	0.446007
H433	H	-0.691772	-0.629790	-0.166779
H434	H	-0.358439	-0.296457	0.166555
H435	H	-0.025106	0.036877	0.499888
H436	H	-0.734112	-0.328675	-0.178265
H437	H	-0.400779	0.004658	0.155069
H438	H	-0.067446	0.337991	0.488402
C439	C	-0.720543	-0.174454	-0.191778
C440	C	-0.387210	0.158880	0.141555
C441	C	-0.053876	0.492213	0.474889
H442	H	-0.692274	-0.209207	-0.219927
H443	H	-0.358941	0.124126	0.113407
H444	H	-0.025607	0.457460	0.446740
H445	H	-0.745368	-0.143723	-0.220684
H446	H	-0.412035	0.189610	0.112649
H447	H	-0.078701	0.522944	0.445982
H448	H	-0.691763	-0.143705	-0.166794
H449	H	-0.358430	0.189628	0.166539
H450	H	-0.025097	0.522961	0.499873
C451	C	-0.950993	-0.000240	0.572693
C452	C	-0.617660	0.333093	0.906026
C453	C	-0.284326	0.666427	1.239359
H454	H	-0.988225	-0.000258	0.609691
H455	H	-0.654892	0.333075	0.943025
H456	H	-0.321558	0.666408	1.276358
H457	H	-0.954041	0.043417	0.544798
H458	H	-0.620708	0.376751	0.878131
H459	H	-0.287374	0.710084	1.211464
H460	H	-0.954036	-0.043900	0.544771
H461	H	-0.620703	0.289433	0.878104
H462	H	-0.287370	0.622766	1.211438
C463	C	-0.948759	-0.000259	0.724827
C464	C	-0.615426	0.333074	1.058161
C465	C	-0.282093	0.666408	1.391494
H466	H	-0.938986	-0.000270	0.771947
H467	H	-0.605652	0.333063	1.105280
H468	H	-0.272319	0.666397	1.438613
H469	H	-0.974946	0.043392	0.716455
H470	H	-0.641612	0.376725	1.049788
H471	H	-0.308279	0.710058	1.383122
H472	H	-0.974940	-0.043926	0.716421
H473	H	-0.641607	0.289408	1.049755
H474	H	-0.308274	0.622741	1.383088
