data_functionalizedCrystal
_audit_creation_method	'MofGen! by Chris Wilmer'
_symmetry_space_group_name_H-M	'P1'
_symmetry_Int_Tables_number	1
_symmetry_cell_setting	triclinic
loop_
_symmetry_equiv_pos_as_xyz
  x,y,z
_cell_length_a	17.000371
_cell_length_b	17.038272
_cell_length_c	15.500346
_cell_angle_alpha	92.974377
_cell_angle_beta	93.369380
_cell_angle_gamma	83.355402
loop_
_atom_site_label
_atom_site_type_symbol
_atom_site_fract_x
_atom_site_fract_y
_atom_site_fract_z
O1	O	1.061505	0.031029	0.071947
O2	O	0.831685	0.059274	0.071948
O3	O	0.945229	-0.068571	0.071941
O4	O	0.947961	0.158873	0.071955
O5	O	0.938211	-0.074546	-0.071946
O6	O	0.824667	0.053299	-0.071938
O7	O	1.054488	0.025054	-0.071939
Cu8	Cu	0.938937	0.038631	-0.085077
Cu9	Cu	0.947236	0.045697	0.085086
O10	O	0.940944	0.152898	-0.071932
C11	C	0.798625	0.057803	0.000005
C12	C	0.710572	0.062314	0.000005
C13	C	0.673845	-0.007108	-0.000000
C14	C	0.591110	-0.002864	0.000006
C15	C	0.545103	0.070802	0.000012
C16	C	0.581835	0.140230	0.000021
C17	C	0.664569	0.135985	0.000020
C18	C	0.295067	0.087196	0.000019
C19	C	0.212327	0.091435	0.000017
C20	C	0.221609	-0.051659	0.000004
C21	C	0.304344	-0.055897	-0.000001
C22	C	0.341069	0.013531	0.000011
C23	C	0.460534	0.075142	0.000016
C24	C	0.425637	0.009191	0.000014
C25	C	0.939235	-0.100517	-0.000002
C26	C	0.931823	-0.186802	-0.000002
C27	C	0.999881	-0.241577	-0.000003
C28	C	0.992912	-0.322650	0.000005
C29	C	0.917883	-0.348946	0.000008
C30	C	0.849819	-0.294164	0.000012
C31	C	0.856790	-0.213092	0.000010
C32	C	0.893257	-0.593017	0.000020
C33	C	0.886292	-0.674095	0.000020
C34	C	1.029385	-0.702576	0.000014
C35	C	1.036349	-0.621502	0.000007
C36	C	0.968285	-0.566727	0.000015
C37	C	0.910757	-0.431815	0.000014
C38	C	0.975412	-0.483859	0.000016
C39	C	1.087547	0.026524	0.000006
C40	C	1.175601	0.022013	0.000011
C41	C	0.946937	0.184844	0.000013
C42	C	0.954350	0.271129	0.000018
N43	N	0.933106	0.033660	-0.204760
C44	C	0.904034	0.008631	-0.749940
C45	C	0.908441	0.012421	-0.659368
C46	C	0.961883	0.058245	-0.614090
C47	C	1.010927	0.100277	-0.659387
C48	C	1.006523	0.096482	-0.749957
C49	C	0.977746	0.071896	-0.340628
C50	C	0.982144	0.075690	-0.250051
C51	C	0.879659	-0.012168	-0.250038
C52	C	0.875257	-0.015955	-0.340610
C53	C	0.924303	0.026073	-0.385900
C54	C	0.966387	0.062122	-0.521511
C55	C	0.919803	0.022192	-0.478477
N56	N	0.953073	0.050661	0.204769
H57	H	0.191698	-0.108182	0.000003
H58	H	1.017683	0.106120	-0.377492
Br59	Br	1.054698	0.137861	-0.188602
H60	H	0.876293	-0.015122	-0.515346
H61	H	0.868511	-0.021807	-0.622496
H62	H	0.561211	-0.059395	0.000002
Br63	Br	1.121751	-0.776917	0.000003
Br64	Br	0.488076	-0.090781	0.000011
Br65	Br	0.344898	0.181420	0.000038
H66	H	1.054444	0.137584	-0.622515
H67	H	1.046456	0.130707	-0.786832
H68	H	0.423065	0.135121	0.000020
Br69	Br	1.101710	-0.205899	-0.000020
Br70	Br	0.714413	0.230205	0.000036
H71	H	1.048332	-0.367246	0.000002
H72	H	1.097445	-0.600099	0.000004
H73	H	1.009899	0.099434	-0.484635
H74	H	0.825191	-0.695501	0.000008
Br75	Br	0.831497	-0.053557	-0.811380
Br76	Br	0.800885	-0.518689	0.000037
Br77	Br	0.764421	-0.138752	0.000019
Br78	Br	0.366777	-0.155876	-0.000020
H79	H	0.788729	-0.315580	0.000020
H80	H	0.831740	-0.053272	-0.377470
H81	H	1.036501	-0.462444	0.000032
Br82	Br	0.813101	-0.069204	-0.188569
H83	H	0.711299	-0.067095	-0.000009
Br84	Br	0.519397	0.240207	0.000041
H85	H	0.849668	-0.453235	0.000015
H86	H	0.174869	0.151426	0.000018
