data_functionalizedCrystal
_audit_creation_method	'MofGen! by Chris Wilmer'
_symmetry_space_group_name_H-M	'P1'
_symmetry_Int_Tables_number	1
_symmetry_cell_setting	triclinic
loop_
_symmetry_equiv_pos_as_xyz
  x,y,z
_cell_length_a	14.421503
_cell_length_b	16.109301
_cell_length_c	16.109301
_cell_angle_alpha	83.461481
_cell_angle_beta	90.002868
_cell_angle_gamma	89.995091
loop_
_atom_site_label
_atom_site_type_symbol
_atom_site_fract_x
_atom_site_fract_y
_atom_site_fract_z
O1	O	0.077056	-1.103137	-0.106856
O2	O	0.077071	-0.861075	-0.120155
O3	O	0.077054	-0.988756	0.007526
O4	O	0.077073	-0.975456	-0.234536
O5	O	-0.077170	-0.988734	0.007507
O6	O	-0.077152	-0.861054	-0.120174
O7	O	-0.077167	-1.103116	-0.106875
Cu8	Cu	-0.091242	-0.982083	-0.113526
Cu9	Cu	0.091145	-0.982108	-0.113504
O10	O	-0.077150	-0.975435	-0.234555
C11	C	-0.000039	-0.830090	-0.119626
C12	C	-0.000033	-0.737794	-0.118011
N13	N	-0.219523	-0.982071	-0.113541
C14	C	-0.000058	-0.988206	0.038491
C15	C	-0.000060	-0.986591	0.130786
C16	C	-0.469169	-0.923021	-0.172554
C17	C	-0.530974	-0.998143	-0.188671
C18	C	-0.408684	-0.982092	-0.113521
C19	C	-0.530972	-0.906990	-0.097424
C20	C	-0.591406	-0.982104	-0.113504
C21	C	-0.469129	-1.057251	-0.129675
C22	C	-0.469122	-0.966048	-0.038396
C23	C	-0.530900	-1.041224	-0.054481
C24	C	-0.303423	-0.982083	-0.113534
C25	C	-0.696665	-0.982122	-0.113491
N26	N	0.219427	-0.982126	-0.113482
C27	C	-0.000056	-1.134101	-0.107404
C28	C	-0.000055	-1.226397	-0.109019
C29	C	-0.000038	-0.515522	-0.190018
C30	C	-0.000044	-0.428801	-0.188494
C31	C	-0.000053	-0.448676	-0.037006
C32	C	-0.000053	-0.535394	-0.038530
C33	C	-0.000041	-0.568815	-0.115039
C34	C	-0.000047	-0.395376	-0.111990
C35	C	-0.000053	-0.301350	-0.110337
C36	C	-0.000037	-0.662847	-0.116693
C37	C	-0.000036	-0.975984	-0.265521
C38	C	-0.000029	-0.977600	-0.357816
C39	C	-0.000049	-1.058599	0.353059
C40	C	-0.000042	-1.057075	0.439779
C41	C	-0.000036	-0.905586	0.419905
C42	C	-0.000037	-0.907111	0.333186
C43	C	-0.000049	-0.983620	0.299766
C44	C	-0.000040	-0.980571	0.473205
C45	C	-0.000031	-0.978918	0.567231
C46	C	-0.000055	-0.985273	0.205734
H47	H	-0.442064	-0.873118	-0.222517
H48	H	-0.000044	-0.385413	-0.249550
H49	H	-0.000028	-0.843295	0.447127
H50	H	-0.558143	-1.011724	-0.252195
Cl51	Cl	-0.000041	-1.151339	0.506773
H52	H	-0.000068	-0.421454	0.025285
H53	H	-0.000057	-1.120897	0.325851
H54	H	-0.442079	-1.120782	-0.143359
Cl55	Cl	-0.572493	-1.118438	0.022610
Cl56	Cl	-0.427138	-0.945043	0.059650
Cl57	Cl	-0.000028	-0.812844	0.266184
Cl58	Cl	-0.572916	-0.808925	-0.076413
Cl59	Cl	-0.000029	-0.557533	-0.286200
H60	H	-0.000059	-0.578788	0.022530
