data_functionalizedCrystal
_audit_creation_method	'MofGen! by Chris Wilmer'
_symmetry_space_group_name_H-M	'P1'
_symmetry_Int_Tables_number	1
_symmetry_cell_setting	triclinic
loop_
_symmetry_equiv_pos_as_xyz
  x,y,z
_cell_length_a	19.188931
_cell_length_b	14.519731
_cell_length_c	18.266242
_cell_angle_alpha	89.994522
_cell_angle_beta	90.004165
_cell_angle_gamma	96.583002
loop_
_atom_site_label
_atom_site_type_symbol
_atom_site_fract_x
_atom_site_fract_y
_atom_site_fract_z
O1	O	-0.926562	0.115138	-0.060857
O2	O	-0.723307	0.130636	-0.060865
O3	O	-0.830316	-0.011384	-0.060854
O4	O	-0.819553	0.257157	-0.060868
O5	O	-0.830304	-0.011387	0.060908
O6	O	-0.723295	0.130632	0.060897
O7	O	-0.926551	0.115134	0.060905
Zn8	Zn	-0.824921	0.122883	0.080233
Zn9	Zn	-0.824936	0.122887	-0.080193
O10	O	-0.819542	0.257154	0.060894
C11	C	-0.697288	0.130132	0.000016
C12	C	-0.619778	0.128625	0.000013
C13	C	-0.829806	-0.045742	0.000027
C14	C	-0.828295	-0.148113	0.000027
C15	C	-0.066490	0.117871	-0.066351
C16	C	-0.139320	0.119282	-0.066354
C17	C	-0.175733	0.119989	0.000018
C18	C	-0.139313	0.119263	0.066398
C19	C	-0.066486	0.117843	0.066399
N20	N	-0.284946	0.174695	0.049419
N21	N	-0.354129	0.176045	0.049414
C22	C	-0.395157	0.124265	0.000019
N23	N	-0.364388	0.071095	-0.049381
N24	N	-0.295199	0.069748	-0.049378
C25	C	-0.254702	0.121528	0.000024
C26	C	-0.510539	0.126514	-0.066360
C27	C	-0.583370	0.127919	-0.066360
C28	C	-0.583361	0.127909	0.066394
C29	C	-0.510532	0.126495	0.066392
C30	C	-0.474125	0.125802	0.000013
C31	C	-0.827067	-0.231249	0.000026
C32	C	-0.825532	-0.335548	0.000020
C33	C	-0.824315	-0.418680	0.000015
C34	C	-0.822781	-0.522986	0.000011
C35	C	0.047431	0.115639	0.000023
C36	C	-0.030079	0.117150	0.000020
C37	C	-0.820052	0.291512	0.000011
C38	C	-0.821563	0.393883	0.000006
N39	N	-0.824916	0.122879	0.189720
N40	N	-0.824947	0.122883	-0.189680
C41	C	-0.872332	0.060014	0.772002
C42	C	-0.872333	0.060016	0.695357
C43	C	-0.824937	0.122879	0.657033
C44	C	-0.777549	0.185760	0.695360
C45	C	-0.777554	0.185762	0.772003
N46	N	-0.763168	0.134830	0.536704
N47	N	-0.763165	0.134822	0.463896
C48	C	-0.824920	0.122877	0.426110
N49	N	-0.886679	0.110922	0.463884
N50	N	-0.886681	0.110925	0.536699
C51	C	-0.824927	0.122884	0.573926
C52	C	-0.872309	0.060007	0.304686
C53	C	-0.872311	0.060015	0.228039
C54	C	-0.777521	0.185754	0.228043
C55	C	-0.777525	0.185750	0.304688
C56	C	-0.824919	0.122871	0.343005
H57	H	-0.036852	0.117303	-0.120403
H58	H	-0.910901	0.008822	0.196841
F59	F	-0.178079	0.120051	-0.136999
F60	F	-0.622123	0.128678	-0.137005
H61	H	-0.168965	0.119837	0.120439
F62	F	-0.922774	-0.006902	0.812780
H63	H	-0.738967	0.236959	0.803202
H64	H	-0.910921	0.008819	0.664153
F65	F	-0.922752	-0.006910	0.345466
F66	F	-0.471777	0.125740	0.137035
F67	F	-0.727109	0.252666	0.654572
H68	H	-0.738933	0.236941	0.196840
F69	F	-0.471790	0.125771	-0.137005
F70	F	-0.027733	0.117078	0.137043
F71	F	-0.622111	0.128651	0.137033
H72	H	-0.738938	0.236940	0.335888
