data_functionalizedCrystal
_audit_creation_method	'MofGen! by Chris Wilmer'
_symmetry_space_group_name_H-M	'P1'
_symmetry_Int_Tables_number	1
_symmetry_cell_setting	triclinic
loop_
_symmetry_equiv_pos_as_xyz
  x,y,z
_cell_length_a	17.640112
_cell_length_b	17.638891
_cell_length_c	17.639477
_cell_angle_alpha	92.140781
_cell_angle_beta	114.276174
_cell_angle_gamma	87.850096
loop_
_atom_site_label
_atom_site_type_symbol
_atom_site_fract_x
_atom_site_fract_y
_atom_site_fract_z
Zn1	Zn	1.171229	-0.033696	-0.217343
Zn2	Zn	1.223369	-0.178265	-0.103882
Zn3	Zn	1.068313	-0.075369	-0.114379
Zn4	Zn	1.057789	-0.178251	-0.269440
O5	O	1.130175	-0.116395	-0.176261
O6	O	1.290511	-0.035439	-0.176096
O7	O	1.229026	-0.182062	0.007103
O8	O	1.064549	0.033719	-0.110627
O9	O	1.328819	-0.141653	-0.092737
O10	O	1.140160	0.064336	-0.186275
O11	O	1.115107	-0.106464	-0.000609
O12	O	0.954551	-0.106451	-0.161144
O13	O	1.046612	-0.141629	-0.374907
O14	O	0.946819	-0.182038	-0.275067
O15	O	1.129955	-0.035425	-0.336631
O16	O	1.218821	-0.281823	-0.143253
O17	O	1.097170	-0.281812	-0.264889
C18	C	0.921550	-0.148765	-0.224898
C19	C	0.832297	-0.162628	-0.245728
C20	C	0.558625	-0.011066	-0.018027
C21	C	0.474759	-0.024106	-0.037613
C22	C	0.466826	-0.102972	-0.156086
C23	C	0.550692	-0.089936	-0.136512
C24	C	0.596585	-0.043983	-0.067481
C25	C	0.588652	-0.122854	-0.185967
C26	C	0.672511	-0.109822	-0.166392
C27	C	0.718411	-0.063873	-0.097363
C28	C	0.680445	-0.030951	-0.047907
C29	C	0.542758	-0.168811	-0.254994
C30	C	0.580718	-0.201728	-0.304448
C31	C	0.664578	-0.188692	-0.284877
C32	C	0.710478	-0.142743	-0.215848
C33	C	0.702544	-0.221613	-0.334333
C34	C	0.786404	-0.208581	-0.314759
C35	C	0.794338	-0.129711	-0.196273
C36	C	1.162529	-0.308663	-0.208598
C37	C	1.176438	-0.390901	-0.222441
C38	C	1.097712	0.076630	-0.143810
C39	C	1.083879	0.158886	-0.129982
C40	C	1.339615	-0.083899	-0.127434
C41	C	1.428866	-0.070051	-0.106627
C42	C	1.081294	-0.083877	-0.385722
C43	C	1.060463	-0.070019	-0.474982
C44	C	1.235278	0.509114	-0.281349
C45	C	1.222286	0.586401	-0.268327
C46	C	1.143559	0.554512	-0.189563
C47	C	1.156540	0.477220	-0.202581
C48	C	1.202401	0.454528	-0.248475
C49	C	1.123663	0.422634	-0.169707
C50	C	1.136648	0.345349	-0.182721
C51	C	1.182509	0.322650	-0.228610
C52	C	1.215385	0.377243	-0.261489
C53	C	1.077808	0.445328	-0.123809
C54	C	1.044931	0.390742	-0.090934
C55	C	1.057910	0.313456	-0.103953
C56	C	1.103771	0.290757	-0.149842
C57	C	1.025033	0.258863	-0.071074
C58	C	1.038018	0.181578	-0.084089
C59	C	1.116755	0.213472	-0.162857
C60	C	1.288524	-0.221242	-0.748444
C61	C	1.268939	-0.208215	-0.832319
C62	C	1.150324	-0.129500	-0.840348
C63	C	1.169896	-0.142524	-0.756473
C64	C	1.238998	-0.188395	-0.710528
C65	C	1.120370	-0.109677	-0.718557
C66	C	1.139944	-0.122697	-0.634689
C67	C	1.209044	-0.168565	-0.588737
C68	C	1.258572	-0.201416	-0.626660
C69	C	1.051272	-0.063802	-0.764503
C70	C	1.001746	-0.030955	-0.726586
C71	C	1.021316	-0.043979	-0.642718
C72	C	1.090416	-0.089846	-0.596767
C73	C	0.971788	-0.011128	-0.604796
C74	C	0.991362	-0.024148	-0.520928
C75	C	1.109990	-0.102866	-0.512899
C76	C	1.178903	-0.148726	0.032405
C77	C	1.199854	-0.162351	0.121736
H78	H	0.786696	-0.053265	-0.081425
F79	F	1.284085	0.484959	-0.330198
H80	H	1.106221	0.572998	-0.152193
F81	F	0.826807	-0.243617	-0.367392
F82	F	0.938652	0.010813	-0.480571
H83	H	1.154080	0.194995	-0.200247
F84	F	1.362063	-0.270074	-0.699544
H85	H	1.193082	0.259719	-0.239203
F86	F	1.321662	-0.243173	-0.872667
F87	F	0.531869	-0.250642	-0.377906
H88	H	1.094063	-0.092150	-0.877767
H89	H	0.831702	-0.092278	-0.140072
F90	F	1.030445	-0.049941	-0.853762
F91	F	1.063931	0.527583	-0.110017
F92	F	0.417977	-0.151886	-0.229544
F93	F	1.257285	0.644495	-0.303318
H94	H	0.717810	0.006481	0.008295
F95	F	0.607472	0.037848	0.055439
F96	F	0.928207	0.017865	-0.775492
H97	H	0.987700	0.277350	-0.033701
H98	H	1.314848	-0.238761	-0.589245
H99	H	0.915530	0.026226	-0.642215
F100	F	0.453509	-0.182689	-0.275818
F101	F	0.996126	0.414902	-0.042090
F102	F	1.229879	-0.182419	-0.499475
H103	H	1.011245	0.137132	-0.057320
F104	F	0.653695	-0.270531	-0.407787
F105	F	1.264193	0.353088	-0.310338
F106	F	0.434365	0.010928	0.015033
F107	F	1.183528	-0.151698	-0.463999
