data_functionalizedCrystal
_audit_creation_method	'MofGen! by Chris Wilmer'
_symmetry_space_group_name_H-M	'P1'
_symmetry_Int_Tables_number	1
_symmetry_cell_setting	triclinic
loop_
_symmetry_equiv_pos_as_xyz
  x,y,z
_cell_length_a	14.519709
_cell_length_b	14.853567
_cell_length_c	13.930277
_cell_angle_alpha	90.004245
_cell_angle_beta	89.994503
_cell_angle_gamma	96.342462
loop_
_atom_site_label
_atom_site_type_symbol
_atom_site_fract_x
_atom_site_fract_y
_atom_site_fract_z
O1	O	0.120405	-1.196415	-0.079767
O2	O	0.620405	-0.696415	0.420233
O3	O	0.134748	-0.933961	-0.079783
O4	O	0.634748	-0.433961	0.420217
O5	O	-0.006665	-1.072147	-0.079766
O6	O	0.493335	-0.572147	0.420234
O7	O	0.261817	-1.058230	-0.079784
O8	O	0.761817	-0.558230	0.420216
O9	O	-0.006668	-1.072128	0.079896
O10	O	0.493332	-0.572128	0.579896
O11	O	0.134745	-0.933942	0.079878
O12	O	0.634745	-0.433942	0.579878
O13	O	0.120402	-1.196396	0.079895
O14	O	0.620402	-0.696396	0.579895
Zn15	Zn	0.127573	-1.065166	0.105236
Zn16	Zn	0.627573	-0.565166	0.605236
Zn17	Zn	0.127577	-1.065191	-0.105125
Zn18	Zn	0.627577	-0.565191	0.394875
O19	O	0.261814	-1.058210	0.079878
O20	O	0.761814	-0.558210	0.579878
C21	C	0.134096	-0.900363	0.000045
C22	C	0.634096	-0.400363	0.500045
C23	C	0.132149	-0.800278	0.000039
C24	C	0.632149	-0.300278	0.500039
C25	C	-0.041026	-1.071488	0.000065
C26	C	0.458974	-0.571488	0.500065
C27	C	-0.143407	-1.069545	0.000065
C28	C	0.356593	-0.569545	0.500065
C29	C	0.121053	-1.229994	0.000064
C30	C	0.621053	-0.729994	0.500064
C31	C	0.123001	-1.330079	0.000064
C32	C	0.623001	-0.830079	0.500064
C33	C	-0.518299	-1.062390	0.000040
C34	C	-0.018299	-0.562390	0.500040
C35	C	-0.413992	-1.064377	0.000047
C36	C	0.086008	-0.564377	0.500047
C37	C	-0.330856	-1.065967	0.000054
C38	C	0.169144	-0.565967	0.500054
C39	C	-0.226543	-1.067955	0.000059
C40	C	0.273457	-0.567955	0.500059
C41	C	0.296175	-1.058869	0.000044
C42	C	0.796175	-0.558869	0.500044
C43	C	0.398556	-1.060812	0.000038
C44	C	0.898556	-0.560812	0.500038
N45	N	0.127569	-1.065155	0.248803
N46	N	0.627569	-0.565155	0.748803
C47	C	0.039914	-0.387709	0.000067
C48	C	0.539914	0.112291	0.500067
C49	C	0.207916	-0.366493	0.000055
C50	C	0.707916	0.133507	0.500055
C51	C	0.209747	-0.460527	0.000052
C52	C	0.709747	0.039473	0.500052
C53	C	0.126660	-0.518157	0.000055
C54	C	0.626660	-0.018157	0.500055
C55	C	0.041743	-0.481752	0.000061
C56	C	0.541743	0.018248	0.500061
C57	C	0.294663	-0.496939	0.000035
C58	C	0.794663	0.003061	0.500035
C59	C	0.296498	-0.590979	0.000031
C60	C	0.796498	-0.090979	0.500031
C61	C	0.213410	-0.648610	0.000041
C62	C	0.713410	-0.148610	0.500041
C63	C	0.128489	-0.612200	0.000049
C64	C	0.628489	-0.112200	0.500049
C65	C	0.045403	-0.669830	0.000052
C66	C	0.545403	-0.169830	0.500052
C67	C	-0.039520	-0.633422	0.000066
C68	C	0.460480	-0.133422	0.500066
C69	C	-0.041345	-0.539383	0.000071
C70	C	0.458655	-0.039383	0.500071
C71	C	0.215235	-0.742649	0.000036
C72	C	0.715235	-0.242649	0.500036
C73	C	0.047231	-0.763873	0.000046
C74	C	0.547231	-0.263873	0.500046
N75	N	0.127573	-1.065209	-0.248691
N76	N	0.627573	-0.565209	0.251309
C77	C	0.190170	-1.004000	0.701064
C78	C	0.690170	-0.504000	1.201064
C79	C	0.064977	-1.126407	0.701049
C80	C	0.564977	-0.626407	1.201049
C81	C	0.064974	-1.126396	0.600553
C82	C	0.564974	-0.626396	1.100553
C83	C	0.127571	-1.065188	0.550308
C84	C	0.627571	-0.565188	1.050308
C85	C	0.190171	-1.003989	0.600559
C86	C	0.690171	-0.503989	1.100559
C87	C	0.002381	-1.187599	0.550295
C88	C	0.502381	-0.687599	1.050295
C89	C	0.002376	-1.187592	0.449793
C90	C	0.502376	-0.687592	0.949793
C91	C	0.064970	-1.126378	0.399546
C92	C	0.564970	-0.626378	0.899546
C93	C	0.127571	-1.065177	0.449803
C94	C	0.627571	-0.565177	0.949803
C95	C	0.190168	-1.003968	0.399558
C96	C	0.690168	-0.503968	0.899558
C97	C	0.252767	-0.942762	0.449814
C98	C	0.752767	-0.442762	0.949814
C99	C	0.252764	-0.942776	0.550312
C100	C	0.752764	-0.442776	1.050312
C101	C	0.064972	-1.126364	0.299047
C102	C	0.564972	-0.626364	0.799047
C103	C	0.190169	-1.003957	0.299053
C104	C	0.690169	-0.503957	0.799053
H105	H	-0.020429	-0.810790	0.000052
H106	H	0.479571	-0.310790	0.500052
Br107	Br	0.320671	-0.288282	0.000033
Br108	Br	0.820671	0.211718	0.500033
Br109	Br	-0.082561	-1.270674	0.618480
Br110	Br	0.417439	-0.770674	1.118480
H111	H	0.284378	-0.772288	0.000026
H112	H	0.784378	-0.272288	0.500026
Br113	Br	-0.019967	-1.209431	0.230850
Br114	Br	0.480033	-0.709431	0.730850
H115	H	0.303738	-0.892929	0.408893
H116	H	0.803738	-0.392929	0.908893
Br117	Br	0.407416	-0.418726	0.000011
Br118	Br	0.907416	0.081274	0.500011
H119	H	-0.048595	-1.237428	0.408882
H120	H	0.451405	-0.737428	0.908882
H121	H	0.365646	-0.620614	0.000019
H122	H	0.865646	-0.120614	0.500019
Br123	Br	0.337713	-0.859717	0.618517
Br124	Br	0.837713	-0.359717	1.118517
Br125	Br	0.275120	-0.920876	0.230871
Br126	Br	0.775120	-0.420876	0.730871
H127	H	-0.110484	-0.509731	0.000105
H128	H	0.389516	-0.009731	0.500105
Br129	Br	-0.152275	-0.711644	0.000059
Br130	Br	0.347725	-0.211644	0.500059
Br131	Br	-0.019966	-1.209482	0.769234
Br132	Br	0.480034	-0.709482	1.269234
Br133	Br	-0.075332	-0.338301	0.000095
Br134	Br	0.424668	0.161699	0.500095
Br135	Br	0.275115	-0.920932	0.769260
Br136	Br	0.775115	-0.420932	1.269260
