data_functionalizedCrystal
_audit_creation_method	'MofGen! by Chris Wilmer'
_symmetry_space_group_name_H-M	'P1'
_symmetry_Int_Tables_number	1
_symmetry_cell_setting	triclinic
loop_
_symmetry_equiv_pos_as_xyz
  x,y,z
_cell_length_a	19.805407
_cell_length_b	12.759394
_cell_length_c	19.805399
_cell_angle_alpha	89.976033
_cell_angle_beta	89.980427
_cell_angle_gamma	90.014837
loop_
_atom_site_label
_atom_site_type_symbol
_atom_site_fract_x
_atom_site_fract_y
_atom_site_fract_z
Zn1	Zn	1.034790	-0.418291	-0.382737
Zn2	Zn	1.534790	0.081709	0.117263
Zn3	Zn	1.034728	-0.593984	-0.269556
Zn4	Zn	1.534728	-0.093984	0.230444
Zn5	Zn	0.921605	-0.418320	-0.269561
Zn6	Zn	1.421605	0.081680	0.230439
Zn7	Zn	0.921591	-0.593928	-0.382702
Zn8	Zn	1.421591	-0.093928	0.117298
O9	O	0.978178	-0.506131	-0.326139
O10	O	1.478178	-0.006131	0.173861
O11	O	1.129498	-0.441608	-0.367735
O12	O	1.629498	0.058392	0.132265
O13	O	1.019701	-0.570717	-0.174840
O14	O	1.519701	-0.070717	0.325160
O15	O	0.936651	-0.271295	-0.284591
O16	O	1.436651	0.228705	0.215409
O17	O	1.129453	-0.570689	-0.284581
O18	O	1.629453	-0.070689	0.215419
O19	O	1.019808	-0.271274	-0.367740
O20	O	1.519808	0.228726	0.132260
O21	O	0.936590	-0.441658	-0.174844
O22	O	1.436590	0.058342	0.325156
O23	O	0.826886	-0.441603	-0.284558
O24	O	1.326886	0.058397	0.215442
O25	O	0.936628	-0.570594	-0.477423
O26	O	1.436628	-0.070594	0.022577
O27	O	0.826876	-0.570622	-0.367682
O28	O	1.326876	-0.070622	0.132318
O29	O	1.019794	-0.441554	-0.477449
O30	O	1.519794	0.058446	0.022551
O31	O	1.019688	-0.740998	-0.284548
O32	O	1.519688	-0.240998	0.215452
O33	O	0.936567	-0.740957	-0.367676
O34	O	1.436567	-0.240957	0.132324
C35	C	0.802322	-0.506111	-0.326117
C36	C	1.302322	-0.006111	0.173883
C37	C	0.727090	-0.506127	-0.326124
C38	C	1.227090	-0.006127	0.173876
C39	C	0.691759	-0.573409	-0.369336
C40	C	1.191759	-0.073409	0.130664
C41	C	0.621070	-0.573411	-0.369346
C42	C	1.121070	-0.073411	0.130654
C43	C	0.585715	-0.506136	-0.326139
C44	C	1.085715	-0.006136	0.173861
C45	C	0.621051	-0.438847	-0.282924
C46	C	1.121051	0.061153	0.217076
C47	C	0.691739	-0.438841	-0.282919
C48	C	1.191739	0.061159	0.217081
C49	C	0.335978	-0.438870	-0.282947
C50	C	0.835978	0.061130	0.217053
C51	C	0.265286	-0.438884	-0.282954
C52	C	0.765286	0.061116	0.217046
C53	C	0.265310	-0.573440	-0.369374
C54	C	0.765310	-0.073440	0.130626
C55	C	0.335997	-0.573434	-0.369368
C56	C	0.835997	-0.073434	0.130632
C57	C	0.371327	-0.506142	-0.326157
C58	C	0.871327	-0.006142	0.173843
C59	C	0.447976	-0.506139	-0.326148
C60	C	0.947976	-0.006139	0.173852
C61	C	0.509068	-0.506143	-0.326144
C62	C	1.009068	-0.006143	0.173856
C63	C	0.978138	-0.779098	-0.326123
C64	C	1.478138	-0.279098	0.173877
C65	C	0.978182	-0.895875	-0.326138
C66	C	1.478182	-0.395875	0.173862
C67	C	1.064801	-0.895864	-0.239641
C68	C	1.564801	-0.395864	0.260359
C69	C	1.108128	-0.950720	-0.196401
C70	C	1.608128	-0.450720	0.303599
C71	C	1.108168	-1.060441	-0.196419
C72	C	1.608168	-0.560441	0.303581
C73	C	1.064877	-1.115310	-0.239684
C74	C	1.564877	-0.615310	0.260316
C75	C	1.021550	-1.060455	-0.282925
C76	C	1.521550	-0.560455	0.217075
C77	C	1.021514	-0.950730	-0.282900
C78	C	1.521514	-0.450730	0.217100
C79	C	0.934936	-1.060465	-0.369424
C80	C	1.434936	-0.560465	0.130576
C81	C	0.934892	-0.950744	-0.369403
C82	C	1.434892	-0.450744	0.130597
C83	C	0.891645	-1.115334	-0.412689
C84	C	1.391645	-0.615334	0.087311
C85	C	0.848314	-1.060478	-0.455927
C86	C	1.348314	-0.560478	0.044073
C87	C	0.848275	-0.950750	-0.455906
C88	C	1.348275	-0.450750	0.044094
C89	C	0.891565	-0.895888	-0.412644
C90	C	1.391565	-0.395888	0.087356
C91	C	1.154721	-0.506152	-0.326161
C92	C	1.654721	-0.006152	0.173839
C93	C	1.229953	-0.506161	-0.326171
C94	C	1.729953	-0.006161	0.173829
C95	C	0.978216	-0.506065	-0.502682
C96	C	1.478216	-0.006065	-0.002682
C97	C	0.978233	-0.506036	-0.577914
C98	C	1.478233	-0.006036	-0.077914
C99	C	0.978238	-0.232097	-0.326170
C100	C	1.478238	0.267903	0.173830
C101	C	0.978263	-0.115321	-0.326183
C102	C	1.478263	0.384679	0.173817
C103	C	1.021539	-0.438842	-0.613272
C104	C	1.521539	0.061158	-0.113272
C105	C	1.021545	-0.438811	-0.683961
C106	C	1.521545	0.061189	-0.183961
C107	C	0.978249	-0.505982	-0.719289
C108	C	1.478249	-0.005982	-0.219289
C109	C	0.934939	-0.573179	-0.683926
C110	C	1.434939	-0.073179	-0.183926
C111	C	0.934929	-0.573203	-0.613239
C112	C	1.434929	-0.073203	-0.113239
C113	C	0.934977	-0.573081	-0.969000
C114	C	1.434977	-0.073081	-0.469000
C115	C	0.934992	-0.573054	-1.039692
C116	C	1.434992	-0.073054	-0.539692
C117	C	1.021594	-0.438689	-1.039721
C118	C	1.521594	0.061311	-0.539721
C119	C	1.021584	-0.438713	-0.969034
C120	C	1.521584	0.061287	-0.469034
C121	C	0.978271	-0.505907	-0.933677
C122	C	1.478271	-0.005907	-0.433677
C123	C	0.978263	-0.505937	-0.857028
C124	C	1.478263	-0.005937	-0.357028
C125	C	0.978260	-0.505957	-0.795937
C126	C	1.478260	-0.005957	-0.295937
C127	C	0.978180	-0.506121	-0.150283
C128	C	1.478180	-0.006121	0.349717
C129	C	0.978295	-0.505853	-0.075051
C130	C	1.478295	-0.005853	0.424949
H131	H	0.720540	-0.628195	-0.404519
H132	H	1.220540	-0.128195	0.095481
O133	O	1.068261	-0.366344	-0.722095
O134	O	1.568261	0.133656	-0.222095
H135	H	1.037987	-0.312863	-0.754296
H136	H	1.537987	0.187137	-0.254296
O137	O	0.374076	-0.366295	-0.236337
O138	O	0.874076	0.133705	0.263663
H139	H	0.429169	-0.377578	-0.243594
H140	H	0.929169	0.122422	0.256406
H141	H	1.064919	-1.204651	-0.239701
H142	H	1.564919	-0.704651	0.260299
H143	H	0.364780	-0.628219	-0.404550
H144	H	0.864780	-0.128219	0.095450
H145	H	0.592259	-0.384066	-0.247747
H146	H	1.092259	0.115934	0.252253
H147	H	0.236535	-0.628229	-0.404562
H148	H	0.736535	-0.128229	0.095438
O149	O	1.154914	-1.119609	-0.149796
O150	O	1.654914	-0.619609	0.350204
H151	H	1.147674	-1.205122	-0.157089
H152	H	1.647674	-0.705122	0.342911
H153	H	0.891683	-1.204675	-0.412704
H154	H	1.391683	-0.704675	0.087296
O155	O	1.068282	-0.366268	-0.930927
O156	O	1.568282	0.133732	-0.430927
H157	H	1.098393	-0.319531	-0.967391
H158	H	1.598393	0.180469	-0.467391
H159	H	0.592306	-0.628199	-0.404534
H160	H	1.092306	-0.128199	0.095466
H161	H	1.143377	-0.906036	-0.161176
H162	H	1.643377	-0.406036	0.338824
O163	O	0.888210	-0.645666	-0.575102
O164	O	1.388210	-0.145666	-0.075102
H165	H	0.899795	-0.728125	-0.588653
H166	H	1.399795	-0.228125	-0.088653
O167	O	0.227145	-0.366331	-0.236346
O168	O	0.727145	0.133669	0.263654
H169	H	0.194948	-0.312958	-0.266701
H170	H	0.694948	0.187042	0.233299
H171	H	0.720505	-0.384048	-0.247734
H172	H	1.220505	0.115952	0.252266
H173	H	1.064765	-0.806523	-0.239613
H174	H	1.564765	-0.306523	0.260387
H175	H	0.813073	-1.105161	-0.491153
H176	H	1.313073	-0.605161	0.008847
H177	H	0.899732	-0.627754	-1.068454
H178	H	1.399732	-0.127754	-0.568454
O179	O	0.801536	-0.891584	-0.502537
O180	O	1.301536	-0.391584	-0.002537
H181	H	0.771439	-0.948175	-0.532616
H182	H	1.271439	-0.448175	-0.032616
O183	O	0.891511	-0.777545	-0.412626
O184	O	1.391511	-0.277545	0.087374
H185	H	0.942542	-0.748526	-0.426347
H186	H	1.442542	-0.248526	0.073653
O187	O	1.068243	-0.366396	-0.575174
O188	O	1.568243	0.133604	-0.075174
H189	H	1.060968	-0.377708	-0.520079
H190	H	1.560968	0.122292	-0.020079
H191	H	1.056859	-0.383973	-1.068518
H192	H	1.556859	0.116027	-0.568518
H193	H	0.899719	-0.627809	-0.940220
H194	H	1.399719	-0.127809	-0.440220
H195	H	0.899684	-0.627866	-0.712696
H196	H	1.399684	-0.127866	-0.212696
