data_functionalizedCrystal
_audit_creation_method	'MofGen! by Chris Wilmer'
_symmetry_space_group_name_H-M	'P1'
_symmetry_Int_Tables_number	1
_symmetry_cell_setting	triclinic
loop_
_symmetry_equiv_pos_as_xyz
  x,y,z
_cell_length_a	14.519709
_cell_length_b	23.532407
_cell_length_c	13.596369
_cell_angle_alpha	89.989360
_cell_angle_beta	90.000291
_cell_angle_gamma	83.264412
loop_
_atom_site_label
_atom_site_type_symbol
_atom_site_fract_x
_atom_site_fract_y
_atom_site_fract_z
O1	O	1.222985	0.074654	-0.081674
O2	O	1.722985	0.574654	0.418326
O3	O	0.954404	0.083445	-0.081705
O4	O	1.454404	0.583445	0.418295
O5	O	1.096794	-0.003846	-0.081671
O6	O	1.596794	0.496154	0.418329
O7	O	1.080596	0.161945	-0.081708
O8	O	1.580596	0.661945	0.418292
O9	O	1.096780	-0.003850	0.081912
O10	O	1.596780	0.496150	0.581912
O11	O	0.954390	0.083441	0.081878
O12	O	1.454390	0.583441	0.581878
O13	O	1.222971	0.074649	0.081909
O14	O	1.722971	0.574649	0.581909
Zn15	Zn	1.088678	0.079044	0.107866
Zn16	Zn	1.588678	0.579044	0.607866
Zn17	Zn	1.088697	0.079050	-0.107662
Zn18	Zn	1.588697	0.579050	0.392338
O19	O	1.080582	0.161940	0.081874
O20	O	1.580582	0.661940	0.581874
C21	C	0.920042	0.083033	0.000083
C22	C	1.420042	0.583033	0.500083
C23	C	0.817676	0.081805	0.000071
C24	C	1.317676	0.581805	0.500071
C25	C	0.442833	0.077286	0.000117
C26	C	0.942833	0.577286	0.500117
C27	C	0.547126	0.078541	0.000104
C28	C	1.047126	0.578541	0.500104
C29	C	0.630251	0.079545	0.000093
C30	C	1.130251	0.579545	0.500093
C31	C	0.734551	0.080801	0.000082
C32	C	1.234551	0.580801	0.500082
C33	C	1.096374	-0.025066	0.000123
C34	C	1.596374	0.474934	0.500123
C35	C	1.095134	-0.088288	0.000131
C36	C	1.595134	0.411712	0.500131
C37	C	1.171619	-0.487046	0.000086
C38	C	1.671619	0.012954	0.500086
C39	C	1.170467	-0.546452	0.000078
C40	C	1.670467	-0.046452	0.500078
O41	O	1.241369	-0.582876	0.000050
O42	O	1.741369	-0.082876	0.500050
N43	N	1.085816	-0.569460	0.000069
N44	N	1.585816	-0.069460	0.500069
C45	C	1.002312	-0.533059	0.000057
C46	C	1.502312	-0.033059	0.500057
O47	O	0.930205	-0.558084	0.000048
O48	O	1.430205	-0.058084	0.500048
C49	C	1.003465	-0.473655	0.000058
C50	C	1.503465	0.026345	0.500058
C51	C	1.088121	-0.450650	0.000077
C52	C	1.588121	0.049350	0.500077
C53	C	1.256268	-0.464041	0.000104
C54	C	1.756268	0.035959	0.500104
C55	C	1.257420	-0.404640	0.000113
C56	C	1.757420	0.095360	0.500113
C57	C	1.173922	-0.368244	0.000105
C58	C	1.673922	0.131756	0.500105
C59	C	1.089273	-0.391249	0.000087
C60	C	1.589273	0.108751	0.500087
C61	C	0.919962	-0.437255	0.000039
C62	C	1.419962	0.062745	0.500039
C63	C	0.921123	-0.377847	0.000039
C64	C	1.421123	0.122153	0.500039
C65	C	1.005779	-0.354843	0.000058
C66	C	1.505779	0.145157	0.500058
C67	C	1.006927	-0.295451	0.000087
C68	C	1.506927	0.204549	0.500087
N69	N	1.091578	-0.272443	0.000097
N70	N	1.591578	0.227557	0.500097
C71	C	1.175075	-0.308839	0.000105
C72	C	1.675075	0.191161	0.500105
C73	C	0.999897	-0.657813	0.000055
C74	C	1.499897	-0.157813	0.500055
C75	C	0.998743	-0.717216	0.000061
C76	C	1.498743	-0.217216	0.500061
C77	C	1.166898	-0.730604	0.000080
C78	C	1.666898	-0.230604	0.500080
C79	C	1.168051	-0.671200	0.000080
C80	C	1.668051	-0.171200	0.500080
C81	C	1.084548	-0.634804	0.000064
C82	C	1.584548	-0.134804	0.500064
C83	C	1.177487	-0.184092	0.000126
C84	C	1.677487	0.315908	0.500126
C85	C	1.178632	-0.124685	0.000139
C86	C	1.678632	0.375315	0.500139
C87	C	1.010477	-0.111301	0.000115
C88	C	1.510477	0.388699	0.500115
C89	C	1.009332	-0.170703	0.000107
C90	C	1.509332	0.329297	0.500107
C91	C	1.092845	-0.207098	0.000109
C92	C	1.592845	0.292902	0.500109
O93	O	0.936062	-0.258992	0.000111
O94	O	1.436062	0.241008	0.500111
O95	O	1.247171	-0.283806	0.000102
O96	O	1.747171	0.216194	0.500102
C97	C	1.257333	0.075061	0.000119
C98	C	1.757333	0.575061	0.500119
C99	C	1.359700	0.076289	0.000124
C100	C	1.859700	0.576289	0.500124
C101	C	1.081001	0.183160	0.000078
C102	C	1.581001	0.683160	0.500078
C103	C	1.082241	0.246383	0.000064
C104	C	1.582241	0.746383	0.500064
N105	N	1.088673	0.079040	0.254958
N106	N	1.588673	0.579040	0.754958
N107	N	1.088710	0.079050	-0.254754
N108	N	1.588710	0.579050	0.245246
C109	C	1.088696	0.079051	0.656248
C110	C	1.588696	0.579051	1.156248
C111	C	1.088686	0.079050	0.544597
C112	C	1.588686	0.579050	1.044597
C113	C	1.088685	0.079046	0.455607
C114	C	1.588685	0.579046	0.955607
C115	C	1.088674	0.079044	0.343948
C116	C	1.588674	0.579044	0.843948
H117	H	1.247572	-0.105958	0.000158
H118	H	1.747572	0.394042	0.500158
O119	O	1.339630	-0.382269	0.000292
O120	O	1.839630	0.117731	0.500292
C121	C	1.345329	-0.348305	0.084999
C122	C	1.845329	0.151695	0.584999
H123	H	1.297269	-0.362409	0.144216
H124	H	1.797269	0.137591	0.644216
H125	H	1.323624	-0.301482	0.065843
H126	H	1.823624	0.198518	0.565843
C127	C	1.504823	-0.338082	0.050684
C128	C	2.004823	0.161918	0.550684
C129	C	1.445800	-0.355408	0.123417
C130	C	1.945800	0.144592	0.623417
H131	H	1.566799	-0.342461	0.074380
H132	H	2.066799	0.157539	0.574380
H133	H	1.500983	-0.360962	-0.006387
H134	H	2.000983	0.139038	0.493613
H135	H	1.486724	-0.299064	0.034727
H136	H	1.986724	0.200936	0.534727
H137	H	1.463892	-0.394427	0.139364
H138	H	1.963892	0.105573	0.639364
H139	H	1.449645	-0.332535	0.180492
H140	H	1.949645	0.167465	0.680492
H141	H	0.942496	-0.081657	0.000112
H142	H	1.442496	0.418343	0.500112
H143	H	1.245491	-0.213718	0.000124
H144	H	1.745491	0.286282	0.500124
O145	O	1.250308	-0.648882	-0.000085
O146	O	1.750308	-0.148882	0.499915
C147	C	1.301187	-0.667481	-0.084787
C148	C	1.801187	-0.167481	0.415213
H149	H	1.251677	-0.679885	-0.144006
H150	H	1.751677	-0.179885	0.355994
H151	H	1.352934	-0.706142	-0.065624
H152	H	1.852934	-0.206142	0.434376
C153	C	1.414549	-0.603579	-0.050469
C154	C	1.914549	-0.103579	0.449531
C155	C	1.353740	-0.618810	-0.123205
C156	C	1.853740	-0.118810	0.376795
H157	H	1.446970	-0.573558	-0.074166
H158	H	1.946970	-0.073558	0.425834
H159	H	1.380274	-0.591050	0.006599
H160	H	1.880274	-0.091050	0.506599
H161	H	1.457663	-0.635801	-0.034507
H162	H	1.957663	-0.135801	0.465493
H163	H	1.310620	-0.586590	-0.139158
H164	H	1.810620	-0.086590	0.360842
H165	H	1.388009	-0.631332	-0.180277
H166	H	1.888009	-0.131332	0.319723
H167	H	1.324266	-0.493670	0.000107
H168	H	1.824266	0.006330	0.500107
O169	O	0.840064	-0.342436	0.000156
O170	O	1.340064	0.157564	0.500156
C171	C	0.835672	-0.307695	0.084893
C172	C	1.335672	0.192305	0.584893
H173	H	0.908836	-0.304609	0.113154
H174	H	1.408836	0.195391	0.613154
H175	H	0.793732	-0.327295	0.144207
H176	H	1.293732	0.172705	0.644207
C177	C	0.698831	-0.251227	0.024446
C178	C	1.198831	0.248773	0.524446
C179	C	0.788694	-0.247433	0.059151
C180	C	1.288694	0.252567	0.559151
H181	H	0.669850	-0.214056	0.008569
H182	H	1.169850	0.285944	0.508569
H183	H	0.701788	-0.274634	-0.032642
H184	H	1.201788	0.225366	0.467358
H185	H	0.663893	-0.267564	0.073880
H186	H	1.163893	0.232436	0.573880
H187	H	0.823633	-0.231104	0.009713
H188	H	1.323633	0.268896	0.509713
H189	H	0.785742	-0.224022	0.116230
H190	H	1.285742	0.275978	0.616230
O191	O	1.248034	-0.765943	0.000253
O192	O	1.748034	-0.265943	0.500253
C193	C	1.299478	-0.755510	0.084965
C194	C	1.799478	-0.255510	0.584965
H195	H	1.250605	-0.735266	0.144181
H196	H	1.750605	-0.235266	0.644181
H197	H	1.352580	-0.725206	0.065818
H198	H	1.852580	-0.225206	0.565818
C199	C	1.409984	-0.837257	0.050643
C200	C	1.909984	-0.337257	0.550643
C201	C	1.349957	-0.812398	0.123377
C202	C	1.849957	-0.312398	0.623377
H203	H	1.441125	-0.872347	0.074336
H204	H	1.941125	-0.372347	0.574336
H205	H	1.375328	-0.844285	-0.006431
H206	H	1.875328	-0.344285	0.493569
H207	H	1.454227	-0.811998	0.034694
H208	H	1.954227	-0.311998	0.534694
H209	H	1.305708	-0.837653	0.139317
H210	H	1.805708	-0.337653	0.639317
H211	H	1.384607	-0.805375	0.180455
H212	H	1.884607	-0.305375	0.680455
O213	O	0.916427	-0.739464	0.000010
O214	O	1.416427	-0.239464	0.500010
C215	C	0.842984	-0.694595	0.000031
C216	C	1.342984	-0.194595	0.500031
H217	H	0.868465	-0.654210	-0.030929
H218	H	1.368465	-0.154210	0.469071
H219	H	0.817250	-0.686228	0.078508
H220	H	1.317250	-0.186228	0.578508
C221	C	0.731807	-0.761038	-0.026108
C222	C	1.231807	-0.261038	0.473892
C223	C	0.763100	-0.711438	-0.064141
C224	C	1.263100	-0.211438	0.435859
H225	H	0.682528	-0.771428	-0.065688
H226	H	1.182528	-0.271428	0.434312
H227	H	0.781286	-0.791268	-0.026118
H228	H	1.281286	-0.291268	0.473882
H229	H	0.710368	-0.754059	0.039289
H230	H	1.210368	-0.254059	0.539289
H231	H	0.784549	-0.718419	-0.129532
H232	H	1.284549	-0.218419	0.370468
H233	H	0.713623	-0.681209	-0.064143
H234	H	1.213623	-0.181209	0.435857
O235	O	0.918836	-0.622401	0.000183
O236	O	1.418836	-0.122401	0.500183
C237	C	0.914449	-0.587659	0.084918
C238	C	1.414449	-0.087659	0.584918
H239	H	0.987616	-0.584570	0.113169
H240	H	1.487616	-0.084570	0.613169
H241	H	0.872517	-0.607260	0.144238
H242	H	1.372517	-0.107260	0.644238
C243	C	0.777599	-0.531196	0.024482
C244	C	1.277599	-0.031196	0.524482
C245	C	0.867464	-0.527399	0.059177
C246	C	1.367464	-0.027399	0.559177
H247	H	0.748613	-0.494026	0.008607
H248	H	1.248613	0.005974	0.508607
H249	H	0.780552	-0.554604	-0.032604
H250	H	1.280552	-0.054604	0.467396
H251	H	0.742667	-0.547533	0.073922
H252	H	1.242667	-0.047533	0.573922
H253	H	0.902397	-0.511069	0.009733
H254	H	1.402397	-0.011069	0.509733
H255	H	0.864516	-0.503987	0.116254
H256	H	1.364516	-0.003987	0.616254
H257	H	0.851027	-0.455975	0.000018
H258	H	1.351027	0.044025	0.500018
H259	H	0.940399	-0.189434	0.000119
H260	H	1.440399	0.310566	0.500119
