data_functionalizedCrystal
_audit_creation_method	'MofGen! by Chris Wilmer'
_symmetry_space_group_name_H-M	'P1'
_symmetry_Int_Tables_number	1
_symmetry_cell_setting	triclinic
loop_
_symmetry_equiv_pos_as_xyz
  x,y,z
_cell_length_a	14.853558
_cell_length_b	17.000371
_cell_length_c	13.930277
_cell_angle_alpha	89.994777
_cell_angle_beta	89.993309
_cell_angle_gamma	79.615191
loop_
_atom_site_label
_atom_site_type_symbol
_atom_site_fract_x
_atom_site_fract_y
_atom_site_fract_z
O1	O	1.187992	0.103873	-0.079820
O2	O	0.924532	0.116258	-0.079824
O3	O	1.072621	-0.005783	-0.079815
O4	O	1.039903	0.225914	-0.079829
O5	O	1.072602	-0.005786	0.079847
O6	O	0.924513	0.116256	0.079838
O7	O	1.187973	0.103870	0.079842
Zn8	Zn	1.056240	0.110062	0.105190
Zn9	Zn	1.056265	0.110066	-0.105172
O10	O	1.039884	0.225911	0.079833
C11	C	0.890979	0.115697	0.000006
C12	C	0.791030	0.114019	0.000005
C13	C	0.744084	0.113234	-0.087031
C14	C	0.744062	0.113222	0.087039
C15	C	0.650156	0.111641	0.087040
C16	C	0.603210	0.110856	0.000005
C17	C	0.650169	0.111651	-0.087032
C18	C	0.603191	0.110838	0.174076
C19	C	0.509279	0.109256	0.174081
C20	C	0.462330	0.108476	0.087045
C21	C	0.509295	0.109272	0.000004
C22	C	0.462349	0.108487	-0.087031
C23	C	0.509311	0.109289	-0.174073
C24	C	0.603220	0.110871	-0.174068
C25	C	0.368421	0.106894	0.087040
C26	C	0.368435	0.106904	-0.087032
C27	C	1.074368	-0.035437	0.000016
C28	C	1.079594	-0.123790	0.000015
C29	C	0.999179	-0.155902	0.000009
C30	C	1.004094	-0.238919	0.000012
C31	C	1.089426	-0.289823	0.000013
C32	C	1.169847	-0.257706	0.000022
C33	C	1.164930	-0.174690	0.000026
C34	C	1.108415	-0.540949	0.000007
C35	C	1.113326	-0.623970	0.000000
C36	C	0.947573	-0.605178	-0.000008
C37	C	0.942664	-0.522161	-0.000010
C38	C	1.023085	-0.490051	0.000004
C39	C	1.094452	-0.374681	0.000013
C40	C	1.018058	-0.405194	0.000011
C41	C	1.221526	0.104431	0.000010
C42	C	1.321475	0.106109	0.000005
C43	C	1.038136	0.255565	0.000000
C44	C	1.032911	0.343918	-0.000005
N45	N	1.056229	0.110059	0.248756
N46	N	1.056283	0.110062	-0.248738
C47	C	0.990691	0.164085	0.701021
C48	C	1.121865	0.056041	0.700999
C49	C	1.121854	0.056038	0.600503
C50	C	1.056262	0.110061	0.550261
C51	C	0.990680	0.164085	0.600516
C52	C	1.187441	0.002020	0.550241
C53	C	1.187433	0.002016	0.449739
C54	C	1.121836	0.056035	0.399496
C55	C	1.056251	0.110061	0.449756
C56	C	0.990658	0.164083	0.399515
C57	C	0.925068	0.218107	0.449774
C58	C	0.925082	0.218104	0.550273
C59	C	1.121822	0.056037	0.298997
C60	C	0.990647	0.164084	0.299010
H61	H	0.641465	0.111523	-0.244932
H62	H	0.882099	-0.631331	-0.000017
O63	O	1.258165	-0.056260	0.395540
H64	H	1.247140	-0.047187	0.317216
H65	H	0.948582	-0.363745	0.000016
H66	H	0.330187	0.106249	0.157908
H67	H	0.782324	0.113890	-0.157898
H68	H	0.782293	0.113855	0.157899
O69	O	0.653831	0.111672	0.267942
H70	H	0.605404	0.110837	0.328465
H71	H	0.873178	-0.480719	-0.000014
H72	H	1.240848	-0.041960	0.591151
O73	O	1.192541	-0.002227	0.244775
H74	H	1.262013	0.008015	0.264034
O75	O	0.907141	-0.101001	0.000006
H76	H	0.900935	-0.062732	0.065081
O77	O	1.251665	-0.140053	0.000019
H78	H	1.292347	-0.160502	0.065089
H79	H	0.471076	0.108645	-0.244937
H80	H	1.173900	-0.514816	0.000016
H81	H	0.938612	-0.265060	0.000000
O82	O	1.205365	-0.678880	0.000011
H83	H	1.260462	-0.642606	0.000031
O84	O	0.919957	0.222354	0.755227
H85	H	0.926523	0.284414	0.735921
H86	H	0.871666	0.262096	0.408856
H87	H	1.163929	-0.416136	0.000013
H88	H	0.937231	0.208073	0.258110
O89	O	0.317804	0.106037	-0.180907
H90	H	0.366241	0.106849	-0.241426
H91	H	1.239325	-0.299159	0.000029
H92	H	0.471051	0.108602	0.244955
H93	H	0.871682	0.262089	0.591200
O94	O	1.192610	-0.002224	0.755180
H95	H	1.181597	0.006850	0.833507
