data_functionalizedCrystal
_audit_creation_method	'MofGen! by Chris Wilmer'
_symmetry_space_group_name_H-M	'P1'
_symmetry_Int_Tables_number	1
_symmetry_cell_setting	triclinic
loop_
_symmetry_equiv_pos_as_xyz
  x,y,z
_cell_length_a	13.897449
_cell_length_b	16.120297
_cell_length_c	13.897448
_cell_angle_alpha	92.873468
_cell_angle_beta	90.018519
_cell_angle_gamma	92.876717
loop_
_atom_site_label
_atom_site_type_symbol
_atom_site_fract_x
_atom_site_fract_y
_atom_site_fract_z
Zn1	Zn	1.447027	-0.471424	-0.411676
Zn2	Zn	1.947027	0.028576	0.088324
Zn3	Zn	1.455105	-0.332016	-0.564802
Zn4	Zn	1.955105	0.167984	-0.064802
Zn5	Zn	1.293900	-0.332025	-0.403526
Zn6	Zn	1.793900	0.167975	0.096474
Zn7	Zn	1.285701	-0.471378	-0.572930
Zn8	Zn	1.785701	0.028622	-0.072930
O9	O	1.370433	-0.401711	-0.488233
O10	O	1.870433	0.098289	0.011767
O11	O	1.583080	-0.452948	-0.431998
O12	O	2.083080	0.047052	0.068002
O13	O	1.440533	-0.215355	-0.536596
O14	O	1.940533	0.284645	-0.036596
O15	O	1.314263	-0.350539	-0.269627
O16	O	1.814263	0.149461	0.230373
O17	O	1.589014	-0.350525	-0.544499
O18	O	2.089014	0.149475	-0.044499
O19	O	1.426765	-0.452956	-0.275614
O20	O	1.926765	0.047044	0.224386
O21	O	1.322096	-0.215361	-0.418107
O22	O	1.822096	0.284639	0.081893
O23	O	1.157832	-0.350494	-0.425988
O24	O	1.657832	0.149506	0.074012
O25	O	1.300289	-0.588047	-0.558352
O26	O	1.800289	-0.088047	-0.058352
O27	O	1.151808	-0.452877	-0.550449
O28	O	1.651808	0.047123	-0.050449
O29	O	1.418815	-0.588081	-0.439879
O30	O	1.918815	-0.088081	0.060121
O31	O	1.432583	-0.350480	-0.700861
O32	O	1.932583	0.149520	-0.200861
O33	O	1.308122	-0.452869	-0.706832
O34	O	1.808122	0.047131	-0.206832
C35	C	1.119821	-0.401682	-0.488217
C36	C	1.619821	0.098318	0.011783
C37	C	1.012606	-0.401689	-0.488234
C38	C	1.512606	0.098311	0.011766
C39	C	0.925536	-0.401703	-0.488238
C40	C	1.425536	0.098297	0.011762
C41	C	0.816302	-0.401728	-0.488247
C42	C	1.316302	0.098272	0.011753
C43	C	1.357736	-0.619159	-0.500931
C44	C	1.857736	-0.119159	-0.000931
C45	C	1.352326	-0.711823	-0.506342
C46	C	1.852326	-0.211823	-0.006342
C47	C	1.342412	-0.881480	-0.516200
C48	C	1.842412	-0.381480	-0.016200
C49	C	1.398645	-0.922793	-0.459978
C50	C	1.898645	-0.422793	0.040022
C51	C	1.393129	-1.017197	-0.465463
C52	C	1.893129	-0.517197	0.034537
C53	C	1.347927	-0.787069	-0.510716
C54	C	1.847927	-0.287069	-0.010716
C55	C	1.622025	-0.401741	-0.488251
C56	C	2.122025	0.098259	0.011749
C57	C	1.729238	-0.401753	-0.488258
C58	C	2.229238	0.098247	0.011742
C59	C	1.370364	-0.401687	-0.738846
C60	C	1.870364	0.098313	-0.238846
C61	C	1.370422	-0.401704	-0.846061
C62	C	1.870422	0.098296	-0.346061
C63	C	1.383137	-0.185108	-0.475516
C64	C	1.883137	0.314892	0.024484
C65	C	1.388734	-0.092445	-0.469833
C66	C	1.888734	0.407555	0.030167
C67	C	1.370520	-0.401757	-1.042359
C68	C	1.870520	0.098243	-0.542359
C69	C	1.370462	-0.401730	-0.933125
C70	C	1.870462	0.098270	-0.433125
C71	C	1.370528	-0.401753	-0.236643
C72	C	1.870528	0.098247	0.263357
C73	C	1.370568	-0.401771	-0.129430
C74	C	1.870568	0.098229	0.370570
H75	H	1.450930	-0.887264	-0.407726
H76	H	1.950930	-0.387264	0.092274
H77	H	1.290131	-0.917008	-0.568448
H78	H	1.790131	-0.417008	-0.068448
