data_functionalizedCrystal
_audit_creation_method	'MofGen! by Chris Wilmer'
_symmetry_space_group_name_H-M	'P1'
_symmetry_Int_Tables_number	1
_symmetry_cell_setting	triclinic
loop_
_symmetry_equiv_pos_as_xyz
  x,y,z
_cell_length_a	10.654550
_cell_length_b	16.992695
_cell_length_c	9.130313
_cell_angle_alpha	89.997399
_cell_angle_beta	90.002551
_cell_angle_gamma	92.423437
loop_
_atom_site_label
_atom_site_type_symbol
_atom_site_fract_x
_atom_site_fract_y
_atom_site_fract_z
O1	O	1.677354	-0.110187	0.121922
O2	O	1.312782	-0.120686	0.121899
O3	O	1.493607	-0.001286	0.121899
O4	O	1.496530	-0.229587	0.121922
O5	O	1.493609	-0.001287	-0.121700
O6	O	1.312785	-0.120687	-0.121700
O7	O	1.677356	-0.110189	-0.121676
Cu8	Cu	1.495071	-0.115438	-0.143931
Cu9	Cu	1.495068	-0.115436	0.144153
O10	O	1.496532	-0.229588	-0.121676
C11	C	1.265919	-0.119915	0.000097
C12	C	1.126277	-0.117609	0.000087
C13	C	1.489848	0.027947	0.000100
C14	C	1.478628	0.115052	0.000099
N15	N	1.495082	-0.115438	-0.346553
C16	C	1.052866	-0.187910	0.000116
C17	C	0.921658	-0.185738	0.000141
C18	C	0.937282	-0.042959	0.000115
C19	C	1.068488	-0.045131	0.000080
C20	C	1.110654	-0.260387	0.000124
C21	C	1.037243	-0.330694	0.000154
C22	C	0.906034	-0.328522	0.000179
C23	C	0.848237	-0.256044	0.000174
C24	C	1.724220	-0.110959	0.000129
C25	C	1.863862	-0.113265	0.000148
C26	C	1.500291	-0.258821	0.000126
C27	C	1.511510	-0.345926	0.000136
C28	C	1.586879	0.164704	0.000105
C29	C	1.576330	0.246548	0.000118
C30	C	1.457529	0.278738	0.000115
C31	C	1.349270	0.229080	0.000114
C32	C	1.359820	0.147237	0.000112
C33	C	1.413802	0.522574	0.000133
C34	C	1.403260	0.604422	0.000131
C35	C	1.630321	0.621884	0.000137
C36	C	1.640861	0.540040	0.000126
C37	C	1.532602	0.490389	0.000132
N38	N	1.446743	0.362396	0.000124
N39	N	1.543389	0.406733	0.000134
N40	N	1.495066	-0.115430	0.346776
C41	C	1.414240	-0.067311	0.423441
C42	C	1.414251	-0.067312	0.576778
C43	C	1.575917	-0.163559	0.576771
C44	C	1.575911	-0.163553	0.423437
C45	C	1.333395	-0.019188	0.346780
C46	C	1.252561	0.028935	0.423445
C47	C	1.252572	0.028933	0.576782
C48	C	1.333416	-0.019191	0.653454
H49	H	1.084310	-0.389703	0.000146
H50	H	1.333375	-0.019182	0.221925
H51	H	1.271671	0.106811	0.000107
H52	H	1.128261	0.012114	0.000060
H53	H	1.683620	0.138501	0.000098
O54	O	1.333268	-0.019295	0.818840
H55	H	1.403003	-0.060879	0.859269
O56	O	1.252171	-0.262729	0.000078
H57	H	1.283421	-0.294119	0.099358
H58	H	1.641735	-0.202741	0.639209
O59	O	1.663078	-0.215455	0.340731
H60	H	1.719281	-0.248929	0.419796
H61	H	1.718459	0.662319	0.000135
O62	O	1.693085	0.300104	0.000099
H63	H	1.777466	0.263970	0.000074
O64	O	1.297043	0.469026	0.000102
H65	H	1.212665	0.505162	0.000075
H66	H	1.306513	0.630628	0.000105
H67	H	0.846266	-0.385769	0.000189
O68	O	1.165394	0.080832	0.659479
H69	H	1.109173	0.114288	0.580406
O70	O	1.768993	0.505316	0.000129
H71	H	1.779219	0.468436	0.099408
H72	H	0.741398	-0.254281	0.000172
O73	O	0.874953	0.035211	0.000114
H74	H	0.815582	0.039621	0.099423
O75	O	1.221130	0.263793	0.000096
H76	H	1.231977	0.329045	0.000078
O77	O	1.165367	0.080839	0.340763
H78	H	1.178927	0.072752	0.221260
