data_functionalizedCrystal
_audit_creation_method	'MofGen! by Chris Wilmer'
_symmetry_space_group_name_H-M	'P1'
_symmetry_Int_Tables_number	1
_symmetry_cell_setting	triclinic
loop_
_symmetry_equiv_pos_as_xyz
  x,y,z
_cell_length_a	15.995292
_cell_length_b	27.732048
_cell_length_c	15.072220
_cell_angle_alpha	90.001640
_cell_angle_beta	90.006971
_cell_angle_gamma	83.055635
loop_
_atom_site_label
_atom_site_type_symbol
_atom_site_fract_x
_atom_site_fract_y
_atom_site_fract_z
O1	O	1.110214	0.062165	0.073816
O2	O	0.866332	0.069888	0.073814
O3	O	0.995848	-0.004338	0.073798
O4	O	0.980699	0.136392	0.073832
O5	O	0.995831	-0.004329	-0.073767
O6	O	0.866316	0.069898	-0.073751
O7	O	1.110198	0.062174	-0.073749
Zn8	Zn	0.988254	0.066037	-0.097179
Zn9	Zn	0.988276	0.066025	0.097244
O10	O	0.980682	0.136401	-0.073733
C11	C	0.835132	0.069579	0.000031
C12	C	0.742192	0.068636	0.000029
C13	C	0.404498	0.065172	0.000039
C14	C	0.427117	0.118746	0.000381
C15	C	0.523780	0.119765	0.000045
C16	C	0.572032	0.066891	0.000034
C17	C	0.543267	0.040111	-0.084236
C18	C	0.446485	0.039466	-0.084303
C19	C	0.446663	0.038362	0.083506
C20	C	0.543129	0.040347	0.084616
C21	C	0.666715	0.067859	0.000029
C22	C	0.309815	0.064201	0.000038
C23	C	0.995521	-0.022342	0.000013
C24	C	0.994564	-0.076001	0.000006
C25	C	1.065071	-0.414520	0.000052
C26	C	1.061518	-0.616195	0.000065
O27	O	1.125992	-0.647180	0.000104
N28	N	0.984721	-0.635641	0.000063
C29	C	0.908806	-0.604664	0.000064
O30	O	0.843404	-0.625831	0.000072
C31	C	0.912360	-0.402991	0.000058
C32	C	0.989162	-0.383548	0.000051
C33	C	1.141867	-0.395077	0.000046
C34	C	1.142754	-0.344662	0.000038
C35	C	1.066845	-0.313689	0.000036
C36	C	0.990049	-0.333132	0.000043
C37	C	0.836446	-0.372015	0.000066
C38	C	0.837342	-0.321594	0.000067
C39	C	0.914144	-0.302151	0.000059
C40	C	0.915028	-0.251744	0.000033
N41	N	0.991825	-0.232298	0.000035
C42	C	1.067734	-0.263271	0.000036
C43	C	0.906946	-0.710546	0.000066
C44	C	0.906057	-0.760964	0.000066
C45	C	1.058770	-0.772492	0.000068
C46	C	1.059657	-0.722072	0.000061
C47	C	0.983743	-0.691100	0.000067
C48	C	1.069592	-0.157394	0.000019
C49	C	1.070473	-0.106973	0.000007
C50	C	0.917761	-0.095450	0.000010
C51	C	0.916880	-0.145867	0.000017
C52	C	0.992802	-0.176838	0.000025
O53	O	0.850589	-0.220730	0.000004
O54	O	1.133127	-0.242094	0.000048
C55	C	1.064183	-0.464936	0.000060
C56	C	0.987387	-0.484379	0.000067
C57	C	0.911479	-0.453407	0.000065
C58	C	0.986499	-0.534797	0.000067
C59	C	1.062407	-0.565770	0.000068
C60	C	1.139205	-0.546324	0.000070
C61	C	1.140092	-0.495909	0.000062
C62	C	0.834682	-0.472852	0.000064
C63	C	0.833800	-0.523269	0.000071
C64	C	0.909709	-0.554241	0.000072
C65	C	1.141397	0.062484	0.000036
C66	C	1.234338	0.063426	0.000044
C67	C	0.981008	0.154404	0.000054
C68	C	0.981966	0.208063	0.000067
N69	N	0.988245	0.066046	-0.229868
C70	C	0.988261	0.066034	-0.410865
C71	C	0.918949	0.105737	-0.448526
C72	C	0.918715	0.105629	-0.551352
C73	C	0.988276	0.066024	-0.589069
C74	C	0.970204	0.015531	-0.551740
C75	C	0.969698	0.015769	-0.448882
C76	C	1.075862	0.076370	-0.448750
C77	C	1.075268	0.077510	-0.551614
C78	C	0.988286	0.066015	-0.689783
C79	C	0.988249	0.066040	-0.310152
N80	N	0.988291	0.066013	0.229933
H81	H	0.432442	0.000185	-0.088138
H82	H	0.542541	0.140735	0.060456
Br83	Br	0.729559	-0.549648	0.000074
Br84	Br	0.380023	0.153162	0.101111
Br85	Br	0.936403	0.168178	-0.593426
Br86	Br	0.811170	0.094860	-0.405478
Br87	Br	0.731651	-0.430825	0.000066
Br88	Br	1.242223	-0.588368	0.000065
H89	H	0.575638	0.001203	-0.087377
Br90	Br	0.936312	0.168502	-0.407299
H91	H	1.131415	-0.182605	0.000029
H92	H	0.418126	0.055103	0.147377
H93	H	0.775522	-0.296378	0.000073
Br94	Br	0.865009	0.000028	-0.594703
H95	H	0.855958	-0.070224	0.000006
Br96	Br	0.810339	0.094586	-0.592405
Br97	Br	1.246991	-0.318283	0.000053
Br98	Br	0.553995	0.154942	-0.100799
Br99	Br	0.812648	-0.172254	0.000007
H100	H	1.202632	-0.480083	0.000056
Br101	Br	1.161814	0.028118	-0.408149
H102	H	0.419421	0.058020	-0.147289
H103	H	0.905842	0.006690	-0.424910
H104	H	1.093469	0.112416	-0.422807
Br105	Br	0.378295	0.152984	-0.099760
H106	H	0.563078	0.058716	-0.146942
Br107	Br	1.098165	0.139424	-0.592272
H108	H	1.129193	0.050479	-0.577288
H109	H	1.018314	-0.014672	-0.423967
H110	H	0.561454	0.059845	0.146959
Br111	Br	1.174711	-0.080590	-0.000004
H112	H	0.576599	0.001754	0.089698
H113	H	0.433180	-0.001073	0.084068
Br114	Br	1.244900	-0.437103	0.000049
Br115	Br	1.163892	-0.695691	0.000049
H116	H	0.843517	-0.776790	0.000056
Br117	Br	1.161788	-0.814535	0.000072
Br118	Br	0.803909	-0.668519	0.000075
H119	H	0.773906	-0.387836	0.000077
H120	H	1.019393	-0.014736	-0.576169
