data_functionalizedCrystal
_audit_creation_method	'MofGen! by Chris Wilmer'
_symmetry_space_group_name_H-M	'P1'
_symmetry_Int_Tables_number	1
_symmetry_cell_setting	triclinic
loop_
_symmetry_equiv_pos_as_xyz
  x,y,z
_cell_length_a	12.827893
_cell_length_b	16.120297
_cell_length_c	12.827892
_cell_angle_alpha	87.123928
_cell_angle_beta	89.984637
_cell_angle_gamma	92.880435
loop_
_atom_site_label
_atom_site_type_symbol
_atom_site_fract_x
_atom_site_fract_y
_atom_site_fract_z
Zn1	Zn	1.567699	-0.471360	0.446020
Zn2	Zn	1.576457	-0.331957	0.611914
Zn3	Zn	1.401803	-0.331968	0.437188
Zn4	Zn	1.392927	-0.471328	0.620717
O5	O	1.484721	-0.401653	0.528960
O6	O	1.715096	-0.452876	0.468038
O7	O	1.560668	-0.215295	0.581356
O8	O	1.423859	-0.350476	0.292125
O9	O	1.721530	-0.350457	0.589919
O10	O	1.545742	-0.452887	0.298613
O11	O	1.432351	-0.215303	0.452985
O12	O	1.254390	-0.350446	0.461522
O13	O	1.408731	-0.587996	0.604923
O14	O	1.247869	-0.452834	0.596360
O15	O	1.537135	-0.588019	0.476574
O16	O	1.552062	-0.350427	0.759316
O17	O	1.417223	-0.452823	0.765784
C18	C	1.213212	-0.401638	0.528939
C19	C	1.097058	-0.401651	0.528956
C20	C	0.922039	-0.452423	0.468782
C21	C	1.042091	-0.452410	0.468763
C22	C	1.470966	-0.619103	0.542716
C23	C	1.465105	-0.711767	0.548578
C24	C	1.454364	-0.881425	0.559257
C25	C	1.515284	-0.922733	0.498349
C26	C	1.509308	-1.017137	0.504291
C27	C	1.460339	-0.787013	0.553316
C28	C	1.757290	-0.401669	0.528982
C29	C	1.873443	-0.401676	0.528991
C30	C	1.484657	-0.401638	0.800469
C31	C	1.484723	-0.401660	0.916623
C32	C	1.498483	-0.185050	0.515182
C33	C	1.504547	-0.092386	0.509025
C34	C	1.484813	-0.401686	0.256392
C35	C	1.484853	-0.401700	0.140239
C36	C	1.551517	-0.351048	0.965176
C37	C	1.551587	-0.351069	1.085228
H38	H	1.083895	-0.495853	0.417211
H39	H	1.608769	-0.307735	1.126995
O40	O	0.929721	-0.349715	0.590416
C41	C	0.908385	-0.266637	0.562172
H42	H	0.829225	-0.264913	0.521970
H43	H	0.907115	-0.229151	0.635152
H44	H	0.971563	-0.238669	0.506559
O45	O	1.582824	-0.880219	0.430893
C46	C	1.573810	-0.794060	0.439879
H47	H	1.540304	-0.782259	0.519800
H48	H	1.654140	-0.760902	0.430730
H49	H	1.519699	-0.769347	0.376373
O50	O	1.386856	-0.923719	0.626933
C51	C	1.411000	-0.902536	0.729780
H52	H	1.455087	-0.839290	0.728046
H53	H	1.335748	-0.899660	0.776465
H54	H	1.461685	-0.951527	0.767995
O55	O	1.619535	-0.299244	0.908692
C56	C	1.563404	-0.245407	0.842206
H57	H	1.481485	-0.240181	0.874907
H58	H	1.605318	-0.181275	0.836796
H59	H	1.558019	-0.271229	0.761152
O60	O	0.865691	-0.504388	0.407422
C61	C	0.887071	-0.587463	0.435632
H62	H	0.916878	-0.591576	0.519351
H63	H	0.812651	-0.628619	0.429394
H64	H	0.948968	-0.609371	0.380963
O65	O	1.416769	-0.453488	1.090385
C66	C	1.472827	-0.507304	1.030556
H67	H	1.554785	-0.512540	1.063772
H68	H	1.430911	-0.571435	1.033268
H69	H	1.478113	-0.481454	0.946251
H70	H	1.055262	-0.358201	0.580503
O71	O	1.416418	-0.453335	0.972936
C72	C	1.313399	-0.435043	0.945305
H73	H	1.313169	-0.403035	0.864024
H74	H	1.262670	-0.495180	0.945499
H75	H	1.281054	-0.392124	1.004049
