data_functionalizedCrystal
_audit_creation_method	'MofGen! by Chris Wilmer'
_symmetry_space_group_name_H-M	'P1'
_symmetry_Int_Tables_number	1
_symmetry_cell_setting	triclinic
loop_
_symmetry_equiv_pos_as_xyz
  x,y,z
_cell_length_a	21.295419
_cell_length_b	13.897447
_cell_length_c	13.897441
_cell_angle_alpha	90.026528
_cell_angle_beta	89.978117
_cell_angle_gamma	89.964003
loop_
_atom_site_label
_atom_site_type_symbol
_atom_site_fract_x
_atom_site_fract_y
_atom_site_fract_z
Zn1	Zn	0.962380	0.383603	-0.545438
Zn2	Zn	0.962304	0.544925	-0.384151
Zn3	Zn	0.857108	0.383687	-0.384153
Zn4	Zn	0.857089	0.544900	-0.545400
O5	O	0.909720	0.464279	-0.464786
O6	O	1.050459	0.404978	-0.524058
O7	O	0.948326	0.523582	-0.249170
O8	O	0.871112	0.248694	-0.405565
O9	O	1.050404	0.523501	-0.405561
O10	O	0.948455	0.248633	-0.524060
O11	O	0.871038	0.405121	-0.249171
O12	O	0.769016	0.405097	-0.405528
O13	O	0.871080	0.523458	-0.680387
O14	O	0.769003	0.523539	-0.523996
O15	O	0.948437	0.404954	-0.680415
O16	O	0.948308	0.679903	-0.405524
O17	O	0.871007	0.679885	-0.523994
C18	C	0.746169	0.464325	-0.464759
C19	C	0.676201	0.464368	-0.464770
C20	C	0.643385	0.402754	-0.526567
C21	C	0.577643	0.402728	-0.526571
C22	C	0.544718	0.464333	-0.464788
C23	C	0.577541	0.525951	-0.402979
C24	C	0.643283	0.525969	-0.402970
N25	N	0.441452	0.548732	-0.457264
N26	N	0.379000	0.548712	-0.457278
C27	C	0.346643	0.464284	-0.464809
N28	N	0.379097	0.379873	-0.472345
N29	N	0.441554	0.379893	-0.472336
C30	C	0.473433	0.464321	-0.464790
C31	C	0.242543	0.402636	-0.526613
C32	C	0.176799	0.402609	-0.526610
C33	C	0.176699	0.525841	-0.403023
C34	C	0.242441	0.525860	-0.403021
C35	C	0.275359	0.464259	-0.464821
C36	C	0.909664	0.714893	-0.464776
C37	C	0.909698	0.822107	-0.464804
C38	C	0.909727	0.909177	-0.464830
C39	C	0.909769	1.018409	-0.464860
C40	C	1.073911	0.464233	-0.464813
C41	C	1.143879	0.464213	-0.464825
C42	C	0.909765	0.464193	-0.716379
C43	C	0.909784	0.464157	-0.823593
C44	C	0.909789	1.212686	-0.464829
C45	C	0.909806	1.105472	-0.464879
C46	C	0.909801	0.464092	-1.019888
C47	C	0.909790	0.464131	-0.910656
C48	C	0.909712	0.464294	-0.214171
C49	C	0.909815	0.464059	-0.106958
H50	H	0.269346	0.352471	-0.576928
H51	H	0.670000	0.576144	-0.352646
O52	O	0.545533	0.585900	-0.343103
C53	C	0.507480	0.648243	-0.397921
H54	H	0.527314	0.654299	-0.473878
H55	H	0.457672	0.618412	-0.401303
C56	C	0.482044	0.741023	-0.257336
C57	C	0.506407	0.748467	-0.350625
H58	H	0.481379	0.802844	-0.228161
H59	H	0.507679	0.699019	-0.220403
H60	H	0.440540	0.716160	-0.260167
H61	H	0.547913	0.773318	-0.347792
H62	H	0.480779	0.790477	-0.387557
O63	O	0.145017	0.342721	-0.586732
C64	C	0.188173	0.288343	-0.641255
H65	H	0.235014	0.327872	-0.644523
H66	H	0.195195	0.215041	-0.606061
C67	C	0.105019	0.226014	-0.739928
C68	C	0.162549	0.274568	-0.743949
H69	H	0.089213	0.217512	-0.803273
H70	H	0.075944	0.262646	-0.703193
H71	H	0.110879	0.164934	-0.710595
H72	H	0.156687	0.335651	-0.773270
H73	H	0.191623	0.237945	-0.780692
H74	H	0.149892	0.576001	-0.352718
H75	H	0.269160	0.576036	-0.352704
H76	H	0.670183	0.352593	-0.576888
O77	O	0.545854	0.342850	-0.586700
C78	C	0.589006	0.288467	-0.641226
H79	H	0.635852	0.327985	-0.644485
H80	H	0.596020	0.215160	-0.606038
C81	C	0.505850	0.226168	-0.739912
C82	C	0.563385	0.274709	-0.743923
H83	H	0.490046	0.217677	-0.803259
H84	H	0.476777	0.262804	-0.703176
H85	H	0.511703	0.165084	-0.710585
H86	H	0.557530	0.335796	-0.773238
H87	H	0.592457	0.238083	-0.780667
