data_functionalizedCrystal
_audit_creation_method	'MofGen! by Chris Wilmer'
_symmetry_space_group_name_H-M	'P1'
_symmetry_Int_Tables_number	1
_symmetry_cell_setting	triclinic
loop_
_symmetry_equiv_pos_as_xyz
  x,y,z
_cell_length_a	17.699077
_cell_length_b	15.625429
_cell_length_c	16.776229
_cell_angle_alpha	71.916203
_cell_angle_beta	89.993415
_cell_angle_gamma	83.780415
loop_
_atom_site_label
_atom_site_type_symbol
_atom_site_fract_x
_atom_site_fract_y
_atom_site_fract_z
O1	O	1.004378	0.113982	-0.099220
O2	O	1.504378	0.613982	0.400780
O3	O	0.784037	0.128821	-0.103512
O4	O	1.284037	0.628821	0.396488
O5	O	0.900092	-0.009850	-0.063427
O6	O	1.400092	0.490150	0.436573
O7	O	0.888322	0.252653	-0.139305
O8	O	1.388322	0.752653	0.360695
O9	O	0.900077	-0.009858	0.069151
O10	O	1.400077	0.490142	0.569151
O11	O	0.784022	0.128812	0.029067
O12	O	1.284022	0.628812	0.529067
O13	O	1.004362	0.113974	0.033359
O14	O	1.504362	0.613974	0.533359
Zn15	Zn	0.894189	0.121392	0.052263
Zn16	Zn	1.394189	0.621392	0.552263
Zn17	Zn	0.894210	0.121403	-0.122416
Zn18	Zn	1.394210	0.621403	0.377584
O19	O	0.888307	0.252644	-0.006726
O20	O	1.388307	0.752644	0.493274
C21	C	0.755831	0.128286	-0.037070
C22	C	1.255831	0.628286	0.462930
C23	C	0.671808	0.126693	-0.036611
C24	C	1.171808	0.626693	0.463389
C25	C	0.632331	0.125938	0.035876
C26	C	1.132331	0.625938	0.535876
C27	C	0.553384	0.124428	0.036313
C28	C	1.053384	0.624428	0.536313
C29	C	0.513916	0.123679	-0.035739
C30	C	1.013916	0.623679	0.464261
C31	C	0.553400	0.124431	-0.108230
C32	C	1.053400	0.624431	0.391770
C33	C	0.632346	0.125935	-0.108665
C34	C	1.132346	0.625935	0.391335
C35	C	0.235021	0.118364	-0.106478
C36	C	0.735021	0.618364	0.393522
C37	C	0.156069	0.116863	-0.106038
C38	C	0.656069	0.616863	0.393962
C39	C	0.156059	0.116857	0.038500
C40	C	0.656059	0.616857	0.538500
C41	C	0.235005	0.118361	0.038065
C42	C	0.735005	0.618361	0.538065
C43	C	0.274482	0.119108	-0.034424
C44	C	0.774482	0.619108	0.465576
C45	C	0.360085	0.120744	-0.034897
C46	C	0.860085	0.620744	0.465103
C47	C	0.428314	0.122049	-0.035268
C48	C	0.928314	0.622049	0.464732
C49	C	0.899551	-0.043441	0.012569
C50	C	1.399551	0.456559	0.512569
C51	C	0.897953	-0.143518	0.041491
C52	C	1.397953	0.356482	0.541491
C53	C	0.892715	-0.472639	-0.224701
C54	C	1.392715	0.027361	0.275299
C55	C	0.891210	-0.566676	-0.197499
C56	C	1.391210	-0.066676	0.302501
C57	C	0.891193	-0.566672	-0.052971
C58	C	1.391193	-0.066672	0.447029
C59	C	0.892702	-0.472633	-0.080160
C60	C	1.392702	0.027367	0.419840
C61	C	0.893463	-0.425624	-0.166026
C62	C	1.393463	0.074376	0.333974
C63	C	0.893450	-0.425618	-0.021486
C64	C	1.393450	0.074382	0.478514
C65	C	0.894955	-0.331587	-0.048674
C66	C	1.394955	0.168413	0.451326
C67	C	0.895713	-0.284570	-0.134536
C68	C	1.395713	0.215430	0.365464
C69	C	0.894968	-0.331592	-0.193214
C70	C	1.394968	0.168408	0.306786
C71	C	0.892684	-0.472628	0.064380
C72	C	1.392684	0.027372	0.564380
C73	C	0.893431	-0.425613	0.123054
C74	C	1.393431	0.074387	0.623054
C75	C	0.894942	-0.331581	0.095867
C76	C	1.394942	0.168419	0.595867
C77	C	0.895700	-0.284565	0.010004
C78	C	1.395700	0.215435	0.510004
C79	C	0.895687	-0.284559	0.154545
C80	C	1.395687	0.215441	0.654545
C81	C	0.897192	-0.190528	0.127357
C82	C	1.397192	0.309472	0.627357
C83	C	0.897205	-0.190533	-0.017183
C84	C	1.397205	0.309467	0.482817
C85	C	1.032568	0.114509	-0.033085
C86	C	1.532568	0.614509	0.466915
C87	C	1.116591	0.116101	-0.033549
C88	C	1.616591	0.616101	0.466451
C89	C	0.888848	0.286235	-0.082723
C90	C	1.388848	0.786235	0.417277
C91	C	0.890447	0.386313	-0.111651
C92	C	1.390447	0.886313	0.388349
N93	N	0.894181	0.121383	0.171476
N94	N	1.394181	0.621383	0.671476
N95	N	0.894224	0.121404	-0.241627
N96	N	1.394224	0.621404	0.258373
C97	C	0.945586	0.060005	0.230936
C98	C	1.445586	0.560005	0.730936
C99	C	0.945590	0.060004	0.314388
C100	C	1.445590	0.560004	0.814388
C101	C	0.894193	0.121387	0.338378
C102	C	1.394193	0.621387	0.838378
C103	C	0.842782	0.182768	0.278912
C104	C	1.342782	0.682768	0.778912
C105	C	0.842775	0.182764	0.195463
C106	C	1.342775	0.682764	0.695463
C107	C	0.842809	0.182786	0.615454
C108	C	1.342809	0.682786	1.115454
C109	C	0.842822	0.182787	0.698910
C110	C	1.342822	0.682787	1.198910
C111	C	0.945625	0.060026	0.734380
C112	C	1.445625	0.560026	1.234380
C113	C	0.945618	0.060022	0.650930
C114	C	1.445618	0.560022	1.150930
C115	C	0.894205	0.121400	0.591472
C116	C	1.394205	0.621400	1.091472
C117	C	0.894200	0.121399	0.500984
C118	C	1.394200	0.621399	1.000984
C119	C	0.894200	0.121393	0.428863
C120	C	1.394200	0.621393	0.928863
H121	H	0.521247	0.123798	0.095343
H122	H	1.021247	0.623798	0.595343
H123	H	0.664487	0.126551	-0.167691
H124	H	1.164487	0.626551	0.332309
H125	H	0.123937	0.116252	-0.164715
H126	H	0.623937	0.616252	0.335285
H127	H	0.891450	-0.549193	0.086513
H128	H	1.391450	-0.049193	0.586513
H129	H	0.521259	0.123815	-0.166894
H130	H	1.021259	0.623815	0.333106
C131	C	0.898045	-0.138818	-0.111641
C132	C	1.398045	0.361182	0.388359
N133	N	0.898675	-0.099866	-0.182783
N134	N	1.398675	0.400134	0.317217
H135	H	0.892810	-0.463900	0.192966
H136	H	1.392810	0.036100	0.692966
H137	H	0.987486	0.010047	0.782801
H138	H	1.487486	0.510047	1.282801
C139	C	0.786273	0.250310	0.725297
C140	C	1.286273	0.750310	1.225297
N141	N	0.743682	0.301165	0.745173
N142	N	1.243682	0.801165	1.245173
H143	H	0.895061	-0.322847	0.224457
H144	H	1.395061	0.177153	0.724457
H145	H	0.987448	0.010025	0.362801
H146	H	1.487448	0.510025	0.862801
C147	C	0.893555	-0.420924	-0.319158
C148	C	1.393555	0.079076	0.180842
N149	N	0.894185	-0.381972	-0.390300
N150	N	1.394185	0.118028	0.109700
C151	C	1.002158	-0.007505	0.624548
C152	C	1.502158	0.492495	1.124548
N153	N	1.044742	-0.058371	0.604679
N154	N	1.544742	0.441629	1.104679
C155	C	0.898019	-0.138809	0.191902
C156	C	1.398019	0.361191	0.691902
N157	N	0.898640	-0.099854	0.240520
N158	N	1.398640	0.400146	0.740520
H159	H	0.895594	-0.293316	-0.263135
H160	H	1.395594	0.206684	0.236865
C161	C	1.002128	-0.007522	0.204556
C162	C	1.502128	0.492478	0.704556
N163	N	1.044715	-0.058388	0.184691
N164	N	1.544715	0.441612	0.684691
H165	H	0.800949	0.232763	0.567049
H166	H	1.300949	0.732763	1.067049
H167	H	0.800915	0.232743	0.147050
H168	H	1.300915	0.732743	0.647050
C169	C	0.890367	-0.618386	-0.262054
C170	C	1.390367	-0.118386	0.237946
N171	N	0.889722	-0.657333	-0.310677
N172	N	1.389722	-0.157333	0.189323
H173	H	0.896930	-0.208003	-0.156671
H174	H	1.396930	0.291997	0.343329
H175	H	0.267136	0.118975	0.096736
H176	H	0.767136	0.618975	0.596736
C177	C	0.112629	0.116024	0.118244
C178	C	0.612629	0.616024	0.618244
N179	N	0.079918	0.115398	0.178305
N180	N	0.579918	0.615398	0.678305
H181	H	0.800929	0.232744	0.298450
H182	H	1.300929	0.732744	0.798450
C183	C	0.890354	-0.618392	0.041479
C184	C	1.390354	-0.118392	0.541479
N185	N	0.889723	-0.657348	0.112621
N186	N	1.389723	-0.157348	0.612621
H187	H	0.664459	0.126556	0.094546
H188	H	1.164459	0.626556	0.594546
H189	H	0.267154	0.118970	-0.165502
H190	H	0.767154	0.618970	0.334498
