data_functionalizedCrystal
_audit_creation_method	'MofGen! by Chris Wilmer'
_symmetry_space_group_name_H-M	'P1'
_symmetry_Int_Tables_number	1
_symmetry_cell_setting	triclinic
loop_
_symmetry_equiv_pos_as_xyz
  x,y,z
_cell_length_a	13.033293
_cell_length_b	12.827892
_cell_length_c	12.827885
_cell_angle_alpha	89.970214
_cell_angle_beta	82.790076
_cell_angle_gamma	97.185404
loop_
_atom_site_label
_atom_site_type_symbol
_atom_site_fract_x
_atom_site_fract_y
_atom_site_fract_z
Zn1	Zn	1.597787	-0.213254	-0.794158
Zn2	Zn	2.097787	0.286746	-0.294158
Zn3	Zn	1.597681	-0.388045	-0.619405
Zn4	Zn	2.097681	0.111955	-0.119405
Zn5	Zn	1.423015	-0.235480	-0.597193
Zn6	Zn	1.923015	0.264520	-0.097193
Zn7	Zn	1.423001	-0.410131	-0.771878
Zn8	Zn	1.923001	0.089869	-0.271878
O9	O	1.510371	-0.311727	-0.695658
O10	O	2.010371	0.188273	-0.195658
O11	O	1.744019	-0.217896	-0.789597
O12	O	2.244019	0.282104	-0.289597
O13	O	1.574473	-0.367865	-0.470217
O14	O	2.074473	0.132135	0.029783
O15	O	1.446250	-0.086289	-0.623349
O16	O	1.946250	0.413711	-0.123349
O17	O	1.743942	-0.346314	-0.661206
O18	O	2.243942	0.153686	-0.161206
O19	O	1.574653	-0.069960	-0.768059
O20	O	2.074653	0.430040	-0.268059
O21	O	1.446147	-0.255777	-0.453898
O22	O	1.946147	0.244223	0.046102
O23	O	1.276767	-0.277193	-0.601745
O24	O	1.776767	0.222807	-0.101745
O25	O	1.446224	-0.383956	-0.921074
O26	O	1.946224	0.116044	-0.421074
O27	O	1.276756	-0.405508	-0.730085
O28	O	1.776756	0.094492	-0.230085
O29	O	1.574639	-0.239311	-0.937443
O30	O	2.074639	0.260689	-0.437443
O31	O	1.574459	-0.537217	-0.639602
O32	O	2.074459	-0.037217	-0.139602
O33	O	1.446122	-0.553443	-0.751623
O34	O	1.946122	-0.053443	-0.251623
C35	C	1.510305	-0.583246	-0.695632
C36	C	2.010305	-0.083246	-0.195632
C37	C	1.510373	-0.699390	-0.695667
C38	C	2.010373	-0.199390	-0.195667
C39	C	1.238841	-0.346159	-0.661088
C40	C	1.738841	0.153841	-0.161088
C41	C	1.122679	-0.360915	-0.646323
C42	C	1.622679	0.139085	-0.146323
C43	C	1.573954	-0.743101	-0.640316
C44	C	2.073954	-0.243101	-0.140316
C45	C	1.574025	-0.863143	-0.640351
C46	C	2.074025	-0.363143	-0.140351
C47	C	1.070929	-0.304053	-0.703364
C48	C	1.570929	0.195947	-0.203364
C49	C	0.950870	-0.319302	-0.688105
C50	C	1.450870	0.180698	-0.188105
C51	C	1.782961	-0.277162	-0.730365
C52	C	2.282961	0.222838	-0.230365
C53	C	1.899123	-0.262432	-0.745154
C54	C	2.399123	0.237568	-0.245154
C55	C	1.510442	-0.311618	-0.968238
C56	C	2.010442	0.188382	-0.468238
C57	C	1.510472	-0.311571	-1.084395
C58	C	2.010472	0.188429	-0.584395
C59	C	1.510465	-0.039145	-0.695712
C60	C	2.010465	0.460855	-0.195712
C61	C	1.510505	0.077013	-0.695734
C62	C	2.010505	0.577013	-0.195734
C63	C	1.574023	-0.239983	-1.144280
C64	C	2.074023	0.260017	-0.644280
C65	C	1.574056	-0.239934	-1.264335
C66	C	2.074056	0.260066	-0.764335
C67	C	1.510360	-0.311753	-0.424147
C68	C	2.010360	0.188247	0.075853
C69	C	1.510532	-0.311480	-0.308016
C70	C	2.010532	0.188520	0.191984
H71	H	1.628339	-0.691656	-0.592905
H72	H	2.128339	-0.191656	-0.092905
Cl73	Cl	1.139745	-0.211456	-0.796202
Cl74	Cl	1.639745	0.288544	-0.296202
Cl75	Cl	1.426450	-0.864917	-0.768898
Cl76	Cl	1.926450	-0.364917	-0.268898
H77	H	0.943695	-0.202451	-0.805285
H78	H	1.443695	0.297549	-0.305285
Cl79	Cl	1.426529	-0.406119	-1.228565
Cl80	Cl	1.926529	0.093881	-0.728565
H81	H	1.628467	-0.178647	-1.315805
H82	H	2.128467	0.321353	-0.815805
H83	H	0.906296	-0.379274	-0.627968
H84	H	1.406296	0.120726	-0.127968
Cl85	Cl	1.426498	-0.406140	-1.142451
Cl86	Cl	1.926498	0.093860	-0.642451
Cl87	Cl	1.053863	-0.453502	-0.553476
Cl88	Cl	1.553863	0.046498	-0.053476
H89	H	1.628456	-0.900765	-0.592960
H90	H	2.128456	-0.400765	-0.092960
H91	H	1.455997	-0.750837	-0.743087
H92	H	1.955997	-0.250837	-0.243087
H93	H	1.628403	-0.178728	-1.106670
H94	H	2.128403	0.321272	-0.606670
