data_functionalizedCrystal
_audit_creation_method	'MofGen! by Chris Wilmer'
_symmetry_space_group_name_H-M	'P1'
_symmetry_Int_Tables_number	1
_symmetry_cell_setting	triclinic
loop_
_symmetry_equiv_pos_as_xyz
  x,y,z
_cell_length_a	18.101395
_cell_length_b	17.077404
_cell_length_c	18.101389
_cell_angle_alpha	90.018907
_cell_angle_beta	90.016841
_cell_angle_gamma	90.031329
loop_
_atom_site_label
_atom_site_type_symbol
_atom_site_fract_x
_atom_site_fract_y
_atom_site_fract_z
Zn1	Zn	-0.294903	1.200005	0.418740
Zn2	Zn	-0.418729	1.199895	0.294902
Zn3	Zn	-0.294906	1.068738	0.294913
Zn4	Zn	-0.418708	1.068686	0.418702
O5	O	-0.356811	1.134331	0.356814
O6	O	-0.311336	1.309837	0.402324
O7	O	-0.402313	1.182472	0.191270
O8	O	-0.191273	1.086219	0.311359
O9	O	-0.402310	1.309756	0.311340
O10	O	-0.191270	1.182660	0.402334
O11	O	-0.311341	1.086112	0.191278
O12	O	-0.311321	0.958885	0.311322
O13	O	-0.402275	1.086130	0.522340
O14	O	-0.402277	0.958846	0.402270
O15	O	-0.311316	1.182610	0.522368
O16	O	-0.522359	1.182422	0.311304
O17	O	-0.522343	1.086023	0.402259
C18	C	-0.356798	0.930383	0.356794
C19	C	-0.356810	0.843133	0.356802
C20	C	-0.404242	0.802144	0.404083
C21	C	-0.404244	0.720163	0.404095
C22	C	-0.356816	0.679174	0.356822
C23	C	-0.309379	0.720169	0.309539
C24	C	-0.309374	0.802148	0.309532
C25	C	-0.309393	0.549299	0.309557
C26	C	-0.309399	0.467315	0.309563
C27	C	-0.404263	0.467314	0.404120
C28	C	-0.404259	0.549293	0.404112
C29	C	-0.356822	0.590283	0.356829
C30	C	-0.549222	1.134226	0.356792
C31	C	-0.631536	1.134253	0.356808
C32	C	-0.930627	1.134425	0.356848
C33	C	-0.899323	1.073915	0.414216
C34	C	-0.813705	1.073627	0.414037
C35	C	-0.782244	1.134340	0.356828
C36	C	-0.813381	1.111944	0.278779
C37	C	-0.899027	1.111554	0.279122
C38	C	-0.898974	1.217464	0.376841
C39	C	-0.813323	1.216976	0.378553
C40	C	-0.698385	1.134293	0.356813
C41	C	-1.014486	1.134470	0.356858
C42	C	-0.163649	1.134458	0.356852
C43	C	-0.081335	1.134512	0.356868
C44	C	-0.356792	1.134376	0.549976
C45	C	-0.356784	1.134396	0.632290
C46	C	-0.356825	1.339075	0.356835
C47	C	-0.356831	1.426325	0.356844
C48	C	-0.356776	1.134331	0.164403
C49	C	-0.356576	1.134464	0.082090
C50	C	-0.356646	1.134442	0.931381
C51	C	-0.413692	1.073530	0.900039
C52	C	-0.413957	1.073695	0.814420
C53	C	-0.356715	1.134418	0.782999
C54	C	-0.377898	1.217122	0.814098
C55	C	-0.378273	1.216783	0.899743
C56	C	-0.278288	1.113368	0.899805
C57	C	-0.278741	1.111528	0.814154
C58	C	-0.356752	1.134410	0.699139
C59	C	-0.356610	1.134455	1.015241
H60	H	-0.270770	0.433943	0.271079
N61	N	-0.924368	1.274036	0.324441
N62	N	-0.905335	1.344114	0.330520
H63	H	-0.923274	1.384064	0.293512
N64	N	-0.452701	0.844010	0.452360
N65	N	-0.521030	0.834816	0.447327
H66	H	-0.555255	0.864382	0.481424
H67	H	-0.270758	0.582671	0.271060
N68	N	-0.925997	1.243090	0.447026
N69	N	-0.906682	1.308112	0.472223
H70	H	-0.925766	1.326204	0.521795
H71	H	-0.442869	0.686793	0.442594
H72	H	-0.442886	0.433937	0.442622
H73	H	-0.270759	0.686789	0.271052
N74	N	-0.260911	0.844009	0.261238
N75	N	-0.218564	0.807404	0.219037
H76	H	-0.184332	0.836967	0.184931
N77	N	-0.786449	1.276528	0.329960
N78	N	-0.718567	1.288762	0.324686
H79	H	-0.699587	1.330818	0.290361
N80	N	-0.787299	1.091206	0.486640
N81	N	-0.832124	1.103772	0.537798
H82	H	-0.813479	1.116186	0.589078
N83	N	-0.788086	0.996409	0.397425
N84	N	-0.833460	0.942564	0.385922
H85	H	-0.815369	0.888025	0.374188
H86	H	-0.792970	1.233865	0.435993
H87	H	-0.435553	1.234648	0.919726
N88	N	-0.254082	1.039028	0.926896
N89	N	-0.294294	1.000673	0.969810
H90	H	-0.277206	0.948168	0.988945
N91	N	-0.452715	0.591152	0.452398
N92	N	-0.495065	0.554548	0.494610
H93	H	-0.529288	0.584110	0.528714
H94	H	-0.400701	1.012366	0.793393
N95	N	-0.787829	1.165482	0.223680
N96	N	-0.833195	1.204707	0.187084
H97	H	-0.815149	1.242519	0.148169
N98	N	-0.925064	1.091364	0.487061
N99	N	-0.966788	1.148595	0.497547
H100	H	-0.984954	1.160935	0.548999
N101	N	-0.328434	1.275665	0.925757
N102	N	-0.351774	1.330316	0.965314
H103	H	-0.316580	1.371906	0.983683
H104	H	-0.400572	1.012017	0.920630
H105	H	-0.471419	1.087305	0.921564
N106	N	-0.926407	0.997173	0.397810
N107	N	-0.968664	0.986852	0.344050
H108	H	-0.987795	0.932654	0.332460
H109	H	-0.472038	1.087608	0.793938
H110	H	-0.919067	1.050852	0.262186
H111	H	-0.791994	1.051885	0.261539
H112	H	-0.919736	1.153715	0.234920
H113	H	-0.337654	1.263724	0.793746
N114	N	-0.448990	1.239917	0.787192
N115	N	-0.484177	1.195396	0.745123
H116	H	-0.534388	1.211491	0.726121
H117	H	-0.262766	1.050665	0.793828
N118	N	-0.222595	1.163124	0.787317
N119	N	-0.239209	1.217854	0.744604
H120	H	-0.199558	1.254301	0.725649
N121	N	-0.224975	1.169028	0.925236
N122	N	-0.244503	1.224000	0.966434
H123	H	-0.206856	1.263313	0.984398
