data_functionalizedCrystal
_audit_creation_method	'MofGen! by Chris Wilmer'
_symmetry_space_group_name_H-M	'P1'
_symmetry_Int_Tables_number	1
_symmetry_cell_setting	triclinic
loop_
_symmetry_equiv_pos_as_xyz
  x,y,z
_cell_length_a	27.731993
_cell_length_b	27.732048
_cell_length_c	14.750779
_cell_angle_alpha	77.459753
_cell_angle_beta	102.543346
_cell_angle_gamma	82.631525
loop_
_atom_site_label
_atom_site_type_symbol
_atom_site_fract_x
_atom_site_fract_y
_atom_site_fract_z
O1	O	0.630405	0.067928	-0.079584
O2	O	1.130405	0.567928	0.420416
O3	O	0.489600	0.076709	-0.079644
O4	O	0.989600	0.576709	0.420356
O5	O	0.564378	0.001918	-0.079594
O6	O	1.064378	0.501918	0.420406
O7	O	0.555627	0.142718	-0.079634
O8	O	1.055627	0.642718	0.420366
O9	O	0.585516	-0.019222	0.080070
O10	O	1.085516	0.480778	0.580070
O11	O	0.510738	0.055568	0.080020
O12	O	1.010738	0.555568	0.580020
O13	O	0.651544	0.046787	0.080080
O14	O	1.151544	0.546787	0.580080
Zn15	Zn	0.584497	0.047821	0.105401
Zn16	Zn	1.084497	0.547821	0.605401
Zn17	Zn	0.556646	0.075674	-0.104964
Zn18	Zn	1.056646	0.575674	0.395036
O19	O	0.576765	0.121578	0.080030
O20	O	1.076765	0.621578	0.580030
C21	C	0.482161	0.065959	0.000181
C22	C	0.982161	0.565959	0.500181
C23	C	0.428501	0.065420	0.000159
C24	C	0.928501	0.565420	0.500159
C25	C	0.033825	0.073007	-0.086827
C26	C	0.533825	0.573007	0.413173
C27	C	0.235479	0.075077	-0.086854
C28	C	0.735479	0.575077	0.413146
O29	O	0.251752	0.085126	-0.160874
O30	O	0.751752	0.585126	0.339126
N31	N	0.272221	0.063813	0.000178
N32	N	0.772221	0.563813	0.500178
C33	C	0.258549	0.052026	0.087222
C34	C	0.758549	0.552026	0.587222
O35	O	0.294429	0.042488	0.161246
O36	O	0.794429	0.542488	0.661246
C37	C	0.056896	0.049952	0.087247
C38	C	0.556896	0.549952	0.587247
C39	C	0.020155	0.061223	0.000210
C40	C	0.520155	0.561223	0.500210
C41	C	-0.002916	0.084275	-0.173857
C42	C	0.497084	0.584275	0.326143
C43	C	-0.053327	0.083760	-0.173849
C44	C	0.446673	0.583760	0.326151
C45	C	-0.066997	0.071976	-0.086812
C46	C	0.433003	0.571976	0.413188
C47	C	-0.030256	0.060708	0.000218
C48	C	0.469744	0.560708	0.500218
C49	C	0.043225	0.038163	0.174290
C50	C	0.543225	0.538163	0.674290
C51	C	-0.007192	0.037644	0.174289
C52	C	0.492808	0.537644	0.674289
C53	C	-0.043934	0.048914	0.087252
C54	C	0.456066	0.548914	0.587252
C55	C	-0.094337	0.048409	0.087263
C56	C	0.405663	0.548409	0.587263
N57	N	-0.131080	0.059673	0.000232
N58	N	0.368920	0.559673	0.500232
C59	C	-0.117410	0.071457	-0.086806
C60	C	0.382590	0.571457	0.413194
C61	C	0.364418	0.053117	0.087202
C62	C	0.864418	0.553117	0.587202
C63	C	0.414831	0.053636	0.087196
C64	C	0.914831	0.553636	0.587196
C65	C	0.391758	0.076686	-0.086880
C66	C	0.891758	0.576686	0.413120
C67	C	0.341343	0.076170	-0.086872
C68	C	0.841343	0.576170	0.413128
C69	C	0.327676	0.064381	0.000171
C70	C	0.827676	0.564381	0.500171
C71	C	-0.223275	0.070375	-0.086783
C72	C	0.276725	0.570375	0.413217
C73	C	-0.273689	0.069861	-0.086768
C74	C	0.226311	0.569861	0.413232
C75	C	-0.250611	0.046808	0.087307
C76	C	0.249389	0.546808	0.587307
C77	C	-0.200201	0.047325	0.087292
C78	C	0.299799	0.547325	0.587292
C79	C	-0.186535	0.059108	0.000239
C80	C	0.313465	0.559108	0.500239
O81	O	-0.110646	0.038360	0.161244
O82	O	0.389354	0.538360	0.661244
O83	O	-0.153295	0.080984	-0.160819
O84	O	0.346705	0.580984	0.339181
C85	C	0.084235	0.073522	-0.086834
C86	C	0.584235	0.573522	0.413166
C87	C	0.120976	0.062253	0.000195
C88	C	0.620976	0.562253	0.500195
C89	C	0.107306	0.050469	0.087232
C90	C	0.607306	0.550469	0.587232
C91	C	0.171389	0.062772	0.000189
C92	C	0.671389	0.562772	0.500189
C93	C	0.185059	0.074556	-0.086848
C94	C	0.685059	0.574556	0.413152
C95	C	0.148316	0.085821	-0.173879
C96	C	0.648316	0.585821	0.326121
C97	C	0.097905	0.085306	-0.173872
C98	C	0.597905	0.585306	0.326128
C99	C	0.144049	0.039204	0.174264
C100	C	0.644049	0.539204	0.674264
C101	C	0.194458	0.039721	0.174249
C102	C	0.694458	0.539721	0.674249
C103	C	0.208129	0.051505	0.087212
C104	C	0.708129	0.551505	0.587212
C105	C	0.574764	-0.026660	0.000241
C106	C	1.074764	0.473340	0.500241
C107	C	0.574212	-0.080315	0.000248
C108	C	1.074212	0.419685	0.500248
C109	C	0.614913	-0.419134	0.000217
C110	C	1.114913	0.080866	0.500217
C111	C	0.612860	-0.620791	0.000202
C112	C	1.112860	-0.120791	0.500202
O113	O	0.650078	-0.652051	0.000176
O114	O	1.150078	-0.152051	0.500176
N115	N	0.568521	-0.639904	0.000184
N116	N	1.068521	-0.139904	0.500184
C117	C	0.524691	-0.608598	0.000164
C118	C	1.024691	-0.108598	0.500164
O119	O	0.486930	-0.629480	0.000138
O120	O	0.986930	-0.129480	0.500138
C121	C	0.526744	-0.406941	0.000171
C122	C	1.026744	0.093059	0.500171
C123	C	0.571087	-0.387833	0.000199
C124	C	1.071087	0.112167	0.500199
C125	C	0.659252	-0.400025	0.000243
C126	C	1.159252	0.099975	0.500243
C127	C	0.659765	-0.349614	0.000252
C128	C	1.159765	0.150386	0.500252
C129	C	0.615940	-0.318313	0.000234
C130	C	1.115940	0.181687	0.500234
C131	C	0.571600	-0.337422	0.000207
C132	C	1.071600	0.162578	0.500207
C133	C	0.482914	-0.375635	0.000143
C134	C	0.982914	0.124365	0.500143
C135	C	0.483431	-0.325218	0.000143
C136	C	0.983431	0.174782	0.500143
C137	C	0.527774	-0.306109	0.000170
C138	C	1.027774	0.193891	0.500170
C139	C	0.528288	-0.255710	0.000198
C140	C	1.028288	0.244290	0.500198
N141	N	0.572627	-0.236597	0.000216
N142	N	1.072627	0.263403	0.500216
C143	C	0.616453	-0.267898	0.000234
C144	C	1.116453	0.232102	0.500234
C145	C	0.523617	-0.714472	0.000162
C146	C	1.023617	-0.214472	0.500162
C147	C	0.523104	-0.764886	0.000161
C148	C	1.023104	-0.264886	0.500161
C149	C	0.611272	-0.777076	0.000198
C150	C	1.111272	-0.277076	0.500198
C151	C	0.611786	-0.726661	0.000205
C152	C	1.111786	-0.226661	0.500205
C153	C	0.567956	-0.695359	0.000180
C154	C	1.067956	-0.195359	0.500180
C155	C	0.617528	-0.162032	0.000254
C156	C	1.117528	0.337968	0.500254
C157	C	0.618038	-0.111617	0.000266
C158	C	1.118038	0.388383	0.500266
C159	C	0.529869	-0.099431	0.000224
C160	C	1.029869	0.400569	0.500224
C161	C	0.529359	-0.149842	0.000217
C162	C	1.029359	0.350158	0.500217
C163	C	0.573192	-0.181142	0.000228
C164	C	1.073192	0.318858	0.500228
O165	O	0.491088	-0.224420	0.000214
O166	O	0.991088	0.275580	0.500214
O167	O	0.654206	-0.247004	0.000238
O168	O	1.154206	0.252996	0.500238
C169	C	0.614399	-0.469545	0.000208
C170	C	1.114399	0.030455	0.500208
C171	C	0.570060	-0.488654	0.000181
C172	C	1.070060	0.011346	0.500181
C173	C	0.526234	-0.457352	0.000163
C174	C	1.026234	0.042648	0.500163
C175	C	0.569547	-0.539068	0.000181
C176	C	1.069547	-0.039068	0.500181
C177	C	0.613373	-0.570370	0.000199
C178	C	1.113373	-0.070370	0.500199
C179	C	0.657712	-0.551257	0.000217
C180	C	1.157712	-0.051257	0.500217
C181	C	0.658225	-0.500846	0.000226
C182	C	1.158225	-0.000846	0.500226
C183	C	0.481895	-0.476465	0.000145
C184	C	0.981895	0.023535	0.500145
C185	C	0.481386	-0.526876	0.000137
C186	C	0.981386	-0.026876	0.500137
C187	C	0.525212	-0.558178	0.000155
C188	C	1.025212	-0.058178	0.500155
C189	C	0.658982	0.057537	0.000253
C190	C	1.158982	0.557537	0.500253
C191	C	0.712641	0.058077	0.000269
C192	C	1.212641	0.558077	0.500269
C193	C	0.566379	0.150156	0.000193
C194	C	1.066379	0.650156	0.500193
C195	C	0.566930	0.203812	0.000179
C196	C	1.066930	0.703812	0.500179
N197	N	0.603509	0.028812	0.248969
N198	N	1.103509	0.528812	0.748969
N199	N	0.537638	0.094680	-0.248533
N200	N	1.037638	0.594680	0.251467
C201	C	0.484543	0.147749	0.600707
C202	C	0.984543	0.647749	1.100707
C203	C	0.497868	0.134431	0.701215
C204	C	0.997868	0.634431	1.201215
C205	C	0.564097	0.068228	0.701223
C206	C	1.064097	0.568228	1.201223
C207	C	0.550776	0.081539	0.600712
C208	C	1.050776	0.581539	1.100712
C209	C	0.510998	0.121300	0.550463
C210	C	1.010998	0.621300	1.050463
C211	C	0.577232	0.055089	0.550468
C212	C	1.077232	0.555089	1.050468
C213	C	0.563913	0.068400	0.449967
C214	C	1.063913	0.568400	0.949967
C215	C	0.524138	0.108161	0.399710
C216	C	1.024138	0.608161	0.899710
C217	C	0.497680	0.134611	0.449961
C218	C	0.997680	0.634611	0.949961
C219	C	0.617011	0.015331	0.600719
C220	C	1.117011	0.515331	1.100719
C221	C	0.643467	-0.011118	0.550475
C222	C	1.143467	0.488882	1.050475
C223	C	0.630146	0.002190	0.449972
C224	C	1.130146	0.502190	0.949972
C225	C	0.590371	0.041950	0.399715
C226	C	1.090371	0.541950	0.899715
C227	C	0.656605	-0.024260	0.399720
C228	C	1.156605	0.475740	0.899720
C229	C	0.643286	-0.010949	0.299219
C230	C	1.143286	0.489051	0.799219
C231	C	0.577053	0.055261	0.299214
C232	C	1.077053	0.555261	0.799214
H233	H	-0.303604	0.079040	-0.157647
H234	H	0.196396	0.579040	0.342353
Cl235	Cl	0.676548	-0.044199	0.236052
Cl236	Cl	1.176548	0.455801	0.736052
H237	H	0.695873	-0.334061	0.000271
H238	H	1.195873	0.165939	0.500271
H239	H	-0.083238	0.092936	-0.244723
H240	H	0.416762	0.592936	0.255277
H241	H	0.446206	-0.450983	0.000128
H242	H	0.946206	0.049017	0.500128
Cl243	Cl	0.461014	0.039477	0.196618
Cl244	Cl	0.961014	0.539477	0.696618
Cl245	Cl	0.347244	0.038302	0.196640
Cl246	Cl	0.847244	0.538302	0.696640
H247	H	0.073133	0.028984	0.245165
H248	H	0.573133	0.528984	0.745165
H249	H	0.627856	0.004496	0.682554
H250	H	1.127856	0.504496	1.182554
H251	H	0.653220	-0.187510	0.000259
H252	H	1.153220	0.312490	0.500259
Cl253	Cl	0.165511	0.100636	-0.283296
Cl254	Cl	0.665511	0.600636	0.216704
Cl255	Cl	0.712807	-0.590618	0.000244
Cl256	Cl	1.212807	-0.090618	0.500244
H257	H	0.465285	0.166985	0.409046
H258	H	0.965285	0.666985	0.909046
H259	H	0.654149	-0.096062	0.000291
H260	H	1.154149	0.403938	0.500291
Cl261	Cl	0.467359	-0.788904	0.000145
Cl262	Cl	0.967359	-0.288904	0.500145
H263	H	0.493255	-0.165405	0.000221
H264	H	0.993255	0.334595	0.500221
H265	H	0.694942	-0.425506	0.000254
H266	H	1.194942	0.074494	0.500254
Cl267	Cl	0.434530	0.197730	0.537532
Cl268	Cl	0.934530	0.697730	1.037532
Cl269	Cl	-0.024370	0.022820	0.283722
Cl270	Cl	0.475630	0.522820	0.783722
H271	H	-0.212155	0.079970	-0.157670
H272	H	0.287845	0.579970	0.342330
H273	H	-0.170285	0.038157	0.158164
H274	H	0.329715	0.538157	0.658164
Cl275	Cl	0.240643	0.025554	0.283678
Cl276	Cl	0.740643	0.525554	0.783678
Cl277	Cl	0.014258	0.099091	-0.283290
Cl278	Cl	0.514258	0.599091	0.216710
Cl279	Cl	0.126872	0.024394	0.283694
Cl280	Cl	0.626872	0.524394	0.783694
Cl281	Cl	0.693473	-0.061101	0.613652
Cl282	Cl	1.193473	0.438899	1.113652
H283	H	0.647894	-0.711107	0.000227
H284	H	1.147894	-0.211107	0.500227
H285	H	0.311431	0.085347	-0.157746
H286	H	0.811431	0.585347	0.342254
H287	H	0.646957	-0.802570	0.000213
H288	H	1.146957	-0.302570	0.500213
Cl289	Cl	0.408952	0.091501	-0.196297
Cl290	Cl	0.908952	0.591501	0.303703
H291	H	-0.261751	0.037216	0.158170
H292	H	0.238249	0.537216	0.658170
H293	H	0.596486	0.035856	0.742147
H294	H	1.096486	0.535856	1.242147
Cl295	Cl	0.051723	0.099474	-0.283296
Cl296	Cl	0.551723	0.599474	0.216704
H297	H	0.487924	-0.688989	0.000141
H298	H	0.987924	-0.188989	0.500141
H299	H	0.446805	-0.391183	0.000115
H300	H	0.946805	0.108817	0.500115
H301	H	0.447738	-0.299733	0.000120
H302	H	0.947738	0.200267	0.500120
Cl303	Cl	0.713972	-0.476831	0.000252
Cl304	Cl	1.213972	0.023169	0.500252
Cl305	Cl	0.425635	-0.550892	0.000107
Cl306	Cl	0.925635	-0.050892	0.500107
Cl307	Cl	0.527040	0.105243	0.236039
Cl308	Cl	1.027040	0.605243	0.736039
Cl309	Cl	0.474777	-0.060071	0.000200
Cl310	Cl	0.974777	0.439929	0.500200
Cl311	Cl	0.507396	0.124897	0.273363
Cl312	Cl	1.007396	0.624897	0.773363
Cl313	Cl	0.464604	0.167689	0.764373
Cl314	Cl	0.964604	0.667689	1.264373
Cl315	Cl	0.706614	-0.074238	0.462901
Cl316	Cl	1.206614	0.425762	0.962901
