data_functionalizedCrystal
_audit_creation_method	'MofGen! by Chris Wilmer'
_symmetry_space_group_name_H-M	'P1'
_symmetry_Int_Tables_number	1
_symmetry_cell_setting	triclinic
loop_
_symmetry_equiv_pos_as_xyz
  x,y,z
_cell_length_a	16.120530
_cell_length_b	16.120484
_cell_length_c	16.120297
_cell_angle_alpha	95.614431
_cell_angle_beta	90.128140
_cell_angle_gamma	90.167327
loop_
_atom_site_label
_atom_site_type_symbol
_atom_site_fract_x
_atom_site_fract_y
_atom_site_fract_z
Zn1	Zn	-1.224987	0.422264	0.554813
Zn2	Zn	-0.974987	0.672264	0.804813
Zn3	Zn	-0.724987	0.922264	1.054813
Zn4	Zn	-0.474987	1.172264	1.304813
Zn5	Zn	-1.224883	0.554948	0.422118
Zn6	Zn	-0.974883	0.804948	0.672118
Zn7	Zn	-0.724883	1.054948	0.922118
Zn8	Zn	-0.474883	1.304948	1.172118
Zn9	Zn	-1.093726	0.408180	0.408056
Zn10	Zn	-0.843726	0.658180	0.658056
Zn11	Zn	-0.593726	0.908180	0.908056
Zn12	Zn	-0.343726	1.158180	1.158056
Zn13	Zn	-1.078880	0.554181	0.554051
Zn14	Zn	-0.828880	0.804181	0.804051
Zn15	Zn	-0.578880	1.054181	1.054051
Zn16	Zn	-0.328880	1.304181	1.304051
O17	O	-1.155619	0.484893	0.484760
O18	O	-0.905619	0.734893	0.734760
O19	O	-0.655619	0.984893	0.984760
O20	O	-0.405619	1.234893	1.234760
O21	O	-1.341009	0.446081	0.543415
O22	O	-1.091009	0.696081	0.793415
O23	O	-0.841009	0.946081	1.043415
O24	O	-0.591009	1.196081	1.293415
O25	O	-1.213654	0.529906	0.303620
O26	O	-0.963654	0.779906	0.553620
O27	O	-0.713654	1.029906	0.803620
O28	O	-0.463654	1.279906	1.053620
O29	O	-1.117395	0.293418	0.421958
O30	O	-0.867395	0.543418	0.671958
O31	O	-0.617395	0.793418	0.921958
O32	O	-0.367395	1.043418	1.171958
O33	O	-1.340932	0.543563	0.445925
O34	O	-1.090932	0.793563	0.695925
O35	O	-0.840932	1.043563	0.945925
O36	O	-0.590932	1.293563	1.195925
O37	O	-1.213832	0.303765	0.529780
O38	O	-0.963832	0.553765	0.779780
O39	O	-0.713832	0.803765	1.029780
O40	O	-0.463832	1.053765	1.279780
O41	O	-1.117294	0.422076	0.293289
O42	O	-0.867294	0.672076	0.543289
O43	O	-0.617294	0.922076	0.793289
O44	O	-0.367294	1.172076	1.043289
O45	O	-0.975721	0.421332	0.421218
O46	O	-0.725721	0.671332	0.671218
O47	O	-0.475721	0.921332	0.921218
O48	O	-0.225721	1.171332	1.171218
O49	O	-1.092092	0.542255	0.670785
O50	O	-0.842092	0.792255	0.920785
O51	O	-0.592092	1.042255	1.170785
O52	O	-0.342092	1.292255	1.420785
O53	O	-0.964814	0.528598	0.528480
O54	O	-0.714814	0.778598	0.778480
O55	O	-0.464814	1.028598	1.028480
O56	O	-0.214814	1.278598	1.278480
O57	O	-1.199436	0.445336	0.671345
O58	O	-0.949436	0.695336	0.921345
O59	O	-0.699436	0.945336	1.171345
O60	O	-0.449436	1.195336	1.421345
O61	O	-1.199258	0.671477	0.445185
O62	O	-0.949258	0.921477	0.695185
O63	O	-0.699258	1.171477	0.945185
O64	O	-0.449258	1.421477	1.195185
O65	O	-1.091990	0.670913	0.542116
O66	O	-0.841990	0.920913	0.792116
O67	O	-0.591990	1.170913	1.042116
O68	O	-0.341990	1.420913	1.292116
C69	C	-0.940181	0.473354	0.473241
C70	C	-0.690181	0.723354	0.723241
C71	C	-0.440181	0.973354	0.973241
C72	C	-0.190181	1.223354	1.223241
C73	C	-0.848013	0.468438	0.468334
C74	C	-0.598013	0.718438	0.718334
C75	C	-0.348013	0.968438	0.968334
C76	C	-0.098013	1.218438	1.218334
C77	C	-1.144023	0.701438	0.495113
C78	C	-0.894023	0.951438	0.745113
C79	C	-0.644023	1.201438	0.995113
C80	C	-0.394023	1.451438	1.245113
C81	C	-1.139137	0.794083	0.499574
C82	C	-0.889137	1.044083	0.749574
C83	C	-0.639137	1.294083	0.999574
C84	C	-0.389137	1.544083	1.249574
C85	C	-1.144119	0.495281	0.702152
C86	C	-0.894119	0.745281	0.952152
C87	C	-0.644119	0.995281	1.202152
C88	C	-0.394119	1.245281	1.452152
C89	C	-1.139219	0.499708	0.794791
C90	C	-0.889219	0.749708	1.044791
C91	C	-0.639219	0.999708	1.294791
C92	C	-0.389219	1.249708	1.544791
C93	C	-1.371899	0.496479	0.496324
C94	C	-1.121899	0.746479	0.746324
C95	C	-0.871899	0.996479	0.996324
C96	C	-0.621899	1.246479	1.246324
C97	C	-1.464064	0.501416	0.501252
C98	C	-1.214064	0.751416	0.751252
C99	C	-0.964064	1.001416	1.001252
C100	C	-0.714064	1.251416	1.251252
C101	C	-0.679262	0.459445	0.459381
C102	C	-0.429262	0.709445	0.709381
C103	C	-0.179262	0.959445	0.959381
C104	C	0.070738	1.209445	1.209381
C105	C	-0.632810	0.510407	0.510202
C106	C	-0.382810	0.760407	0.760202
C107	C	-0.132810	1.010407	1.010202
C108	C	0.117190	1.260407	1.260202
C109	C	-0.538911	0.505403	0.505220
C110	C	-0.288911	0.755403	0.755220
C111	C	-0.038911	1.005403	1.005220
C112	C	0.211089	1.255403	1.255220
C113	C	-0.773169	0.464448	0.464361
C114	C	-0.523169	0.714448	0.714361
C115	C	-0.273169	0.964448	0.964361
C116	C	-0.023169	1.214448	1.214361
C117	C	-1.167282	0.267505	0.474385
C118	C	-0.917282	0.517505	0.724385
C119	C	-0.667282	0.767505	0.974385
C120	C	-0.417282	1.017505	1.224385
C121	C	-1.172251	0.174867	0.469964
C122	C	-0.922251	0.424867	0.719964
C123	C	-0.672251	0.674867	0.969964
C124	C	-0.422251	0.924867	1.219964
C125	C	-1.130220	0.963706	0.507736
C126	C	-0.880220	1.213706	0.757736
C127	C	-0.630220	1.463706	1.007736
C128	C	-0.380220	1.713706	1.257736
C129	C	-1.181166	1.005249	0.461804
C130	C	-0.931166	1.255249	0.711804
C131	C	-0.681166	1.505249	0.961804
C132	C	-0.431166	1.755249	1.211804
C133	C	-1.176204	1.099633	0.466346
C134	C	-0.926204	1.349633	0.716346
C135	C	-0.676204	1.599633	0.966346
C136	C	-0.426204	1.849633	1.216346
C137	C	-1.135180	0.869313	0.503196
C138	C	-0.885180	1.119313	0.753196
C139	C	-0.635180	1.369313	1.003196
C140	C	-0.385180	1.619313	1.253196
C141	C	-1.167125	0.474489	0.268213
C142	C	-0.917125	0.724489	0.518213
C143	C	-0.667125	0.974489	0.768213
C144	C	-0.417125	1.224489	1.018213
C145	C	-1.172198	0.469836	0.175571
C146	C	-0.922198	0.719836	0.425571
C147	C	-0.672198	0.969836	0.675571
C148	C	-0.422198	1.219836	0.925571
C149	C	-1.130243	0.507770	0.964403
C150	C	-0.880243	0.757770	1.214403
C151	C	-0.630243	1.007770	1.464403
C152	C	-0.380243	1.257770	1.714403
C153	C	-1.181172	0.461776	1.005965
C154	C	-0.931172	0.711776	1.255965
C155	C	-0.681172	0.961776	1.505965
C156	C	-0.431172	1.211776	1.755965
C157	C	-1.176177	0.466262	1.100342
C158	C	-0.926177	0.716262	1.350342
C159	C	-0.676177	0.966262	1.600342
C160	C	-0.426177	1.216262	1.850342
C161	C	-1.135236	0.503285	0.870017
C162	C	-0.885236	0.753285	1.120017
C163	C	-0.635236	1.003285	1.370017
C164	C	-0.385236	1.253285	1.620017
H165	H	-0.663563	0.557794	0.557453
H166	H	-0.413563	0.807794	0.807453
H167	H	-0.163563	1.057794	1.057453
H168	H	0.086437	1.307794	1.307453
F169	F	-1.068343	1.009866	0.563589
F170	F	-0.818343	1.259866	0.813589
F171	F	-0.568343	1.509866	1.063589
F172	F	-0.318343	1.759866	1.313589
H173	H	-1.228524	0.419031	0.970668
H174	H	-0.978524	0.669031	1.220668
H175	H	-0.728524	0.919031	1.470668
H176	H	-0.478524	1.169031	1.720668
F177	F	-1.243045	0.959088	0.405944
F178	F	-0.993045	1.209088	0.655944
F179	F	-0.743045	1.459088	0.905944
F180	F	-0.493045	1.709088	1.155944
H181	H	-0.648511	0.412060	0.412135
H182	H	-0.398511	0.662060	0.662135
H183	H	-0.148511	0.912060	0.912135
H184	H	0.101489	1.162060	1.162135
F185	F	-1.068355	0.563639	1.010536
F186	F	-0.818355	0.813639	1.260536
F187	F	-0.568355	1.063639	1.510536
F188	F	-0.318355	1.313639	1.760536
