data_functionalizedCrystal
_audit_creation_method	'MofGen! by Chris Wilmer'
_symmetry_space_group_name_H-M	'P1'
_symmetry_Int_Tables_number	1
_symmetry_cell_setting	triclinic
loop_
_symmetry_equiv_pos_as_xyz
  x,y,z
_cell_length_a	14.519709
_cell_length_b	17.699083
_cell_length_c	12.996460
_cell_angle_alpha	89.992964
_cell_angle_beta	90.000034
_cell_angle_gamma	83.481580
loop_
_atom_site_label
_atom_site_type_symbol
_atom_site_fract_x
_atom_site_fract_y
_atom_site_fract_z
O1	O	-1.223447	-0.099215	0.085435
O2	O	-0.890114	0.234118	0.418768
O3	O	-0.556780	0.567452	0.752102
O4	O	-0.954920	-0.110899	0.085467
O5	O	-0.621587	0.222435	0.418800
O6	O	-0.288254	0.555768	0.752133
O7	O	-1.096770	0.005111	0.085441
O8	O	-0.763437	0.338444	0.418774
O9	O	-0.430104	0.671777	0.752108
O10	O	-1.081597	-0.215224	0.085461
O11	O	-0.748264	0.118109	0.418794
O12	O	-0.414931	0.451442	0.752127
O13	O	-1.096756	0.005117	-0.085693
O14	O	-0.763422	0.338450	0.247640
O15	O	-0.430089	0.671784	0.580974
O16	O	-0.954906	-0.110892	-0.085667
O17	O	-0.621572	0.222441	0.247666
O18	O	-0.288239	0.555774	0.581000
O19	O	-1.223432	-0.099209	-0.085699
O20	O	-0.890099	0.234125	0.247635
O21	O	-0.556766	0.567458	0.580968
Cu22	Cu	-1.089168	-0.105050	-0.101309
Cu23	Cu	-0.755834	0.228283	0.232024
Cu24	Cu	-0.422501	0.561617	0.565358
Cu25	Cu	-1.089185	-0.105057	0.101077
Cu26	Cu	-0.755852	0.228276	0.434410
Cu27	Cu	-0.422518	0.561609	0.767743
O28	O	-1.081583	-0.215218	-0.085673
O29	O	-0.748249	0.118115	0.247660
O30	O	-0.414916	0.451449	0.580994
C31	C	-1.096219	0.033312	-0.000126
C32	C	-0.762886	0.366646	0.333207
C33	C	-0.429553	0.699979	0.666541
C34	C	-1.094588	0.117335	-0.000126
C35	C	-0.761255	0.450668	0.333207
C36	C	-0.427922	0.784002	0.666540
C37	C	-0.920556	-0.110351	-0.000096
C38	C	-0.587222	0.222982	0.333237
C39	C	-0.253889	0.556316	0.666570
C40	C	-0.818181	-0.108719	-0.000084
C41	C	-0.484848	0.224614	0.333249
C42	C	-0.151515	0.557947	0.666582
C43	C	-1.257797	-0.099756	-0.000134
C44	C	-0.924464	0.233577	0.333200
C45	C	-0.591130	0.566910	0.666533
C46	C	-1.360171	-0.101388	-0.000139
C47	C	-1.026838	0.231945	0.333195
C48	C	-0.693505	0.565279	0.666528
C49	C	-0.443311	-0.102712	-0.000132
C50	C	-0.109978	0.230621	0.333202
C51	C	0.223356	0.563954	0.666535
C52	C	-0.547612	-0.104380	-0.000118
C53	C	-0.214279	0.228953	0.333215
C54	C	0.119055	0.562286	0.666548
C55	C	-0.630743	-0.105716	-0.000107
C56	C	-0.297410	0.227618	0.333226
C57	C	0.035924	0.560951	0.666560
C58	C	-0.735050	-0.107384	-0.000096
C59	C	-0.401717	0.225949	0.333238
C60	C	-0.068384	0.559283	0.666571
C61	C	-1.082134	-0.243420	-0.000104
C62	C	-0.748800	0.089914	0.333230
C63	C	-0.415467	0.423247	0.666563
C64	C	-1.083765	-0.327442	-0.000097
C65	C	-0.750431	0.005891	0.333237
C66	C	-0.417098	0.339224	0.666570
N67	N	-1.089162	-0.105044	-0.243656
N68	N	-0.755829	0.228289	0.089677
N69	N	-0.422496	0.561623	0.423011
C70	C	-1.177851	0.165718	-0.000138
C71	C	-0.844518	0.499051	0.333196
C72	C	-0.511184	0.832384	0.666529
C73	C	-1.176313	0.244665	-0.000128
C74	C	-0.842980	0.577999	0.333205
C75	C	-0.509646	0.911332	0.666538
C76	C	-1.091511	0.275229	-0.000115
C77	C	-0.758178	0.608562	0.333218
C78	C	-0.424844	0.941896	0.666552
C79	C	-1.008242	0.226840	-0.000101
C80	C	-0.674909	0.560174	0.333233
C81	C	-0.341575	0.893507	0.666566
C82	C	-1.009781	0.147894	-0.000103
C83	C	-0.676448	0.481227	0.333231
C84	C	-0.343114	0.814561	0.666564
C85	C	-1.002033	0.545221	-0.000092
C86	C	-0.668700	0.878554	0.333242
C87	C	-0.335367	1.211888	0.666575
C88	C	-1.000501	0.624173	-0.000093
C89	C	-0.667167	0.957507	0.333240
C90	C	-0.333834	1.290840	0.666574
C91	C	-1.168566	0.641992	-0.000117
C92	C	-0.835232	0.975326	0.333216
C93	C	-0.501899	1.308659	0.666549
C94	C	-1.170105	0.563046	-0.000119
C95	C	-0.836771	0.896380	0.333214
C96	C	-0.503438	1.229713	0.666547
C97	C	-1.086836	0.514664	-0.000099
C98	C	-0.753502	0.847998	0.333234
C99	C	-0.420169	1.181331	0.666567
C100	C	-1.088505	0.429060	-0.000108
C101	C	-0.755171	0.762394	0.333226
C102	C	-0.421838	1.095727	0.666559
C103	C	-1.089841	0.360831	-0.000114
C104	C	-0.756508	0.694165	0.333219
C105	C	-0.423175	1.027498	0.666552
C106	C	-1.089184	-0.105058	-0.663470
C107	C	-0.755850	0.228275	-0.330137
C108	C	-0.422517	0.561608	0.003196
C109	C	-1.089175	-0.105057	-0.546665
C110	C	-0.755842	0.228277	-0.213332
C111	C	-0.422508	0.561610	0.120002
C112	C	-1.089173	-0.105052	-0.453567
C113	C	-0.755840	0.228282	-0.120233
C114	C	-0.422507	0.561615	0.213100
C115	C	-1.089164	-0.105049	-0.336754
C116	C	-0.755830	0.228284	-0.003421
C117	C	-0.422497	0.561618	0.329912
N118	N	-1.089198	-0.105057	0.243424
N119	N	-0.755865	0.228276	0.576757
N120	N	-0.422531	0.561609	0.910090
H121	H	-1.244114	0.284056	-0.000140
H122	H	-0.910781	0.617389	0.333194
H123	H	-0.577447	0.950723	0.666527
O124	O	-0.909031	0.657140	-0.000081
O125	O	-0.575697	0.990474	0.333253
O126	O	-0.242364	1.323807	0.666586
H127	H	-0.904326	0.692685	0.069664
H128	H	-0.570992	1.026019	0.402997
H129	H	-0.237659	1.359352	0.736331
H130	H	-0.934231	0.505837	-0.000076
H131	H	-0.600897	0.839171	0.333257
H132	H	-0.267564	1.172504	0.666591
H133	H	-0.939195	0.251731	-0.000084
H134	H	-0.605861	0.585065	0.333250
H135	H	-0.272528	0.918398	0.666583
H136	H	-1.239159	0.538166	-0.000135
H137	H	-0.905825	0.871500	0.333198
H138	H	-0.572492	1.204833	0.666532
O139	O	-1.258380	0.694178	-0.000137
O140	O	-0.925047	1.027511	0.333196
O141	O	-0.591714	1.360845	0.666530
H142	H	-1.298987	0.683287	0.069599
H143	H	-0.965654	1.016621	0.402933
H144	H	-0.632321	1.349954	0.736266
H145	H	-0.941980	0.108501	-0.000093
H146	H	-0.608646	0.441834	0.333240
H147	H	-0.275313	0.775168	0.666573
H148	H	-1.246907	0.140840	-0.000155
H149	H	-0.913573	0.474173	0.333179
H150	H	-0.580240	0.807506	0.666512
