data_functionalizedCrystal
_audit_creation_method	'MofGen! by Chris Wilmer'
_symmetry_space_group_name_H-M	'P1'
_symmetry_Int_Tables_number	1
_symmetry_cell_setting	triclinic
loop_
_symmetry_equiv_pos_as_xyz
  x,y,z
_cell_length_a	12.811438
_cell_length_b	12.837942
_cell_length_c	7.088929
_cell_angle_alpha	83.116986
_cell_angle_beta	90.842670
_cell_angle_gamma	89.411773
loop_
_atom_site_label
_atom_site_type_symbol
_atom_site_fract_x
_atom_site_fract_y
_atom_site_fract_z
O1	O	1.382295	0.166302	-0.398637
O2	O	1.081416	0.178008	-0.346477
O3	O	1.225185	0.021145	-0.371389
O4	O	1.238527	0.323165	-0.373726
O5	O	1.244393	0.000134	-0.056742
O6	O	1.100624	0.156996	-0.031831
O7	O	1.401504	0.145291	-0.083991
Cu8	Cu	1.252818	0.149225	-0.029181
Cu9	Cu	1.230102	0.174073	-0.401287
O10	O	1.257735	0.302153	-0.059079
C11	C	1.052242	0.166202	-0.182431
C12	C	0.936692	0.162316	-0.162400
C13	C	1.230281	-0.028053	-0.213285
C14	C	1.216837	-0.143344	-0.210958
C15	C	0.784301	0.145386	0.037337
C16	C	0.892870	0.149038	0.018524
C17	C	0.871936	0.171946	-0.324522
C18	C	0.763367	0.168294	-0.305709
C19	C	0.719554	0.155012	-0.124774
C20	C	0.610982	0.151354	-0.105962
C21	C	0.590050	0.174269	-0.449007
C22	C	0.698620	0.177921	-0.467820
C23	C	1.378453	-0.381724	-0.239015
C24	C	1.365826	-0.490051	-0.236830
C25	C	1.178957	-0.468326	-0.204414
C26	C	1.191583	-0.359999	-0.206600
C27	C	1.291335	-0.316703	-0.223898
C28	C	1.303962	-0.208375	-0.226070
C29	C	1.117092	-0.186650	-0.193669
C30	C	1.104465	-0.294977	-0.191483
C31	C	1.430678	0.157097	-0.248041
C32	C	1.546226	0.160984	-0.268085
C33	C	1.252638	0.351352	-0.217187
C34	C	1.266081	0.466644	-0.219527
N35	N	1.268803	0.131748	0.232537
N36	N	1.214124	0.191543	-0.663007
H37	H	0.575311	0.140546	0.041365
C38	C	0.815894	0.123098	0.374536
C39	C	0.736133	0.130782	0.236213
H40	H	0.786156	0.114087	0.497313
H41	H	0.859743	0.064621	0.359725
H42	H	0.855864	0.185385	0.360393
H43	H	0.696167	0.068491	0.250348
H44	H	0.692266	0.189263	0.251031
C45	C	1.029973	0.050842	0.195879
C46	C	0.964045	0.138450	0.196717
H47	H	1.073917	0.044312	0.305889
H48	H	0.989124	-0.010476	0.195764
H49	H	1.071602	0.059285	0.085426
H50	H	0.922410	0.130003	0.307164
H51	H	1.004898	0.199783	0.196850
C52	C	1.167396	0.374403	0.283105
C53	C	1.137618	0.275194	0.240041
H54	H	1.120166	0.426046	0.223231
H55	H	1.166304	0.375593	0.416773
H56	H	1.235910	0.388859	0.238485
H57	H	1.069107	0.260735	0.284674
H58	H	1.138699	0.274002	0.106345
C59	C	0.414327	0.178848	-0.572503
C60	C	0.518876	0.184858	-0.627216
H61	H	0.370390	0.185388	-0.682521
H62	H	0.402784	0.113166	-0.499294
H63	H	0.398902	0.233928	-0.498611
H64	H	0.534304	0.129773	-0.701096
H65	H	0.530424	0.250548	-0.700456
C66	C	1.487403	-0.240732	-0.257928
C67	C	1.413605	-0.160779	-0.245104
H68	H	1.555091	-0.211346	-0.269697
H69	H	1.485300	-0.289858	-0.146682
H70	H	1.471872	-0.275202	-0.366127
H71	H	1.429131	-0.126313	-0.136897
H72	H	1.415712	-0.111634	-0.356362
C73	C	1.551806	-0.500641	-0.269076
C74	C	1.461590	-0.561525	-0.253435
H75	H	1.610928	-0.544769	-0.279318
H76	H	1.546144	-0.450611	-0.378973
H77	H	1.559538	-0.465265	-0.159523
H78	H	1.453854	-0.596895	-0.362996
H79	H	1.467253	-0.611574	-0.143527
C80	C	1.076638	-0.624743	-0.186679
C81	C	1.069316	-0.515931	-0.185400
H82	H	1.008950	-0.654131	-0.174927
H83	H	1.106251	-0.639615	-0.302700
H84	H	1.119666	-0.654280	-0.083253
H85	H	1.026294	-0.486393	-0.288835
H86	H	1.039688	-0.501050	-0.069366
H87	H	1.046155	-0.133698	-0.181344
H88	H	0.907629	0.182769	-0.471832
C89	C	0.931421	-0.299011	-0.324933
C90	C	0.994823	-0.342578	-0.172473
H91	H	0.863734	-0.328403	-0.313196
H92	H	0.926472	-0.225201	-0.324050
H93	H	0.961050	-0.313900	-0.440949
H94	H	0.965197	-0.327682	-0.056457
H95	H	0.999768	-0.416406	-0.173338
C96	C	1.315534	-0.051116	0.286423
C97	C	1.345313	0.048092	0.329495
H98	H	1.362772	-0.102759	0.346274
H99	H	1.247032	-0.065576	0.331045
H100	H	1.316621	-0.052299	0.152735
H101	H	1.344219	0.049277	0.463182
H102	H	1.413834	0.062555	0.284883
H103	H	0.734308	0.188739	-0.615133
H104	H	1.459676	-0.346473	-0.253082
