data_functionalizedCrystal
_audit_creation_method	'MofGen! by Chris Wilmer'
_symmetry_space_group_name_H-M	'P1'
_symmetry_Int_Tables_number	1
_symmetry_cell_setting	triclinic
loop_
_symmetry_equiv_pos_as_xyz
  x,y,z
_cell_length_a	21.295417
_cell_length_b	19.077142
_cell_length_c	19.077174
_cell_angle_alpha	94.518112
_cell_angle_beta	92.268346
_cell_angle_gamma	92.274169
loop_
_atom_site_label
_atom_site_type_symbol
_atom_site_fract_x
_atom_site_fract_y
_atom_site_fract_z
Zn1	Zn	-0.305872	-1.093671	-0.441850
Zn2	Zn	-0.406732	-1.088844	-0.323952
Zn3	Zn	-0.297071	-0.971057	-0.319244
Zn4	Zn	-0.406689	-0.975737	-0.437066
O5	O	-0.354091	-1.032327	-0.380528
O6	O	-0.322953	-1.191680	-0.430183
O7	O	-0.388520	-1.069240	-0.224678
O8	O	-0.210152	-0.987383	-0.335540
O9	O	-0.397054	-1.188134	-0.343564
O10	O	-0.216618	-1.077467	-0.425618
O11	O	-0.307952	-0.982702	-0.221219
O12	O	-0.307911	-0.873028	-0.330901
O13	O	-0.396981	-0.995361	-0.536350
O14	O	-0.388447	-0.876467	-0.417465
O15	O	-0.322911	-1.082006	-0.539865
O16	O	-0.494813	-1.073779	-0.338925
O17	O	-0.494781	-0.990680	-0.422030
C18	C	-0.517638	-1.032233	-0.380485
C19	C	-0.587607	-1.032258	-0.380493
C20	C	-0.347220	-0.849168	-0.373153
C21	C	-0.344296	-0.770813	-0.370015
C22	C	-0.360923	-1.039744	-0.564401
C23	C	-0.363834	-1.042904	-0.642757
C24	C	-0.620472	-1.075570	-0.337269
C25	C	-0.686217	-1.075603	-0.337286
C26	C	-0.719092	-1.032313	-0.380520
C27	C	-0.686219	-0.988999	-0.423753
C28	C	-0.620477	-0.988971	-0.423740
N29	N	-0.820250	-0.970859	-0.383411
N30	N	-0.882702	-0.970887	-0.383419
C31	C	-0.917172	-1.032393	-0.380563
N32	N	-0.886828	-1.093872	-0.377685
N33	N	-0.824370	-1.093843	-0.377672
C34	C	-0.790379	-1.032338	-0.380539
C35	C	-1.021325	-1.075745	-0.337355
C36	C	-1.087070	-1.075780	-0.337377
C37	C	-1.087071	-0.989169	-0.423840
C38	C	-1.021327	-0.989140	-0.423822
C39	C	-0.988458	-1.032427	-0.380576
C40	C	-0.189907	-1.032441	-0.380587
C41	C	-0.119942	-1.032490	-0.380612
C42	C	-0.384911	-0.735807	-0.413539
C43	C	-0.382156	-0.662184	-0.410593
C44	C	-0.338787	-0.623568	-0.364120
C45	C	-0.298168	-0.658579	-0.320595
C46	C	-0.300921	-0.732201	-0.323544
C47	C	-0.326049	-0.403188	-0.350478
C48	C	-0.323300	-0.329561	-0.347530
C49	C	-0.407287	-0.333172	-0.437530
C50	C	-0.410039	-0.406795	-0.440472
C51	C	-0.369417	-0.441800	-0.396949
N52	N	-0.335971	-0.548313	-0.361107
N53	N	-0.372231	-0.517053	-0.399967
C54	C	-0.360986	-0.216201	-0.387924
C55	C	-0.363915	-0.294556	-0.391054
C56	C	-0.323256	-0.999336	-0.677768
C57	C	-0.325996	-1.002302	-0.751391
C58	C	-0.369313	-1.048842	-0.790003
C59	C	-0.409896	-1.092413	-0.754988
C60	C	-0.407158	-1.089442	-0.681365
C61	C	-0.382003	-1.062556	-1.010384
C62	C	-0.384737	-1.065525	-1.084011
C63	C	-0.300838	-0.975413	-1.080410
C64	C	-0.298101	-0.972449	-1.006786
C65	C	-0.338686	-1.016017	-0.971777
N66	N	-0.372114	-1.051878	-0.865259
N67	N	-0.335887	-1.012978	-0.896523
C68	C	-0.347242	-1.024980	-0.197372
C69	C	-0.344158	-1.021956	-0.119022
H70	H	-0.712981	-1.110875	-0.302087
O71	O	-0.261356	-0.933062	-1.114308
C72	C	-0.222550	-0.891334	-1.064440
H73	H	-0.219501	-0.918095	-1.013124
H74	H	-0.243304	-0.837464	-1.054444
C75	C	-0.159987	-0.849507	-1.155817
C76	C	-0.156239	-0.882378	-1.092791
H77	H	-0.119084	-0.843978	-1.173306
H78	H	-0.186133	-0.877617	-1.189415
H79	H	-0.177285	-0.804618	-1.147479
H80	H	-0.138949	-0.927269	-1.101132
H81	H	-0.130088	-0.854274	-1.059195
O82	O	-0.718130	-0.947025	-0.465854
C83	C	-0.705200	-0.965193	-0.536740
H84	H	-0.689325	-1.021646	-0.542608
H85	H	-0.666330	-0.928110	-0.553609
C86	C	-0.784527	-0.889537	-0.576253
C87	C	-0.765034	-0.958875	-0.583461
H88	H	-0.821434	-0.885637	-0.605074
H89	H	-0.793237	-0.877294	-0.528495
H90	H	-0.752130	-0.858642	-0.590309
H91	H	-0.797428	-0.989767	-0.569396
H92	H	-0.756330	-0.971123	-0.631218
H93	H	-0.994561	-1.110994	-0.302143
H94	H	-0.415229	-0.633686	-0.446034
O95	O	-0.588526	-0.946997	-0.465806
C96	C	-0.553626	-0.988916	-0.512962
H97	H	-0.575633	-1.044621	-0.519603
H98	H	-0.503091	-0.990461	-0.491252
C99	C	-0.527009	-0.888954	-0.576674
C100	C	-0.554042	-0.957370	-0.584835
H101	H	-0.527263	-0.869493	-0.621008
H102	H	-0.550520	-0.860711	-0.544903
H103	H	-0.484899	-0.890250	-0.558580
H104	H	-0.596154	-0.956072	-0.602920
H105	H	-0.530538	-0.985612	-0.616611
O106	O	-0.426789	-1.110826	-1.121450
C107	C	-0.414999	-1.180376	-1.106312
H108	H	-0.388876	-1.179705	-1.052922
H109	H	-0.385065	-1.205814	-1.148713
C110	C	-0.509930	-1.223714	-1.170194
C111	C	-0.477850	-1.222891	-1.104617
H112	H	-0.548699	-1.249941	-1.169151
H113	H	-0.517872	-1.176858	-1.180396
H114	H	-0.484978	-1.244911	-1.205521
H115	H	-0.502798	-1.201687	-1.069292
H116	H	-0.469913	-1.269745	-1.094409
H117	H	-0.440197	-1.124925	-0.652861
O118	O	-0.421485	-1.104780	-0.976350
C119	C	-0.459047	-1.062904	-0.932120
H120	H	-0.461677	-1.008272	-0.952066
H121	H	-0.437425	-1.058243	-0.876231
C122	C	-0.522504	-1.164357	-0.907865
C123	C	-0.525738	-1.097259	-0.932366
H124	H	-0.563641	-1.185550	-0.908013
H125	H	-0.497196	-1.192571	-0.937661
H126	H	-0.504483	-1.160463	-0.861292
H127	H	-0.543752	-1.101155	-0.978940
H128	H	-0.551050	-1.069047	-0.902577
O129	O	-0.446651	-0.299138	-0.479884
C130	C	-0.410974	-0.258408	-0.523770
H131	H	-0.362398	-0.280803	-0.529114
H132	H	-0.405879	-0.201729	-0.499743
C133	C	-0.504166	-0.232722	-0.590385
C134	C	-0.444505	-0.260232	-0.596953
H135	H	-0.524850	-0.233844	-0.635527
H136	H	-0.528202	-0.260161	-0.560817
H137	H	-0.499911	-0.185492	-0.570360
H138	H	-0.448760	-0.307464	-0.616969
H139	H	-0.420470	-0.232802	-0.626527
H140	H	-0.445169	-1.130303	-0.786431
O141	O	-0.281160	-0.954063	-0.640369
C142	C	-0.245923	-0.916256	-0.687062
H143	H	-0.273566	-0.915918	-0.739435
H144	H	-0.199375	-0.942418	-0.695950
C145	C	-0.199018	-0.840488	-0.590991
C146	C	-0.232973	-0.840068	-0.655314
H147	H	-0.191027	-0.793492	-0.571407
H148	H	-0.222756	-0.865961	-0.559533
H149	H	-0.160232	-0.862293	-0.598406
H150	H	-0.271761	-0.818271	-0.647897
H151	H	-0.209241	-0.814590	-0.686771
H152	H	-0.287977	-0.298122	-0.309691
O153	O	-1.118899	-1.117876	-0.295321
C154	C	-1.075787	-1.156085	-0.257164
H155	H	-1.027776	-1.127091	-0.253527
H156	H	-1.071704	-1.210647	-0.285171
C157	C	-1.158034	-1.198897	-0.187026
C158	C	-1.099067	-1.163283	-0.182555
H159	H	-1.172395	-1.203340	-0.141005
H160	H	-1.187080	-1.173157	-0.212735
H161	H	-1.154623	-1.244361	-0.210369
H162	H	-1.102480	-1.117817	-0.159221
H163	H	-1.070022	-1.189015	-0.156840
H164	H	-0.292976	-0.431680	-0.315033
O165	O	-0.256092	-0.620961	-0.275473
C166	C	-0.262360	-0.548474	-0.282214
H167	H	-0.311450	-0.539324	-0.304792
H168	H	-0.225694	-0.529128	-0.319000
C169	C	-0.192128	-0.519025	-0.181653
C170	C	-0.252424	-0.507786	-0.209379
H171	H	-0.185996	-0.493926	-0.136727
H172	H	-0.187903	-0.567861	-0.177113
H173	H	-0.161580	-0.502903	-0.212316
H174	H	-0.282971	-0.523916	-0.178722
H175	H	-0.256653	-0.458952	-0.213913
H176	H	-0.593712	-1.110818	-0.302057
H177	H	-0.994566	-0.953869	-0.459017
O178	O	-0.286562	-0.960078	-0.785488
C179	C	-0.248987	-1.001953	-0.829703
H180	H	-0.273598	-1.055810	-0.842870
H181	H	-0.201569	-1.008580	-0.801671
C182	C	-0.208527	-0.899845	-0.881910
C183	C	-0.238756	-0.965991	-0.898087
H184	H	-0.202213	-0.877661	-0.924091
H185	H	-0.233840	-0.871632	-0.852120
H186	H	-0.169015	-0.905376	-0.858549
H187	H	-0.278271	-0.960458	-0.921439
H188	H	-0.213450	-0.994202	-0.927882
O189	O	-0.452185	-0.444199	-0.485679
C190	C	-0.487455	-0.397513	-0.523450
H191	H	-0.459806	-0.345148	-0.523847
H192	H	-0.533970	-0.388606	-0.497218
C193	C	-0.534457	-0.493602	-0.599122
C194	C	-0.500496	-0.429288	-0.599615
H195	H	-0.542504	-0.513202	-0.646103
H196	H	-0.510697	-0.525055	-0.573674
H197	H	-0.573216	-0.486170	-0.577259
H198	H	-0.461735	-0.436721	-0.621470
H199	H	-0.524250	-0.397836	-0.625069
H200	H	-0.420228	-0.767244	-0.451380
H201	H	-1.113838	-0.953924	-0.459046
H202	H	-0.267844	-0.760701	-0.288106
H203	H	-0.262829	-0.934550	-0.975353
