data_functionalizedCrystal
_audit_creation_method	'MofGen! by Chris Wilmer'
_symmetry_space_group_name_H-M	'P1'
_symmetry_Int_Tables_number	1
_symmetry_cell_setting	triclinic
loop_
_symmetry_equiv_pos_as_xyz
  x,y,z
_cell_length_a	12.827893
_cell_length_b	17.077404
_cell_length_c	17.077396
_cell_angle_alpha	89.980499
_cell_angle_beta	90.020142
_cell_angle_gamma	89.996265
loop_
_atom_site_label
_atom_site_type_symbol
_atom_site_fract_x
_atom_site_fract_y
_atom_site_fract_z
Zn1	Zn	0.416027	1.200160	-0.443888
Zn2	Zn	0.590789	1.200112	-0.312641
Zn3	Zn	0.416063	1.068892	-0.312636
Zn4	Zn	0.590727	1.068904	-0.443865
O5	O	0.503402	1.134517	-0.378258
O6	O	0.439220	1.310001	-0.426490
O7	O	0.567653	1.182680	-0.202794
O8	O	0.269822	1.086320	-0.330055
O9	O	0.567617	1.309965	-0.330063
O10	O	0.269796	1.182762	-0.426485
O11	O	0.439282	1.086273	-0.202790
O12	O	0.439222	0.959047	-0.330032
O13	O	0.567511	1.086341	-0.553715
O14	O	0.567547	0.959056	-0.426445
O15	O	0.439160	1.182774	-0.553732
O16	O	0.737017	1.182692	-0.330041
O17	O	0.736971	1.086294	-0.426450
C18	C	0.503383	0.930569	-0.378236
C19	C	0.503400	0.843320	-0.378245
C20	C	0.230831	1.134545	-0.378272
C21	C	0.114678	1.134557	-0.378278
C22	C	0.570319	0.802355	-0.428367
C23	C	0.570321	0.720374	-0.428380
C24	C	0.503409	0.679360	-0.378266
C25	C	0.436482	0.720331	-0.328142
C26	C	0.436475	0.802310	-0.328134
C27	C	0.436502	0.549461	-0.328161
C28	C	0.436510	0.467476	-0.328167
C29	C	0.570349	0.467525	-0.428407
C30	C	0.570342	0.549504	-0.428399
C31	C	0.503416	0.590469	-0.378273
C32	C	0.062907	1.086845	-0.330569
C33	C	-0.057143	1.086856	-0.330574
C34	C	0.774911	1.134510	-0.378261
C35	C	0.891065	1.134579	-0.378288
C36	C	0.503325	1.134565	-0.583002
C37	C	0.503292	1.134585	-0.670252
C38	C	0.503421	1.339261	-0.378280
C39	C	0.503430	1.426511	-0.378289
C40	C	0.436454	1.184799	-0.711252
C41	C	0.436419	1.184809	-0.793233
C42	C	0.503228	1.134607	-0.834211
C43	C	0.570069	1.084387	-0.793205
C44	C	0.570098	1.084374	-0.711226
C45	C	0.570007	1.084419	-0.964075
C46	C	0.569980	1.084432	-1.046060
C47	C	0.436327	1.184853	-1.046082
C48	C	0.436356	1.184840	-0.964103
C49	C	0.503199	1.134621	-0.923102
C50	C	0.503403	1.134515	-0.174310
C51	C	0.503141	1.134647	-0.087060
H52	H	0.624811	0.835742	-0.469173
H53	H	0.381995	1.225700	-0.826612
H54	H	0.624839	0.434168	-0.469223
O55	O	0.116003	1.037988	-0.281917
C56	C	0.089375	0.959742	-0.299033
H57	H	0.059275	0.955775	-0.361722
H58	H	0.161202	0.921002	-0.292314
H59	H	0.026119	0.939177	-0.256903
H60	H	-0.101665	1.046011	-0.289725
O61	O	0.371384	0.680613	-0.279435
C62	C	0.312335	0.734353	-0.235181
H63	H	0.308764	0.792803	-0.267334
H64	H	0.229989	0.710662	-0.226908
H65	H	0.350503	0.743048	-0.175517
H66	H	-0.064420	1.175433	-0.419133
O67	O	0.061421	1.183192	-0.427052
C68	C	-0.001717	1.138473	-0.477720
H69	H	-0.017953	1.078969	-0.450019
H70	H	-0.078515	1.170403	-0.488195
H71	H	0.040261	1.129888	-0.535918
O72	O	0.635003	1.035547	-0.832888
C73	C	0.694021	0.991237	-0.779118
H74	H	0.651236	0.988512	-0.720684
H75	H	0.705157	0.929393	-0.802793
H76	H	0.773393	1.019974	-0.770396
H77	H	0.381977	0.835662	-0.287324
O78	O	0.635438	0.680703	-0.477084
C79	C	0.694487	0.734482	-0.521319
H80	H	0.698031	0.792906	-0.489158
H81	H	0.776843	0.710802	-0.529580
H82	H	0.656337	0.743223	-0.580989
H83	H	0.381960	1.225724	-0.930740
H84	H	0.624421	1.043513	-0.930695
H85	H	0.382053	1.225682	-0.677893
H86	H	0.381900	1.225742	-1.079468
O87	O	0.371640	0.589344	-0.279430
C88	C	0.431057	0.636725	-0.228644
H89	H	0.510296	0.649014	-0.256236
H90	H	0.388475	0.694371	-0.218170
H91	H	0.442446	0.605106	-0.170461
O92	O	0.634906	1.035590	-1.085747
C93	C	0.693921	0.991271	-1.031982
H94	H	0.651141	0.988547	-0.973546
H95	H	0.705045	0.929428	-1.055662
H96	H	0.773298	1.020000	-1.023263
O97	O	0.634883	1.035514	-0.671365
C98	C	0.575407	0.984822	-0.623925
H99	H	0.493091	0.979985	-0.648631
H100	H	0.613200	0.924409	-0.622988
H101	H	0.571837	1.009079	-0.561798
O102	O	0.635375	0.589225	-0.477150
C103	C	0.694465	0.535492	-0.521381
H104	H	0.651676	0.477054	-0.524161
H105	H	0.705715	0.559210	-0.583211
H106	H	0.773784	0.526762	-0.492539
H107	H	0.382012	0.434085	-0.287370
