data_functionalizedCrystal
_audit_creation_method	'MofGen! by Chris Wilmer'
_symmetry_space_group_name_H-M	'P1'
_symmetry_Int_Tables_number	1
_symmetry_cell_setting	triclinic
loop_
_symmetry_equiv_pos_as_xyz
  x,y,z
_cell_length_a	15.944499
_cell_length_b	15.944493
_cell_length_c	14.421503
_cell_angle_alpha	90.010165
_cell_angle_beta	89.989779
_cell_angle_gamma	83.476327
loop_
_atom_site_label
_atom_site_type_symbol
_atom_site_fract_x
_atom_site_fract_y
_atom_site_fract_z
O1	O	1.114534	0.108117	-0.077155
O2	O	0.869975	0.121519	-0.077143
O3	O	0.998958	-0.007462	-0.077157
O4	O	0.985551	0.237097	-0.077141
O5	O	0.998937	-0.007443	0.077066
O6	O	0.869954	0.121538	0.077080
O7	O	1.114512	0.108136	0.077068
Cu8	Cu	0.992231	0.114839	0.091156
Cu9	Cu	0.992257	0.114816	-0.091231
O10	O	0.985530	0.237116	0.077082
C11	C	0.838670	0.120979	-0.000030
C12	C	0.745422	0.119334	-0.000026
C13	C	0.453871	0.194269	-0.000035
C14	C	0.514918	0.155307	-0.076080
C15	C	0.409787	0.113358	-0.000048
C16	C	0.514883	0.155304	0.075973
C17	C	0.574695	0.116299	-0.000036
C18	C	0.469607	0.074373	-0.076155
C19	C	0.469565	0.074382	0.075965
C20	C	0.530595	0.035361	-0.000098
C21	C	0.314787	0.111666	-0.000056
C22	C	0.669694	0.117984	-0.000035
C23	C	0.998400	-0.038747	-0.000049
C24	C	0.996757	-0.131995	-0.000061
C25	C	1.072679	-0.367769	-0.000047
C26	C	1.031748	-0.418339	-0.076085
C27	C	0.993713	-0.302716	-0.000050
C28	C	1.031708	-0.418296	0.075967
C29	C	0.990778	-0.467625	-0.000034
C30	C	0.952802	-0.352057	-0.076150
C31	C	0.952775	-0.352011	0.075971
C32	C	0.911785	-0.402548	-0.000086
C33	C	0.995405	-0.207716	-0.000059
C34	C	0.989079	-0.562622	-0.000031
C35	C	1.145818	0.108675	-0.000047
C36	C	1.239066	0.110320	-0.000057
C37	C	0.986088	0.268401	-0.000027
C38	C	0.987731	0.361650	-0.000022
N39	N	0.992220	0.114854	0.219437
N40	N	0.992275	0.114794	-0.219512
C41	C	0.932567	0.174468	0.469098
C42	C	1.008466	0.190761	0.530898
C43	C	0.992240	0.114834	0.408599
C44	C	0.916361	0.098560	0.530892
C45	C	0.992253	0.114816	0.591320
C46	C	1.068177	0.131165	0.469038
C47	C	0.976022	0.038931	0.469027
C48	C	1.051976	0.055192	0.530800
C49	C	0.992231	0.114846	0.303338
C50	C	0.992270	0.114804	0.696579
H51	H	0.420527	0.261416	-0.000104
C52	C	1.160975	-0.440286	-0.162737
C53	C	1.076776	-0.457444	-0.162869
H54	H	1.188777	-0.464432	-0.216309
H55	H	1.162807	-0.380953	-0.163083
H56	H	1.188449	-0.463853	-0.108736
H57	H	1.049300	-0.433872	-0.216867
H58	H	1.074940	-0.516789	-0.162532
H59	H	1.022195	0.254943	0.558074
C60	C	1.153994	0.149821	0.335434
C61	C	1.154808	0.149914	0.432523
H62	H	1.207467	0.161422	0.312892
H63	H	1.142426	0.096078	0.313723
H64	H	1.111543	0.191910	0.313844
H65	H	1.197256	0.107820	0.454114
H66	H	1.166386	0.203663	0.454244
C67	C	0.909850	-0.225599	-0.162283
C68	C	0.907841	-0.313165	-0.163040
H69	H	0.882103	-0.201590	-0.215930
H70	H	0.881985	-0.202318	-0.108363
H71	H	0.966830	-0.213504	-0.162058
H72	H	0.850861	-0.325260	-0.163258
H73	H	0.935704	-0.336454	-0.216974
C74	C	0.464983	0.070733	0.242306
C75	C	0.442395	0.028233	0.162748
H76	H	0.448201	0.042249	0.295886
H77	H	0.524402	0.071906	0.243239
H78	H	0.437650	0.126866	0.241755
H79	H	0.469732	-0.027898	0.163296
H80	H	0.382964	0.027051	0.161816
H81	H	0.563787	-0.031847	-0.000143
C82	C	0.778760	-0.389657	-0.079814
C83	C	0.819894	-0.423420	-0.000134
H84	H	0.722033	-0.402549	-0.079847
H85	H	0.779330	-0.330156	-0.080320
H86	H	0.807015	-0.413381	-0.133314
H87	H	0.791642	-0.399691	0.053367
H88	H	0.819319	-0.482933	0.000380
H89	H	0.962269	-0.025230	0.441830
C90	C	0.502835	0.284716	0.162612
C91	C	0.541961	0.201524	0.162763
H92	H	0.519546	0.313251	0.216193
H93	H	0.519129	0.312897	0.108625
H94	H	0.443291	0.284418	0.162932
H95	H	0.601505	0.201822	0.162436
H96	H	0.525672	0.173336	0.216764
C97	C	0.518085	0.160010	-0.242457
C98	C	0.542047	0.201543	-0.162828
H99	H	0.534825	0.188577	-0.295998
H100	H	0.544634	0.103581	-0.242589
H101	H	0.458542	0.159718	-0.242794
H102	H	0.601592	0.201829	-0.162487
H103	H	0.515502	0.257986	-0.162696
C104	C	1.165086	-0.258912	0.000685
C105	C	1.164492	-0.346659	-0.000135
H106	H	1.221765	-0.245875	0.000638
H107	H	1.136782	-0.235255	-0.052786
H108	H	1.137125	-0.236100	0.054772
H109	H	1.192448	-0.369471	-0.054226
H110	H	1.192809	-0.370327	0.053342
C111	C	0.354982	0.027095	-0.162286
C112	C	0.442665	0.028211	-0.163047
H113	H	0.338349	-0.001396	-0.215933
H114	H	0.339102	-0.001449	-0.108366
H115	H	0.328029	0.083378	-0.162059
H116	H	0.469618	-0.028073	-0.163267
H117	H	0.458553	0.056754	-0.216981
C118	C	0.949264	-0.346488	0.242312
C119	C	0.907785	-0.312886	0.162759
H120	H	0.921496	-0.322328	0.295896
H121	H	0.948319	-0.405937	0.243245
H122	H	1.006107	-0.333973	0.241753
H123	H	0.850944	-0.325406	0.163315
H124	H	0.908721	-0.253423	0.161826
H125	H	1.102499	0.004751	0.557722
H126	H	1.065064	-0.447226	0.140247
C127	C	0.806048	0.204483	0.379089
C128	C	0.864514	0.242595	0.432511
H129	H	0.764037	0.246543	0.356507
H130	H	0.834184	0.175651	0.328291
H131	H	0.780264	0.165417	0.416246
H132	H	0.890304	0.281657	0.395352
H133	H	0.836375	0.271441	0.483317
H134	H	0.852186	0.084803	0.558064
