data_functionalizedCrystal
_audit_creation_method	'MofGen! by Chris Wilmer'
_symmetry_space_group_name_H-M	'P1'
_symmetry_Int_Tables_number	1
_symmetry_cell_setting	triclinic
loop_
_symmetry_equiv_pos_as_xyz
  x,y,z
_cell_length_a	13.897449
_cell_length_b	13.897441
_cell_length_c	13.897448
_cell_angle_alpha	90.030599
_cell_angle_beta	89.982475
_cell_angle_gamma	89.977141
loop_
_atom_site_label
_atom_site_type_symbol
_atom_site_fract_x
_atom_site_fract_y
_atom_site_fract_z
Zn1	Zn	-1.474703	0.545436	-0.383988
Zn2	Zn	-1.141369	0.878769	-0.050655
Zn3	Zn	-0.808036	1.212103	0.282678
Zn4	Zn	-1.474597	0.384137	-0.545310
Zn5	Zn	-1.141263	0.717471	-0.211977
Zn6	Zn	-0.807930	1.050804	0.121357
Zn7	Zn	-1.313392	0.384148	-0.384030
Zn8	Zn	-0.980058	0.717482	-0.050697
Zn9	Zn	-0.646725	1.050815	0.282636
Zn10	Zn	-1.313373	0.545384	-0.545243
Zn11	Zn	-0.980040	0.878717	-0.211909
Zn12	Zn	-0.646707	1.212051	0.121424
O13	O	-1.394016	0.464776	-0.464643
O14	O	-1.060683	0.798110	-0.131310
O15	O	-0.727349	1.131443	0.202024
O16	O	-1.609670	0.524056	-0.405399
O17	O	-1.276337	0.857390	-0.072065
O18	O	-0.943003	1.190723	0.261268
O19	O	-1.453176	0.249157	-0.523962
O20	O	-1.119842	0.582490	-0.190628
O21	O	-0.786509	0.915824	0.142705
O22	O	-1.334842	0.405570	-0.249043
O23	O	-1.001509	0.738903	0.084290
O24	O	-0.668175	1.072236	0.417624
O25	O	-1.609592	0.405551	-0.523921
O26	O	-1.276259	0.738884	-0.190588
O27	O	-0.942926	1.072218	0.142746
O28	O	-1.453356	0.524067	-0.249012
O29	O	-1.120023	0.857400	0.084321
O30	O	-0.786690	1.190734	0.417654
O31	O	-1.334739	0.249165	-0.405470
O32	O	-1.001406	0.582498	-0.072137
O33	O	-0.668073	0.915832	0.261197
O34	O	-1.178408	0.405519	-0.405405
O35	O	-0.845074	0.738853	-0.072071
O36	O	-0.511741	1.072186	0.261262
O37	O	-1.334811	0.680372	-0.523806
O38	O	-1.001478	1.013706	-0.190473
O39	O	-0.668144	1.347039	0.142860
O40	O	-1.178394	0.523978	-0.523847
O41	O	-0.845061	0.857312	-0.190513
O42	O	-0.511728	1.190645	0.142820
O43	O	-1.453339	0.680411	-0.405333
O44	O	-1.120005	1.013744	-0.072000
O45	O	-0.786672	1.347077	0.261333
O46	O	-1.453158	0.405501	-0.680283
O47	O	-1.119825	0.738834	-0.346949
O48	O	-0.786491	1.072167	-0.013616
O49	O	-1.334708	0.523968	-0.680233
O50	O	-1.001375	0.857301	-0.346900
O51	O	-0.668041	1.190634	-0.013567
C52	C	-1.143402	0.464745	-0.464624
C53	C	-0.810068	0.798078	-0.131290
C54	C	-0.476735	1.131412	0.202043
C55	C	-1.036188	0.464755	-0.464639
C56	C	-0.702855	0.798088	-0.131305
C57	C	-0.369521	1.131421	0.202028
C58	C	-0.839893	0.464773	-0.464637
C59	C	-0.506559	0.798106	-0.131304
C60	C	-0.173226	1.131439	0.202030
C61	C	-0.949125	0.464760	-0.464635
C62	C	-0.615792	0.798093	-0.131302
C63	C	-0.282459	1.131427	0.202032
C64	C	-1.393946	0.464748	-0.715257
C65	C	-1.060612	0.798082	-0.381924
C66	C	-0.727279	1.131415	-0.048591
C67	C	-1.394004	0.464769	-0.822471
C68	C	-1.060671	0.798102	-0.489138
C69	C	-0.727337	1.131435	-0.155804
C70	C	-1.394085	0.716369	-0.464558
C71	C	-1.060751	1.049703	-0.131224
C72	C	-0.727418	1.383036	0.202109
C73	C	-1.394114	0.823583	-0.464521
C74	C	-1.060780	1.156917	-0.131188
C75	C	-0.727447	1.490250	0.202145
C76	C	-0.645609	0.464799	-0.464656
C77	C	-0.312276	0.798132	-0.131323
C78	C	0.021058	1.131466	0.202010
C79	C	-0.752823	0.464785	-0.464646
C80	C	-0.419490	0.798118	-0.131313
C81	C	-0.086156	1.131451	0.202021
C82	C	-1.394003	0.214162	-0.464658
C83	C	-1.060670	0.547495	-0.131325
C84	C	-0.727337	0.880829	0.202008
C85	C	-1.394161	0.106949	-0.464423
C86	C	-1.060828	0.440282	-0.131089
C87	C	-0.727495	0.773615	0.202244
C88	C	-1.394140	1.019879	-0.464456
C89	C	-1.060807	1.353212	-0.131123
C90	C	-0.727473	1.686545	0.202211
C91	C	-1.394122	0.910646	-0.464495
C92	C	-1.060789	1.243979	-0.131162
C93	C	-0.727456	1.577313	0.202172
C94	C	-1.394105	0.464829	-1.018766
C95	C	-1.060772	0.798163	-0.685433
C96	C	-0.727438	1.131496	-0.352100
C97	C	-1.394046	0.464798	-0.909534
C98	C	-1.060713	0.798132	-0.576200
C99	C	-0.727379	1.131465	-0.242867
C100	C	-1.394113	0.464825	-0.213050
C101	C	-1.060780	0.798159	0.120283
C102	C	-0.727446	1.131492	0.453617
C103	C	-1.394154	0.464846	-0.105836
C104	C	-1.060821	0.798180	0.227497
C105	C	-0.727488	1.131513	0.560831
