data_functionalizedCrystal
_audit_creation_method	'MofGen! by Chris Wilmer'
_symmetry_space_group_name_H-M	'P1'
_symmetry_Int_Tables_number	1
_symmetry_cell_setting	triclinic
loop_
_symmetry_equiv_pos_as_xyz
  x,y,z
_cell_length_a	13.635800
_cell_length_b	11.353959
_cell_length_c	11.102291
_cell_angle_alpha	76.858639
_cell_angle_beta	108.605752
_cell_angle_gamma	72.473377
loop_
_atom_site_label
_atom_site_type_symbol
_atom_site_fract_x
_atom_site_fract_y
_atom_site_fract_z
V1	V	2.065854	-0.180922	0.436295
O2	O	2.034802	0.008677	0.386796
O3	O	2.064154	-0.358723	0.472930
O4	O	2.054092	-0.178147	0.608503
O5	O	2.044933	-0.173149	0.250284
V6	V	2.303141	-0.158243	0.409234
O7	O	2.206299	-0.230671	0.495656
O8	O	2.387795	-0.108495	0.349873
O9	O	2.193239	0.019557	0.372599
O10	O	2.392892	-0.347843	0.458733
O11	O	2.382761	-0.166017	0.595245
O12	O	2.203300	-0.161019	0.237026
V13	V	2.565854	-0.180922	0.436295
O14	O	2.534802	0.008677	0.386796
O15	O	2.564154	-0.358723	0.472930
O16	O	2.554092	-0.178147	0.608503
O17	O	2.544933	-0.173149	0.250284
V18	V	2.803141	-0.158243	0.409234
O19	O	2.706299	-0.230671	0.495656
O20	O	2.887795	-0.108495	0.349873
O21	O	2.693239	0.019557	0.372599
O22	O	2.892892	-0.347843	0.458733
O23	O	2.882761	-0.166017	0.595245
O24	O	2.703300	-0.161019	0.237026
C25	C	1.991725	-0.402066	0.476271
C26	C	2.031061	-0.547420	0.507372
C27	C	2.019017	-0.594474	0.406704
C28	C	2.059672	-0.744705	0.438846
C29	C	1.978890	-0.171722	0.649205
C30	C	2.010063	-0.170629	0.790247
C31	C	2.097339	0.062894	0.369256
C32	C	2.047623	0.208246	0.338163
C33	C	2.110174	-0.167448	0.196318
C34	C	2.068619	-0.168534	0.055274
C35	C	2.491725	-0.402066	0.476271
C36	C	2.531061	-0.547420	0.507372
C37	C	2.478890	-0.171722	0.649205
C38	C	2.510063	-0.170629	0.790247
C39	C	2.117075	-0.176637	0.864424
C40	C	2.146352	-0.175585	0.996937
C41	C	1.961596	-0.162522	0.981085
C42	C	1.932318	-0.163565	0.848571
C43	C	2.223745	-0.184185	0.873579
C44	C	2.253022	-0.183132	1.006092
C45	C	2.597339	0.062894	0.369256
C46	C	2.547623	0.208246	0.338163
C47	C	2.610174	-0.167448	0.196318
C48	C	2.568619	-0.168534	0.055274
C49	C	2.641923	-0.622347	0.529803
C50	C	2.678902	-0.758927	0.559047
C51	C	2.605016	-0.820575	0.565849
C52	C	2.494146	-0.745638	0.543420
C53	C	2.457170	-0.609063	0.514186
C54	C	2.609255	0.283172	0.315736
C55	C	2.562548	0.419751	0.286499
C56	C	2.454212	0.481399	0.279699
C57	C	2.392574	0.406463	0.302125
C58	C	2.439279	0.269889	0.331352
C59	C	2.617075	-0.176637	0.864424
C60	C	2.646352	-0.175585	0.996937
C61	C	2.461596	-0.162522	0.981085
C62	C	2.432318	-0.163565	0.848571
C63	C	2.723745	-0.184185	0.873579
C64	C	2.753022	-0.183132	1.006092
H65	H	1.978613	-0.523540	0.296723
H66	H	2.769180	-0.819921	0.577302
H67	H	2.007217	-0.720824	0.228174
H68	H	2.702098	-0.572171	0.524261
H69	H	2.071474	-0.618355	0.617354
H70	H	2.276878	-0.281694	0.870694
H71	H	2.366894	-0.548066	0.495917
H72	H	2.635138	-0.931785	0.589654
H73	H	2.266078	-0.090295	1.014650
H74	H	2.100085	-0.815636	0.548836
H75	H	1.845181	-0.158674	0.788181
H76	H	2.433996	-0.795854	0.548963
H77	H	2.830141	-0.277675	1.079861
H78	H	2.389085	0.208892	0.349623
H79	H	2.612753	0.480745	0.268245
H80	H	2.416195	0.592608	0.255899
H81	H	2.697471	0.232997	0.321269
H82	H	2.304362	0.456679	0.296583
H83	H	2.330141	-0.277675	1.079861
H84	H	1.898302	-0.156768	1.028589
H85	H	2.345181	-0.158674	0.788181
H86	H	2.398302	-0.156768	1.028589
H87	H	2.728535	-0.095438	0.806844
H88	H	2.776878	-0.281694	0.870694
H89	H	2.766078	-0.090295	1.014650
H90	H	2.228535	-0.095438	0.806844
