data_functionalizedCrystal
_audit_creation_method	'MofGen! by Chris Wilmer'
_symmetry_space_group_name_H-M	'P1'
_symmetry_Int_Tables_number	1
_symmetry_cell_setting	triclinic
loop_
_symmetry_equiv_pos_as_xyz
  x,y,z
_cell_length_a	19.805407
_cell_length_b	18.050589
_cell_length_c	19.805399
_cell_angle_alpha	89.976299
_cell_angle_beta	89.983114
_cell_angle_gamma	90.028221
loop_
_atom_site_label
_atom_site_type_symbol
_atom_site_fract_x
_atom_site_fract_y
_atom_site_fract_z
Zn1	Zn	1.034709	-0.295666	-0.382745
Zn2	Zn	1.368043	0.037667	-0.049411
Zn3	Zn	1.701376	0.371000	0.283922
Zn4	Zn	1.034626	-0.419862	-0.269567
Zn5	Zn	1.367959	-0.086528	0.063767
Zn6	Zn	1.701292	0.246805	0.397100
Zn7	Zn	0.921529	-0.295690	-0.269569
Zn8	Zn	1.254863	0.037643	0.063764
Zn9	Zn	1.588196	0.370977	0.397098
Zn10	Zn	0.921484	-0.419819	-0.382713
Zn11	Zn	1.254817	-0.086486	-0.049380
Zn12	Zn	1.588150	0.246848	0.283953
O13	O	0.978087	-0.357759	-0.326148
O14	O	1.311420	-0.024426	0.007185
O15	O	1.644754	0.308907	0.340518
O16	O	1.129415	-0.312149	-0.367743
O17	O	1.462748	0.021184	-0.034410
O18	O	1.796081	0.354518	0.298923
O19	O	1.019607	-0.403418	-0.174850
O20	O	1.352941	-0.070084	0.158483
O21	O	1.686274	0.263249	0.491816
O22	O	0.936597	-0.191762	-0.284596
O23	O	1.269930	0.141571	0.048737
O24	O	1.603263	0.474905	0.382071
O25	O	1.129353	-0.403395	-0.284592
O26	O	1.462687	-0.070061	0.048741
O27	O	1.796020	0.263272	0.382075
O28	O	1.019750	-0.191745	-0.367746
O29	O	1.353083	0.141588	-0.034412
O30	O	1.686416	0.474922	0.298921
O31	O	0.936516	-0.312189	-0.174852
O32	O	1.269849	0.021144	0.158481
O33	O	1.603182	0.354478	0.491814
O34	O	0.826807	-0.312148	-0.284566
O35	O	1.160140	0.021185	0.048767
O36	O	1.493473	0.354519	0.382101
O37	O	0.936519	-0.403322	-0.477434
O38	O	1.269853	-0.069989	-0.144101
O39	O	1.603186	0.263344	0.189232
O40	O	0.826773	-0.403345	-0.367693
O41	O	1.160107	-0.070012	-0.034359
O42	O	1.493440	0.263322	0.298974
O43	O	1.019706	-0.312108	-0.477457
O44	O	1.353039	0.021226	-0.144124
O45	O	1.686372	0.354559	0.189210
O46	O	1.019563	-0.523781	-0.284562
O47	O	1.352897	-0.190447	0.048771
O48	O	1.686230	0.142886	0.382105
O49	O	0.936438	-0.523749	-0.367690
O50	O	1.269772	-0.190416	-0.034357
O51	O	1.603105	0.142917	0.298976
C52	C	0.802231	-0.357745	-0.326127
C53	C	1.135564	-0.024412	0.007207
C54	C	1.468898	0.308922	0.340540
C55	C	0.726999	-0.357757	-0.326133
C56	C	1.060332	-0.024423	0.007200
C57	C	1.393666	0.308910	0.340533
C58	C	0.691655	-0.405315	-0.369347
C59	C	1.024989	-0.071981	-0.036014
C60	C	1.358322	0.261352	0.297319
C61	C	0.620967	-0.405316	-0.369357
C62	C	0.954300	-0.071983	-0.036023
C63	C	1.287633	0.261351	0.297310
C64	C	0.585623	-0.357763	-0.326148
C65	C	0.918957	-0.024429	0.007185
C66	C	1.252290	0.308904	0.340518
C67	C	0.620972	-0.310200	-0.282933
C68	C	0.954305	0.023134	0.050401
C69	C	1.287639	0.356467	0.383734
C70	C	0.691659	-0.310195	-0.282927
C71	C	1.024993	0.023138	0.050406
C72	C	1.358326	0.356472	0.383740
C73	C	0.335899	-0.310216	-0.282955
C74	C	0.669232	0.023117	0.050378
C75	C	1.002566	0.356451	0.383712
C76	C	0.265207	-0.310226	-0.282962
C77	C	0.598540	0.023108	0.050371
C78	C	0.931873	0.356441	0.383704
C79	C	0.265206	-0.405337	-0.369385
C80	C	0.598540	-0.072004	-0.036051
C81	C	0.931873	0.261330	0.297282
C82	C	0.335893	-0.405332	-0.369379
C83	C	0.669227	-0.071999	-0.036046
C84	C	1.002560	0.261334	0.297288
C85	C	0.371236	-0.357767	-0.326166
C86	C	0.704569	-0.024434	0.007167
C87	C	1.037903	0.308900	0.340501
C88	C	0.447884	-0.357765	-0.326157
C89	C	0.781218	-0.024432	0.007176
C90	C	1.114551	0.308902	0.340509
C91	C	0.508976	-0.357768	-0.326153
C92	C	0.842310	-0.024434	0.007180
C93	C	1.175643	0.308899	0.340513
C94	C	0.978005	-0.550711	-0.326137
C95	C	1.311339	-0.217378	0.007196
C96	C	1.644672	0.115955	0.340529
C97	C	0.978032	-0.633257	-0.326155
C98	C	1.311366	-0.299924	0.007178
C99	C	1.644699	0.033410	0.340512
C100	C	0.932873	-0.832718	-0.371344
C101	C	1.266207	-0.499384	-0.038011
C102	C	1.599540	-0.166051	0.295322
C103	C	0.916378	-0.882158	-0.309581
C104	C	1.249711	-0.548825	0.023752
C105	C	1.583045	-0.215492	0.357085
C106	C	0.978099	-0.784387	-0.326164
C107	C	1.311432	-0.451054	0.007169
C108	C	1.644765	-0.117721	0.340503
C109	C	0.994627	-0.882029	-0.387934
C110	C	1.327961	-0.548695	-0.054601
C111	C	1.661294	-0.215362	0.278733
C112	C	0.978162	-0.930373	-0.326178
C113	C	1.311495	-0.597039	0.007156
C114	C	1.644828	-0.263706	0.340489
C115	C	0.961571	-0.832741	-0.264368
C116	C	1.294904	-0.499407	0.068965
C117	C	1.628238	-0.166074	0.402299
C118	C	1.039849	-0.832607	-0.342762
C119	C	1.373182	-0.499273	-0.009429
C120	C	1.706516	-0.165940	0.323904
C121	C	1.023377	-0.882025	-0.280957
C122	C	1.356710	-0.548692	0.052377
C123	C	1.690044	-0.215358	0.385710
C124	C	0.978061	-0.700289	-0.326157
C125	C	1.311394	-0.366956	0.007177
C126	C	1.644727	-0.033623	0.340510
C127	C	0.978200	-1.014469	-0.326178
C128	C	1.311533	-0.681136	0.007155
C129	C	1.644866	-0.347802	0.340489
C130	C	1.154630	-0.357774	-0.326171
C131	C	1.487963	-0.024441	0.007163
C132	C	1.821296	0.308893	0.340496
C133	C	1.229862	-0.357780	-0.326180
C134	C	1.563195	-0.024447	0.007153
C135	C	1.896528	0.308886	0.340486
C136	C	0.978117	-0.357708	-0.502691
C137	C	1.311450	-0.024374	-0.169358
C138	C	1.644783	0.308959	0.163975
C139	C	0.978129	-0.357686	-0.577923
C140	C	1.311463	-0.024352	-0.244590
C141	C	1.644796	0.308981	0.088743
C142	C	0.978187	-0.164054	-0.326175
C143	C	1.311521	0.169280	0.007159
C144	C	1.644854	0.502613	0.340492
C145	C	0.978230	-0.081508	-0.326186
C146	C	1.311564	0.251826	0.007148
C147	C	1.644897	0.585159	0.340481
C148	C	0.934876	-0.310179	-0.613268
C149	C	1.268209	0.023155	-0.279934
C150	C	1.601543	0.356488	0.053399
C151	C	0.934885	-0.310164	-0.683956
C152	C	1.268219	0.023169	-0.350623
C153	C	1.601552	0.356503	-0.017290
C154	C	0.978152	-0.357654	-0.719299
C155	C	1.311485	-0.024320	-0.385966
C156	C	1.644819	0.309013	-0.052632
C157	C	1.021407	-0.405166	-0.683949
C158	C	1.354741	-0.071833	-0.350616
C159	C	1.688074	0.261501	-0.017283
C160	C	1.021394	-0.405184	-0.613262
C161	C	1.354727	-0.071850	-0.279929
C162	C	1.688061	0.261483	0.053404
C163	C	1.021461	-0.405096	-0.969023
C164	C	1.354794	-0.071763	-0.635690
C165	C	1.688128	0.261570	-0.302356
C166	C	1.021472	-0.405074	-1.039715
C167	C	1.354806	-0.071740	-0.706382
C168	C	1.688139	0.261593	-0.373048
C169	C	0.934952	-0.310077	-1.039717
C170	C	1.268285	0.023256	-0.706384
C171	C	1.601619	0.356590	-0.373050
C172	C	0.934939	-0.310095	-0.969030
C173	C	1.268272	0.023239	-0.635696
C174	C	1.601606	0.356572	-0.302363
C175	C	0.978191	-0.357609	-0.933686
C176	C	1.311525	-0.024276	-0.600353
C177	C	1.644858	0.309057	-0.267020
C178	C	0.978180	-0.357626	-0.857038
C179	C	1.311513	-0.024292	-0.523705
C180	C	1.644847	0.309041	-0.190371
C181	C	0.978167	-0.357634	-0.795946
C182	C	1.311501	-0.024301	-0.462613
C183	C	1.644834	0.309032	-0.129279
C184	C	0.978096	-0.357757	-0.150292
C185	C	1.311430	-0.024424	0.183041
C186	C	1.644763	0.308910	0.516374
C187	C	0.978215	-0.357570	-0.075061
C188	C	1.311548	-0.024236	0.258272
C189	C	1.644882	0.309097	0.591606
H190	H	0.720427	-0.444041	-0.404530
H191	H	1.053760	-0.110707	-0.071197
H192	H	1.387093	0.222626	0.262136
H193	H	1.008582	-0.903679	-0.440167
H194	H	1.341916	-0.570346	-0.106834
H195	H	1.675249	-0.237012	0.226500
H196	H	1.056672	-0.443794	-0.940255
H197	H	1.390006	-0.110461	-0.606921
H198	H	1.723339	0.222873	-0.273588
H199	H	1.056632	-0.443836	-0.712731
H200	H	1.389966	-0.110503	-0.379398
H201	H	1.723299	0.222830	-0.046064
H202	H	1.056621	-0.443863	-0.584486
H203	H	1.389954	-0.110530	-0.251152
H204	H	1.723287	0.222803	0.082181
H205	H	0.592193	-0.444043	-0.404545
H206	H	0.925526	-0.110710	-0.071212
H207	H	1.258860	0.222624	0.262121
H208	H	0.236422	-0.444064	-0.404574
H209	H	0.569755	-0.110731	-0.071240
H210	H	0.903089	0.222602	0.262093
H211	H	0.720435	-0.271465	-0.247741
H212	H	1.053769	0.061869	0.085592
H213	H	1.387102	0.395202	0.418926
H214	H	1.061650	-0.903539	-0.242711
H215	H	1.394983	-0.570205	0.090623
H216	H	1.728316	-0.236872	0.423956
H217	H	0.364667	-0.444058	-0.404562
H218	H	0.698000	-0.110724	-0.071228
H219	H	1.031333	0.222609	0.262105
H220	H	1.092028	-0.810827	-0.356819
H221	H	1.425361	-0.477494	-0.023485
H222	H	1.758695	-0.144161	0.309848
H223	H	0.899661	-0.271482	-0.712731
H224	H	1.232995	0.061851	-0.379397
H225	H	1.566328	0.395185	-0.046064
H226	H	0.236432	-0.271497	-0.247777
H227	H	0.569765	0.061836	0.085556
H228	H	0.903099	0.395169	0.418890
H229	H	0.899647	-0.271503	-0.584497
H230	H	1.232980	0.061830	-0.251164
H231	H	1.566314	0.395164	0.082170
H232	H	0.864187	-0.903940	-0.295555
H233	H	1.197520	-0.570606	0.037779
H234	H	1.530854	-0.237273	0.371112
H235	H	0.364666	-0.271491	-0.247763
H236	H	0.698000	0.061843	0.085570
H237	H	1.031333	0.395176	0.418904
H238	H	0.592190	-0.271478	-0.247754
H239	H	0.925523	0.061856	0.085579
H240	H	1.258857	0.395189	0.418912
H241	H	0.894571	-0.811067	-0.409498
H242	H	1.227905	-0.477733	-0.076165
H243	H	1.561238	-0.144400	0.257169
H244	H	0.947556	-0.811180	-0.212121
H245	H	1.280889	-0.477847	0.121213
H246	H	1.614222	-0.144513	0.454546
H247	H	0.899709	-0.271421	-0.940257
H248	H	1.233042	0.061912	-0.606924
H249	H	1.566376	0.395245	-0.273591
H250	H	0.899732	-0.271390	-1.068502
H251	H	1.233065	0.061943	-0.735169
H252	H	1.566398	0.395276	-0.401835
H253	H	1.056707	-0.443748	-1.068489
H254	H	1.390040	-0.110415	-0.735156
H255	H	1.723374	0.222919	-0.401822
