data_functionalizedCrystal
_audit_creation_method	'MofGen! by Chris Wilmer'
_symmetry_space_group_name_H-M	'P1'
_symmetry_Int_Tables_number	1
_symmetry_cell_setting	triclinic
loop_
_symmetry_equiv_pos_as_xyz
  x,y,z
_cell_length_a	16.109293
_cell_length_b	15.995343
_cell_length_c	15.186229
_cell_angle_alpha	90.010549
_cell_angle_beta	89.996077
_cell_angle_gamma	96.526273
loop_
_atom_site_label
_atom_site_type_symbol
_atom_site_fract_x
_atom_site_fract_y
_atom_site_fract_z
O1	O	-1.103157	0.107596	0.073307
O2	O	-0.769824	0.440929	0.406641
O3	O	-0.436490	0.774263	0.739974
O4	O	-0.861097	0.120997	0.073295
O5	O	-0.527764	0.454330	0.406628
O6	O	-0.194431	0.787663	0.739962
O7	O	-0.988747	-0.007594	0.073285
O8	O	-0.655414	0.325740	0.406619
O9	O	-0.322081	0.659073	0.739952
O10	O	-0.975507	0.236186	0.073317
O11	O	-0.642174	0.569520	0.406651
O12	O	-0.308840	0.902853	0.739984
O13	O	-0.988746	-0.007601	-0.073172
O14	O	-0.655413	0.325732	0.260161
O15	O	-0.322080	0.659065	0.593495
O16	O	-0.861096	0.120989	-0.073162
O17	O	-0.527763	0.454322	0.260171
O18	O	-0.194430	0.787656	0.593505
O19	O	-1.103156	0.107588	-0.073150
O20	O	-0.769823	0.440922	0.260184
O21	O	-0.436489	0.774255	0.593517
Zn22	Zn	-0.982126	0.114287	-0.096409
Zn23	Zn	-0.648793	0.447621	0.236924
Zn24	Zn	-0.315459	0.780954	0.570257
Zn25	Zn	-0.982127	0.114298	0.096555
Zn26	Zn	-0.648794	0.447631	0.429888
Zn27	Zn	-0.315461	0.780964	0.763221
O28	O	-0.975506	0.236179	-0.073140
O29	O	-0.642173	0.569512	0.260193
O30	O	-0.308839	0.902845	0.593527
C31	C	-0.830122	0.120451	0.000065
C32	C	-0.496788	0.453784	0.333398
C33	C	-0.163455	0.787118	0.666731
C34	C	-0.737826	0.118827	0.000059
C35	C	-0.404492	0.452161	0.333393
C36	C	-0.071159	0.785494	0.666726
C37	C	-0.525482	0.115068	-0.079772
C38	C	-0.192149	0.448401	0.253561
C39	C	0.141184	0.781735	0.586895
C40	C	-0.438762	0.113533	-0.079772
C41	C	-0.105428	0.446866	0.253562
C42	C	0.227905	0.780200	0.586895
C43	C	-0.438773	0.113546	0.079904
C44	C	-0.105440	0.446879	0.413237
C45	C	0.227893	0.780212	0.746571
C46	C	-0.525493	0.115075	0.079903
C47	C	-0.192160	0.448408	0.413236
C48	C	0.141174	0.781741	0.746569
C49	C	-0.568845	0.115840	0.000062
C50	C	-0.235512	0.449173	0.333395
C51	C	0.097822	0.782507	0.666729
C52	C	-0.395404	0.112776	0.000064
C53	C	-0.062071	0.446110	0.333397
C54	C	0.271262	0.779443	0.666731
C55	C	-0.301378	0.111112	0.000065
C56	C	0.031956	0.444445	0.333398
C57	C	0.365289	0.777779	0.666732
C58	C	-0.662878	0.117503	0.000060
C59	C	-0.329544	0.450836	0.333394
C60	C	0.003789	0.784169	0.666727
C61	C	-0.988201	-0.038792	0.000054
C62	C	-0.654867	0.294541	0.333388
C63	C	-0.321534	0.627874	0.666721
C64	C	-0.986563	-0.131743	0.000047
C65	C	-0.653230	0.201591	0.333381
C66	C	-0.319896	0.534924	0.666714
C67	C	-0.983590	-0.301928	0.000067
C68	C	-0.650257	0.031405	0.333401
C69	C	-0.316924	0.364739	0.666734
C70	C	-0.891447	-0.325246	0.000064
C71	C	-0.558113	0.008087	0.333398
C72	C	-0.224780	0.341421	0.666731
C73	C	-0.889713	-0.421923	0.000407
C74	C	-0.556380	-0.088590	0.333740
C75	C	-0.223046	0.244743	0.667073
C76	C	-0.980663	-0.469487	0.000086
C77	C	-0.647329	-0.136154	0.333419
C78	C	-0.313996	0.197180	0.666753
C79	C	-1.026995	-0.440398	0.083554
C80	C	-0.693661	-0.107064	0.416888
C81	C	-0.360328	0.226269	0.750221
C82	C	-1.028088	-0.343605	0.083614
C83	C	-0.694754	-0.010272	0.416948
C84	C	-0.361421	0.323061	0.750281
C85	C	-1.029435	-0.343719	-0.082941
C86	C	-0.696102	-0.010386	0.250393
C87	C	-0.362769	0.322948	0.583726
C88	C	-1.026034	-0.440213	-0.084028
C89	C	-0.692700	-0.106880	0.249305
C90	C	-0.359367	0.226454	0.582639
C91	C	-0.979013	-0.564185	0.000099
C92	C	-0.645680	-0.230851	0.333433
C93	C	-0.312346	0.102482	0.666766
C94	C	-0.985243	-0.207231	0.000060
C95	C	-0.651910	0.126103	0.333393
C96	C	-0.318576	0.459436	0.666726
C97	C	-0.134131	0.108142	0.000076
C98	C	0.199203	0.441475	0.333409
C99	C	0.532536	0.774808	0.666742
C100	C	-0.226424	0.109789	0.000067
C101	C	0.106910	0.443122	0.333400
C102	C	0.440243	0.776456	0.666733
C103	C	-0.976053	0.267377	0.000093
C104	C	-0.642719	0.600711	0.333426
C105	C	-0.309386	0.934044	0.666760
C106	C	-0.977690	0.360328	0.000106
C107	C	-0.644357	0.693661	0.333439
C108	C	-0.311024	1.026994	0.666772
N109	N	-0.982129	0.114298	0.228247
N110	N	-0.648795	0.447632	0.561581
N111	N	-0.315462	0.780965	0.894914
N112	N	-0.982131	0.114280	-0.228102
N113	N	-0.648798	0.447613	0.105231
N114	N	-0.315464	0.780947	0.438565
C115	C	-1.038761	0.057469	0.453966
C116	C	-0.705428	0.390802	0.787299
C117	C	-0.372095	0.724135	1.120632
C118	C	-1.038764	0.057466	0.546155
C119	C	-0.705430	0.390800	0.879489
C120	C	-0.372097	0.724133	1.212822
C121	C	-0.925496	0.171116	0.546173
C122	C	-0.592163	0.504449	0.879506
C123	C	-0.258829	0.837783	1.212840
C124	C	-0.925498	0.171121	0.453985
C125	C	-0.592165	0.504455	0.787318
C126	C	-0.258831	0.837788	1.120652
C127	C	-0.982130	0.114293	0.407884
C128	C	-0.648797	0.447626	0.741217
C129	C	-0.315463	0.780960	1.074551
C130	C	-0.982130	0.114285	0.592261
C131	C	-0.648797	0.447619	0.925595
C132	C	-0.315463	0.780952	1.258928
C133	C	-0.982132	0.114283	0.692218
C134	C	-0.648799	0.447617	1.025551
C135	C	-0.315466	0.780950	1.358884
C136	C	-0.982129	0.114296	0.307921
C137	C	-0.648796	0.447629	0.641255
C138	C	-0.315462	0.780962	0.974588
H139	H	-0.560800	0.115701	0.144917
H140	H	-0.227467	0.449034	0.478251
H141	H	0.105866	0.782368	0.811584
H142	H	-1.000364	-0.315449	-0.146229
H143	H	-0.667030	0.017884	0.187104
H144	H	-0.333697	0.351218	0.520438
H145	H	-1.084879	0.011196	0.583673
H146	H	-0.751546	0.344529	0.917006
H147	H	-0.418212	0.677862	1.250339
H148	H	-0.403465	0.112924	0.144908
H149	H	-0.070132	0.446257	0.478241
H150	H	0.263201	0.779590	0.811574
H151	H	-1.095660	-0.329052	0.087175
H152	H	-0.762326	0.004282	0.420509
H153	H	-0.428993	0.337615	0.753842
H154	H	-0.879382	0.217399	0.416463
H155	H	-0.546048	0.550732	0.749796
H156	H	-0.212715	0.884065	1.083129
H157	H	-0.853437	-0.440939	-0.059410
H158	H	-0.520104	-0.107606	0.273923
H159	H	-0.186770	0.225728	0.607257
Cl160	Cl	-1.130340	-0.489593	0.087996
Cl161	Cl	-0.797007	-0.156260	0.421329
Cl162	Cl	-0.463674	0.177074	0.754663
Cl163	Cl	-0.977918	-0.471386	0.179824
Cl164	Cl	-0.644585	-0.138053	0.513158
Cl165	Cl	-0.311251	0.195281	0.846491
Cl166	Cl	-0.836296	-0.281996	-0.092335
Cl167	Cl	-0.502963	0.051338	0.240999
Cl168	Cl	-0.169630	0.384671	0.574332
H169	H	-0.992294	-0.458771	-0.145779
H170	H	-0.658961	-0.125438	0.187554
H171	H	-0.325628	0.207895	0.520887
Cl172	Cl	-0.384252	0.112564	-0.180139
Cl173	Cl	-0.050919	0.445897	0.153194
Cl174	Cl	0.282415	0.779231	0.486527
Cl175	Cl	-1.128522	-0.491066	-0.092160
Cl176	Cl	-0.795188	-0.157733	0.241174
Cl177	Cl	-0.461855	0.175600	0.574507
H178	H	-0.560777	0.115691	-0.144784
H179	H	-0.227444	0.449024	0.188550
H180	H	0.105890	0.782358	0.521883
H181	H	-1.084875	0.011197	0.416432
H182	H	-0.751542	0.344530	0.749766
H183	H	-0.418209	0.677863	1.083099
Cl184	Cl	-0.854302	0.242551	0.604133
Cl185	Cl	-0.520968	0.575884	0.937466
Cl186	Cl	-0.187635	0.909217	1.270800
H187	H	-0.856313	-0.296243	0.059828
H188	H	-0.522980	0.037091	0.393162
H189	H	-0.189647	0.370424	0.726495
Cl190	Cl	-0.979128	-0.302218	0.180307
Cl191	Cl	-0.645795	0.031115	0.513640
Cl192	Cl	-0.312462	0.364449	0.846973
Cl193	Cl	-0.833987	-0.450365	0.093328
Cl194	Cl	-0.500654	-0.117032	0.426661
Cl195	Cl	-0.167320	0.216301	0.759995
Cl196	Cl	-1.134148	-0.322113	-0.084184
Cl197	Cl	-0.800814	0.011221	0.249150
Cl198	Cl	-0.467481	0.344554	0.582483
