data_functionalizedCrystal
_audit_creation_method	'MofGen! by Chris Wilmer'
_symmetry_space_group_name_H-M	'P1'
_symmetry_Int_Tables_number	1
_symmetry_cell_setting	triclinic
loop_
_symmetry_equiv_pos_as_xyz
  x,y,z
_cell_length_a	16.625548
_cell_length_b	18.050589
_cell_length_c	16.625539
_cell_angle_alpha	89.977040
_cell_angle_beta	89.982945
_cell_angle_gamma	90.029289
loop_
_atom_site_label
_atom_site_type_symbol
_atom_site_fract_x
_atom_site_fract_y
_atom_site_fract_z
Zn1	Zn	1.232620	-0.295651	-0.455929
Zn2	Zn	1.732620	0.204349	0.044071
Zn3	Zn	1.232518	-0.419844	-0.321104
Zn4	Zn	1.732518	0.080156	0.178896
Zn5	Zn	1.097790	-0.295675	-0.321109
Zn6	Zn	1.597790	0.204325	0.178891
Zn7	Zn	1.097739	-0.419806	-0.455894
Zn8	Zn	1.597739	0.080194	0.044106
O9	O	1.165167	-0.357744	-0.388509
O10	O	1.665167	0.142256	0.111491
O11	O	1.345439	-0.312131	-0.438056
O12	O	1.845439	0.187869	0.061944
O13	O	1.214625	-0.403399	-0.208272
O14	O	1.714625	0.096601	0.291728
O15	O	1.115740	-0.191747	-0.339010
O16	O	1.615740	0.308253	0.160990
O17	O	1.345364	-0.403376	-0.339001
O18	O	1.845364	0.096624	0.160999
O19	O	1.214799	-0.191729	-0.438061
O20	O	1.714799	0.308271	0.061939
O21	O	1.115641	-0.312173	-0.208276
O22	O	1.615641	0.187827	0.291724
O23	O	0.984951	-0.312135	-0.338976
O24	O	1.484951	0.187865	0.161024
O25	O	1.115652	-0.403310	-0.568731
O26	O	1.615652	0.096690	-0.068731
O27	O	0.984913	-0.403333	-0.438002
O28	O	1.484913	0.096667	0.061998
O29	O	1.214749	-0.312094	-0.568757
O30	O	1.714749	0.187906	-0.068757
O31	O	1.214575	-0.523764	-0.338968
O32	O	1.714575	-0.023764	0.161032
O33	O	1.115554	-0.523735	-0.437997
O34	O	1.615554	-0.023735	0.062003
C35	C	0.955676	-0.357733	-0.388487
C36	C	1.455676	0.142267	0.111513
C37	C	0.866055	-0.357747	-0.388496
C38	C	1.366055	0.142253	0.111504
C39	C	1.165070	-0.550696	-0.388496
C40	C	1.665070	-0.050696	0.111504
C41	C	1.165102	-0.633242	-0.388517
C42	C	1.665102	-0.133242	0.111483
C43	C	0.537879	-0.357751	-0.388531
C44	C	1.037879	0.142249	0.111469
C45	C	0.629188	-0.357748	-0.388518
C46	C	1.129188	0.142252	0.111482
C47	C	0.701964	-0.357749	-0.388513
C48	C	1.201964	0.142251	0.111487
C49	C	0.793279	-0.357745	-0.388502
C50	C	1.293279	0.142255	0.111498
C51	C	1.111307	-0.832704	-0.442350
C52	C	1.611307	-0.332704	0.057650
C53	C	1.091655	-0.882144	-0.368774
C54	C	1.591655	-0.382144	0.131226
C55	C	1.165181	-0.784372	-0.388528
C56	C	1.665181	-0.284372	0.111472
C57	C	1.184872	-0.882014	-0.462112
C58	C	1.684872	-0.382014	0.037888
C59	C	1.165256	-0.930357	-0.388544
C60	C	1.665256	-0.430357	0.111456
C61	C	1.145490	-0.832725	-0.314913
C62	C	1.645490	-0.332725	0.185087
C63	C	1.238742	-0.832590	-0.408300
C64	C	1.738742	-0.332590	0.091700
C65	C	1.219118	-0.882008	-0.334673
C66	C	1.719118	-0.382008	0.165327
C67	C	1.165136	-0.700274	-0.388519
C68	C	1.665136	-0.200274	0.111481
C69	C	1.165301	-1.014454	-0.388544
C70	C	1.665301	-0.514454	0.111456
C71	C	1.375476	-0.357755	-0.388532
C72	C	1.875476	0.142245	0.111468
C73	C	1.465097	-0.357760	-0.388542
C74	C	1.965097	0.142240	0.111458
C75	C	1.165206	-0.357695	-0.598818
C76	C	1.665206	0.142305	-0.098818
C77	C	1.165223	-0.357674	-0.688439
C78	C	1.665223	0.142326	-0.188439
C79	C	1.165287	-0.164038	-0.388540
C80	C	1.665287	0.335962	0.111460
C81	C	1.165338	-0.081492	-0.388553
C82	C	1.665338	0.418508	0.111447
C83	C	1.165236	-0.357658	-0.761222
C84	C	1.665236	0.142342	-0.261222
C85	C	1.165255	-0.357630	-0.852530
C86	C	1.665255	0.142370	-0.352530
C87	C	1.165274	-0.357604	-0.925307
C88	C	1.665274	0.142396	-0.425307
C89	C	1.165294	-0.357577	-1.016621
C90	C	1.665294	0.142423	-0.516621
C91	C	1.165174	-0.357739	-0.179018
C92	C	1.665174	0.142261	0.320982
C93	C	1.165313	-0.357551	-0.089398
C94	C	1.665313	0.142449	0.410602
H95	H	1.065680	-0.811054	-0.487802
H96	H	1.565680	-0.311054	0.012198
O97	O	1.125433	-0.806974	-0.240710
O98	O	1.625433	-0.306974	0.259290
C99	C	1.032592	-0.734382	-0.162175
C100	C	1.532592	-0.234382	0.337825
C101	C	1.055208	-0.763510	-0.246246
C102	C	1.555208	-0.263510	0.253754
H103	H	0.975823	-0.699223	-0.166625
H104	H	1.475823	-0.199223	0.333375
H105	H	1.021290	-0.783135	-0.120041
H106	H	1.521290	-0.283135	0.379959
H107	H	1.083963	-0.699180	-0.137624
H108	H	1.583963	-0.199180	0.362376
H109	H	1.003866	-0.798700	-0.270869
H110	H	1.503866	-0.298700	0.229131
H111	H	1.066538	-0.714724	-0.288325
H112	H	1.566538	-0.214724	0.211675
O113	O	1.017431	-0.908079	-0.348956
O114	O	1.517431	-0.408079	0.151044
C115	C	0.876688	-0.912346	-0.383227
C116	C	1.376688	-0.412346	0.116773
C117	C	0.960704	-0.882944	-0.405767
C118	C	1.460704	-0.382944	0.094233
H119	H	0.830798	-0.892023	-0.429137
H120	H	1.330798	-0.392023	0.070863
H121	H	0.877536	-0.975498	-0.382888
H122	H	1.377536	-0.475498	0.117112
H123	H	0.859524	-0.891240	-0.320927
H124	H	1.359524	-0.391240	0.179073
H125	H	0.977919	-0.903995	-0.468072
H126	H	1.477919	-0.403995	0.031928
H127	H	0.959811	-0.819793	-0.406051
H128	H	1.459811	-0.319793	0.093949
H129	H	1.264710	-0.903520	-0.289111
H130	H	1.764710	-0.403520	0.210889
O131	O	1.312872	-0.806634	-0.428412
O132	O	1.812872	-0.306634	0.071588
C133	C	1.417425	-0.802290	-0.528715
C134	C	1.917425	-0.302290	-0.028715
C135	C	1.333459	-0.831722	-0.506036
C136	C	1.833459	-0.331722	-0.006036
H137	H	1.434103	-0.822574	-0.591467
H138	H	1.934103	-0.322574	-0.091467
H139	H	1.416837	-0.739138	-0.527988
H140	H	1.916837	-0.239138	-0.027988
H141	H	1.463525	-0.823411	-0.483445
H142	H	1.963525	-0.323411	0.016555
H143	H	1.287312	-0.810655	-0.551283
H144	H	1.787312	-0.310655	-0.051283
H145	H	1.334114	-0.894872	-0.506738
H146	H	1.834114	-0.394872	-0.006738
O147	O	1.204617	-0.907756	-0.536402
O148	O	1.704617	-0.407756	-0.036402
C149	C	1.170048	-0.911933	-0.677072
C150	C	1.670048	-0.411933	-0.177072
C151	C	1.147613	-0.882720	-0.592987
C152	C	1.647613	-0.382720	-0.092987
H153	H	1.123963	-0.891716	-0.722841
H154	H	1.623963	-0.391716	-0.222841
H155	H	1.232264	-0.890678	-0.694426
H156	H	1.732264	-0.390678	-0.194426
H157	H	1.170499	-0.975083	-0.676185
H158	H	1.670499	-0.475083	-0.176185
H159	H	1.147116	-0.819572	-0.593810
H160	H	1.647116	-0.319572	-0.093810
H161	H	1.085412	-0.904032	-0.575666
H162	H	1.585412	-0.404032	-0.075666
