data_functionalizedCrystal
_audit_creation_method	'MofGen! by Chris Wilmer'
_symmetry_space_group_name_H-M	'P1'
_symmetry_Int_Tables_number	1
_symmetry_cell_setting	triclinic
loop_
_symmetry_equiv_pos_as_xyz
  x,y,z
_cell_length_a	15.995343
_cell_length_b	15.538191
_cell_length_c	14.472310
_cell_angle_alpha	90.001031
_cell_angle_beta	89.991294
_cell_angle_gamma	114.619361
loop_
_atom_site_label
_atom_site_type_symbol
_atom_site_fract_x
_atom_site_fract_y
_atom_site_fract_z
O1	O	1.074110	-0.121382	-0.076742
O2	O	0.825775	-0.136384	-0.076764
O3	O	0.998283	0.008248	-0.076753
O4	O	0.901602	-0.266014	-0.076753
O5	O	0.998247	0.008239	0.076929
O6	O	0.825739	-0.136393	0.076918
O7	O	1.074074	-0.121391	0.076940
Cu8	Cu	0.949903	-0.128892	0.090962
Cu9	Cu	0.949946	-0.128882	-0.090785
O10	O	0.901566	-0.266023	0.076929
C11	C	0.794750	-0.135769	0.000075
C12	C	0.702363	-0.133914	0.000066
C13	C	0.533200	-0.130546	0.000078
C14	C	0.541585	-0.026144	0.000078
C15	C	0.445504	-0.024180	0.000432
C16	C	0.366649	-0.127229	0.000090
C17	C	0.379766	-0.179729	0.087675
C18	C	0.476182	-0.180967	0.087743
C19	C	0.475668	-0.182486	-0.087028
C20	C	0.380345	-0.178632	-0.088174
C21	C	0.272519	-0.125360	0.000099
C22	C	0.627329	-0.132418	0.000075
C23	C	1.008380	0.043339	0.000086
C24	C	1.038511	0.147914	0.000079
C25	C	1.105099	-0.122005	0.000100
C26	C	1.197486	-0.123861	0.000102
C27	C	0.891469	-0.301114	0.000088
C28	C	0.861338	-0.405689	0.000089
C29	C	0.739173	0.435695	0.000073
C30	C	0.767506	0.533962	0.000078
C31	C	0.926874	0.556410	0.000091
C32	C	0.898554	0.458143	0.000082
C33	C	0.804703	0.397793	0.000074
C34	C	0.964084	0.420241	0.000083
C35	C	0.935766	0.321983	0.000079
C36	C	0.841918	0.261627	0.000074
C37	C	0.776385	0.299535	0.000070
C38	C	1.057935	0.480593	0.000097
C39	C	1.123464	0.442690	0.000098
C40	C	1.095147	0.344430	0.000088
C41	C	1.001299	0.284074	0.000082
C42	C	1.160681	0.306522	0.000091
C43	C	1.132363	0.208264	0.000087
C44	C	0.972981	0.185816	0.000078
N45	N	0.949880	-0.128899	0.218792
N46	N	0.949978	-0.128869	-0.218616
C47	C	0.949946	-0.128879	0.592884
C48	C	0.857488	-0.206009	0.553712
C49	C	0.857562	-0.206290	0.446624
C50	C	0.949912	-0.128889	0.407293
C51	C	1.030753	-0.150354	0.446138
C52	C	1.030199	-0.150902	0.553259
C53	C	0.962411	-0.030055	0.553411
C54	C	0.960207	-0.030714	0.446283
C55	C	0.949900	-0.128892	0.302404
C56	C	0.949963	-0.128877	0.697772
H57	H	0.324537	-0.253822	-0.093734
H58	H	0.324869	-0.255570	0.090686
O59	O	1.028096	0.621507	0.000106
H60	H	1.060890	0.608035	-0.062528
H61	H	0.438988	0.016917	-0.062340
H62	H	0.439482	0.016717	0.063584
H63	H	0.466327	-0.259332	-0.087872
H64	H	0.896558	0.136675	0.000065
O65	O	0.367663	-0.132015	0.174350
H66	H	0.352309	-0.070921	0.155269
H67	H	1.237095	0.355673	0.000107
O68	O	0.526381	-0.138848	-0.174999
H69	H	0.593165	-0.079646	-0.157614
O70	O	0.811362	0.155645	0.000073
H71	H	0.838299	0.134581	-0.062568
O72	O	0.675158	0.234430	0.000060
H73	H	0.634344	0.277290	0.000063
H74	H	1.030186	0.027343	0.578741
O75	O	1.224688	0.507782	0.000109
H76	H	1.233372	0.582476	0.000109
O77	O	1.122426	-0.077922	0.412394
H78	H	1.157758	-0.114005	0.372441
H79	H	0.796509	-0.193501	0.420362
O80	O	0.888151	-0.002724	0.589234
H81	H	0.898466	0.067189	0.560411
H82	H	0.662750	0.386554	0.000060
H83	H	0.373421	-0.140399	-0.152971
O84	O	1.023071	-0.244738	0.410610
H85	H	0.961773	-0.276503	0.365297
H86	H	0.714137	0.564816	0.000090
H87	H	1.080988	0.560600	0.000092
H88	H	1.185723	0.177404	0.000089
O89	O	0.776242	-0.189370	0.587873
H90	H	0.800885	-0.125953	0.633140
H91	H	0.846390	-0.278932	0.580623
H92	H	0.846493	-0.279626	0.420991
O93	O	0.595977	0.026583	0.083154
H94	H	0.658056	0.088581	0.059716
H95	H	1.023777	-0.222974	0.578236
H96	H	1.099561	-0.096939	0.579169
O97	O	0.881641	-0.009124	0.412660
H98	H	0.842530	-0.001034	0.472877
O99	O	1.046668	0.048883	0.410850
H100	H	1.083821	0.019581	0.364693
H101	H	0.581905	0.014326	-0.062721
H102	H	0.513872	-0.145040	0.153464
H103	H	0.467486	-0.257528	0.091489
