data_functionalizedCrystal
_audit_creation_method	'MofGen! by Chris Wilmer'
_symmetry_space_group_name_H-M	'P1'
_symmetry_Int_Tables_number	1
_symmetry_cell_setting	triclinic
loop_
_symmetry_equiv_pos_as_xyz
  x,y,z
_cell_length_a	17.077404
_cell_length_b	16.959453
_cell_length_c	17.077396
_cell_angle_alpha	89.970102
_cell_angle_beta	89.983895
_cell_angle_gamma	90.017958
loop_
_atom_site_label
_atom_site_type_symbol
_atom_site_fract_x
_atom_site_fract_y
_atom_site_fract_z
Zn1	Zn	1.200053	-0.314718	-0.443816
Zn2	Zn	1.199972	-0.446908	-0.312548
Zn3	Zn	1.068790	-0.314742	-0.312566
Zn4	Zn	1.068759	-0.446854	-0.443775
O5	O	1.134394	-0.380805	-0.378176
O6	O	1.309889	-0.332265	-0.426413
O7	O	1.182549	-0.429408	-0.202704
O8	O	1.086249	-0.204128	-0.330001
O9	O	1.309829	-0.429385	-0.329971
O10	O	1.182687	-0.204110	-0.426430
O11	O	1.086170	-0.332307	-0.202717
O12	O	0.958939	-0.332255	-0.329962
O13	O	1.086197	-0.429293	-0.553627
O14	O	0.958917	-0.429316	-0.426360
O15	O	1.182658	-0.332213	-0.553657
O16	O	1.182519	-0.557511	-0.329931
O17	O	1.086118	-0.557472	-0.426342
C18	C	0.930446	-0.380783	-0.378159
C19	C	0.843196	-0.380792	-0.378170
C20	C	0.802237	-0.330312	-0.428463
C21	C	0.720257	-0.330317	-0.428467
C22	C	0.679236	-0.380807	-0.378180
C23	C	0.720201	-0.431289	-0.327881
C24	C	0.802180	-0.431280	-0.327874
C25	C	0.549331	-0.431307	-0.327900
C26	C	0.467346	-0.431318	-0.327908
C27	C	0.467408	-0.330345	-0.428494
C28	C	0.549387	-0.330335	-0.428487
C29	C	0.590345	-0.380819	-0.378188
C30	C	1.134328	-0.586172	-0.378147
C31	C	1.134372	-0.674028	-0.378161
C32	C	1.184673	-1.045436	-0.428481
C33	C	1.084333	-1.045572	-0.327988
C34	C	1.084304	-0.963026	-0.327970
C35	C	1.134459	-0.921681	-0.378209
C36	C	1.184644	-0.962882	-0.428466
C37	C	1.034115	-0.921818	-0.277719
C38	C	1.034083	-0.839267	-0.277699
C39	C	1.084243	-0.797921	-0.327935
C40	C	1.134430	-0.839128	-0.378194
C41	C	1.184586	-0.797783	-0.428434
C42	C	1.234778	-0.838988	-0.478689
C43	C	1.234804	-0.921536	-0.478702
C44	C	1.084216	-0.715373	-0.327922
C45	C	1.184556	-0.715229	-0.428419
C46	C	1.339138	-0.380828	-0.378194
C47	C	1.426388	-0.380838	-0.378202
C48	C	1.134433	-0.380744	-0.582921
C49	C	1.134450	-0.380718	-0.670170
C50	C	1.134481	-0.174637	-0.378222
C51	C	1.134518	-0.086781	-0.378242
C52	C	1.084281	-0.330151	-0.711167
C53	C	1.084293	-0.330133	-0.793147
C54	C	1.134480	-0.380679	-0.834130
C55	C	1.184651	-0.431251	-0.793128
C56	C	1.184634	-0.431272	-0.711149
C57	C	1.184685	-0.431202	-0.963998
C58	C	1.184704	-0.431179	-1.045983
C59	C	1.084345	-0.330063	-1.045996
C60	C	1.084327	-0.330084	-0.964017
C61	C	1.134500	-0.380655	-0.923021
C62	C	1.134399	-0.380809	-0.174228
C63	C	1.134535	-0.380613	-0.086979
H64	H	0.582676	-0.472414	-0.286940
O65	O	1.238806	-1.089876	-0.482681
H66	H	1.273679	-1.047255	-0.517608
H67	H	1.043495	-1.079239	-0.287088
H68	H	1.043465	-0.288922	-0.930652
O69	O	1.288879	-0.794390	-0.532868
H70	H	1.275390	-0.810191	-0.594469
O71	O	0.675956	-0.485743	-0.273640
H72	H	0.718213	-0.520837	-0.238660
O73	O	0.423104	-0.485768	-0.273662
H74	H	0.385743	-0.450333	-0.233803
H75	H	1.275667	-0.955093	-0.519618
O76	O	1.238808	-0.485740	-0.919780
H77	H	1.225332	-0.547772	-0.935500
O78	O	0.979953	-0.794832	-0.223493
H79	H	0.988354	-0.730485	-0.231923
H80	H	0.434056	-0.289238	-0.469447
H81	H	0.835527	-0.472385	-0.286919
H82	H	0.582784	-0.289227	-0.469439
H83	H	1.225402	-0.681572	-0.469327
H84	H	1.043438	-0.288960	-0.826523
H85	H	0.993279	-0.955487	-0.236819
H86	H	1.225510	-0.472410	-0.826502
O87	O	1.030092	-0.670931	-0.273720
H88	H	0.968482	-0.686809	-0.287127
H89	H	1.043417	-0.288987	-0.677805
H90	H	1.043493	-0.288885	-1.079380
H91	H	1.225493	-0.472443	-0.677771
O92	O	0.846481	-0.275850	-0.482697
H93	H	0.804223	-0.240743	-0.517662
O94	O	0.676077	-0.275871	-0.482711
H95	H	0.718374	-0.240767	-0.517684
H96	H	1.225570	-0.472338	-1.079348
