data_functionalizedCrystal
_audit_creation_method	'MofGen! by Chris Wilmer'
_symmetry_space_group_name_H-M	'P1'
_symmetry_Int_Tables_number	1
_symmetry_cell_setting	triclinic
loop_
_symmetry_equiv_pos_as_xyz
  x,y,z
_cell_length_a	11.792241
_cell_length_b	16.992694
_cell_length_c	16.053802
_cell_angle_alpha	87.240756
_cell_angle_beta	87.412995
_cell_angle_gamma	92.569181
loop_
_atom_site_label
_atom_site_type_symbol
_atom_site_fract_x
_atom_site_fract_y
_atom_site_fract_z
O1	O	-0.245225	1.038125	0.069310
O2	O	-0.242586	0.809827	0.069335
O3	O	-0.079188	0.929516	0.069327
O4	O	-0.408623	0.918436	0.069318
O5	O	-0.070223	0.936097	-0.069533
O6	O	-0.233620	0.816408	-0.069525
O7	O	-0.236260	1.044706	-0.069550
Zn8	Zn	-0.233517	0.931602	-0.091584
Zn9	Zn	-0.245329	0.922931	0.091369
O10	O	-0.399657	0.925017	-0.069542
C11	C	-0.234705	0.783890	-0.000092
C12	C	-0.224568	0.696803	-0.000082
C13	C	-0.322386	0.646978	-0.000085
C14	C	-0.312852	0.565152	-0.000096
C15	C	-0.205501	0.533151	-0.000098
C16	C	-0.107676	0.582982	-0.000098
C17	C	-0.117210	0.664807	-0.000092
C18	C	-0.165987	0.289386	-0.000120
C19	C	-0.156460	0.207554	-0.000123
C20	C	-0.361638	0.189730	-0.000123
C21	C	-0.371163	0.271557	-0.000112
C22	C	-0.273337	0.321381	-0.000116
N23	N	-0.195754	0.449511	-0.000107
N24	N	-0.283085	0.405020	-0.000113
C25	C	-0.446488	0.922423	-0.000113
C26	C	-0.572672	0.924506	-0.000117
C27	C	-0.803698	0.928336	-0.000096
C28	C	-0.675138	0.926208	-0.000108
C29	C	-0.032358	0.932110	-0.000100
C30	C	0.093825	0.930026	-0.000091
C31	C	-0.244140	1.070642	-0.000121
C32	C	-0.254278	1.157730	-0.000126
N33	N	-0.253382	0.917014	0.216230
N34	N	-0.225455	0.937525	-0.216445
C35	C	-0.184007	0.968041	0.259920
C36	C	-0.189638	0.963900	0.347327
C37	C	-0.264639	0.908728	0.391042
C38	C	-0.334022	0.857700	0.347346
C39	C	-0.328396	0.861845	0.259940
C40	C	-0.289211	0.890641	0.652453
C41	C	-0.294830	0.886498	0.739865
C42	C	-0.150447	0.992700	0.739840
C43	C	-0.144823	0.996837	0.652433
C44	C	-0.214210	0.945811	0.608744
N45	N	-0.270394	0.904493	0.480386
N46	N	-0.208460	0.950051	0.519402
H47	H	-0.392506	0.524587	-0.000098
O48	O	-0.122203	1.013273	0.389961
C49	C	-0.190491	1.059440	0.440760
H50	H	-0.278429	1.062703	0.414429
H51	H	-0.198592	1.031512	0.506890
C52	C	-0.027345	1.139185	0.474828
C53	C	-0.135349	1.143197	0.442484
H54	H	0.006670	1.190849	0.475895
H55	H	0.018663	1.108079	0.440607
H56	H	-0.034111	1.115907	0.529933
H57	H	-0.128580	1.166465	0.387376
H58	H	-0.181355	1.174309	0.476696
O59	O	-0.052209	0.176421	0.000018
C60	C	-0.045207	0.126191	0.071922
H61	H	-0.109528	0.143409	0.122192
H62	H	-0.064509	0.062555	0.055663
C63	C	0.154403	0.112875	0.042783
C64	C	0.075409	0.134028	0.104527
H65	H	0.228805	0.117706	0.062894
H66	H	0.149686	0.146714	-0.005663
H67	H	0.138304	0.059847	0.029239
H68	H	0.091500	0.187058	0.118062
H69	H	0.080132	0.100198	0.152976
O70	O	-0.426738	0.677961	0.000029
C71	C	-0.491449	0.649137	0.071953
H72	H	-0.456901	0.591122	0.095926
H73	H	-0.485848	0.694030	0.122315
C74	C	-0.658802	0.706628	0.020660
C75	C	-0.616376	0.635370	0.050099
H76	H	-0.735864	0.698140	0.007181
H77	H	-0.615205	0.726051	-0.027796
H78	H	-0.654125	0.744033	0.062633
H79	H	-0.621041	0.597971	0.008122
H80	H	-0.659976	0.615941	0.098547
O81	O	-0.022167	0.713170	0.000063
C82	C	0.037945	0.695168	0.071969
H83	H	-0.022702	0.665068	0.122232
H84	H	0.108496	0.654005	0.055708
C85	C	0.164717	0.808739	0.042849
C86	C	0.090228	0.771776	0.104586
H87	H	0.196972	0.855993	0.062967
H88	H	0.124222	0.820866	-0.005598
H89	H	0.223499	0.774428	0.029303
H90	H	0.031440	0.806082	0.118122
H91	H	0.130715	0.759656	0.153035
H92	H	-0.020267	0.556921	-0.000111
H93	H	-0.384890	0.820294	0.224368
H94	H	-0.086330	0.329944	-0.000123
O95	O	-0.475529	0.302512	-0.000152
C96	C	-0.559826	0.240987	-0.000137
H97	H	-0.521261	0.186522	-0.026429
H98	H	-0.594655	0.226377	0.066479
C99	C	-0.704318	0.333986	-0.022301
C100	C	-0.656954	0.267093	-0.054600
H101	H	-0.764234	0.350089	-0.055892
H102	H	-0.647527	0.375437	-0.022308
H103	H	-0.733333	0.321802	0.033213
H104	H	-0.627926	0.279280	-0.110108
H105	H	-0.713742	0.225644	-0.054603
O106	O	-0.083153	1.042221	0.782410
C107	C	-0.104166	1.026715	0.868930
H108	H	-0.192459	0.997117	0.880884
H109	H	-0.037791	0.986006	0.893720
C110	C	0.010933	1.141107	0.899124
C111	C	-0.097514	1.104760	0.913806
H112	H	0.015041	1.189247	0.926807
H113	H	0.025094	1.151552	0.840834
H114	H	0.066233	1.107174	0.919782
H115	H	-0.152811	1.138688	0.893139
H116	H	-0.111684	1.094322	0.972094
H117	H	-0.122929	1.012964	0.224333
O118	O	-0.071825	1.050405	0.610069
C119	C	0.040417	1.036317	0.631401
H120	H	0.039050	1.003072	0.694861
H121	H	0.082390	0.999524	0.582202
C122	C	0.109855	1.156368	0.557498
C123	C	0.108175	1.115542	0.635444
H124	H	0.151654	1.205237	0.559988
H125	H	0.034236	1.165859	0.543123
H126	H	0.144829	1.125698	0.516507
H127	H	0.073189	1.146207	0.676431
H128	H	0.183790	1.106058	0.649826
H129	H	-0.345707	0.849092	0.616888
H130	H	-0.355908	0.841567	0.775453
O131	O	-0.406941	0.804209	0.389901
C132	C	-0.484226	0.844011	0.440450
H133	H	-0.445629	0.904623	0.453537
H134	H	-0.566487	0.851179	0.406773
C135	C	-0.557071	0.721484	0.507406
C136	C	-0.509661	0.795926	0.523486
H137	H	-0.572766	0.691822	0.558626
H138	H	-0.505006	0.694667	0.473349
H139	H	-0.625616	0.727468	0.479341
H140	H	-0.441111	0.789941	0.551542
H141	H	-0.561716	0.822740	0.557551
O142	O	-0.456541	0.141221	-0.000163
C143	C	-0.425115	0.062136	-0.000147
H144	H	-0.333951	0.059869	-0.026433
H145	H	-0.431576	0.035325	0.066469
C146	C	-0.617176	0.017811	-0.022324
C147	C	-0.505210	0.015027	-0.054616
H148	H	-0.666584	-0.011250	-0.055920
H149	H	-0.638350	0.071091	-0.022332
H150	H	-0.622544	-0.004530	0.033189
H151	H	-0.499840	0.037376	-0.110124
H152	H	-0.484036	-0.038251	-0.054619
