data_functionalizedCrystal
_audit_creation_method	'MofGen! by Chris Wilmer'
_symmetry_space_group_name_H-M	'P1'
_symmetry_Int_Tables_number	1
_symmetry_cell_setting	triclinic
loop_
_symmetry_equiv_pos_as_xyz
  x,y,z
_cell_length_a	23.532355
_cell_length_b	22.010155
_cell_length_c	19.288857
_cell_angle_alpha	90.000355
_cell_angle_beta	82.980304
_cell_angle_gamma	90.008557
loop_
_atom_site_label
_atom_site_type_symbol
_atom_site_fract_x
_atom_site_fract_y
_atom_site_fract_z
O1	O	0.755460	0.050445	0.084139
O2	O	0.589618	0.050465	0.096377
O3	O	0.677333	0.050447	-0.010889
O4	O	0.667745	0.050463	0.191404
O5	O	0.677308	-0.050603	-0.010876
O6	O	0.589592	-0.050585	0.096389
O7	O	0.755435	-0.050605	0.084152
Cu8	Cu	0.672511	-0.059822	0.090272
Cu9	Cu	0.672541	0.059682	0.090257
O10	O	0.667719	-0.050587	0.191417
C11	C	0.568388	-0.000058	0.096077
C12	C	0.505167	-0.000050	0.095158
N13	N	0.672494	-0.143874	0.090282
C14	C	0.638098	-0.436478	0.048345
C15	C	0.638093	-0.372871	0.048348
O16	O	0.608826	-0.339973	0.012693
N17	N	0.672517	-0.341058	0.090260
C18	C	0.706952	-0.372857	0.132166
O19	O	0.736232	-0.339958	0.167816
C20	C	0.706960	-0.436464	0.132159
C21	C	0.672529	-0.468272	0.090249
C22	C	0.603671	-0.468287	0.006438
C23	C	0.603675	-0.531891	0.006436
C24	C	0.638107	-0.563685	0.048341
C25	C	0.672534	-0.531876	0.090247
C26	C	0.741398	-0.468261	0.174061
C27	C	0.741403	-0.531872	0.174050
C28	C	0.706972	-0.563681	0.132140
C29	C	0.706969	-0.627273	0.132150
N30	N	0.672546	-0.659085	0.090238
C31	C	0.638114	-0.627291	0.048333
C32	C	0.706934	-0.239279	0.132178
C33	C	0.706924	-0.175674	0.132189
C34	C	0.638065	-0.175692	0.048370
C35	C	0.638073	-0.239298	0.048362
C36	C	0.672510	-0.271092	0.090266
C37	C	0.638126	-0.760863	0.048333
C38	C	0.638131	-0.824471	0.048336
C39	C	0.706992	-0.824448	0.132153
C40	C	0.706984	-0.760845	0.132152
C41	C	0.672549	-0.729053	0.090236
O42	O	0.736223	-0.660212	0.167785
O43	O	0.608845	-0.660198	0.012683
C44	C	0.113128	-0.055159	0.089386
C45	C	0.053726	-0.055161	0.088511
O46	O	0.022995	-0.102006	0.088040
N47	N	0.024031	-0.000079	0.088070
C48	C	0.053741	0.055009	0.088497
O49	O	0.023028	0.101861	0.088041
C50	C	0.113141	0.055011	0.089367
C51	C	0.142833	-0.000075	0.089815
C52	C	0.142820	-0.110240	0.089833
C53	C	0.202216	-0.110238	0.090709
C54	C	0.231922	-0.055153	0.091138
C55	C	0.202230	-0.000072	0.090691
C56	C	0.142850	0.110099	0.089789
C57	C	0.202255	0.110096	0.090659
C58	C	0.231947	0.055010	0.091107
C59	C	0.291332	0.055015	0.091997
N60	N	0.321027	-0.000068	0.092437
C61	C	0.291322	-0.055152	0.092008
C62	C	-0.071005	0.055001	0.086669
C63	C	-0.130405	0.055000	0.085804
C64	C	-0.130415	-0.055171	0.085816
C65	C	-0.071014	-0.055169	0.086686
C66	C	-0.041309	-0.000081	0.087110
C67	C	0.416060	-0.055142	0.093849
C68	C	0.475462	-0.055134	0.094728
C69	C	0.475467	0.055036	0.094712
C70	C	0.416070	0.055029	0.093837
C71	C	0.386368	-0.000065	0.093403
O72	O	0.322101	0.101836	0.092465
O73	O	0.322043	-0.101995	0.092455
C74	C	0.776665	-0.000081	0.084451
C75	C	0.839885	-0.000084	0.085371
C76	C	0.677013	-0.000078	-0.036758
C77	C	0.676089	-0.000080	-0.113859
N78	N	0.672563	0.143734	0.090241
C79	C	0.675671	0.055003	-0.150075
C80	C	0.674795	0.055007	-0.222518
C81	C	0.674348	-0.000074	-0.258744
C82	C	0.674762	-0.055164	-0.222519
C83	C	0.675632	-0.055167	-0.150076
C84	C	0.706316	-0.042273	-0.379076
C85	C	0.705449	-0.042268	-0.451518
C86	C	0.671660	-0.000067	-0.482181
C87	C	0.638746	0.042139	-0.440394
C88	C	0.639616	0.042136	-0.367952
C89	C	0.673403	-0.000077	-0.337296
C90	C	0.670292	0.055025	-0.596948
C91	C	0.669412	0.055027	-0.669392
C92	C	0.669385	-0.055146	-0.669392
C93	C	0.670259	-0.055146	-0.596949
C94	C	0.670715	-0.000059	-0.560732
C95	C	0.668040	-0.000060	0.217286
C96	C	0.668964	-0.000055	0.294387
H97	H	0.610092	-0.850367	0.014209
Br98	Br	0.102570	0.184863	0.089181
Br99	Br	0.591396	-0.717727	-0.008557
H100	H	0.769447	-0.557754	0.208172
Br101	Br	0.750122	-0.099543	-0.508222
H102	H	-0.154611	-0.100023	0.085465
H103	H	0.676041	0.099859	-0.120591
Br104	Br	0.556931	-0.425150	-0.050435
Br105	Br	0.375771	0.129789	0.093243
H106	H	0.499663	0.099884	0.095065
Br107	Br	0.674226	0.129768	-0.271679
H108	H	0.612815	0.076501	-0.333932
H109	H	-0.154576	0.099857	0.085450
Br110	Br	0.674147	-0.129918	-0.271680
H111	H	0.734975	-0.265161	0.166307
Br112	Br	0.591345	-0.282461	-0.008517
Br113	Br	0.591336	-0.132531	-0.008502
Br114	Br	0.753713	-0.867609	0.189026
H115	H	0.391883	-0.100005	0.093502
Br116	Br	0.668839	0.129789	-0.718543
H117	H	0.734953	-0.149780	0.166325
Br118	Br	0.753719	-0.717674	0.189021
H119	H	0.675970	-0.100023	-0.120589
H120	H	0.499634	-0.099994	0.095095
Br121	Br	0.102516	-0.185008	0.089253
H122	H	0.769436	-0.442373	0.208187
H123	H	0.226387	-0.155094	0.091069
H124	H	0.670603	-0.100001	-0.567462
Br125	Br	0.752192	-0.099538	-0.337473
Br126	Br	-0.030724	-0.129931	0.087293
Br127	Br	0.592884	0.099415	-0.481998
H128	H	-0.046823	0.099863	0.087020
H129	H	0.670660	0.099880	-0.567458
Br130	Br	0.242566	0.184863	0.091230
H131	H	0.575641	-0.557784	-0.027694
Br132	Br	0.668771	-0.129900	-0.718548
