data_functionalizedCrystal
_audit_creation_method	'MofGen! by Chris Wilmer'
_symmetry_space_group_name_H-M	'P1'
_symmetry_Int_Tables_number	1
_symmetry_cell_setting	triclinic
loop_
_symmetry_equiv_pos_as_xyz
  x,y,z
_cell_length_a	25.639239
_cell_length_b	18.215407
_cell_length_c	18.215399
_cell_angle_alpha	89.982632
_cell_angle_beta	89.969965
_cell_angle_gamma	90.036130
loop_
_atom_site_label
_atom_site_type_symbol
_atom_site_fract_x
_atom_site_fract_y
_atom_site_fract_z
Zn1	Zn	-0.208192	1.125001	-0.416057
Zn2	Zn	0.291808	1.625001	0.083943
Zn3	Zn	-0.295628	1.124880	-0.292986
Zn4	Zn	0.204372	1.624880	0.207014
Zn5	Zn	-0.208204	1.001934	-0.293009
Zn6	Zn	0.291796	1.501934	0.206991
Zn7	Zn	-0.295594	1.001870	-0.416016
Zn8	Zn	0.204406	1.501870	0.083984
O9	O	-0.251905	1.063421	-0.354517
O10	O	0.248095	1.563421	0.145483
O11	O	-0.219799	1.227969	-0.399738
O12	O	0.280201	1.727969	0.100262
O13	O	-0.284050	1.108547	-0.190005
O14	O	0.215950	1.608547	0.309995
O15	O	-0.135037	1.018336	-0.309359
O16	O	0.364963	1.518336	0.190641
O17	O	-0.284038	1.227880	-0.309319
O18	O	0.215962	1.727880	0.190681
O19	O	-0.135028	1.108754	-0.399761
O20	O	0.364972	1.608754	0.100239
O21	O	-0.219821	1.018219	-0.190022
O22	O	0.280179	1.518219	0.309978
O23	O	-0.219788	0.898941	-0.309319
O24	O	0.280212	1.398941	0.190681
O25	O	-0.283981	1.018228	-0.519006
O26	O	0.216019	1.518228	-0.019006
O27	O	-0.283993	0.898894	-0.399692
O28	O	0.216007	1.398894	0.100308
O29	O	-0.219767	1.108692	-0.519036
O30	O	0.280233	1.608692	-0.019036
O31	O	-0.368789	1.108485	-0.309279
O32	O	0.131211	1.608485	0.190721
O33	O	-0.368764	1.018110	-0.399669
O34	O	0.131236	1.518110	0.100331
C35	C	-0.251888	0.872215	-0.354504
C36	C	0.248112	1.372215	0.145496
C37	C	-0.251894	0.790416	-0.354516
C38	C	0.248106	1.290416	0.145484
C39	C	-0.218514	0.602268	-0.401672
C40	C	0.281486	1.102268	0.098328
C41	C	-0.218518	0.525409	-0.401674
C42	C	0.281482	1.025409	0.098326
C43	C	-0.285310	0.525327	-0.307375
C44	C	0.214690	1.025327	0.192625
C45	C	-0.285302	0.602184	-0.307370
C46	C	0.214698	1.102184	0.192630
C47	C	-0.251905	0.640653	-0.354522
C48	C	0.248095	1.140653	0.145478
C49	C	-0.251917	0.486937	-0.354530
C50	C	0.248083	0.986937	0.145470
C51	C	-0.251922	0.403603	-0.354533
C52	C	0.248078	0.903603	0.145467
C53	C	-0.251899	0.723992	-0.354519
C54	C	0.248101	1.223992	0.145481
C55	C	-0.387747	1.063298	-0.354483
C56	C	0.112253	1.563298	0.145517
C57	C	-0.445861	1.063312	-0.354494
C58	C	0.054139	1.563312	0.145506
C59	C	-0.806224	1.110602	-0.307531
C60	C	-0.306224	1.610602	0.192469
C61	C	-0.860829	1.110631	-0.307541
C62	C	-0.360829	1.610631	0.192459
O63	O	-0.889066	1.150710	-0.267575
O64	O	-0.389066	1.650710	0.232425
N65	N	-0.888144	1.063551	-0.354566
N66	N	-0.388144	1.563551	0.145434
C67	C	-0.860851	1.016444	-0.401589
C68	C	-0.360851	1.516444	0.098411
O69	O	-0.889099	0.976402	-0.441589
O70	O	-0.389099	1.476402	0.058411
C71	C	-0.806248	1.016420	-0.401582
C72	C	-0.306248	1.516420	0.098418
C73	C	-0.778936	1.063498	-0.354549
C74	C	-0.278936	1.563498	0.145451
C75	C	-0.778912	1.157677	-0.260503
C76	C	-0.278912	1.657677	0.239497
C77	C	-0.724312	1.157647	-0.260492
C78	C	-0.224312	1.657647	0.239508
C79	C	-0.697023	1.110543	-0.307510
C80	C	-0.197023	1.610543	0.192490
C81	C	-0.724335	1.063468	-0.354539
C82	C	-0.224335	1.563468	0.145461
C83	C	-0.778957	0.969318	-0.448609
C84	C	-0.278957	1.469318	0.051391
C85	C	-0.724350	0.969298	-0.448598
C86	C	-0.224350	1.469298	0.051402
C87	C	-0.697038	1.016376	-0.401565
C88	C	-0.197038	1.516376	0.098435
C89	C	-0.642446	1.016334	-0.401546
C90	C	-0.142446	1.516334	0.098454
N91	N	-0.615132	1.063414	-0.354521
N92	N	-0.115132	1.563414	0.145479
C93	C	-0.642420	1.110519	-0.307503
C94	C	-0.142420	1.610519	0.192497
C95	C	-0.975522	1.016500	-0.401600
C96	C	-0.475522	1.516500	0.098400
C97	C	-1.030124	1.016520	-0.401604
C98	C	-0.530124	1.516520	0.098396
C99	C	-1.030098	1.110707	-0.307557
C100	C	-0.530098	1.610707	0.192443
C101	C	-0.975495	1.110683	-0.307550
C102	C	-0.475495	1.610683	0.192450
C103	C	-0.948207	1.063580	-0.354576
C104	C	-0.448207	1.563580	0.145424
C105	C	-0.527755	1.110452	-0.307484
C106	C	-0.027755	1.610452	0.192516
C107	C	-0.473150	1.110416	-0.307476
C108	C	0.026850	1.610416	0.192524
C109	C	-0.473181	1.016232	-0.401525
C110	C	0.026819	1.516232	0.098475
C111	C	-0.527781	1.016265	-0.401531
C112	C	-0.027781	1.516265	0.098469
C113	C	-0.555067	1.063381	-0.354508
C114	C	-0.055067	1.563381	0.145492
O115	O	-0.614175	0.976277	-0.441494
O116	O	-0.114175	1.476277	0.058506
O117	O	-0.614166	1.150561	-0.267517
O118	O	-0.114166	1.650561	0.232483
C119	C	-0.115532	1.063566	-0.354567
C120	C	0.384468	1.563566	0.145433
C121	C	-0.057417	1.063627	-0.354588
C122	C	0.442583	1.563627	0.145412
C123	C	-0.251869	1.063466	-0.546470
C124	C	0.248131	1.563466	-0.046470
C125	C	-0.251853	1.063485	-0.628269
C126	C	0.248147	1.563485	-0.128269
C127	C	-0.251921	1.255374	-0.354530
C128	C	0.248079	1.755374	0.145470
C129	C	-0.251928	1.337173	-0.354536
C130	C	0.248072	1.837173	0.145464
C131	C	-0.218386	1.110607	-0.816480
C132	C	0.281614	1.610607	-0.316480
C133	C	-0.218370	1.110616	-0.893339
C134	C	0.281630	1.610616	-0.393339
C135	C	-0.285240	1.016416	-0.893296
C136	C	0.214760	1.516416	-0.393296
C137	C	-0.285252	1.016404	-0.816439
C138	C	0.214748	1.516404	-0.316439
C139	C	-0.251826	1.063504	-0.778033
C140	C	0.248174	1.563504	-0.278033
C141	C	-0.251798	1.063524	-0.931749
C142	C	0.248202	1.563524	-0.431749
C143	C	-0.251782	1.063534	-1.015082
C144	C	0.248218	1.563534	-0.515082
C145	C	-0.251841	1.063494	-0.694694
C146	C	0.248159	1.563494	-0.194694
C147	C	-0.251903	1.063419	-0.163311
C148	C	0.248097	1.563419	0.336689
C149	C	-0.251771	1.063543	-0.081512
C150	C	0.248229	1.563543	0.418488
H151	H	-0.191327	0.494159	-0.440067
H152	H	0.308673	0.994159	0.059933
H153	H	-0.702078	1.195984	-0.222196
H154	H	-0.202078	1.695984	0.277804
H155	H	-0.191166	1.148956	-0.785212
H156	H	0.308834	1.648956	-0.285212
O157	O	-0.321332	0.483832	-0.256526
O158	O	0.178668	0.983832	0.243474
H159	H	-0.312308	0.498563	-0.198788
H160	H	0.187692	0.998563	0.301212
O161	O	-0.557245	0.965488	-0.452256
O162	O	-0.057245	1.465488	0.047744
H163	H	-0.529093	0.932731	-0.484950
H164	H	-0.029093	1.432731	0.015050
H165	H	-0.312494	0.633438	-0.268970
H166	H	0.187506	1.133438	0.231030
H167	H	-0.450914	1.148753	-0.269173
H168	H	0.049086	1.648753	0.230827
O169	O	-0.557182	1.161263	-0.256762
O170	O	-0.057182	1.661263	0.243238
H171	H	-0.529009	1.193982	-0.224057
H172	H	-0.029009	1.693982	0.275943
O173	O	-1.059581	0.965738	-0.452327
O174	O	-0.559581	1.465738	0.047673
H175	H	-1.031426	0.932985	-0.485020
H176	H	-0.531426	1.432985	0.014980
H177	H	-0.801125	1.196039	-0.222215
H178	H	-0.301125	1.696039	0.277785
H179	H	-0.953260	1.149018	-0.269252
H180	H	-0.453260	1.649018	0.230748
H181	H	-1.052326	1.149065	-0.269275
H182	H	-0.552326	1.649065	0.230725
H183	H	-0.953307	0.978136	-0.439892
H184	H	-0.453307	1.478136	0.060108
O185	O	-0.321316	0.965595	-0.774956
O186	O	0.178684	1.465595	-0.274956
H187	H	-0.297907	0.928177	-0.739954
H188	H	0.202093	1.428177	-0.239954
O189	O	-0.182486	0.643755	-0.452520
O190	O	0.317514	1.143755	0.047480
H191	H	-0.205914	0.678765	-0.489910
H192	H	0.294086	1.178765	0.010090
O193	O	-0.808407	0.918545	-0.499342
O194	O	-0.308407	1.418545	0.000658
H195	H	-0.780250	0.885799	-0.532038
H196	H	-0.280250	1.385799	-0.032038
O197	O	-0.694917	0.918483	-0.499311
O198	O	-0.194917	1.418483	0.000689
H199	H	-0.723086	0.885749	-0.532006
H200	H	-0.223086	1.385749	-0.032006
O201	O	-0.443744	0.965430	-0.452240
O202	O	0.056256	1.465430	0.047760
H203	H	-0.401187	0.973331	-0.444334
H204	H	0.098813	1.473331	0.055666
O205	O	-0.321294	0.965622	-0.934723
O206	O	0.178706	1.465622	-0.434723
H207	H	-0.312321	0.907871	-0.919970
H208	H	0.187679	1.407871	-0.419970
H209	H	-0.191139	1.148971	-0.924639
H210	H	0.308861	1.648971	-0.424639
