data_functionalizedCrystal
_audit_creation_method	'MofGen! by Chris Wilmer'
_symmetry_space_group_name_H-M	'P1'
_symmetry_Int_Tables_number	1
_symmetry_cell_setting	triclinic
loop_
_symmetry_equiv_pos_as_xyz
  x,y,z
_cell_length_a	15.995350
_cell_length_b	14.472310
_cell_length_c	14.519731
_cell_angle_alpha	90.002038
_cell_angle_beta	83.590614
_cell_angle_gamma	90.009379
loop_
_atom_site_label
_atom_site_type_symbol
_atom_site_fract_x
_atom_site_fract_y
_atom_site_fract_z
O1	O	1.111183	0.076765	0.118866
O2	O	0.867430	0.076784	0.133545
O3	O	0.995760	0.076765	-0.008044
O4	O	0.982853	0.076783	0.260454
O5	O	0.995727	-0.076917	-0.008035
O6	O	0.867397	-0.076898	0.133553
O7	O	1.111150	-0.076917	0.118874
Cu8	Cu	0.989271	-0.090940	0.126214
Cu9	Cu	0.989310	0.090807	0.126204
O10	O	0.982820	-0.076899	0.260462
C11	C	0.836218	-0.000055	0.132942
C12	C	0.743265	-0.000048	0.131123
N13	N	0.989249	-0.218771	0.126220
C14	C	0.405507	-0.000067	0.124589
C15	C	0.452783	-0.000417	0.023752
C16	C	0.549476	-0.000064	0.025572
C17	C	0.573073	-0.000058	0.127830
C18	C	0.532083	0.087702	0.177561
C19	C	0.435443	0.087769	0.175028
C20	C	0.435070	-0.086997	0.177121
C21	C	0.532015	-0.088150	0.177097
C22	C	0.667773	-0.000050	0.129667
C23	C	0.310807	-0.000069	0.122755
C24	C	0.989308	-0.592862	0.126201
C25	C	0.920411	-0.553686	0.201708
C26	C	0.920570	-0.446598	0.201983
C27	C	0.989278	-0.407271	0.126211
C28	C	1.076676	-0.446114	0.147227
C29	C	1.076289	-0.553235	0.147764
C30	C	0.971588	-0.553396	0.029453
C31	C	0.969585	-0.446269	0.030098
C32	C	0.989267	-0.302383	0.126214
C33	C	0.989326	-0.697750	0.126199
C34	C	1.142362	-0.000077	0.119477
C35	C	1.235315	-0.000078	0.121296
C36	C	0.995139	-0.000076	-0.042398
C37	C	0.993327	-0.000076	-0.144775
N38	N	0.989338	0.218638	0.126191
C39	C	0.991854	-0.000074	-0.227916
C40	C	0.990014	-0.000067	-0.332222
C41	C	0.988554	-0.000061	-0.415358
C42	C	0.986714	-0.000055	-0.519670
C43	C	0.983441	-0.000056	0.294816
C44	C	0.985254	-0.000049	0.397193
H45	H	0.434184	-0.063353	-0.016551
N46	N	1.034618	-0.585183	-0.041030
N47	N	1.092368	-0.636678	-0.020228
H48	H	1.136885	-0.659133	-0.069999
H49	H	0.577286	0.062951	-0.013791
H50	H	1.129176	-0.420637	0.093695
N51	N	0.893339	-0.587291	0.004118
N52	N	0.835955	-0.531980	-0.009420
H53	H	0.780687	-0.555914	-0.027305
H54	H	0.547496	-0.093446	0.251667
N55	N	0.549951	0.091831	0.271804
N56	N	0.522317	0.157287	0.322521
H57	H	0.534938	0.160204	0.389081
N58	N	0.567619	0.169626	0.134205
N59	N	0.521488	0.226260	0.098974
H60	H	0.546588	0.284115	0.068346
H61	H	0.403424	-0.087586	0.251467
H62	H	1.092637	-0.419273	0.216981
N63	N	1.095846	-0.584589	0.236270
N64	N	1.159127	-0.634068	0.241852
H65	H	1.172937	-0.656211	0.304362
N66	N	0.395141	0.092769	0.267902
N67	N	0.438413	0.096205	0.334381
H68	H	0.409954	0.099740	0.399973
H69	H	1.129167	-0.579148	0.094937
N70	N	0.838658	-0.586034	0.186250
N71	N	0.830215	-0.638343	0.119408
H72	H	0.772475	-0.661194	0.108488
H73	H	0.905294	-0.420882	0.014148
H74	H	1.016496	-0.419502	-0.028723
H75	H	0.931902	-0.420960	0.273778
H76	H	0.559260	-0.153074	0.140793
N77	N	0.585049	-0.078984	-0.023466
N78	N	0.563209	-0.158464	0.002973
H79	H	0.588328	-0.214202	-0.031667
N80	N	0.428127	0.078088	-0.026582
N81	N	0.375889	0.134293	0.011487
H82	H	0.358473	0.189738	-0.024059
H83	H	0.417092	0.153367	0.138755
H84	H	0.414468	-0.153516	0.144158
N85	N	0.838963	-0.413664	0.186725
N86	N	0.781495	-0.469795	0.175785
H87	H	0.723813	-0.446541	0.165181
H88	H	0.931587	-0.580592	0.273099
