data_functionalizedCrystal
_audit_creation_method	'MofGen! by Chris Wilmer'
_symmetry_space_group_name_H-M	'P1'
_symmetry_Int_Tables_number	1
_symmetry_cell_setting	triclinic
loop_
_symmetry_equiv_pos_as_xyz
  x,y,z
_cell_length_a	17.077404
_cell_length_b	16.959453
_cell_length_c	16.959447
_cell_angle_alpha	89.968936
_cell_angle_beta	89.984649
_cell_angle_gamma	90.020213
loop_
_atom_site_label
_atom_site_type_symbol
_atom_site_fract_x
_atom_site_fract_y
_atom_site_fract_z
Zn1	Zn	1.200038	-0.314661	-0.446926
Zn2	Zn	1.199962	-0.446854	-0.314746
Zn3	Zn	1.068780	-0.314694	-0.314761
Zn4	Zn	1.068745	-0.446802	-0.446882
O5	O	1.134381	-0.380753	-0.380829
O6	O	1.309875	-0.332205	-0.429404
O7	O	1.182542	-0.429357	-0.204137
O8	O	1.086238	-0.204078	-0.332318
O9	O	1.309819	-0.429326	-0.332292
O10	O	1.182673	-0.204055	-0.429419
O11	O	1.086164	-0.332260	-0.204148
O12	O	0.958928	-0.332210	-0.332276
O13	O	1.086179	-0.429238	-0.557499
O14	O	0.958902	-0.429270	-0.429344
O15	O	1.182639	-0.332155	-0.557531
O16	O	1.182509	-0.557458	-0.332249
O17	O	1.086104	-0.557420	-0.429329
C18	C	0.930433	-0.380738	-0.380807
C19	C	0.843183	-0.380751	-0.380817
C20	C	0.802200	-0.431366	-0.431279
C21	C	0.720220	-0.431368	-0.431292
C22	C	0.679224	-0.380758	-0.380837
C23	C	0.720213	-0.330137	-0.330373
C24	C	0.802192	-0.330132	-0.330365
C25	C	0.549343	-0.330153	-0.330392
C26	C	0.467358	-0.330159	-0.330398
C27	C	0.467371	-0.431389	-0.431319
C28	C	0.549350	-0.431384	-0.431311
C29	C	0.590333	-0.380764	-0.380845
C30	C	1.134316	-0.586119	-0.380800
C31	C	1.134359	-0.673976	-0.380814
C32	C	1.184659	-1.045380	-0.431485
C33	C	1.084322	-1.045522	-0.330291
C34	C	1.084293	-0.962976	-0.330272
C35	C	1.134447	-0.921628	-0.380862
C36	C	1.184630	-0.962827	-0.431470
C37	C	1.034105	-0.921772	-0.279671
C38	C	1.034074	-0.839221	-0.279652
C39	C	1.084232	-0.797872	-0.330238
C40	C	1.134418	-0.839075	-0.380847
C41	C	1.184572	-0.797727	-0.431437
C42	C	1.234762	-0.838929	-0.482043
C43	C	1.234788	-0.921478	-0.482056
C44	C	1.084206	-0.715323	-0.330224
C45	C	1.184542	-0.715174	-0.431422
C46	C	1.339125	-0.380768	-0.380851
C47	C	1.426375	-0.380774	-0.380861
C48	C	1.134414	-0.380687	-0.586997
C49	C	1.134428	-0.380659	-0.674854
C50	C	1.134468	-0.174584	-0.380875
C51	C	1.134505	-0.086728	-0.380895
C52	C	1.084299	-0.431123	-1.046315
C53	C	1.184744	-0.330029	-1.046344
C54	C	1.184723	-0.330046	-0.963798
C55	C	1.134490	-0.380603	-0.922507
C56	C	1.084278	-0.431143	-0.963762
C57	C	1.234940	-0.279512	-0.922537
C58	C	1.234922	-0.279528	-0.839986
C59	C	1.184684	-0.330081	-0.798694
C60	C	1.134469	-0.380623	-0.839954
C61	C	1.084236	-0.431179	-0.798662
C62	C	1.034017	-0.481718	-0.839921
C63	C	1.034040	-0.481696	-0.922469
C64	C	1.184661	-0.330103	-0.716145
C65	C	1.084215	-0.431199	-0.716109
C66	C	1.134394	-0.380761	-0.175463
C67	C	1.134532	-0.380566	-0.087607
H68	H	0.582708	-0.288926	-0.289304
H69	H	0.993271	-0.955443	-0.238486
Cl70	Cl	0.668675	-0.266507	-0.266949
Cl71	Cl	0.415850	-0.495014	-0.494773
H72	H	1.225387	-0.681513	-0.472616
H73	H	0.433981	-0.288938	-0.289323
H74	H	0.582727	-0.472599	-0.472391
H75	H	1.275842	-0.238357	-0.956163
Cl76	Cl	1.247754	-1.097174	-0.495098
Cl77	Cl	1.298051	-0.215993	-0.788126
H78	H	1.225551	-0.288957	-0.682556
H79	H	0.993207	-0.805679	-0.238445
H80	H	1.275650	-0.955031	-0.523258
H81	H	0.835574	-0.472582	-0.472363
H82	H	0.686855	-0.472585	-0.472383
Cl83	Cl	0.970873	-0.545276	-0.788002
Cl84	Cl	0.853713	-0.266497	-0.266925
H85	H	1.225646	-0.288873	-1.079968
Cl86	Cl	1.297802	-0.786940	-0.545646
H87	H	1.043486	-1.079192	-0.289106
H88	H	1.043409	-0.472267	-1.079912
H89	H	1.043338	-0.681780	-0.289025
H90	H	1.043302	-0.472362	-0.682495
H91	H	0.993157	-0.522844	-0.956069
