data_functionalizedCrystal
_audit_creation_method	'MofGen! by Chris Wilmer'
_symmetry_space_group_name_H-M	'P1'
_symmetry_Int_Tables_number	1
_symmetry_cell_setting	triclinic
loop_
_symmetry_equiv_pos_as_xyz
  x,y,z
_cell_length_a	15.944551
_cell_length_b	15.944551
_cell_length_c	15.021413
_cell_angle_alpha	90.002826
_cell_angle_beta	90.003065
_cell_angle_gamma	96.501262
loop_
_atom_site_label
_atom_site_type_symbol
_atom_site_fract_x
_atom_site_fract_y
_atom_site_fract_z
O1	O	0.108321	-1.114529	-0.073941
O2	O	0.121677	-0.869979	-0.073964
O3	O	-0.007276	-0.998932	-0.073944
O4	O	0.237274	-0.985576	-0.073961
O5	O	-0.007257	-0.998912	0.074121
O6	O	0.121695	-0.869959	0.074101
O7	O	0.108339	-1.114508	0.074123
Zn8	Zn	0.115020	-0.992230	0.097620
Zn9	Zn	0.114996	-0.992257	-0.097461
O10	O	0.237292	-0.985555	0.074103
C11	C	0.121132	-0.838675	0.000066
C12	C	0.119470	-0.745429	0.000057
N13	N	0.115036	-0.992218	0.230758
C14	C	-0.038561	-0.998367	0.000089
C15	C	-0.131807	-0.996705	0.000089
C16	C	-0.346663	-0.912801	0.000069
C17	C	-0.407672	-0.951753	0.073077
C18	C	-0.302533	-0.993698	0.000082
C19	C	-0.407673	-0.951792	-0.072903
C20	C	-0.467445	-0.990787	0.000071
C21	C	-0.362313	-1.032672	0.073150
C22	C	-0.362308	-1.032700	-0.072895
C23	C	-0.423298	-1.071711	0.000131
C24	C	-0.207530	-0.995372	0.000089
C25	C	-0.562446	-0.989119	0.000070
C26	C	0.268577	-0.986120	0.000069
C27	C	0.361823	-0.987782	0.000063
C28	C	0.108885	-1.145813	0.000092
C29	C	0.110547	-1.239059	0.000094
C30	C	0.035565	-0.530572	0.000081
C31	C	0.074518	-0.469562	-0.072926
C32	C	0.116462	-0.574703	0.000068
C33	C	0.074556	-0.469564	0.073054
C34	C	0.113551	-0.409790	0.000083
C35	C	0.155438	-0.514921	-0.072998
C36	C	0.155464	-0.514930	0.073047
C37	C	0.194476	-0.453937	0.000023
C38	C	0.118137	-0.669705	0.000059
C39	C	0.111883	-0.314789	0.000085
N40	N	0.114973	-0.992276	-0.230598
C41	C	0.174636	-0.932581	0.470432
C42	C	0.190943	-1.008481	0.529772
C43	C	0.115015	-0.992239	0.412365
C44	C	0.098727	-0.916360	0.529766
C45	C	0.114997	-0.992253	0.587789
C46	C	0.131360	-1.068178	0.470398
C47	C	0.039111	-0.976006	0.470387
C48	C	0.055386	-1.051962	0.529701
C49	C	0.115028	-0.992230	0.311307
C50	C	0.114984	-0.992271	0.688844
H51	H	-0.427772	-0.917528	0.134794
C52	C	0.203344	-0.629707	0.155019
C53	C	0.201628	-0.542108	0.156362
H54	H	0.231844	-0.646485	0.206457
H55	H	0.147214	-0.656996	0.154504
H56	H	0.232151	-0.645046	0.103189
H57	H	0.172815	-0.526769	0.208188
H58	H	0.257768	-0.514810	0.156885
H59	H	-0.342185	-1.066896	-0.134615
C60	C	-0.555589	-1.160178	-0.000581
C61	C	-0.468057	-1.162440	0.000159
H62	H	-0.583216	-1.216191	-0.000575
H63	H	-0.571819	-1.131255	0.050791
H64	H	-0.571095	-1.131565	-0.052472
H65	H	-0.452550	-1.191047	0.052054
H66	H	-0.451821	-1.191376	-0.051218
C67	C	0.223542	-1.144851	0.383537
C68	C	0.150109	-1.154827	0.435382
H69	H	0.235136	-1.198342	0.361932
H70	H	0.215747	-1.108682	0.334714
H71	H	0.269550	-1.120775	0.418810
H72	H	0.104100	-1.178897	0.400107
H73	H	0.157900	-1.191010	0.484212
C74	C	0.226473	-0.785249	0.466550
C75	C	0.242751	-0.864545	0.435290
H76	H	0.268528	-0.743252	0.444856
H77	H	0.172592	-0.773582	0.446211
H78	H	0.227272	-0.785133	0.529783
H79	H	0.241945	-0.864662	0.372056
H80	H	0.296645	-0.876215	0.455624
C81	C	0.004563	-1.199511	0.534491
C82	C	-0.012691	-1.120147	0.564624
H83	H	-0.037460	-1.241605	0.556058
H84	H	0.004507	-1.200175	0.471263
H85	H	0.058339	-1.210581	0.555729
H86	H	-0.066465	-1.109074	0.543380
H87	H	-0.012644	-1.119481	0.627864
C88	C	0.001253	-0.812138	0.533705
C89	C	0.080127	-0.829728	0.564971
H90	H	-0.010226	-0.758657	0.555442
H91	H	0.001645	-0.811356	0.470480
H92	H	-0.041155	-0.854468	0.554003
H93	H	0.122536	-0.787402	0.544668
H94	H	0.079741	-0.830505	0.628209
H95	H	-0.025051	-0.962240	0.444283
C96	C	0.339936	-0.964478	0.535085
C97	C	0.277583	-1.027034	0.564995
H98	H	0.393423	-0.975927	0.556834
H99	H	0.340725	-0.964101	0.471861
H100	H	0.327953	-0.910983	0.556291
H101	H	0.289563	-1.080529	0.543784
H102	H	0.276796	-1.027419	0.628233
C103	C	-0.358758	-1.036719	0.232877
C104	C	-0.335327	-1.078812	0.156570
H105	H	-0.342101	-1.065206	0.284375
H106	H	-0.331824	-0.980449	0.232660
H107	H	-0.418245	-1.035970	0.233353
H108	H	-0.275839	-1.079556	0.156090
H109	H	-0.362258	-1.135097	0.156787
H110	H	-0.427758	-0.917574	-0.134630
H111	H	0.189621	-0.534918	-0.134787
H112	H	-0.313356	-0.845652	0.000136
H113	H	0.040295	-0.449461	-0.134642
C114	C	-0.097245	-0.552823	-0.076559
C115	C	-0.055075	-0.575552	-0.000013
H116	H	-0.153198	-0.580600	-0.076621
H117	H	-0.098929	-0.493469	-0.077078
H118	H	-0.068212	-0.569000	-0.127889
H119	H	-0.084104	-0.559370	0.051318
H120	H	-0.053396	-0.634919	0.000515
H121	H	0.261683	-0.420779	-0.000023
C122	C	-0.054833	-0.481515	0.156229
C123	C	0.028362	-0.442437	0.156376
H124	H	-0.083352	-0.464772	0.207668
H125	H	-0.083019	-0.465218	0.104395
H126	H	-0.054546	-0.541059	0.156539
H127	H	0.028076	-0.382892	0.156059
H128	H	0.056555	-0.458728	0.208223
