data_functionalizedCrystal
_audit_creation_method	'MofGen! by Chris Wilmer'
_symmetry_space_group_name_H-M	'P1'
_symmetry_Int_Tables_number	1
_symmetry_cell_setting	triclinic
loop_
_symmetry_equiv_pos_as_xyz
  x,y,z
_cell_length_a	10.489741
_cell_length_b	14.044220
_cell_length_c	13.101039
_cell_angle_alpha	93.659868
_cell_angle_beta	93.396862
_cell_angle_gamma	91.135974
loop_
_atom_site_label
_atom_site_type_symbol
_atom_site_fract_x
_atom_site_fract_y
_atom_site_fract_z
O1	O	0.301301	-1.264971	-0.085104
O2	O	0.290194	-0.988928	-0.085130
O3	O	0.110787	-1.133230	-0.085110
O4	O	0.480707	-1.120668	-0.085124
O5	O	0.123682	-1.122877	0.085318
O6	O	0.303089	-0.978574	0.085298
O7	O	0.314196	-1.254618	0.085324
Zn8	Zn	0.310690	-1.114952	0.112370
Zn9	Zn	0.293700	-1.128593	-0.112176
O10	O	0.493603	-1.110315	0.085305
C11	C	0.291780	-0.948404	0.000081
C12	C	0.277280	-0.843079	0.000071
C13	C	0.069607	-1.127105	0.000103
C14	C	-0.072311	-1.124266	0.000101
C15	C	0.312609	-1.295142	0.000111
C16	C	0.327109	-1.400466	0.000114
C17	C	-0.149765	-1.032451	0.000085
C18	C	-0.231130	-1.070719	0.084119
C19	C	-0.243816	-1.080948	-0.083910
C20	C	-0.151801	-1.162568	0.084204
C21	C	-0.164485	-1.172789	-0.083900
C22	C	-0.245814	-1.211123	0.000155
C23	C	0.534783	-1.116441	0.000089
C24	C	0.676700	-1.119280	0.000084
N25	N	0.322285	-1.105649	0.265618
C26	C	0.250773	-0.650236	0.000092
C27	C	0.353611	-0.593304	0.000093
C28	C	0.338862	-0.486000	0.000105
C29	C	0.265520	-0.757551	0.000080
N30	N	0.282095	-1.137903	-0.265424
C31	C	0.338073	-1.092993	0.474659
C32	C	0.266311	-1.150557	0.525542
C33	C	0.275096	-1.143515	0.641860
C34	C	0.329290	-1.100034	0.358331
H35	H	-0.107764	-0.956955	0.000162
C36	C	-0.302239	-1.313185	0.000226
H37	H	-0.270472	-1.342011	0.059975
H38	H	-0.278340	-1.349638	-0.058896
H39	H	-0.392726	-1.310864	-0.000333
C40	C	0.429951	-1.019256	0.533809
H41	H	0.473811	-0.984051	0.486590
H42	H	0.490030	-1.051301	0.575676
H43	H	0.382673	-0.976905	0.575651
H44	H	-0.111651	-1.197063	0.155329
H45	H	-0.134879	-1.215921	-0.154942
C46	C	0.174407	-1.224285	0.466392
H47	H	0.130533	-1.259474	0.513615
H48	H	0.221651	-1.266639	0.424535
H49	H	0.114322	-1.192220	0.424539
H50	H	-0.260706	-1.027554	0.155157
H51	H	-0.284097	-1.046404	-0.154961
H52	H	0.452730	-0.625153	0.000084
H53	H	0.151662	-0.618389	0.000101
