data_functionalizedCrystal
_audit_creation_method	'MofGen! by Chris Wilmer'
_symmetry_space_group_name_H-M	'P1'
_symmetry_Int_Tables_number	1
_symmetry_cell_setting	triclinic
loop_
_symmetry_equiv_pos_as_xyz
  x,y,z
_cell_length_a	10.489741
_cell_length_b	17.699083
_cell_length_c	16.176319
_cell_angle_alpha	89.995661
_cell_angle_beta	90.003298
_cell_angle_gamma	96.088906
loop_
_atom_site_label
_atom_site_type_symbol
_atom_site_fract_x
_atom_site_fract_y
_atom_site_fract_z
O1	O	1.692073	-0.106779	0.068697
O2	O	1.320691	-0.116802	0.068710
O3	O	1.516874	-0.001669	0.068696
O4	O	1.495889	-0.221911	0.068711
O5	O	1.516851	-0.001669	-0.068797
O6	O	1.320668	-0.116801	-0.068783
O7	O	1.692050	-0.106778	-0.068796
Cu8	Cu	1.506357	-0.111790	-0.081344
Cu9	Cu	1.506384	-0.111790	0.081258
O10	O	1.495866	-0.221910	-0.068782
C11	C	1.273162	-0.116044	-0.000035
C12	C	1.131574	-0.113779	-0.000030
C13	C	1.516111	0.026533	-0.000051
C14	C	1.513855	0.110565	-0.000051
N15	N	1.506347	-0.111789	-0.195709
C16	C	1.064795	-0.040524	-0.000043
C17	C	0.972037	-0.075130	0.067749
C18	C	0.972048	-0.075147	-0.067808
C19	C	1.040681	-0.148415	0.067818
C20	C	1.040701	-0.148422	-0.067800
C21	C	0.947970	-0.183080	0.000008
C22	C	1.739579	-0.107535	-0.000049
C23	C	1.881166	-0.109800	-0.000048
C24	C	1.496630	-0.250112	-0.000033
C25	C	1.498886	-0.334145	-0.000028
C26	C	1.629011	0.158433	-0.000056
C27	C	1.626883	0.237390	-0.000049
C28	C	1.509599	0.268478	-0.000042
C29	C	1.394435	0.220605	-0.000034
C30	C	1.396563	0.141649	-0.000036
C31	C	1.385848	0.539024	-0.000027
C32	C	1.383729	0.617986	-0.000028
C33	C	1.616168	0.634765	-0.000040
C34	C	1.618297	0.555810	-0.000042
C35	C	1.503133	0.507943	-0.000030
C36	C	1.505441	0.422328	-0.000036
C37	C	1.507290	0.354091	-0.000041
C38	C	1.583554	-0.158142	-0.238969
C39	C	1.583568	-0.158140	-0.325516
C40	C	1.506367	-0.111787	-0.368801
C41	C	1.429156	-0.065428	-0.325535
C42	C	1.429150	-0.065427	-0.238990
C43	C	1.429180	-0.065429	-0.674564
C44	C	1.429189	-0.065435	-0.761115
C45	C	1.583597	-0.158141	-0.761090
C46	C	1.583591	-0.158141	-0.674544
C47	C	1.506387	-0.111779	-0.631286
C48	C	1.506375	-0.111782	-0.537441
C49	C	1.506371	-0.111788	-0.462644
N50	N	1.506404	-0.111785	0.195623
H51	H	0.941608	-0.044134	0.125059
C52	C	1.081131	-0.189834	-0.144191
C53	C	1.019608	-0.264009	-0.144713
C54	C	1.056812	-0.302171	-0.215083
H55	H	1.171345	-0.191460	-0.143430
H56	H	1.057862	-0.163782	-0.192339
H57	H	1.042886	-0.290055	-0.096577
H58	H	0.929394	-0.262406	-0.145486
H59	H	1.033543	-0.276119	-0.263231
H60	H	1.147027	-0.303791	-0.214316
H61	H	1.015066	-0.352500	-0.215450
C62	C	1.345443	-0.015151	-0.627455
C63	C	1.361961	-0.025061	-0.542397
C64	C	1.284832	0.021239	-0.498971
H65	H	1.258100	-0.028686	-0.641558
H66	H	1.369281	0.036520	-0.641583
H67	H	1.338115	-0.076722	-0.528274
H68	H	1.449288	-0.011521	-0.528269
H69	H	1.308670	0.072911	-0.513100
H70	H	1.197494	0.007700	-0.513081
H71	H	1.296038	0.014526	-0.441255
C72	C	1.667477	-0.208553	-0.807908
C73	C	1.735054	-0.249162	-0.751475
C74	C	1.812318	-0.295616	-0.794572
H75	H	1.726386	-0.177961	-0.841670
H76	H	1.615130	-0.243122	-0.841654
H77	H	1.787398	-0.214597	-0.717744
H78	H	1.676178	-0.279769	-0.717712
H79	H	1.759971	-0.330185	-0.828317
H80	H	1.871219	-0.265018	-0.828331
H81	H	1.858169	-0.323180	-0.756289
C82	C	1.267001	0.254250	-0.000153
C83	C	1.197372	0.229967	-0.070875
C84	C	1.079964	0.260934	-0.071008
H85	H	1.282039	0.308127	-0.000197
H86	H	1.219539	0.237836	0.047772
H87	H	1.244823	0.246385	-0.118788
H88	H	1.182300	0.176094	-0.070846
H89	H	1.032502	0.244521	-0.023083
H90	H	1.095015	0.314811	-0.071050
H91	H	1.032701	0.244458	-0.118988
C92	C	1.345184	-0.015076	-0.192168
C93	C	1.277548	0.025503	-0.248597
C94	C	1.200176	0.071890	-0.205496
H95	H	1.397423	0.019517	-0.158404
H96	H	1.286318	-0.045735	-0.158424
H97	H	1.336407	0.056160	-0.282326
H98	H	1.225284	-0.009071	-0.282362
H99	H	1.141310	0.041231	-0.171752
H100	H	1.252425	0.106478	-0.171733
H101	H	1.154267	0.099423	-0.243776
C102	C	1.080863	-0.189621	0.144431
C103	C	1.045244	-0.151387	0.215159
C104	C	1.082227	-0.189326	0.285749
H105	H	1.171182	-0.190806	0.144099
H106	H	1.039769	-0.240109	0.144676
H107	H	1.086341	-0.100913	0.214914
H108	H	0.954931	-0.150200	0.215518
H109	H	1.041133	-0.239814	0.285994
H110	H	1.172545	-0.190509	0.285409
H111	H	1.058054	-0.163394	0.333746
C112	C	1.745597	0.522015	-0.000216
C113	C	1.753615	0.477196	-0.070963
C114	C	1.870874	0.446061	-0.071153
H115	H	1.751387	0.491507	0.047675
H116	H	1.813916	0.561810	-0.000261
H117	H	1.685315	0.437405	-0.070911
H118	H	1.747848	0.507686	-0.118866
H119	H	1.939192	0.485857	-0.071198
H120	H	1.876653	0.415557	-0.023259
H121	H	1.876335	0.415654	-0.119158
C122	C	0.931447	-0.033678	-0.144132
C123	C	0.870269	0.029311	-0.119891
C124	C	0.832868	0.067540	-0.190172
H125	H	0.874080	-0.067001	-0.176111
H126	H	1.004956	-0.017138	-0.176265
H127	H	0.796769	0.012770	-0.087772
H128	H	0.927612	0.062651	-0.087921
H129	H	0.906378	0.084080	-0.222305
H130	H	0.775505	0.034212	-0.222147
H131	H	0.791366	0.110286	-0.173735
H132	H	1.724517	0.133128	-0.000066
C133	C	1.256254	0.651594	0.000029
C134	C	1.155852	0.592776	0.000064
C135	C	1.038412	0.623707	0.000127
H136	H	1.250395	0.682038	-0.047904
H137	H	1.250545	0.682023	0.047996
H138	H	1.161557	0.562359	-0.047898
H139	H	1.161668	0.562327	0.047994
H140	H	1.032704	0.654136	0.048094
H141	H	1.032568	0.654151	-0.047807
H142	H	0.970276	0.583804	0.000159
C143	C	1.132446	0.039796	0.000213
C144	C	1.097876	0.077798	0.071360
C145	C	1.160190	0.151782	0.071635
H146	H	1.108025	0.066181	-0.047402
H147	H	1.222599	0.037817	-0.000230
H148	H	1.007743	0.079780	0.071796
H149	H	1.122299	0.051436	0.118987
H150	H	1.250342	0.149804	0.071192
H151	H	1.135764	0.178160	0.024017
H152	H	1.136752	0.177574	0.119911
H153	H	1.302792	0.102675	-0.000031
H154	H	1.366319	-0.027686	-0.796356
C155	C	1.752013	0.289268	0.000070
C156	C	1.822681	0.275100	0.070789
C157	C	1.937971	0.322867	0.070921
H158	H	1.734140	0.340769	0.000118
H159	H	1.800168	0.279767	-0.047858
H160	H	1.774536	0.284607	0.118704
H161	H	1.840588	0.223608	0.070756
H162	H	1.986127	0.313365	0.022994
H163	H	1.920086	0.374365	0.070967
H164	H	1.985939	0.313256	0.118899
C165	C	1.260853	0.487027	0.000150
C166	C	1.255271	0.441220	0.070900
C167	C	1.140130	0.393316	0.071097
H168	H	1.256712	0.455808	-0.047739
H169	H	1.190670	0.516829	0.000196
H170	H	1.325435	0.411420	0.070847
H171	H	1.259390	0.472419	0.118801
H172	H	1.069947	0.423119	0.071143
H173	H	1.135999	0.362102	0.023205
H174	H	1.136322	0.362235	0.119103
H175	H	0.897426	-0.243364	0.000049
C176	C	1.667427	-0.208554	-0.372335
C177	C	1.735000	-0.249167	-0.315904
C178	C	1.812253	-0.295626	-0.359002
H179	H	1.726337	-0.177965	-0.406098
H180	H	1.615071	-0.243121	-0.406079
H181	H	1.787351	-0.214604	-0.282174
H182	H	1.676122	-0.279770	-0.282139
H183	H	1.759898	-0.330193	-0.392746
H184	H	1.871156	-0.265031	-0.392763
H185	H	1.858102	-0.323193	-0.320720
H186	H	1.709940	0.673748	-0.000046
H187	H	1.646413	-0.195893	-0.203732
H188	H	1.646452	-0.195889	-0.639305
H189	H	1.366304	-0.027682	-0.360785
