data_functionalizedCrystal
_audit_creation_method	'MofGen! by Chris Wilmer'
_symmetry_space_group_name_H-M	'P1'
_symmetry_Int_Tables_number	1
_symmetry_cell_setting	triclinic
loop_
_symmetry_equiv_pos_as_xyz
  x,y,z
_cell_length_a	12.759401
_cell_length_b	29.839131
_cell_length_c	12.759393
_cell_angle_alpha	89.963184
_cell_angle_beta	89.979062
_cell_angle_gamma	90.042945
loop_
_atom_site_label
_atom_site_type_symbol
_atom_site_fract_x
_atom_site_fract_y
_atom_site_fract_z
Zn1	Zn	1.606071	-0.178813	-0.593974
Zn2	Zn	2.106071	0.321187	-0.093974
Zn3	Zn	1.605880	-0.253950	-0.418275
Zn4	Zn	2.105880	0.246050	0.081725
Zn5	Zn	1.430370	-0.178837	-0.418309
Zn6	Zn	1.930370	0.321163	0.081691
Zn7	Zn	1.430280	-0.253919	-0.593912
Zn8	Zn	1.930280	0.246081	-0.093912
O9	O	1.518150	-0.216380	-0.506117
O10	O	2.018150	0.283620	-0.006117
O11	O	1.753067	-0.188784	-0.570679
O12	O	2.253067	0.311216	-0.070679
O13	O	1.582556	-0.244010	-0.271258
O14	O	2.082556	0.255990	0.228742
O15	O	1.453795	-0.115967	-0.441652
O16	O	1.953795	0.384033	0.058348
O17	O	1.752927	-0.243986	-0.441593
O18	O	2.252927	0.256014	0.058407
O19	O	1.582882	-0.115949	-0.570712
O20	O	2.082882	0.384051	-0.070712
O21	O	1.453610	-0.188824	-0.271283
O22	O	1.953610	0.311176	0.228717
O23	O	1.283337	-0.188794	-0.441592
O24	O	1.783337	0.311206	0.058408
O25	O	1.453641	-0.243933	-0.740941
O26	O	1.953641	0.256067	-0.240941
O27	O	1.283271	-0.243956	-0.570606
O28	O	1.783271	0.256044	-0.070606
O29	O	1.582794	-0.188753	-0.740987
O30	O	2.082794	0.311247	-0.240987
O31	O	1.582469	-0.316813	-0.441533
O32	O	2.082469	0.183187	0.058467
O33	O	1.453456	-0.316790	-0.570573
O34	O	1.953456	0.183210	-0.070573
C35	C	1.245183	-0.216375	-0.506097
C36	C	1.745183	0.283625	-0.006097
C37	C	1.128406	-0.216383	-0.506113
C38	C	1.628406	0.283617	-0.006113
C39	C	1.073538	-0.245150	-0.573185
C40	C	1.573538	0.254850	-0.073185
C41	C	0.963813	-0.245151	-0.573206
C42	C	1.463813	0.254849	-0.073206
C43	C	0.963837	-0.187618	-0.439073
C44	C	1.463837	0.312382	0.060927
C45	C	1.073559	-0.187615	-0.439058
C46	C	1.573559	0.312385	0.060942
C47	C	1.517961	-0.333103	-0.506065
C48	C	2.017961	0.166897	-0.006065
C49	C	1.517976	-0.383037	-0.506078
C50	C	2.017976	0.116963	-0.006078
C51	C	1.585450	-0.692680	-0.439024
C52	C	2.085450	-0.192680	0.060976
C53	C	1.585579	-0.880353	-0.439065
C54	C	2.085579	-0.380353	0.060935
O55	O	1.642798	-0.904617	-0.382014
O56	O	2.142798	-0.404617	0.117986
N57	N	1.518368	-0.903822	-0.506197
N58	N	2.018368	-0.403822	-0.006197
C59	C	1.451125	-0.880370	-0.573327
C60	C	1.951125	-0.380370	-0.073327
O61	O	1.393969	-0.904638	-0.630435
O62	O	1.893969	-0.404638	-0.130435
C63	C	1.451001	-0.692698	-0.573291
C64	C	1.951001	-0.192698	-0.073291
C65	C	1.518209	-0.669231	-0.506148
C66	C	2.018209	-0.169231	-0.006148
C67	C	1.652653	-0.669213	-0.371888
C68	C	2.152653	-0.169213	0.128112
C69	C	1.652616	-0.622297	-0.371874
C70	C	2.152616	-0.122297	0.128126
C71	C	1.585375	-0.598849	-0.438997
C72	C	2.085375	-0.098849	0.061003
C73	C	1.518172	-0.622316	-0.506134
C74	C	2.018172	-0.122316	-0.006134
C75	C	1.383764	-0.669247	-0.640427
C76	C	1.883764	-0.169247	-0.140427
C77	C	1.383741	-0.622326	-0.640413
C78	C	1.883741	-0.122326	-0.140413
C79	C	1.450949	-0.598859	-0.573270
C80	C	1.950949	-0.098859	-0.073270
C81	C	1.450895	-0.551952	-0.573244
C82	C	1.950895	-0.051952	-0.073244
N83	N	1.518106	-0.528482	-0.506113
N84	N	2.018106	-0.028482	-0.006113
C85	C	1.585346	-0.551931	-0.438989
C86	C	2.085346	-0.051931	0.061011
C87	C	1.451193	-0.978901	-0.573340
C88	C	1.951193	-0.478901	-0.073340
C89	C	1.451223	-1.025819	-0.573348
C90	C	1.951223	-0.525819	-0.073348
C91	C	1.585679	-1.025798	-0.439087
C92	C	2.085679	-0.525798	0.060913
C93	C	1.585643	-0.978879	-0.439075
C94	C	2.085643	-0.478879	0.060925
C95	C	1.518404	-0.955431	-0.506209
C96	C	2.018404	-0.455431	-0.006209
C97	C	1.585262	-0.453405	-0.438965
C98	C	2.085262	0.046595	0.061035
C99	C	1.585216	-0.406486	-0.438955
C100	C	2.085216	0.093514	0.061045
C101	C	1.450764	-0.406510	-0.573219
C102	C	1.950764	0.093490	-0.073219
C103	C	1.450806	-0.453426	-0.573226
C104	C	1.950806	0.046574	-0.073226
C105	C	1.518064	-0.476872	-0.506096
C106	C	2.018064	0.023128	-0.006096
O107	O	1.393715	-0.527659	-0.630274
O108	O	1.893715	-0.027659	-0.130274
O109	O	1.642510	-0.527655	-0.381907
O110	O	2.142510	-0.027655	0.118093
C111	C	1.585487	-0.739595	-0.439038
C112	C	2.085487	-0.239595	0.060962
C113	C	1.518284	-0.763062	-0.506175
C114	C	2.018284	-0.263062	-0.006175
C115	C	1.451043	-0.739613	-0.573298
C116	C	1.951043	-0.239613	-0.073298
C117	C	1.518313	-0.809980	-0.506183
C118	C	2.018313	-0.309980	-0.006183
C119	C	1.585553	-0.833428	-0.439060
C120	C	2.085553	-0.333428	0.060940
C121	C	1.652764	-0.809959	-0.371928
C122	C	2.152764	-0.309959	0.128072
C123	C	1.652727	-0.763044	-0.371915
C124	C	2.152727	-0.263044	0.128085
C125	C	1.383832	-0.763083	-0.640430
C126	C	1.883832	-0.263083	-0.140430
C127	C	1.383874	-0.809998	-0.640437
C128	C	1.883874	-0.309998	-0.140437
C129	C	1.451114	-0.833447	-0.573314
C130	C	1.951114	-0.333447	-0.073314
C131	C	1.792184	-0.216386	-0.506139
C132	C	2.292184	0.283614	-0.006139
C133	C	1.908960	-0.216388	-0.506148
C134	C	2.408960	0.283612	-0.006148
C135	C	1.518229	-0.216337	-0.780151
C136	C	2.018229	0.283663	-0.280151
C137	C	1.518263	-0.216318	-0.896928
C138	C	2.018263	0.283682	-0.396928
C139	C	1.518370	-0.099202	-0.506193
C140	C	2.018370	0.400798	-0.006193
C141	C	1.518463	-0.049267	-0.506225
C142	C	2.018463	0.450733	-0.006225
C143	C	1.585518	-0.187582	-0.951815
C144	C	2.085518	0.312418	-0.451815
C145	C	1.585535	-0.187562	-1.061539
C146	C	2.085535	0.312438	-0.561539
C147	C	1.451040	-0.245020	-1.061479
C148	C	1.951040	0.254980	-0.561479
C149	C	1.451018	-0.245037	-0.951757
C150	C	1.951018	0.254963	-0.451757
C151	C	1.518133	-0.216391	-0.233150
C152	C	2.018133	0.283609	0.266850
C153	C	1.518303	-0.216282	-0.116374
C154	C	2.018303	0.283718	0.383626
H155	H	1.118191	-0.268573	-0.627787
H156	H	1.618191	0.231427	-0.127787
H157	H	1.396015	-0.387411	-0.627867
H158	H	1.896015	0.112589	-0.127867
H159	H	1.640270	-0.164196	-0.907176
H160	H	2.140270	0.335804	-0.407176
C161	C	1.659521	-0.155954	-1.121911
C162	C	2.159521	0.344046	-0.621911
H163	H	1.699569	-0.138856	-1.073539
H164	H	2.199569	0.361144	-0.573539
H165	H	1.619383	-0.136370	-1.164720
H166	H	2.119383	0.363630	-0.664720
H167	H	1.705275	-0.173138	-1.164709
H168	H	2.205275	0.326862	-0.664709
C169	C	0.903506	-0.155978	-0.365312
C170	C	1.403506	0.344022	0.134688
H171	H	0.951902	-0.138842	-0.325371
H172	H	1.451902	0.361158	0.174629
H173	H	0.860654	-0.173140	-0.319466
H174	H	1.360654	0.326860	0.180534
H175	H	0.860756	-0.136424	-0.405599
H176	H	1.360756	0.363576	0.094401
C177	C	0.903462	-0.276794	-0.646987
C178	C	1.403462	0.223206	-0.146987
H179	H	0.951845	-0.293927	-0.686914
H180	H	1.451845	0.206073	-0.186914
H181	H	0.860714	-0.259633	-0.692846
H182	H	1.360714	0.240367	-0.192846
H183	H	0.860605	-0.296351	-0.606717
H184	H	1.360605	0.203649	-0.106717
H185	H	1.396243	-0.268438	-0.907066
H186	H	1.896243	0.231562	-0.407066
H187	H	1.118234	-0.164187	-0.384440
H188	H	1.618234	0.335813	0.115560
H189	H	1.396294	-0.268403	-1.106134
H190	H	1.896294	0.231597	-0.606134
H191	H	1.396485	-1.044921	-0.628013
H192	H	1.896485	-0.544921	-0.128013
H193	H	1.639945	-0.387380	-0.384275
H194	H	2.139945	0.112620	0.115725
C195	C	1.309942	-0.835807	-0.714302
C196	C	1.809942	-0.335807	-0.214302
H197	H	1.269903	-0.815118	-0.754280
H198	H	1.769903	-0.315118	-0.254280
H199	H	1.264194	-0.854146	-0.674091
H200	H	1.764194	-0.354146	-0.174091
H201	H	1.350134	-0.854072	-0.760125
H202	H	1.850134	-0.354072	-0.260125
C203	C	1.659235	-0.479190	-0.365116
C204	C	2.159235	0.020810	0.134884
H205	H	1.699241	-0.458489	-0.325128
H206	H	2.199241	0.041511	0.174872
H207	H	1.705013	-0.497460	-0.405338
H208	H	2.205013	0.002540	0.094662
H209	H	1.619075	-0.497523	-0.319302
H210	H	2.119075	0.002477	0.180698
H211	H	1.707345	-0.603193	-0.317203
H212	H	2.207345	-0.103193	0.182797
C213	C	1.726618	-0.694999	-0.298039
C214	C	2.226618	-0.194999	0.201961
H215	H	1.766625	-0.674297	-0.258055
H216	H	2.266625	-0.174297	0.241945
H217	H	1.772394	-0.713272	-0.338256
H218	H	2.272394	-0.213272	0.161744
H219	H	1.686455	-0.713330	-0.252221
H220	H	2.186455	-0.213330	0.247779
H221	H	1.707454	-0.743940	-0.317241
H222	H	2.207454	-0.243940	0.182759
H223	H	1.640370	-0.959775	-0.384402
H224	H	2.140370	-0.459775	0.115598
C225	C	1.659638	-1.051597	-0.365250
C226	C	2.159638	-0.551597	0.134750
H227	H	1.650027	-1.082900	-0.374881
H228	H	2.150027	-0.582900	0.125119
H229	H	1.644301	-1.043938	-0.294642
H230	H	2.144301	-0.543938	0.205358
H231	H	1.730222	-1.043876	-0.380696
H232	H	2.230222	-0.543876	0.119304
H233	H	1.329031	-0.688346	-0.695097
H234	H	1.829031	-0.188346	-0.195097
C235	C	1.377214	-0.953114	-0.647181
C236	C	1.877214	-0.453114	-0.147181
H237	H	1.337187	-0.973815	-0.687149
H238	H	1.837187	-0.473815	-0.187149
H239	H	1.417353	-0.934778	-0.693000
H240	H	1.917353	-0.434778	-0.193000
H241	H	1.331441	-0.934846	-0.606939
H242	H	1.831441	-0.434846	-0.106939
H243	H	1.396083	-0.472534	-0.627903
H244	H	1.896083	0.027466	-0.127903
C245	C	1.309777	-0.596536	-0.714264
C246	C	1.809777	-0.096536	-0.214264
H247	H	1.269756	-0.617235	-0.754244
H248	H	1.769756	-0.117235	-0.254244
H249	H	1.349930	-0.578200	-0.760070
H250	H	1.849930	-0.078200	-0.260070
H251	H	1.263997	-0.578268	-0.674029
H252	H	1.763997	-0.078268	-0.174029
H253	H	1.707511	-0.829059	-0.317271
H254	H	2.207511	-0.329059	0.182729
H255	H	1.329078	-0.743995	-0.695091
H256	H	1.829078	-0.243995	-0.195091
