data_functionalizedCrystal
_audit_creation_method	'MofGen! by Chris Wilmer'
_symmetry_space_group_name_H-M	'P1'
_symmetry_Int_Tables_number	1
_symmetry_cell_setting	triclinic
loop_
_symmetry_equiv_pos_as_xyz
  x,y,z
_cell_length_a	14.519709
_cell_length_b	15.995292
_cell_length_c	13.596369
_cell_angle_alpha	89.997204
_cell_angle_beta	90.000291
_cell_angle_gamma	83.574380
loop_
_atom_site_label
_atom_site_type_symbol
_atom_site_fract_x
_atom_site_fract_y
_atom_site_fract_z
O1	O	1.223644	0.109763	-0.081656
O2	O	0.955141	0.122689	-0.081685
O3	O	1.096760	-0.005654	-0.081671
O4	O	1.082025	0.238106	-0.081670
O5	O	1.096746	-0.005661	0.081911
O6	O	0.955126	0.122682	0.081898
O7	O	1.223630	0.109756	0.081927
Zn8	Zn	1.089376	0.116218	0.107884
Zn9	Zn	1.089394	0.116227	-0.107643
O10	O	1.082010	0.238099	0.081913
C11	C	0.920775	0.122083	0.000102
C12	C	0.818397	0.120278	0.000091
C13	C	0.443515	0.113632	0.000135
C14	C	0.547819	0.115478	0.000123
C15	C	0.630953	0.116955	0.000112
C16	C	0.735264	0.118801	0.000101
C17	C	1.096153	-0.036854	0.000117
C18	C	1.094355	-0.129810	0.000110
C19	C	1.087745	-0.467558	0.000118
C20	C	1.189962	-0.444093	0.000495
C21	C	1.191905	-0.347414	0.000123
C22	C	1.091025	-0.299997	0.000115
C23	C	1.039929	-0.329171	-0.093302
C24	C	1.038699	-0.425963	-0.093377
C25	C	1.036596	-0.425831	0.092648
C26	C	1.040383	-0.329333	0.093879
C27	C	1.092873	-0.205298	0.000109
C28	C	1.085894	-0.562257	0.000117
C29	C	1.257995	0.110362	0.000137
C30	C	1.360373	0.112167	0.000142
C31	C	1.082617	0.269299	0.000122
C32	C	1.084415	0.362254	0.000123
N33	N	1.089370	0.116211	0.254976
N34	N	1.089408	0.116227	-0.254735
C35	C	1.089393	0.116228	0.656267
C36	C	1.089384	0.116226	0.544616
C37	C	1.089382	0.116220	0.455625
C38	C	1.089372	0.116217	0.343967
H39	H	1.231922	-0.328332	0.067086
C40	C	1.246297	-0.322461	-0.090494
N41	N	1.287265	-0.303667	-0.158752
H42	H	1.229356	-0.472034	0.067488
C43	C	1.242903	-0.483207	-0.089493
N44	N	1.282775	-0.512670	-0.157273
H45	H	1.074097	-0.452724	-0.163201
C46	C	0.937453	-0.445774	-0.099131
N47	N	0.861197	-0.460692	-0.103475
H48	H	0.965695	-0.297414	-0.096781
H49	H	1.075423	-0.309054	-0.162816
H50	H	0.961356	-0.439934	0.093271
H51	H	1.068780	-0.453874	0.163456
C52	C	1.090624	-0.304152	0.187245
N53	N	1.128460	-0.285171	0.257567
H54	H	0.966751	-0.296474	0.099514
