data_functionalizedCrystal
_audit_creation_method	'MofGen! by Chris Wilmer'
_symmetry_space_group_name_H-M	'P1'
_symmetry_Int_Tables_number	1
_symmetry_cell_setting	triclinic
loop_
_symmetry_equiv_pos_as_xyz
  x,y,z
_cell_length_a	11.026607
_cell_length_b	16.974800
_cell_length_c	15.455301
_cell_angle_alpha	90.649571
_cell_angle_beta	87.654993
_cell_angle_gamma	95.962169
loop_
_atom_site_label
_atom_site_type_symbol
_atom_site_fract_x
_atom_site_fract_y
_atom_site_fract_z
O1	O	0.154339	1.070985	0.003080
O2	O	0.175098	0.844414	-0.012832
O3	O	-0.011815	0.938921	-0.006192
O4	O	0.341252	0.976478	-0.003561
O5	O	-0.021254	0.931411	0.137543
O6	O	0.165659	0.836904	0.130903
O7	O	0.144900	1.063474	0.146815
Cu8	Cu	0.154418	0.949503	0.151983
Cu9	Cu	0.165581	0.958385	-0.018000
O10	O	0.331813	0.968967	0.140175
C11	C	0.169767	0.811202	0.056967
C12	C	0.167932	0.723428	0.050802
C13	C	0.161922	0.678102	0.126258
C14	C	0.160178	0.595628	0.120468
C15	C	0.164454	0.558482	0.039222
C16	C	0.170461	0.603814	-0.036240
C17	C	0.172196	0.686286	-0.030449
C18	C	0.159809	0.312265	0.013502
C19	C	0.158077	0.229787	0.007717
C20	C	0.147792	0.221606	0.164426
C21	C	0.149534	0.304081	0.170209
C22	C	0.155535	0.349405	0.094748
N23	N	0.162675	0.474180	0.033302
N24	N	0.157305	0.433705	0.100669
C25	C	-0.061701	0.928238	0.065188
C26	C	-0.196284	0.907584	0.063734
C27	C	-0.270452	0.964613	0.067738
C28	C	-0.409550	0.943268	0.066236
C29	C	0.381700	0.979651	0.068793
C30	C	0.516282	1.000305	0.070241
C31	C	0.150231	1.096686	0.077014
C32	C	0.152066	1.184461	0.083173
N33	N	0.146565	0.943261	0.271541
N34	N	0.173423	0.964632	-0.137558
C35	C	0.216871	0.999109	0.320852
C36	C	0.210925	0.994398	0.411330
C37	C	0.134679	0.933836	0.452494
C38	C	0.064365	0.877986	0.403176
C39	C	0.070305	0.882700	0.312700
C40	C	0.109050	0.913497	0.722649
C41	C	0.103117	0.908784	0.813131
C42	C	0.249676	1.025198	0.821278
C43	C	0.255616	1.029905	0.730800
C44	C	0.185297	0.974057	0.681491
N45	N	0.128602	0.929017	0.544976
N46	N	0.191368	0.978879	0.589010
H47	H	0.146047	0.334319	0.236369
H48	H	-0.444241	1.064939	0.074715
H49	H	0.164691	0.349158	-0.047945
H50	H	-0.235763	0.842958	0.059190
H51	H	0.306925	1.070667	0.861436
Br52	Br	-0.039119	0.795795	0.459041
H53	H	0.278967	1.048421	0.287343
Br54	Br	0.180343	0.747801	-0.132858
Br55	Br	0.139645	0.160091	0.266832
Br56	Br	0.163889	0.179375	-0.102554
Br57	Br	-0.475332	0.835544	0.058658
Br58	Br	0.152041	0.534117	0.222878
Br59	Br	0.306345	1.070195	0.478250
H60	H	0.041029	0.859463	0.846643
Br61	Br	0.176211	0.553400	-0.146505
Br62	Br	0.156131	0.728507	0.236527
H63	H	0.051790	0.868021	0.682511
H64	H	-0.230973	1.029239	0.072282
Br65	Br	0.359158	1.112068	0.674939
Br66	Br	-0.025131	0.806913	0.245777
