data_functionalizedCrystal
_audit_creation_method	'MofGen! by Chris Wilmer'
_symmetry_space_group_name_H-M	'P1'
_symmetry_Int_Tables_number	1
_symmetry_cell_setting	triclinic
loop_
_symmetry_equiv_pos_as_xyz
  x,y,z
_cell_length_a	21.295417
_cell_length_b	19.121141
_cell_length_c	21.295411
_cell_angle_alpha	92.464691
_cell_angle_beta	89.978356
_cell_angle_gamma	92.416218
loop_
_atom_site_label
_atom_site_type_symbol
_atom_site_fract_x
_atom_site_fract_y
_atom_site_fract_z
Zn1	Zn	-0.291823	-1.073733	-0.396943
Zn2	Zn	0.041510	-0.740400	-0.063610
Zn3	Zn	0.374844	-0.407067	0.269723
Zn4	Zn	-0.397071	-1.073624	-0.291665
Zn5	Zn	-0.063737	-0.740291	0.041669
Zn6	Zn	0.269596	-0.406958	0.375002
Zn7	Zn	-0.287323	-0.956272	-0.287200
Zn8	Zn	0.046011	-0.622939	0.046134
Zn9	Zn	0.379344	-0.289606	0.379467
Zn10	Zn	-0.392556	-0.956238	-0.392411
Zn11	Zn	-0.059223	-0.622905	-0.059077
Zn12	Zn	0.274110	-0.289572	0.274256
O13	O	-0.342193	-1.014967	-0.342055
O14	O	-0.008860	-0.681634	-0.008721
O15	O	0.324474	-0.348300	0.324612
O16	O	-0.309557	-1.172003	-0.386744
O17	O	0.023776	-0.838670	-0.053410
O18	O	0.357110	-0.505337	0.279923
O19	O	-0.382518	-1.058026	-0.202982
O20	O	-0.049185	-0.724693	0.130352
O21	O	0.284148	-0.391359	0.463685
O22	O	-0.199833	-0.971914	-0.301786
O23	O	0.133501	-0.638580	0.031547
O24	O	0.466834	-0.305247	0.364881
O25	O	-0.386882	-1.171923	-0.309396
O26	O	-0.053549	-0.838590	0.023938
O27	O	0.279785	-0.505257	0.357271
O28	O	-0.203139	-1.058212	-0.382414
O29	O	0.130194	-0.724878	-0.049081
O30	O	0.463528	-0.391545	0.284253
O31	O	-0.301887	-0.971808	-0.199701
O32	O	0.031446	-0.638475	0.133632
O33	O	0.364780	-0.305141	0.466965
O34	O	-0.297509	-0.857983	-0.297391
O35	O	0.035824	-0.524650	0.035943
O36	O	0.369157	-0.191317	0.369276
O37	O	-0.379188	-0.971855	-0.481102
O38	O	-0.045854	-0.638522	-0.147769
O39	O	0.287479	-0.305189	0.185564
O40	O	-0.374824	-0.857958	-0.374688
O41	O	-0.041491	-0.524625	-0.041355
O42	O	0.291843	-0.191292	0.291978
O43	O	-0.305180	-1.058179	-0.484433
O44	O	0.028154	-0.724845	-0.151099
O45	O	0.361487	-0.391512	0.182234
O46	O	-0.484559	-1.057993	-0.305000
O47	O	-0.151226	-0.724660	0.028333
O48	O	0.182108	-0.391326	0.361666
O49	O	-0.481242	-0.971750	-0.379018
O50	O	-0.147909	-0.638417	-0.045685
O51	O	0.185425	-0.305083	0.287649
C52	C	-0.335189	-0.832487	-0.335064
C53	C	-0.001856	-0.499154	-0.001730
C54	C	0.331478	-0.165820	0.331603
C55	C	-0.332208	-0.754421	-0.332088
C56	C	0.001126	-0.421088	0.001246
C57	C	0.334459	-0.087754	0.334579
C58	C	-0.371122	-0.717751	-0.370871
C59	C	-0.037788	-0.384417	-0.037538
C60	C	0.295545	-0.051084	0.295795
C61	C	-0.368312	-0.644400	-0.368078
C62	C	-0.034979	-0.311066	-0.034745
C63	C	0.298355	0.022267	0.298589
C64	C	-0.326592	-0.607720	-0.326498
C65	C	0.006742	-0.274387	0.006836
C66	C	0.340075	0.058947	0.340169
C67	C	-0.287674	-0.644395	-0.287713
C68	C	0.045660	-0.311062	0.045621
C69	C	0.378993	0.022271	0.378954
C70	C	-0.290480	-0.717745	-0.290509
C71	C	0.042853	-0.384412	0.042824
C72	C	0.376186	-0.051079	0.376157
C73	C	-0.316097	-0.386251	-0.316046
C74	C	0.017236	-0.052917	0.017287
C75	C	0.350569	0.280416	0.350621
C76	C	-0.313295	-0.312896	-0.313251
C77	C	0.020039	0.020438	0.020082
C78	C	0.353372	0.353771	0.353416
C79	C	-0.393933	-0.312905	-0.393618
C80	C	-0.060599	0.020428	-0.060284
C81	C	0.272734	0.353762	0.273049
C82	C	-0.396738	-0.386256	-0.396408
C83	C	-0.063405	-0.052923	-0.063075
C84	C	0.269928	0.280410	0.270259
C85	C	-0.357818	-0.422925	-0.357625
C86	C	-0.024485	-0.089592	-0.024292
C87	C	0.308849	0.243741	0.309041
C88	C	-0.323720	-0.532743	-0.323640
C89	C	0.009613	-0.199410	0.009693
C90	C	0.342946	0.133923	0.343026
C91	C	-0.360687	-0.497901	-0.360486
C92	C	-0.027353	-0.164567	-0.027153
C93	C	0.305980	0.168766	0.306180
C94	C	-0.505741	-1.014875	-0.342016
C95	C	-0.172408	-0.681542	-0.008683
C96	C	0.160925	-0.348208	0.324650
C97	C	-0.575710	-1.014900	-0.342023
C98	C	-0.242377	-0.681566	-0.008690
C99	C	0.090956	-0.348233	0.324643
C100	C	-0.610285	-1.059847	-0.303525
C101	C	-0.276951	-0.726513	0.029808
C102	C	0.056382	-0.393180	0.363142
C103	C	-0.676028	-1.059879	-0.303541
C104	C	-0.342695	-0.726546	0.029793
C105	C	-0.009362	-0.393213	0.363126
C106	C	-0.707195	-1.014953	-0.342047
C107	C	-0.373861	-0.681620	-0.008714
C108	C	-0.040528	-0.348286	0.324620
C109	C	-0.672612	-0.970003	-0.380553
C110	C	-0.339279	-0.636670	-0.047220
C111	C	-0.005946	-0.303337	0.286114
C112	C	-0.606870	-0.969977	-0.380541
C113	C	-0.273537	-0.636643	-0.047208
C114	C	0.059796	-0.303310	0.286126
N115	N	-0.808107	-0.953513	-0.344492
N116	N	-0.474774	-0.620180	-0.011159
N117	N	-0.141441	-0.286846	0.322175
N118	N	-0.870560	-0.953540	-0.344500
N119	N	-0.537226	-0.620207	-0.011166
N120	N	-0.203893	-0.286874	0.322167
C121	C	-0.905273	-1.015032	-0.342086
C122	C	-0.571939	-0.681698	-0.008753
C123	C	-0.238606	-0.348365	0.324581
N124	N	-0.875174	-1.076496	-0.339652
N125	N	-0.541840	-0.743163	-0.006319
N126	N	-0.208507	-0.409830	0.327014
N127	N	-0.812715	-1.076468	-0.339641
N128	N	-0.479382	-0.743135	-0.006308
N129	N	-0.146049	-0.409802	0.327025
C130	C	-0.778481	-1.014977	-0.342065
C131	C	-0.445148	-0.681644	-0.008731
C132	C	-0.111814	-0.348311	0.324602
C133	C	-1.011134	-1.060018	-0.303603
C134	C	-0.677801	-0.726685	0.029731
C135	C	-0.344467	-0.393351	0.363064
C136	C	-1.076879	-1.060052	-0.303623
C137	C	-0.743546	-0.726719	0.029711
C138	C	-0.410212	-0.393385	0.363044
C139	C	-1.073461	-0.970170	-0.380631
C140	C	-0.740128	-0.636836	-0.047298
C141	C	-0.406795	-0.303503	0.286035
C142	C	-1.007718	-0.970142	-0.380615
C143	C	-0.674385	-0.636808	-0.047282
C144	C	-0.341051	-0.303475	0.286052
C145	C	-0.976558	-1.015065	-0.342097
C146	C	-0.643225	-0.681732	-0.008764
C147	C	-0.309891	-0.348398	0.324569
C148	C	-0.178007	-1.015079	-0.342108
C149	C	0.155326	-0.681745	-0.008774
C150	C	0.488660	-0.348412	0.324559
C151	C	-0.108041	-1.015126	-0.342130
C152	C	0.225293	-0.681793	-0.008797
C153	C	0.558626	-0.348459	0.324536
C154	C	-0.342182	-1.015025	-0.506247
C155	C	-0.008849	-0.681692	-0.172914
C156	C	0.324485	-0.348359	0.160420
C157	C	-0.342177	-1.015050	-0.576216
C158	C	-0.008844	-0.681717	-0.242883
C159	C	0.324489	-0.348384	0.090450
C160	C	-0.349222	-0.198160	-0.349066
C161	C	-0.015888	0.135174	-0.015733
C162	C	0.317445	0.468507	0.317601
C163	C	-0.352208	-0.276226	-0.352035
C164	C	-0.018875	0.057108	-0.018701
C165	C	0.314458	0.390441	0.314632
C166	C	-0.303639	-1.059997	-0.610818
C167	C	0.029694	-0.726663	-0.277485
C168	C	0.363027	-0.393330	0.055849
C169	C	-0.303612	-1.059996	-0.676560
C170	C	0.029721	-0.726662	-0.343227
C171	C	0.363055	-0.393329	-0.009894
C172	C	-0.342134	-1.015056	-0.707699
C173	C	-0.008801	-0.681722	-0.374366
C174	C	0.324532	-0.348389	-0.041032
C175	C	-0.380675	-0.970100	-0.673089
C176	C	-0.047341	-0.636767	-0.339756
C177	C	0.285992	-0.303434	-0.006422
C178	C	-0.380696	-0.970098	-0.607348
C179	C	-0.047363	-0.636764	-0.274014
C180	C	0.285970	-0.303431	0.059319
N181	N	-0.396994	-1.009637	-0.810707
N182	N	-0.063661	-0.676304	-0.477374
N183	N	0.269672	-0.342970	-0.144041
N184	N	-0.396972	-1.009644	-0.873159
N185	N	-0.063639	-0.676310	-0.539826
N186	N	0.269694	-0.342977	-0.206492
C187	C	-0.342071	-1.015060	-0.905774
C188	C	-0.008737	-0.681727	-0.572441
C189	C	0.324596	-0.348393	-0.239107
N190	N	-0.287191	-1.020483	-0.873579
N191	N	0.046142	-0.687150	-0.540245
N192	N	0.379475	-0.353817	-0.206912
N193	N	-0.287214	-1.020480	-0.811121
N194	N	0.046119	-0.687147	-0.477788
N195	N	0.379453	-0.353814	-0.144454
C196	C	-0.342115	-1.015053	-0.778984
C197	C	-0.008782	-0.681720	-0.445651
C198	C	0.324552	-0.348387	-0.112318
C199	C	-0.303500	-1.060008	-1.011661
C200	C	0.029834	-0.726675	-0.678328
C201	C	0.363167	-0.393341	-0.344995
C202	C	-0.303471	-1.060002	-1.077405
C203	C	0.029862	-0.726669	-0.744072
C204	C	0.363196	-0.393335	-0.410738
C205	C	-0.380540	-0.970110	-1.073932
C206	C	-0.047206	-0.636777	-0.740599
C207	C	0.286127	-0.303444	-0.407266
C208	C	-0.380562	-0.970113	-1.008190
C209	C	-0.047229	-0.636779	-0.674857
C210	C	0.286104	-0.303446	-0.341523
C211	C	-0.342043	-1.015065	-0.977059
C212	C	-0.008710	-0.681732	-0.643725
C213	C	0.324623	-0.348398	-0.310392
C214	C	-0.342160	-1.014949	-0.178502
C215	C	-0.008827	-0.681616	0.154831
C216	C	0.324506	-0.348283	0.488164
C217	C	-0.341993	-1.015061	-0.108539
C218	C	-0.008660	-0.681727	0.224794
C219	C	0.324674	-0.348394	0.558128
H220	H	-0.425618	-0.283041	-0.425193
H221	H	-0.092285	0.050292	-0.091860
H222	H	0.241048	0.383625	0.241474
H223	H	-0.411898	-0.933512	-1.099284
H224	H	-0.078565	-0.600179	-0.765951
H225	H	0.254768	-0.266845	-0.432618
H226	H	-0.279314	-0.283033	-0.279395
H227	H	0.054020	0.050300	0.053938
H228	H	0.387353	0.383633	0.387272
H229	H	-0.979566	-0.933539	-0.411961
H230	H	-0.646232	-0.600206	-0.078628
H231	H	-0.312899	-0.266872	0.254706
O232	O	-0.422224	-0.921626	-0.706668
O233	O	-0.088890	-0.588292	-0.373335
O234	O	0.244443	-0.254959	-0.040002
H235	H	-0.415738	-0.929182	-0.758196
H236	H	-0.082405	-0.595849	-0.424863
H237	H	0.250928	-0.262516	-0.091530
O238	O	-0.262093	-1.108479	-0.577243
O239	O	0.071240	-0.775146	-0.243910
O240	O	0.404574	-0.441813	0.089423
H241	H	-0.228870	-1.077069	-0.546078
H242	H	0.104463	-0.743735	-0.212745
H243	H	0.437796	-0.410402	0.120589
O244	O	-0.274141	-0.425798	-0.274199
O245	O	0.059192	-0.092464	0.059135
O246	O	0.392526	0.240869	0.392468
H247	H	-0.244671	-0.387967	-0.244806
H248	H	0.088662	-0.054633	0.088527
H249	H	0.421996	0.278700	0.421861
H250	H	-0.258789	-0.747601	-0.258931
H251	H	0.074544	-0.414268	0.074402
H252	H	0.407877	-0.080934	0.407736
O253	O	-0.262032	-1.108474	-0.713880
O254	O	0.071301	-0.775140	-0.380546
O255	O	0.404634	-0.441807	-0.047213
H256	H	-0.228784	-1.077057	-0.742612
H257	H	0.104549	-0.743724	-0.409278
H258	H	0.437882	-0.410390	-0.075945
H259	H	-0.412078	-0.933494	-0.579175
H260	H	-0.078744	-0.600160	-0.245842
H261	H	0.254589	-0.266827	0.087492
O262	O	-0.242689	-0.604839	-0.242848
O263	O	0.090644	-0.271506	0.090486
O264	O	0.423977	0.061827	0.423819
H265	H	-0.247285	-0.547673	-0.247407
H266	H	0.086049	-0.214340	0.085926
H267	H	0.419382	0.118993	0.419260
H268	H	-1.098837	-0.933593	-0.411987
H269	H	-0.765503	-0.600259	-0.078654
H270	H	-0.432170	-0.266926	0.254680
H271	H	-0.411948	-0.933516	-0.980017
H272	H	-0.078615	-0.600183	-0.646684
H273	H	0.254719	-0.266850	-0.313350
O274	O	-0.261950	-1.108481	-0.978076
O275	O	0.071383	-0.775147	-0.644742
O276	O	0.404717	-0.441814	-0.311409
H277	H	-0.235138	-1.139727	-1.013184
H278	H	0.098195	-0.806394	-0.679851
H279	H	0.431529	-0.473061	-0.346517
H280	H	-0.394653	-0.527768	-0.394343
H281	H	-0.061319	-0.194435	-0.061010
H282	H	0.272014	0.138898	0.272323
H283	H	-0.272085	-1.096602	-1.105577
H284	H	0.061248	-0.763269	-0.772243
H285	H	0.394582	-0.429935	-0.438910
O286	O	-0.576679	-1.108309	-0.261991
O287	O	-0.243346	-0.774976	0.071342
O288	O	0.089987	-0.441642	0.404675
H289	H	-0.588877	-1.096301	-0.212119
H290	H	-0.255543	-0.762967	0.121214
H291	H	0.077790	-0.429634	0.454547
O292	O	-0.416118	-0.757312	-0.415721
O293	O	-0.082784	-0.423979	-0.082388
O294	O	0.250549	-0.090645	0.250945
H295	H	-0.442699	-0.719487	-0.442225
H296	H	-0.109366	-0.386153	-0.108892
H297	H	0.223968	-0.052820	0.224441
H298	H	-0.289753	-0.502871	-0.289784
H299	H	0.043581	-0.169537	0.043549
H300	H	0.376914	0.163796	0.376882
H301	H	-0.697992	-0.933425	-0.411906
H302	H	-0.364659	-0.600092	-0.078573
H303	H	-0.031326	-0.266759	0.254760
O304	O	-0.410403	-0.604845	-0.409787
O305	O	-0.077070	-0.271512	-0.076454
O306	O	0.256264	0.061821	0.256879
H307	H	-0.439934	-0.642674	-0.439121
H308	H	-0.106601	-0.309341	-0.105787
H309	H	0.226732	0.023993	0.227546
O310	O	-0.713332	-1.108353	-0.262011
O311	O	-0.379998	-0.775020	0.071323
O312	O	-0.046665	-0.441686	0.404656
H313	H	-0.680619	-1.139582	-0.235222
H314	H	-0.347286	-0.806249	0.098111
H315	H	-0.013952	-0.472915	0.431445
H316	H	-0.430713	-0.416116	-0.430266
H317	H	-0.097380	-0.082783	-0.096932
H318	H	0.235954	0.250551	0.236401
H319	H	-0.578719	-0.933375	-0.411892
H320	H	-0.245386	-0.600042	-0.078558
H321	H	0.087948	-0.266708	0.254775
H322	H	-0.985763	-1.096600	-0.272241
H323	H	-0.652429	-0.763266	0.061092
H324	H	-0.319096	-0.429933	0.394425
O325	O	-1.114175	-1.108531	-0.262097
O326	O	-0.780842	-0.775198	0.071237
O327	O	-0.447508	-0.441865	0.404570
H328	H	-1.081460	-1.139757	-0.235308
H329	H	-0.748126	-0.806424	0.098025
H330	H	-0.414793	-0.473090	0.431359
