data_functionalizedCrystal
_audit_creation_method	'MofGen! by Chris Wilmer'
_symmetry_space_group_name_H-M	'P1'
_symmetry_Int_Tables_number	1
_symmetry_cell_setting	triclinic
loop_
_symmetry_equiv_pos_as_xyz
  x,y,z
_cell_length_a	16.109301
_cell_length_b	10.489741
_cell_length_c	14.586319
_cell_angle_alpha	89.996488
_cell_angle_beta	89.999213
_cell_angle_gamma	84.000327
loop_
_atom_site_label
_atom_site_type_symbol
_atom_site_fract_x
_atom_site_fract_y
_atom_site_fract_z
O1	O	1.104141	0.163947	-0.076182
O2	O	0.862205	0.184350	-0.076196
O3	O	0.988678	-0.011529	-0.076183
O4	O	0.977668	0.359826	-0.076195
O5	O	0.988670	-0.011532	0.076298
O6	O	0.862196	0.184347	0.076284
O7	O	1.104132	0.163944	0.076299
Cu8	Cu	0.983164	0.174145	0.090214
Cu9	Cu	0.983174	0.174149	-0.090112
O10	O	0.977659	0.359823	0.076286
C11	C	0.831221	0.183522	0.000042
C12	C	0.738910	0.181044	0.000037
C13	C	0.517319	0.291514	0.000044
C14	C	0.430584	0.289175	0.000050
C15	C	0.449026	0.056771	0.000053
C16	C	0.535759	0.059111	0.000054
C17	C	0.569903	0.176486	0.000045
C18	C	0.396435	0.171808	0.000050
C19	C	0.302393	0.169272	0.000056
C20	C	0.663950	0.179022	0.000040
C21	C	0.987842	-0.059050	0.000057
C22	C	0.985354	-0.200644	0.000055
C23	C	0.904883	-0.267616	0.000043
C24	C	0.942893	-0.360292	0.075226
C25	C	0.942920	-0.360264	-0.075108
C26	C	1.023397	-0.291454	0.075300
C27	C	1.023414	-0.291417	-0.075102
C28	C	1.061482	-0.384066	0.000100
C29	C	1.135117	0.164772	0.000058
C30	C	1.227427	0.167250	0.000058
C31	C	0.978495	0.407344	0.000044
C32	C	0.980983	0.548938	0.000040
N33	N	0.983162	0.174142	0.217046
N34	N	0.983182	0.174142	-0.216944
C35	C	1.039183	0.087436	0.452058
C36	C	1.039186	0.087433	0.548040
C37	C	0.927155	0.260852	0.548038
C38	C	0.927149	0.260848	0.452058
C39	C	0.983168	0.174141	0.404071
C40	C	0.983176	0.174142	0.596032
C41	C	0.983178	0.174140	0.700099
C42	C	0.983165	0.174142	0.299997
H43	H	0.421215	-0.038791	0.000067
O44	O	0.872816	0.345258	0.405480
C45	C	0.887072	0.471530	0.428937
H46	H	0.953639	0.472186	0.455317
H47	H	0.841218	0.508979	0.484649
C48	C	0.792908	0.557187	0.311269
C49	C	0.874668	0.557993	0.343661
H50	H	0.785253	0.610523	0.258669
H51	H	0.783300	0.472115	0.295467
H52	H	0.754705	0.588391	0.357704
H53	H	0.912869	0.526774	0.297231
H54	H	0.884282	0.643061	0.359454
O55	O	0.379469	0.400879	0.000206
C56	C	0.328732	0.406469	0.079166
H57	H	0.360102	0.341236	0.134366
H58	H	0.265476	0.373478	0.061314
C59	C	0.277855	0.625382	0.047166
C60	C	0.316388	0.545270	0.114967
H61	H	0.270237	0.711000	0.069249
H62	H	0.312035	0.621615	-0.006033
H63	H	0.225146	0.597873	0.032296
H64	H	0.369100	0.572769	0.129828
H65	H	0.282217	0.549044	0.168170
H66	H	0.578575	-0.034565	0.000057
O67	O	0.825940	-0.207286	0.000286
C68	C	0.783812	-0.242189	0.079689
H69	H	0.831337	-0.275607	0.134820
H70	H	0.744476	-0.323241	0.062532
C71	C	0.668362	-0.084641	0.047417
C72	C	0.726733	-0.125675	0.115133
H73	H	0.633149	-0.012772	0.069279
H74	H	0.696742	-0.061128	-0.006081
H75	H	0.635590	-0.152195	0.033126
H76	H	0.759510	-0.058127	0.129415
H77	H	0.698357	-0.149173	0.168634
H78	H	1.057413	-0.261117	0.138933
H79	H	0.908840	-0.390811	0.138784
H80	H	1.057438	-0.260864	-0.138663
O81	O	1.140475	-0.444208	-0.000029
C82	C	1.152716	-0.520648	-0.079361
H83	H	1.106501	-0.482621	-0.134561
H84	H	1.142416	-0.623829	-0.062130
C85	C	1.299193	-0.562838	-0.046933
C86	C	1.242435	-0.516126	-0.114734
H87	H	1.354536	-0.560055	-0.068751
H88	H	1.290946	-0.511343	0.006517
H89	H	1.290599	-0.648819	-0.032580
H90	H	1.251023	-0.430142	-0.129077
H91	H	1.250686	-0.567607	-0.168187
H92	H	1.084796	0.016832	0.412990
O93	O	0.550350	0.405637	0.000083
C94	C	0.485334	0.506661	0.000063
H95	H	0.426211	0.470922	0.028930
H96	H	0.473274	0.542149	-0.073090
C97	C	0.583086	0.661247	0.024406
C98	C	0.510472	0.617355	0.059869
H99	H	0.598593	0.729531	0.061294
H100	H	0.626889	0.593187	0.024417
H101	H	0.573027	0.690811	-0.036553
H102	H	0.520535	0.587776	0.120823
H103	H	0.466671	0.685413	0.059870
O104	O	0.902183	-0.396457	-0.150912
C105	C	0.819640	-0.336595	-0.150615
H106	H	0.816189	-0.246397	-0.106600
H107	H	0.776109	-0.405288	-0.121277
C108	C	0.797177	-0.411035	-0.303441
C109	C	0.792940	-0.300246	-0.249386
H110	H	0.780705	-0.388618	-0.364367
H111	H	0.852786	-0.451370	-0.303640
H112	H	0.760901	-0.468269	-0.278981
H113	H	0.829223	-0.243022	-0.273839
H114	H	0.737335	-0.259901	-0.249194
H115	H	1.084798	0.016828	0.587108
H116	H	0.881546	0.331449	0.587118
