data_functionalizedCrystal
_audit_creation_method	'MofGen! by Chris Wilmer'
_symmetry_space_group_name_H-M	'P1'
_symmetry_Int_Tables_number	1
_symmetry_cell_setting	triclinic
loop_
_symmetry_equiv_pos_as_xyz
  x,y,z
_cell_length_a	15.995343
_cell_length_b	10.489716
_cell_length_c	15.072220
_cell_angle_alpha	90.002992
_cell_angle_beta	89.991823
_cell_angle_gamma	84.009160
loop_
_atom_site_label
_atom_site_type_symbol
_atom_site_fract_x
_atom_site_fract_y
_atom_site_fract_z
O1	O	1.111981	0.164354	-0.073685
O2	O	0.868327	0.184667	-0.073706
O3	O	0.995709	-0.011167	-0.073698
O4	O	0.984599	0.360188	-0.073693
O5	O	0.995677	-0.011156	0.073867
O6	O	0.868295	0.184678	0.073859
O7	O	1.111950	0.164365	0.073880
Zn8	Zn	0.990117	0.174523	0.097299
Zn9	Zn	0.990159	0.174509	-0.097125
O10	O	0.984567	0.360199	0.073872
C11	C	0.837111	0.183834	0.000074
C12	C	0.744145	0.181322	0.000066
C13	C	0.573931	0.176762	0.000078
C14	C	0.549742	0.035399	0.000076
C15	C	0.453048	0.032740	0.000416
C16	C	0.406345	0.172270	0.000088
C17	C	0.435843	0.243356	0.084189
C18	C	0.532645	0.245032	0.084254
C19	C	0.532604	0.247090	-0.083561
C20	C	0.436078	0.241871	-0.084661
C21	C	0.311631	0.169739	0.000097
C22	C	0.668644	0.179297	0.000075
C23	C	0.994858	-0.058682	0.000082
C24	C	0.992361	-0.200278	0.000073
C25	C	1.070476	-0.299049	0.000088
C26	C	1.029214	-0.375835	-0.072671
C27	C	1.029164	-0.375788	0.072817
C28	C	0.951132	-0.275200	-0.072745
C29	C	0.951094	-0.275148	0.072808
C30	C	0.909774	-0.351885	0.000031
C31	C	1.143165	0.165198	0.000098
C32	C	1.236131	0.167710	0.000100
C33	C	0.985418	0.407714	0.000091
C34	C	0.987915	0.549310	0.000093
N35	N	0.990095	0.174532	0.229987
N36	N	0.990188	0.174490	-0.229814
C37	C	0.990157	0.174504	0.589189
C38	C	0.921764	0.278939	0.551578
C39	C	0.921925	0.279321	0.448752
C40	C	0.990126	0.174518	0.410985
C41	C	1.077664	0.203582	0.448284
C42	C	1.077282	0.204324	0.551142
C43	C	0.971789	0.040694	0.551285
C44	C	0.969789	0.041587	0.448422
C45	C	0.990113	0.174523	0.310272
C46	C	0.990176	0.174501	0.689902
H47	H	0.559127	0.196387	0.147358
O48	O	0.584057	-0.028812	0.071885
C49	C	0.711062	-0.103870	0.150185
C50	C	0.672304	-0.031109	0.068831
H51	H	0.782416	-0.105774	0.147733
H52	H	0.686335	-0.053561	0.213424
H53	H	0.693122	-0.206231	0.149594
H54	H	0.690228	0.071257	0.069336
H55	H	0.697031	-0.081518	0.005629
H56	H	0.433709	-0.022905	-0.059859
O57	O	0.911906	-0.222805	-0.146193
C58	C	0.870245	-0.029733	-0.228581
C59	C	0.914699	-0.088906	-0.145372
H60	H	0.872472	0.078535	-0.227935
H61	H	0.903325	-0.072058	-0.290530
H62	H	0.801967	-0.051874	-0.228847
H63	H	0.982977	-0.066786	-0.145019
H64	H	0.881553	-0.046579	-0.083460
H65	H	1.129807	0.131258	0.576020
O66	O	0.549927	0.371286	-0.084490
C67	C	0.493923	0.593630	-0.083077
C68	C	0.474178	0.453046	-0.082011
H69	H	0.432692	0.659772	-0.081093
H70	H	0.533807	0.612687	-0.022779
H71	H	0.529895	0.612505	-0.146220
H72	H	0.438178	0.434072	-0.018909
H73	H	0.434331	0.434059	-0.142352
H74	H	1.062143	-0.419719	0.134327
O75	O	1.068628	-0.428089	-0.146074
C76	C	1.143875	-0.389844	-0.280364
C77	C	1.099273	-0.330510	-0.197267
H78	H	1.168648	-0.310976	-0.321786
H79	H	1.198530	-0.462062	-0.259418
H80	H	1.097405	-0.440423	-0.321438
H81	H	1.145678	-0.279864	-0.156156
H82	H	1.044605	-0.258359	-0.218274
O83	O	0.844270	0.258723	0.418811
C84	C	0.702834	0.220718	0.457589
C85	C	0.790738	0.244055	0.491611
H86	H	0.659534	0.208825	0.516430
H87	H	0.676074	0.305906	0.415750
H88	H	0.707836	0.130046	0.415388
H89	H	0.785808	0.334684	0.533848
H90	H	0.817466	0.158797	0.533401
O91	O	0.430774	-0.033299	0.072822
C92	C	0.477929	-0.150984	0.203971
C93	C	0.503266	-0.076202	0.122011
H94	H	0.536525	-0.185716	0.243753
H95	H	0.433322	-0.085747	0.247195
H96	H	0.445176	-0.236937	0.181603
H97	H	0.536052	0.009752	0.144300
H98	H	0.547834	-0.141527	0.078806
O99	O	1.151479	-0.270488	0.000061
C100	C	1.244596	-0.104123	0.000716
C101	C	1.152830	-0.136306	0.000768
H102	H	1.245718	0.004362	0.001269
H103	H	1.278225	-0.147157	0.062140
H104	H	1.277785	-0.145764	-0.061368
H105	H	1.119569	-0.094672	0.062810
H106	H	1.119264	-0.093295	-0.060697
O107	O	0.413426	0.180210	-0.158863
C108	C	0.299729	0.110648	-0.245092
C109	C	0.325278	0.180542	-0.161043
H110	H	0.228462	0.110869	-0.246873
H111	H	0.321442	0.161697	-0.306389
H112	H	0.330384	0.007543	-0.244207
H113	H	0.294634	0.283649	-0.161842
H114	H	0.303580	0.129393	-0.099783
H115	H	0.841776	-0.375361	-0.000013
H116	H	0.403730	0.343680	-0.089998
O117	O	0.398682	0.365914	0.087765
C118	C	0.384280	0.565716	0.167986
C119	C	0.426439	0.426958	0.164035
H120	H	0.406691	0.615103	0.229655
H121	H	0.401754	0.619926	0.106278
H122	H	0.313128	0.564811	0.170976
H123	H	0.497598	0.427744	0.161074
H124	H	0.408896	0.372806	0.225742
O125	O	0.550885	0.368637	0.088652
C126	C	0.618857	0.525903	0.170678
C127	C	0.598279	0.385884	0.165791
H128	H	0.657162	0.539898	0.233050
H129	H	0.656694	0.548869	0.109687
H130	H	0.557888	0.592630	0.172942
H131	H	0.659205	0.319064	0.163556
H132	H	0.560407	0.363023	0.226781
O133	O	0.935972	0.397722	0.419233
C134	C	0.952195	0.532766	0.292379
C135	C	0.936258	0.398622	0.325687
H136	H	0.952449	0.533531	0.216744
H137	H	0.900385	0.606661	0.317754
H138	H	1.015617	0.557394	0.317989
H139	H	0.872863	0.373873	0.300090
H140	H	0.988117	0.324804	0.300320
H141	H	0.918134	-0.231163	0.134318
O142	O	0.893020	0.015225	0.419195
C143	C	0.805920	-0.018706	0.292705
C144	C	0.892906	0.011115	0.325690
H145	H	0.805794	-0.022012	0.217103
H146	H	0.791559	-0.115370	0.320070
H147	H	0.755988	0.059285	0.316530
H148	H	0.942894	-0.066794	0.301877
H149	H	0.907195	0.107818	0.298332
H150	H	0.909299	0.012746	0.577270
H151	H	0.415446	0.194591	0.147012
O152	O	0.843886	0.258868	0.581143
C153	C	0.721161	0.343770	0.663093
C154	C	0.809342	0.366680	0.629645
H155	H	0.693213	0.430908	0.702330
H156	H	0.678915	0.327848	0.604068
H157	H	0.726099	0.255537	0.707697
H158	H	0.804484	0.454921	0.585057
H159	H	0.851554	0.382526	0.688712
H160	H	0.577435	-0.019398	-0.060224
H161	H	0.933419	0.377678	0.577419
O162	O	1.097309	0.318735	0.417706
C163	C	1.129464	0.531532	0.455226
C164	C	1.107246	0.401171	0.489973
H165	H	1.137487	0.598226	0.513635
H166	H	1.190561	0.517185	0.415815
H167	H	1.076727	0.575722	0.410491
H168	H	1.159929	0.356909	0.534743
H169	H	1.046123	0.415600	0.529334
H170	H	1.093347	0.301911	0.575127
O171	O	1.139865	0.115360	0.418948
C172	C	1.213196	0.018063	0.292368
C173	C	1.142742	0.118044	0.325474
H174	H	1.215533	0.020181	0.216791
H175	H	1.276081	0.041305	0.320296
H176	H	1.200092	-0.081389	0.315517
H177	H	1.155765	0.217533	0.302336
H178	H	1.079879	0.094691	0.297553
O179	O	0.566161	0.193880	-0.159574
C180	C	0.691238	0.143803	-0.247298
C181	C	0.653347	0.204093	-0.161176
H182	H	0.761729	0.152063	-0.248630
H183	H	0.679779	0.038423	-0.250175
H184	H	0.660236	0.196373	-0.306884
H185	H	0.684324	0.151625	-0.101542
H186	H	0.664796	0.309480	-0.158377
O187	O	1.025295	-0.055571	0.417913
C188	C	1.130534	-0.228459	0.455492
C189	C	1.067686	-0.118493	0.490161
H190	H	1.164837	-0.279346	0.513885
H191	H	1.095267	-0.299596	0.416991
H192	H	1.178070	-0.187780	0.409919
H193	H	1.020135	-0.159057	0.535769
H194	H	1.103010	-0.047375	0.528611
H195	H	1.021655	-0.037023	0.575607
