data_functionalizedCrystal
_audit_creation_method	'MofGen! by Chris Wilmer'
_symmetry_space_group_name_H-M	'P1'
_symmetry_Int_Tables_number	1
_symmetry_cell_setting	triclinic
loop_
_symmetry_equiv_pos_as_xyz
  x,y,z
_cell_length_a	10.686220
_cell_length_b	10.685594
_cell_length_c	10.686551
_cell_angle_alpha	89.698963
_cell_angle_beta	89.692081
_cell_angle_gamma	98.404663
loop_
_atom_site_label
_atom_site_type_symbol
_atom_site_fract_x
_atom_site_fract_y
_atom_site_fract_z
Zn1	Zn	1.950677	-0.307351	0.587615
Zn2	Zn	2.450677	0.192649	1.087615
Zn3	Zn	1.918403	-0.535537	0.396583
Zn4	Zn	2.418403	-0.035537	0.896583
Zn5	Zn	1.722528	-0.339602	0.396578
Zn6	Zn	2.222528	0.160398	0.896578
Zn7	Zn	1.725013	-0.532983	0.622150
Zn8	Zn	2.225013	-0.032983	1.122150
O9	O	1.829155	-0.428869	0.500731
O10	O	2.329155	0.071131	1.000731
O11	O	2.122811	-0.325192	0.547823
O12	O	2.622811	0.174808	1.047823
O13	O	1.877873	-0.524112	0.222232
O14	O	2.377873	-0.024112	0.722232
O15	O	1.765259	-0.158897	0.407465
O16	O	2.265259	0.341103	0.907465
O17	O	2.099100	-0.492840	0.407472
O18	O	2.599100	0.007160	0.907472
O19	O	1.932879	-0.135202	0.547819
O20	O	2.432879	0.364798	1.047819
O21	O	1.733964	-0.380160	0.222229
O22	O	2.233964	0.119840	0.722229
O23	O	1.546441	-0.377683	0.440952
O24	O	2.046441	0.122317	0.940952
O25	O	1.769494	-0.488487	0.791919
O26	O	2.269494	0.011513	1.291919
O27	O	1.548267	-0.519759	0.606679
O28	O	2.048267	-0.019759	1.106679
O29	O	1.935289	-0.322716	0.766546
O30	O	2.435289	0.177284	1.266546
O31	O	1.880282	-0.711626	0.440959
O32	O	2.380282	-0.211626	0.940959
O33	O	1.738199	-0.709749	0.606683
O34	O	2.238199	-0.209749	1.106683
C35	C	1.501612	-0.451944	0.527563
C36	C	2.001612	0.048056	1.027563
C37	C	1.361487	-0.461844	0.539074
C38	C	1.861487	0.038156	1.039074
C39	C	1.806045	-0.756428	0.527593
C40	C	2.306045	-0.256428	1.027593
C41	C	1.796277	-0.896548	0.539117
C42	C	2.296277	-0.396548	1.039117
C43	C	2.157977	-0.405704	0.473796
C44	C	2.657977	0.094296	0.973796
C45	C	2.298102	-0.395832	0.462317
C46	C	2.798102	0.104168	0.962317
C47	C	1.856269	-0.401719	0.825704
C48	C	2.356269	0.098281	1.325704
C49	C	1.867823	-0.390149	0.964188
C50	C	2.367823	0.109851	1.464188
C51	C	1.852392	-0.100025	0.473789
C52	C	2.352392	0.399975	0.973789
C53	C	1.862294	0.040109	0.462308
C54	C	2.362294	0.540109	0.962308
C55	C	1.802226	-0.455817	0.177010
C56	C	2.302226	0.044183	0.677010
C57	C	1.790941	-0.467014	0.038478
C58	C	2.290941	0.032986	0.538478
H59	H	1.351039	-0.331745	0.387785
H60	H	1.851039	0.168255	0.887785
Br61	Br	1.992287	-0.265713	1.034757
Br62	Br	2.492287	0.234287	1.534757
H63	H	1.716282	-0.541676	0.996137
H64	H	2.216282	-0.041676	1.496137
H65	H	1.732284	-0.949520	0.613701
H66	H	2.232284	-0.449520	1.113701
H67	H	1.926294	-0.906926	0.387738
H68	H	2.426294	-0.406926	0.887738
H69	H	1.308555	-0.525936	0.613594
H70	H	1.808555	-0.025936	1.113594
