data_functionalizedCrystal
_audit_creation_method	'MofGen! by Chris Wilmer'
_symmetry_space_group_name_H-M	'P1'
_symmetry_Int_Tables_number	1
_symmetry_cell_setting	triclinic
loop_
_symmetry_equiv_pos_as_xyz
  x,y,z
_cell_length_a	16.625547
_cell_length_b	25.639239
_cell_length_c	16.625539
_cell_angle_alpha	89.968745
_cell_angle_beta	89.975178
_cell_angle_gamma	90.038623
loop_
_atom_site_label
_atom_site_type_symbol
_atom_site_fract_x
_atom_site_fract_y
_atom_site_fract_z
Zn1	Zn	1.232590	-0.208151	-0.455984
Zn2	Zn	1.232455	-0.295589	-0.321145
Zn3	Zn	1.097751	-0.208169	-0.321155
Zn4	Zn	1.097684	-0.295557	-0.455924
O5	O	1.165120	-0.251866	-0.388552
O6	O	1.345404	-0.219755	-0.438118
O7	O	1.214558	-0.284013	-0.208313
O8	O	1.115723	-0.135001	-0.339070
O9	O	1.345305	-0.283995	-0.339052
O10	O	1.214788	-0.134988	-0.438128
O11	O	1.115592	-0.219786	-0.208321
O12	O	0.984910	-0.219755	-0.339012
O13	O	1.115607	-0.283941	-0.568765
O14	O	0.984860	-0.283959	-0.438026
O15	O	1.214722	-0.219724	-0.568809
O16	O	1.214492	-0.368750	-0.338994
O17	O	1.115477	-0.368726	-0.438016
C18	C	0.955629	-0.251856	-0.388514
C19	C	0.866008	-0.251864	-0.388517
C20	C	0.793225	-0.251865	-0.388527
C21	C	0.701917	-0.251868	-0.388547
C22	C	0.629141	-0.251873	-0.388567
C23	C	0.537826	-0.251877	-0.388587
C24	C	1.164984	-0.387709	-0.388515
C25	C	1.165000	-0.445823	-0.388526
C26	C	1.216812	-0.806185	-0.337079
C27	C	1.216843	-0.860790	-0.337090
O28	O	1.260755	-0.889026	-0.293307
N29	N	1.165262	-0.888105	-0.388605
C30	C	1.113651	-0.860814	-0.440119
O31	O	1.069781	-0.889062	-0.483939
C32	C	1.113625	-0.806210	-0.440112
C33	C	1.165204	-0.778898	-0.388587
C34	C	1.268387	-0.778873	-0.285559
C35	C	1.268355	-0.724272	-0.285547
C36	C	1.216747	-0.696984	-0.337056
C37	C	1.165171	-0.724297	-0.388576
C38	C	1.062019	-0.778920	-0.491630
C39	C	1.061997	-0.724313	-0.491618
C40	C	1.113576	-0.697000	-0.440093
C41	C	1.113531	-0.642409	-0.440072
N42	N	1.165112	-0.615093	-0.388557
C43	C	1.216720	-0.642381	-0.337048
C44	C	1.113712	-0.975484	-0.440132
C45	C	1.113734	-1.030087	-0.440136
C46	C	1.216927	-1.030059	-0.337107
C47	C	1.216900	-0.975456	-0.337100
C48	C	1.165293	-0.948169	-0.388616
C49	C	1.216648	-0.527716	-0.337027
C50	C	1.216608	-0.473111	-0.337018
C51	C	1.113418	-0.473143	-0.440049
C52	C	1.113454	-0.527744	-0.440056
C53	C	1.165076	-0.555029	-0.388542
O54	O	1.069644	-0.614138	-0.483835
O55	O	1.260591	-0.614126	-0.293244
C56	C	1.375429	-0.251877	-0.388591
C57	C	1.465050	-0.251881	-0.388607
C58	C	1.165172	-0.251827	-0.598861
C59	C	1.165195	-0.251811	-0.688482
C60	C	1.165278	-0.115493	-0.388607
C61	C	1.165345	-0.057379	-0.388630
C62	C	1.165232	-0.251752	-1.016658
C63	C	1.165219	-0.251770	-0.925350
C64	C	1.165214	-0.251782	-0.852573
C65	C	1.165200	-0.251799	-0.761259
C66	C	1.165114	-0.251867	-0.179061
C67	C	1.165248	-0.251737	-0.089441
H68	H	1.258610	-0.450874	-0.295057
C69	C	1.273425	-0.557725	-0.280358
C70	C	1.266881	-0.550254	-0.188690
C71	C	1.323653	-0.580263	-0.132016
C72	C	1.386968	-0.617742	-0.167011
C73	C	1.393514	-0.625214	-0.258683
C74	C	1.336743	-0.595205	-0.315357
H75	H	1.220009	-0.522509	-0.162781
H76	H	1.318807	-0.574732	-0.064154
H77	H	1.428994	-0.639956	-0.125057
H78	H	1.440386	-0.652960	-0.284592
H79	H	1.341589	-0.600737	-0.383219
H80	H	1.071725	-1.052320	-0.482085
H81	H	1.258901	-0.953221	-0.295144
C82	C	1.056930	-0.945471	-0.496796
C83	C	0.965277	-0.953048	-0.490118
C84	C	0.908497	-0.923038	-0.546782
C85	C	0.943369	-0.885453	-0.610124
C86	C	1.035027	-0.877875	-0.616804
C87	C	1.091807	-0.907885	-0.560140
H88	H	0.939458	-0.980872	-0.443226
H89	H	0.840646	-0.928648	-0.541837
H90	H	0.901337	-0.863239	-0.652070
H91	H	1.060846	-0.850051	-0.663696
H92	H	1.159658	-0.902275	-0.565086
H93	H	1.258952	-1.052287	-0.295169
H94	H	1.310417	-0.801085	-0.243615
C95	C	1.005224	-0.694297	-0.548285
C96	C	0.913570	-0.701872	-0.541616
C97	C	0.856796	-0.671858	-0.598280
C98	C	0.891675	-0.634269	-0.661613
C99	C	0.983334	-0.626692	-0.668284
C100	C	1.040108	-0.656707	-0.611621
H101	H	0.887746	-0.729700	-0.494731
H102	H	0.788944	-0.677467	-0.593341
H103	H	0.849647	-0.612051	-0.703559
H104	H	1.009158	-0.598865	-0.715169
H105	H	1.107960	-0.651098	-0.616560
H106	H	1.020014	-0.801148	-0.533583
H107	H	1.071457	-0.549983	-0.482014
C108	C	1.056655	-0.443118	-0.496708
C109	C	0.993357	-0.405632	-0.461701
C110	C	0.936598	-0.375605	-0.518364
C111	C	0.943137	-0.383064	-0.610034
C112	C	1.006438	-0.420552	-0.645046
C113	C	1.063196	-0.450579	-0.588383
H114	H	0.988514	-0.400109	-0.393836
H115	H	0.889739	-0.347854	-0.492445
H116	H	0.901121	-0.360836	-0.651980
H117	H	1.011281	-0.426075	-0.712911
H118	H	1.110056	-0.478330	-0.614302
H119	H	1.310357	-0.702037	-0.243594
