data_functionalizedCrystal
_audit_creation_method	'MofGen! by Chris Wilmer'
_symmetry_space_group_name_H-M	'P1'
_symmetry_Int_Tables_number	1
_symmetry_cell_setting	triclinic
loop_
_symmetry_equiv_pos_as_xyz
  x,y,z
_cell_length_a	33.592126
_cell_length_b	33.591377
_cell_length_c	33.588093
_cell_angle_alpha	60.004089
_cell_angle_beta	60.008299
_cell_angle_gamma	59.994549
loop_
_atom_site_label
_atom_site_type_symbol
_atom_site_fract_x
_atom_site_fract_y
_atom_site_fract_z
O1	O	0.055297	-0.581666	0.486338
O2	O	0.555297	-0.081666	0.986338
O3	O	0.020882	-0.452873	0.391864
O4	O	0.520882	0.047127	0.891864
O5	O	0.102445	-0.534352	0.391775
O6	O	0.602445	-0.034352	0.891775
O7	O	-0.026266	-0.500187	0.486427
O8	O	0.473734	-0.000187	0.986427
O9	O	0.129510	-0.507292	0.418747
O10	O	0.629510	-0.007292	0.918747
O11	O	0.047947	-0.425814	0.418835
O12	O	0.547947	0.074186	0.918835
O13	O	0.082362	-0.554606	0.513309
O14	O	0.582362	-0.054606	1.013309
Cu15	Cu	0.067626	-0.487739	0.468535
Cu16	Cu	0.567626	0.012261	0.968535
Cu17	Cu	0.035618	-0.519740	0.436638
Cu18	Cu	0.535618	-0.019740	0.936638
O19	O	0.000799	-0.473128	0.513398
O20	O	0.500799	0.026872	1.013398
N21	N	0.090139	-0.465235	0.490972
N22	N	0.590139	0.034765	0.990972
N23	N	0.013110	-0.542249	0.414202
N24	N	0.513110	-0.042249	0.914202
C25	C	0.124394	-0.431229	0.734914
C26	C	0.624394	0.068771	1.234914
C27	C	0.334265	-0.431145	0.524799
C28	C	0.834265	0.068855	1.024799
C29	C	0.124204	-0.431200	0.524965
C30	C	0.624204	0.068800	1.024965
C31	C	0.124184	-0.221175	0.524955
C32	C	0.624184	0.278825	1.024955
C33	C	0.158017	-0.322536	0.558710
C34	C	0.658017	0.177464	1.058710
C35	C	0.158027	-0.397406	0.558711
C36	C	0.658027	0.102594	1.058711
C37	C	0.176763	-0.378688	0.577408
C38	C	0.676763	0.121312	1.077408
C39	C	0.258412	-0.364594	0.534386
C40	C	0.758412	0.135406	1.034386
C41	C	0.309454	-0.381596	0.517340
C42	C	0.809454	0.118404	1.017340
C43	C	0.309485	-0.464188	0.548836
C44	C	0.809485	0.035812	1.048836
C45	C	0.258444	-0.447186	0.565883
C46	C	0.758444	0.052814	1.065883
C47	C	0.170304	-0.297002	0.508532
C48	C	0.670304	0.202998	1.008532
C49	C	0.153260	-0.245956	0.491537
C50	C	0.653260	0.254044	0.991537
C51	C	0.111648	-0.245983	0.574901
C52	C	0.611648	0.254017	1.074901
C53	C	0.128691	-0.297029	0.591896
C54	C	0.628691	0.202971	1.091896
C55	C	0.107841	-0.385091	0.571080
C56	C	0.607841	0.114909	1.071080
C57	C	0.090813	-0.402108	0.554078
C58	C	0.590813	0.097892	1.054078
C59	C	0.174153	-0.443755	0.512351
C60	C	0.674153	0.056245	1.012351
C61	C	0.191183	-0.426739	0.529347
C62	C	0.691183	0.073261	1.029347
C63	C	0.107923	-0.385106	0.659111
C64	C	0.607923	0.114894	1.159111
C65	C	0.090955	-0.402138	0.710156
C66	C	0.590955	0.097862	1.210156
C67	C	0.174335	-0.443795	0.710087
C68	C	0.674335	0.056205	1.210087
C69	C	0.191302	-0.426764	0.659041
C70	C	0.691302	0.073236	1.159041
C71	C	0.158095	-0.397418	0.633555
C72	C	0.658095	0.102582	1.133555
C73	C	0.232909	-0.397388	0.558656
C74	C	0.732909	0.102612	1.058656
C75	C	0.105069	-0.449619	0.791057
C76	C	0.605069	0.050381	1.291057
C77	C	0.390406	-0.449193	0.505789
C78	C	0.890406	0.050807	1.005789
C79	C	0.104813	-0.449599	0.506607
C80	C	0.604813	0.050401	1.006607
C81	C	0.105125	-0.165028	0.506915
C82	C	0.605125	0.334972	1.006915
C83	C	-0.020560	-0.576246	0.169890
C84	C	0.479440	-0.076246	0.669890
C85	C	-0.020889	-0.786183	0.379970
C86	C	0.479111	-0.286183	0.879970
C87	C	-0.020859	-0.576235	0.380063
C88	C	0.479141	-0.076235	0.880063
C89	C	-0.230772	-0.576015	0.379658
C90	C	0.269228	-0.076015	0.879658
C91	C	-0.129417	-0.609898	0.346025
C92	C	0.370583	-0.109898	0.846025
C93	C	-0.054587	-0.609979	0.346172
C94	C	0.445413	-0.109979	0.846172
C95	C	-0.073269	-0.628671	0.327396
C96	C	0.426731	-0.128671	0.827396
C97	C	-0.087401	-0.710299	0.370335
C98	C	0.412599	-0.210299	0.870335
C99	C	-0.070424	-0.761345	0.387369
C100	C	0.429576	-0.261345	0.887369
C101	C	0.012165	-0.761428	0.356003
C102	C	0.512165	-0.261428	0.856003
C103	C	-0.004813	-0.710383	0.338967
C104	C	0.495187	-0.210383	0.838967
C105	C	-0.155001	-0.622196	0.396191
C106	C	0.344999	-0.122196	0.896191
C107	C	-0.206043	-0.605128	0.413125
C108	C	0.293957	-0.105128	0.913125
C109	C	-0.205914	-0.563467	0.329724
C110	C	0.294086	-0.063467	0.829724
C111	C	-0.154872	-0.580535	0.312790
C112	C	0.345128	-0.080535	0.812790
C113	C	-0.066886	-0.559797	0.333828
C114	C	0.433114	-0.059797	0.833828
C115	C	-0.049903	-0.542809	0.350903
C116	C	0.450097	-0.042809	0.850903
C117	C	-0.008321	-0.626180	0.392654
C118	C	0.491679	-0.126180	0.892654
C119	C	-0.025304	-0.643170	0.375585
C120	C	0.474696	-0.143170	0.875585
C121	C	-0.066758	-0.559805	0.245702
C122	C	0.433242	-0.059805	0.745702
C123	C	-0.049671	-0.542819	0.194658
C124	C	0.450329	-0.042819	0.694658
C125	C	-0.008026	-0.626194	0.194706
C126	C	0.491974	-0.126194	0.694706
C127	C	-0.025111	-0.643179	0.245752
C128	C	0.474889	-0.143179	0.745752
C129	C	-0.054479	-0.609983	0.271248
C130	C	0.445521	-0.109983	0.771248
C131	C	-0.054597	-0.684821	0.346135
C132	C	0.445403	-0.184821	0.846135
C133	C	-0.002109	-0.556901	0.113746
C134	C	0.497891	-0.056901	0.613746
C135	C	-0.002869	-0.842328	0.398966
C136	C	0.497131	-0.342328	0.898966
C137	C	-0.002496	-0.556887	0.398501
C138	C	0.497504	-0.056887	0.898501
C139	C	-0.286914	-0.556929	0.397631
C140	C	0.213086	-0.056929	0.897631
N141	N	0.436349	-0.465146	0.490703
N142	N	0.936349	0.034854	0.990703
O143	O	0.592194	-0.469605	0.374236
O144	O	1.092194	0.030395	0.874236
O145	O	0.592389	-0.564393	0.502890
O146	O	1.092389	-0.064393	1.002890
O147	O	0.592305	-0.564176	0.421300
O148	O	1.092305	-0.064176	0.921300
O149	O	0.592277	-0.469822	0.455826
O150	O	1.092277	0.030178	0.955826
O151	O	0.511216	-0.537214	0.448415
O152	O	1.011216	-0.037214	0.948415
O153	O	0.511300	-0.537431	0.530004
O154	O	1.011300	-0.037431	1.030004
O155	O	0.511104	-0.442643	0.401350
O156	O	1.011104	0.057357	0.901350
Cu157	Cu	0.503798	-0.487575	0.468153
Cu158	Cu	1.003798	0.012425	0.968153
Cu159	Cu	0.599695	-0.519461	0.436087
Cu160	Cu	1.099695	-0.019461	0.936087
O161	O	0.511188	-0.442860	0.482940
O162	O	1.011188	0.057140	0.982940
N163	N	0.667145	-0.541890	0.413532
N164	N	1.167145	-0.041890	0.913532
N165	N	0.090108	-0.119085	0.490958
N166	N	0.590108	0.380915	0.990958
O167	O	-0.026275	0.036848	0.486394
O168	O	0.473725	0.536848	0.986394
O169	O	0.102381	0.036888	0.391584
O170	O	0.602381	0.536888	0.891584
O171	O	0.020751	0.036852	0.391854
O172	O	0.520751	0.536852	0.891854
O173	O	0.055356	0.036884	0.486124
O174	O	0.555356	0.536884	0.986124
O175	O	0.047821	-0.044242	0.418876
O176	O	0.547821	0.455758	0.918876
O177	O	0.129452	-0.044207	0.418606
O178	O	0.629452	0.455793	0.918606
O179	O	0.000796	-0.044246	0.513417
O180	O	0.500796	0.455754	1.013417
Cu181	Cu	0.067596	-0.051631	0.468479
Cu182	Cu	0.567596	0.448369	0.968479
Cu183	Cu	0.035582	0.044273	0.436522
Cu184	Cu	0.535582	0.544273	0.936522
O185	O	0.082426	-0.044211	0.513146
O186	O	0.582426	0.455789	1.013146
N187	N	0.013063	0.111726	0.414043
N188	N	0.513063	0.611726	0.914043
N189	N	0.090453	-0.465282	0.837001
N190	N	0.590453	0.034718	1.337001
O191	O	0.085913	-0.581648	0.992925
O192	O	0.585913	-0.081648	1.492925
O193	O	-0.008857	-0.452947	0.992970
O194	O	0.491143	0.047053	1.492970
O195	O	-0.008635	-0.534562	0.992946
O196	O	0.491365	-0.034562	1.492946
O197	O	0.085691	-0.500033	0.992949
O198	O	0.585691	-0.000033	1.492949
O199	O	0.018365	-0.507512	0.911855
O200	O	0.518365	-0.007512	1.411855
O201	O	0.018143	-0.425898	0.911878
O202	O	0.518143	0.074102	1.411878
O203	O	0.112912	-0.554598	0.911834
O204	O	0.612912	-0.054598	1.411834
Cu205	Cu	0.067993	-0.487778	0.904452
Cu206	Cu	0.567993	0.012222	1.404452
Cu207	Cu	0.036063	-0.519767	1.000352
Cu208	Cu	0.536063	-0.019767	1.500352
O209	O	0.112691	-0.472984	0.911857
O210	O	0.612691	0.027016	1.411857
N211	N	0.013602	-0.542269	1.067803
N212	N	0.513602	-0.042269	1.567803
C213	C	0.031188	-0.423114	0.392334
C214	C	0.531188	0.076886	0.892334
C215	C	0.132194	-0.524016	0.392223
C216	C	0.632194	-0.024016	0.892223
C217	C	0.072056	-0.584366	0.512840
C218	C	0.572056	-0.084366	1.012840
C219	C	-0.028950	-0.483464	0.512950
C220	C	0.471050	0.016536	1.012950
C221	C	0.551868	-0.563965	0.532655
C222	C	1.051868	-0.063965	1.032655
C223	C	0.551766	-0.563697	0.431617
C224	C	1.051766	-0.063697	0.931617
C225	C	0.551623	-0.443070	0.371586
C226	C	1.051623	0.056930	0.871586
C227	C	0.551728	-0.443339	0.472623
C228	C	1.051728	0.056661	0.972623
C229	C	0.132090	-0.003555	0.392006
C230	C	0.632090	0.496445	0.892006
C231	C	0.031035	-0.003698	0.392374
C232	C	0.531035	0.496302	0.892374
C233	C	-0.028947	-0.003703	0.512961
C234	C	0.471053	0.496297	1.012961
C235	C	0.072143	-0.003661	0.512626
C236	C	0.572143	0.496339	1.012626
C237	C	-0.008408	-0.423209	0.952430
C238	C	0.491592	0.076791	1.452430
C239	C	-0.008128	-0.524272	0.952385
C240	C	0.491872	-0.024272	1.452385
C241	C	0.112464	-0.584336	0.952374
C242	C	0.612464	-0.084336	1.452374
C243	C	0.112190	-0.483267	0.952401
C244	C	0.612190	0.016733	1.452401
H245	H	0.050098	-0.392105	0.730957
H246	H	0.550098	0.107895	1.230957
H247	H	0.551779	-0.593338	0.424228
H248	H	1.051779	-0.093338	0.924228
C249	C	0.082155	-0.003652	0.552639
C250	C	0.582155	0.496348	1.052639
N251	N	0.089696	-0.003646	0.582777
N252	N	0.589696	0.496354	1.082777
C253	C	0.551712	-0.403295	0.482603
C254	C	1.051712	0.096705	0.982603
N255	N	0.551699	-0.373133	0.490120
N256	N	1.051699	0.126867	0.990120
H257	H	-0.038161	-0.386246	0.952443
H258	H	0.461839	0.113754	1.452443
C259	C	0.081989	-0.634348	0.552927
C260	C	0.581989	-0.134348	1.052927
N261	N	0.089471	-0.671995	0.583120
N262	N	0.589471	-0.171995	1.083120
C263	C	0.551471	-0.402842	0.321694
C264	C	1.051471	0.097158	0.821694
N265	N	0.551332	-0.372534	0.284124
N266	N	1.051332	0.127466	0.784124
H267	H	0.169160	-0.531297	0.362501
H268	H	0.669160	-0.031297	0.862501
H269	H	-0.065919	-0.476185	0.542670
H270	H	0.434081	0.023815	1.042670
C271	C	0.181901	-0.003232	0.351693
C272	C	0.681901	0.496768	0.851693
N273	N	0.219419	-0.002987	0.321329
N274	N	0.719419	0.497013	0.821329
H275	H	0.237625	-0.324046	0.528499
H276	H	0.737625	0.175954	1.028499
C277	C	0.152631	-0.634300	0.952443
C278	C	0.652631	-0.134300	1.452443
N279	N	0.182874	-0.671943	0.952528
N280	N	0.682874	-0.171943	1.452528
C281	C	0.551941	-0.604167	0.582573
C282	C	1.051941	-0.104167	1.082573
N283	N	0.551997	-0.634448	0.620171
N284	N	1.051997	-0.134448	1.120171
H285	H	0.023621	-0.003702	0.362756
H286	H	0.523621	0.496298	0.862756
C287	C	-0.078871	-0.003690	0.553162
C288	C	0.421129	0.496310	1.053162
N289	N	-0.116478	-0.003669	0.583438
N290	N	0.383522	0.496331	1.083438
H291	H	0.141823	-0.475877	0.952395
H292	H	0.641823	0.024123	1.452395
H293	H	-0.037749	-0.531650	0.952352
H294	H	0.462251	-0.031650	1.452352
H295	H	0.080878	-0.361206	0.638363
H296	H	0.580878	0.138794	1.138363
H297	H	0.201378	-0.467681	0.730833
H298	H	0.701378	0.032319	1.230833
H299	H	0.232159	-0.436796	0.638236
H300	H	0.732159	0.063204	1.138236
H301	H	0.049948	-0.392069	0.564138
H302	H	0.549948	0.107931	1.064138
C303	C	0.210630	-0.476023	0.480053
C304	C	0.710630	0.023977	0.980053
N305	N	0.238106	-0.500327	0.455724
N306	N	0.738106	-0.000327	0.955724
C307	C	0.071366	-0.352820	0.603374
C308	C	0.571366	0.147180	1.103374
N309	N	0.043891	-0.328511	0.627698
N310	N	0.543891	0.171489	1.127698
H311	H	0.232048	-0.436761	0.519270
H312	H	0.732048	0.063239	1.019270
H313	H	0.237680	-0.473893	0.585645
H314	H	0.737680	0.026107	1.085645
C315	C	0.031277	-0.682357	0.312350
C316	C	0.531277	-0.182357	0.812350
N317	N	0.058460	-0.661248	0.292302
N318	N	0.558460	-0.161248	0.792302
H319	H	0.330218	-0.354891	0.497577
H320	H	0.830218	0.145109	0.997577
C321	C	0.202560	-0.325059	0.472027
C322	C	0.702560	0.174941	0.972027
N323	N	0.226854	-0.346191	0.444530
N324	N	0.726854	0.153809	0.944530
C325	C	0.166776	-0.217866	0.436336
C326	C	0.666776	0.282134	0.936336
N327	N	0.176957	-0.196710	0.394759
N328	N	0.676957	0.303290	0.894759
C329	C	0.079371	-0.217924	0.611406
C330	C	0.579371	0.282076	1.111406
N331	N	0.055049	-0.196790	0.638902
N332	N	0.555049	0.303210	1.138902
C333	C	0.115176	-0.325119	0.647097
C334	C	0.615176	0.174881	1.147097
N335	N	0.104996	-0.346275	0.688674
N336	N	0.604996	0.153725	1.188674
C337	C	0.337576	-0.518968	0.556781
C338	C	0.837576	-0.018968	1.056781
N339	N	0.358733	-0.560228	0.562766
N340	N	0.858733	-0.060228	1.062766
H341	H	0.023834	-0.386116	0.362662
H342	H	0.523834	0.113884	0.862662
C343	C	-0.099064	-0.523283	0.273747
C344	C	0.400936	-0.023283	0.773747
N345	N	-0.123396	-0.495777	0.294869
N346	N	0.376604	0.004223	0.794869
C347	C	0.024271	-0.662714	0.166666
C348	C	0.524271	-0.162714	0.666666
N349	N	0.048600	-0.690222	0.145546
N350	N	0.548600	-0.190222	0.645546
C351	C	-0.063191	-0.487616	0.166565
C352	C	0.436809	0.012384	0.666565
N353	N	-0.073375	-0.446039	0.145405
N354	N	0.426625	0.053961	0.645405
C355	C	-0.011773	-0.698371	0.389159
C356	C	0.488227	-0.198371	0.889159
N357	N	-0.001580	-0.739949	0.399381
N358	N	0.498420	-0.239949	0.899381
C359	C	-0.063428	-0.487608	0.337324
C360	C	0.436572	0.012392	0.837324
N361	N	-0.073615	-0.446030	0.327095
N362	N	0.426385	0.053970	0.827095
C363	C	-0.011600	-0.698381	0.273849
C364	C	0.488400	-0.198381	0.773849
N365	N	-0.001424	-0.739958	0.295010
N366	N	0.498576	-0.239958	0.795010
C367	C	-0.234188	-0.618657	0.468313
C368	C	0.265812	-0.118657	0.968313
N369	N	-0.255385	-0.628848	0.509880
N370	N	0.244615	-0.128848	1.009880
C371	C	0.066929	-0.789548	0.348120
C372	C	0.566929	-0.289548	0.848120
N373	N	0.108178	-0.810728	0.342181
N374	N	0.608178	-0.310728	0.842181
C375	C	0.023909	-0.662695	0.424988
C376	C	0.523909	-0.162695	0.924988
N377	N	0.048191	-0.690200	0.449338
N378	N	0.548191	-0.190200	0.949338
H379	H	-0.090726	-0.532768	0.309877
H380	H	0.409274	-0.032768	0.809877
H381	H	-0.127938	-0.689491	0.376175
H382	H	0.372062	-0.189491	0.876175
C383	C	-0.127002	-0.654494	0.432751
C384	C	0.372998	-0.154494	0.932751
N385	N	-0.105914	-0.678821	0.460289
N386	N	0.394086	-0.178821	0.960289
C387	C	-0.233915	-0.531173	0.293164
C388	C	0.266085	-0.031173	0.793164
N389	N	-0.255005	-0.506847	0.265627
N390	N	0.244995	-0.006847	0.765627
C391	C	-0.106514	-0.789372	0.414001
C392	C	0.393486	-0.289372	0.914001
N393	N	-0.133698	-0.810482	0.434065
N394	N	0.366302	-0.310482	0.934065
H395	H	-0.134040	-0.570516	0.271939
H396	H	0.365960	-0.070516	0.771939
