data_functionalizedCrystal
_audit_creation_method	'MofGen! by Chris Wilmer'
_symmetry_space_group_name_H-M	'P1'
_symmetry_Int_Tables_number	1
_symmetry_cell_setting	triclinic
loop_
_symmetry_equiv_pos_as_xyz
  x,y,z
_cell_length_a	16.120530
_cell_length_b	14.908520
_cell_length_c	14.908694
_cell_angle_alpha	83.255478
_cell_angle_beta	83.963005
_cell_angle_gamma	89.416769
loop_
_atom_site_label
_atom_site_type_symbol
_atom_site_fract_x
_atom_site_fract_y
_atom_site_fract_z
Zn1	Zn	1.282142	0.464621	-0.607157
Zn2	Zn	1.266834	0.606374	-0.463635
Zn3	Zn	1.135122	0.447353	-0.447261
Zn4	Zn	1.135087	0.607366	-0.607282
O5	O	1.204796	0.531428	-0.531334
O6	O	1.396777	0.490237	-0.594919
O7	O	1.242971	0.577638	-0.334429
O8	O	1.161046	0.323353	-0.461566
O9	O	1.385530	0.594382	-0.489474
O10	O	1.269061	0.336040	-0.579042
O11	O	1.146203	0.460806	-0.322399
O12	O	1.018453	0.461767	-0.461688
O13	O	1.160985	0.596072	-0.734300
O14	O	1.018426	0.579328	-0.579255
O15	O	1.269026	0.491198	-0.734208
O16	O	1.242936	0.732796	-0.489596
O17	O	1.146142	0.733524	-0.595132
C18	C	1.192898	0.765908	-0.544175
C19	C	1.187886	0.866226	-0.549704
C20	C	0.988189	0.518782	-0.518708
C21	C	0.895524	0.513394	-0.513330
C22	C	1.216710	0.545672	-0.768113
C23	C	1.221786	0.551741	-0.869014
C24	C	0.725865	0.503538	-0.503517
C25	C	0.684568	0.559389	-0.559221
C26	C	0.590164	0.553905	-0.553761
C27	C	0.820278	0.509021	-0.508976
C28	C	1.422249	0.544125	-0.544009
C29	C	1.514915	0.549536	-0.549411
C30	C	1.216765	0.296035	-0.518464
C31	C	1.221865	0.195725	-0.512979
C32	C	1.279373	1.053927	-0.450297
C33	C	1.274666	1.148184	-0.455489
C34	C	1.173770	1.149001	-0.565283
C35	C	1.178477	1.054744	-0.560092
C36	C	1.231279	1.007210	-0.502596
C37	C	1.235981	0.912950	-0.497400
C38	C	1.135090	0.913769	-0.607198
C39	C	1.130383	1.008026	-0.612390
C40	C	1.130541	0.441490	-1.046092
C41	C	1.135309	0.447190	-1.140897
C42	C	1.236083	0.568844	-1.153432
C43	C	1.231316	0.563144	-1.058626
C44	C	1.178544	0.499464	-1.004959
C45	C	1.173782	0.493761	-0.910153
C46	C	1.274551	0.615419	-0.922689
C47	C	1.279318	0.621119	-1.017494
C48	C	1.192981	0.517178	-0.295475
C49	C	1.188079	0.510864	-0.194570
H50	H	0.720114	0.611323	-0.611013
H51	H	1.322361	1.015223	-0.403475
H52	H	1.279035	0.620701	-1.197143
H53	H	0.690322	0.451608	-0.451730
H54	H	1.130816	0.441906	-0.866458
H55	H	1.278973	0.874248	-0.450581
Br56	Br	1.339943	1.211585	-0.384514
Br57	Br	1.102130	1.213528	-0.643323
Br58	Br	1.058731	1.072545	-0.690422
Br59	Br	1.070154	0.368513	-1.196717
H60	H	1.095926	0.875721	-0.649781
H61	H	1.322280	0.672968	-1.061203
H62	H	1.087581	0.389632	-1.002395
Br63	Br	1.339706	0.694099	-0.866863
