data_functionalizedCrystal
_audit_creation_method	'MofGen! by Chris Wilmer'
_symmetry_space_group_name_H-M	'P1'
_symmetry_Int_Tables_number	1
_symmetry_cell_setting	triclinic
loop_
_symmetry_equiv_pos_as_xyz
  x,y,z
_cell_length_a	6.817900
_cell_length_b	25.420350
_cell_length_c	19.551823
_cell_angle_alpha	81.513836
_cell_angle_beta	78.336624
_cell_angle_gamma	91.380385
loop_
_atom_site_label
_atom_site_type_symbol
_atom_site_fract_x
_atom_site_fract_y
_atom_site_fract_z
V1	V	-3.885266	-0.164345	0.096952
O2	O	-3.884917	-0.160964	-0.004375
O3	O	-3.828667	-0.163465	0.191965
O4	O	-3.779298	-0.235911	0.095585
O5	O	-3.934628	-0.088016	0.092673
V6	V	-4.377416	-0.155186	0.084817
O7	O	-4.127601	-0.184437	0.123570
O8	O	-4.585278	-0.135095	0.058199
O9	O	-4.210808	-0.156067	-0.010197
O10	O	-4.495161	-0.158568	0.186143
O11	O	-4.445450	-0.231515	0.089096
O12	O	-4.260177	-0.083621	0.086184
C13	C	-3.673536	-0.160935	0.215124
C14	C	-3.708163	-0.160692	0.292799
C15	C	-3.610561	-0.253347	0.092180
C16	C	-3.605150	-0.311853	0.091692
C17	C	-3.630661	-0.347013	0.155464
C18	C	-3.625599	-0.401987	0.155012
C19	C	-3.594985	-0.421799	0.090784
C20	C	-3.569482	-0.386633	0.027003
C21	C	-3.574565	-0.331660	0.027457
C22	C	-3.449988	-0.501283	0.038788
C23	C	-3.444895	-0.556255	0.038336
C24	C	-3.579317	-0.591354	0.089381
C25	C	-3.718813	-0.571475	0.140889
C26	C	-3.723895	-0.516502	0.141343
C27	C	-3.589472	-0.481407	0.090284
C28	C	-3.599344	-0.686124	0.152668
C29	C	-3.594293	-0.741099	0.152214
C30	C	-3.538156	-0.725743	0.024203
C31	C	-3.543227	-0.670769	0.024659
C32	C	-3.573812	-0.650963	0.088894
C33	C	-4.092243	-0.066182	0.089589
C34	C	-4.076607	-0.006575	0.090086
V35	V	-3.791441	0.082426	0.094863
O36	O	-3.723402	0.158755	0.090583
O37	O	-3.908684	0.010860	0.093498
O38	O	-3.958042	0.083307	0.189877
O39	O	-3.673703	0.085807	-0.006464
V40	V	-3.283574	0.091584	0.082724
O41	O	-3.583576	0.062334	0.121479
O42	O	-3.041239	0.111675	0.056104
O43	O	-3.389538	0.163150	0.084091
O44	O	-3.234215	0.015254	0.087002
O45	O	-3.283914	0.088202	0.184049
O46	O	-3.340181	0.090703	-0.012289
C47	C	-4.029282	-0.158595	-0.033351
C48	C	-3.973891	-0.158841	-0.111026
C49	C	-3.558275	0.180586	0.087497
C50	C	-3.563683	0.239093	0.087985
C51	C	-4.139567	0.085836	0.213034
C52	C	-4.194953	0.086082	0.290709
C53	C	-3.904079	-0.163210	0.332849
C54	C	-3.936615	-0.162987	0.405835
C55	C	-3.773223	-0.160236	0.438766
C56	C	-3.577279	-0.157721	0.398707
C57	C	-3.544749	-0.157949	0.325724
C58	C	-3.686841	-0.126862	0.545197
C59	C	-3.719378	-0.126630	0.618179
C60	C	-3.873549	-0.159534	0.663870
C61	C	-3.995214	-0.192663	0.636571
C62	C	-3.962683	-0.192891	0.563588
C63	C	-3.808476	-0.159988	0.517903
C64	C	-4.104757	-0.161811	0.783060
C65	C	-4.137286	-0.161592	0.856048
C66	C	-3.777945	-0.156320	0.848917
C67	C	-3.745422	-0.156545	0.775932
C68	C	-3.908835	-0.159288	0.743008
C69	C	-3.495312	0.088173	-0.035446
C70	C	-3.460684	0.087928	-0.113121
C71	C	-4.045896	0.083564	0.330750
C72	C	-4.097906	0.083803	0.403733
C73	C	-4.298977	0.086556	0.436674
C74	C	-4.448043	0.089075	0.396627
C75	C	-4.396030	0.088840	0.323645
C76	C	-3.624093	0.085183	-0.146041
C77	C	-3.591584	0.084960	-0.219026
C78	C	-3.395666	0.087480	-0.259090
C79	C	-3.232245	0.090227	-0.226165
C80	C	-3.264755	0.090453	-0.153182
H81	H	-3.655575	-0.330890	0.207768
Br82	Br	-4.204465	-0.237320	0.698572
H83	H	-3.882164	0.081321	0.303940
Br84	Br	-3.554295	-0.081660	0.655219
H85	H	-4.517423	0.090888	0.291048
H86	H	-3.828267	-0.600052	0.182457
Br87	Br	-3.527953	-0.413519	-0.060164
Br88	Br	-3.355530	-0.153992	0.443398
H89	H	-4.096158	-0.165037	0.438450
H90	H	-3.783634	0.083130	-0.113430
H91	H	-3.724672	0.082723	-0.245822
H92	H	-3.340513	-0.472709	-0.002781
Br93	Br	-4.125854	-0.166923	0.288167
Br94	Br	-3.351580	0.087174	-0.358139
Br95	Br	-3.539918	-0.283940	-0.059098
Br96	Br	-3.496648	-0.752625	-0.062965
H97	H	-3.072729	0.092279	-0.258796
Br98	Br	-3.628945	-0.788818	0.238770
H99	H	-3.131679	0.092685	-0.126384
Br100	Br	-3.278842	-0.154532	0.271367
H101	H	-4.341301	0.086750	0.496101
Br102	Br	-3.508525	-0.623048	-0.061895
H103	H	-4.061745	-0.219867	0.541364
Br104	Br	-3.660226	-0.449712	0.241566
Br105	Br	-4.720914	0.092818	0.441342
Br106	Br	-3.913209	-0.489523	0.211239
H107	H	-4.296828	-0.163646	0.888657
Br108	Br	-3.640849	-0.659240	0.239840
Br109	Br	-3.895573	0.080384	0.458067
H110	H	-4.237818	-0.164044	0.756252
H111	H	-3.644908	-0.154083	0.875729
Br112	Br	-3.479520	-0.153124	0.721574
Br113	Br	-3.255562	-0.583230	-0.031559
H114	H	-3.561280	-0.100069	0.508000
