data_functionalizedCrystal
_audit_creation_method	'MofGen! by Chris Wilmer'
_symmetry_space_group_name_H-M	'P1'
_symmetry_Int_Tables_number	1
_symmetry_cell_setting	triclinic
loop_
_symmetry_equiv_pos_as_xyz
  x,y,z
_cell_length_a	27.780882
_cell_length_b	27.780884
_cell_length_c	27.780936
_cell_angle_alpha	90.002261
_cell_angle_beta	59.997799
_cell_angle_gamma	119.999789
loop_
_atom_site_label
_atom_site_type_symbol
_atom_site_fract_x
_atom_site_fract_y
_atom_site_fract_z
O1	O	0.424592	-0.330213	-0.014321
O2	O	0.326022	-0.260214	0.014251
O3	O	0.424588	-0.260214	-0.084318
O4	O	0.326026	-0.330213	0.084247
O5	O	0.344528	-0.340274	-0.084318
O6	O	0.245962	-0.340274	0.014251
O7	O	0.344532	-0.410273	-0.014321
Zn8	Zn	0.282536	-0.387985	-0.000035
Zn9	Zn	0.388018	-0.282503	-0.000035
O10	O	0.245966	-0.410273	0.084248
C11	C	0.177734	-0.120430	0.029862
C12	C	0.211527	-0.056934	0.025772
C13	C	0.119397	-0.149664	0.030267
C14	C	0.177730	-0.207598	0.029867
C15	C	0.211519	-0.237303	0.025783
C16	C	0.119393	-0.236700	0.030273
C17	C	0.090568	-0.207596	0.029862
C18	C	0.031162	-0.237298	0.025772
C19	C	0.206427	-0.149666	0.030273
C20	C	-0.016831	-0.261295	0.022466
C21	C	0.238829	-0.005636	0.022467
C22	C	0.238818	-0.261301	0.022482
C23	C	-0.077040	-0.291400	0.018321
C24	C	0.273079	0.058719	0.018322
C25	C	0.273065	-0.291409	0.018343
O26	O	-0.234707	-0.410266	-0.014339
O27	O	-0.094711	-0.340265	0.014229
O28	O	-0.094704	-0.340270	-0.084338
O29	O	-0.234714	-0.410261	0.084228
O30	O	-0.094701	-0.260209	-0.084343
O31	O	-0.094708	-0.260204	0.014225
O32	O	-0.234704	-0.330205	-0.014344
Zn33	Zn	-0.164706	-0.282493	-0.000061
Zn34	Zn	-0.164709	-0.387977	-0.000054
O35	O	-0.234711	-0.330200	0.084223
C36	C	0.492828	-0.207603	-0.372394
C37	C	0.459037	-0.237307	-0.402098
C38	C	0.551166	-0.149673	-0.401496
C39	C	0.492828	-0.207604	-0.285228
C40	C	0.459036	-0.237307	-0.221733
C41	C	0.551166	-0.149673	-0.314463
C42	C	0.579994	-0.120438	-0.372393
C43	C	0.639400	-0.056943	-0.402096
C44	C	0.464132	-0.236706	-0.314464
C45	C	0.687394	-0.005646	-0.426092
C46	C	0.431736	-0.261304	-0.426095
C47	C	0.431736	-0.261304	-0.170435
C48	C	0.747605	0.058709	-0.456197
C49	C	0.397486	-0.291409	-0.456201
C50	C	0.397486	-0.291410	-0.106080
C51	C	0.580008	-0.462879	-0.029964
C52	C	0.639417	-0.433174	-0.025878
C53	C	0.551182	-0.520809	-0.030373
C54	C	0.492839	-0.462880	-0.029960
C55	C	0.459045	-0.433178	-0.025869
C56	C	0.464144	-0.520811	-0.030368
C57	C	0.492842	-0.550045	-0.029964
C58	C	0.459052	-0.613540	-0.025878
C59	C	0.551178	-0.433777	-0.030369
C60	C	0.431752	-0.664837	-0.022575
C61	C	0.687412	-0.409177	-0.022576
C62	C	0.431742	-0.409182	-0.022562
C63	C	0.397504	-0.729192	-0.018433
C64	C	0.747625	-0.379070	-0.018434
C65	C	0.397490	-0.379077	-0.018415
O66	O	0.344549	0.249047	-0.014343
O67	O	0.245980	0.080483	0.014226
O68	O	0.344550	0.179042	-0.084342
O69	O	0.245978	0.150488	0.084224
O70	O	0.424607	0.179040	-0.084336
O71	O	0.326036	0.080480	0.014231
O72	O	0.424605	0.249045	-0.014338
Zn73	Zn	0.388031	0.164762	-0.000053
Zn74	Zn	0.282554	0.164766	-0.000059
O75	O	0.326034	0.150486	0.084230
O76	O	0.905273	0.249033	-0.494995
O77	O	0.765273	0.080470	-0.425001
O78	O	0.765270	0.179032	-0.424994
O79	O	0.905276	0.150471	-0.495003
O80	O	0.765272	0.179034	-0.505055
O81	O	0.765275	0.080472	-0.505062
O82	O	0.905275	0.249035	-0.575056
Zn83	Zn	0.835275	0.164754	-0.552770
Zn84	Zn	0.835273	0.164751	-0.447287
O85	O	0.905278	0.150473	-0.575063
O86	O	0.326020	-0.330218	-0.575063
O87	O	0.424588	-0.260215	-0.505065
O88	O	0.326020	-0.260217	-0.505059
O89	O	0.424589	-0.330216	-0.575069
O90	O	0.245961	-0.340275	-0.425000
O91	O	0.344530	-0.340273	-0.425006
O92	O	0.245962	-0.410276	-0.495003
Zn93	Zn	0.282535	-0.387986	-0.447293
Zn94	Zn	0.388015	-0.282505	-0.552775
O95	O	0.344531	-0.410274	-0.495009
C96	C	0.090559	-0.550051	0.372323
C97	C	0.031152	-0.613546	0.402025
C98	C	0.119386	-0.520817	0.401426
C99	C	0.177725	-0.462885	0.285158
C100	C	0.211517	-0.433181	0.221663
C101	C	0.206420	-0.433783	0.314394
C102	C	0.177724	-0.462886	0.372324
C103	C	0.211515	-0.433183	0.402029
C104	C	0.119387	-0.520816	0.314392
C105	C	0.238815	-0.409187	0.426026
C106	C	-0.016842	-0.664843	0.426021
C107	C	0.238818	-0.409184	0.170365
C108	C	0.273064	-0.379082	0.456133
C109	C	-0.077053	-0.729198	0.456125
C110	C	0.273068	-0.379078	0.106010
C111	C	0.177761	-0.120445	-0.372420
C112	C	0.211554	-0.056951	-0.402125
C113	C	0.206457	-0.149682	-0.401521
C114	C	0.090590	-0.207608	-0.285252
C115	C	0.031179	-0.237308	-0.221756
C116	C	0.119418	-0.236712	-0.314485
C117	C	0.177759	-0.207612	-0.372416
C118	C	0.211551	-0.237318	-0.402117
C119	C	0.119420	-0.149677	-0.314489
C120	C	0.238852	-0.261316	-0.426113
C121	C	0.238857	-0.005654	-0.426124
C122	C	-0.016817	-0.261303	-0.170458
C123	C	0.273102	-0.291424	-0.456216
C124	C	0.273109	0.058701	-0.456232
C125	C	-0.077032	-0.291406	-0.106103
C126	C	-0.507174	-0.462860	0.372301
C127	C	-0.540966	-0.433155	0.402003
C128	C	-0.535872	-0.520790	0.401406
C129	C	-0.420004	-0.462864	0.285137
C130	C	-0.360594	-0.433163	0.221642
C131	C	-0.448834	-0.520794	0.314373
C132	C	-0.507175	-0.550027	0.372304
C133	C	-0.540968	-0.613521	0.402010
C134	C	-0.448833	-0.433760	0.314371
C135	C	-0.568270	-0.664818	0.426008
C136	C	-0.568268	-0.409157	0.425999
C137	C	-0.312597	-0.409168	0.170343
C138	C	-0.602522	-0.729173	0.456115
C139	C	-0.602518	-0.379050	0.456103
C140	C	-0.252383	-0.379064	0.105988
C141	C	0.580005	0.194619	-0.372405
C142	C	0.639409	0.190525	-0.402104
C143	C	0.551178	0.195023	-0.401510
C144	C	0.492843	0.194635	-0.285245
C145	C	0.459054	0.190558	-0.221751
C146	C	0.464149	0.195039	-0.314482
C147	C	0.492843	0.194621	-0.372410
C148	C	0.459052	0.190530	-0.402115
C149	C	0.551179	0.195036	-0.314476
C150	C	0.431752	0.187222	-0.426113
C151	C	0.687401	0.187216	-0.426097
C152	C	0.431754	0.187263	-0.170455
C153	C	0.397503	0.183075	-0.456220
C154	C	0.747609	0.183066	-0.456199
C155	C	0.397506	0.183130	-0.106101
O156	O	0.424649	0.249027	-0.575092
O157	O	0.326070	0.080461	-0.505095
O158	O	0.424629	0.179018	-0.505082
O159	O	0.326090	0.150471	-0.575105
O160	O	0.344563	0.179021	-0.425026
O161	O	0.246004	0.080464	-0.425039
O162	O	0.344583	0.249030	-0.495036
Zn163	Zn	0.282581	0.164748	-0.447327
Zn164	Zn	0.388072	0.164744	-0.552804
O165	O	0.246024	0.150474	-0.495049
C166	C	0.177742	0.134906	0.372298
C167	C	0.211532	0.138997	0.402003
C168	C	0.119406	0.134505	0.401398
C169	C	0.177741	0.134893	0.285133
C170	C	0.211531	0.138970	0.221639
C171	C	0.119406	0.134492	0.314364
C172	C	0.090580	0.134909	0.372293
C173	C	0.031176	0.139004	0.401992
C174	C	0.206435	0.134489	0.314370
C175	C	-0.016815	0.142313	0.425985
C176	C	0.238832	0.142304	0.426002
C177	C	0.238831	0.142265	0.170343
C178	C	-0.077023	0.146464	0.456086
C179	C	0.273081	0.146451	0.456109
C180	C	0.273079	0.146398	0.105989
H181	H	0.095271	-0.126191	0.030925
H182	H	0.575291	-0.126204	-0.449095
H183	H	0.417177	-0.284299	-0.290989
H184	H	0.253368	-0.126194	0.030932
H185	H	-0.582816	-0.544257	0.449005
H186	H	0.095283	0.133836	0.290888
H187	H	0.095249	-0.544287	0.449028
H188	H	-0.424704	-0.544265	0.290901
O189	O	0.090532	-0.293504	-0.286407
C190	C	0.032766	-0.313028	-0.228891
H191	H	0.012866	-0.285301	-0.227085
H192	H	0.047231	-0.308299	-0.196461
C193	C	0.001451	-0.412250	-0.214530
C194	C	-0.022994	-0.378199	-0.212313
H195	H	-0.032944	-0.452451	-0.204302
H196	H	0.040370	-0.399097	-0.253279
H197	H	0.013504	-0.408303	-0.187505
H198	H	-0.035039	-0.382141	-0.239343
H199	H	-0.061917	-0.391355	-0.173568
O200	O	0.262391	-0.121743	-0.458338
C201	C	0.247184	-0.153294	-0.494170
H202	H	0.189865	-0.181181	-0.471881
H203	H	0.265204	-0.183223	-0.500856
C204	C	0.354056	-0.075410	-0.581763
C205	C	0.283656	-0.109657	-0.554390
H206	H	0.376556	-0.048494	-0.618910
H207	H	0.364303	-0.054154	-0.557622
H208	H	0.369063	-0.100357	-0.587329
H209	H	0.268649	-0.084711	-0.548817
H210	H	0.273407	-0.130908	-0.578531
O211	O	0.090504	-0.548891	0.286483
C212	C	0.032741	-0.606407	0.324718
H213	H	0.012838	-0.608216	0.372347
H214	H	0.047210	-0.638835	0.314976
C215	C	0.001429	-0.620764	0.256809
C216	C	-0.023019	-0.622985	0.315307
H217	H	-0.032966	-0.630992	0.251002
H218	H	0.040346	-0.582016	0.231048
H219	H	0.013486	-0.647788	0.248698
H220	H	-0.035068	-0.595957	0.323415
H221	H	-0.061940	-0.661730	0.341070
H222	H	0.095296	-0.126201	-0.291020
O223	O	-0.420111	-0.376966	0.286462
C224	C	-0.458101	-0.357437	0.324699
H225	H	-0.487642	-0.385165	0.372327
H226	H	-0.495252	-0.362158	0.314955
C227	C	-0.373226	-0.258215	0.256794
C228	C	-0.409504	-0.292268	0.315291
H229	H	-0.343250	-0.218015	0.250989
H230	H	-0.347632	-0.271372	0.231032
H231	H	-0.404191	-0.262156	0.248681
H232	H	-0.378539	-0.288332	0.323401
H233	H	-0.435092	-0.279109	0.341054
O234	O	0.408072	-0.548870	-0.031047
C235	C	0.354340	-0.599690	0.019449
H236	H	0.363461	-0.594365	0.055406
H237	H	0.351911	-0.639841	0.007816
C238	C	0.275406	-0.614697	-0.002414
C239	C	0.286605	-0.608155	0.041751
H240	H	0.233622	-0.619921	0.011342
H241	H	0.311606	-0.580460	-0.036436
H242	H	0.273385	-0.648156	-0.012104
H243	H	0.288633	-0.574693	0.051434
H244	H	0.250403	-0.642387	0.075775
H245	H	0.417204	0.195694	-0.291009
H246	H	0.575310	0.195676	-0.449109
H247	H	0.575306	0.195692	-0.291005
O248	O	0.580021	-0.121575	-0.286541
C249	C	0.637812	-0.064076	-0.324800
H250	H	0.633191	-0.049675	-0.359824
H251	H	0.685485	-0.063585	-0.347004
C252	C	0.648458	-0.039073	-0.246270
C253	C	0.642780	-0.021383	-0.289284
H254	H	0.651525	-0.012738	-0.224363
H255	H	0.609525	-0.077812	-0.220495
H256	H	0.688186	-0.038664	-0.264780
H257	H	0.603048	-0.021800	-0.270774
H258	H	0.681707	0.017357	-0.315056
H259	H	0.095280	0.133853	0.448996
H260	H	0.575312	-0.544278	-0.031030
O261	O	0.262421	0.133680	0.286463
C262	C	0.281703	0.133443	0.324699
H263	H	0.235883	0.115351	0.372327
H264	H	0.323868	0.180341	0.314958
C265	C	0.363978	0.116491	0.256791
C266	C	0.307699	0.094266	0.315289
H267	H	0.380017	0.092327	0.250986
H268	H	0.350990	0.116653	0.231029
H269	H	0.399109	0.155572	0.248680
H270	H	0.272567	0.055188	0.323397
H271	H	0.320682	0.094096	0.341053
H272	H	0.095268	-0.284299	0.030928
O273	O	0.580056	-0.376987	-0.031168
C274	C	0.637817	-0.357462	-0.031412
H275	H	0.657728	-0.385181	-0.049515
H276	H	0.623344	-0.362199	0.015487
C277	C	0.669115	-0.258245	-0.048342
C278	C	0.693572	-0.292286	-0.070581
H279	H	0.703506	-0.218041	-0.072501
H280	H	0.630198	-0.271400	-0.048175
H281	H	0.657054	-0.262199	-0.009260
H282	H	0.705624	-0.288337	-0.109659
H283	H	0.732492	-0.279129	-0.070756
H284	H	0.253364	-0.386185	0.290920
