data_functionalizedCrystal
_audit_creation_method	'MofGen! by Chris Wilmer'
_symmetry_space_group_name_H-M	'P1'
_symmetry_Int_Tables_number	1
_symmetry_cell_setting	triclinic
loop_
_symmetry_equiv_pos_as_xyz
  x,y,z
_cell_length_a	31.640172
_cell_length_b	31.640172
_cell_length_c	31.640172
_cell_angle_alpha	89.991555
_cell_angle_beta	60.004780
_cell_angle_gamma	119.994991
loop_
_atom_site_label
_atom_site_type_symbol
_atom_site_fract_x
_atom_site_fract_y
_atom_site_fract_z
Zr1	Zr	0.462528	0.055401	0.407245
O2	O	0.550695	0.122890	0.339766
O3	O	0.374361	0.034713	0.427922
O4	O	0.462517	0.122880	0.427933
O5	O	0.462548	-0.034825	0.339756
O6	O	0.462508	0.122870	0.497490
O7	O	0.462539	0.034724	0.339755
O8	O	0.304814	-0.034844	0.497471
O9	O	0.620242	0.122890	0.339776
O10	O	0.410619	0.025882	0.488661
O11	O	0.410632	-0.026014	0.436752
O12	O	0.514424	0.077791	0.436764
O13	O	0.514437	0.025894	0.384856
Zr14	Zr	0.462528	-0.055535	0.518182
Zr15	Zr	0.462514	0.055386	0.518180
Zr16	Zr	0.462542	-0.055520	0.407246
Zr17	Zr	0.573448	0.055400	0.407260
Zr18	Zr	0.351608	-0.055534	0.518166
O19	O	0.550695	-0.034847	0.497504
O20	O	0.550675	0.122869	0.497502
O21	O	0.550715	-0.034826	0.339768
O22	O	0.374361	-0.123024	0.585660
O23	O	0.374341	0.034692	0.585658
O24	O	0.374381	-0.123003	0.427924
O25	O	0.462508	0.034691	0.585670
O26	O	0.462539	-0.123013	0.497493
O27	O	0.462548	-0.123004	0.427936
O28	O	0.462517	-0.034857	0.585671
O29	O	0.620231	0.122878	0.427955
O30	O	0.304825	-0.123012	0.497472
O31	O	0.304814	-0.123023	0.585651
O32	O	0.304803	-0.034856	0.585649
O33	O	0.620253	0.034722	0.339777
O34	O	0.620242	0.034710	0.427956
O35	O	0.410632	-0.077924	0.488662
O36	O	0.410619	-0.026028	0.540571
O37	O	0.514424	0.025881	0.488675
O38	O	0.514437	-0.026016	0.436766
C39	C	0.323784	-0.000065	0.462694
C40	C	0.276695	-0.000065	0.462688
C41	C	0.462510	0.138679	0.462711
C42	C	0.462504	0.185768	0.462711
C43	C	0.462545	-0.138813	0.462715
C44	C	0.462551	-0.185902	0.462716
C45	C	-0.015354	0.027018	0.489820
C46	C	-0.192349	0.027017	0.489830
O47	O	-0.215260	0.050037	0.512893
N48	N	-0.214472	-0.000071	0.462734
C49	C	-0.192345	-0.027164	0.435635
O50	O	-0.215227	-0.050208	0.412593
C51	C	-0.015353	-0.027166	0.435628
C52	C	0.006771	-0.000072	0.462722
C53	C	0.006770	0.054109	0.516912
C54	C	0.051019	0.054111	0.516907
C55	C	0.073143	0.027022	0.489809
C56	C	0.051020	-0.000070	0.462717
C57	C	0.006770	-0.054262	0.408533
C58	C	0.051019	-0.054261	0.408535
C59	C	0.073144	-0.027167	0.435629
C60	C	0.117393	-0.027157	0.435614
N61	N	0.139515	-0.000069	0.462711
C62	C	0.117390	0.027021	0.489808
C63	C	-0.285268	-0.027160	0.435640
C64	C	-0.329515	-0.027158	0.435641
C65	C	-0.329517	0.027022	0.489837
C66	C	-0.285266	0.027023	0.489833
C67	C	-0.263145	-0.000072	0.462737
C68	C	0.210316	0.027023	0.489795
C69	C	0.254570	0.027025	0.489785
C70	C	0.254566	-0.027158	0.435592
C71	C	0.210318	-0.027157	0.435599
C72	C	0.188193	-0.000066	0.462704
O73	O	0.140326	-0.050170	0.412568
O74	O	0.140271	0.050052	0.512857
C75	C	-0.059602	0.027016	0.489825
C76	C	-0.081726	-0.000076	0.462732
C77	C	-0.059601	-0.027166	0.435635
C78	C	-0.125973	-0.000075	0.462733
C79	C	-0.148098	0.027015	0.489831
C80	C	-0.125976	0.054103	0.516928
C81	C	-0.081727	0.054105	0.516922
C82	C	-0.081724	-0.054254	0.408538
C83	C	-0.125972	-0.054253	0.408545
C84	C	-0.148097	-0.027164	0.435643
C85	C	0.601272	-0.000068	0.462732
C86	C	0.648361	-0.000069	0.462739
C87	C	0.462545	-0.000048	0.323950
C88	C	0.462551	-0.000042	0.276855
C89	C	0.516719	0.504899	0.435629
C90	C	0.516729	0.681894	0.435629
O91	O	0.562812	0.727825	0.412610
N92	N	0.462544	0.676929	0.462718
C93	C	0.408353	0.627709	0.489810
O94	O	0.362266	0.627547	0.512855
C95	C	0.408343	0.450715	0.489812
C96	C	0.462532	0.455685	0.462718
C97	C	0.570903	0.509867	0.408537
C98	C	0.570899	0.465620	0.408535
C99	C	0.516712	0.416406	0.435624
C100	C	0.462528	0.411438	0.462716
C101	C	0.354153	0.401497	0.516908
C102	C	0.354155	0.357248	0.516907
C103	C	0.408343	0.362218	0.489813
C104	C	0.408338	0.317978	0.489803
N105	N	0.462523	0.322944	0.462715
C106	C	0.516710	0.372158	0.435626
C107	C	0.408362	0.720636	0.489806
C108	C	0.408364	0.764884	0.489805
C109	C	0.516740	0.819066	0.435625
C110	C	0.516738	0.774817	0.435623
C111	C	0.462547	0.725602	0.462718
C112	C	0.516699	0.279235	0.435623
C113	C	0.516691	0.234982	0.435621
C114	C	0.408316	0.180804	0.489804
C115	C	0.408323	0.225053	0.489803
C116	C	0.462520	0.274270	0.462712
O117	O	0.362280	0.272033	0.512816
O118	O	0.562790	0.372309	0.412594
C119	C	0.516722	0.549145	0.435631
C120	C	0.462538	0.544178	0.462722
C121	C	0.408351	0.494964	0.489812
C122	C	0.462540	0.588426	0.462721
C123	C	0.516727	0.637640	0.435632
C124	C	0.570912	0.642606	0.408544
C125	C	0.570909	0.598360	0.408541
C126	C	0.354166	0.489998	0.516900
C127	C	0.354174	0.534247	0.516900
C128	C	0.408361	0.583461	0.489810
C129	C	0.408337	-0.027173	0.011938
C130	C	0.408327	-0.027183	-0.165047
O131	O	0.362244	-0.050246	-0.164894
N132	N	0.462511	-0.000087	-0.214266
C133	C	0.516703	0.027011	-0.219238
O134	O	0.562790	0.050054	-0.265163
C135	C	0.516712	0.027018	-0.042253
C136	C	0.462524	-0.000076	0.006965
C137	C	0.354153	-0.054266	0.061154
C138	C	0.354156	-0.054260	0.105398
C139	C	0.408343	-0.027163	0.100425
C140	C	0.462527	-0.000071	0.051208
C141	C	0.570903	0.054113	-0.047226
C142	C	0.570901	0.054111	-0.002974
C143	C	0.516712	0.027017	0.046244
C144	C	0.516717	0.027032	0.090479
N145	N	0.462533	-0.000065	0.139698
C146	C	0.408346	-0.027162	0.144671
C147	C	0.516694	0.027007	-0.312155
C148	C	0.516691	0.027006	-0.356401
C149	C	0.408315	-0.027190	-0.302207
C150	C	0.408318	-0.027186	-0.257961
C151	C	0.462509	-0.000090	-0.262936
C152	C	0.408356	-0.027149	0.237583
C153	C	0.408364	-0.027140	0.281828
C154	C	0.516740	0.027054	0.227630
C155	C	0.516732	0.027047	0.183389
C156	C	0.462536	-0.000058	0.188369
O157	O	0.562776	0.050078	0.090366
O158	O	0.362265	-0.050211	0.190600
C159	C	0.408334	-0.027178	-0.032305
C160	C	0.462518	-0.000086	-0.081522
C161	C	0.516705	0.027011	-0.086494
C162	C	0.462516	-0.000087	-0.125768
C163	C	0.408329	-0.027184	-0.120795
C164	C	0.354144	-0.054281	-0.071576
C165	C	0.354147	-0.054276	-0.027332
C166	C	0.570890	0.054108	-0.135713
C167	C	0.570882	0.054101	-0.179955
C168	C	0.516695	0.027004	-0.174982
C169	C	0.462510	-0.000085	0.601477
C170	C	0.462504	-0.000092	0.648572
C171	C	0.323766	-0.000084	0.601457
C172	C	0.276672	-0.000090	0.648546
C173	C	0.323801	-0.138811	0.462696
C174	C	0.276718	-0.185900	0.462690
C175	C	0.323784	-0.138830	0.601459
C176	C	0.276695	-0.185924	0.648549
C177	C	0.601272	0.138696	0.323967
C178	C	0.648361	0.185791	0.276878
C179	C	0.601290	-0.000050	0.323969
C180	C	0.648384	-0.000044	0.276880
C181	C	0.601255	0.138677	0.462730
C182	C	0.648337	0.185766	0.462736
C183	C	0.254556	0.027009	0.643563
C184	C	0.210311	0.027014	0.687803
C185	C	0.188181	-0.000083	0.737026
C186	C	0.210302	-0.027182	0.742009
C187	C	0.254548	-0.027184	0.697769
C188	C	0.254608	-0.235114	0.489784
C189	C	0.210375	-0.279363	0.489777
C190	C	0.188250	-0.274396	0.462678
C191	C	0.210365	-0.225177	0.435581
C192	C	0.254600	-0.180929	0.435586
C193	C	0.254575	-0.180951	0.697763
C194	C	0.210336	-0.225198	0.742012
C195	C	0.188216	-0.274417	0.737047
C196	C	0.210340	-0.279389	0.687827
C197	C	0.254581	-0.235143	0.643579
C198	C	0.670486	0.180818	0.227664
C199	C	0.714738	0.225064	0.183414
C200	C	0.736861	0.274283	0.188380
C201	C	0.714734	0.279255	0.237599
C202	C	0.670486	0.235009	0.281848
C203	C	0.670505	-0.027138	0.281864
C204	C	0.714761	-0.027131	0.237623
C205	C	0.736893	-0.000032	0.188400
C206	C	0.714770	0.027065	0.183418
C207	C	0.670518	0.027060	0.227658
C208	C	0.670448	0.180783	0.489840
C209	C	0.714681	0.225023	0.489856
C210	C	0.736806	0.274246	0.462764
C211	C	0.714691	0.279229	0.435659
C212	C	0.670455	0.234989	0.435647
H213	H	0.272584	0.049090	0.511848
H214	H	0.560825	0.049075	-0.316215
H215	H	0.732682	0.220956	0.511927
F216	F	0.186796	-0.219895	0.794390
H217	H	0.272579	-0.140879	0.701816
H218	H	0.152192	-0.310440	0.773081
H219	H	0.652508	0.049122	0.223593
F220	F	0.646948	0.128439	0.222367
F221	F	-0.149510	-0.083090	0.379703
F222	F	0.186792	-0.331775	0.682550
F223	F	0.350651	0.219764	0.518634
H224	H	0.192345	-0.221141	0.413518
F225	F	-0.353048	-0.055988	0.406796
F226	F	0.574407	0.055885	0.222347
H227	H	0.310021	-0.076340	0.012740
F228	F	0.628579	0.082947	-0.099600
H229	H	0.732797	0.049128	0.143334
F230	F	0.646909	0.128400	0.518677
H231	H	0.652488	-0.049208	0.321940
F232	F	0.574382	0.331610	0.406789
H233	H	0.732766	-0.049198	0.241690
F234	F	0.278115	-0.240444	0.591203
F235	F	0.186845	-0.331741	0.518620
H236	H	0.560862	0.778869	0.413560
F237	F	0.574405	0.055893	0.131005
F238	F	0.738248	0.331620	0.406824
F239	F	0.141171	-0.321494	0.462678
H240	H	-0.347537	0.049080	0.511900
H241	H	0.772825	0.310265	0.462778
H242	H	0.732747	0.221006	0.143342
H243	H	-0.063715	-0.076315	0.386473
H244	H	0.192306	0.049081	0.683736
F245	F	0.646933	0.240300	0.406793
H246	H	0.615012	0.076169	-0.220029
H247	H	0.192306	0.049083	0.511867
H248	H	0.069028	0.076172	0.538971
H249	H	0.772891	0.310306	0.152346
H250	H	-0.011241	0.076168	0.538980
F251	F	0.783990	-0.000033	0.141320
H252	H	0.310023	-0.076341	-0.067533
F253	F	0.278125	-0.128552	0.406749
H254	H	0.732752	0.319334	0.241636
H255	H	-0.267255	0.049086	0.511895
F256	F	-0.261731	-0.056000	0.406800
H257	H	0.272549	-0.049254	0.701834
F258	F	0.646939	0.240310	0.334224
H259	H	0.272617	-0.239168	0.511851
H260	H	-0.011237	-0.076326	0.386471
H261	H	0.192311	-0.049213	0.413530
F262	F	0.074558	-0.083101	0.379695
H263	H	0.272590	-0.049212	0.413528
H264	H	-0.063717	0.076168	0.538985
F265	F	0.628575	0.470917	0.379690
F266	F	0.574369	0.240277	0.406779
F267	F	-0.149528	0.082936	0.545765
F268	F	0.628581	0.562242	0.379702
H269	H	0.364239	0.760831	0.511861
F270	F	0.350681	0.668259	0.518638
F271	F	0.296477	0.396196	0.545746
F272	F	0.296476	0.304870	0.545750
F273	F	0.574411	0.871451	0.406795
H274	H	0.364198	0.140727	0.511857
F275	F	0.141089	-0.000077	0.784106
F276	F	0.628582	0.694991	0.379711
F277	F	0.628584	0.603656	0.379701
H278	H	0.310044	0.530192	0.538961
F279	F	0.278102	0.055853	0.591180
F280	F	0.350687	-0.055977	0.334210
F281	F	0.296490	0.437623	0.545727
F282	F	0.296481	-0.083101	0.157776
F283	F	0.350674	-0.055997	0.242890
F284	F	0.350644	-0.056023	-0.205582
F285	F	0.296475	-0.083111	0.066458
F286	F	0.350645	-0.056029	-0.296922
H287	H	0.560817	0.049075	-0.396474
F288	F	0.628580	0.082950	-0.008275
H289	H	0.615016	0.076175	-0.139771
H290	H	0.192277	-0.049243	0.782092
