data_functionalizedCrystal
_audit_creation_method	'MofGen! by Chris Wilmer'
_symmetry_space_group_name_H-M	'P1'
_symmetry_Int_Tables_number	1
_symmetry_cell_setting	triclinic
loop_
_symmetry_equiv_pos_as_xyz
  x,y,z
_cell_length_a	19.188930
_cell_length_b	10.723024
_cell_length_c	9.798715
_cell_angle_alpha	90.003391
_cell_angle_beta	89.991738
_cell_angle_gamma	96.193675
loop_
_atom_site_label
_atom_site_type_symbol
_atom_site_fract_x
_atom_site_fract_y
_atom_site_fract_z
O1	O	0.097922	-1.655155	-0.113499
O2	O	0.107295	-1.291808	-0.113506
O3	O	0.001021	-1.483967	-0.113476
O4	O	0.204196	-1.462996	-0.113529
O5	O	0.001021	-1.483952	0.113507
O6	O	0.107295	-1.291793	0.113477
O7	O	0.097922	-1.655140	0.113483
Zn8	Zn	0.102608	-1.473465	0.149518
Zn9	Zn	0.102609	-1.473483	-0.149541
O10	O	0.204196	-1.462982	0.113453
C11	C	0.106613	-1.245315	-0.000015
C12	C	0.104572	-1.106803	-0.000016
C13	C	-0.024995	-1.483280	0.000019
C14	C	-0.102512	-1.481242	0.000031
N15	N	0.102608	-1.473461	0.353618
C16	C	-0.146704	-1.593994	0.000040
C17	C	-0.219540	-1.592079	0.000018
C18	C	-0.248182	-1.477405	0.000015
C19	C	-0.203981	-1.364638	-0.000001
C20	C	-0.131146	-1.366556	0.000007
N21	N	-0.356756	-1.389745	0.077260
N22	N	-0.425947	-1.387931	0.077255
C23	C	-0.467628	-1.471618	-0.000013
N24	N	-0.437506	-1.557208	-0.077259
N25	N	-0.368310	-1.559026	-0.077248
C26	C	-0.327158	-1.475312	0.000005
C27	C	-0.590797	-1.582302	-0.000030
C28	C	-0.663634	-1.580382	-0.000061
C29	C	-0.648073	-1.352937	-0.000066
C30	C	-0.575238	-1.354860	-0.000049
C31	C	-0.546604	-1.469546	-0.000025
C32	C	0.230211	-1.463668	-0.000045
C33	C	0.307729	-1.465706	-0.000066
C34	C	0.098604	-1.701633	-0.000011
C35	C	0.100645	-1.840145	-0.000019
C36	C	0.164037	-1.030586	-0.000033
C37	C	0.161930	-0.887427	-0.000034
N38	N	0.102604	-1.473497	-0.353640
C39	C	0.057789	-1.554147	0.421407
C40	C	0.057787	-1.554167	0.578570
H41	H	-0.123395	-1.687380	0.000055
C42	C	0.033683	-1.051782	0.000002
N43	N	-0.019712	-1.010341	0.000014
C44	C	0.005941	-1.647432	0.342633
N45	N	-0.033116	-1.717690	0.283302
C46	C	-0.235488	-1.238496	0.000005
N47	N	-0.259219	-1.143481	0.000010
C48	C	0.005948	-1.647493	0.657323
N49	N	-0.033100	-1.717786	0.716643
H50	H	0.212836	-0.821937	-0.000054
H51	H	-0.699615	-1.672202	-0.000061
H52	H	0.216508	-1.071319	-0.000039
H53	H	0.049735	-0.905627	-0.000013
C54	C	0.154444	-1.380167	0.567615
N55	N	0.193490	-1.309870	0.508295
H56	H	0.140974	-1.404392	0.411931
H57	H	-0.255527	-1.683899	0.000019
H58	H	-0.567482	-1.675686	-0.000017
C59	C	-0.679575	-1.226793	-0.000074
N60	N	-0.703305	-1.131778	-0.000083
C61	C	-0.082533	-1.242514	0.000001
N62	N	-0.045917	-1.149083	0.000000
H63	H	-0.539256	-1.263044	-0.000049
