data_functionalizedCrystal
_audit_creation_method	'MofGen! by Chris Wilmer'
_symmetry_space_group_name_H-M	'P1'
_symmetry_Int_Tables_number	1
_symmetry_cell_setting	triclinic
loop_
_symmetry_equiv_pos_as_xyz
  x,y,z
_cell_length_a	12.594516
_cell_length_b	12.759395
_cell_length_c	12.759387
_cell_angle_alpha	90.022941
_cell_angle_beta	89.971510
_cell_angle_gamma	89.985694
loop_
_atom_site_label
_atom_site_type_symbol
_atom_site_fract_x
_atom_site_fract_y
_atom_site_fract_z
Zn1	Zn	-0.423736	-1.606259	-0.594090
Zn2	Zn	0.076264	-1.106259	-0.094090
Zn3	Zn	-0.601753	-1.606145	-0.418418
Zn4	Zn	-0.101753	-1.106145	0.081582
Zn5	Zn	-0.423783	-1.430557	-0.418419
Zn6	Zn	0.076217	-0.930557	0.081581
Zn7	Zn	-0.601667	-1.430545	-0.594049
Zn8	Zn	-0.101667	-0.930545	-0.094049
O9	O	-0.512735	-1.518377	-0.506244
O10	O	-0.012735	-1.018377	-0.006244
O11	O	-0.447366	-1.753265	-0.570803
O12	O	0.052634	-1.253265	-0.070803
O13	O	-0.578201	-1.582811	-0.271397
O14	O	-0.078201	-1.082811	0.228603
O15	O	-0.274831	-1.453917	-0.441740
O16	O	0.225169	-0.953917	0.058260
O17	O	-0.578154	-1.753181	-0.441737
O18	O	-0.078154	-1.253181	0.058263
O19	O	-0.274796	-1.583004	-0.570805
O20	O	0.225204	-1.083004	-0.070805
O21	O	-0.447447	-1.453807	-0.271398
O22	O	0.052553	-0.953807	0.228602
O23	O	-0.447364	-1.283534	-0.441701
O24	O	0.052636	-0.783534	0.058299
O25	O	-0.578008	-1.453897	-0.741076
O26	O	-0.078008	-0.953897	-0.241076
O27	O	-0.578054	-1.283526	-0.570735
O28	O	-0.078054	-0.783526	-0.070735
O29	O	-0.447283	-1.582993	-0.741106
O30	O	0.052717	-1.082993	-0.241106
O31	O	-0.750687	-1.582799	-0.441698
O32	O	-0.250687	-1.082799	0.058302
O33	O	-0.750624	-1.453787	-0.570733
O34	O	-0.250624	-0.953787	-0.070733
C35	C	-0.512706	-1.245409	-0.506214
C36	C	-0.012706	-0.745409	-0.006214
C37	C	-0.512719	-1.128632	-0.506227
C38	C	-0.012719	-0.628632	-0.006227
C39	C	-0.376763	-0.909284	-0.640868
C40	C	0.123237	-0.409284	-0.140868
C41	C	-0.308769	-0.964194	-0.708164
C42	C	0.191231	-0.464194	-0.208164
C43	C	-0.308756	-1.073916	-0.708149
C44	C	0.191244	-0.573916	-0.208149
C45	C	-0.376746	-1.128730	-0.640833
C46	C	0.123254	-0.628730	-0.140833
C47	C	-0.444739	-1.073820	-0.573537
C48	C	0.055261	-0.573820	-0.073537
C49	C	-0.444743	-0.964096	-0.573557
C50	C	0.055257	-0.464096	-0.073557
C51	C	-0.580713	-1.073723	-0.438931
C52	C	-0.080713	-0.573723	0.061069
C53	C	-0.580722	-0.964001	-0.438938
C54	C	-0.080722	-0.464001	0.061062
C55	C	-0.648703	-1.128537	-0.371615
C56	C	-0.148703	-0.628537	0.128385
C57	C	-0.716692	-1.073628	-0.304312
C58	C	-0.216692	-0.573628	0.195688
C59	C	-0.716702	-0.963899	-0.304329
C60	C	-0.216702	-0.463899	0.195671
C61	C	-0.648716	-0.909091	-0.371642
C62	C	-0.148716	-0.409091	0.128358
C63	C	-0.789276	-1.518308	-0.506234
C64	C	-0.289276	-1.018308	-0.006234
C65	C	-0.907581	-1.518374	-0.506265
C66	C	-0.407581	-1.018374	-0.006265
C67	C	-0.976839	-1.448198	-0.576398
C68	C	-0.476839	-0.948198	-0.076398
C69	C	-1.047707	-1.422596	-0.480530
C70	C	-0.547707	-0.922596	0.019470
C71	C	-1.047512	-1.544072	-0.602149
C72	C	-0.547512	-1.044072	-0.102149
C73	C	-0.976891	-1.492722	-0.410346
C74	C	-0.476891	-0.992722	0.089654
C75	C	-0.976690	-1.614242	-0.532030
C76	C	-0.476690	-1.114242	-0.032030
C77	C	-1.047526	-1.588677	-0.436096
C78	C	-0.547526	-1.088677	0.063904
C79	C	-0.235114	-1.518474	-0.506277
C80	C	0.264886	-1.018474	-0.006277
C81	C	-0.116808	-1.518516	-0.506292
C82	C	0.383192	-1.018516	-0.006292
C83	C	-0.512630	-1.518456	-0.780278
C84	C	-0.012630	-1.018456	-0.280278
C85	C	-0.512586	-1.518490	-0.897054
C86	C	-0.012586	-1.018490	-0.397054
C87	C	-0.512753	-0.792410	-0.506266
C88	C	-0.012753	-0.292410	-0.006266
C89	C	-0.512733	-0.909187	-0.506254
C90	C	-0.012733	-0.409187	-0.006254
C91	C	-0.376470	-1.652927	-0.897106
C92	C	0.123530	-1.152927	-0.397106
C93	C	-0.308397	-1.720160	-0.951992
C94	C	0.191603	-1.220160	-0.451992
C95	C	-0.308358	-1.720185	-1.061714
C96	C	0.191642	-1.220185	-0.561714
C97	C	-0.376398	-1.652968	-1.116551
C98	C	0.123602	-1.152968	-0.616551
C99	C	-0.444472	-1.585735	-1.061665
C100	C	0.055528	-1.085735	-0.561665
C101	C	-0.444505	-1.585719	-0.951941
C102	C	0.055495	-1.085719	-0.451941
C103	C	-0.580580	-1.451295	-1.061614
C104	C	-0.080580	-0.951295	-0.561614
C105	C	-0.580626	-1.451273	-0.951892
C106	C	-0.080626	-0.951273	-0.451892
C107	C	-0.648620	-1.384078	-1.116452
C108	C	-0.148620	-0.884078	-0.616452
C109	C	-0.716701	-1.316848	-1.061566
C110	C	-0.216701	-0.816848	-0.561566
C111	C	-0.716738	-1.316826	-0.951837
C112	C	-0.216738	-0.816826	-0.451837
C113	C	-0.648700	-1.384040	-0.897006
C114	C	-0.148700	-0.884040	-0.397006
C115	C	-0.512762	-1.518358	-0.233277
C116	C	-0.012762	-1.018358	0.266723
C117	C	-0.512506	-1.518528	-0.116500
C118	C	-0.012506	-1.018528	0.383500
H119	H	-0.376744	-0.819943	-0.640863
H120	H	0.123256	-0.319943	-0.140863
H121	H	-0.772076	-0.919198	-0.249532
H122	H	-0.272076	-0.419198	0.250468
H123	H	-0.648580	-1.384099	-1.205793
H124	H	-0.148580	-0.884099	-0.705793
H125	H	-0.253416	-0.919552	-0.762973
H126	H	0.246584	-0.419552	-0.262973
H127	H	-0.945475	-1.695232	-0.553846
H128	H	-0.445475	-1.195232	-0.053846
H129	H	-0.376351	-1.652986	-1.205893
H130	H	0.123649	-1.152986	-0.705893
H131	H	-0.252920	-1.774926	-1.106402
H132	H	0.247080	-1.274926	-0.606402
H133	H	-0.648704	-0.819750	-0.371649
H134	H	-0.148704	-0.319750	0.128351
H135	H	-0.945800	-1.388745	-0.635621
H136	H	-0.445800	-0.888745	-0.135621
H137	H	-0.252998	-1.774884	-0.907331
H138	H	0.247002	-1.274884	-0.407331
H139	H	-1.078925	-1.341588	-0.458760
H140	H	-0.578925	-0.841588	0.041240
H141	H	-0.772088	-1.262120	-1.106223
H142	H	-0.272088	-0.762120	-0.606223
H143	H	-0.945998	-1.470951	-0.329246
H144	H	-0.445998	-0.970951	0.170754
H145	H	-1.078368	-1.648084	-0.376729
H146	H	-0.578368	-1.148084	0.123271
H147	H	-1.078533	-1.565749	-0.683226
H148	H	-0.578533	-1.065749	-0.183226
H149	H	-0.648693	-1.217878	-0.371614
H150	H	-0.148693	-0.717878	0.128386
H151	H	-0.772049	-1.118266	-0.249514
H152	H	-0.272049	-0.618266	0.250486
H153	H	-0.376505	-1.652922	-0.807764
H154	H	0.123495	-1.152922	-0.307764
H155	H	-0.376738	-1.218071	-0.640837
H156	H	0.123262	-0.718071	-0.140837
H157	H	-0.648727	-1.384033	-0.807665
H158	H	-0.148727	-0.884033	-0.307665
H159	H	-0.253391	-1.118623	-0.762949
H160	H	0.246609	-0.618623	-0.262949
H161	H	-0.772160	-1.262065	-0.907155
H162	H	-0.272160	-0.762065	-0.407155
