data_functionalizedCrystal
_audit_creation_method	'MofGen! by Chris Wilmer'
_symmetry_space_group_name_H-M	'P1'
_symmetry_Int_Tables_number	1
_symmetry_cell_setting	triclinic
loop_
_symmetry_equiv_pos_as_xyz
  x,y,z
_cell_length_a	10.654550
_cell_length_b	13.339070
_cell_length_c	9.130313
_cell_angle_alpha	90.000326
_cell_angle_beta	89.996220
_cell_angle_gamma	100.057099
loop_
_atom_site_label
_atom_site_type_symbol
_atom_site_fract_x
_atom_site_fract_y
_atom_site_fract_z
O1	O	1.715926	0.142430	-0.121918
O2	O	1.355030	0.156000	-0.121894
O3	O	1.494059	0.001661	-0.121899
O4	O	1.576897	0.296769	-0.121913
O5	O	1.494058	0.001665	0.121700
O6	O	1.355029	0.156004	0.121705
O7	O	1.715925	0.142434	0.121681
Cu8	Cu	1.535477	0.149219	0.143935
Cu9	Cu	1.535478	0.149215	-0.144149
O10	O	1.576896	0.296773	0.121686
C11	C	1.307895	0.155006	-0.000092
C12	C	1.167445	0.152025	-0.000083
C13	C	1.118643	0.242897	-0.000108
C14	C	0.986674	0.240090	-0.000134
C15	C	0.952320	0.055530	-0.000113
C16	C	1.084286	0.058338	-0.000078
C17	C	1.138476	0.349452	-0.000126
C18	C	1.006507	0.346644	-0.000152
C19	C	1.480065	-0.036124	-0.000101
C20	C	1.438355	-0.148719	-0.000104
C21	C	1.762670	-0.511236	-0.000124
C22	C	1.801862	-0.405449	-0.000113
C23	C	1.710989	-0.341261	-0.000111
C24	C	1.580916	-0.382872	-0.000120
C25	C	1.541720	-0.488670	-0.000119
C26	C	1.490039	-0.318694	-0.000106
C27	C	1.359966	-0.360305	-0.000115
C28	C	1.320776	-0.466093	-0.000116
C29	C	1.411650	-0.530280	-0.000117
C30	C	1.529235	-0.212896	-0.000107
C31	C	1.308285	-0.190329	-0.000102
C32	C	1.269093	-0.296117	-0.000113
C33	C	1.763060	0.143428	-0.000125
C34	C	1.903510	0.146409	-0.000144
C35	C	1.590890	0.334559	-0.000116
C36	C	1.632600	0.447153	-0.000122
N37	N	1.535485	0.149222	0.346558
N38	N	1.535477	0.149204	-0.346771
C39	C	1.597077	0.080904	0.423208
C40	C	1.597069	0.080892	0.576545
C41	C	1.473877	0.217525	0.576568
C42	C	1.473878	0.217531	0.423234
C43	C	1.668206	0.002023	0.423195
C44	C	1.668198	0.002011	0.576532
H45	H	1.181878	0.391127	0.101823
H46	H	1.185588	0.383378	-0.105300
C47	C	1.729617	-0.199567	-0.125347
C48	C	1.672203	-0.167162	-0.000116
H49	H	1.817884	-0.171327	-0.125357
H50	H	1.719278	-0.271749	-0.125333
H51	H	1.690639	-0.177585	-0.210282
H52	H	1.711175	-0.189151	0.084820
H53	H	1.682552	-0.094964	-0.000116
H54	H	1.423717	0.273140	0.639014
C55	C	1.224174	-0.058275	-0.125339
C56	C	1.208381	-0.119787	-0.000109
H57	H	1.162496	-0.014727	-0.125343
H58	H	1.307236	-0.018357	-0.125331
H59	H	1.213476	-0.100028	-0.210275
H60	H	1.219088	-0.078034	0.084827
H61	H	1.125299	-0.159709	-0.000104
C62	C	1.063254	0.421536	0.235072
C63	C	0.959517	0.390120	0.141810
H64	H	1.034240	0.448378	0.322707
H65	H	1.102912	0.364995	0.257911
H66	H	1.122955	0.472555	0.187853
H67	H	0.899821	0.339095	0.189026
H68	H	0.919840	0.446668	0.118973
C69	C	1.110916	-0.448273	-0.000105
C70	C	1.126119	-0.341863	-0.000107
H71	H	1.022650	-0.476513	-0.000092
H72	H	1.149882	-0.470237	-0.085050
H73	H	1.149890	-0.470236	0.084847
H74	H	1.087153	-0.319900	-0.085065
H75	H	1.087136	-0.319891	0.084847
H76	H	1.124015	-0.015659	-0.000036
C77	C	1.690347	-0.145652	0.281781
C78	C	1.603713	-0.103188	0.366993
H79	H	1.650528	-0.210603	0.247090
H80	H	1.716885	-0.102343	0.200884
H81	H	1.762376	-0.152822	0.339592
H82	H	1.531688	-0.096011	0.309179
H83	H	1.577157	-0.146507	0.447901
C84	C	1.890788	0.057243	0.473179
C85	C	1.802555	0.035357	0.358968
H86	H	1.973729	0.077817	0.433524
H87	H	1.869133	0.110562	0.531730
H88	H	1.889355	-0.001816	0.531727
H89	H	1.803982	0.094418	0.300426
H90	H	1.824217	-0.017967	0.300393
H91	H	0.978331	0.386791	-0.102107
H92	H	1.742907	-0.255125	-0.000102
C93	C	0.784014	-0.054703	-0.125366
C94	C	0.860910	-0.047448	-0.000122
H95	H	0.727590	-0.118282	-0.125375
H96	H	0.736063	-0.000992	-0.125371
H97	H	0.836242	-0.049772	-0.210292
H98	H	0.808682	-0.052372	0.084805
H99	H	0.908865	-0.101174	-0.000104
H100	H	1.907767	-0.371577	-0.000104
C101	C	1.352098	0.352577	0.438666
C102	C	1.406165	0.292622	0.338979
H103	H	1.310299	0.398940	0.386647
H104	H	1.292112	0.310017	0.498469
H105	H	1.417223	0.389450	0.498472
H106	H	1.341038	0.255744	0.279180
H107	H	1.466156	0.335189	0.279150
H108	H	1.836644	-0.563506	-0.000114
C109	C	1.466652	-0.110624	0.593346
C110	C	1.593466	-0.097440	0.640716
H111	H	1.420527	-0.172027	0.632959
H112	H	1.429299	-0.054821	0.625512
H113	H	1.464129	-0.113981	0.489436
H114	H	1.595989	-0.094075	0.744626
H115	H	1.630829	-0.153257	0.608558
H116	H	1.379745	-0.616422	-0.000132
H117	H	1.214863	-0.499968	-0.000111
H118	H	1.770577	0.019386	0.618141
