data_functionalizedCrystal
_audit_creation_method	'MofGen! by Chris Wilmer'
_symmetry_space_group_name_H-M	'P1'
_symmetry_Int_Tables_number	1
_symmetry_cell_setting	triclinic
loop_
_symmetry_equiv_pos_as_xyz
  x,y,z
_cell_length_a	12.837943
_cell_length_b	10.654550
_cell_length_c	11.892095
_cell_angle_alpha	93.928097
_cell_angle_beta	85.689438
_cell_angle_gamma	89.656922
loop_
_atom_site_label
_atom_site_type_symbol
_atom_site_fract_x
_atom_site_fract_y
_atom_site_fract_z
O1	O	1.384377	0.319511	-0.093978
O2	O	1.082456	0.303370	-0.093985
O3	O	1.240358	0.129459	-0.093977
O4	O	1.226475	0.493422	-0.093986
O5	O	1.227192	0.143935	0.094030
O6	O	1.069290	0.317845	0.094022
O7	O	1.371211	0.333987	0.094029
Zn8	Zn	1.218160	0.328214	0.123876
Zn9	Zn	1.235507	0.309142	-0.123831
O10	O	1.213309	0.507898	0.094021
C11	C	1.037213	0.305155	0.000018
C12	C	0.922020	0.288892	0.000015
C13	C	0.682466	0.484397	0.000027
C14	C	0.574230	0.469123	0.000025
C15	C	0.597310	0.243071	0.000018
C16	C	0.705546	0.258345	0.000020
C17	C	0.748119	0.379012	0.000023
C18	C	0.856358	0.394285	0.000016
C19	C	0.879435	0.168234	0.000017
C20	C	0.771199	0.152960	0.000016
C21	C	1.232756	0.089788	0.000025
C22	C	1.229706	-0.049989	0.000021
C23	C	1.322676	-0.119329	0.000027
C24	C	1.319805	-0.250664	0.000019
C25	C	1.130985	-0.243306	0.000004
C26	C	1.133858	-0.111974	0.000004
C27	C	1.418525	-0.057343	0.000044
C28	C	1.511502	-0.126683	0.000050
C29	C	1.508631	-0.258018	0.000042
C30	C	1.412782	-0.320013	0.000028
C31	C	1.416454	0.332202	0.000024
C32	C	1.531648	0.348464	0.000019
C33	C	1.220912	0.547569	0.000017
C34	C	1.223962	0.687345	0.000013
N35	N	1.206330	0.341231	0.292929
N36	N	1.247346	0.296117	-0.292885
C37	C	1.329670	0.205471	0.529583
C38	C	1.321408	0.214579	0.647925
C39	C	1.181539	0.368549	0.647956
C40	C	1.189801	0.359440	0.529614
C41	C	1.263870	0.277900	0.470432
C42	C	1.272137	0.268799	0.352089
C43	C	1.132263	0.422761	0.352122
C44	C	1.124001	0.431870	0.470463
H45	H	0.520778	0.554939	0.000032
H46	H	1.078687	0.481742	0.303948
C47	C	1.043646	0.520590	0.534575
C48	C	1.063355	0.643907	0.505765
C49	C	0.989344	0.725670	0.564786
H50	H	1.048068	0.515812	0.613545
H51	H	0.975643	0.497189	0.515166
H52	H	1.131340	0.667301	0.525182
H53	H	1.058924	0.648725	0.426805
H54	H	0.921341	0.702270	0.545377
H55	H	0.993773	0.720881	0.643754
H56	H	1.002700	0.809348	0.545239
C57	C	0.902453	0.525351	-0.000155
C58	C	0.875908	0.582398	-0.096861
C59	C	0.918336	0.703145	-0.097046
H60	H	0.976319	0.519535	-0.000215
H61	H	0.875355	0.574388	0.065377
H62	H	0.903011	0.533372	-0.162376
H63	H	0.802049	0.588246	-0.096821
H64	H	0.891238	0.752182	-0.031514
H65	H	0.992201	0.697317	-0.097103
H66	H	0.900323	0.741871	-0.162654
C67	C	0.728569	0.615459	-0.000154
C68	C	0.702032	0.672496	-0.096868
C69	C	0.744471	0.793237	-0.097065
H70	H	0.802435	0.609635	-0.000211
H71	H	0.701473	0.664508	0.065373
H72	H	0.729133	0.623459	-0.162377
H73	H	0.628174	0.678353	-0.096831
H74	H	0.717375	0.842286	-0.031539
H75	H	0.818335	0.787400	-0.097119
H76	H	0.726464	0.831955	-0.162679
C77	C	0.950682	0.053740	-0.000219
C78	C	0.938100	-0.025585	-0.096961
C79	C	1.003724	-0.131058	-0.097231
H80	H	0.933162	0.009691	0.065264
H81	H	1.021262	0.080057	-0.000282
H82	H	0.867536	-0.051902	-0.096888
H83	H	0.955628	0.018425	-0.162461
H84	H	1.074304	-0.104742	-0.097293
H85	H	0.986198	-0.175096	-0.031743
H86	H	0.995203	-0.184887	-0.162874
H87	H	0.562621	0.144837	0.000110
H88	H	1.052949	-0.293793	-0.000006
C89	C	1.615625	-0.059534	0.000234
C90	C	1.665123	-0.086288	0.096943
C91	C	1.761051	-0.024470	0.097140
H92	H	1.604168	0.028632	0.000296
H93	H	1.658589	-0.087640	-0.065295
H94	H	1.622169	-0.058175	0.162456
H95	H	1.676607	-0.174442	0.096902
H96	H	1.804015	-0.052576	0.031611
H97	H	1.749584	0.063693	0.097199
H98	H	1.794652	-0.042623	0.162750
H99	H	0.736520	0.054717	0.000027
C100	C	1.352580	0.180151	0.288034
C101	C	1.408415	0.118643	0.365172
C102	C	1.482517	0.036954	0.306211
H103	H	1.399418	0.226867	0.241855
H104	H	1.318127	0.119723	0.241903
H105	H	1.442867	0.179062	0.411285
H106	H	1.361606	0.071903	0.411354
H107	H	1.448064	-0.023474	0.260079
H108	H	1.529347	0.083681	0.260034
H109	H	1.520404	-0.004797	0.358540
C110	C	1.392978	0.135882	0.711943
C111	C	1.459625	0.062548	0.634779
C112	C	1.525579	-0.009957	0.693710
H113	H	1.352176	0.082520	0.758119
H114	H	1.433329	0.189815	0.758075
H115	H	1.419278	0.008621	0.588666
H116	H	1.500450	0.115878	0.588600
H117	H	1.565930	0.043976	0.739842
H118	H	1.484767	-0.063311	0.739885
H119	H	1.570812	-0.059714	0.641364
H120	H	1.420873	0.049596	0.000054
H121	H	1.121227	0.434928	0.696157
H122	H	1.410452	-0.426956	0.000009
H123	H	1.058153	-0.055516	0.000001
H124	H	1.584339	-0.314472	0.000036
H125	H	1.389987	0.139087	0.481396
