data_functionalizedCrystal
_audit_creation_method	'MofGen! by Chris Wilmer'
_symmetry_space_group_name_H-M	'P1'
_symmetry_Int_Tables_number	1
_symmetry_cell_setting	triclinic
loop_
_symmetry_equiv_pos_as_xyz
  x,y,z
_cell_length_a	11.169417
_cell_length_b	25.639240
_cell_length_c	11.169409
_cell_angle_alpha	89.953594
_cell_angle_beta	89.979747
_cell_angle_gamma	90.034008
loop_
_atom_site_label
_atom_site_type_symbol
_atom_site_fract_x
_atom_site_fract_y
_atom_site_fract_z
Zn1	Zn	1.834784	-0.208091	-0.678415
Zn2	Zn	1.834592	-0.295541	-0.477682
Zn3	Zn	1.634067	-0.208124	-0.477750
Zn4	Zn	1.633999	-0.295499	-0.678328
O5	O	1.734361	-0.251814	-0.578044
O6	O	2.002708	-0.219696	-0.651795
O7	O	1.807941	-0.283976	-0.309742
O8	O	1.660802	-0.134954	-0.504434
O9	O	2.002567	-0.283945	-0.504318
O10	O	1.808268	-0.134930	-0.651861
O11	O	1.660616	-0.219751	-0.309792
O12	O	1.466109	-0.219710	-0.504350
O13	O	1.660685	-0.283874	-0.846290
O14	O	1.466058	-0.283905	-0.651713
O15	O	1.808201	-0.219655	-0.846353
O16	O	1.807874	-0.368701	-0.504234
O17	O	1.660499	-0.368670	-0.651647
C18	C	1.422536	-0.251807	-0.578030
C19	C	1.289136	-0.251817	-0.578053
C20	C	1.734191	-0.387657	-0.577950
C21	C	1.734228	-0.445771	-0.577950
C22	C	1.811184	-0.806083	-0.654948
C23	C	1.811220	-0.860687	-0.654972
O24	O	1.876449	-0.888881	-0.720342
N25	N	1.734527	-0.888053	-0.578160
C26	C	1.657786	-0.860812	-0.501327
O27	O	1.592555	-0.889103	-0.435995
C28	C	1.657745	-0.806209	-0.501309
C29	C	1.734451	-0.778845	-0.578118
C30	C	1.887883	-0.778720	-0.731751
C31	C	1.887849	-0.724119	-0.731725
C32	C	1.811116	-0.696882	-0.654895
C33	C	1.734417	-0.724245	-0.578092
C34	C	1.580999	-0.778968	-0.424483
C35	C	1.580964	-0.724361	-0.424473
C36	C	1.657670	-0.696998	-0.501282
C37	C	1.657650	-0.642407	-0.501236
N38	N	1.734343	-0.615041	-0.578048
C39	C	1.811075	-0.642278	-0.654878
C40	C	1.657875	-0.975482	-0.501371
C41	C	1.657921	-1.030085	-0.501381
C42	C	1.811354	-1.029956	-0.655029
C43	C	1.811313	-0.975353	-0.655011
C44	C	1.734568	-0.948116	-0.578183
C45	C	1.810999	-0.527613	-0.654816
C46	C	1.810961	-0.473008	-0.654780
C47	C	1.657525	-0.473141	-0.501137
C48	C	1.657566	-0.527742	-0.501169
C49	C	1.734307	-0.554977	-0.578018
O50	O	1.592451	-0.614179	-0.435903
O51	O	1.876284	-0.613981	-0.720210
C52	C	2.047403	-0.251821	-0.578058
C53	C	2.180803	-0.251825	-0.578065
C54	C	1.734457	-0.251756	-0.891087
C55	C	1.734498	-0.251731	-1.024487
C56	C	1.734564	-0.115441	-0.578165
C57	C	1.734650	-0.057327	-0.578216
C58	C	1.734334	-0.251834	-0.266219
C59	C	1.734526	-0.251711	-0.132820
H60	H	1.873429	-0.450731	-0.717326
H61	H	1.873480	-0.549781	-0.717402
H62	H	1.873832	-1.052143	-0.717590
O63	O	1.962311	-0.697462	-0.806237
C64	C	2.030208	-0.613294	-0.874394
C65	C	1.945841	-0.643414	-0.789918
H66	H	2.016903	-0.569592	-0.861247
H67	H	2.127029	-0.623964	-0.853413
H68	H	2.009088	-0.624036	-0.971135
H69	H	1.966852	-0.632689	-0.693148
H70	H	1.849045	-0.632741	-0.811002
H71	H	1.595115	-0.550022	-0.438615
O72	O	1.583305	-1.056581	-0.426721
C73	C	1.431169	-1.050931	-0.274273
C74	C	1.515600	-1.020861	-0.358780
H75	H	1.376425	-1.022064	-0.219303
H76	H	1.368315	-1.076479	-0.329269
H77	H	1.486334	-1.076515	-0.211624
H78	H	1.460532	-0.995248	-0.421446
H79	H	1.578457	-0.995346	-0.303710
H80	H	1.950368	-0.800890	-0.794322
H81	H	1.873773	-0.953077	-0.717556
H82	H	1.595384	-0.953309	-0.438798
H83	H	1.518537	-0.801238	-0.361937
H84	H	1.595053	-0.450956	-0.438580
O85	O	1.506371	-0.697986	-0.349728
C86	C	1.354122	-0.703881	-0.197405
C87	C	1.438554	-0.733814	-0.281970
H88	H	1.299252	-0.732835	-0.142618
H89	H	1.409169	-0.678337	-0.134596
H90	H	1.291375	-0.678304	-0.252466
H91	H	1.501317	-0.759420	-0.227005
H92	H	1.383432	-0.759326	-0.344782
