data_functionalizedCrystal
_audit_creation_method	'MofGen! by Chris Wilmer'
_symmetry_space_group_name_H-M	'P1'
_symmetry_Int_Tables_number	1
_symmetry_cell_setting	triclinic
loop_
_symmetry_equiv_pos_as_xyz
  x,y,z
_cell_length_a	19.188930
_cell_length_b	17.038272
_cell_length_c	15.500227
_cell_angle_alpha	86.966746
_cell_angle_beta	92.848719
_cell_angle_gamma	87.128168
loop_
_atom_site_label
_atom_site_type_symbol
_atom_site_fract_x
_atom_site_fract_y
_atom_site_fract_z
O1	O	-0.935251	-0.093937	-0.072226
O2	O	-0.732754	-0.107077	-0.072167
O3	O	-0.832799	0.013304	-0.072189
O4	O	-0.835206	-0.214318	-0.072204
O5	O	-0.826726	0.006028	0.071701
O6	O	-0.726681	-0.114354	0.071723
O7	O	-0.929178	-0.101213	0.071664
Cu8	Cu	-0.827375	-0.108448	0.084832
Cu9	Cu	-0.834557	-0.099843	-0.085335
O10	O	-0.829133	-0.221595	0.071686
C11	C	-0.827573	0.038787	-0.000244
C12	C	-0.821041	0.125560	-0.000242
C13	C	-0.703679	-0.110290	-0.000214
C14	C	-0.626095	-0.109014	-0.000191
C15	C	-0.958253	-0.098000	-0.000290
C16	C	-1.035838	-0.099276	-0.000319
C17	C	-0.585560	-0.179649	-0.000210
C18	C	-0.512662	-0.178448	-0.000219
C19	C	-0.480302	-0.106609	-0.000228
C20	C	-0.520847	-0.035966	-0.000205
C21	C	-0.593743	-0.037168	-0.000187
N22	N	-0.370979	-0.049219	-0.049231
N23	N	-0.301731	-0.048081	-0.049250
C24	C	-0.260671	-0.102981	-0.000280
N25	N	-0.291475	-0.159073	0.048698
N26	N	-0.360730	-0.160213	0.048714
C27	C	-0.401259	-0.105297	-0.000247
C28	C	-0.141091	-0.172319	-0.000307
C29	C	-0.068192	-0.171116	-0.000312
C30	C	-0.076379	-0.028630	-0.000306
C31	C	-0.149276	-0.029836	-0.000293
C32	C	-0.181628	-0.101682	-0.000298
C33	C	-0.834359	-0.247078	-0.000261
C34	C	-0.840891	-0.333850	-0.000268
N35	N	-0.822329	-0.114500	0.204518
C36	C	-0.881009	0.175862	-0.000259
C37	C	-0.874868	0.257394	-0.000265
C38	C	-0.808759	0.288621	-0.000249
C39	C	-0.748787	0.238312	-0.000235
C40	C	-0.754929	0.156783	-0.000234
C41	C	-0.787061	0.534312	-0.000254
C42	C	-0.780924	0.615848	-0.000252
C43	C	-0.907005	0.634924	-0.000284
C44	C	-0.913141	0.553391	-0.000278
C45	C	-0.853169	0.503090	-0.000269
C46	C	-0.802480	0.371959	-0.000252
C47	C	-0.859449	0.419754	-0.000271
N48	N	-0.839608	-0.093784	-0.205021
C49	C	-0.864739	-0.063509	0.249785
C50	C	-0.860929	-0.068093	0.340359
C51	C	-0.814713	-0.123673	0.385664
C52	C	-0.772299	-0.174666	0.340390
C53	C	-0.776106	-0.170078	0.249818
C54	C	-0.801000	-0.140189	0.659134
C55	C	-0.797199	-0.144776	0.749712
C56	C	-0.885828	-0.038201	0.749674
C57	C	-0.889633	-0.033621	0.659101
C58	C	-0.847217	-0.084611	0.613835
C59	C	-0.810820	-0.128361	0.478245
C60	C	-0.851107	-0.079918	0.521256
H61	H	-0.611896	-0.238151	-0.000215
H62	H	-0.741570	-0.211599	0.212962
H63	H	-0.035189	-0.228637	-0.000321
H64	H	-0.494495	0.022527	-0.000224
H65	H	-0.626746	0.020353	-0.000172
O66	O	-0.175994	-0.249805	-0.000295
H67	H	-0.135556	-0.298723	-0.000293
O68	O	-0.731178	0.405645	-0.000216
H69	H	-0.727840	0.445302	-0.058857
H70	H	-0.050035	0.029865	-0.000367
H71	H	-0.479652	-0.235969	-0.000231
H72	H	-0.182281	0.027683	-0.000283
H73	H	-0.934841	0.150444	-0.000266
H74	H	-0.902375	-0.018253	0.212904
H75	H	-0.888733	-0.034662	0.484366
O76	O	-0.939545	0.311651	-0.000268
H77	H	-0.986546	0.276239	-0.000264
H78	H	-0.966974	0.527972	-0.000291
O79	O	-0.971687	0.689175	-0.000299
H80	H	-0.956314	0.751115	-0.000303
H81	H	-0.773191	-0.173617	0.515139
O82	O	-0.939487	0.026316	0.610230
H83	H	-0.909587	0.066312	0.568978
O84	O	-0.931569	0.016795	0.798503
H85	H	-0.987308	0.007861	0.781091
H86	H	-0.727087	0.641268	-0.000225
H87	H	-0.706097	0.115826	-0.000221
H88	H	-0.738228	0.493365	-0.000246
O89	O	-0.677481	0.271986	-0.000208
H90	H	-0.683283	0.337130	-0.000198
O91	O	-0.906670	-0.013099	0.389190
H92	H	-0.940806	-0.048007	0.430435
H93	H	-0.759562	-0.190038	0.786595
O94	O	-0.930749	0.386073	-0.000295
H95	H	-0.971422	0.434746	-0.000312
O96	O	-0.755260	-0.195191	0.610316
H97	H	-0.722492	-0.234615	0.657038
H98	H	-0.734666	-0.219918	0.377283
