data_functionalizedCrystal
_audit_creation_method	'MofGen! by Chris Wilmer'
_symmetry_space_group_name_H-M	'P1'
_symmetry_Int_Tables_number	1
_symmetry_cell_setting	triclinic
loop_
_symmetry_equiv_pos_as_xyz
  x,y,z
_cell_length_a	16.109301
_cell_length_b	9.016244
_cell_length_c	16.109304
_cell_angle_alpha	89.999429
_cell_angle_beta	83.462059
_cell_angle_gamma	90.004619
loop_
_atom_site_label
_atom_site_type_symbol
_atom_site_fract_x
_atom_site_fract_y
_atom_site_fract_z
O1	O	1.103137	0.123237	0.106864
O2	O	1.603137	0.623237	0.606864
O3	O	0.861075	0.123260	0.120163
O4	O	1.361075	0.623260	0.620163
O5	O	0.988754	0.123249	-0.007518
O6	O	1.488754	0.623249	0.492482
O7	O	0.975457	0.123248	0.234544
O8	O	1.475457	0.623248	0.734544
O9	O	0.988736	-0.123432	-0.007515
O10	O	1.488736	0.376568	0.492485
O11	O	0.861056	-0.123421	0.120166
O12	O	1.361056	0.376579	0.620166
O13	O	1.103118	-0.123444	0.106866
O14	O	1.603118	0.376556	0.606866
Cu15	Cu	0.982085	-0.145956	0.113516
Cu16	Cu	1.482085	0.354044	0.613516
Cu17	Cu	0.982108	0.145772	0.113513
Cu18	Cu	1.482108	0.645772	0.613513
O19	O	0.975439	-0.123433	0.234547
O20	O	1.475439	0.376567	0.734547
C21	C	0.830091	-0.000078	0.119626
C22	C	1.330091	0.499922	0.619626
C23	C	0.737795	-0.000069	0.118010
C24	C	1.237795	0.499931	0.618010
N25	N	0.982076	-0.351142	0.113518
N26	N	1.482076	0.148858	0.613518
C27	C	0.515524	-0.000086	0.190018
C28	C	1.015524	0.499914	0.690018
C29	C	0.428803	-0.000096	0.188494
C30	C	0.928803	0.499904	0.688494
C31	C	0.448676	-0.000089	0.037005
C32	C	0.948676	0.499911	0.537005
C33	C	0.535395	-0.000090	0.038530
C34	C	1.035395	0.499910	0.538530
C35	C	0.568816	-0.000081	0.115039
C36	C	1.068816	0.499919	0.615039
C37	C	0.395377	-0.000090	0.111990
C38	C	0.895377	0.499910	0.611990
C39	C	0.301351	-0.000100	0.110337
C40	C	0.801351	0.499900	0.610337
C41	C	0.662848	-0.000074	0.116693
C42	C	1.162848	0.499926	0.616693
C43	C	0.913570	-0.586169	0.181594
C44	C	1.413570	-0.086169	0.681594
C45	C	0.913718	-0.414278	0.181845
C46	C	1.413718	0.085722	0.681845
C47	C	1.068823	-0.413489	0.132444
C48	C	1.568823	0.086511	0.632444
C49	C	1.068448	-0.585434	0.132925
C50	C	1.568448	-0.085434	0.632925
C51	C	0.964700	-0.585684	0.026289
C52	C	1.464700	-0.085684	0.526289
C53	C	0.962700	-0.413729	0.026874
C54	C	1.462700	0.086271	0.526874
C55	C	1.134102	-0.000103	0.107404
C56	C	1.634102	0.499897	0.607404
C57	C	1.226398	-0.000102	0.109019
C58	C	1.726398	0.499898	0.609019
C59	C	0.988206	-0.000088	-0.038491
C60	C	1.488206	0.499912	0.461509
C61	C	0.986590	-0.000078	-0.130786
C62	C	1.486590	0.499922	0.369214
N63	N	0.982124	0.350958	0.113504
N64	N	1.482124	0.850958	0.613504
C65	C	0.982866	0.134382	-0.343125
C66	C	1.482866	0.634382	0.156875
C67	C	0.981340	0.134381	-0.429845
C68	C	1.481340	0.634381	0.070155
C69	C	0.981324	-0.134564	-0.429839
C70	C	1.481324	0.365436	0.070161
C71	C	0.982844	-0.134561	-0.343120
C72	C	1.482844	0.365439	0.156880
C73	C	0.983620	-0.000084	-0.299766
C74	C	1.483620	0.499916	0.200234
C75	C	0.980573	-0.000088	-0.473205
C76	C	1.480573	0.499912	0.026795
C77	C	0.978919	-0.000090	-0.567231
C78	C	1.478919	0.499910	-0.067231
C79	C	0.985273	-0.000081	-0.205734
C80	C	1.485273	0.499919	0.294266
C81	C	0.975987	-0.000092	0.265520
C82	C	1.475987	0.499908	0.765520
C83	C	0.977603	-0.000093	0.357816
C84	C	1.477603	0.499907	0.857816
H85	H	0.542732	-0.000090	0.252316
H86	H	1.042732	0.499910	0.752316
Cl87	Cl	0.813694	-0.650032	0.164464
Cl88	Cl	1.313694	-0.150032	0.664464
H89	H	0.385416	-0.000103	0.249550
H90	H	0.885416	0.499897	0.749550
Cl91	Cl	1.041882	-0.648455	-0.051942
Cl92	Cl	1.541882	-0.148455	0.448058
Cl93	Cl	1.149459	-0.350353	0.057914
Cl94	Cl	1.649459	0.149647	0.557914
Cl95	Cl	0.980392	0.303432	-0.484351
Cl96	Cl	1.480392	0.803432	0.015649
H97	H	0.421454	-0.000106	-0.025285
H98	H	0.921454	0.499894	0.474715
H99	H	0.578788	-0.000091	-0.022530
H100	H	1.078788	0.499909	0.477470
Cl101	Cl	0.814149	-0.349195	0.164496
Cl102	Cl	1.314149	0.150805	0.664496
Cl103	Cl	0.930516	-0.652823	0.280962
Cl104	Cl	1.430516	-0.152823	0.780962
Cl105	Cl	0.983836	0.303439	-0.288625
Cl106	Cl	1.483836	0.803439	0.211375
Cl107	Cl	0.980350	-0.303612	-0.484347
Cl108	Cl	1.480350	0.196388	0.015653
H109	H	0.924838	-0.373133	0.246568
H110	H	1.424838	0.126867	0.746568
H111	H	1.121052	-0.627021	0.085286
H112	H	1.621052	-0.127021	0.585286
H113	H	1.083805	-0.625525	0.196530
H114	H	1.583805	-0.125525	0.696530
Cl115	Cl	1.093097	-0.346989	0.229528
Cl116	Cl	1.593097	0.153011	0.729528
Cl117	Cl	0.869150	-0.652702	-0.001803
Cl118	Cl	1.369150	-0.152702	0.498197
Cl119	Cl	1.034786	-0.347408	-0.055018
Cl120	Cl	1.534786	0.152592	0.444982
Cl121	Cl	0.864179	-0.350820	0.004694
Cl122	Cl	1.364179	0.149180	0.504694
Cl123	Cl	0.983782	-0.303618	-0.288605
Cl124	Cl	1.483782	0.196382	0.211395
