data_functionalizedCrystal
_audit_creation_method	'MofGen! by Chris Wilmer'
_symmetry_space_group_name_H-M	'P1'
_symmetry_Int_Tables_number	1
_symmetry_cell_setting	triclinic
loop_
_symmetry_equiv_pos_as_xyz
  x,y,z
_cell_length_a	19.188930
_cell_length_b	15.625950
_cell_length_c	14.750779
_cell_angle_alpha	120.090508
_cell_angle_beta	77.396187
_cell_angle_gamma	83.723680
loop_
_atom_site_label
_atom_site_type_symbol
_atom_site_fract_x
_atom_site_fract_y
_atom_site_fract_z
O1	O	0.021527	1.286118	0.367712
O2	O	0.051304	0.999070	0.267820
O3	O	-0.065764	1.150882	0.320669
O4	O	0.138596	1.134305	0.314863
O5	O	-0.098855	1.193798	0.495260
O6	O	0.018214	1.041986	0.442410
O7	O	-0.011563	1.329033	0.542302
Zn8	Zn	-0.001929	1.192323	0.520076
Zn9	Zn	0.041670	1.135780	0.290046
O10	O	0.105505	1.177221	0.489453
C11	C	0.036687	0.983804	0.342336
C12	C	0.042424	0.874378	0.304257
C13	C	-0.028832	0.631333	0.654736
C14	C	-0.023418	0.528496	0.618906
C15	C	0.012653	0.481762	0.428593
C16	C	0.007245	0.584596	0.464407
C17	C	-0.013498	0.659374	0.577480
C18	C	0.022579	0.612638	0.387150
C19	C	0.017168	0.715464	0.422962
C20	C	-0.003577	0.790247	0.536031
C21	C	-0.018909	0.762200	0.613292
C22	C	0.043318	0.537859	0.274078
C23	C	0.058652	0.565901	0.196822
C24	C	0.053246	0.668727	0.232633
C25	C	0.032501	0.743511	0.345701
C26	C	0.068579	0.696775	0.155372
C27	C	0.063168	0.799600	0.191184
C28	C	0.027090	0.846337	0.381513
C29	C	-0.108288	1.171804	0.407781
C30	C	-0.185693	1.170196	0.407229
C31	C	-0.236216	1.259273	0.438233
C32	C	-0.308942	1.257756	0.437689
C33	C	-0.331144	1.167162	0.406162
C34	C	-0.280608	1.078072	0.375149
C35	C	-0.207883	1.079589	0.375683
N36	N	-0.446058	1.112519	0.441480
N37	N	-0.515145	1.111084	0.440978
C38	C	-0.550261	1.162585	0.404550
N39	N	-0.513684	1.215593	0.368662
N40	N	-0.444591	1.217031	0.369170
C41	C	-0.410001	1.165507	0.405579
C42	C	-0.679643	1.250022	0.434964
C43	C	-0.752368	1.248500	0.434413
C44	C	-0.724035	1.068816	0.371883
C45	C	-0.651310	1.070339	0.372424
C46	C	-0.629119	1.160946	0.403971
C47	C	0.148029	1.156298	0.402340
C48	C	0.225435	1.157905	0.402884
C49	C	0.003054	1.344299	0.467785
C50	C	-0.002682	1.453722	0.505857
N51	N	-0.031684	1.230919	0.677068
N52	N	0.071419	1.097192	0.133057
C53	C	0.154491	0.989398	0.944808
C54	C	0.133645	1.016451	1.054724
C55	C	0.030014	1.150908	1.101495
C56	C	0.050849	1.123863	0.991578
C57	C	0.113089	1.043108	0.913243
C58	C	0.009447	1.177573	0.960014
C59	C	0.030284	1.150533	0.850108
C60	C	0.092523	1.069784	0.771767
C61	C	0.133926	1.016068	0.803337
C62	C	-0.052789	1.258333	1.038353
C63	C	-0.094191	1.312043	1.006788
C64	C	-0.073358	1.284999	0.896879
C65	C	-0.011119	1.204249	0.818538
C66	C	-0.114761	1.338714	0.865309
C67	C	-0.093924	1.311674	0.755404
C68	C	0.009718	1.177209	0.708633
H69	H	0.029539	0.420866	0.336528
H70	H	-0.742110	0.995051	0.346207
Cl71	Cl	-0.044979	0.856213	0.755443
H72	H	-0.144866	1.377797	1.070582
H73	H	-0.020661	1.216662	1.165288
Cl74	Cl	-0.078978	1.292326	1.176522
H75	H	-0.165433	1.404472	0.929106
H76	H	-0.045713	0.692220	0.746811
H77	H	0.047727	0.454133	0.244923
Cl78	Cl	0.084706	0.471891	0.054679
Cl79	Cl	-0.010385	0.919518	0.581055
H80	H	-0.298690	1.004309	0.349477
H81	H	-0.127638	1.355412	0.729706
H82	H	-0.610172	0.997804	0.347184
H83	H	-0.350085	1.330294	0.462932
Cl84	Cl	0.094627	0.602764	0.013230
Cl85	Cl	-0.042711	0.493252	0.716043
H86	H	0.205169	0.923632	0.881020
H87	H	0.060395	1.111443	0.644845
Cl88	Cl	-0.144363	0.967597	0.336704
Cl89	Cl	0.118721	1.035794	0.633600
Cl90	Cl	-0.208318	1.373171	0.477862
Cl91	Cl	0.001021	0.940350	0.523665
Cl92	Cl	-0.815885	1.360491	0.473385
Cl93	Cl	0.082444	0.834857	0.094061
H94	H	-0.661574	1.323799	0.460647
Cl95	Cl	0.212166	0.914534	0.704850
Cl96	Cl	0.185704	0.948919	1.094395
