data_functionalizedCrystal
_audit_creation_method	'MofGen! by Chris Wilmer'
_symmetry_space_group_name_H-M	'P1'
_symmetry_Int_Tables_number	1
_symmetry_cell_setting	triclinic
loop_
_symmetry_equiv_pos_as_xyz
  x,y,z
_cell_length_a	16.109301
_cell_length_b	16.109301
_cell_length_c	18.366186
_cell_angle_alpha	89.992337
_cell_angle_beta	89.993673
_cell_angle_gamma	83.461481
loop_
_atom_site_label
_atom_site_type_symbol
_atom_site_fract_x
_atom_site_fract_y
_atom_site_fract_z
O1	O	1.103137	0.106868	-0.060506
O2	O	0.861075	0.120168	-0.060518
O3	O	0.988756	-0.007513	-0.060504
O4	O	0.975457	0.234549	-0.060520
O5	O	0.988734	-0.007519	0.060595
O6	O	0.861054	0.120161	0.060582
O7	O	1.103115	0.106862	0.060593
Zn8	Zn	0.982081	0.113511	0.079815
Zn9	Zn	0.982110	0.113519	-0.079739
O10	O	0.975435	0.234543	0.060580
C11	C	0.830090	0.119626	0.000030
C12	C	0.737794	0.118011	0.000026
C13	C	0.988206	-0.038491	0.000046
C14	C	0.986591	-0.130786	0.000047
C15	C	0.515522	0.190018	0.000030
C16	C	0.428801	0.188494	0.000035
C17	C	0.448676	0.037006	0.000041
C18	C	0.535394	0.038530	0.000042
C19	C	0.568815	0.115039	0.000032
C20	C	0.395376	0.111990	0.000037
C21	C	0.301350	0.110337	0.000042
C22	C	0.662847	0.116693	0.000029
C23	C	1.058599	-0.353059	0.000039
C24	C	1.057075	-0.439779	0.000033
C25	C	0.905586	-0.419905	0.000028
C26	C	0.907111	-0.333186	0.000029
C27	C	0.983620	-0.299766	0.000038
C28	C	0.980571	-0.473205	0.000031
C29	C	0.978918	-0.567231	0.000025
C30	C	0.985273	-0.205734	0.000043
C31	C	1.134101	0.107404	0.000044
C32	C	1.226397	0.109019	0.000043
C33	C	0.975984	0.265521	0.000028
C34	C	0.977600	0.357816	0.000022
N35	N	0.982068	0.113504	0.188706
N36	N	0.982130	0.113519	-0.188630
C37	C	1.038623	0.056995	0.226812
C38	C	1.038628	0.056992	0.303040
C39	C	0.982086	0.113511	0.341159
C40	C	0.925520	0.170025	0.303043
C41	C	0.925511	0.170021	0.226817
C42	C	0.971173	0.189234	0.461914
C43	C	0.971188	0.189238	0.538139
C44	C	0.982110	0.113522	0.576266
C45	C	0.993034	0.037797	0.538159
C46	C	0.993025	0.037794	0.461933
C47	C	0.982089	0.113521	0.423813
C48	C	1.038674	0.057004	0.697027
C49	C	1.038674	0.056999	0.773257
C50	C	0.925569	0.170040	0.773258
C51	C	0.925566	0.170037	0.697030
C52	C	0.982123	0.113520	0.658920
H53	H	0.385413	0.249550	0.000034
H54	H	1.001918	-0.023863	0.430909
O55	O	1.129833	-0.491666	0.000002
C56	C	1.194626	-0.634068	0.000039
C57	C	1.112163	-0.575402	0.000059
H58	H	1.180369	-0.701780	0.000100
H59	H	1.232295	-0.621969	-0.050651
H60	H	1.232270	-0.621878	0.050709
H61	H	1.074452	-0.587557	-0.050577
H62	H	1.074557	-0.587513	0.050782
H63	H	0.421454	-0.025285	0.000053
H64	H	0.578788	-0.022530	0.000046
H65	H	1.120897	-0.325851	0.000045
O66	O	1.003496	-0.035747	0.575213
C67	C	0.944963	-0.125827	0.661320
C68	C	0.932995	-0.042523	0.619389
H69	H	0.887981	-0.131325	0.697057
H70	H	0.952720	-0.179975	0.621019
H71	H	1.003088	-0.127825	0.696966
H72	H	0.874869	-0.040443	0.583742
H73	H	0.925287	0.011586	0.659729
H74	H	0.843295	-0.447127	0.000022
H75	H	1.084673	0.010974	0.195785
H76	H	0.879528	0.216056	0.804293
H77	H	1.084684	0.010973	0.334072
O78	O	0.960720	0.262773	0.575188
C79	C	1.019251	0.352851	0.661265
C80	C	1.031227	0.269556	0.619339
H81	H	1.076238	0.358354	0.696983
H82	H	1.011477	0.407006	0.620959
H83	H	0.961135	0.354834	0.696929
H84	H	1.089345	0.267492	0.583674
H85	H	1.038952	0.215440	0.659684
H86	H	0.846050	-0.289792	0.000026
H87	H	1.084724	0.010982	0.665996
O88	O	1.093696	0.002073	0.810163
C89	C	1.205859	-0.110064	0.802114
C90	C	1.143602	-0.047894	0.760226
H91	H	1.246212	-0.150490	0.761758
H92	H	1.247434	-0.074191	0.837769
H93	H	1.169973	-0.151578	0.837833
H94	H	1.179420	-0.006365	0.724467
H95	H	1.102028	-0.083819	0.724617
H96	H	0.879516	0.216056	0.666002
H97	H	0.962264	0.250895	0.430877
H98	H	0.879455	0.216039	0.195790
O99	O	0.547849	0.264408	0.000059
C100	C	0.518980	0.414503	0.000015
C101	C	0.482262	0.330313	-0.000004
H102	H	0.465970	0.467809	-0.000052
H103	H	0.559046	0.419055	0.050706
H104	H	0.559116	0.418966	-0.050653
H105	H	0.442087	0.325793	0.050630
H106	H	0.442243	0.325797	-0.050729
O107	O	0.870562	0.224815	0.340149
C108	C	0.756997	0.242477	0.426200
C109	C	0.819209	0.180338	0.384237
H110	H	0.715450	0.206542	0.461844
H111	H	0.792836	0.284015	0.461921
H112	H	0.716608	0.282885	0.385854
H113	H	0.859613	0.139876	0.424530
H114	H	0.783318	0.138858	0.348505
