data_functionalizedCrystal
_audit_creation_method	'MofGen! by Chris Wilmer'
_symmetry_space_group_name_H-M	'P1'
_symmetry_Int_Tables_number	1
_symmetry_cell_setting	triclinic
loop_
_symmetry_equiv_pos_as_xyz
  x,y,z
_cell_length_a	16.959454
_cell_length_b	14.908571
_cell_length_c	14.908294
_cell_angle_alpha	90.175425
_cell_angle_beta	93.269774
_cell_angle_gamma	86.716421
loop_
_atom_site_label
_atom_site_type_symbol
_atom_site_fract_x
_atom_site_fract_y
_atom_site_fract_z
Zn1	Zn	-0.412497	1.345293	-0.587603
Zn2	Zn	-0.537521	1.353875	-0.437250
Zn3	Zn	-0.397315	1.203610	-0.428600
Zn4	Zn	-0.536582	1.194902	-0.578901
O5	O	-0.470979	1.274420	-0.508089
O6	O	-0.435829	1.472258	-0.574920
O7	O	-0.512962	1.341178	-0.310277
O8	O	-0.288722	1.222457	-0.449714
O9	O	-0.527683	1.478563	-0.464456
O10	O	-0.299876	1.326551	-0.566533
O11	O	-0.409952	1.230778	-0.303922
O12	O	-0.409042	1.076629	-0.441276
O13	O	-0.526083	1.207616	-0.705881
O14	O	-0.511361	1.070231	-0.551702
O15	O	-0.434918	1.318108	-0.712274
O16	O	-0.648004	1.332734	-0.456018
O17	O	-0.647314	1.215938	-0.560089
C18	C	-0.458453	1.040805	-0.494607
C19	C	-0.453114	0.940862	-0.488861
C20	C	-0.549777	0.746454	-0.592895
C21	C	-0.544764	0.652548	-0.587499
C22	C	-0.438071	0.659143	-0.472678
C23	C	-0.443084	0.753049	-0.478074
C24	C	-0.498940	0.796701	-0.538183
C25	C	-0.503957	0.890608	-0.543574
C26	C	-0.397261	0.897201	-0.428758
C27	C	-0.392247	0.803295	-0.423363
C28	C	-0.676340	1.274346	-0.508069
C29	C	-0.764201	1.274394	-0.508095
C30	C	-1.135352	1.213688	-0.562277
C31	C	-1.136020	1.335398	-0.454006
C32	C	-1.053472	1.335367	-0.453996
C33	C	-1.011860	1.274494	-0.508126
C34	C	-1.052796	1.213653	-0.562267
C35	C	-1.012529	1.396201	-0.399850
C36	C	-0.929976	1.396172	-0.399837
C37	C	-0.888363	1.335303	-0.453973
C38	C	-0.929305	1.274460	-0.508116
C39	C	-0.887693	1.213588	-0.562246
C40	C	-0.928633	1.152748	-0.616395
C41	C	-1.011184	1.152784	-0.616402
C42	C	-0.805813	1.335267	-0.453965
C43	C	-0.805137	1.213553	-0.562236
C44	C	-0.264818	1.274518	-0.508129
C45	C	-0.176964	1.274560	-0.508147
C46	C	-0.482090	1.260933	-0.742615
C47	C	-0.486824	1.255186	-0.842556
C48	C	-0.483554	1.508948	-0.521624
C49	C	-0.488913	1.608890	-0.527391
C50	C	-0.540953	1.189561	-0.980091
C51	C	-0.536510	1.194959	-0.886187
C52	C	-0.441577	1.310017	-0.892835
C53	C	-0.446020	1.304619	-0.986738
C54	C	-0.495710	1.244390	-1.030363
C55	C	-0.500157	1.238996	-1.124269
C56	C	-0.405220	1.354049	-1.130914
C57	C	-0.400777	1.359448	-1.037010
C58	C	-0.459857	1.287906	-0.274478
C59	C	-0.454909	1.293827	-0.174547
H60	H	-0.355867	0.938122	-0.384206
O61	O	-0.585289	1.135806	-0.831959
H62	H	-0.620583	1.093017	-0.878074
H63	H	-1.044524	1.103251	-0.660486
O64	O	-0.883749	1.087084	-0.674768
H65	H	-0.903730	1.098386	-0.746241
O66	O	-0.377856	0.612034	-0.407834
H67	H	-0.337325	0.566934	-0.445682
O68	O	-0.553747	1.174034	-1.171322
H69	H	-0.517938	1.125852	-1.211473
O70	O	-0.594547	1.124604	-1.027147
H71	H	-0.558741	1.076418	-1.067297
H72	H	-0.360318	1.408482	-1.001478
O73	O	-1.057412	1.461846	-0.341467
H74	H	-1.015077	1.504137	-0.303806
O75	O	-1.179499	1.148058	-0.620668
H76	H	-1.243893	1.158299	-0.611579
H77	H	-0.549439	0.926148	-0.592517
O78	O	-0.387988	1.374979	-0.845777
H79	H	-0.392506	1.369522	-0.772034
H80	H	-0.368382	1.398697	-1.171856
H81	H	-0.896648	1.445711	-0.355748
H82	H	-0.586159	0.611640	-0.632052
H83	H	-0.772482	1.384797	-0.409874
O84	O	-0.610017	0.793546	-0.657721
H85	H	-0.644525	0.742828	-0.694863
O86	O	-0.332027	0.756199	-0.358516
H87	H	-0.291491	0.711100	-0.396362
O88	O	-0.760254	1.147887	-0.620608
H89	H	-0.802592	1.105585	-0.658251
O90	O	-1.180897	1.401074	-0.395650
H91	H	-1.245179	1.390888	-0.404766
