data_functionalizedCrystal
_audit_creation_method	'MofGen! by Chris Wilmer'
_symmetry_space_group_name_H-M	'P1'
_symmetry_Int_Tables_number	1
_symmetry_cell_setting	triclinic
loop_
_symmetry_equiv_pos_as_xyz
  x,y,z
_cell_length_a	14.519709
_cell_length_b	14.853567
_cell_length_c	13.930277
_cell_angle_alpha	89.999243
_cell_angle_beta	89.998398
_cell_angle_gamma	83.657537
loop_
_atom_site_label
_atom_site_type_symbol
_atom_site_fract_x
_atom_site_fract_y
_atom_site_fract_z
O1	O	1.223823	0.118178	-0.079698
O2	O	0.955341	0.132096	-0.079726
O3	O	1.096754	-0.006090	-0.079714
O4	O	1.082410	0.256364	-0.079710
O5	O	1.096734	-0.006093	0.079948
O6	O	0.955321	0.132093	0.079936
O7	O	1.223804	0.118176	0.079964
Zn8	Zn	1.089559	0.125134	0.105300
Zn9	Zn	1.089585	0.125138	-0.105061
O10	O	1.082391	0.256361	0.079952
C11	C	1.096094	-0.039680	0.000114
C12	C	1.094146	-0.139765	0.000106
C13	C	0.920971	0.131446	0.000101
C14	C	0.818591	0.129502	0.000090
C15	C	1.001911	-0.552334	0.000114
C16	C	1.169913	-0.573550	0.000132
C17	C	1.171744	-0.479516	0.000126
C18	C	1.088658	-0.421886	0.000116
C19	C	1.003740	-0.458291	0.000112
C20	C	1.256661	-0.443104	0.000141
C21	C	1.258495	-0.349064	0.000136
C22	C	1.175408	-0.291433	0.000119
C23	C	1.090486	-0.327843	0.000114
C24	C	1.007400	-0.270213	0.000104
C25	C	0.922478	-0.306621	0.000091
C26	C	0.920653	-0.400660	0.000095
C27	C	1.177233	-0.197394	0.000116
C28	C	1.009229	-0.176170	0.000101
C29	C	0.443698	0.122347	0.000134
C30	C	0.548005	0.124334	0.000121
C31	C	0.631141	0.125924	0.000111
C32	C	0.735455	0.127912	0.000100
C33	C	1.258173	0.118826	0.000135
C34	C	1.360553	0.120769	0.000140
C35	C	1.083050	0.289952	0.000122
C36	C	1.084998	0.390036	0.000124
N37	N	1.089548	0.125130	0.248866
N38	N	1.089603	0.125134	-0.248628
C39	C	1.026965	0.186302	0.701130
C40	C	1.152231	0.063966	0.701110
C41	C	1.152220	0.063963	0.600614
C42	C	1.089581	0.125132	0.550372
C43	C	1.026954	0.186303	0.600625
C44	C	1.214852	0.002799	0.550354
C45	C	1.214844	0.002795	0.449852
C46	C	1.152201	0.063959	0.399607
C47	C	1.089570	0.125132	0.449867
C48	C	1.026932	0.186301	0.399624
C49	C	0.964296	0.247470	0.449882
C50	C	0.964310	0.247468	0.550381
C51	C	1.152186	0.063962	0.299108
C52	C	1.026921	0.186302	0.299119
H53	H	0.854829	-0.259687	0.000089
H54	H	0.975965	0.236103	0.742052
O55	O	0.838246	-0.436176	0.000134
C56	C	0.760980	-0.571648	0.000089
C57	C	0.854366	-0.531542	0.000062
H58	H	0.773980	-0.648756	0.000011
H59	H	0.719896	-0.547988	0.066919
H60	H	0.719920	-0.547881	-0.066717
H61	H	0.895501	-0.555291	0.066823
H62	H	0.895379	-0.555198	-0.066812
O63	O	1.275601	-0.056589	0.400893
C64	C	1.401178	-0.075825	0.287037
C65	C	1.332555	-0.008416	0.342506
H66	H	1.447230	-0.036905	0.239803
H67	H	1.446030	-0.119656	0.340052
H68	H	1.361026	-0.120829	0.240141
H69	H	1.372632	0.036646	0.389404
H70	H	1.287703	0.035351	0.289440
H71	H	0.932770	-0.581982	0.000100
H72	H	1.324305	-0.490032	0.000158
O73	O	1.341064	-0.313850	0.000100
C74	C	1.507508	-0.344826	0.000173
C75	C	1.414064	-0.384827	0.000196
H76	H	1.566553	-0.402191	0.000271
H77	H	1.512635	-0.301369	-0.066665
H78	H	1.512507	-0.301294	0.066971
H79	H	1.409002	-0.428401	-0.066558
H80	H	1.408977	-0.428232	0.067078
O81	O	0.928455	-0.120283	-0.000038
C82	C	0.785461	-0.073336	-0.082805
C83	C	0.876891	-0.136693	-0.082755
H84	H	0.743755	-0.086567	-0.149684
H85	H	0.743603	-0.086604	-0.016039
H86	H	0.801374	0.000123	-0.082755
H87	H	0.861062	-0.210174	-0.082839
H88	H	0.918723	-0.123346	-0.149515
O89	O	1.213027	0.004424	0.749811
C90	C	1.266808	-0.152226	0.780618
C91	C	1.197922	-0.084887	0.725380
H92	H	1.254607	-0.224448	0.760901
H93	H	1.340707	-0.140406	0.760837
H94	H	1.256064	-0.141668	0.861074
H95	H	1.208582	-0.095405	0.644911
H96	H	1.124048	-0.096723	0.745241
O97	O	0.903383	0.306917	0.599051
C98	C	0.779165	0.428291	0.588470
C99	C	0.848099	0.361001	0.533227
H100	H	0.734463	0.472048	0.535274
H101	H	0.732995	0.389308	0.635503
H102	H	0.819057	0.473376	0.635540
H103	H	0.808282	0.315899	0.486104
H104	H	0.894268	0.400040	0.486254
H105	H	1.203188	0.014163	0.258193
O106	O	0.903579	0.306927	0.400966
C107	C	0.884102	0.430044	0.287538
C108	C	0.952961	0.362749	0.342863
H109	H	0.924001	0.475206	0.240564
H110	H	0.838001	0.391065	0.240423
H111	H	0.839316	0.473722	0.340733
H112	H	0.997808	0.319053	0.289738
H113	H	0.998998	0.401783	0.389993
H114	H	1.237558	-0.620477	0.000148
H115	H	1.246375	-0.167755	0.000132
O116	O	1.275643	-0.056744	0.599060
C117	C	1.329417	-0.213396	0.629867
C118	C	1.260541	-0.146054	0.574620
H119	H	1.317218	-0.285617	0.610144
H120	H	1.403320	-0.201576	0.610100
H121	H	1.318660	-0.202840	0.710322
H122	H	1.271214	-0.156570	0.494153
H123	H	1.186663	-0.157891	0.594468
H124	H	0.975910	0.236110	0.258218
