data_functionalizedCrystal
_audit_creation_method	'MofGen! by Chris Wilmer'
_symmetry_space_group_name_H-M	'P1'
_symmetry_Int_Tables_number	1
_symmetry_cell_setting	triclinic
loop_
_symmetry_equiv_pos_as_xyz
  x,y,z
_cell_length_a	19.121241
_cell_length_b	19.121063
_cell_length_c	14.908308
_cell_angle_alpha	95.554627
_cell_angle_beta	90.695553
_cell_angle_gamma	95.003121
loop_
_atom_site_label
_atom_site_type_symbol
_atom_site_fract_x
_atom_site_fract_y
_atom_site_fract_z
Zn1	Zn	1.036454	-0.261590	-0.581287
Zn2	Zn	1.369788	0.071743	-0.247954
Zn3	Zn	1.703121	0.405076	0.085380
Zn4	Zn	1.038135	-0.372478	-0.436588
Zn5	Zn	1.371469	-0.039145	-0.103255
Zn6	Zn	1.704802	0.294188	0.230078
Zn7	Zn	0.926158	-0.259259	-0.424264
Zn8	Zn	1.259491	0.074074	-0.090931
Zn9	Zn	1.592825	0.407407	0.242402
Zn10	Zn	0.913733	-0.384226	-0.581210
Zn11	Zn	1.247067	-0.050893	-0.247877
Zn12	Zn	1.580400	0.282440	0.085456
O13	O	0.978620	-0.319389	-0.505838
O14	O	1.311954	0.013945	-0.172504
O15	O	1.645287	0.347278	0.160829
O16	O	1.134899	-0.272359	-0.567282
O17	O	1.468233	0.060975	-0.233949
O18	O	1.801566	0.394308	0.099384
O19	O	1.029185	-0.351568	-0.308714
O20	O	1.362518	-0.018234	0.024619
O21	O	1.695851	0.315099	0.357953
O22	O	0.945285	-0.160862	-0.439968
O23	O	1.278619	0.172471	-0.106635
O24	O	1.611952	0.505804	0.226698
O25	O	1.136135	-0.353828	-0.460973
O26	O	1.469468	-0.020495	-0.127639
O27	O	1.802801	0.312839	0.205694
O28	O	1.026320	-0.162575	-0.555332
O29	O	1.359653	0.170758	-0.221999
O30	O	1.692986	0.504092	0.111334
O31	O	0.946915	-0.268386	-0.299660
O32	O	1.280249	0.064947	0.033674
O33	O	1.613582	0.398280	0.367007
O34	O	0.826288	-0.279778	-0.439894
O35	O	1.159621	0.053556	-0.106560
O36	O	1.492954	0.386889	0.226773
O37	O	0.924109	-0.373850	-0.707460
O38	O	1.257442	-0.040517	-0.374127
O39	O	1.590776	0.292816	-0.040793
O40	O	0.817159	-0.371590	-0.555201
O41	O	1.150493	-0.038257	-0.221868
O42	O	1.483826	0.295076	0.111465
O43	O	1.014272	-0.283750	-0.707516
O44	O	1.347605	0.049583	-0.374183
O45	O	1.680938	0.382916	-0.040850
O46	O	1.017137	-0.472743	-0.460898
O47	O	1.350470	-0.139410	-0.127565
O48	O	1.683804	0.193924	0.205769
O49	O	0.925739	-0.481374	-0.567151
O50	O	1.259073	-0.148041	-0.233818
O51	O	1.592406	0.185293	0.099515
C52	C	0.796256	-0.326706	-0.496203
C53	C	1.129589	0.006627	-0.162869
C54	C	1.462922	0.339960	0.170464
C55	C	0.718237	-0.329855	-0.492103
C56	C	1.051571	0.003479	-0.158770
C57	C	1.384904	0.336812	0.174564
C58	C	0.680935	-0.288993	-0.545619
C59	C	1.014268	0.044340	-0.212285
C60	C	1.347601	0.377674	0.121048
C61	C	0.607629	-0.291948	-0.541759
C62	C	0.940962	0.041386	-0.208425
C63	C	1.274295	0.374719	0.124908
C64	C	0.571627	-0.335768	-0.484387
C65	C	0.904960	-0.002435	-0.151054
C66	C	1.238293	0.330898	0.182280
C67	C	0.608935	-0.376631	-0.430866
C68	C	0.942268	-0.043298	-0.097532
C69	C	1.275602	0.290035	0.235801
C70	C	0.682240	-0.373673	-0.434721
C71	C	1.015573	-0.040339	-0.101388
C72	C	1.348907	0.292994	0.231945
C73	C	0.350326	-0.346817	-0.469967
C74	C	0.683660	-0.013484	-0.136634
C75	C	1.016993	0.319850	0.196700
C76	C	0.277016	-0.349774	-0.466117
C77	C	0.610349	-0.016441	-0.132784
C78	C	0.943683	0.316892	0.200549
C79	C	0.275715	-0.265089	-0.577009
C80	C	0.609048	0.068244	-0.243676
C81	C	0.942382	0.401577	0.089657
C82	C	0.349021	-0.262137	-0.580864
C83	C	0.682354	0.071196	-0.247531
C84	C	1.015688	0.404529	0.085803
C85	C	0.386323	-0.302998	-0.527339
C86	C	0.719657	0.030336	-0.194006
C87	C	1.052990	0.363669	0.139328
C88	C	0.496696	-0.338791	-0.480442
C89	C	0.830030	-0.005458	-0.147109
C90	C	1.163363	0.327876	0.186224
C91	C	0.461253	-0.299971	-0.531280
C92	C	0.794586	0.033363	-0.197946
C93	C	1.127919	0.366696	0.135387
C94	C	0.970290	-0.502652	-0.515374
C95	C	1.303624	-0.169319	-0.182041
C96	C	1.636957	0.164015	0.151292
C97	C	0.966790	-0.581052	-0.519488
C98	C	1.300123	-0.247718	-0.186155
C99	C	1.633456	0.085615	0.147179
C100	C	1.012764	-0.613368	-0.466150
C101	C	1.346097	-0.280035	-0.132816
C102	C	1.679430	0.053299	0.200517
C103	C	1.009475	-0.687033	-0.470024
C104	C	1.342808	-0.353700	-0.136691
C105	C	1.676142	-0.020366	0.196643
C106	C	0.960209	-0.728381	-0.527232
C107	C	1.293542	-0.395047	-0.193899
C108	C	1.626875	-0.061714	0.139434
C109	C	0.914233	-0.696060	-0.580577
C110	C	1.247566	-0.362727	-0.247243
C111	C	1.580899	-0.029393	0.086090
C112	C	0.917525	-0.622396	-0.576706
C113	C	1.250858	-0.289063	-0.243373
C114	C	1.584192	0.044271	0.089960
C115	C	0.947889	-0.951024	-0.541687
C116	C	1.281222	-0.617691	-0.208354
C117	C	1.614555	-0.284357	0.124980
C118	C	0.944598	-1.024693	-0.545551
C119	C	1.277932	-0.691359	-0.212218
C120	C	1.611265	-0.358026	0.121115
C121	C	1.039842	-1.015661	-0.434999
C122	C	1.373175	-0.682327	-0.101666
C123	C	1.706508	-0.348994	0.231667
C124	C	1.043127	-0.941996	-0.431130
C125	C	1.376460	-0.608663	-0.097797
C126	C	1.709794	-0.275329	0.235536
C127	C	0.997154	-0.909681	-0.484478
C128	C	1.330487	-0.576348	-0.151145
C129	C	1.663820	-0.243015	0.182189
C130	C	0.956845	-0.803679	-0.531192
C131	C	1.290178	-0.470345	-0.197858
C132	C	1.623511	-0.137012	0.135475
C133	C	1.000521	-0.834385	-0.480523
C134	C	1.333855	-0.501052	-0.147189
C135	C	1.667188	-0.167718	0.186144
C136	C	1.161697	-0.312043	-0.515511
C137	C	1.495030	0.021290	-0.182177
C138	C	1.828364	0.354624	0.151156
C139	C	1.239713	-0.308913	-0.519633
C140	C	1.573047	0.024421	-0.186299
C141	C	1.906380	0.357754	0.147034
C142	C	0.967617	-0.330371	-0.741136
C143	C	1.300950	0.002963	-0.407803
C144	C	1.634284	0.336296	-0.074469
C145	C	0.962928	-0.335051	-0.841406
C146	C	1.296261	-0.001717	-0.508073
C147	C	1.629595	0.331616	-0.174740
C148	C	0.987001	-0.135410	-0.496284
C149	C	1.320334	0.197924	-0.162951
C150	C	1.653668	0.531257	0.170383
C151	C	0.990572	-0.057009	-0.492213
C152	C	1.323906	0.276324	-0.158880
C153	C	1.657239	0.609658	0.174454
C154	C	1.048002	-0.250007	-1.029884
C155	C	1.381335	0.083326	-0.696551
C156	C	1.714669	0.416660	-0.363217
C157	C	1.043599	-0.254402	-1.124097
C158	C	1.376932	0.078932	-0.790763
C159	C	1.710265	0.412265	-0.457430
C160	C	0.949715	-0.348231	-1.124046
C161	C	1.283048	-0.014897	-0.790712
C162	C	1.616382	0.318436	-0.457379
C163	C	0.954118	-0.343836	-1.029833
C164	C	1.287452	-0.010503	-0.696500
C165	C	1.620785	0.322831	-0.363166
C166	C	1.003264	-0.294723	-0.982756
C167	C	1.336597	0.038610	-0.649422
C168	C	1.669931	0.371943	-0.316089
C169	C	1.007670	-0.290333	-0.888541
C170	C	1.341004	0.043001	-0.555208
C171	C	1.674337	0.376334	-0.221875
C172	C	0.913784	-0.384158	-0.888492
C173	C	1.247117	-0.050824	-0.555159
C174	C	1.580451	0.282509	-0.221825
C175	C	0.909381	-0.388552	-0.982705
C176	C	1.242714	-0.055219	-0.649371
C177	C	1.576047	0.278114	-0.316038
C178	C	0.989623	-0.308397	-0.271454
C179	C	1.322957	0.024937	0.061879
C180	C	1.656290	0.358270	0.395213
C181	C	0.994457	-0.303513	-0.171181
C182	C	1.327791	0.029821	0.162152
C183	C	1.661124	0.363154	0.495486
H184	H	0.247705	-0.385462	-0.419398
H185	H	0.581039	-0.052128	-0.086065
H186	H	0.914372	0.281205	0.247269
H187	H	1.088022	-0.210021	-0.991553
H188	H	1.421355	0.123312	-0.658220
H189	H	1.754688	0.456646	-0.324886
O190	O	1.091854	-0.206177	-1.174933
O191	O	1.425188	0.127156	-0.841600
O192	O	1.758521	0.460489	-0.508267
H193	H	1.126770	-0.171294	-1.126366
H194	H	1.460103	0.162040	-0.793033
H195	H	1.793437	0.495373	-0.459700
H196	H	0.710242	-0.253312	-0.592339
H197	H	1.043575	0.080022	-0.259006
H198	H	1.376909	0.413355	0.074328
O199	O	1.053658	-0.789789	-0.418825
O200	O	1.386992	-0.456456	-0.085492
O201	O	1.720325	-0.123122	0.247842
H202	H	1.085080	-0.824632	-0.382384
H203	H	1.418413	-0.491299	-0.049051
H204	H	1.751747	-0.157966	0.284282
O205	O	0.896700	-0.401188	-1.174827
O206	O	1.230033	-0.067855	-0.841493
O207	O	1.563366	0.265478	-0.508160
H208	H	0.901154	-0.396727	-1.248256
H209	H	1.234488	-0.063393	-0.914922
H210	H	1.567821	0.269940	-0.581589
H211	H	1.083243	-0.908332	-0.384547
H212	H	1.416577	-0.574998	-0.051213
H213	H	1.749910	-0.241665	0.282120
H214	H	0.877357	-0.420571	-0.850110
H215	H	1.210690	-0.087237	-0.516777
H216	H	1.544023	0.246096	-0.183443
H217	H	0.869366	-0.428537	-1.021048
H218	H	1.202700	-0.095204	-0.687715
H219	H	1.536033	0.238130	-0.354381
H220	H	0.245336	-0.231822	-0.620585
H221	H	0.578669	0.101511	-0.287252
H222	H	0.912003	0.434845	0.046082
O223	O	0.567392	-0.247875	-0.599477
O224	O	0.900726	0.085458	-0.266144
O225	O	1.234059	0.418791	0.067189
H226	H	0.604741	-0.216914	-0.640026
H227	H	0.938075	0.116420	-0.306693
H228	H	1.271408	0.449753	0.026640
H229	H	1.077272	-1.041979	-0.391568
H230	H	1.410605	-0.708646	-0.058235
H231	H	1.743938	-0.375313	0.275099
H232	H	0.904487	-1.058357	-0.592153
H233	H	1.237821	-0.725024	-0.258820
H234	H	1.571154	-0.391690	0.074513
O235	O	1.060679	-0.237364	-0.837766
O236	O	1.394012	0.095969	-0.504433
O237	O	1.727346	0.429302	-0.171100
H238	H	1.056233	-0.241825	-0.764336
H239	H	1.389566	0.091509	-0.431003
H240	H	1.722899	0.424842	-0.097669
O241	O	0.722474	-0.417744	-0.376996
O242	O	1.055807	-0.084411	-0.043662
O243	O	1.389140	0.248923	0.289671
H244	H	0.779496	-0.408318	-0.389306
H245	H	1.112829	-0.074985	-0.055972
H246	H	1.446163	0.258348	0.277361
O247	O	0.387854	-0.214863	-0.642729
O248	O	0.721187	0.118471	-0.309395
O249	O	1.054520	0.451804	0.023938
H250	H	0.349599	-0.186937	-0.679285
H251	H	0.682933	0.146397	-0.345951
H252	H	1.016266	0.479730	-0.012618
H253	H	0.880089	-0.596085	-0.620141
H254	H	1.213423	-0.262752	-0.286808
H255	H	1.546756	0.070581	0.046525
H256	H	0.380689	-0.380089	-0.426384
H257	H	0.714022	-0.046756	-0.093051
H258	H	1.047356	0.286578	0.240283
O259	O	1.065910	-0.568780	-0.404451
O260	O	1.399244	-0.235447	-0.071118
O261	O	1.732577	0.097887	0.262216
H262	H	1.101202	-0.535629	-0.444993
H263	H	1.434536	-0.202296	-0.111660
H264	H	1.767869	0.131037	0.221673
O265	O	0.500077	-0.252704	-0.593156
O266	O	0.833410	0.080629	-0.259823
O267	O	1.166744	0.413962	0.073511
H268	H	0.529901	-0.285124	-0.642390
H269	H	0.863235	0.048209	-0.309056
H270	H	1.196568	0.381542	0.024277
O271	O	0.570105	-0.423894	-0.368985
O272	O	0.903438	-0.090561	-0.035652
O273	O	1.236771	0.242772	0.297682
H274	H	0.588022	-0.407833	-0.298314
H275	H	0.921356	-0.074500	0.035019
H276	H	1.254689	0.258834	0.368353
H277	H	1.046911	-0.713341	-0.426590
H278	H	1.380245	-0.380008	-0.093256
H279	H	1.713578	-0.046675	0.240077
O280	O	0.457865	-0.386054	-0.418563
O281	O	0.791198	-0.052721	-0.085230
O282	O	1.124531	0.280613	0.248104
H283	H	0.420960	-0.425218	-0.458980
H284	H	0.754293	-0.091885	-0.125647
H285	H	1.087626	0.241449	0.207687
H286	H	0.910454	-0.924720	-0.585123
H287	H	1.243787	-0.591386	-0.251790
H288	H	1.577121	-0.258053	0.081544
H289	H	0.874122	-0.729731	-0.627161
H290	H	1.207455	-0.396398	-0.293828
H291	H	1.540789	-0.063065	0.039506
H292	H	0.916731	-0.837352	-0.577769
H293	H	1.250064	-0.504019	-0.244436
H294	H	1.583397	-0.170685	0.088898
