data_functionalizedCrystal
_audit_creation_method	'MofGen! by Chris Wilmer'
_symmetry_space_group_name_H-M	'P1'
_symmetry_Int_Tables_number	1
_symmetry_cell_setting	triclinic
loop_
_symmetry_equiv_pos_as_xyz
  x,y,z
_cell_length_a	12.759401
_cell_length_b	18.050588
_cell_length_c	12.759393
_cell_angle_alpha	90.032492
_cell_angle_beta	90.019596
_cell_angle_gamma	90.029838
loop_
_atom_site_label
_atom_site_type_symbol
_atom_site_fract_x
_atom_site_fract_y
_atom_site_fract_z
Zn1	Zn	1.606158	-0.295618	0.593968
Zn2	Zn	1.606003	-0.419826	0.418282
Zn3	Zn	1.430457	-0.295655	0.418307
Zn4	Zn	1.430403	-0.419771	0.593923
O5	O	1.518255	-0.357718	0.506120
O6	O	1.753158	-0.312102	0.570671
O7	O	1.582675	-0.403393	0.271264
O8	O	1.453851	-0.191725	0.441638
O9	O	1.753045	-0.403357	0.441595
O10	O	1.582938	-0.191698	0.570695
O11	O	1.453701	-0.312165	0.271283
O12	O	1.283428	-0.312112	0.441595
O13	O	1.453759	-0.403264	0.740950
O14	O	1.283389	-0.403300	0.570619
O15	O	1.582886	-0.312049	0.740983
O16	O	1.582622	-0.523743	0.441552
O17	O	1.453610	-0.523703	0.570595
C18	C	1.245288	-0.357704	0.506106
C19	C	1.128511	-0.357716	0.506124
C20	C	0.963925	-0.405281	0.573209
C21	C	1.073649	-0.405273	0.573198
C22	C	1.073644	-0.310170	0.439050
C23	C	0.963921	-0.310183	0.439056
C24	C	1.518122	-0.550670	0.506089
C25	C	1.518161	-0.633215	0.506110
C26	C	1.448114	-0.882046	0.576284
C27	C	1.543915	-0.832574	0.602061
C28	C	1.518379	-0.930336	0.506169
C29	C	1.422476	-0.832727	0.480413
C30	C	1.518267	-0.784351	0.506143
C31	C	1.614232	-0.881950	0.531995
C32	C	1.492727	-0.882108	0.410303
C33	C	1.588595	-0.832658	0.436043
C34	C	1.518443	-1.014434	0.506186
C35	C	1.518215	-0.700254	0.506125
C36	C	1.792288	-0.357731	0.506135
C37	C	1.909065	-0.357737	0.506142
C38	C	1.518334	-0.357646	0.780153
C39	C	1.518367	-0.357616	0.896930
C40	C	1.518418	-0.164012	0.506175
C41	C	1.518487	-0.081466	0.506198
C42	C	1.518237	-0.357735	0.233153
C43	C	1.518407	-0.357556	0.116377
C44	C	1.585608	-0.310113	0.951811
C45	C	1.585626	-0.310081	1.061535
C46	C	1.451159	-0.405061	1.061488
C47	C	1.451137	-0.405089	0.951766
H48	H	1.118321	-0.271452	0.384433
H49	H	1.640349	-0.271455	0.907167
C50	C	0.903571	-0.257880	0.365281
H51	H	0.951955	-0.229549	0.325338
H52	H	0.860735	-0.286255	0.319438
H53	H	0.860803	-0.225559	0.405563
C54	C	1.368014	-0.911351	0.656456
H55	H	1.386377	-0.894389	0.724530
H56	H	1.300097	-0.893776	0.638841
H57	H	1.368172	-0.963977	0.655472
C58	C	0.903586	-0.457569	0.647028
H59	H	0.951978	-0.485879	0.686973
H60	H	0.860835	-0.429181	0.692867
H61	H	0.860734	-0.489909	0.606787
H62	H	1.118311	-0.443989	0.627809
C63	C	1.573168	-0.803175	0.711560
H64	H	1.523216	-0.820081	0.761309
H65	H	1.640774	-0.820752	0.730333
H66	H	1.573536	-0.750551	0.710595
H67	H	1.695312	-0.903484	0.553862
H68	H	1.640379	-0.271398	1.106214
H69	H	1.471044	-0.903880	0.329265
C70	C	1.668886	-0.803530	0.355934
H71	H	1.633882	-0.774608	0.304534
H72	H	1.719511	-0.773841	0.390875
H73	H	1.702790	-0.844175	0.322960
H74	H	1.396424	-0.443714	1.106149
C75	C	1.377175	-0.457350	0.891393
H76	H	1.337150	-0.485628	0.939764
H77	H	1.331414	-0.428952	0.848589
H78	H	1.417340	-0.489722	0.848590
C79	C	1.312985	-0.803489	0.451017
H80	H	1.263194	-0.820401	0.500922
H81	H	1.313916	-0.750867	0.450606
H82	H	1.294292	-0.821168	0.383402
