data_functionalizedCrystal
_audit_creation_method	'MofGen! by Chris Wilmer'
_symmetry_space_group_name_H-M	'P1'
_symmetry_Int_Tables_number	1
_symmetry_cell_setting	triclinic
loop_
_symmetry_equiv_pos_as_xyz
  x,y,z
_cell_length_a	10.654554
_cell_length_b	13.262508
_cell_length_c	9.730223
_cell_angle_alpha	74.080870
_cell_angle_beta	90.000250
_cell_angle_gamma	84.460358
loop_
_atom_site_label
_atom_site_type_symbol
_atom_site_fract_x
_atom_site_fract_y
_atom_site_fract_z
O1	O	1.667064	0.147441	0.059196
O2	O	1.301514	0.161482	0.053945
O3	O	1.493485	0.001737	0.113655
O4	O	1.475094	0.307186	-0.000514
O5	O	1.493484	0.001748	-0.114929
O6	O	1.301513	0.161492	-0.174639
O7	O	1.667064	0.147452	-0.169388
Zn8	Zn	1.484289	0.154474	-0.208306
Zn9	Zn	1.484289	0.154460	0.092863
O10	O	1.475093	0.307197	-0.229098
C11	C	1.254721	0.160455	-0.059962
C12	C	1.115294	0.157368	-0.058809
C13	C	0.933251	0.057507	-0.021466
C14	C	1.064257	0.060407	-0.022564
C15	C	1.035317	0.251434	-0.093972
C16	C	0.904313	0.248533	-0.092883
C17	C	0.949960	-0.052781	0.019768
C18	C	1.080967	-0.049881	0.018669
C19	C	1.492454	-0.037369	0.013985
C20	C	1.489366	-0.153909	0.057553
C21	C	1.480657	-0.482407	-0.318056
C22	C	1.483548	-0.372910	-0.358992
C23	C	1.485003	-0.318155	-0.254859
C24	C	1.483566	-0.372906	-0.109784
C25	C	1.480666	-0.482412	-0.068844
C26	C	1.485011	-0.318160	-0.005647
C27	C	1.483575	-0.372911	0.139429
C28	C	1.480675	-0.482406	0.180361
C29	C	1.479220	-0.537162	0.076229
C30	C	1.487912	-0.208654	-0.046587
C31	C	1.487921	-0.208659	0.202625
C32	C	1.485030	-0.318156	0.243561
C33	C	1.713857	0.148479	-0.055478
C34	C	1.853284	0.151566	-0.056622
C35	C	1.476124	0.346303	-0.129424
C36	C	1.479211	0.462843	-0.172983
N37	N	1.484298	0.154483	-0.413846
C38	C	1.399272	0.225164	-0.656111
C39	C	1.399272	0.225182	-0.512234
C40	C	1.569320	0.083754	-0.459336
C41	C	1.569313	0.083732	-0.603209
C42	C	1.301099	0.306820	-0.686651
C43	C	1.301099	0.306838	-0.542774
N44	N	1.484290	0.154443	0.298406
H45	H	0.839208	0.325125	-0.121528
H46	H	1.126778	-0.083204	-0.067575
H47	H	1.322124	0.387524	-0.533912
Cl48	Cl	1.478803	-0.551244	-0.448948
Cl49	Cl	1.483227	-0.386998	0.425937
H50	H	1.479494	-0.526981	0.298491
H51	H	0.920821	-0.095912	-0.059765
Cl52	Cl	1.099478	0.373329	-0.139553
H53	H	1.487355	-0.228998	-0.288199
H54	H	1.489097	-0.164077	0.287419
Cl55	Cl	1.145777	-0.114021	0.190342
Cl56	Cl	1.676179	-0.005191	-0.660383
H57	H	0.914514	-0.087905	0.131593
H58	H	1.489071	-0.164085	-0.164709
Cl59	Cl	1.485332	-0.304086	-0.541365
H60	H	1.638543	0.026182	-0.379216
H61	H	1.476873	-0.626324	0.109552
H62	H	1.331226	0.383042	-0.759797
H63	H	1.204676	0.288838	-0.718962
Cl64	Cl	1.160499	0.267429	-0.459113
