data_functionalizedCrystal
_audit_creation_method	'MofGen! by Chris Wilmer'
_symmetry_space_group_name_H-M	'P1'
_symmetry_Int_Tables_number	1
_symmetry_cell_setting	triclinic
loop_
_symmetry_equiv_pos_as_xyz
  x,y,z
_cell_length_a	15.944551
_cell_length_b	13.330367
_cell_length_c	15.944493
_cell_angle_alpha	90.001230
_cell_angle_beta	83.486891
_cell_angle_gamma	89.996937
loop_
_atom_site_label
_atom_site_type_symbol
_atom_site_fract_x
_atom_site_fract_y
_atom_site_fract_z
O1	O	1.114505	-0.083306	0.108334
O2	O	1.614505	0.416694	0.608334
O3	O	0.869953	-0.083329	0.121691
O4	O	1.369953	0.416671	0.621691
O5	O	0.998933	-0.083325	-0.007265
O6	O	1.498933	0.416675	0.492735
O7	O	0.985526	-0.083310	0.237291
O8	O	1.485526	0.416690	0.737291
O9	O	0.998914	0.083522	-0.007268
O10	O	1.498914	0.583522	0.492732
O11	O	0.869934	0.083518	0.121688
O12	O	1.369934	0.583518	0.621688
O13	O	1.114487	0.083542	0.108332
O14	O	1.614487	0.583542	0.608332
Cu15	Cu	0.992209	0.098764	0.115010
Cu16	Cu	1.492209	0.598764	0.615010
Cu17	Cu	0.992231	-0.098552	0.115013
Cu18	Cu	1.492231	0.401448	0.615013
O19	O	0.985507	0.083538	0.237288
O20	O	1.485507	0.583538	0.737288
C21	C	0.838650	0.000091	0.121135
C22	C	1.338650	0.500091	0.621135
C23	C	0.745404	0.000082	0.119473
C24	C	1.245404	0.500082	0.619473
N25	N	0.992199	0.237546	0.115007
N26	N	1.492199	0.737546	0.615007
N27	N	0.992247	-0.237333	0.115009
N28	N	1.492247	0.262667	0.615009
C29	C	0.530565	0.000096	0.035566
C30	C	1.030565	0.500096	0.535566
C31	C	0.469546	-0.082166	0.074531
C32	C	0.969546	0.417834	0.574531
C33	C	0.574679	0.000093	0.116465
C34	C	1.074679	0.500093	0.616465
C35	C	0.469550	0.082332	0.074547
C36	C	0.969550	0.582332	0.574547
C37	C	0.409767	0.000109	0.113555
C38	C	0.909767	0.500109	0.613555
C39	C	0.514888	-0.082236	0.155452
C40	C	1.014888	0.417764	0.655452
C41	C	0.514898	0.082336	0.155457
C42	C	1.014898	0.582336	0.655457
C43	C	0.453897	0.000054	0.194481
C44	C	0.953897	0.500054	0.694481
C45	C	0.669681	0.000084	0.118140
C46	C	1.169681	0.500084	0.618140
C47	C	0.314766	0.000112	0.111886
C48	C	0.814766	0.500112	0.611886
C49	C	1.145790	0.000119	0.108888
C50	C	1.645790	0.500119	0.608888
C51	C	1.239036	0.000122	0.110550
C52	C	1.739036	0.500122	0.610550
C53	C	0.998375	0.000094	-0.038562
C54	C	1.498375	0.500094	0.461438
C55	C	0.996733	0.000081	-0.131810
C56	C	1.496733	0.500081	0.368190
C57	C	0.935116	0.710167	0.172092
C58	C	1.435116	1.210167	0.672092
C59	C	1.049368	0.710138	0.057927
C60	C	1.549368	1.210138	0.557927
C61	C	1.049359	0.605120	0.057924
C62	C	1.549359	1.105120	0.557924
C63	C	0.992228	0.552620	0.115008
C64	C	1.492228	1.052620	0.615008
C65	C	0.935107	0.605139	0.172093
C66	C	1.435107	1.105139	0.672093
C67	C	1.106485	0.552594	0.000845
C68	C	1.606485	1.052594	0.500845
C69	C	1.106478	0.447569	0.000841
C70	C	1.606478	0.947569	0.500841
C71	C	1.049343	0.395067	0.057921
C72	C	1.549343	0.895067	0.557921
C73	C	0.992218	0.447592	0.115008
C74	C	1.492218	0.947592	0.615008
C75	C	0.935088	0.395092	0.172092
C76	C	1.435088	0.895092	0.672092
C77	C	0.877959	0.447616	0.229176
C78	C	1.377959	0.947616	0.729176
C79	C	0.877971	0.552637	0.229173
C80	C	1.377971	1.052637	0.729173
C81	C	1.049330	0.290046	0.057923
C82	C	1.549330	0.790046	0.557923
C83	C	0.935078	0.290064	0.172092
C84	C	1.435078	0.790064	0.672092
C85	C	1.072653	0.000108	-0.367570
C86	C	1.572653	0.500108	0.132430
C87	C	1.031721	-0.082160	-0.418137
C88	C	1.531721	0.417840	0.081863
C89	C	0.993688	0.000093	-0.302531
C90	C	1.493688	0.500093	0.197469
C91	C	1.031684	0.082338	-0.418116
C92	C	1.531684	0.582338	0.081884
C93	C	0.990754	0.000109	-0.467441
C94	C	1.490754	0.500109	0.032559
C95	C	0.952778	-0.082242	-0.351870
C96	C	1.452778	0.417758	0.148130
C97	C	0.952753	0.082330	-0.351845
C98	C	1.452753	0.582330	0.148155
C99	C	0.911763	0.000042	-0.402379
C100	C	1.411763	0.500042	0.097621
C101	C	0.995381	0.000083	-0.207531
C102	C	1.495381	0.500083	0.292469
C103	C	0.989055	0.000112	-0.562438
C104	C	1.489055	0.500112	-0.062438
C105	C	0.986064	0.000116	0.268584
C106	C	1.486064	0.500116	0.768584
C107	C	0.987707	0.000122	0.361833
C108	C	1.487707	0.500122	0.861833
H109	H	0.449451	-0.151717	0.040315
H110	H	0.949451	0.348283	0.540315
N111	N	0.821612	-0.000043	-0.422910
N112	N	1.321612	0.499957	0.077090
H113	H	0.791907	-0.062218	-0.398583
H114	H	1.291907	0.437782	0.101417
H115	H	0.821083	0.000578	-0.486188
H116	H	1.321083	0.500578	0.013812
N117	N	1.075898	-0.174276	-0.456491
N118	N	1.575898	0.325724	0.043509
H119	H	1.046700	-0.236414	-0.431454
H120	H	1.546700	0.263586	0.068546
H121	H	1.136632	-0.174120	-0.444118
H122	H	1.636632	0.325880	0.055882
N123	N	0.541354	-0.174462	0.200744
N124	N	1.041354	0.325538	0.700744
H125	H	0.604599	-0.173914	0.201563
H126	H	1.104599	0.326086	0.701563
H127	H	0.524421	-0.236471	0.170393
H128	H	1.024421	0.263529	0.670393
N129	N	0.908603	0.174450	-0.313481
N130	N	1.408603	0.674450	0.186519
H131	H	0.938492	0.236564	-0.337697
H132	H	1.438492	0.736564	0.162303
H133	H	0.909590	0.173317	-0.250265
H134	H	1.409590	0.673317	0.249735
N135	N	0.442937	0.174451	0.029209
N136	N	0.942937	0.674451	0.529209
H137	H	0.471116	0.174370	-0.030809
H138	H	0.971116	0.674370	0.469191
H139	H	0.460240	0.236536	0.059221
H140	H	0.960240	0.736536	0.559221
H141	H	0.919457	-0.151868	-0.323049
H142	H	1.419457	0.348132	0.176951
N143	N	1.110977	0.766770	-0.003638
N144	N	1.610977	1.266770	0.496362
H145	H	1.101310	0.748497	-0.063261
H146	H	1.601310	1.248497	0.436739
H147	H	1.170561	0.748465	0.006141
H148	H	1.670561	1.248465	0.506141
H149	H	1.140671	0.000031	-0.351942
H150	H	1.640671	0.500031	0.148058
H151	H	1.095847	0.247286	0.011450
H152	H	1.595847	0.747286	0.511450
N153	N	0.873449	0.233450	0.233660
N154	N	1.373449	0.733450	0.733660
H155	H	0.883108	0.251730	0.293284
H156	H	1.383108	0.751730	0.793284
H157	H	0.882138	0.158966	0.224930
H158	H	1.382138	0.658966	0.724930
N159	N	1.075852	0.174470	-0.456437
N160	N	1.575852	0.674470	0.043563
H161	H	1.124792	0.153490	-0.498603
H162	H	1.624792	0.653490	0.001397
H163	H	1.097461	0.215916	-0.410405
H164	H	1.597461	0.715916	0.089595
N165	N	0.574697	-0.000000	-0.053383
N166	N	1.074697	0.500000	0.446617
H167	H	0.558327	-0.062201	-0.083833
H168	H	1.058327	0.437799	0.416167
H169	H	0.637806	0.000675	-0.051575
H170	H	1.137806	0.500675	0.448425
N171	N	0.816339	0.390993	0.290746
N172	N	1.316339	0.890993	0.790746
H173	H	0.848427	0.347417	0.327959
H174	H	1.348427	0.847417	0.827959
H175	H	0.779173	0.347479	0.258560
H176	H	1.279173	0.847479	0.758560
N177	N	0.409947	0.000006	0.283502
N178	N	0.909947	0.500006	0.783502
H179	H	0.426418	-0.062157	0.313941
H180	H	0.926418	0.437843	0.813941
H181	H	0.346819	0.000634	0.281827
H182	H	0.846819	0.500634	0.781827
N183	N	0.541519	0.174463	0.200767
N184	N	1.041519	0.674463	0.700767
H185	H	0.525209	0.236573	0.170159
H186	H	1.025209	0.736573	0.670159
H187	H	0.604698	0.173358	0.202040
H188	H	1.104698	0.673358	0.702040
H189	H	0.831460	0.595408	0.275650
H190	H	1.331460	1.095408	0.775650
H191	H	0.888600	0.752934	0.218567
H192	H	1.388600	1.252934	0.718567
N193	N	1.168108	0.609214	-0.060713
N194	N	1.668108	1.109214	0.439287
H195	H	1.159441	0.683715	-0.052052
H196	H	1.659441	1.183715	0.447948
H197	H	1.158422	0.590858	-0.120311
H198	H	1.658422	1.090858	0.379689
N199	N	1.168090	0.390923	-0.060725
N200	N	1.668090	0.890923	0.439275
H201	H	1.204283	0.440118	-0.096886
H202	H	1.704283	0.940118	0.403114
H203	H	1.135937	0.347358	-0.097882
H204	H	1.635937	0.847358	0.402118
