data_functionalizedCrystal
_audit_creation_method	'MofGen! by Chris Wilmer'
_symmetry_space_group_name_H-M	'P1'
_symmetry_Int_Tables_number	1
_symmetry_cell_setting	triclinic
loop_
_symmetry_equiv_pos_as_xyz
  x,y,z
_cell_length_a	12.827893
_cell_length_b	12.827893
_cell_length_c	12.827893
_cell_angle_alpha	90.002525
_cell_angle_beta	89.996214
_cell_angle_gamma	89.996520
loop_
_atom_site_label
_atom_site_type_symbol
_atom_site_fract_x
_atom_site_fract_y
_atom_site_fract_z
Zn1	Zn	-1.597596	-0.416216	0.590883
Zn2	Zn	-1.264263	-0.082882	0.924216
Zn3	Zn	-0.930930	0.250451	1.257549
Zn4	Zn	-1.597574	-0.590924	0.416158
Zn5	Zn	-1.264240	-0.257591	0.749491
Zn6	Zn	-0.930907	0.075742	1.082824
Zn7	Zn	-1.422885	-0.416198	0.416156
Zn8	Zn	-1.089551	-0.082864	0.749490
Zn9	Zn	-0.756218	0.250469	1.082823
Zn10	Zn	-1.422859	-0.590915	0.590857
Zn11	Zn	-1.089526	-0.257582	0.924191
Zn12	Zn	-0.756192	0.075752	1.257524
O13	O	-1.510228	-0.503563	0.503513
O14	O	-1.176895	-0.170230	0.836847
O15	O	-0.843562	0.163104	1.170180
O16	O	-1.743829	-0.439402	0.567716
O17	O	-1.410496	-0.106069	0.901049
O18	O	-1.077163	0.227264	1.234383
O19	O	-1.574402	-0.567743	0.269921
O20	O	-1.241069	-0.234409	0.603255
O21	O	-0.907736	0.098924	0.936588
O22	O	-1.446081	-0.269964	0.439344
O23	O	-1.112747	0.063369	0.772678
O24	O	-0.779414	0.396703	1.106011
O25	O	-1.743813	-0.567760	0.439346
O26	O	-1.410479	-0.234427	0.772680
O27	O	-1.077146	0.098907	1.106013
O28	O	-1.574440	-0.269977	0.567715
O29	O	-1.241107	0.063356	0.901048
O30	O	-0.907774	0.396690	1.234382
O31	O	-1.446059	-0.439372	0.269921
O32	O	-1.112726	-0.106039	0.603254
O33	O	-0.779392	0.227295	0.936587
O34	O	-1.276645	-0.439363	0.439320
O35	O	-0.943312	-0.106030	0.772653
O36	O	-0.609979	0.227304	1.105986
O37	O	-1.446037	-0.567744	0.737097
O38	O	-1.112704	-0.234411	1.070430
O39	O	-0.779370	0.098922	1.403763
O40	O	-1.276626	-0.567727	0.567672
O41	O	-0.943293	-0.234394	0.901005
O42	O	-0.609960	0.098939	1.234338
O43	O	-1.574416	-0.439393	0.737115
O44	O	-1.241082	-0.106060	1.070449
O45	O	-0.907749	0.227273	1.403782
O46	O	-1.574377	-0.737159	0.439322
O47	O	-1.241044	-0.403826	0.772655
O48	O	-0.907711	-0.070492	1.105988
O49	O	-1.446015	-0.737152	0.567673
O50	O	-1.112682	-0.403819	0.901006
O51	O	-0.779349	-0.070486	1.234340
C52	C	-1.238719	-0.503543	0.503494
C53	C	-0.905385	-0.170210	0.836827
C54	C	-0.572052	0.163124	1.170160
C55	C	-1.122565	-0.503560	0.503510
C56	C	-0.789232	-0.170226	0.836843
C57	C	-0.455899	0.163107	1.170176
C58	C	-1.510219	-0.775073	0.503517
C59	C	-1.176886	-0.441740	0.836851
C60	C	-0.843553	-0.108406	1.170184
C61	C	-1.510311	-0.891226	0.503554
C62	C	-1.176978	-0.557893	0.836887
C63	C	-0.843644	-0.224559	1.170221
C64	C	-1.782799	-0.503584	0.503534
C65	C	-1.449465	-0.170251	0.836867
C66	C	-1.116132	0.163083	1.170201
C67	C	-1.898952	-0.503593	0.503543
C68	C	-1.565618	-0.170260	0.836876
C69	C	-1.232285	0.163074	1.170209
C70	C	-1.510226	-0.503570	0.776084
C71	C	-1.176893	-0.170237	1.109417
C72	C	-0.843559	0.163097	1.442750
C73	C	-1.510225	-0.503573	0.892237
C74	C	-1.176891	-0.170240	1.225570
C75	C	-0.843558	0.163094	1.558903
C76	C	-1.070799	-0.567177	0.566925
C77	C	-0.737466	-0.233844	0.900258
C78	C	-0.404132	0.099489	1.233591
C79	C	-0.950749	-0.567196	0.566943
C80	C	-0.617415	-0.233863	0.900276
C81	C	-0.284082	0.099471	1.233610
C82	C	-1.510266	-0.230993	0.503532
C83	C	-1.176933	0.102340	0.836866
C84	C	-0.843599	0.435674	1.170199
C85	C	-1.510282	-0.114840	0.503540
C86	C	-1.176949	0.218493	0.836874
C87	C	-0.843615	0.551827	1.170207
C88	C	-1.446779	-0.063049	0.440029
C89	C	-1.113446	0.270285	0.773362
C90	C	-0.780113	0.603618	1.106695
C91	C	-1.446794	0.057002	0.440036
C92	C	-1.113461	0.390335	0.773369
C93	C	-0.780128	0.723668	1.106702
C94	C	-1.573743	-0.440069	0.944031
C95	C	-1.240410	-0.106735	1.277364
C96	C	-0.907077	0.226598	1.610697
C97	C	-1.573744	-0.440070	1.064081
C98	C	-1.240410	-0.106737	1.397414
C99	C	-0.907077	0.226597	1.730748
C100	C	-1.510223	-0.503580	1.232004
C101	C	-1.176890	-0.170246	1.565337
C102	C	-0.843557	0.163087	1.898670
C103	C	-1.510224	-0.503577	1.115850
C104	C	-1.176891	-0.170243	1.449184
C105	C	-0.843558	0.163090	1.782517
H106	H	-1.115357	-0.621625	0.621206
H107	H	-0.782023	-0.288292	0.954540
H108	H	-0.448690	0.045041	1.287873
H109	H	-1.392431	0.101540	0.385656
H110	H	-1.059098	0.434873	0.718990
H111	H	-0.725764	0.768206	1.052323
H112	H	-0.906231	-0.621664	0.621232
H113	H	-0.572897	-0.288331	0.954565
H114	H	-0.239564	0.045002	1.287898
H115	H	-1.628120	-0.385696	0.899496
H116	H	-1.294787	-0.052362	1.232830
H117	H	-0.961453	0.280971	1.566163
H118	H	-1.078008	-0.449104	0.449236
H119	H	-0.744675	-0.115770	0.782569
H120	H	-0.411341	0.217563	1.115903
H121	H	-1.564685	0.064241	0.557928
H122	H	-1.231351	0.397575	0.891261
H123	H	-0.898018	0.730908	1.224594
H124	H	-1.564657	-0.070305	0.557924
H125	H	-1.231323	0.263029	0.891258
H126	H	-0.897990	0.596362	1.224591
H127	H	-1.628128	-0.385705	1.108622
H128	H	-1.294795	-0.052372	1.441956
H129	H	-0.961461	0.280961	1.775289
H130	H	-1.455845	-0.557952	1.071316
H131	H	-1.122511	-0.224618	1.404649
H132	H	-0.789178	0.108715	1.737982
H133	H	-1.455838	-0.557935	0.936771
H134	H	-1.122504	-0.224602	1.270104
H135	H	-0.789171	0.108731	1.603437
H136	H	-0.943463	-0.449128	0.449245
H137	H	-0.610130	-0.115795	0.782578
H138	H	-0.276796	0.217538	1.115911
H139	H	-1.392398	-0.107585	0.385653
H140	H	-1.059064	0.225748	0.718986
H141	H	-0.725731	0.559082	1.052319
