data_functionalizedCrystal
_audit_creation_method	'MofGen! by Chris Wilmer'
_symmetry_space_group_name_H-M	'P1'
_symmetry_Int_Tables_number	1
_symmetry_cell_setting	triclinic
loop_
_symmetry_equiv_pos_as_xyz
  x,y,z
_cell_length_a	35.277628
_cell_length_b	35.288095
_cell_length_c	35.277682
_cell_angle_alpha	59.997929
_cell_angle_beta	89.998958
_cell_angle_gamma	60.000166
loop_
_atom_site_label
_atom_site_type_symbol
_atom_site_fract_x
_atom_site_fract_y
_atom_site_fract_z
O1	O	-0.323087	-0.271234	0.011271
O2	O	-0.267964	-0.193634	-0.011228
O3	O	-0.267962	-0.271233	0.066395
O4	O	-0.323089	-0.193635	-0.066351
O5	O	-0.204915	-0.334261	0.066394
O6	O	-0.204918	-0.256661	-0.011228
O7	O	-0.260040	-0.334261	0.011271
Cu8	Cu	-0.226722	-0.301216	0.000022
Cu9	Cu	-0.301282	-0.226679	0.000022
O10	O	-0.260043	-0.256662	-0.066351
C11	C	-0.163481	-0.071298	-0.023519
C12	C	-0.186872	-0.024531	-0.020298
C13	C	-0.117860	-0.093995	-0.023838
C14	C	-0.163483	-0.139918	-0.023524
C15	C	-0.186875	-0.166518	-0.020308
C16	C	-0.117862	-0.162510	-0.023843
C17	C	-0.094838	-0.139921	-0.023519
C18	C	-0.044836	-0.166525	-0.020298
C19	C	-0.186401	-0.093991	-0.023843
C20	C	-0.004439	-0.188019	-0.017694
C21	C	-0.205769	0.013252	-0.017695
C22	C	-0.205774	-0.188010	-0.017709
C23	C	0.046241	-0.214983	-0.014429
C24	C	-0.229477	0.060653	-0.014430
C25	C	-0.229483	-0.214971	-0.014450
C26	C	-0.500364	-0.466062	0.034181
C27	C	-0.477341	-0.511990	0.034503
C28	C	-0.431722	-0.466060	0.034178
C29	C	-0.408804	-0.511988	0.034500
C30	C	-0.431721	-0.534685	0.034181
C31	C	-0.477342	-0.443470	0.034500
C32	C	-0.665895	-0.342485	0.021756
C33	C	-0.712772	-0.317221	0.018243
C34	C	-0.736287	-0.338907	0.016481
C35	C	-0.787116	-0.311512	0.012664
C36	C	-0.712921	-0.385861	0.018236
C37	C	-0.666047	-0.411125	0.021755
C38	C	-0.642533	-0.389434	0.023515
C39	C	-0.389805	-0.687746	0.021758
C40	C	-0.368199	-0.731097	0.018245
C41	C	-0.322995	-0.752841	0.016478
C42	C	-0.299567	-0.799839	0.012662
C43	C	-0.299393	-0.731235	0.018230
C44	C	-0.320995	-0.687892	0.021751
C45	C	-0.366205	-0.666148	0.023512
C46	C	-0.389808	-0.342477	0.021744
C47	C	-0.368205	-0.317208	0.018222
C48	C	-0.322998	-0.338892	0.016457
C49	C	-0.299573	-0.311495	0.012637
C50	C	-0.299398	-0.385842	0.018210
C51	C	-0.321003	-0.411107	0.021730
C52	C	-0.366208	-0.389423	0.023501
C53	C	-0.591706	-0.416830	0.027326
C54	C	-0.551191	-0.438667	0.030366
C55	C	-0.408299	-0.438663	0.030360
C56	C	-0.389629	-0.416824	0.027317
C57	C	-0.408298	-0.581682	0.030365
C58	C	-0.389627	-0.619146	0.027325
C59	C	-0.432024	-0.061845	-0.438511
C60	C	-0.477645	-0.015917	-0.461431
C61	C	-0.432025	-0.061844	-0.369869
C62	C	-0.477645	-0.015916	-0.392892
C63	C	-0.500668	0.006779	-0.438513
C64	C	-0.409106	-0.084435	-0.392891
C65	C	-0.320834	-0.185425	-0.480424
C66	C	-0.299076	-0.210690	-0.502029
C67	C	-0.322531	-0.189005	-0.547237
C68	C	-0.298945	-0.216401	-0.570661
C69	C	-0.367745	-0.142051	-0.570839
C70	C	-0.389497	-0.116787	-0.549237
C71	C	-0.366040	-0.138476	-0.504027
C72	C	-0.666200	0.159838	-0.549704
C73	C	-0.713077	0.203188	-0.571462
C74	C	-0.736595	0.224934	-0.548009
C75	C	-0.787423	0.271931	-0.571594
C76	C	-0.713230	0.203329	-0.502796
C77	C	-0.666353	0.159987	-0.481041
C78	C	-0.642841	0.138241	-0.504500
C79	C	-0.320836	-0.185423	-0.204335
C80	C	-0.299080	-0.210691	-0.157455
C81	C	-0.322536	-0.189006	-0.133940
C82	C	-0.298950	-0.216402	-0.083110
C83	C	-0.367748	-0.142056	-0.157305
C84	C	-0.389502	-0.116792	-0.204182
C85	C	-0.366040	-0.138478	-0.227695
C86	C	-0.389632	-0.111079	-0.480604
C87	C	-0.408436	-0.089241	-0.461934
C88	C	-0.408437	-0.089240	-0.319041
C89	C	-0.389634	-0.111078	-0.278525
C90	C	-0.551496	0.053776	-0.462102
C91	C	-0.592011	0.091239	-0.480906
O92	O	0.196122	-0.334274	0.011291
O93	O	0.063378	-0.256674	-0.011208
O94	O	0.140994	-0.334276	0.066414
O95	O	0.118506	-0.256671	-0.066331
O96	O	0.140996	-0.271251	0.066419
O97	O	0.063380	-0.193649	-0.011203
O98	O	0.196124	-0.271249	0.011296
Cu99	Cu	0.129752	-0.226694	0.000047
Cu100	Cu	0.129750	-0.301228	0.000041
O101	O	0.118508	-0.193647	-0.066327
O102	O	-0.260036	0.184774	0.011294
O103	O	-0.204910	0.074561	-0.011204
O104	O	-0.204913	0.074554	0.066418
O105	O	-0.260033	0.184781	-0.066328
O106	O	-0.267961	0.074557	0.066413
O107	O	-0.267958	0.074564	-0.011209
O108	O	-0.323083	0.184777	0.011289
Cu109	Cu	-0.301278	0.129670	0.000040
Cu110	Cu	-0.226716	0.129668	0.000045
O111	O	-0.323081	0.184784	-0.066333
O112	O	-0.936929	0.397535	-0.602582
O113	O	-0.804185	0.287317	-0.547454
O114	O	-0.881802	0.287315	-0.547452
O115	O	-0.859312	0.397537	-0.602584
O116	O	-0.881801	0.287314	-0.610498
O117	O	-0.804183	0.287316	-0.610500
O118	O	-0.936927	0.397533	-0.665628
Cu119	Cu	-0.870555	0.342425	-0.643820
Cu120	Cu	-0.870557	0.342426	-0.569261
O121	O	-0.859310	0.397536	-0.665629
O122	O	-0.267961	-0.271234	-0.665316
O123	O	-0.323086	-0.193638	-0.610192
O124	O	-0.323085	-0.271236	-0.610189
O125	O	-0.267962	-0.193636	-0.665319
O126	O	-0.260038	-0.334264	-0.547142
O127	O	-0.260039	-0.256666	-0.547145
O128	O	-0.204914	-0.334262	-0.602269
Cu129	Cu	-0.226720	-0.301219	-0.568950
Cu130	Cu	-0.301280	-0.226681	-0.643511
O131	O	-0.204915	-0.256664	-0.602272
C132	C	-0.094840	-0.456607	0.293255
C133	C	-0.044837	-0.503376	0.316647
C134	C	-0.117862	-0.433912	0.316174
C135	C	-0.163483	-0.387984	0.224612
C136	C	-0.186875	-0.361381	0.174609
C137	C	-0.186401	-0.365393	0.247634
C138	C	-0.163483	-0.387984	0.293255
C139	C	-0.186874	-0.361382	0.316646
C140	C	-0.117862	-0.433912	0.247635
C141	C	-0.205772	-0.339889	0.335543
C142	C	-0.004440	-0.541160	0.335545
C143	C	-0.205773	-0.339888	0.134212
C144	C	-0.229480	-0.312925	0.359250
C145	C	0.046239	-0.588562	0.359254
C146	C	-0.229481	-0.312924	0.083532
C147	C	0.153295	-0.388013	0.293279
C148	C	0.150076	-0.361413	0.316673
C149	C	0.153614	-0.433940	0.316196
C150	C	0.153297	-0.388008	0.224634
C151	C	0.150079	-0.361403	0.174632
C152	C	0.153616	-0.433935	0.247655
C153	C	0.153293	-0.456633	0.293275
C154	C	0.150072	-0.503401	0.316665
C155	C	0.153617	-0.365420	0.247659
C156	C	0.147469	-0.541185	0.335561
C157	C	0.147474	-0.339922	0.335572
C158	C	0.147479	-0.339908	0.134234
C159	C	0.144204	-0.588587	0.359267
C160	C	0.144211	-0.312962	0.359282
C161	C	0.144218	-0.312942	0.083555
C162	C	-0.163482	-0.139963	0.293267
C163	C	-0.186875	-0.166567	0.316654
C164	C	-0.117861	-0.162559	0.316187
C165	C	-0.163482	-0.071333	0.224628
C166	C	-0.186873	-0.024557	0.174627
C167	C	-0.117860	-0.094033	0.247653
C168	C	-0.094838	-0.139967	0.293272
C169	C	-0.044835	-0.166574	0.316665
C170	C	-0.186401	-0.094030	0.247648
C171	C	-0.004438	-0.188070	0.335563
C172	C	-0.205773	-0.188061	0.335549
C173	C	-0.205771	0.013233	0.134231
C174	C	0.046242	-0.215038	0.359273
C175	C	-0.229482	-0.215026	0.359253
C176	C	-0.229479	0.060643	0.083553
C177	C	0.095627	0.006487	-0.438489
C178	C	0.095306	-0.016206	-0.461409
C179	C	0.095623	-0.062137	-0.369847
C180	C	0.095303	-0.084726	-0.392871
C181	C	0.095625	-0.062133	-0.438492
C182	C	0.095305	-0.016210	-0.392868
C183	C	0.108059	0.159543	-0.480399
C184	C	0.111575	0.202893	-0.502003
C185	C	0.113340	0.224640	-0.547210
C186	C	0.117161	0.271637	-0.570634
C187	C	0.111587	0.203038	-0.570814
C188	C	0.108065	0.159695	-0.549212
C189	C	0.106302	0.137948	-0.504002
C190	C	0.108054	-0.116452	-0.549685
C191	C	0.111568	-0.141562	-0.571444
C192	C	0.113332	-0.188519	-0.547992
C193	C	0.117148	-0.215753	-0.571578
C194	C	0.111577	-0.210363	-0.502779
C195	C	0.108055	-0.185249	-0.481023
C196	C	0.106297	-0.138292	-0.504481
C197	C	0.108046	-0.116473	-0.204312
C198	C	0.111564	-0.141591	-0.157432
C199	C	0.113326	-0.188548	-0.133918
C200	C	0.117142	-0.215786	-0.083088
C201	C	0.111574	-0.210388	-0.157283
C202	C	0.108058	-0.185270	-0.204161
C203	C	0.106290	-0.138308	-0.227673
C204	C	0.102487	0.090947	-0.480580
C205	C	0.099445	0.053484	-0.461911
C206	C	0.099438	-0.089371	-0.319019
C207	C	0.102477	-0.111078	-0.278503
C208	C	0.099442	-0.089362	-0.462081
C209	C	0.102482	-0.111066	-0.480886
O210	O	0.118477	-0.256700	0.452885
O211	O	0.140984	-0.334299	0.397762
O212	O	0.063360	-0.256699	0.397752
O213	O	0.196101	-0.334300	0.452895
O214	O	0.063367	-0.193672	0.334708
O215	O	0.140992	-0.271271	0.334718
O216	O	0.118484	-0.193673	0.389842
Cu217	Cu	0.129739	-0.226717	0.356523
Cu218	Cu	0.129730	-0.301254	0.431080
O219	O	0.196108	-0.271272	0.389852
C220	C	-0.500364	0.533998	-0.438484
C221	C	-0.477341	0.556591	-0.461399
C222	C	-0.431721	0.465364	-0.369840
C223	C	-0.408802	0.488061	-0.392859
C224	C	-0.431720	0.533995	-0.438478
C225	C	-0.477342	0.488064	-0.392865
C226	C	-0.665898	0.588334	-0.480407
C227	C	-0.712776	0.613450	-0.502014
C228	C	-0.736291	0.660414	-0.547220
C229	C	-0.787122	0.687654	-0.570647
C230	C	-0.712926	0.682257	-0.570819
C231	C	-0.666050	0.657138	-0.549214
C232	C	-0.642536	0.610174	-0.504006
C233	C	-0.389802	0.657585	-0.549654
C234	C	-0.368196	0.682850	-0.571408
C235	C	-0.322990	0.661164	-0.547952
C236	C	-0.299561	0.688558	-0.571532
C237	C	-0.299388	0.614205	-0.502740
C238	C	-0.320990	0.588935	-0.480990
C239	C	-0.366202	0.610633	-0.504452
C240	C	-0.389804	0.312282	-0.204314
C241	C	-0.368201	0.268929	-0.157436
C242	C	-0.322993	0.247179	-0.133918
C243	C	-0.299567	0.200174	-0.083089
C244	C	-0.299392	0.268786	-0.157278
C245	C	-0.320998	0.312139	-0.204154
C246	C	-0.366204	0.333881	-0.227670
C247	C	-0.591708	0.582942	-0.480581
C248	C	-0.551193	0.561234	-0.461909
C249	C	-0.408297	0.418359	-0.319013
C250	C	-0.389626	0.380890	-0.278499
C251	C	-0.408296	0.561393	-0.462062
C252	C	-0.389624	0.583232	-0.480862
H253	H	-0.099380	-0.199466	-0.024359
H254	H	0.154138	-0.452930	0.229170
H255	H	-0.223883	-0.328432	0.229146
H256	H	0.154122	-0.452930	0.353678
C257	C	-0.640035	0.536672	-0.430683
C258	C	-0.597194	0.484664	-0.421073
C259	C	-0.571329	0.433003	-0.371349
C260	C	-0.588305	0.433350	-0.331235
C261	C	-0.631148	0.485360	-0.340843
C262	C	-0.657013	0.537021	-0.390567
H263	H	-0.584625	0.484406	-0.450769
H264	H	-0.539613	0.394502	-0.364237
H265	H	-0.569158	0.395107	-0.294427
H266	H	-0.643717	0.485618	-0.311147
H267	H	-0.688728	0.575522	-0.397680
H268	H	0.154133	-0.328462	0.229178
H269	H	-0.099381	-0.199518	0.353671
C270	C	-0.738473	-0.265572	0.016307
C271	C	-0.760085	-0.264045	0.053879
C272	C	-0.785787	-0.212395	0.051941
C273	C	-0.789875	-0.162272	0.012432
C274	C	-0.768262	-0.163798	-0.025143
C275	C	-0.742560	-0.215448	-0.023206
H276	H	-0.757059	-0.301150	0.083129
H277	H	-0.801786	-0.211266	0.079757
H278	H	-0.808901	-0.124038	0.010997
H279	H	-0.771288	-0.126693	-0.054394
H280	H	-0.726561	-0.216577	-0.051021
H281	H	-0.426614	0.675254	-0.568760
C282	C	-0.502622	0.009746	-0.367927
C283	C	-0.509825	-0.022793	-0.322935
C284	C	-0.534804	0.002869	-0.297972
C285	C	-0.552581	0.061070	-0.318001
C286	C	-0.545379	0.093612	-0.362996
C287	C	-0.520400	0.067950	-0.387959
H288	H	-0.496665	-0.065880	-0.308105
H289	H	-0.540136	-0.021221	-0.264664
H290	H	-0.571073	0.080067	-0.299522
H291	H	-0.558539	0.136699	-0.377825
H292	H	-0.515069	0.092040	-0.421267
H293	H	-0.301770	0.550701	-0.444180
C294	C	0.106117	0.135625	-0.430670
C295	C	0.102250	0.087943	-0.406904
C296	C	0.100310	0.064022	-0.357176
C297	C	0.102236	0.087782	-0.331215
C298	C	0.106103	0.135467	-0.354981
C299	C	0.108044	0.159388	-0.404709
H300	H	0.100824	0.070352	-0.426123
H301	H	0.097447	0.028723	-0.339583
H302	H	0.100800	0.070075	-0.294403
H303	H	0.107530	0.153058	-0.335762
H304	H	0.110906	0.194687	-0.422302
C305	C	-0.502618	0.009743	-0.512067
C306	C	-0.477305	-0.015222	-0.537385
C307	C	-0.502279	0.010437	-0.588019
C308	C	-0.552566	0.061060	-0.613335
C309	C	-0.577882	0.086028	-0.588017
C310	C	-0.552908	0.060369	-0.537383
H311	H	-0.440077	-0.052699	-0.518645
H312	H	-0.483539	-0.008046	-0.606761
H313	H	-0.571053	0.080054	-0.650817
H314	H	-0.615109	0.123504	-0.606758
H315	H	-0.571648	0.078852	-0.518642
C316	C	-0.295026	-0.209282	-0.430698
C317	C	-0.315230	-0.226644	-0.391679
C318	C	-0.289423	-0.250499	-0.341953
C319	C	-0.243412	-0.256993	-0.331246
C320	C	-0.223205	-0.239631	-0.370266
C321	C	-0.249012	-0.215775	-0.419992
H322	H	-0.349293	-0.221837	-0.399604
H323	H	-0.304382	-0.263352	-0.313068
H324	H	-0.224308	-0.274652	-0.294436
H325	H	-0.189143	-0.244437	-0.362341
H326	H	-0.234053	-0.202923	-0.448877
C327	C	-0.502308	-0.537654	0.035203
C328	C	-0.552597	-0.512693	0.035548
C329	C	-0.577561	-0.538357	0.036249
C330	C	-0.552237	-0.588982	0.036604
C331	C	-0.501945	-0.613947	0.036259
C332	C	-0.476981	-0.588282	0.035559
H333	H	-0.571346	-0.475214	0.035285
H334	H	-0.614790	-0.519876	0.036504
H335	H	-0.570717	-0.607981	0.037123
H336	H	-0.483196	-0.651425	0.036522
H337	H	-0.439752	-0.606763	0.035303
H338	H	-0.099372	-0.452898	0.229148
C339	C	0.094615	0.009454	-0.512045
C340	C	0.134361	-0.023093	-0.524486
C341	C	0.133672	0.002564	-0.575119
C342	C	0.093239	0.060768	-0.613312
C343	C	0.053490	0.093318	-0.600872
C344	C	0.054179	0.067661	-0.550238
H345	H	0.164295	-0.066182	-0.496213
H346	H	0.163097	-0.021533	-0.584328
H347	H	0.092729	0.079761	-0.650793
H348	H	0.023556	0.136407	-0.629145
H349	H	0.024754	0.091757	-0.541030
C350	C	-0.092888	-0.068373	0.222689
C351	C	-0.118201	-0.017748	0.172402
C352	C	-0.093229	0.007911	0.147441
C353	C	-0.042943	-0.017056	0.172767
C354	C	-0.017626	-0.067684	0.223057
C355	C	-0.042599	-0.093343	0.248018
H356	H	-0.155429	0.000737	0.153651
H357	H	-0.111970	0.045389	0.110212
H358	H	-0.024457	0.001937	0.154289
H359	H	0.019601	-0.086169	0.241808
H360	H	-0.023858	-0.130821	0.285247
H361	H	-0.223885	-0.074993	-0.024363
C362	C	-0.249347	-0.262332	-0.131755
C363	C	-0.209319	-0.261873	-0.148858
C364	C	-0.159584	-0.313511	-0.123159
C365	C	-0.149877	-0.365608	-0.080355
C366	C	-0.189906	-0.366068	-0.063249
C367	C	-0.239641	-0.314430	-0.088949
H368	H	-0.216504	-0.223306	-0.180546
H369	H	-0.129952	-0.313170	-0.135822
H370	H	-0.113060	-0.403833	-0.061330
H371	H	-0.182721	-0.404635	-0.031561
H372	H	-0.269273	-0.314772	-0.076286
H373	H	0.106630	-0.203055	-0.223182
H374	H	0.113009	-0.248624	-0.138135
H375	H	-0.099377	-0.452909	0.353658
C376	C	-0.394160	0.245161	-0.131740
C377	C	-0.410811	0.221794	-0.148849
C378	C	-0.436771	0.198025	-0.123154
C379	C	-0.446079	0.197623	-0.080350
C380	C	-0.429427	0.220991	-0.063239
C381	C	-0.403468	0.244761	-0.088934
H382	H	-0.403921	0.222091	-0.180536
H383	H	-0.449097	0.180726	-0.135820
H384	H	-0.465295	0.180028	-0.061329
H385	H	-0.436318	0.220695	-0.031551
H386	H	-0.391142	0.262059	-0.076267
C387	C	0.113490	-0.117569	-0.131731
C388	C	0.152989	-0.111018	-0.127641
C389	C	0.154913	-0.086994	-0.101941
C390	C	0.117336	-0.069520	-0.080330
C391	C	0.077834	-0.076070	-0.084419
C392	C	0.075911	-0.100094	-0.110119
H393	H	0.180808	-0.123954	-0.143640
H394	H	0.184155	-0.082145	-0.098914
H395	H	0.118760	-0.051735	-0.061304
H396	H	0.050015	-0.063134	-0.068420
H397	H	0.046668	-0.104943	-0.113146
C398	C	-0.393544	-0.118199	-0.620565
C399	C	-0.402730	-0.151415	-0.630180
C400	C	-0.428532	-0.127560	-0.679907
C401	C	-0.445147	-0.070490	-0.720020
C402	C	-0.435961	-0.037271	-0.710406
C403	C	-0.410159	-0.061126	-0.660679
H404	H	-0.390431	-0.193664	-0.600485
H405	H	-0.435332	-0.152152	-0.687024
H406	H	-0.464247	-0.052832	-0.756831
H407	H	-0.448260	0.004978	-0.740101
H408	H	-0.403359	-0.036534	-0.653562
C409	C	-0.237034	-0.068372	0.222669
C410	C	-0.262351	-0.093343	0.247975
C411	C	-0.312981	-0.067689	0.222994
C412	C	-0.338293	-0.017064	0.172707
C413	C	-0.312977	0.007910	0.147397
C414	C	-0.262347	-0.017744	0.172378
H415	H	-0.243613	-0.130821	0.285204
H416	H	-0.331722	-0.086176	0.241730
H417	H	-0.375772	0.001927	0.154214
H418	H	-0.331714	0.045388	0.110169
H419	H	-0.243606	0.000744	0.153643
H420	H	0.094825	0.002760	-0.374372
H421	H	0.094785	-0.121682	-0.374387
H422	H	-0.099379	-0.074998	-0.024355
C423	C	0.113511	0.226649	-0.476038
C424	C	0.153018	0.191235	-0.429988
C425	C	0.154955	0.214990	-0.404022
C426	C	0.117385	0.274158	-0.424107
C427	C	0.077876	0.309575	-0.470160
C428	C	0.075938	0.285821	-0.496125
H429	H	0.180831	0.147432	-0.415118
H430	H	0.184203	0.188772	-0.369931
H431	H	0.118819	0.291743	-0.404886
H432	H	0.050062	0.353379	-0.485030
H433	H	0.046690	0.312039	-0.530217
C434	C	0.113528	0.226959	-0.620539
C435	C	0.075960	0.286169	-0.659552
C436	C	0.077902	0.310089	-0.709279
C437	C	0.117413	0.274800	-0.719994
C438	C	0.154984	0.215587	-0.680980
C439	C	0.153042	0.191666	-0.631253
H440	H	0.046709	0.312295	-0.651622
H441	H	0.050089	0.353923	-0.738160
H442	H	0.118851	0.292507	-0.756805
H443	H	0.184235	0.189460	-0.688910
H444	H	0.180855	0.147833	-0.602372
H445	H	0.106608	-0.078237	-0.223453
C446	C	0.113505	-0.117540	-0.621173
C447	C	0.073032	-0.060420	-0.661210
C448	C	0.074971	-0.036398	-0.710938
C449	C	0.117382	-0.069496	-0.720630
C450	C	0.157858	-0.126619	-0.680591
C451	C	0.155919	-0.150641	-0.630863
H452	H	0.041634	-0.035916	-0.654037
H453	H	0.045008	0.005889	-0.740577
H454	H	0.118817	-0.051713	-0.757442
H455	H	0.189256	-0.151123	-0.687764
H456	H	0.185882	-0.192928	-0.601224
H457	H	0.106637	0.142110	-0.568432
H458	H	0.106619	-0.078217	-0.568789
H459	H	0.113006	-0.248593	-0.483685
C460	C	-0.439536	-0.318619	0.023682
C461	C	-0.463301	-0.346409	0.027554
C462	C	-0.513030	-0.322552	0.029488
C463	C	-0.538995	-0.270904	0.027551
C464	C	-0.515230	-0.243111	0.023679
C465	C	-0.465501	-0.266968	0.021745
H466	H	-0.444080	-0.384644	0.028988
H467	H	-0.530622	-0.343126	0.032354
H468	H	-0.575807	-0.253243	0.028983
H469	H	-0.534451	-0.204875	0.022244
H470	H	-0.447909	-0.246394	0.018878
H471	H	-0.732097	0.220775	-0.608274
H472	H	-0.371321	-0.530978	0.035012
H473	H	0.106623	-0.203035	-0.444212
C474	C	-0.358163	0.462397	-0.367891
C475	C	-0.332842	0.411770	-0.317604
C476	C	-0.282205	0.386107	-0.292639
C477	C	-0.256887	0.411070	-0.317960
C478	C	-0.282208	0.461699	-0.368250
C479	C	-0.332845	0.487362	-0.393215
H480	H	-0.351584	0.393289	-0.298857
H481	H	-0.263461	0.348628	-0.255411
H482	H	-0.219402	0.392072	-0.299479
H483	H	-0.263466	0.480180	-0.386996
H484	H	-0.351589	0.524842	-0.430443
H485	H	-0.495829	-0.406511	0.035012
C486	C	-0.394164	-0.265565	0.016295
C487	C	-0.410811	-0.266019	0.056780
C488	C	-0.436770	-0.214378	0.054856
C489	C	-0.446081	-0.162282	0.012447
C490	C	-0.429433	-0.161825	-0.028041
C491	C	-0.403475	-0.213467	-0.026117
H492	H	-0.403919	-0.304586	0.088176
H493	H	-0.449093	-0.214716	0.084828
H494	H	-0.465297	-0.124054	0.011023
H495	H	-0.436326	-0.123259	-0.059437
H496	H	-0.391151	-0.213129	-0.056088
H497	H	-0.301778	0.329728	-0.223172
C498	C	-0.394161	-0.754856	0.016311
C499	C	-0.374076	-0.814025	0.053884
C500	C	-0.400039	-0.837784	0.051948
C501	C	-0.446088	-0.802373	0.012440
C502	C	-0.466176	-0.743201	-0.025135
C503	C	-0.440212	-0.719442	-0.023200
H504	H	-0.339986	-0.840241	0.083132
H505	H	-0.385168	-0.881587	0.079764
H506	H	-0.465307	-0.819961	0.011008
H507	H	-0.500266	-0.716985	-0.054383
H508	H	-0.455083	-0.675639	-0.051016
H509	H	-0.495826	0.593550	-0.498882
C510	C	-0.249666	-0.755154	0.016291
C511	C	-0.240050	-0.755583	-0.026120
C512	C	-0.190323	-0.779501	-0.028061
C513	C	-0.150212	-0.802990	0.012410
C514	C	-0.159828	-0.802563	0.054825
C515	C	-0.209554	-0.778645	0.056766
H516	H	-0.269743	-0.738194	-0.056082
H517	H	-0.183205	-0.779817	-0.059460
H518	H	-0.113402	-0.820696	0.010974
H519	H	-0.130134	-0.819952	0.084787
H520	H	-0.216672	-0.778328	0.088164
H521	H	-0.495832	0.469078	-0.374381
H522	H	-0.426614	0.329984	-0.223458
C523	C	-0.738477	0.589427	-0.476055
C524	C	-0.721380	0.532312	-0.459403
C525	C	-0.747082	0.508289	-0.433443
C526	C	-0.789880	0.541382	-0.424135
C527	C	-0.806979	0.598501	-0.440788
C528	C	-0.781278	0.622523	-0.466748
H529	H	-0.689696	0.507812	-0.466292
H530	H	-0.734424	0.466006	-0.421115
H531	H	-0.808906	0.523599	-0.404918
H532	H	-0.838663	0.623001	-0.433899
H533	H	-0.793936	0.664807	-0.479076
H534	H	-0.732075	0.720493	-0.607626
H535	H	-0.732070	-0.403516	0.016804
H536	H	-0.647028	0.674924	-0.568431
C537	C	-0.249662	0.244862	-0.131411
C538	C	-0.238945	0.280145	-0.127190
C539	C	-0.189217	0.256222	-0.101323
C540	C	-0.150205	0.197016	-0.079678
C541	C	-0.160921	0.161730	-0.083898
C542	C	-0.210649	0.185653	-0.109765
H543	H	-0.267825	0.323976	-0.143214
H544	H	-0.181285	0.282344	-0.098199
H545	H	-0.113393	0.179307	-0.060530
H546	H	-0.132041	0.117899	-0.067874
H547	H	-0.218581	0.159531	-0.112889
C548	C	-0.394158	0.734505	-0.621134
C549	C	-0.440205	0.784624	-0.631756
C550	C	-0.466168	0.836281	-0.681482
C551	C	-0.446085	0.837819	-0.720586
C552	C	-0.400036	0.787699	-0.709964
C553	C	-0.374073	0.736042	-0.660238
H554	H	-0.455074	0.783487	-0.602809
H555	H	-0.500257	0.873384	-0.689345
H556	H	-0.465305	0.876059	-0.757396
H557	H	-0.385167	0.788836	-0.738912
H558	H	-0.339984	0.698939	-0.652376
C559	C	-0.249660	0.590344	-0.476937
C560	C	-0.210648	0.572997	-0.497152
C561	C	-0.160921	0.549138	-0.471348
C562	C	-0.150204	0.542625	-0.425328
C563	C	-0.189217	0.559972	-0.405110
C564	C	-0.238944	0.583832	-0.430915
H565	H	-0.218580	0.577817	-0.531221
H566	H	-0.132041	0.536296	-0.486314
H567	H	-0.113393	0.524963	-0.406226
H568	H	-0.181285	0.555152	-0.371042
H569	H	-0.267824	0.596673	-0.415948
H570	H	-0.646754	-0.324820	0.023190
H571	H	-0.647026	-0.449354	0.023185
H572	H	-0.301775	-0.670305	0.023178
C573	C	-0.295043	-0.462752	0.023659
C574	C	-0.245318	-0.486606	0.021719
C575	C	-0.219358	-0.538249	0.023646
C576	C	-0.243122	-0.566039	0.027515
C577	C	-0.292849	-0.542185	0.029456
C578	C	-0.318810	-0.490542	0.027528
H579	H	-0.227724	-0.466034	0.018855
H580	H	-0.182546	-0.555907	0.022209
H581	H	-0.223905	-0.604269	0.028942
H582	H	-0.310443	-0.562757	0.032320
H583	H	-0.355621	-0.472884	0.028965
H584	H	-0.426615	-0.670047	0.023195
C585	C	-0.249668	-0.409703	0.016273
C586	C	-0.238953	-0.416205	-0.023238
C587	C	-0.189224	-0.440066	-0.025174
C588	C	-0.150211	-0.457426	0.012400
C589	C	-0.160925	-0.450924	0.051913
C590	C	-0.210654	-0.427063	0.053850
H591	H	-0.267834	-0.403354	-0.051055
H592	H	-0.181293	-0.444879	-0.054425
H593	H	-0.113399	-0.475089	0.010966
H594	H	-0.132044	-0.463775	0.079730
H595	H	-0.218585	-0.422250	0.083100
C596	C	-0.249348	-0.262338	-0.476066
C597	C	-0.209312	-0.261899	-0.459407
C598	C	-0.159584	-0.313549	-0.433442
C599	C	-0.149891	-0.365638	-0.424137
C600	C	-0.189928	-0.366079	-0.440796
C601	C	-0.239656	-0.314429	-0.466761
H602	H	-0.216486	-0.223339	-0.466295
H603	H	-0.129946	-0.313223	-0.421110
H604	H	-0.113079	-0.403872	-0.404917
H605	H	-0.182754	-0.404640	-0.433908
H606	H	-0.269294	-0.314755	-0.479093
C607	C	-0.739095	0.227248	-0.476995
C608	C	-0.781935	0.227676	-0.467807
C609	C	-0.807801	0.251594	-0.442006
C610	C	-0.790827	0.275085	-0.425393
C611	C	-0.747985	0.274658	-0.434581
C612	C	-0.722118	0.250740	-0.460383
H613	H	-0.794502	0.210286	-0.480105
H614	H	-0.839516	0.251910	-0.435204
H615	H	-0.809975	0.292791	-0.406293
H616	H	-0.735417	0.292048	-0.422283
H617	H	-0.690404	0.250424	-0.467184
H618	H	-0.371622	-0.121391	-0.374409
H619	H	-0.426308	-0.078556	-0.568458
C620	C	-0.393554	-0.118196	-0.131443
C621	C	-0.439568	-0.111697	-0.127231
C622	C	-0.465374	-0.087836	-0.101372
C623	C	-0.445167	-0.070475	-0.079723
C624	C	-0.399151	-0.076974	-0.083934
C625	C	-0.373345	-0.100834	-0.109794
H626	H	-0.454528	-0.124549	-0.143257
H627	H	-0.499438	-0.083026	-0.098255
H628	H	-0.464271	-0.052812	-0.060580
H629	H	-0.384191	-0.064122	-0.067908
H630	H	-0.339281	-0.105645	-0.112910
H631	H	-0.301727	-0.203079	-0.223479
H632	H	-0.426314	-0.078564	-0.223203
H633	H	-0.647059	0.142138	-0.568809
H634	H	-0.647332	0.142401	-0.444230
