data_functionalizedCrystal
_audit_creation_method	'MofGen! by Chris Wilmer'
_symmetry_space_group_name_H-M	'P1'
_symmetry_Int_Tables_number	1
_symmetry_cell_setting	triclinic
loop_
_symmetry_equiv_pos_as_xyz
  x,y,z
_cell_length_a	15.944499
_cell_length_b	15.944493
_cell_length_c	10.268362
_cell_angle_alpha	90.000590
_cell_angle_beta	89.992825
_cell_angle_gamma	83.476327
loop_
_atom_site_label
_atom_site_type_symbol
_atom_site_fract_x
_atom_site_fract_y
_atom_site_fract_z
O1	O	1.114529	0.108129	-0.108361
O2	O	1.447862	0.441462	0.224972
O3	O	1.781195	0.774795	0.558306
O4	O	0.869970	0.121531	-0.108344
O5	O	1.203304	0.454864	0.224989
O6	O	1.536637	0.788197	0.558322
O7	O	0.998953	-0.007450	-0.108364
O8	O	1.332287	0.325884	0.224969
O9	O	1.665620	0.659217	0.558303
O10	O	0.985546	0.237109	-0.108341
O11	O	1.318879	0.570443	0.224992
O12	O	1.652213	0.903776	0.558325
O13	O	0.998942	-0.007455	0.108237
O14	O	1.332275	0.325878	0.441570
O15	O	1.665609	0.659212	0.774903
O16	O	0.869959	0.121526	0.108256
O17	O	1.203293	0.454859	0.441590
O18	O	1.536626	0.788192	0.774923
O19	O	1.114518	0.108124	0.108240
O20	O	1.447851	0.441457	0.441573
O21	O	1.781184	0.774790	0.774906
Cu22	Cu	0.992237	0.114824	0.128025
Cu23	Cu	1.325571	0.448157	0.461359
Cu24	Cu	1.658904	0.781491	0.794692
Cu25	Cu	0.992251	0.114830	-0.128130
Cu26	Cu	1.325584	0.448164	0.205203
Cu27	Cu	1.658917	0.781497	0.538537
O28	O	0.985535	0.237104	0.108259
O29	O	1.318868	0.570437	0.441592
O30	O	1.652201	0.903771	0.774926
C31	C	0.838670	0.120979	-0.000042
C32	C	1.172004	0.454313	0.333291
C33	C	1.505337	0.787646	0.666624
C34	C	0.745422	0.119334	-0.000037
C35	C	1.078756	0.452668	0.333296
C36	C	1.412089	0.786001	0.666630
C37	C	0.453871	0.194269	-0.000049
C38	C	0.787204	0.527602	0.333284
C39	C	1.120537	0.860935	0.666617
C40	C	0.514913	0.155319	-0.106851
C41	C	0.848247	0.488652	0.226483
C42	C	1.181580	0.821985	0.559816
C43	C	0.409787	0.113358	-0.000068
C44	C	0.743120	0.446691	0.333266
C45	C	1.076454	0.780025	0.666599
C46	C	0.514888	0.155292	0.106701
C47	C	0.848222	0.488625	0.440034
C48	C	1.181555	0.821958	0.773367
C49	C	0.574695	0.116299	-0.000050
C50	C	0.908028	0.449632	0.333283
C51	C	1.241362	0.782965	0.666616
C52	C	0.469602	0.074386	-0.106957
C53	C	0.802935	0.407719	0.226376
C54	C	1.136268	0.741052	0.559710
C55	C	0.469570	0.074370	0.106690
C56	C	0.802903	0.407703	0.440023
C57	C	1.136237	0.741037	0.773357
C58	C	0.530595	0.035361	-0.000137
C59	C	0.863929	0.368694	0.333196
C60	C	1.197262	0.702028	0.666529
C61	C	0.314787	0.111666	-0.000079
C62	C	0.648121	0.445000	0.333255
C63	C	0.981454	0.778333	0.666588
C64	C	0.669694	0.117984	-0.000049
C65	C	1.003027	0.451318	0.333285
C66	C	1.336360	0.784651	0.666618
C67	C	0.998400	-0.038747	-0.000069
C68	C	1.331733	0.294586	0.333264
C69	C	1.665066	0.627920	0.666597
C70	C	0.996757	-0.131995	-0.000086
C71	C	1.330090	0.201338	0.333248
C72	C	1.663423	0.534671	0.666581
C73	C	1.072679	-0.367769	-0.000066
C74	C	1.406012	-0.034436	0.333267
C75	C	1.739346	0.298897	0.666600
C76	C	1.031743	-0.418327	-0.106858
C77	C	1.365076	-0.084994	0.226475
C78	C	1.698409	0.248340	0.559809
C79	C	0.993713	-0.302716	-0.000070
C80	C	1.327046	0.030618	0.333264
C81	C	1.660379	0.363951	0.666597
C82	C	1.031713	-0.418308	0.106693
C83	C	1.365046	-0.084975	0.440026
C84	C	1.698380	0.248358	0.773360
C85	C	0.990778	-0.467625	-0.000048
C86	C	1.324111	-0.134291	0.333285
C87	C	1.657445	0.199042	0.666618
C88	C	0.952797	-0.352045	-0.106950
C89	C	1.286131	-0.018712	0.226384
C90	C	1.619464	0.314621	0.559717
C91	C	0.952780	-0.352023	0.106698
C92	C	1.286113	-0.018690	0.440031
C93	C	1.619446	0.314643	0.773364
C94	C	0.911785	-0.402548	-0.000120
C95	C	1.245118	-0.069215	0.333213
C96	C	1.578452	0.264118	0.666546
C97	C	0.995405	-0.207716	-0.000083
C98	C	1.328739	0.125617	0.333250
C99	C	1.662072	0.458951	0.666584
C100	C	0.989079	-0.562622	-0.000044
C101	C	1.322412	-0.229288	0.333289
C102	C	1.655746	0.104045	0.666622
C103	C	1.145818	0.108675	-0.000065
C104	C	1.479151	0.442008	0.333268
C105	C	1.812484	0.775342	0.666601
C106	C	1.239066	0.110320	-0.000079
C107	C	1.572399	0.443653	0.333254
C108	C	1.905732	0.776987	0.666587
C109	C	0.986088	0.268401	-0.000039
C110	C	1.319422	0.601735	0.333295
C111	C	1.652755	0.935068	0.666628
C112	C	0.987731	0.361650	-0.000031
C113	C	1.321064	0.694983	0.333303
C114	C	1.654398	1.028316	0.666636
N115	N	0.992234	0.114819	0.308191
N116	N	1.325567	0.448152	0.641524
N117	N	1.658901	0.781486	0.974858
N118	N	0.992260	0.114829	-0.308296
N119	N	1.325594	0.448162	0.025037
N120	N	1.658927	0.781495	0.358371
C121	C	0.992246	0.114829	0.573862
C122	C	1.325580	0.448162	0.907195
C123	C	1.658913	0.781495	1.240528
C124	C	0.992237	0.114826	0.426024
C125	C	1.325570	0.448159	0.759357
C126	C	1.658904	0.781492	1.092690
H127	H	0.534952	0.189525	0.196989
H128	H	0.868285	0.522858	0.530323
H129	H	1.201618	0.856192	0.863656
H130	H	0.420527	0.261416	-0.000146
H131	H	0.753860	0.594750	0.333187
H132	H	1.087193	0.928083	0.666520
H133	H	0.843713	-0.418002	-0.000174
H134	H	1.177046	-0.084668	0.333159
H135	H	1.510379	0.248665	0.666492
H136	H	1.065074	-0.447248	0.196972
H137	H	1.398407	-0.113914	0.530305
H138	H	1.731740	0.219419	0.863638
H139	H	1.140699	-0.352153	-0.000178
H140	H	1.474032	-0.018820	0.333155
H141	H	1.807365	0.314513	0.666488
H142	H	0.919455	-0.323059	0.196991
H143	H	1.252788	0.010275	0.530325
H144	H	1.586122	0.343608	0.863658
H145	H	0.449456	0.040174	0.196979
H146	H	0.782789	0.373507	0.530312
H147	H	1.116122	0.706841	0.863646
H148	H	0.563787	-0.031847	-0.000200
H149	H	0.897120	0.301486	0.333133
H150	H	1.230453	0.634820	0.666466
H151	H	1.065096	-0.447277	-0.197149
H152	H	1.398429	-0.113943	0.136185
H153	H	1.731762	0.219390	0.469518
H154	H	0.535009	0.189546	-0.197131
H155	H	0.868342	0.522879	0.136202
H156	H	1.201676	0.856212	0.469535
H157	H	0.449635	0.040198	-0.197351
H158	H	0.782968	0.373531	0.135983
H159	H	1.116301	0.706864	0.469316
H160	H	0.919473	-0.323217	-0.197331
H161	H	1.252806	0.010116	0.136003
H162	H	1.586139	0.343450	0.469336
