data_functionalizedCrystal
_audit_creation_method	'MofGen! by Chris Wilmer'
_symmetry_space_group_name_H-M	'P1'
_symmetry_Int_Tables_number	1
_symmetry_cell_setting	triclinic
loop_
_symmetry_equiv_pos_as_xyz
  x,y,z
_cell_length_a	14.971486
_cell_length_b	17.699083
_cell_length_c	14.048226
_cell_angle_alpha	89.992674
_cell_angle_beta	89.998499
_cell_angle_gamma	83.448572
loop_
_atom_site_label
_atom_site_type_symbol
_atom_site_fract_x
_atom_site_fract_y
_atom_site_fract_z
O1	O	1.186608	0.098633	-0.079053
O2	O	1.686608	0.598633	0.420947
O3	O	0.926167	0.110445	-0.079079
O4	O	1.426167	0.610445	0.420921
O5	O	1.063746	-0.005632	-0.079057
O6	O	1.563746	0.494368	0.420943
O7	O	1.049030	0.214710	-0.079075
O8	O	1.549030	0.714710	0.420925
O9	O	1.063729	-0.005639	0.079264
O10	O	1.563729	0.494361	0.579264
O11	O	0.926151	0.110438	0.079242
O12	O	1.426151	0.610438	0.579242
O13	O	1.186591	0.098626	0.079268
O14	O	1.686591	0.598626	0.579268
Zn15	Zn	1.056368	0.104531	0.104392
Zn16	Zn	1.556368	0.604531	0.604392
Zn17	Zn	1.056390	0.104540	-0.104203
Zn18	Zn	1.556390	0.604540	0.395797
O19	O	1.049013	0.214703	0.079246
O20	O	1.549013	0.714703	0.579246
C21	C	0.892836	0.109913	0.000078
C22	C	1.392836	0.609913	0.500078
C23	C	0.793544	0.108330	0.000068
C24	C	1.293544	0.608330	0.500068
C25	C	0.736085	0.176522	0.000064
C26	C	1.236085	0.676522	0.500064
C27	C	0.642790	0.175030	0.000078
C28	C	1.142790	0.675030	0.500078
C29	C	0.606958	0.105346	0.000090
C30	C	1.106958	0.605346	0.500090
C31	C	0.664425	0.037148	0.000097
C32	C	1.164425	0.537148	0.500097
C33	C	0.757717	0.038641	0.000090
C34	C	1.257717	0.538641	0.500090
C35	C	0.469973	0.034042	0.000111
C36	C	0.969973	0.534042	0.500111
C37	C	0.376674	0.032549	0.000117
C38	C	0.876674	0.532549	0.500117
C39	C	0.355046	0.170431	0.000099
C40	C	0.855046	0.670431	0.500099
C41	C	0.448339	0.171924	0.000092
C42	C	0.948339	0.671924	0.500092
C43	C	0.505799	0.103726	0.000097
C44	C	1.005799	0.603726	0.500097
C45	C	1.063210	-0.033834	0.000104
C46	C	1.563210	0.466166	0.500104
C47	C	1.061628	-0.117856	0.000104
C48	C	1.561628	0.382144	0.500104
C49	C	1.142384	-0.166278	0.000113
C50	C	1.642384	0.333722	0.500113
C51	C	1.140892	-0.245225	0.000105
C52	C	1.640892	0.254775	0.500105
C53	C	1.058644	-0.275748	0.000094
C54	C	1.558644	0.224252	0.500094
C55	C	0.977882	-0.227320	0.000081
C56	C	1.477882	0.272680	0.500081
C57	C	0.979375	-0.148374	0.000083
C58	C	1.479375	0.351626	0.500083
C59	C	0.971860	-0.545698	0.000073
C60	C	1.471860	-0.045698	0.500073
C61	C	0.970374	-0.624649	0.000074
C62	C	1.470374	-0.124649	0.500074
C63	C	1.133378	-0.642548	0.000095
C64	C	1.633378	-0.142548	0.500095
C65	C	1.134871	-0.563603	0.000096
C66	C	1.634871	-0.063603	0.500096
C67	C	1.054109	-0.515181	0.000079
C68	C	1.554109	-0.015181	0.500079
C69	C	1.055728	-0.429578	0.000087
C70	C	1.555728	0.070422	0.500087
C71	C	1.057024	-0.361350	0.000093
C72	C	1.557024	0.138650	0.500093
C73	C	1.219923	0.099158	0.000109
C74	C	1.719923	0.599158	0.500109
C75	C	1.319214	0.100741	0.000112
C76	C	1.819214	0.600741	0.500112
C77	C	1.049549	0.242905	0.000083
C78	C	1.549549	0.742905	0.500083
C79	C	1.051131	0.326927	0.000077
C80	C	1.551131	0.826927	0.500077
N81	N	1.056360	0.104524	0.246753
N82	N	1.556360	0.604524	0.746753
N83	N	1.056406	0.104541	-0.246564
N84	N	1.556406	0.604541	0.253436
C85	C	1.117299	0.053147	0.296581
C86	C	1.617299	0.553147	0.796581
C87	C	1.117305	0.053146	0.396238
C88	C	1.617305	0.553146	0.896238
C89	C	1.056376	0.104528	0.446066
C90	C	1.556376	0.604528	0.946066
C91	C	0.995431	0.155908	0.396231
C92	C	1.495431	0.655908	0.896231
C93	C	0.995421	0.155904	0.296576
C94	C	1.495421	0.655904	0.796576
C95	C	0.995456	0.155913	0.603946
C96	C	1.495456	0.655913	1.103946
C97	C	0.995467	0.155918	0.703608
C98	C	1.495467	0.655918	1.203608
C99	C	1.117340	0.053156	0.703608
C100	C	1.617340	0.553156	1.203608
C101	C	1.117331	0.053152	0.603953
C102	C	1.617331	0.553152	1.103953
C103	C	1.056386	0.104533	0.554125
C104	C	1.556386	0.604533	1.054125
H105	H	0.308257	0.225960	0.000099
H106	H	0.808257	0.725960	0.500099
H107	H	1.166963	0.011319	0.744184
H108	H	1.666963	0.511319	1.244184
C109	C	0.928437	0.212436	0.758417
C110	C	1.428437	0.712436	1.258417
N111	N	0.877947	0.255005	0.799699
N112	N	1.377947	0.755005	1.299699
H113	H	0.804501	-0.016888	0.000093
H114	H	1.304501	0.483112	0.500093
C115	C	0.337260	-0.044108	0.000131
C116	C	0.837260	0.455892	0.500131
N117	N	0.307574	-0.101847	0.000142
N118	N	0.807574	0.398153	0.500142
C119	C	0.775491	0.253182	0.000053
C120	C	1.275491	0.753182	0.500053
N121	N	0.805169	0.310924	0.000049
N122	N	1.305169	0.810924	0.500049
H123	H	1.199138	-0.681983	0.000104
H124	H	1.699138	-0.181983	0.500104
H125	H	0.596010	0.230559	0.000074
H126	H	1.096010	0.730559	0.500074
H127	H	1.166918	0.011309	0.256017
H128	H	1.666918	0.511309	0.756017
C129	C	0.487752	0.248580	0.000083
C130	C	0.987752	0.748580	0.500083
N131	N	0.517439	0.306319	0.000081
N132	N	1.017439	0.806319	0.500081
H133	H	1.201846	-0.538756	0.000110
H134	H	1.701846	-0.038756	0.500110
C135	C	0.625005	-0.039506	0.000112
C136	C	1.125005	0.460494	0.500112
N137	N	0.595316	-0.097243	0.000120
N138	N	1.095316	0.402757	0.500120
H139	H	1.209360	-0.141433	0.000128
H140	H	1.709360	0.358567	0.500128
H141	H	0.903394	-0.649498	0.000067
H142	H	1.403394	-0.149498	0.500067
C143	C	0.883020	-0.492444	0.000049
C144	C	1.383020	0.007556	0.500049
N145	N	0.816101	-0.452330	0.000028
N146	N	1.316101	0.047670	0.500028
C147	C	1.229730	-0.298487	0.000131
C148	C	1.729730	0.201513	0.500131
N149	N	1.296647	-0.338603	0.000155
N150	N	1.796647	0.161397	0.500155
H151	H	0.516756	-0.021492	0.000117
H152	H	1.016756	0.478508	0.500117
C153	C	0.928399	0.212421	0.451046
C154	C	1.428399	0.712421	0.951046
N155	N	0.877910	0.254987	0.492331
N156	N	1.377910	0.754987	0.992331
H157	H	1.166948	0.011317	0.563383
H158	H	1.666948	0.511317	1.063383
H159	H	0.945826	0.197751	0.563379
H160	H	1.445826	0.697751	1.063379
H161	H	0.910914	-0.252178	0.000066
H162	H	1.410914	0.247822	0.500066
C163	C	1.184321	-0.003391	0.451044
C164	C	1.684321	0.496609	0.951044
N165	N	1.234793	-0.045985	0.492324
N166	N	1.734793	0.454015	0.992324
C167	C	0.928391	0.212429	0.241765
C168	C	1.428391	0.712429	0.741765
N169	N	0.877902	0.255007	0.200484
N170	N	1.377902	0.755007	0.700484
H171	H	0.913615	-0.108949	0.000075
H172	H	1.413615	0.391051	0.500075
