data_functionalizedCrystal
_audit_creation_method	'MofGen! by Chris Wilmer'
_symmetry_space_group_name_H-M	'P1'
_symmetry_Int_Tables_number	1
_symmetry_cell_setting	triclinic
loop_
_symmetry_equiv_pos_as_xyz
  x,y,z
_cell_length_a	11.792254
_cell_length_b	11.792241
_cell_length_c	16.776229
_cell_angle_alpha	89.993219
_cell_angle_beta	89.992926
_cell_angle_gamma	84.196007
loop_
_atom_site_label
_atom_site_type_symbol
_atom_site_fract_x
_atom_site_fract_y
_atom_site_fract_z
O1	O	1.506904	0.155639	-0.066288
O2	O	1.176565	0.171657	-0.066290
O3	O	1.349751	-0.001522	-0.066283
O4	O	1.333718	0.328818	-0.066294
O5	O	1.349728	-0.001533	0.066293
O6	O	1.176542	0.171646	0.066287
O7	O	1.506881	0.155628	0.066289
Zn8	Zn	1.341708	0.163635	0.087337
Zn9	Zn	1.341738	0.163650	-0.087338
O10	O	1.333695	0.328807	0.066282
C11	C	1.134263	0.170642	-0.000002
C12	C	1.008250	0.167622	-0.000002
C13	C	1.348732	-0.043819	0.000005
C14	C	1.345718	-0.169832	0.000004
C15	C	0.905913	0.165168	-0.000005
C16	C	0.777527	0.162100	-0.000006
C17	C	1.340175	-0.400545	-0.000009
C18	C	1.343255	-0.272160	-0.000002
C19	C	1.549183	0.156643	-0.000001
C20	C	1.675196	0.159663	-0.000006
C21	C	1.334714	0.371104	-0.000008
C22	C	1.337728	0.497118	-0.000012
N23	N	1.341695	0.163625	0.206548
N24	N	1.341760	0.163651	-0.206549
C25	C	1.418406	0.086973	0.248268
C26	C	1.418412	0.086972	0.331721
C27	C	1.341712	0.163629	0.373451
C28	C	1.264994	0.240285	0.331725
C29	C	1.264983	0.240280	0.248275
C30	C	1.265035	0.240308	0.668273
C31	C	1.265054	0.240309	0.751729
C32	C	1.418464	0.087000	0.751718
C33	C	1.418453	0.086995	0.668268
C34	C	1.341731	0.163646	0.626549
C35	C	1.341724	0.163644	0.536061
C36	C	1.341724	0.163637	0.463938
H37	H	1.480868	0.024555	0.214297
H38	H	1.202592	0.302735	0.785705
C39	C	1.180606	0.324601	0.202383
H40	H	1.134935	0.370264	0.239187
H41	H	1.133108	0.283449	0.169840
H42	H	1.221725	0.372128	0.169818
C43	C	1.502804	0.002666	0.377609
H44	H	1.548494	-0.042977	0.340804
H45	H	1.461706	-0.044866	0.410177
H46	H	1.550300	0.043836	0.410148
C47	C	1.502819	0.002669	0.622368
H48	H	1.548499	-0.042992	0.659168
H49	H	1.550308	0.043813	0.589799
H50	H	1.461686	-0.044861	0.589829
C51	C	1.180654	0.324629	0.622393
H52	H	1.134988	0.370291	0.659200
H53	H	1.133151	0.283483	0.589851
H54	H	1.221772	0.372158	0.589828
C55	C	1.502847	0.002673	0.797611
H56	H	1.491864	0.013641	0.853288
H57	H	1.578666	0.015513	0.783922
H58	H	1.490050	-0.073166	0.783941
H59	H	1.202538	0.302697	0.365707
