data_functionalizedCrystal
_audit_creation_method	'MofGen! by Chris Wilmer'
_symmetry_space_group_name_H-M	'P1'
_symmetry_Int_Tables_number	1
_symmetry_cell_setting	triclinic
loop_
_symmetry_equiv_pos_as_xyz
  x,y,z
_cell_length_a	12.837943
_cell_length_b	14.519709
_cell_length_c	11.892095
_cell_angle_alpha	93.895429
_cell_angle_beta	85.689438
_cell_angle_gamma	89.254542
loop_
_atom_site_label
_atom_site_type_symbol
_atom_site_fract_x
_atom_site_fract_y
_atom_site_fract_z
O1	O	1.382515	0.234472	-0.093988
O2	O	1.882515	0.734472	0.406012
O3	O	1.080688	0.222627	-0.093995
O4	O	1.580688	0.722627	0.406005
O5	O	1.239604	0.095003	-0.093981
O6	O	1.739604	0.595003	0.406019
O7	O	1.223600	0.362096	-0.094002
O8	O	1.723600	0.862096	0.405998
O9	O	1.226354	0.105626	0.094025
O10	O	1.726354	0.605626	0.594025
O11	O	1.067438	0.233250	0.094012
O12	O	1.567438	0.733250	0.594012
O13	O	1.369265	0.245095	0.094018
O14	O	1.869265	0.745095	0.594018
Zn15	Zn	1.216248	0.240859	0.123865
Zn16	Zn	1.716248	0.740859	0.623865
Zn17	Zn	1.233706	0.226863	-0.123842
Zn18	Zn	1.733706	0.726863	0.376158
O19	O	1.210350	0.372719	0.094005
O20	O	1.710350	0.872719	0.594005
C21	C	1.035435	0.223937	0.000008
C22	C	1.535435	0.723937	0.500008
C23	C	0.920336	0.212002	0.000006
C24	C	1.420336	0.712002	0.500006
C25	C	1.232233	0.065890	0.000022
C26	C	1.732233	0.565890	0.500022
C27	C	1.229998	-0.036684	0.000023
C28	C	1.729998	0.463316	0.500023
C29	C	0.679644	0.355473	0.000011
C30	C	1.179644	0.855473	0.500011
C31	C	0.571497	0.344264	0.000010
C32	C	1.071497	0.844264	0.500010
C33	C	0.595894	0.178377	0.000010
C34	C	1.095894	0.678377	0.500010
C35	C	0.704041	0.189586	0.000012
C36	C	1.204041	0.689586	0.500012
C37	C	0.745911	0.278137	0.000010
C38	C	1.245911	0.778137	0.500010
C39	C	0.854060	0.289344	0.000003
C40	C	1.354060	0.789344	0.500003
C41	C	0.878455	0.123458	0.000012
C42	C	1.378455	0.623458	0.500012
C43	C	0.770308	0.112249	0.000011
C44	C	1.270308	0.612249	0.500011
C45	C	1.221771	-0.412293	-0.000007
C46	C	1.721771	0.087707	0.499993
C47	C	1.224055	-0.307787	0.000002
C48	C	1.724055	0.192213	0.500002
C49	C	1.225884	-0.224492	0.000009
C50	C	1.725884	0.275508	0.500009
C51	C	1.228169	-0.119979	0.000016
C52	C	1.728169	0.380021	0.500016
C53	C	1.414519	0.243785	0.000013
C54	C	1.914519	0.743785	0.500013
C55	C	1.529618	0.255719	0.000008
C56	C	2.029618	0.755719	0.500008
C57	C	1.217721	0.401831	-0.000001
C58	C	1.717721	0.901831	0.499999
C59	C	1.219957	0.504405	-0.000009
C60	C	1.719957	1.004405	0.499991
N61	N	1.204341	0.250411	0.292918
N62	N	1.704341	0.750411	0.792918
N63	N	1.245621	0.217304	-0.292895
N64	N	1.745621	0.717304	0.207105
C65	C	1.328473	0.150784	0.529576
C66	C	1.828473	0.650784	1.029576
C67	C	1.320158	0.157468	0.647918
C68	C	1.820158	0.657468	1.147918
C69	C	1.179391	0.270458	0.647944
C70	C	1.679391	0.770458	1.147944
C71	C	1.187707	0.263774	0.529603
C72	C	1.687707	0.763774	1.029603
C73	C	1.262251	0.203936	0.470423
C74	C	1.762251	0.703936	0.970423
C75	C	1.270570	0.197257	0.352080
C76	C	1.770570	0.697257	0.852080
C77	C	1.129800	0.310242	0.352108
C78	C	1.629800	0.810242	0.852108
C79	C	1.121484	0.316926	0.470449
C80	C	1.621484	0.816926	0.970449
H81	H	0.888149	0.361447	0.000004
H82	H	1.388149	0.861447	0.500004
H83	H	1.118692	0.319170	0.696143
H84	H	1.618692	0.819170	1.196143
C85	C	1.410476	0.084967	0.464476
C86	C	1.910476	0.584967	0.964476
N87	N	1.472241	0.035391	0.415445
N88	N	1.972241	0.535391	0.915445
H89	H	0.517545	0.407240	0.000013
H90	H	1.017545	0.907240	0.500013
C91	C	1.039482	0.382737	0.535560
C92	C	1.539482	0.882737	1.035560
N93	N	0.977717	0.432307	0.584600
N94	N	1.477717	0.932307	1.084600
H95	H	0.713735	0.427575	0.000008
H96	H	1.213735	0.927575	0.500008
C97	C	0.549816	0.080979	0.000024
C98	C	1.049816	0.580979	0.500024
N99	N	0.515108	0.007618	0.000036
N100	N	1.015108	0.507618	0.500036
C101	C	0.724238	0.014848	0.000011
C102	C	1.224238	0.514848	0.500011
N103	N	0.689539	-0.058517	0.000006
N104	N	1.189539	0.441483	0.500006
C105	C	0.951359	0.038382	0.000008
C106	C	1.451359	0.538382	0.500008
N107	N	1.006272	-0.025695	0.000002
N108	N	1.506272	0.474305	0.500002
C109	C	1.352567	0.131432	0.286984
C110	C	1.852567	0.631432	0.786984
N111	N	1.414326	0.081847	0.237957
N112	N	1.914326	0.581847	0.737957
H113	H	1.374081	0.114185	0.696077
H114	H	1.874081	0.614185	1.196077
C115	C	1.056950	0.368713	0.287030
C116	C	1.556950	0.868713	0.787030
N117	N	1.002083	0.412753	0.238012
N118	N	1.502083	0.912753	0.738012
