data_functionalizedCrystal
_audit_creation_method	'MofGen! by Chris Wilmer'
_symmetry_space_group_name_H-M	'P1'
_symmetry_Int_Tables_number	1
_symmetry_cell_setting	triclinic
loop_
_symmetry_equiv_pos_as_xyz
  x,y,z
_cell_length_a	10.686285
_cell_length_b	11.169417
_cell_length_c	11.169409
_cell_angle_alpha	89.979747
_cell_angle_beta	85.599661
_cell_angle_gamma	85.633103
loop_
_atom_site_label
_atom_site_type_symbol
_atom_site_fract_x
_atom_site_fract_y
_atom_site_fract_z
Zn1	Zn	-0.502208	1.871640	-0.641950
Zn2	Zn	-0.002208	2.371640	-0.141950
Zn3	Zn	-0.713260	1.886937	-0.425893
Zn4	Zn	-0.213260	2.386937	0.074107
Zn5	Zn	-0.502286	1.670929	-0.441279
Zn6	Zn	-0.002286	2.170929	0.058721
Zn7	Zn	-0.713159	1.686336	-0.626546
Zn8	Zn	-0.213159	2.186336	-0.126546
O9	O	-0.607728	1.778961	-0.533917
O10	O	-0.107728	2.278961	-0.033917
O11	O	-0.530214	2.041620	-0.613296
O12	O	-0.030214	2.541620	-0.113296
O13	O	-0.685349	1.858237	-0.259978
O14	O	-0.185349	2.358237	0.240022
O15	O	-0.325698	1.684704	-0.480785
O16	O	0.174302	2.184704	0.019215
O17	O	-0.685273	2.052858	-0.454560
O18	O	-0.185273	2.552858	0.045440
O19	O	-0.325641	1.832166	-0.628216
O20	O	0.174359	2.332166	-0.128216
O21	O	-0.530347	1.699537	-0.271283
O22	O	-0.030347	2.199537	0.228717
O23	O	-0.530249	1.505023	-0.465848
O24	O	-0.030249	2.005023	0.034152
O25	O	-0.685101	1.710964	-0.796545
O26	O	-0.185101	2.210964	-0.296545
O27	O	-0.685176	1.516342	-0.601963
O28	O	-0.185176	2.016342	-0.101963
O29	O	-0.530116	1.847105	-0.807862
O30	O	-0.030116	2.347105	-0.307862
O31	O	-0.889823	1.873177	-0.439624
O32	O	-0.389823	2.373177	0.060376
O33	O	-0.889749	1.725796	-0.587043
O34	O	-0.389749	2.225796	-0.087043
C35	C	-0.607711	1.467135	-0.533904
C36	C	-0.107711	1.967135	-0.033904
C37	C	-0.607734	1.333737	-0.533925
C38	C	-0.107734	1.833737	-0.033925
C39	C	-0.935571	1.802851	-0.510018
C40	C	-0.435571	2.302851	-0.010018
C41	C	-1.075823	1.813181	-0.499834
C42	C	-0.575823	2.313181	0.000166
C43	C	-0.278605	1.755010	-0.557935
C44	C	0.221395	2.255010	-0.057935
C45	C	-0.138353	1.744804	-0.568170
C46	C	0.361647	2.244804	-0.068170
C47	C	-0.607588	1.779047	-0.846970
C48	C	-0.107588	2.279047	-0.346970
C49	C	-0.607529	1.779083	-0.980374
C50	C	-0.107529	2.279083	-0.480374
C51	C	-0.607746	2.092004	-0.533930
C52	C	-0.107746	2.592004	-0.033930
C53	C	-0.607754	2.225405	-0.533936
C54	C	-0.107754	2.725405	-0.033936
C55	C	-0.607776	1.778938	-0.222089
C56	C	-0.107776	2.278938	0.277911
C57	C	-0.607480	1.779107	-0.088711
C58	C	-0.107480	2.279107	0.411289
H59	H	-1.084591	1.678361	-0.634468
H60	H	-0.584591	2.178361	-0.134468
C61	C	-1.148458	1.902940	-0.410253
C62	C	-0.648458	2.402940	0.089747
N63	N	-1.203168	1.970546	-0.342782
N64	N	-0.703168	2.470546	0.157218
