data_functionalizedCrystal
_audit_creation_method	'MofGen! by Chris Wilmer'
_symmetry_space_group_name_H-M	'P1'
_symmetry_Int_Tables_number	1
_symmetry_cell_setting	triclinic
loop_
_symmetry_equiv_pos_as_xyz
  x,y,z
_cell_length_a	19.188930
_cell_length_b	13.339070
_cell_length_c	12.376457
_cell_angle_alpha	104.410245
_cell_angle_beta	101.232575
_cell_angle_gamma	80.612963
loop_
_atom_site_label
_atom_site_type_symbol
_atom_site_fract_x
_atom_site_fract_y
_atom_site_fract_z
O1	O	0.340100	-1.360197	-0.094096
O2	O	0.294198	-1.065870	-0.094082
O3	O	0.217159	-1.221523	-0.094067
O4	O	0.417139	-1.204545	-0.094111
O5	O	0.236385	-1.182624	0.093941
O6	O	0.313424	-1.026971	0.093926
O7	O	0.359326	-1.321298	0.093913
Zn8	Zn	0.339428	-1.167958	0.123770
Zn9	Zn	0.314097	-1.219210	-0.123939
O10	O	0.436365	-1.165645	0.093898
C11	C	0.200654	-1.201522	-0.000060
C12	C	0.122827	-1.199869	-0.000050
C13	C	0.296057	-1.008765	-0.000076
C14	C	0.272945	-0.896565	-0.000070
C15	C	0.357467	-1.378403	-0.000096
C16	C	0.380578	-1.490606	-0.000110
C17	C	0.095789	-1.291202	-0.000049
C18	C	0.022659	-1.289655	-0.000067
C19	C	-0.023428	-1.196764	-0.000063
C20	C	0.003617	-1.105420	-0.000071
C21	C	0.076744	-1.106972	-0.000064
N22	N	-0.138794	-1.112522	0.063923
N23	N	-0.208261	-1.111052	0.063919
C24	C	-0.243757	-1.192081	-0.000086
N25	N	-0.207158	-1.274646	-0.064073
N26	N	-0.137684	-1.276118	-0.064064
C27	C	-0.102723	-1.195070	-0.000071
C28	C	-0.350089	-1.281743	-0.000106
C29	C	-0.423221	-1.280193	-0.000131
C30	C	-0.442261	-1.095953	-0.000124
C31	C	-0.369132	-1.097508	-0.000110
C32	C	-0.323049	-1.190404	-0.000096
C33	C	0.452870	-1.185646	-0.000112
C34	C	0.530696	-1.187301	-0.000130
N35	N	0.356716	-1.132988	0.292825
C36	C	0.452652	-0.530988	-0.000127
C37	C	0.474369	-0.636407	-0.000136
C38	C	0.424015	-0.701451	-0.000119
C39	C	0.351940	-0.661067	-0.000094
C40	C	0.330220	-0.555640	-0.000093
C41	C	0.301583	-0.726103	-0.000086
C42	C	0.229508	-0.685719	-0.000060
C43	C	0.207792	-0.580302	-0.000059
C44	C	0.258146	-0.515258	-0.000076
C45	C	0.323303	-0.831530	-0.000086
C46	C	0.200871	-0.856182	-0.000053
C47	C	0.179154	-0.750763	-0.000043
N48	N	0.296804	-1.254188	-0.292994
C49	C	0.256657	-1.335365	0.647829
C50	C	0.244556	-1.359835	0.529492
C51	C	0.272595	-1.303125	0.470319
C52	C	0.312738	-1.221942	0.529496
C53	C	0.324845	-1.197474	0.647845
C54	C	0.340783	-1.165235	0.470335
C55	C	0.380926	-1.084051	0.529511
C56	C	0.393031	-1.059587	0.647849
C57	C	0.364992	-1.116297	0.707021
C58	C	0.328675	-1.189702	0.351986
C59	C	0.396863	-1.051811	0.352001
C60	C	0.408964	-1.027341	0.470339
H61	H	0.133305	-1.366847	-0.000041
H62	H	0.441701	-0.787288	-0.000129
H63	H	0.295991	-1.255802	0.303815
O64	O	0.401039	-0.875073	-0.000092
H65	H	0.418391	-0.864777	-0.076721
O66	O	-0.006515	-1.388163	-0.000050
H67	H	0.037815	-1.453018	-0.000030
O68	O	0.552103	-0.679961	-0.000138
H69	H	0.583471	-0.617020	-0.000132
H70	H	-0.312567	-1.357386	-0.000100
H71	H	0.233836	-1.381537	0.696015
H72	H	0.493642	-0.478023	-0.000150
H73	H	-0.033912	-1.029788	-0.000071
O74	O	-0.452383	-1.378708	-0.000119
H75	H	-0.441600	-1.439045	-0.076734
O76	O	0.234719	-0.401551	-0.000061
H77	H	0.281844	-0.363112	-0.000075
O78	O	-0.491957	-0.995757	-0.000115
H79	H	-0.547350	-1.010018	-0.000112
H80	H	-0.347117	-1.023133	-0.000105
H81	H	0.149102	-0.547428	-0.000051
O82	O	0.101416	-0.707205	-0.000022
H83	H	0.094777	-0.622975	-0.000031
H84	H	0.425724	-0.993491	0.696030
O85	O	0.378044	-1.089913	0.834662
H86	H	0.355417	-1.008009	0.865888
H87	H	0.441650	-0.961240	0.518535
H88	H	0.419696	-1.005634	0.303824
O89	O	0.146552	-0.926320	-0.000024
H90	H	0.173765	-1.006407	-0.000013
H91	H	0.098757	-1.032595	-0.000065
H92	H	0.262740	-1.323053	0.373963
H93	H	0.211873	-1.425935	0.481314
