data_functionalizedCrystal
_audit_creation_method	'MofGen! by Chris Wilmer'
_symmetry_space_group_name_H-M	'P1'
_symmetry_Int_Tables_number	1
_symmetry_cell_setting	triclinic
loop_
_symmetry_equiv_pos_as_xyz
  x,y,z
_cell_length_a	19.288864
_cell_length_b	23.532357
_cell_length_c	18.366186
_cell_angle_alpha	89.988209
_cell_angle_beta	89.977106
_cell_angle_gamma	82.982267
loop_
_atom_site_label
_atom_site_type_symbol
_atom_site_fract_x
_atom_site_fract_y
_atom_site_fract_z
O1	O	0.921118	0.071047	-0.060792
O2	O	1.171118	0.321047	0.189208
O3	O	1.421118	0.571047	0.439208
O4	O	1.671118	0.821047	0.689208
O5	O	0.718826	0.080631	-0.060743
O6	O	0.968826	0.330631	0.189257
O7	O	1.218826	0.580631	0.439257
O8	O	1.468826	0.830631	0.689257
O9	O	0.826090	-0.007082	-0.060754
O10	O	1.076090	0.242918	0.189246
O11	O	1.326090	0.492918	0.439246
O12	O	1.576090	0.742918	0.689246
O13	O	0.813854	0.158760	-0.060781
O14	O	1.063854	0.408760	0.189219
O15	O	1.313854	0.658760	0.439219
O16	O	1.563854	0.908760	0.689219
O17	O	0.826072	-0.007086	0.060345
O18	O	1.076072	0.242914	0.310345
O19	O	1.326072	0.492914	0.560345
O20	O	1.576072	0.742914	0.810345
O21	O	0.718808	0.080627	0.060356
O22	O	0.968808	0.330627	0.310356
O23	O	1.218808	0.580627	0.560356
O24	O	1.468808	0.830627	0.810356
O25	O	0.921100	0.071043	0.060308
O26	O	1.171100	0.321043	0.310308
O27	O	1.421100	0.571043	0.560308
O28	O	1.671100	0.821043	0.810308
Zn29	Zn	0.819951	0.075834	0.079559
Zn30	Zn	1.069951	0.325834	0.329559
Zn31	Zn	1.319951	0.575834	0.579559
Zn32	Zn	1.569951	0.825834	0.829559
Zn33	Zn	0.819975	0.075840	-0.079995
Zn34	Zn	1.069975	0.325840	0.170005
Zn35	Zn	1.319975	0.575840	0.420005
Zn36	Zn	1.569975	0.825840	0.670005
O37	O	0.813836	0.158756	0.060318
O38	O	1.063836	0.408756	0.310318
O39	O	1.313836	0.658756	0.560318
O40	O	1.563836	0.908756	0.810318
C41	C	0.692941	0.080320	-0.000187
C42	C	0.942941	0.330320	0.249813
C43	C	1.192941	0.580320	0.499813
C44	C	1.442941	0.830320	0.749813
C45	C	0.615841	0.079395	-0.000168
C46	C	0.865841	0.329395	0.249832
C47	C	1.115841	0.579395	0.499832
C48	C	1.365841	0.829395	0.749832
C49	C	0.825775	-0.028301	-0.000202
C50	C	1.075775	0.221699	0.249798
C51	C	1.325775	0.471699	0.499798
C52	C	1.575775	0.721699	0.749798
C53	C	0.824855	-0.091522	-0.000195
C54	C	1.074855	0.158478	0.249805
C55	C	1.324855	0.408478	0.499805
C56	C	1.574855	0.658478	0.749805
C57	C	0.570975	0.130861	-0.000188
C58	C	0.820975	0.380861	0.249812
C59	C	1.070975	0.630861	0.499812
C60	C	1.320975	0.880861	0.749812
C61	C	0.498530	0.129991	-0.000196
C62	C	0.748530	0.379991	0.249804
C63	C	0.998530	0.629991	0.499804
C64	C	1.248530	0.879991	0.749804
C65	C	0.470956	0.077652	-0.000198
C66	C	0.720956	0.327652	0.249802
C67	C	0.970956	0.577652	0.499802
C68	C	1.220956	0.827652	0.749802
C69	C	0.515832	0.026180	-0.000174
C70	C	0.765832	0.276180	0.249826
C71	C	1.015832	0.526180	0.499826
C72	C	1.265832	0.776180	0.749826
C73	C	0.588274	0.027051	-0.000159
C74	C	0.838274	0.277051	0.249841
C75	C	1.088274	0.527051	0.499841
C76	C	1.338274	0.777051	0.749841
C77	C	0.362836	0.036510	-0.042643
C78	C	0.612836	0.286510	0.207357
C79	C	0.862836	0.536510	0.457357
C80	C	1.112836	0.786510	0.707357
C81	C	0.290394	0.035641	-0.042662
C82	C	0.540394	0.285641	0.207338
C83	C	0.790394	0.535641	0.457338
C84	C	1.040394	0.785641	0.707338
C85	C	0.247519	0.074963	-0.000242
C86	C	0.497519	0.324963	0.249758
C87	C	0.747519	0.574963	0.499758
C88	C	0.997519	0.824963	0.749758
C89	C	0.277093	0.115164	0.042189
C90	C	0.527093	0.365164	0.292189
C91	C	0.777093	0.615164	0.542189
C92	C	1.027093	0.865164	0.792189
C93	C	0.349535	0.116036	0.042204
C94	C	0.599535	0.366036	0.292204
C95	C	0.849535	0.616036	0.542204
C96	C	1.099535	0.866036	0.792204
C97	C	0.392405	0.076702	-0.000214
C98	C	0.642405	0.326702	0.249786
C99	C	0.892405	0.576702	0.499786
C100	C	1.142405	0.826702	0.749786
C101	C	0.124100	0.125490	-0.000269
C102	C	0.374100	0.375490	0.249731
C103	C	0.624100	0.625490	0.499731
C104	C	0.874100	0.875490	0.749731
C105	C	0.051655	0.124618	-0.000273
C106	C	0.301655	0.374618	0.249727
C107	C	0.551655	0.624618	0.499727
C108	C	0.801655	0.874618	0.749727
C109	C	0.068958	0.020805	-0.000259
C110	C	0.318958	0.270805	0.249741
C111	C	0.568958	0.520805	0.499741
C112	C	0.818958	0.770805	0.749741
C113	C	0.141401	0.021678	-0.000248
C114	C	0.391401	0.271678	0.249752
C115	C	0.641401	0.521678	0.499752
C116	C	0.891401	0.771678	0.749752
C117	C	0.168968	0.074022	-0.000257
C118	C	0.418968	0.324022	0.249743
C119	C	0.668968	0.574022	0.499743
C120	C	0.918968	0.824022	0.749743
C121	C	0.819088	-0.483543	-0.066244
C122	C	1.069088	-0.233543	0.183756
C123	C	1.319088	0.016457	0.433756
C124	C	1.569088	0.266457	0.683756
C125	C	0.818213	-0.542944	-0.066248
C126	C	1.068213	-0.292944	0.183752
C127	C	1.318213	-0.042944	0.433752
C128	C	1.568213	0.207056	0.683752
O129	O	0.817745	-0.573659	-0.122388
O130	O	1.067745	-0.323659	0.127612
O131	O	1.317745	-0.073659	0.377612
O132	O	1.567745	0.176341	0.627612
N133	N	0.817769	-0.572659	-0.000238
N134	N	1.067769	-0.322659	0.249762
N135	N	1.317769	-0.072659	0.499762
N136	N	1.567769	0.177341	0.749762
C137	C	0.818193	-0.542968	0.065781
C138	C	1.068193	-0.292968	0.315781
C139	C	1.318193	-0.042968	0.565781
C140	C	1.568193	0.207032	0.815781
O141	O	0.817735	-0.573697	0.121928
O142	O	1.067735	-0.323697	0.371928
O143	O	1.317735	-0.073697	0.621928
O144	O	1.567735	0.176303	0.871928
C145	C	0.819063	-0.483567	0.065784
C146	C	1.069063	-0.233567	0.315784
C147	C	1.319063	0.016433	0.565784
C148	C	1.569063	0.266433	0.815784
C149	C	0.819514	-0.453857	-0.000230
C150	C	1.069514	-0.203857	0.249770
C151	C	1.319514	0.046143	0.499770
C152	C	1.569514	0.296143	0.749770
C153	C	0.819538	-0.453832	-0.132254
C154	C	1.069538	-0.203832	0.117746
C155	C	1.319538	0.046168	0.367746
C156	C	1.569538	0.296168	0.617746
C157	C	0.820414	-0.394435	-0.132249
C158	C	1.070414	-0.144435	0.117751
C159	C	1.320414	0.105565	0.367751
C160	C	1.570414	0.355565	0.617751
C161	C	0.820840	-0.364749	-0.066236
C162	C	1.070840	-0.114749	0.183764
C163	C	1.320840	0.135251	0.433764
C164	C	1.570840	0.385251	0.683764
C165	C	0.820390	-0.394460	-0.000226
C166	C	1.070390	-0.144460	0.249774
C167	C	1.320390	0.105540	0.499774
C168	C	1.570390	0.355540	0.749774
C169	C	0.819482	-0.453877	0.131802
C170	C	1.069482	-0.203877	0.381802
C171	C	1.319482	0.046123	0.631802
C172	C	1.569482	0.296123	0.881802
C173	C	0.820351	-0.394472	0.131800
C174	C	1.070351	-0.144472	0.381800
C175	C	1.320351	0.105528	0.631800
C176	C	1.570351	0.355528	0.881800
C177	C	0.820802	-0.364762	0.065785
C178	C	1.070802	-0.114762	0.315785
C179	C	1.320802	0.135238	0.565785
C180	C	1.570802	0.385238	0.815785
C181	C	0.821692	-0.305376	0.065792
C182	C	1.071692	-0.055376	0.315792
C183	C	1.321692	0.194624	0.565792
C184	C	1.571692	0.444624	0.815792
N185	N	0.822136	-0.275662	-0.000219
N186	N	1.072136	-0.025662	0.249781
N187	N	1.322136	0.224338	0.499781
N188	N	1.572136	0.474338	0.749781
C189	C	0.821710	-0.305348	-0.066233
C190	C	1.071710	-0.055348	0.183767
C191	C	1.321710	0.194652	0.433767
C192	C	1.571710	0.444652	0.683767
C193	C	0.816366	-0.667713	0.065769
C194	C	1.066366	-0.417713	0.315769
C195	C	1.316366	-0.167713	0.565769
C196	C	1.566366	0.082287	0.815769
C197	C	0.815501	-0.727113	0.065767
C198	C	1.065501	-0.477113	0.315767
C199	C	1.315501	-0.227113	0.565767
C200	C	1.565501	0.022887	0.815767
C201	C	0.815519	-0.727085	-0.066262
C202	C	1.065519	-0.477085	0.183738
C203	C	1.315519	-0.227085	0.433738
C204	C	1.565519	0.022915	0.683738
C205	C	0.816389	-0.667685	-0.066259
C206	C	1.066389	-0.417685	0.183741
C207	C	1.316389	-0.167685	0.433741
C208	C	1.566389	0.082315	0.683741
C209	C	0.816809	-0.637999	-0.000241
C210	C	1.066809	-0.387999	0.249759
C211	C	1.316809	-0.137999	0.499759
C212	C	1.566809	0.112001	0.749759
C213	C	0.823550	-0.180610	-0.066219
C214	C	1.073550	0.069390	0.183781
C215	C	1.323550	0.319390	0.433781
C216	C	1.573550	0.569390	0.683781
C217	C	0.824429	-0.121208	-0.066209
C218	C	1.074429	0.128792	0.183791
C219	C	1.324429	0.378792	0.433791
C220	C	1.574429	0.628792	0.683791
C221	C	0.824407	-0.121241	0.065820
C222	C	1.074407	0.128759	0.315820
C223	C	1.324407	0.378759	0.565820
C224	C	1.574407	0.628759	0.815820
C225	C	0.823531	-0.180638	0.065811
C226	C	1.073531	0.069362	0.315811
C227	C	1.323531	0.319362	0.565811
C228	C	1.573531	0.569362	0.815811
C229	C	0.823101	-0.210321	-0.000215
C230	C	1.073101	0.039679	0.249785
C231	C	1.323101	0.289679	0.499785
C232	C	1.573101	0.539679	0.749785
O233	O	0.822157	-0.274623	0.121903
O234	O	1.072157	-0.024623	0.371903
O235	O	1.322157	0.225377	0.621903
O236	O	1.572157	0.475377	0.871903
O237	O	0.822159	-0.274611	-0.122370
O238	O	1.072159	-0.024611	0.127630
O239	O	1.322159	0.225389	0.377630
O240	O	1.572159	0.475389	0.627630
C241	C	0.946985	0.071353	-0.000250
C242	C	1.196985	0.321353	0.249750
C243	C	1.446985	0.571353	0.499750
C244	C	1.696985	0.821353	0.749750
C245	C	1.024085	0.072279	-0.000274
C246	C	1.274085	0.322279	0.249726
C247	C	1.524085	0.572279	0.499726
C248	C	1.774085	0.822279	0.749726
C249	C	0.814151	0.179975	-0.000235
C250	C	1.064151	0.429975	0.249765
C251	C	1.314151	0.679975	0.499765
C252	C	1.564151	0.929975	0.749765
C253	C	0.815071	0.243196	-0.000247
C254	C	1.065071	0.493196	0.249753
C255	C	1.315071	0.743196	0.499753
C256	C	1.565071	0.993196	0.749753
N257	N	0.819940	0.075830	0.188450
N258	N	1.069940	0.325830	0.438450
N259	N	1.319940	0.575830	0.688450
N260	N	1.569940	0.825830	0.938450
N261	N	0.819992	0.075839	-0.188886
N262	N	1.069992	0.325839	0.061114
N263	N	1.319992	0.575839	0.311114
N264	N	1.569992	0.825839	0.561114
C265	C	0.867452	0.037009	0.226546
C266	C	1.117452	0.287009	0.476546
C267	C	1.367452	0.537009	0.726546
C268	C	1.617452	0.787009	0.976546
C269	C	0.867456	0.037007	0.302774
C270	C	1.117456	0.287007	0.552774
C271	C	1.367456	0.537007	0.802774
C272	C	1.617456	0.787007	1.052774
C273	C	0.819955	0.075834	0.340903
C274	C	1.069955	0.325834	0.590903
C275	C	1.319955	0.575834	0.840903
C276	C	1.569955	0.825834	1.090903
C277	C	0.772434	0.114658	0.302798
C278	C	1.022434	0.364658	0.552798
C279	C	1.272434	0.614658	0.802798
C280	C	1.522434	0.864658	1.052798
C281	C	0.772427	0.114655	0.226572
C282	C	1.022427	0.364655	0.476572
C283	C	1.272427	0.614655	0.726572
C284	C	1.522427	0.864655	0.976572
C285	C	0.810486	0.127727	0.461656
C286	C	1.060486	0.377727	0.711656
C287	C	1.310486	0.627727	0.961656
C288	C	1.560486	0.877727	1.211656
C289	C	0.810498	0.127730	0.537881
C290	C	1.060498	0.377730	0.787881
C291	C	1.310498	0.627730	1.037881
C292	C	1.560498	0.877730	1.287881
C293	C	0.819975	0.075842	0.576010
C294	C	1.069975	0.325842	0.826010
C295	C	1.319975	0.575842	1.076010
C296	C	1.569975	0.825842	1.326010
C297	C	0.829454	0.023948	0.537905
C298	C	1.079454	0.273948	0.787905
C299	C	1.329454	0.523948	1.037905
C300	C	1.579454	0.773948	1.287905
C301	C	0.829446	0.023946	0.461679
C302	C	1.079446	0.273946	0.711679
C303	C	1.329446	0.523946	0.961679
C304	C	1.579446	0.773946	1.211679
C305	C	0.819958	0.075841	0.423558
C306	C	1.069958	0.325841	0.673558
C307	C	1.319958	0.575841	0.923558
C308	C	1.569958	0.825841	1.173558
C309	C	0.867494	0.037015	0.696761
C310	C	1.117494	0.287015	0.946761
C311	C	1.367494	0.537015	1.196761
C312	C	1.617494	0.787015	1.446761
C313	C	0.867494	0.037012	0.772990
C314	C	1.117494	0.287012	1.022990
C315	C	1.367494	0.537012	1.272990
C316	C	1.617494	0.787012	1.522990
C317	C	0.772475	0.114668	0.773013
C318	C	1.022475	0.364668	1.023013
C319	C	1.272475	0.614668	1.273013
C320	C	1.522475	0.864668	1.523013
C321	C	0.772472	0.114666	0.696785
C322	C	1.022472	0.364666	0.946785
C323	C	1.272472	0.614666	1.196785
C324	C	1.522472	0.864666	1.446785
C325	C	0.819986	0.075841	0.658664
C326	C	1.069986	0.325841	0.908664
C327	C	1.319986	0.575841	1.158664
C328	C	1.569986	0.825841	1.408664
H329	H	0.593414	0.173483	-0.000196
H330	H	0.843414	0.423483	0.249804
H331	H	1.093414	0.673483	0.499804
H332	H	1.343414	0.923483	0.749804
F333	F	0.918061	-0.004311	0.813536
F334	F	1.168061	0.245689	1.063536
F335	F	1.418061	0.495689	1.313536
F336	F	1.668061	0.745689	1.563536
F337	F	0.823091	-0.212193	-0.136490
F338	F	1.073091	0.037807	0.113510
F339	F	1.323091	0.287807	0.363510
F340	F	1.573091	0.537807	0.613510
H341	H	0.819188	-0.477996	-0.186013
H342	H	1.069188	-0.227996	0.063987
H343	H	1.319188	0.022004	0.313987
H344	H	1.569188	0.272004	0.563987
F345	F	0.153441	0.181198	-0.000273
F346	F	0.403441	0.431198	0.249727
F347	F	0.653441	0.681198	0.499727
F348	F	0.903441	0.931198	0.749727
H349	H	0.242185	0.147184	0.076732
H350	H	0.492185	0.397184	0.326732
H351	H	0.742185	0.647184	0.576732
H352	H	0.992185	0.897184	0.826732
H353	H	0.820778	-0.370250	-0.186005
H354	H	1.070778	-0.120250	0.063995
H355	H	1.320778	0.129750	0.313995
H356	H	1.570778	0.379750	0.563995
H357	H	0.624805	-0.014860	-0.000143
H358	H	0.874805	0.235140	0.249857
H359	H	1.124805	0.485140	0.499857
H360	H	1.374805	0.735140	0.749857
H361	H	0.733736	0.146268	0.195554
H362	H	0.983736	0.396268	0.445554
H363	H	1.233736	0.646268	0.695554
H364	H	1.483736	0.896268	0.945554
F365	F	0.721907	0.155987	0.656238
F366	F	0.971907	0.405987	0.906238
F367	F	1.221907	0.655987	1.156238
F368	F	1.471907	0.905987	1.406238
H369	H	0.802784	0.169985	0.568900
H370	H	1.052784	0.419985	0.818900
H371	H	1.302784	0.669985	1.068900
H372	H	1.552784	0.919985	1.318900
H373	H	0.816755	-0.643498	-0.120014
H374	H	1.066755	-0.393498	0.129986
H375	H	1.316755	-0.143498	0.379986
H376	H	1.566755	0.106502	0.629986
F377	F	0.721917	0.155987	0.813590
F378	F	0.971917	0.405987	1.063590
F379	F	1.221917	0.655987	1.313590
F380	F	1.471917	0.905987	1.563590
F381	F	0.450772	0.184770	-0.000215
F382	F	0.700772	0.434770	0.249785
F383	F	0.950772	0.684770	0.499785
F384	F	1.200772	0.934770	0.749785
H385	H	0.815170	-0.751267	-0.120014
H386	H	1.065170	-0.501267	0.129986
H387	H	1.315170	-0.251267	0.379986
H388	H	1.565170	-0.001267	0.629986
H389	H	0.820683	-0.370304	0.185561
H390	H	1.070683	-0.120304	0.435561
H391	H	1.320683	0.129696	0.685561
H392	H	1.570683	0.379696	0.935561
F393	F	0.408461	-0.005346	-0.087795
F394	F	0.658461	0.244654	0.162205
F395	F	0.908461	0.494654	0.412205
F396	F	1.158461	0.744654	0.662205
F397	F	0.839528	-0.031282	0.421128
F398	F	1.089528	0.218718	0.671128
F399	F	1.339528	0.468718	0.921128
F400	F	1.589528	0.718718	1.171128
F401	F	0.815034	-0.758729	0.136029
F402	F	1.065034	-0.508729	0.386029
F403	F	1.315034	-0.258729	0.636029
F404	F	1.565034	-0.008729	0.886029
H405	H	0.373611	0.148767	0.076755
H406	H	0.623611	0.398767	0.326755
H407	H	0.873611	0.648767	0.576755
H408	H	1.123611	0.898767	0.826755
F409	F	0.800449	0.182959	0.421083
F410	F	1.050449	0.432959	0.671083
F411	F	1.300449	0.682959	0.921083
F412	F	1.550449	0.932959	1.171083
F413	F	0.721878	0.155979	0.343378
F414	F	0.971878	0.405979	0.593378
F415	F	1.221878	0.655979	0.843378
F416	F	1.471878	0.905979	1.093378
H417	H	0.015124	0.166530	-0.000285
H418	H	0.265124	0.416530	0.249715
H419	H	0.515124	0.666530	0.499715
H420	H	0.765124	0.916530	0.749715
H421	H	0.046507	-0.021810	-0.000306
H422	H	0.296507	0.228190	0.249694
H423	H	0.546507	0.478190	0.499694
H424	H	0.796507	0.728190	0.749694
F425	F	0.823064	-0.212261	0.136071
F426	F	1.073064	0.037739	0.386071
F427	F	1.323064	0.287739	0.636071
F428	F	1.573064	0.537739	0.886071
H429	H	0.177933	-0.020231	-0.000236
H430	H	0.427933	0.229769	0.249764
H431	H	0.677933	0.479769	0.499764
H432	H	0.927933	0.729769	0.749764
H433	H	0.266321	0.002909	-0.077215
H434	H	0.516321	0.252909	0.172785
H435	H	0.766321	0.502909	0.422785
H436	H	1.016321	0.752909	0.672785
H437	H	0.816710	-0.643547	0.119533
H438	H	1.066710	-0.393547	0.369533
H439	H	1.316710	-0.143547	0.619533
H440	H	1.566710	0.106453	0.869533
F441	F	0.824910	-0.089592	-0.136474
F442	F	1.074910	0.160408	0.113526
F443	F	1.324910	0.410408	0.363526
F444	F	1.574910	0.660408	0.613526
F445	F	0.486484	-0.029523	-0.000174
F446	F	0.736484	0.220477	0.249826
F447	F	0.986484	0.470477	0.499826
F448	F	1.236484	0.720477	0.749826
H449	H	0.819116	-0.478057	0.185559
H450	H	1.069116	-0.228057	0.435559
H451	H	1.319116	0.021943	0.685559
H452	H	1.569116	0.271943	0.935559
H453	H	0.824757	-0.097060	0.119567
H454	H	1.074757	0.152940	0.369567
H455	H	1.324757	0.402940	0.619567
H456	H	1.574757	0.652940	0.869567
F457	F	0.918028	-0.004313	0.343324
F458	F	1.168028	0.245687	0.593324
F459	F	1.418028	0.495687	0.843324
F460	F	1.668028	0.745687	1.093324
F461	F	0.918016	-0.004314	0.185976
F462	F	1.168016	0.245686	0.435976
F463	F	1.418016	0.495686	0.685976
F464	F	1.668016	0.745686	0.935976
H465	H	0.837170	-0.018305	0.568949
H466	H	1.087170	0.231695	0.818949
H467	H	1.337170	0.481695	1.068949
H468	H	1.587170	0.731695	1.318949
H469	H	0.906181	0.005399	0.665721
H470	H	1.156181	0.255399	0.915721
H471	H	1.406181	0.505399	1.165721
H472	H	1.656181	0.755399	1.415721
