data_functionalizedCrystal
_audit_creation_method	'MofGen! by Chris Wilmer'
_symmetry_space_group_name_H-M	'P1'
_symmetry_Int_Tables_number	1
_symmetry_cell_setting	triclinic
loop_
_symmetry_equiv_pos_as_xyz
  x,y,z
_cell_length_a	10.540510
_cell_length_b	15.944551
_cell_length_c	14.421503
_cell_angle_alpha	89.996660
_cell_angle_beta	90.007955
_cell_angle_gamma	84.006024
loop_
_atom_site_label
_atom_site_type_symbol
_atom_site_fract_x
_atom_site_fract_y
_atom_site_fract_z
O1	O	1.684307	0.118242	0.077120
O2	O	1.314737	0.129422	0.077120
O3	O	1.509614	0.001617	0.077112
O4	O	1.489430	0.246047	0.077128
O5	O	1.509582	0.001636	-0.077112
O6	O	1.314704	0.129441	-0.077103
O7	O	1.684275	0.118261	-0.077104
Cu8	Cu	1.499487	0.123853	-0.091185
Cu9	Cu	1.499525	0.123830	0.091202
O10	O	1.489397	0.246066	-0.077095
C11	C	1.267428	0.128598	0.000009
C12	C	1.126512	0.126106	0.000009
C13	C	0.907848	0.214891	0.000369
C14	C	1.054407	0.217550	0.000016
C15	C	1.082371	0.079306	-0.088061
C16	C	0.935638	0.077295	-0.088130
C17	C	0.935894	0.075369	0.087251
C18	C	1.082177	0.079706	0.088410
C19	C	1.508760	-0.029673	-0.000000
C20	C	1.506248	-0.122934	-0.000001
C21	C	1.379449	-0.338537	0.000012
C22	C	1.438314	-0.399198	-0.076029
C23	C	1.501703	-0.293686	0.000006
C24	C	1.438375	-0.399200	0.076023
C25	C	1.497304	-0.458625	0.000017
C26	C	1.560602	-0.353119	-0.076098
C27	C	1.560645	-0.353115	0.076023
C28	C	1.619599	-0.413758	-0.000038
C29	C	1.504234	-0.198669	-0.000001
C30	C	1.494783	-0.553641	0.000018
C31	C	1.731583	0.119085	0.000010
C32	C	1.872499	0.121577	0.000016
C33	C	1.490251	0.277356	0.000019
C34	C	1.492764	0.370617	0.000026
N35	N	1.499469	0.123868	-0.219466
C36	C	1.409342	0.182938	-0.469116
C37	C	1.524044	0.199921	-0.530918
C38	C	1.499500	0.123848	-0.408628
C39	C	1.384827	0.106885	-0.530920
C40	C	1.499519	0.123831	-0.591349
C41	C	1.614260	0.140869	-0.469069
C42	C	1.474968	0.047800	-0.469066
C43	C	1.589753	0.064751	-0.530839
C44	C	1.499487	0.123860	-0.303367
C45	C	1.499546	0.123818	-0.696608
N46	N	1.499552	0.123808	0.219483
H47	H	0.894972	0.109294	-0.153959
H48	H	1.287843	0.092546	-0.558091
H49	H	1.386664	-0.419590	0.140315
F50	F	1.447776	-0.036226	-0.433525
F51	F	1.628119	-0.326586	-0.160217
H52	H	1.083268	0.254163	0.063151
H53	H	1.721165	-0.446318	-0.000081
H54	H	1.130677	0.011987	-0.091341
F55	F	1.551191	0.283971	-0.566429
H56	H	1.132155	0.012944	0.093724
F57	F	1.741056	0.159710	-0.433710
F58	F	1.689525	-0.000576	-0.566046
H59	H	1.277973	-0.305827	-0.000063
F60	F	0.852396	0.261450	0.082925
F61	F	0.906793	-0.012097	-0.093406
H62	H	1.333176	0.232950	-0.442015
F63	F	1.370713	-0.425870	-0.160058
H64	H	1.082296	0.254401	-0.063217
F65	F	0.850333	0.261202	-0.081709
H66	H	1.112769	0.111823	-0.153599
H67	H	0.892968	0.104198	0.154004
H68	H	1.110345	0.113757	0.153563
F69	F	1.628193	-0.326413	0.160055
H70	H	0.914675	0.006713	0.087842
