data_functionalizedCrystal
_audit_creation_method	'MofGen! by Chris Wilmer'
_symmetry_space_group_name_H-M	'P1'
_symmetry_Int_Tables_number	1
_symmetry_cell_setting	triclinic
loop_
_symmetry_equiv_pos_as_xyz
  x,y,z
_cell_length_a	13.032831
_cell_length_b	12.759394
_cell_length_c	13.033454
_cell_angle_alpha	82.784228
_cell_angle_beta	89.091650
_cell_angle_gamma	82.819699
loop_
_atom_site_label
_atom_site_type_symbol
_atom_site_fract_x
_atom_site_fract_y
_atom_site_fract_z
Zn1	Zn	1.498577	-0.510090	-0.780878
Zn2	Zn	1.520314	-0.710552	-0.608889
Zn3	Zn	1.348418	-0.515690	-0.587109
Zn4	Zn	1.326573	-0.666526	-0.759022
O5	O	1.423470	-0.600714	-0.683975
O6	O	1.645383	-0.552762	-0.776326
O7	O	1.515750	-0.705472	-0.462075
O8	O	1.368382	-0.367928	-0.612844
O9	O	1.661353	-0.700041	-0.649966
O10	O	1.478703	-0.363813	-0.755206
O11	O	1.389459	-0.562308	-0.446073
O12	O	1.201597	-0.519618	-0.591651
O13	O	1.331151	-0.625006	-0.905846
O14	O	1.185548	-0.630436	-0.717956
O15	O	1.457521	-0.510073	-0.921904
O16	O	1.494569	-0.851731	-0.628773
O17	O	1.352228	-0.819386	-0.739075
C18	C	1.156255	-0.570858	-0.650069
C19	C	1.041936	-0.558107	-0.635589
C20	C	0.983067	-0.607369	-0.691532
C21	C	0.864912	-0.594192	-0.676567
C22	C	1.423412	-0.873679	-0.683942
C23	C	1.423477	-0.990459	-0.683974
C24	C	1.571782	-1.024084	-0.569227
C25	C	1.645959	-1.095759	-0.511870
C26	C	1.646016	-1.205483	-0.511905
C27	C	1.571889	-1.243533	-0.569307
C28	C	1.497711	-1.171859	-0.626665
C29	C	1.497661	-1.062134	-0.626621
C30	C	1.349412	-1.138234	-0.741416
C31	C	1.349349	-1.028510	-0.741376
C32	C	1.275285	-1.176285	-0.798819
C33	C	1.201101	-1.104610	-0.856172
C34	C	1.201047	-0.994880	-0.856133
C35	C	1.275172	-0.956836	-0.798734
C36	C	1.691729	-0.630688	-0.718013
C37	C	1.806046	-0.643461	-0.732518
C38	C	1.389475	-0.562004	-0.952237
C39	C	1.374988	-0.545507	-1.066554
C40	C	1.423554	-0.326684	-0.684034
C41	C	1.423590	-0.209909	-0.684059
C42	C	1.431015	-0.608987	-1.125437
C43	C	1.416044	-0.591939	-1.243591
C44	C	1.457393	-0.639206	-0.416764
C45	C	1.472079	-0.655428	-0.302472
H46	H	1.571731	-0.934743	-0.569178
H47	H	0.827842	-0.542253	-0.617593
Br48	Br	0.867816	-0.730000	-0.830842
Br49	Br	1.746563	-1.044114	-0.433979
Br50	Br	1.276570	-0.433875	-1.128312
Br51	Br	1.317621	-0.480302	-1.305344
H52	H	1.706423	-1.263841	-0.465205
H53	H	1.490070	-0.675953	-1.088378
Br54	Br	0.980153	-0.471539	-0.537299
Br55	Br	1.570516	-0.767053	-1.240724
Br56	Br	1.571547	-1.392461	-0.568812
H57	H	1.140646	-0.936526	-0.902845
H58	H	1.020141	-0.659296	-0.750510
Br59	Br	1.274941	-1.325211	-0.798326
Br60	Br	1.100520	-1.156256	-0.934078
H61	H	1.275129	-0.867495	-0.798690
