data_functionalizedCrystal
_audit_creation_method	'MofGen! by Chris Wilmer'
_symmetry_space_group_name_H-M	'P1'
_symmetry_Int_Tables_number	1
_symmetry_cell_setting	triclinic
loop_
_symmetry_equiv_pos_as_xyz
  x,y,z
_cell_length_a	12.759401
_cell_length_b	12.759400
_cell_length_c	17.077404
_cell_angle_alpha	90.006931
_cell_angle_beta	90.005223
_cell_angle_gamma	90.013326
loop_
_atom_site_label
_atom_site_type_symbol
_atom_site_fract_x
_atom_site_fract_y
_atom_site_fract_z
Zn1	Zn	1.606129	-0.418444	0.443800
Zn2	Zn	1.606069	-0.594090	0.312543
Zn3	Zn	1.430472	-0.418427	0.312555
Zn4	Zn	1.430424	-0.594082	0.443773
O5	O	1.518273	-0.506261	0.378168
O6	O	1.753142	-0.441754	0.426394
O7	O	1.582770	-0.570785	0.202697
O8	O	1.453818	-0.271408	0.329980
O9	O	1.753098	-0.570801	0.329960
O10	O	1.582873	-0.271420	0.426406
O11	O	1.453760	-0.441725	0.202706
O12	O	1.283444	-0.441717	0.329955
O13	O	1.453737	-0.570786	0.553624
O14	O	1.283410	-0.570770	0.426361
O15	O	1.582827	-0.441746	0.553643
O16	O	1.582724	-0.741110	0.329935
O17	O	1.453679	-0.741104	0.426350
C18	C	1.245306	-0.506241	0.378157
C19	C	1.128529	-0.506258	0.378171
C20	C	1.073677	-0.573564	0.428287
C21	C	0.963953	-0.573577	0.428295
C22	C	0.963944	-0.438977	0.328066
C23	C	1.073666	-0.438959	0.328062
C24	C	1.128541	-0.640863	0.478396
C25	C	1.073688	-0.708175	0.528515
C26	C	0.963964	-0.708188	0.528523
C27	C	0.909092	-0.640890	0.478413
C28	C	1.518218	-0.779228	0.378155
C29	C	1.518291	-0.896005	0.378176
C30	C	1.585456	-0.950793	0.428426
C31	C	1.585505	-1.060517	0.428445
C32	C	1.451221	-1.060654	0.327958
C33	C	1.451167	-0.950932	0.327943
C34	C	1.652580	-0.895866	0.478659
C35	C	1.719751	-0.950655	0.528912
C36	C	1.719800	-1.060379	0.528931
C37	C	1.652677	-1.115314	0.478697
C38	C	1.792307	-0.506281	0.378179
C39	C	1.909083	-0.506289	0.378184
C40	C	1.518283	-0.506267	0.582912
C41	C	1.518288	-0.506270	0.670162
C42	C	1.518357	-0.232227	0.378197
C43	C	1.518393	-0.115451	0.378210
C44	C	1.585496	-0.439090	0.711163
C45	C	1.585488	-0.439088	0.793143
C46	C	1.518275	-0.506273	0.834121
C47	C	1.451059	-0.573456	0.793114
C48	C	1.451063	-0.573452	0.711135
C49	C	1.451056	-0.573463	0.963984
C50	C	1.451053	-0.573469	1.045969
C51	C	1.585481	-0.439100	1.045992
C52	C	1.585485	-0.439095	0.964014
C53	C	1.518270	-0.506280	0.923012
C54	C	1.518258	-0.506281	1.174220
C55	C	1.518262	-0.506289	1.086970
H56	H	1.118371	-0.762960	0.569318
H57	H	1.118328	-0.384145	0.287259
C58	C	1.377115	-0.647365	1.091043
H59	H	1.337074	-0.687366	1.054884
H60	H	1.417286	-0.693149	1.123021
H61	H	1.331353	-0.607159	1.123023
C62	C	1.249233	-0.640846	0.478392
H63	H	1.274053	-0.690559	0.515417
H64	H	1.274044	-0.658894	0.427712
H65	H	1.274059	-0.573070	0.492062
H66	H	1.774394	-0.905921	0.569815
C67	C	1.793682	-1.120644	0.584206
H68	H	1.833653	-1.072214	0.614114
H69	H	1.753485	-1.163462	0.618392
H70	H	1.839511	-1.163425	0.554206
H71	H	0.819748	-0.640897	0.478430
C72	C	0.903588	-0.364962	0.272945
H73	H	0.830385	-0.374620	0.280121
H74	H	0.921574	-0.294393	0.284521
H75	H	0.921559	-0.380231	0.220180
H76	H	1.640208	-0.384394	1.079380
H77	H	0.919306	-0.762989	0.569338
C78	C	1.377156	-0.647399	0.918884
H79	H	1.337143	-0.687431	0.955028
H80	H	1.331381	-0.607239	0.886890
H81	H	1.417374	-0.693169	0.886917
C82	C	1.377160	-0.647375	0.666033
H83	H	1.337143	-0.687403	0.702178
H84	H	1.331390	-0.607202	0.634045
H85	H	1.417364	-0.693150	0.634061
H86	H	1.396474	-0.906323	0.287026
C87	C	1.659422	-0.365195	0.838242
H88	H	1.699462	-0.325192	0.802096
H89	H	1.619251	-0.319412	0.870223
H90	H	1.705185	-0.405400	0.870221
C91	C	1.652524	-0.775174	0.478643
H92	H	1.702113	-0.750306	0.515760
H93	H	1.670724	-0.750360	0.427994
H94	H	1.584698	-0.750397	0.492180
H95	H	1.652710	-1.204659	0.478726
H96	H	1.396573	-1.105391	0.287060
H97	H	1.640232	-0.384383	0.677805
H98	H	1.640222	-0.384393	0.930652
H99	H	1.396329	-0.628155	0.826484
