data_functionalizedCrystal
_audit_creation_method	'MofGen! by Chris Wilmer'
_symmetry_space_group_name_H-M	'P1'
_symmetry_Int_Tables_number	1
_symmetry_cell_setting	triclinic
loop_
_symmetry_equiv_pos_as_xyz
  x,y,z
_cell_length_a	25.639239
_cell_length_b	18.215407
_cell_length_c	18.215399
_cell_angle_alpha	90.019833
_cell_angle_beta	89.969965
_cell_angle_gamma	89.960866
loop_
_atom_site_label
_atom_site_type_symbol
_atom_site_fract_x
_atom_site_fract_y
_atom_site_fract_z
Zn1	Zn	-0.208150	-1.125001	-0.416105
Zn2	Zn	0.291850	-0.625001	0.083895
Zn3	Zn	-0.295586	-1.124880	-0.293034
Zn4	Zn	0.204414	-0.624880	0.206966
Zn5	Zn	-0.208167	-1.001934	-0.293053
Zn6	Zn	0.291833	-0.501934	0.206947
Zn7	Zn	-0.295557	-1.001870	-0.416059
Zn8	Zn	0.204443	-0.501870	0.083941
O9	O	-0.251865	-1.063421	-0.354563
O10	O	0.248135	-0.563421	0.145437
O11	O	-0.219754	-1.227970	-0.399791
O12	O	0.280246	-0.727970	0.100209
O13	O	-0.284009	-1.108547	-0.190052
O14	O	0.215991	-0.608547	0.309948
O15	O	-0.135000	-1.018337	-0.309403
O16	O	0.365000	-0.518337	0.190597
O17	O	-0.283992	-1.227880	-0.309372
O18	O	0.216008	-0.727880	0.190628
O19	O	-0.134987	-1.108754	-0.399809
O20	O	0.365013	-0.608754	0.100191
O21	O	-0.219783	-1.018219	-0.190066
O22	O	0.280217	-0.518219	0.309934
O23	O	-0.219754	-0.898941	-0.309358
O24	O	0.280246	-0.398941	0.190642
O25	O	-0.283943	-1.018228	-0.519050
O26	O	0.216057	-0.518228	-0.019050
O27	O	-0.283959	-0.898894	-0.399731
O28	O	0.216041	-0.398894	0.100269
O29	O	-0.219725	-1.108692	-0.519083
O30	O	0.280275	-0.608692	-0.019083
O31	O	-0.368747	-1.108485	-0.309327
O32	O	0.131253	-0.608485	0.190673
O33	O	-0.368726	-1.018110	-0.399713
O34	O	0.131274	-0.518110	0.100287
C35	C	-0.251856	-0.872215	-0.354542
C36	C	0.248144	-0.372215	0.145458
C37	C	-0.251865	-0.790416	-0.354550
C38	C	0.248135	-0.290416	0.145450
C39	C	-0.387708	-1.063298	-0.354529
C40	C	0.112292	-0.563298	0.145471
C41	C	-0.445822	-1.063312	-0.354539
C42	C	0.054178	-0.563312	0.145461
C43	C	-0.251829	-1.063466	-0.546516
C44	C	0.248171	-0.563466	-0.046516
C45	C	-0.251814	-1.063485	-0.628315
C46	C	0.248186	-0.563485	-0.128315
C47	C	-0.806183	-1.110602	-0.307579
C48	C	-0.306183	-0.610602	0.192421
C49	C	-0.860787	-1.110631	-0.307589
C50	C	-0.360787	-0.610631	0.192411
O51	O	-0.889023	-1.150711	-0.267625
O52	O	-0.389023	-0.650711	0.232375
N53	N	-0.888104	-1.063551	-0.354612
N54	N	-0.388104	-0.563551	0.145388
C55	C	-0.860813	-1.016444	-0.401633
C56	C	-0.360813	-0.516444	0.098367
O57	O	-0.889062	-0.976402	-0.441631
O58	O	-0.389062	-0.476402	0.058369
C59	C	-0.806210	-1.016420	-0.401626
C60	C	-0.306210	-0.516420	0.098374
C61	C	-0.778896	-1.063498	-0.354595
C62	C	-0.278896	-0.563498	0.145405
C63	C	-0.778869	-1.157677	-0.260553
C64	C	-0.278869	-0.657677	0.239447
C65	C	-0.724269	-1.157647	-0.260542
C66	C	-0.224269	-0.657647	0.239458
C67	C	-0.696982	-1.110543	-0.307558
C68	C	-0.196982	-0.610543	0.192442
C69	C	-0.724296	-1.063468	-0.354584
C70	C	-0.224296	-0.563468	0.145416
C71	C	-0.778920	-0.969318	-0.448650
C72	C	-0.278920	-0.469318	0.051350
C73	C	-0.724313	-0.969298	-0.448640
C74	C	-0.224313	-0.469298	0.051360
C75	C	-0.697000	-1.016376	-0.401609
C76	C	-0.197000	-0.516376	0.098391
C77	C	-0.642408	-1.016334	-0.401590
C78	C	-0.142408	-0.516334	0.098410
N79	N	-0.615092	-1.063414	-0.354567
N80	N	-0.115092	-0.563414	0.145433
C81	C	-0.642379	-1.110519	-0.307551
C82	C	-0.142379	-0.610519	0.192449
C83	C	-0.975484	-1.016500	-0.401644
C84	C	-0.475484	-0.516500	0.098356
C85	C	-1.030086	-1.016520	-0.401648
C86	C	-0.530086	-0.516520	0.098352
C87	C	-1.030057	-1.110708	-0.307605
C88	C	-0.530057	-0.610708	0.192395
C89	C	-0.975453	-1.110683	-0.307598
C90	C	-0.475453	-0.610683	0.192402
C91	C	-0.948167	-1.063580	-0.354621
C92	C	-0.448167	-0.563580	0.145379
C93	C	-0.527714	-1.110452	-0.307532
C94	C	-0.027714	-0.610452	0.192468
C95	C	-0.473108	-1.110416	-0.307523
C96	C	0.026892	-0.610416	0.192477
C97	C	-0.473143	-1.016232	-0.401569
C98	C	0.026857	-0.516232	0.098431
C99	C	-0.527743	-1.016265	-0.401575
C100	C	-0.027743	-0.516265	0.098425
C101	C	-0.555027	-1.063381	-0.354554
C102	C	-0.055027	-0.563381	0.145446
O103	O	-0.614138	-0.976277	-0.441536
O104	O	-0.114138	-0.476277	0.058464
O105	O	-0.614123	-1.150561	-0.267567
O106	O	-0.114123	-0.650561	0.232433
C107	C	-0.115492	-1.063566	-0.354613
C108	C	0.384508	-0.563566	0.145387
C109	C	-0.057378	-1.063627	-0.354634
C110	C	0.442622	-0.563627	0.145366
C111	C	-0.251874	-1.255374	-0.354584
C112	C	0.248126	-0.755374	0.145416
C113	C	-0.251878	-1.337173	-0.354594
C114	C	0.248122	-0.837173	0.145406
C115	C	-0.285349	-0.602217	-0.401548
C116	C	0.214651	-0.102217	0.098452
C117	C	-0.285350	-0.525358	-0.401557
C118	C	0.214650	-0.025358	0.098443
C119	C	-0.218391	-0.525378	-0.307594
C120	C	0.281609	-0.025378	0.192406
C121	C	-0.218387	-0.602235	-0.307589
C122	C	0.281613	-0.102235	0.192411
C123	C	-0.251869	-0.640653	-0.354565
C124	C	0.248131	-0.140653	0.145435
C125	C	-0.251874	-0.486937	-0.354579
C126	C	0.248126	0.013063	0.145421
C127	C	-0.251876	-0.403603	-0.354589
C128	C	0.248124	0.096397	0.145411
C129	C	-0.251867	-0.723992	-0.354556
C130	C	0.248133	-0.223992	0.145444
C131	C	-0.218344	-1.110607	-0.816528
C132	C	0.281656	-0.610607	-0.316528
C133	C	-0.218329	-1.110616	-0.893386
C134	C	0.281671	-0.610616	-0.393386
C135	C	-0.285202	-1.016416	-0.893340
C136	C	0.214798	-0.516416	-0.393340
C137	C	-0.285214	-1.016404	-0.816483
C138	C	0.214786	-0.516404	-0.316483
C139	C	-0.251786	-1.063504	-0.778078
C140	C	0.248214	-0.563504	-0.278078
C141	C	-0.251759	-1.063524	-0.931795
C142	C	0.248241	-0.563524	-0.431795
C143	C	-0.251742	-1.063534	-1.015128
C144	C	0.248258	-0.563534	-0.515128
C145	C	-0.251801	-1.063494	-0.694739
C146	C	0.248199	-0.563494	-0.194739
C147	C	-0.251863	-1.063419	-0.163357
C148	C	0.248137	-0.563419	0.336643
C149	C	-0.251731	-1.063543	-0.081558
C150	C	0.248269	-0.563543	0.418442
H151	H	-0.450871	-1.148753	-0.269223
H152	H	0.049129	-0.648753	0.230777
H153	H	-0.953270	-0.978136	-0.439934
H154	H	-0.453270	-0.478136	0.060066
H155	H	-0.312446	-0.978042	-0.785176
H156	H	0.187554	-0.478042	-0.285176
C157	C	-0.914087	-1.120943	-0.208600
C158	C	-0.414087	-0.620943	0.291400
C159	C	-0.945433	-1.162435	-0.255904
C160	C	-0.445433	-0.662435	0.244096
H161	H	-0.895559	-1.152896	-0.176683
H162	H	-0.395559	-0.652896	0.323317
H163	H	-0.890020	-1.092899	-0.236599
H164	H	-0.390020	-0.592899	0.263401
H165	H	-0.935428	-1.088904	-0.180427
H166	H	-0.435428	-0.588904	0.319573
H167	H	-0.924091	-1.194471	-0.284080
H168	H	-0.424091	-0.694471	0.215920
H169	H	-0.969503	-1.190493	-0.227901
H170	H	-0.469503	-0.690493	0.272099
H171	H	-0.191120	-0.633530	-0.269329
H172	H	0.308880	-0.133530	0.230671
H173	H	-0.191131	-0.494089	-0.269346
H174	H	0.308869	0.005911	0.230654
H175	H	-0.312613	-0.494068	-0.439817
H176	H	0.187387	0.005932	0.060183
C177	C	-0.152237	-1.203713	-0.824296
C178	C	0.347763	-0.703713	-0.324296
C179	C	-0.181595	-1.162370	-0.774313
C180	C	0.318405	-0.662370	-0.274313
H181	H	-0.129547	-1.235665	-0.798234
H182	H	0.370453	-0.735665	-0.298234
H183	H	-0.175012	-1.231845	-0.854266
H184	H	0.324988	-0.731845	-0.354266
H185	H	-0.132236	-1.171663	-0.854278
H186	H	0.367764	-0.671663	-0.354278
H187	H	-0.201600	-1.194420	-0.744335
H188	H	0.298400	-0.694420	-0.244335
H189	H	-0.158818	-1.134236	-0.744330
H190	H	0.341182	-0.634236	-0.244330
H191	H	-0.191096	-1.148971	-0.924688
H192	H	0.308904	-0.648971	-0.424688
C193	C	-0.355519	-1.006135	-0.979737
C194	C	0.144481	-0.506135	-0.479737
C195	C	-0.321949	-0.964651	-0.935556
C196	C	0.178051	-0.464651	-0.435556
H197	H	-0.378208	-0.974177	-1.005795
H198	H	0.121792	-0.474177	-0.505795
H199	H	-0.335600	-1.034183	-1.013634
H200	H	0.164400	-0.534183	-0.513634
H201	H	-0.375521	-1.038172	-0.949743
H202	H	0.124479	-0.538172	-0.449743
H203	H	-0.301944	-0.932619	-0.965551
H204	H	0.198056	-0.432619	-0.465551
H205	H	-0.341870	-0.936591	-0.901656
H206	H	0.158130	-0.436591	-0.401656
C207	C	-0.522185	-1.203542	-0.214564
C208	C	-0.022185	-0.703542	0.285436
C209	C	-0.557699	-1.162238	-0.255841
C210	C	-0.057699	-0.662238	0.244159
H211	H	-0.540697	-1.235505	-0.182648
H212	H	-0.040697	-0.735505	0.317352
H213	H	-0.500854	-1.231662	-0.246652
H214	H	-0.000854	-0.731662	0.253348
H215	H	-0.500923	-1.171469	-0.186390
H216	H	-0.000923	-0.671469	0.313610
H217	H	-0.578959	-1.194310	-0.284020
H218	H	-0.078959	-0.694310	0.215980
H219	H	-0.579038	-1.134116	-0.223749
H220	H	-0.079038	-0.634116	0.276251
H221	H	-0.801080	-1.196039	-0.222266
H222	H	-0.301080	-0.696039	0.277734
C223	C	-0.707500	-1.193579	-0.135957
C224	C	-0.207500	-0.693579	0.364043
C225	C	-0.694253	-1.209408	-0.208851
C226	C	-0.194253	-0.709408	0.291149
H227	H	-0.688974	-1.225541	-0.104047
H228	H	-0.188974	-0.725541	0.395953
H229	H	-0.698583	-1.144144	-0.125137
H230	H	-0.198583	-0.644144	0.374863
H231	H	-0.743928	-1.200327	-0.129250
H232	H	-0.243928	-0.700327	0.370750
H233	H	-0.657825	-1.202654	-0.215560
H234	H	-0.157825	-0.702654	0.284440
H235	H	-0.703166	-1.258854	-0.219675
H236	H	-0.203166	-0.758854	0.280325
C237	C	-1.113751	-1.152658	-0.265962
C238	C	-0.613751	-0.652658	0.234038
C239	C	-1.060057	-1.162553	-0.255988
C240	C	-0.560057	-0.662553	0.244012
H241	H	-1.132272	-1.184684	-0.234119
H242	H	-0.632272	-0.684684	0.265881
H243	H	-1.122759	-1.103248	-0.255086
H244	H	-0.622759	-0.603248	0.244914
H245	H	-1.122638	-1.163343	-0.315445
H246	H	-0.622638	-0.663343	0.184555
H247	H	-1.051170	-1.151862	-0.206506
H248	H	-0.551170	-0.651862	0.293494
H249	H	-1.051047	-1.211974	-0.266859
H250	H	-0.551047	-0.711974	0.233141
H251	H	-0.549983	-0.977932	-0.439874
H252	H	-0.049983	-0.477932	0.060126
C253	C	-0.315078	-0.720026	-0.443262
C254	C	0.184922	-0.220026	0.056738
C255	C	-0.322148	-0.644448	-0.453188
C256	C	0.177852	-0.144448	0.046812
H257	H	-0.337798	-0.746094	-0.475142
H258	H	0.162202	-0.246094	0.024858
H259	H	-0.279961	-0.732652	-0.454119
H260	H	0.220039	-0.232652	0.045881
H261	H	-0.322688	-0.732587	-0.393794
H262	H	0.177312	-0.232587	0.106206
H263	H	-0.314534	-0.631885	-0.502655
H264	H	0.185466	-0.131885	-0.002655
H265	H	-0.357272	-0.631816	-0.442336
H266	H	0.142728	-0.131816	0.057664
H267	H	-1.052320	-0.978177	-0.439938
H268	H	-0.552320	-0.478177	0.060062
H269	H	-0.801150	-0.930978	-0.486945
H270	H	-0.301150	-0.430978	0.013055
H271	H	-0.702100	-0.930941	-0.486935
H272	H	-0.202100	-0.430941	0.013065
H273	H	-0.450917	-0.977877	-0.439847
H274	H	0.049083	-0.477877	0.060153
