data_functionalizedCrystal
_audit_creation_method	'MofGen! by Chris Wilmer'
_symmetry_space_group_name_H-M	'P1'
_symmetry_Int_Tables_number	1
_symmetry_cell_setting	triclinic
loop_
_symmetry_equiv_pos_as_xyz
  x,y,z
_cell_length_a	17.699077
_cell_length_b	15.995350
_cell_length_c	16.176319
_cell_angle_alpha	89.995430
_cell_angle_beta	89.993140
_cell_angle_gamma	83.386476
loop_
_atom_site_label
_atom_site_type_symbol
_atom_site_fract_x
_atom_site_fract_y
_atom_site_fract_z
O1	O	1.004258	0.105862	-0.068731
O2	O	0.783902	0.119643	-0.068735
O3	O	0.900103	-0.009148	-0.068732
O4	O	0.888056	0.234652	-0.068734
O5	O	0.900087	-0.009156	0.068761
O6	O	0.783886	0.119634	0.068758
O7	O	1.004242	0.105853	0.068762
Cu8	Cu	0.894062	0.112743	0.081314
Cu9	Cu	0.894081	0.112753	-0.081287
O10	O	0.888040	0.234644	0.068759
C11	C	0.755696	0.119146	0.000011
C12	C	0.671675	0.117667	0.000010
C13	C	0.632198	0.116965	0.074958
C14	C	0.553253	0.115562	0.074959
C15	C	0.513786	0.114867	0.000010
C16	C	0.553269	0.115566	-0.074944
C17	C	0.632213	0.116963	-0.074944
C18	C	0.234896	0.109931	-0.074945
C19	C	0.155946	0.108537	-0.074939
C20	C	0.155936	0.108531	0.074957
C21	C	0.234880	0.109928	0.074957
C22	C	0.274357	0.110622	0.000004
C23	C	0.359958	0.112142	0.000004
C24	C	0.428185	0.113353	0.000010
C25	C	0.899597	-0.040346	0.000013
C26	C	0.898104	-0.133293	0.000008
C27	C	0.892742	-0.471030	0.000011
C28	C	0.809985	-0.423425	-0.000299
C29	C	0.811478	-0.326738	0.000011
C30	C	0.895401	-0.303474	0.000009
C31	C	0.936211	-0.344641	0.078523
C32	C	0.934132	-0.441272	0.078589
C33	C	0.935860	-0.441624	-0.077766
C34	C	0.935840	-0.344679	-0.078804
C35	C	0.896909	-0.208780	0.000011
C36	C	0.891237	-0.565724	0.000014
C37	C	1.032448	0.106350	0.000014
C38	C	1.116468	0.107829	0.000010
C39	C	0.888546	0.265842	0.000012
C40	C	0.890039	0.358789	0.000011
N41	N	0.894054	0.112736	0.195679
N42	N	0.894095	0.112754	-0.195653
C43	C	0.945524	0.055731	0.238945
C44	C	0.945528	0.055730	0.325492
C45	C	0.894065	0.112739	0.368772
C46	C	0.842590	0.169747	0.325501
C47	C	0.842583	0.169743	0.238955
C48	C	0.842616	0.169762	0.674529
C49	C	0.842628	0.169763	0.761080
C50	C	0.945561	0.055749	0.761066
C51	C	0.945554	0.055745	0.674520
C52	C	0.894076	0.112750	0.631256
C53	C	0.894072	0.112749	0.537412
C54	C	0.894073	0.112744	0.462615
H55	H	0.664325	0.117539	0.135990
H56	H	0.664354	0.117535	-0.135975
H57	H	0.987434	0.009311	0.203712
N58	N	0.998105	-0.002509	0.369673
N59	N	1.044052	-0.053403	0.331021
H60	H	1.081186	-0.094538	0.362223
H61	H	0.800670	0.216161	0.203729
N62	N	0.771231	-0.291002	-0.070595
N63	N	0.741839	-0.337464	-0.120445
H64	H	0.713408	-0.312229	-0.170312
H65	H	0.521115	0.114977	0.135989
H66	H	0.267010	0.110498	0.135988
N67	N	0.998137	-0.002482	0.630324
N68	N	1.044092	-0.053374	0.668965
H69	H	1.081232	-0.094498	0.637754
N70	N	0.512958	0.114837	-0.151502
N71	N	0.475890	0.055059	-0.168222
H72	H	0.447421	0.054544	-0.222294
H73	H	0.987474	0.009330	0.796300
H74	H	0.800684	0.216162	0.360744
H75	H	0.267029	0.110494	-0.135977
H76	H	0.776915	-0.441885	-0.056603
N77	N	0.768671	-0.447931	0.069940
N78	N	0.799911	-0.500303	0.120224
H79	H	0.770735	-0.517612	0.169832
N80	N	1.013559	-0.327092	0.082209
N81	N	1.066319	-0.386197	0.081957
H82	H	1.120947	-0.373802	0.084562
H83	H	0.123785	0.107962	0.135988
H84	H	0.779170	-0.298810	0.056388
N85	N	0.790052	0.228006	0.805279
N86	N	0.744094	0.278898	0.766642
H87	H	0.706965	0.320030	0.797857
N88	N	0.896783	-0.464151	0.152219
N89	N	0.872429	-0.408779	0.203199
H90	H	0.846049	-0.424932	0.255203
N91	N	0.790027	0.227991	0.630356
N92	N	0.744084	0.278886	0.669012
H93	H	0.706939	0.320013	0.637813
H94	H	0.994890	-0.473646	0.082150
N95	N	0.115645	0.107810	-0.151510
N96	N	0.131446	0.048964	-0.201686
H97	H	0.102983	0.048450	-0.255762
N98	N	0.900632	-0.308965	0.151818
N99	N	0.845230	-0.253233	0.146433
H100	H	0.820098	-0.228037	0.198195
H101	H	0.906003	-0.317365	-0.136887
N102	N	0.901941	-0.467328	-0.152424
N103	N	0.898796	-0.543727	-0.166280
H104	H	0.874835	-0.561882	-0.219004
N105	N	1.012610	-0.325546	-0.084757
N106	N	1.038888	-0.281037	-0.030765
H107	H	1.093109	-0.267520	-0.034965
N108	N	1.012406	-0.481618	-0.078415
N109	N	1.035193	-0.531571	-0.021906
H110	H	1.089252	-0.559817	-0.022355
