data_functionalizedCrystal
_audit_creation_method	'MofGen! by Chris Wilmer'
_symmetry_space_group_name_H-M	'P1'
_symmetry_Int_Tables_number	1
_symmetry_cell_setting	triclinic
loop_
_symmetry_equiv_pos_as_xyz
  x,y,z
_cell_length_a	25.639242
_cell_length_b	25.639240
_cell_length_c	25.639234
_cell_angle_alpha	89.967912
_cell_angle_beta	89.978465
_cell_angle_gamma	90.025061
loop_
_atom_site_label
_atom_site_type_symbol
_atom_site_fract_x
_atom_site_fract_y
_atom_site_fract_z
Zn1	Zn	0.799284	-0.208290	-0.295607
Zn2	Zn	0.799205	-0.295718	-0.208160
Zn3	Zn	0.711849	-0.208287	-0.208183
Zn4	Zn	0.711814	-0.295684	-0.295562
O5	O	0.755538	-0.251995	-0.251878
O6	O	0.872438	-0.219903	-0.284016
O7	O	0.787599	-0.284133	-0.134998
O8	O	0.723495	-0.135122	-0.219808
O9	O	0.872381	-0.284136	-0.219770
O10	O	0.787733	-0.135124	-0.284038
O11	O	0.723419	-0.219898	-0.135015
O12	O	0.638679	-0.219865	-0.219765
O13	O	0.723435	-0.284079	-0.368733
O14	O	0.638654	-0.284076	-0.283962
O15	O	0.787699	-0.219870	-0.368766
O16	O	0.787565	-0.368879	-0.219726
O17	O	0.723359	-0.368854	-0.283940
C18	C	0.619695	-0.251967	-0.251861
C19	C	0.561581	-0.251967	-0.251867
C20	C	0.755464	-0.387837	-0.251837
C21	C	0.755480	-0.445951	-0.251837
C22	C	0.310426	-0.218608	-0.285392
C23	C	0.365030	-0.218603	-0.285390
O24	O	0.393299	-0.190217	-0.313891
N25	N	0.392307	-0.251989	-0.251884
C26	C	0.364978	-0.285386	-0.218383
O27	O	0.393193	-0.313783	-0.189885
C28	C	0.310374	-0.285393	-0.218389
C29	C	0.283100	-0.252001	-0.251893
C30	C	0.283152	-0.185219	-0.318894
C31	C	0.228551	-0.185224	-0.318896
C32	C	0.201225	-0.218617	-0.285397
C33	C	0.228499	-0.252006	-0.251895
C34	C	0.283045	-0.318792	-0.184892
C35	C	0.228438	-0.318797	-0.184901
C36	C	0.201164	-0.285405	-0.218405
C37	C	0.146573	-0.285404	-0.218398
N38	N	0.119295	-0.252018	-0.251904
C39	C	0.146622	-0.218625	-0.285403
C40	C	0.479648	-0.285368	-0.218374
C41	C	0.534250	-0.285359	-0.218365
C42	C	0.534299	-0.218576	-0.285372
C43	C	0.479696	-0.218584	-0.285378
C44	C	0.452371	-0.251982	-0.251879
C45	C	0.031956	-0.218637	-0.285404
C46	C	-0.022649	-0.218643	-0.285402
C47	C	-0.022693	-0.285427	-0.218397
C48	C	0.031907	-0.285419	-0.218398
C49	C	0.059231	-0.252022	-0.251905
O50	O	0.118269	-0.313777	-0.189913
O51	O	0.118400	-0.190237	-0.313902
C52	C	0.789003	-0.806277	-0.285383
C53	C	0.789019	-0.860882	-0.285394
O54	O	0.817433	-0.889087	-0.313874
N55	N	0.755611	-0.888234	-0.251929
C56	C	0.722181	-0.860979	-0.218455
O57	O	0.693766	-0.889258	-0.189991
C58	C	0.722163	-0.806376	-0.218447
C59	C	0.755577	-0.779026	-0.251911
C60	C	0.822414	-0.778928	-0.318844
C61	C	0.822399	-0.724327	-0.318833
C62	C	0.788974	-0.697076	-0.285360
C63	C	0.755563	-0.724426	-0.251899
C64	C	0.688732	-0.779122	-0.184976
C65	C	0.688717	-0.724515	-0.184972
C66	C	0.722131	-0.697165	-0.218435
C67	C	0.722122	-0.642574	-0.218415
N68	N	0.755530	-0.615222	-0.251880
C69	C	0.788956	-0.642473	-0.285353
C70	C	0.722220	-0.975650	-0.218474
C71	C	0.722240	-1.030252	-0.218478
C72	C	0.789077	-1.030151	-0.285418
C73	C	0.789059	-0.975547	-0.285411
C74	C	0.755628	-0.948297	-0.251939
C75	C	0.788922	-0.527808	-0.285326
C76	C	0.788906	-0.473202	-0.285310
C77	C	0.722067	-0.473309	-0.218372
C78	C	0.722085	-0.527909	-0.218386
C79	C	0.755515	-0.555157	-0.251867
O80	O	0.693720	-0.614335	-0.189951
O81	O	0.817361	-0.614187	-0.313816
C82	C	0.891911	-0.252024	-0.251896
C83	C	0.950025	-0.252036	-0.251903
C84	C	0.755572	-0.251971	-0.388251
C85	C	0.755586	-0.251961	-0.446365
C86	C	0.755626	-0.115622	-0.251931
C87	C	0.755664	-0.057508	-0.251953
C88	C	0.722182	-0.218451	-0.806743
C89	C	0.722185	-0.218442	-0.861347
O90	O	0.693758	-0.190008	-0.889596
N91	N	0.755604	-0.251879	-0.888648
C92	C	0.789018	-0.285331	-0.861342
O93	O	0.817443	-0.313772	-0.889577
C94	C	0.789012	-0.285343	-0.806739
C95	C	0.755595	-0.251900	-0.779440
C96	C	0.688768	-0.185011	-0.779445
C97	C	0.688766	-0.185020	-0.724844
C98	C	0.722178	-0.218469	-0.697542
C99	C	0.755593	-0.251909	-0.724840
C100	C	0.822423	-0.318798	-0.779433
C101	C	0.822414	-0.318807	-0.724826
C102	C	0.788997	-0.285364	-0.697528
C103	C	0.789004	-0.285367	-0.642937
N104	N	0.755585	-0.251930	-0.615636
C105	C	0.722173	-0.218481	-0.642938
C106	C	0.789027	-0.285305	-0.976013
C107	C	0.789036	-0.285291	-1.030615
C108	C	0.722202	-0.218402	-1.030616
C109	C	0.722197	-0.218414	-0.976013
C110	C	0.755608	-0.251868	-0.948712
C111	C	0.722171	-0.218502	-0.528273
C112	C	0.722174	-0.218512	-0.473668
C113	C	0.789005	-0.285403	-0.473671
C114	C	0.789005	-0.285391	-0.528272
C115	C	0.755584	-0.251938	-0.555571
O116	O	0.817415	-0.313787	-0.614653
O117	O	0.693748	-0.190050	-0.614696
C118	C	0.755534	-0.251981	-0.116036
C119	C	0.755621	-0.251844	-0.057922
H120	H	-0.044853	-0.191448	-0.312685
H121	H	0.556558	-0.191386	-0.312649
H122	H	0.054115	-0.312604	-0.191112
Cl123	Cl	0.194090	-0.360790	-0.142789
H124	H	0.694881	-0.550178	-0.191133
H125	H	-0.044952	-0.312612	-0.191121
Cl126	Cl	0.680048	-0.439040	-0.176295
H127	H	0.206349	-0.158035	-0.346181
H128	H	0.816210	-0.312634	-0.451432
Cl129	Cl	0.680239	-1.064628	-0.176401
Cl130	Cl	0.066298	-0.176650	-0.327528
H131	H	0.694998	-0.953465	-0.191213
H132	H	0.661491	-0.702331	-0.157715
Cl133	Cl	0.568532	-0.327329	-0.176235
H134	H	0.694962	-0.191276	-0.451444
Cl135	Cl	0.680160	-0.176443	-0.562584
H136	H	0.849626	-0.346047	-0.702600
Cl137	Cl	0.445302	-0.327354	-0.176251
H138	H	0.816241	-0.312544	-0.953787
Cl139	Cl	0.646750	-0.142979	-0.690534
Cl140	Cl	0.831024	-0.327425	-0.562590
H141	H	0.661522	-0.801381	-0.157726
Cl142	Cl	0.317495	-0.143234	-0.361014
Cl143	Cl	0.830916	-0.438824	-0.327381
H144	H	0.457493	-0.191393	-0.312659
Cl145	Cl	0.646751	-0.142962	-0.813758
Cl146	Cl	0.830950	-0.562054	-0.327415
Cl147	Cl	0.680184	-0.176371	-0.941701
H148	H	0.694996	-0.191166	-1.052856
H149	H	0.305243	-0.345984	-0.157609
H150	H	0.816253	-0.312518	-1.052836
Cl151	Cl	0.864404	-0.689953	-0.360908
H152	H	0.849634	-0.346031	-0.801650
H153	H	0.849633	-0.801110	-0.346105
Cl154	Cl	0.831066	-0.941171	-0.327482
H155	H	0.816293	-1.052348	-0.312674
