data_functionalizedCrystal
_audit_creation_method	'MofGen! by Chris Wilmer'
_symmetry_space_group_name_H-M	'P1'
_symmetry_Int_Tables_number	1
_symmetry_cell_setting	triclinic
loop_
_symmetry_equiv_pos_as_xyz
  x,y,z
_cell_length_a	19.188925
_cell_length_b	19.188930
_cell_length_c	13.330367
_cell_angle_alpha	89.990231
_cell_angle_beta	89.991499
_cell_angle_gamma	83.143665
loop_
_atom_site_label
_atom_site_type_symbol
_atom_site_fract_x
_atom_site_fract_y
_atom_site_fract_z
O1	O	0.926150	0.087149	-0.083456
O2	O	1.259484	0.420482	0.249877
O3	O	1.592817	0.753816	0.583210
O4	O	0.722839	0.098887	-0.083455
O5	O	1.056172	0.432221	0.249878
O6	O	1.389505	0.765554	0.583212
O7	O	0.830362	-0.008638	-0.083436
O8	O	1.163695	0.324696	0.249897
O9	O	1.497028	0.658029	0.583231
O10	O	0.818627	0.194674	-0.083475
O11	O	1.151961	0.528007	0.249858
O12	O	1.485294	0.861341	0.583191
O13	O	0.830346	-0.008640	0.083411
O14	O	1.163679	0.324693	0.416744
O15	O	1.497013	0.658027	0.750078
O16	O	0.722823	0.098885	0.083392
O17	O	1.056156	0.432218	0.416725
O18	O	1.389490	0.765552	0.750059
O19	O	0.926135	0.087147	0.083391
O20	O	1.259468	0.420480	0.416724
O21	O	1.592801	0.753813	0.750057
Cu22	Cu	0.824477	0.093016	0.098626
Cu23	Cu	1.157811	0.426349	0.431959
Cu24	Cu	1.491144	0.759682	0.765293
Cu25	Cu	0.824496	0.093018	-0.098690
Cu26	Cu	1.157829	0.426352	0.234643
Cu27	Cu	1.491163	0.759685	0.567976
O28	O	0.818612	0.194672	0.083372
O29	O	1.151945	0.528005	0.416705
O30	O	1.485278	0.861338	0.750039
C31	C	0.696820	0.098507	-0.000031
C32	C	1.030153	0.431840	0.333302
C33	C	1.363486	0.765173	0.666636
C34	C	0.619315	0.097367	-0.000030
C35	C	0.952648	0.430701	0.333304
C36	C	1.285982	0.764034	0.666637
C37	C	0.829974	-0.034650	-0.000010
C38	C	1.163307	0.298683	0.333324
C39	C	1.496640	0.632017	0.666657
C40	C	0.828833	-0.112154	-0.000001
C41	C	1.162166	0.221179	0.333332
C42	C	1.495500	0.554512	0.666666
C43	C	0.057545	0.152831	-0.000043
C44	C	0.390878	0.486165	0.333291
C45	C	0.724211	0.819498	0.666624
C46	C	0.130368	0.153908	-0.000048
C47	C	0.463701	0.487241	0.333285
C48	C	0.797035	0.820575	0.666618
C49	C	0.175302	0.090816	-0.000034
C50	C	0.508636	0.424149	0.333299
C51	C	0.841969	0.757482	0.666632
C52	C	0.147408	0.026642	-0.000041
C53	C	0.480742	0.359976	0.333293
C54	C	0.814075	0.693309	0.666626
C55	C	0.074586	0.025568	-0.000045
C56	C	0.407920	0.358901	0.333288
C57	C	0.741253	0.692234	0.666622
N58	N	0.295974	0.045139	0.056770
N59	N	0.629308	0.378472	0.390104
N60	N	0.962641	0.711805	0.723437
N61	N	0.365152	0.046164	0.056777
N62	N	0.698485	0.379497	0.390110
N63	N	1.031818	0.712831	0.723443
C64	C	0.394712	0.094050	-0.000023
C65	C	0.728045	0.427383	0.333310
C66	C	1.061378	0.760716	0.666643
N67	N	0.352480	0.140882	-0.056817
N68	N	0.685813	0.474216	0.276516
N69	N	1.019146	0.807549	0.609850
N70	N	0.283296	0.139859	-0.056819
N71	N	0.616629	0.473192	0.276514
N72	N	0.949962	0.806526	0.609848
C73	C	0.254267	0.091974	-0.000030
C74	C	0.587600	0.425307	0.333303
C75	C	0.920933	0.758641	0.666636
C76	C	0.501561	0.159386	-0.000030
C77	C	0.834894	0.492720	0.333303
C78	C	1.168227	0.826053	0.666636
C79	C	0.574385	0.160460	-0.000042
C80	C	0.907719	0.493794	0.333291
C81	C	1.241052	0.827127	0.666625
C82	C	0.591425	0.033193	-0.000024
C83	C	0.924758	0.366526	0.333309
C84	C	1.258091	0.699859	0.666642
C85	C	0.518601	0.032121	-0.000022
C86	C	0.851934	0.365454	0.333311
C87	C	1.185268	0.698787	0.666644
C88	C	0.473673	0.095220	-0.000021
C89	C	0.807006	0.428553	0.333313
C90	C	1.140340	0.761886	0.666646
C91	C	0.891924	-0.157079	0.000003
C92	C	1.225257	0.176254	0.333337
C93	C	1.558591	0.509587	0.666670
C94	C	0.890852	-0.229903	-0.000013
C95	C	1.224186	0.103430	0.333321
C96	C	1.557519	0.436763	0.666654
C97	C	0.826686	-0.257799	-0.000013
C98	C	1.160020	0.075535	0.333320
C99	C	1.493353	0.408868	0.666654
C100	C	0.763587	-0.212864	-0.000023
C101	C	1.096920	0.120470	0.333310
C102	C	1.430254	0.453803	0.666644
C103	C	0.764660	-0.140041	-0.000017
C104	C	1.097994	0.193292	0.333316
C105	C	1.431327	0.526625	0.666650
N106	N	0.777633	-0.365803	0.056769
N107	N	1.110967	-0.032470	0.390102
N108	N	1.444300	0.300863	0.723435
N109	N	0.776618	-0.434982	0.056765
N110	N	1.109951	-0.101649	0.390098
N111	N	1.443285	0.231685	0.723432
C112	C	0.823448	-0.477207	-0.000033
C113	C	1.156781	-0.143874	0.333300
C114	C	1.490115	0.189459	0.666633
N115	N	0.871343	-0.447642	-0.056815
N116	N	1.204676	-0.114308	0.276518
N117	N	1.538009	0.219025	0.609851
N118	N	0.872360	-0.378457	-0.056807
N119	N	1.205693	-0.045124	0.276526
N120	N	1.539027	0.288210	0.609859
C121	C	0.825515	-0.336761	-0.000020
C122	C	1.158848	-0.003428	0.333313
C123	C	1.492182	0.329906	0.666646
C124	C	0.885381	-0.601097	-0.000048
C125	C	1.218715	-0.267763	0.333286
C126	C	1.552048	0.065570	0.666619
C127	C	0.884307	-0.673922	-0.000070
C128	C	1.217640	-0.340588	0.333263
C129	C	1.550974	-0.007255	0.666597
C130	C	0.757040	-0.656880	-0.000070
C131	C	1.090373	-0.323547	0.333263
C132	C	1.423706	0.009786	0.666596
C133	C	0.758116	-0.584057	-0.000058
C134	C	1.091449	-0.250724	0.333275
C135	C	1.424782	0.082610	0.666609
C136	C	0.822289	-0.556170	-0.000042
C137	C	1.155622	-0.222837	0.333291
C138	C	1.488955	0.110497	0.666625
C139	C	0.952154	0.087527	-0.000035
C140	C	1.285487	0.420861	0.333298
C141	C	1.618820	0.754194	0.666631
C142	C	1.029658	0.088666	-0.000043
C143	C	1.362992	0.422000	0.333290
C144	C	1.696325	0.755333	0.666623
C145	C	0.819000	0.220684	-0.000057
C146	C	1.152333	0.554017	0.333277
C147	C	1.485666	0.887350	0.666610
C148	C	0.820140	0.298188	-0.000072
C149	C	1.153474	0.631522	0.333261
C150	C	1.486807	0.964855	0.666595
N151	N	0.824470	0.093013	0.237407
N152	N	1.157803	0.426346	0.570741
N153	N	1.491136	0.759680	0.904074
N154	N	0.824509	0.093015	-0.237472
N155	N	1.157843	0.426348	0.095862
N156	N	1.491176	0.759682	0.429195
C157	C	0.776883	0.140612	0.710022
C158	C	1.110216	0.473945	1.043355
C159	C	1.443549	0.807278	1.376689
C160	C	0.872128	0.045419	0.710007
C161	C	1.205461	0.378753	1.043340
C162	C	1.538795	0.712086	1.376673
C163	C	0.872120	0.045417	0.604988
C164	C	1.205453	0.378751	0.938322
C165	C	1.538787	0.712084	1.271655
C166	C	0.824493	0.093014	0.552482
C167	C	1.157827	0.426347	0.885815
C168	C	1.491160	0.759680	1.219149
C169	C	0.776875	0.140612	0.604994
C170	C	1.110208	0.473946	0.938327
C171	C	1.443541	0.807279	1.271660
C172	C	0.919743	-0.002176	0.552469
C173	C	1.253076	0.331158	0.885802
C174	C	1.586409	0.664491	1.219135
C175	C	0.919737	-0.002179	0.447444
C176	C	1.253070	0.331154	0.780777
C177	C	1.586404	0.664487	1.114110
C178	C	0.872107	0.045414	0.394935
C179	C	1.205440	0.378748	0.728269
C180	C	1.538773	0.712081	1.061602
C181	C	0.824485	0.093015	0.447454
C182	C	1.157819	0.426348	0.780787
C183	C	1.491152	0.759681	1.114120
C184	C	0.776859	0.140611	0.394947
C185	C	1.110192	0.473944	0.728281
C186	C	1.443526	0.807278	1.061614
C187	C	0.729234	0.188208	0.447464
C188	C	1.062567	0.521542	0.780797
C189	C	1.395900	0.854875	1.114131
C190	C	0.729244	0.188206	0.552486
C191	C	1.062578	0.521540	0.885819
C192	C	1.395911	0.854873	1.219152
C193	C	0.872096	0.045417	0.289914
C194	C	1.205430	0.378750	0.623247
C195	C	1.538763	0.712083	0.956580
C196	C	0.776851	0.140612	0.289919
C197	C	1.110184	0.473945	0.623253
C198	C	1.443518	0.807278	0.956586
H199	H	0.020968	0.204211	-0.000046
H200	H	0.354302	0.537545	0.333287
H201	H	0.687635	0.870878	0.666620
H202	H	0.495896	-0.020129	-0.000017
H203	H	0.829230	0.313204	0.333316
H204	H	1.162563	0.646537	0.666650
H205	H	0.942230	-0.266488	-0.000013
H206	H	1.275564	0.066845	0.333320
H207	H	1.608897	0.400178	0.666654
Cl208	Cl	0.165434	0.234579	-0.000045
Cl209	Cl	0.498767	0.567912	0.333289
Cl210	Cl	0.832101	0.901245	0.666622
Cl211	Cl	0.966054	-0.566035	-0.000022
Cl212	Cl	1.299387	-0.232702	0.333312
Cl213	Cl	1.632721	0.100631	0.666645
Cl214	Cl	0.717011	0.200443	0.776037
Cl215	Cl	1.050344	0.533776	1.109370
Cl216	Cl	1.383678	0.867110	1.442704
H217	H	0.935686	-0.710500	-0.000072
H218	H	1.269019	-0.377166	0.333261
H219	H	1.602352	-0.043833	0.666595
Cl220	Cl	0.203896	-0.052674	-0.000027
Cl221	Cl	0.537230	0.280660	0.333306
Cl222	Cl	0.870563	0.613993	0.666639
Cl223	Cl	0.685339	-0.083561	-0.000022
Cl224	Cl	1.018672	0.249773	0.333311
Cl225	Cl	1.352006	0.583106	0.666645
H226	H	0.910907	0.006671	0.752761
H227	H	1.244241	0.340004	1.086094
H228	H	1.577574	0.673338	1.419427
Cl229	Cl	0.972598	-0.122025	-0.000005
Cl230	Cl	1.305932	0.211308	0.333329
Cl231	Cl	1.639265	0.544641	0.666662
H232	H	0.711342	-0.235581	-0.000026
H233	H	1.044676	0.097753	0.333308
H234	H	1.378009	0.431086	0.666641
H235	H	0.704794	-0.679592	-0.000076
H236	H	1.038128	-0.346258	0.333258
H237	H	1.371461	-0.012925	0.666591
H238	H	0.706740	-0.547478	-0.000056
H239	H	1.040073	-0.214144	0.333277
H240	H	1.373407	0.119189	0.666611
H241	H	0.738065	0.179368	0.247175
H242	H	1.071398	0.512702	0.580508
H243	H	1.404732	0.846035	0.913842
H244	H	0.464978	0.210765	-0.000031
H245	H	0.798311	0.544098	0.333303
H246	H	1.131645	0.877432	0.666636
Cl247	Cl	0.669367	0.248046	0.381445
Cl248	Cl	1.002700	0.581380	0.714778
Cl249	Cl	1.336034	0.914713	1.048111
Cl250	Cl	0.669380	0.248040	0.618508
Cl251	Cl	1.002713	0.581374	0.951841
Cl252	Cl	1.336047	0.914707	1.285175
Cl253	Cl	0.979618	-0.062005	0.618474
Cl254	Cl	1.312951	0.271329	0.951807
Cl255	Cl	1.646285	0.604662	1.285140
Cl256	Cl	0.979604	-0.062016	0.381430
Cl257	Cl	1.312937	0.271317	0.714763
Cl258	Cl	1.646271	0.604651	1.048097
Cl259	Cl	0.039528	-0.055104	-0.000048
Cl260	Cl	0.372861	0.278230	0.333285
Cl261	Cl	0.706194	0.611563	0.666618
Cl262	Cl	0.931967	-0.014411	0.223900
Cl263	Cl	1.265301	0.318922	0.557233
Cl264	Cl	1.598634	0.652255	0.890567
H265	H	0.597088	0.212713	-0.000050
H266	H	0.930421	0.546046	0.333283
H267	H	1.263755	0.879380	0.666617
H268	H	0.628010	-0.018178	-0.000021
H269	H	0.961343	0.315155	0.333313
H270	H	1.294676	0.648489	0.666646
