data_functionalizedCrystal
_audit_creation_method	'MofGen! by Chris Wilmer'
_symmetry_space_group_name_H-M	'P1'
_symmetry_Int_Tables_number	1
_symmetry_cell_setting	triclinic
loop_
_symmetry_equiv_pos_as_xyz
  x,y,z
_cell_length_a	15.297475
_cell_length_b	12.827892
_cell_length_c	12.827885
_cell_angle_alpha	90.029786
_cell_angle_beta	80.312948
_cell_angle_gamma	99.681360
loop_
_atom_site_label
_atom_site_type_symbol
_atom_site_fract_x
_atom_site_fract_y
_atom_site_fract_z
Zn1	Zn	1.379325	0.692883	-0.866944
Zn2	Zn	1.879325	1.192883	-0.366944
Zn3	Zn	1.379233	0.867642	-0.692186
Zn4	Zn	1.879233	1.367642	-0.192186
Zn5	Zn	1.228449	0.662646	-0.662017
Zn6	Zn	1.728449	1.162646	-0.162017
Zn7	Zn	1.228437	0.837292	-0.836701
Zn8	Zn	1.728437	1.337292	-0.336701
O9	O	1.303861	0.765116	-0.764462
O10	O	1.803861	1.265116	-0.264462
O11	O	1.505563	0.741422	-0.869044
O12	O	2.005563	1.241422	-0.369044
O13	O	1.359199	0.840496	-0.541941
O14	O	1.859199	1.340496	-0.041941
O15	O	1.248507	0.520430	-0.689232
O16	O	1.748507	1.020430	-0.189232
O17	O	1.505496	0.869816	-0.740650
O18	O	2.005496	1.369816	-0.240650
O19	O	1.359354	0.542645	-0.839791
O20	O	1.859354	1.042645	-0.339791
O21	O	1.248418	0.689886	-0.519776
O22	O	1.748418	1.189886	-0.019776
O23	O	1.102197	0.660457	-0.659907
O24	O	1.602197	1.160457	-0.159907
O25	O	1.248485	0.818089	-0.986956
O26	O	1.748485	1.318089	-0.486956
O27	O	1.102188	0.788769	-0.788247
O28	O	1.602188	1.288769	-0.288247
O29	O	1.359342	0.711992	-1.009175
O30	O	1.859342	1.211992	-0.509175
O31	O	1.359186	1.009844	-0.711325
O32	O	1.859186	1.509844	-0.211325
O33	O	1.248397	0.987545	-0.817500
O34	O	1.748397	1.487545	-0.317500
C35	C	1.069457	0.718039	-0.717522
C36	C	1.569457	1.218039	-0.217522
C37	C	0.969178	0.697925	-0.697466
C38	C	1.469178	1.197925	-0.197466
C39	C	1.303805	1.036615	-0.764432
C40	C	1.803805	1.536615	-0.264432
C41	C	1.303863	1.152779	-0.764471
C42	C	1.803863	1.652779	-0.264471
C43	C	1.303922	0.765028	-1.037045
C44	C	1.803922	1.265028	-0.537045
C45	C	1.303949	0.764990	-1.153203
C46	C	1.803949	1.264990	-0.653203
C47	C	0.686588	0.908885	-0.907810
C48	C	1.186588	1.408885	-0.407810
C49	C	0.780805	0.927791	-0.926651
C50	C	1.280805	1.427791	-0.426651
C51	C	0.827903	0.870326	-0.869357
C52	C	1.327903	1.370326	-0.369357
C53	C	0.780774	0.793952	-0.793217
C54	C	1.280774	1.293952	-0.293217
C55	C	0.686548	0.775049	-0.774369
C56	C	1.186548	1.275049	-0.274369
C57	C	0.827863	0.736490	-0.735916
C58	C	1.327863	1.236490	-0.235916
C59	C	0.780734	0.660116	-0.659776
C60	C	1.280734	1.160116	-0.159776
C61	C	0.686517	0.641216	-0.640932
C62	C	1.186517	1.141216	-0.140932
C63	C	0.639419	0.698682	-0.698226
C64	C	1.139419	1.198682	-0.198226
C65	C	0.922089	0.755393	-0.754764
C66	C	1.422089	1.255393	-0.254764
C67	C	0.922049	0.621557	-0.621323
C68	C	1.422049	1.121557	-0.121323
C69	C	0.827832	0.602651	-0.602482
C70	C	1.327832	1.102651	-0.102482
C71	C	1.539180	0.812377	-0.811586
C72	C	2.039180	1.312377	-0.311586
C73	C	1.639460	0.832517	-0.831667
C74	C	2.139460	1.332517	-0.331667
C75	C	1.303942	0.492562	-0.764520
C76	C	1.803942	0.992562	-0.264520
C77	C	1.303977	0.376416	-0.764544
C78	C	1.803977	0.876416	-0.264544
C79	C	1.358750	1.215576	-0.712016
C80	C	1.858750	1.715576	-0.212016
C81	C	1.358812	1.335639	-0.712055
C82	C	1.858812	1.835639	-0.212055
C83	C	1.358810	0.712479	-1.215984
C84	C	1.858810	1.212479	-0.715984
C85	C	1.358838	0.712439	-1.336040
C86	C	1.858838	1.212439	-0.836040
C87	C	1.303852	0.765139	-0.492950
C88	C	1.803852	1.265139	0.007050
C89	C	1.304000	0.764917	-0.376827
C90	C	1.804000	1.264917	0.123173
H91	H	0.960452	0.817577	-0.816758
H92	H	1.460452	1.317577	-0.316758
C93	C	1.240521	0.825686	-1.200648
C94	C	1.740521	1.325686	-0.700648
H95	H	1.206093	0.858630	-1.145690
H96	H	1.706093	1.358630	-0.645690
H97	H	1.275060	0.878099	-1.250140
H98	H	1.775060	1.378099	-0.750140
H99	H	1.201262	0.777763	-1.235367
H100	H	1.701262	1.277763	-0.735367
H101	H	0.904619	0.885724	-0.884702
H102	H	1.404619	1.385724	-0.384702
C103	C	0.973842	0.558338	-0.558295
C104	C	1.473842	1.058338	-0.058295
H105	H	0.932281	0.510156	-0.510240
H106	H	1.432281	1.010156	-0.010240
H107	H	1.010620	0.520232	-0.605704
H108	H	1.510620	1.020232	-0.105704
H109	H	1.010574	0.605634	-0.520038
H110	H	1.510574	1.105634	-0.020038
H111	H	1.257032	0.809880	-1.322887
H112	H	1.757032	1.309880	-0.822887
H113	H	0.819171	0.989978	-0.988641
H114	H	1.319171	1.489978	-0.488641
H115	H	0.648233	0.955671	-0.954444
H116	H	1.148233	1.455671	-0.454444
C117	C	0.535779	0.677904	-0.677486
C118	C	1.035779	1.177904	-0.177486
H119	H	0.514484	0.723073	-0.722508
H120	H	1.014484	1.223073	-0.222508
H121	H	0.514466	0.606218	-0.691402
H122	H	1.014466	1.106218	-0.191402
H123	H	0.514448	0.691628	-0.605744
H124	H	1.014448	1.191628	-0.105744
C125	C	1.422237	0.651786	-1.168534
C126	C	1.922237	1.151786	-0.668534
H127	H	1.413902	0.659782	-1.094068
H128	H	1.913902	1.159782	-0.594068
H129	H	1.409077	0.578906	-1.183745
H130	H	1.909077	1.078906	-0.683745
H131	H	1.482871	0.679246	-1.198509
H132	H	1.982871	1.179246	-0.698509
H133	H	0.648147	0.579038	-0.578924
H134	H	1.148147	1.079038	-0.078924
C135	C	1.422295	0.651709	-1.408911
C136	C	1.922295	1.151709	-0.908911
H137	H	1.413987	0.659646	-1.480042
H138	H	1.913987	1.159646	-0.980042
H139	H	1.482917	0.679169	-1.403209
H140	H	1.982917	1.179169	-0.903209
H141	H	1.409118	0.578834	-1.388450
H142	H	1.909118	1.078834	-0.888450
C143	C	1.240491	1.303537	-0.825220
C144	C	1.740491	1.803537	-0.325220
H145	H	1.206093	1.344695	-0.858151
H146	H	1.706093	1.844695	-0.358151
H147	H	1.274992	1.267814	-0.877644
H148	H	1.774992	1.767814	-0.377644
H149	H	1.201206	1.253143	-0.777288
H150	H	1.701206	1.753143	-0.277288
C151	C	0.775984	0.518650	-0.518728
C152	C	1.275984	1.018650	-0.018728
H153	H	0.713126	0.515632	-0.515708
H154	H	1.213126	1.015632	-0.015708
H155	H	0.791438	0.451554	-0.537231
H156	H	1.291438	0.951554	-0.037231
H157	H	0.791392	0.536957	-0.451565
H158	H	1.291392	1.036957	0.048435
C159	C	1.422173	1.168139	-0.651308
C160	C	1.922173	1.668139	-0.151308
H161	H	1.413807	1.093666	-0.659241
H162	H	1.913807	1.593666	-0.159241
H163	H	1.482806	1.198077	-0.678787
H164	H	1.982806	1.698077	-0.178787
H165	H	1.409019	1.183398	-0.578431
H166	H	1.909019	1.683398	-0.078431
C167	C	1.422292	1.408528	-0.651379
C168	C	1.922292	1.908528	-0.151379
H169	H	1.414008	1.479662	-0.659369
H170	H	1.914008	1.979662	-0.159369
H171	H	1.409126	1.388111	-0.578498
H172	H	1.909126	1.888111	-0.078498
H173	H	1.482912	1.402793	-0.678854
H174	H	1.982912	1.902793	-0.178854
H175	H	1.256921	1.187903	-0.809413
H176	H	1.756921	1.687903	-0.309413
