data_functionalizedCrystal
_audit_creation_method	'MofGen! by Chris Wilmer'
_symmetry_space_group_name_H-M	'P1'
_symmetry_Int_Tables_number	1
_symmetry_cell_setting	triclinic
loop_
_symmetry_equiv_pos_as_xyz
  x,y,z
_cell_length_a	19.077105
_cell_length_b	21.295417
_cell_length_c	19.076919
_cell_angle_alpha	92.266620
_cell_angle_beta	90.076224
_cell_angle_gamma	87.726672
loop_
_atom_site_label
_atom_site_type_symbol
_atom_site_fract_x
_atom_site_fract_y
_atom_site_fract_z
Zn1	Zn	1.058236	-0.304534	-0.440387
Zn2	Zn	1.062864	-0.405747	-0.322870
Zn3	Zn	0.945454	-0.296102	-0.318181
Zn4	Zn	0.940686	-0.405368	-0.435623
O5	O	1.001810	-0.352938	-0.379265
O6	O	1.157181	-0.321649	-0.428754
O7	O	1.051222	-0.387832	-0.223917
O8	O	0.960474	-0.209134	-0.334424
O9	O	1.160581	-0.396009	-0.342415
O10	O	1.043334	-0.215330	-0.424208
O11	O	0.964962	-0.307276	-0.220472
O12	O	0.846490	-0.306908	-0.329804
O13	O	0.952346	-0.395362	-0.534586
O14	O	0.842987	-0.387185	-0.416088
O15	O	1.038710	-0.321280	-0.538086
O16	O	1.046598	-0.493783	-0.337795
O17	O	0.956834	-0.493504	-0.420634
C18	C	0.819242	-0.346091	-0.371921
C19	C	0.741139	-0.343178	-0.368795
C20	C	0.702642	-0.383663	-0.412179
C21	C	0.629255	-0.380918	-0.409246
C22	C	0.594366	-0.337689	-0.362924
C23	C	0.632868	-0.297199	-0.319538
C24	C	0.706253	-0.299942	-0.322476
C25	C	0.375080	-0.324994	-0.349333
C26	C	0.301690	-0.322256	-0.346397
C27	C	0.298082	-0.405974	-0.436106
C28	C	0.371470	-0.408715	-0.439037
C29	C	0.409965	-0.368223	-0.395653
N30	N	0.519353	-0.334883	-0.359923
N31	N	0.484976	-0.371027	-0.398658
C32	C	1.001719	-0.516485	-0.379223
C33	C	1.001744	-0.586454	-0.379231
C34	C	1.048522	-0.619448	-0.336144
C35	C	1.048554	-0.685192	-0.336161
C36	C	1.001796	-0.717939	-0.379257
C37	C	0.955015	-0.684937	-0.422352
C38	C	0.954989	-0.619195	-0.422339
N39	N	0.940111	-0.819089	-0.382141
N40	N	0.940138	-0.881541	-0.382149
C41	C	1.001873	-0.916018	-0.379300
N42	N	1.063583	-0.885683	-0.376429
N43	N	1.063555	-0.823224	-0.376417
C44	C	1.001820	-0.789226	-0.379276
C45	C	1.048690	-1.020300	-0.336230
C46	C	1.048724	-1.086046	-0.336252
C47	C	0.955178	-1.085789	-0.422439
C48	C	0.955151	-1.020045	-0.422421
C49	C	1.001906	-0.987304	-0.379313
C50	C	1.185090	-0.359812	-0.386639
C51	C	1.263193	-0.362741	-0.389782
C52	C	0.994480	-0.359220	-0.562545
C53	C	0.991356	-0.361897	-0.640648
C54	C	1.001919	-0.188754	-0.379324
C55	C	1.001966	-0.118788	-0.379349
C56	C	1.034851	-0.324586	-0.679164
C57	C	1.031907	-0.327098	-0.752550
C58	C	0.985472	-0.366925	-0.787418
C59	C	0.941972	-0.404238	-0.748896
C60	C	0.944913	-0.401722	-0.675512
C61	C	0.971853	-0.378584	-1.006698
C62	C	0.968917	-0.381099	-1.080087
C63	C	1.058852	-0.303958	-1.083736
C64	C	1.061791	-0.301448	-1.010350
C65	C	1.018289	-0.338758	-0.971835
N66	N	0.982464	-0.369496	-0.862429
N67	N	1.021294	-0.336183	-0.896824
C68	C	1.009152	-0.346637	-0.196700
C69	C	1.012412	-0.343787	-0.118604
H70	H	0.604455	-0.261999	-0.281825
C71	C	0.923993	-0.419603	-0.964321
C72	C	0.956404	-0.468427	-0.915055
C73	C	0.908536	-0.509438	-0.872668
C74	C	0.828256	-0.501625	-0.879546
C75	C	0.795840	-0.452799	-0.928814
C76	C	0.843709	-0.411788	-0.971202
H77	H	1.015836	-0.474213	-0.909962
H78	H	0.932532	-0.545582	-0.836197
H79	H	0.792821	-0.531983	-0.848168
H80	H	0.736409	-0.447013	-0.933908
H81	H	0.819712	-0.375644	-1.007673
C82	C	0.255736	-0.450507	-0.483831
C83	C	0.206473	-0.496953	-0.451265
C84	C	0.164127	-0.541487	-0.498995
C85	C	0.171044	-0.539575	-0.579291
C86	C	0.220310	-0.493127	-0.611862
C87	C	0.262656	-0.448594	-0.564132
H88	H	0.201350	-0.498370	-0.391822
H89	H	0.127657	-0.575871	-0.474884
H90	H	0.139697	-0.572541	-0.614624
H91	H	0.225433	-0.491710	-0.671305
H92	H	0.299126	-0.414210	-0.588243
H93	H	0.909487	-0.432098	-0.644152
C94	C	0.741017	-0.431216	-0.463135
C95	C	0.789285	-0.407795	-0.520379
C96	C	0.827657	-0.455348	-0.571338
C97	C	0.817760	-0.526321	-0.565054
C98	C	0.769489	-0.549745	-0.507808
C99	C	0.731118	-0.502193	-0.456849
H100	H	0.796613	-0.355253	-0.525033
H101	H	0.863390	-0.438007	-0.613715
H102	H	0.846165	-0.561522	-0.602777
H103	H	0.762161	-0.602287	-0.503154
H104	H	0.695385	-0.519533	-0.414472
C105	C	0.903688	-0.983745	-0.469810
C106	C	0.931866	-0.941531	-0.526216
C107	C	0.880402	-0.905230	-0.573609
C108	C	0.800761	-0.911144	-0.564596
C109	C	0.772578	-0.953360	-0.508188
C110	C	0.824042	-0.989661	-0.460795
H111	H	0.990825	-0.937151	-0.532890
H112	H	0.901265	-0.873979	-0.615366
H113	H	0.762664	-0.884272	-0.599679
H114	H	0.713619	-0.957739	-0.501514
H115	H	0.803179	-1.020912	-0.419038
H116	H	0.273285	-0.287047	-0.308681
H117	H	1.086595	-0.592792	-0.301045
C118	C	0.586913	-0.425458	-0.456966
C119	C	0.537652	-0.471902	-0.424392
C120	C	0.495311	-0.516445	-0.472115
C121	C	0.502231	-0.514546	-0.552411
C122	C	0.551494	-0.468101	-0.584990
C123	C	0.593835	-0.423557	-0.537267
H124	H	0.532527	-0.473309	-0.364948
H125	H	0.458843	-0.550827	-0.447997
H126	H	0.470888	-0.547520	-0.587739
H127	H	0.556619	-0.466693	-0.644434
H128	H	0.630303	-0.389176	-0.561384
H129	H	1.099606	-0.269018	-0.981966
H130	H	0.406414	-0.292027	-0.314002
C131	C	0.748603	-0.255407	-0.274753
C132	C	0.738315	-0.183680	-0.280237
C133	C	0.780665	-0.139141	-0.232517
C134	C	0.833303	-0.166329	-0.179314
C135	C	0.843594	-0.238060	-0.173829
C136	C	0.801244	-0.282599	-0.221548
H137	H	0.699346	-0.163551	-0.319623
H138	H	0.773046	-0.086042	-0.236578
H139	H	0.864653	-0.133359	-0.143989
H140	H	0.882563	-0.258190	-0.134443
H141	H	0.808863	-0.335699	-0.217487
H142	H	1.086649	-0.712061	-0.301075
C143	C	0.903580	-0.720956	-0.469758
C144	C	0.903604	-0.793270	-0.469772
C145	C	0.852170	-0.829288	-0.517184
C146	C	0.800713	-0.792992	-0.564581
C147	C	0.800687	-0.720673	-0.564569
C148	C	0.852121	-0.684656	-0.517157
H149	H	0.941697	-0.820142	-0.434685
H150	H	0.852189	-0.882823	-0.517193
H151	H	0.762638	-0.819654	-0.599678
H152	H	0.762593	-0.693801	-0.599657
H153	H	0.852101	-0.631121	-0.517149
H154	H	1.072666	-0.292156	-0.650780
C155	C	1.100125	-0.984280	-0.288820
C156	C	1.151590	-1.020577	-0.241431
C157	C	1.203025	-0.984559	-0.194021
C158	C	1.202994	-0.912245	-0.193999
C159	C	1.151527	-0.875944	-0.241389
C160	C	1.100092	-0.911961	-0.288800
H161	H	1.151615	-1.074112	-0.241446
H162	H	1.241124	-1.011432	-0.158939
H163	H	1.241069	-0.885582	-0.158903
H164	H	1.151502	-0.822408	-0.241374
H165	H	1.061993	-0.885088	-0.323881
H166	H	1.094268	-0.273581	-1.115103
C167	C	1.100187	-1.122340	-0.288856
C168	C	1.097704	-1.110392	-0.208739
C169	C	1.149169	-1.146687	-0.161343
C170	C	1.203118	-1.194930	-0.194063
C171	C	1.205603	-1.206880	-0.274183
C172	C	1.154138	-1.170585	-0.321580
H173	H	1.057766	-1.074678	-0.184514
H174	H	1.147329	-1.137840	-0.102032
H175	H	1.241216	-1.221797	-0.158977
H176	H	1.245541	-1.242594	-0.298408
H177	H	1.155978	-1.179432	-0.380891
H178	H	0.931101	-0.413532	-1.108474
H179	H	0.399871	-0.443918	-0.476755
C180	C	0.903741	-1.121802	-0.469844
C181	C	0.903765	-1.194117	-0.469861
C182	C	0.852328	-1.230133	-0.517269
C183	C	0.800865	-1.193836	-0.564660
C184	C	0.800839	-1.121518	-0.564645
C185	C	0.852277	-1.085501	-0.517238
H186	H	0.941862	-1.220990	-0.434777
H187	H	0.852347	-1.283668	-0.517279
H188	H	0.762788	-1.220498	-0.599754
H189	H	0.762742	-1.094644	-0.599729
H190	H	0.852257	-1.031966	-0.517227
C191	C	1.079754	-0.286054	-0.794914
C192	C	1.160037	-0.293844	-0.788043
C193	C	1.207884	-0.252795	-0.830406
C194	C	1.175450	-0.203956	-0.879640
C195	C	1.095164	-0.196164	-0.886514
C196	C	1.047316	-0.237213	-0.844151
H197	H	1.184050	-0.329999	-0.751595
H198	H	1.267318	-0.258564	-0.825317
H199	H	1.210870	-0.173569	-0.911000
H200	H	1.071150	-0.160008	-0.922962
H201	H	0.987882	-0.231444	-0.849239
H202	H	0.916895	-0.592330	-0.457426
H203	H	0.904161	-0.436664	-0.777291
