data_functionalizedCrystal
_audit_creation_method	'MofGen! by Chris Wilmer'
_symmetry_space_group_name_H-M	'P1'
_symmetry_Int_Tables_number	1
_symmetry_cell_setting	triclinic
loop_
_symmetry_equiv_pos_as_xyz
  x,y,z
_cell_length_a	18.050591
_cell_length_b	19.077068
_cell_length_c	19.076919
_cell_angle_alpha	94.470751
_cell_angle_beta	87.724882
_cell_angle_gamma	87.676702
loop_
_atom_site_label
_atom_site_type_symbol
_atom_site_fract_x
_atom_site_fract_y
_atom_site_fract_z
Zn1	Zn	1.105350	0.296760	0.409964
Zn2	Zn	1.105258	0.409914	0.296808
Zn3	Zn	0.986363	0.292036	0.292081
Zn4	Zn	0.975925	0.414601	0.414638
O5	O	1.043224	0.353328	0.353373
O6	O	1.209261	0.311786	0.394975
O7	O	1.093816	0.390338	0.197534
O8	O	1.006553	0.194014	0.303784
O9	O	1.209193	0.394919	0.311840
O10	O	1.093973	0.197485	0.390391
O11	O	1.006464	0.303734	0.194062
O12	O	0.881055	0.308280	0.308317
O13	O	0.988764	0.402908	0.512665
O14	O	0.873386	0.398328	0.398359
O15	O	1.083852	0.316331	0.509230
O16	O	1.083695	0.509185	0.316373
O17	O	0.988674	0.512629	0.402943
C18	C	0.850275	0.353300	0.353333
C19	C	0.767729	0.353306	0.353333
C20	C	1.035062	0.536486	0.360694
C21	C	1.031637	0.614842	0.363849
C22	C	1.035154	0.360670	0.537241
C23	C	1.031714	0.363798	0.615594
C24	C	0.572424	0.304288	0.304474
C25	C	0.520935	0.367890	0.289705
C26	C	0.616596	0.353329	0.353366
C27	C	0.521003	0.289749	0.368134
C28	C	0.470609	0.353345	0.353396
C29	C	0.566193	0.416963	0.338564
C30	C	0.566267	0.338780	0.417021
C31	C	0.514796	0.402428	0.402278
C32	C	0.700695	0.353318	0.353347
C33	C	0.386511	0.353362	0.353415
C34	C	1.236927	0.353356	0.353413
C35	C	1.319471	0.353369	0.353431
C36	C	1.051438	0.169456	0.346039
C37	C	1.054938	0.091100	0.342914
C38	C	1.079535	0.649840	0.320297
C39	C	1.076318	0.723464	0.323269
C40	C	1.025198	0.762090	0.369790
C41	C	0.977298	0.727088	0.413347
C42	C	0.980519	0.653465	0.410378
C43	C	1.010259	0.982475	0.383502
C44	C	1.007040	1.056103	0.386466
C45	C	1.106061	1.052474	0.296388
C46	C	1.109274	0.978849	0.293421
C47	C	1.061377	0.943854	0.336980
N48	N	1.021907	0.837346	0.372827
N49	N	1.064672	0.868599	0.333946
C50	C	1.051308	0.345964	0.170218
C51	C	1.054900	0.342637	0.091857
C52	C	1.079603	0.320194	0.650618
C53	C	1.076363	0.323131	0.724239
C54	C	1.025237	0.369676	0.762836
C55	C	0.977343	0.413282	0.727807
C56	C	0.980580	0.410341	0.654187
C57	C	1.010243	0.383302	0.983208
C58	C	1.007011	0.386241	1.056833
C59	C	1.106031	0.296089	1.053261
C60	C	1.109266	0.293155	0.979639
C61	C	1.061370	0.336758	0.944617
N62	N	1.021925	0.372681	0.838089
N63	N	1.064678	0.333749	0.869365
H64	H	0.500954	0.380207	0.235886
H65	H	0.941516	0.624971	0.445844
H66	H	0.597591	0.262856	0.263087
H67	H	0.971252	0.418817	0.954702
O68	O	0.592450	0.488212	0.321941
H69	H	0.653959	0.487636	0.322029
H70	H	0.971257	0.953987	0.418968
O71	O	0.481617	0.457427	0.457060
H72	H	0.499769	0.510129	0.444643
O73	O	0.592770	0.322441	0.488286
H74	H	0.574778	0.269604	0.500413
H75	H	0.501047	0.235979	0.380589
H76	H	0.935678	0.758543	0.451228
H77	H	1.121159	0.618395	0.282411
O78	O	1.127975	0.761214	0.276291
H79	H	1.164054	0.721986	0.243436
O80	O	0.951894	1.097757	0.436646
H81	H	0.914048	1.130068	0.406407
O82	O	1.164417	0.937188	0.243251
H83	H	1.197190	0.973894	0.213470
O84	O	0.928919	0.457369	0.616414
H85	H	0.962020	0.491901	0.584304
O86	O	1.134747	0.269991	0.608989
H87	H	1.167498	0.240160	0.645715
O88	O	1.128018	0.276105	0.762018
H89	H	1.164121	0.243253	0.722811
O90	O	1.157741	1.090218	0.249428
H91	H	1.146926	1.147902	0.259315
O92	O	1.164413	0.242956	0.938009
H93	H	1.197168	0.213125	0.974733
H94	H	1.145024	0.260588	1.081784
H95	H	0.965375	0.424146	1.088257
O96	O	0.922193	0.463482	0.769431
H97	H	0.927990	0.458207	0.826508
