data_functionalizedCrystal
_audit_creation_method	'MofGen! by Chris Wilmer'
_symmetry_space_group_name_H-M	'P1'
_symmetry_Int_Tables_number	1
_symmetry_cell_setting	triclinic
loop_
_symmetry_equiv_pos_as_xyz
  x,y,z
_cell_length_a	6.817900
_cell_length_b	11.102244
_cell_length_c	14.858572
_cell_angle_alpha	93.466518
_cell_angle_beta	104.524003
_cell_angle_gamma	108.604870
loop_
_atom_site_label
_atom_site_type_symbol
_atom_site_fract_x
_atom_site_fract_y
_atom_site_fract_z
V1	V	-4.064541	-0.176638	-0.289958
O2	O	-4.024475	0.007665	-0.284441
O3	O	-4.041634	-0.349452	-0.287972
O4	O	-4.020832	-0.174282	-0.416419
O5	O	-4.045421	-0.168718	-0.155104
V6	V	-4.544258	-0.154551	-0.273828
O7	O	-4.334149	-0.225089	-0.325339
O8	O	-4.724848	-0.106100	-0.238448
O9	O	-4.343959	0.018263	-0.275814
O10	O	-4.701722	-0.338854	-0.279346
O11	O	-4.680776	-0.162471	-0.408682
O12	O	-4.364762	-0.156907	-0.147367
C13	C	-3.892685	-0.391569	-0.283397
C14	C	-3.955273	-0.532850	-0.282617
C15	C	-3.938305	-0.580848	-0.197090
C16	C	-3.997126	-0.713599	-0.196367
C17	C	-4.089876	-0.750341	-0.366707
C18	C	-4.031069	-0.617593	-0.367428
C19	C	-3.884748	-0.559636	-0.098746
C20	C	-3.943570	-0.692387	-0.098023
C21	C	-3.866148	-0.168121	-0.447243
C22	C	-3.911863	-0.167338	-0.550626
C23	C	-4.079180	-0.164478	-0.929195
C24	C	-4.032619	-0.165274	-0.823865
C25	C	-3.995523	-0.165909	-0.739914
C26	C	-3.948958	-0.166703	-0.634578
C27	C	-4.156252	0.060374	-0.280386
C28	C	-4.072902	0.201653	-0.281173
C29	C	-4.182788	-0.163072	-0.116538
C30	C	-4.116311	-0.163848	-0.013154
H31	H	-4.044907	-0.578520	-0.437073
H32	H	-4.151594	-0.819355	-0.435757
H33	H	-3.988918	-0.520447	-0.064740
C34	C	-3.641571	-0.488169	-0.052861
H35	H	-3.573975	-0.548203	-0.031923
H36	H	-3.579062	-0.445107	-0.097589
H37	H	-3.621656	-0.427118	-0.000748
H38	H	-4.090358	-0.732113	-0.070954
H39	H	-3.798275	-0.715291	-0.056512
