data_functionalizedCrystal
_audit_creation_method	'MofGen! by Chris Wilmer'
_symmetry_space_group_name_H-M	'P1'
_symmetry_Int_Tables_number	1
_symmetry_cell_setting	triclinic
loop_
_symmetry_equiv_pos_as_xyz
  x,y,z
_cell_length_a	16.109301
_cell_length_b	11.792241
_cell_length_c	14.586319
_cell_angle_alpha	89.996059
_cell_angle_beta	89.999213
_cell_angle_gamma	83.827448
loop_
_atom_site_label
_atom_site_type_symbol
_atom_site_fract_x
_atom_site_fract_y
_atom_site_fract_z
O1	O	1.103817	0.145885	-0.076183
O2	O	0.861841	0.164040	-0.076197
O3	O	0.988701	-0.010259	-0.076183
O4	O	0.976957	0.320185	-0.076197
O5	O	0.988692	-0.010262	0.076298
O6	O	0.861832	0.164038	0.076284
O7	O	1.103808	0.145883	0.076298
Cu8	Cu	0.982819	0.154960	0.090214
Cu9	Cu	0.982830	0.154963	-0.090113
O10	O	0.976948	0.320182	0.076284
C11	C	0.830858	0.163304	0.000041
C12	C	0.738552	0.161099	0.000036
C13	C	0.516743	0.259398	0.000042
C14	C	0.430012	0.257318	0.000048
C15	C	0.448914	0.050517	0.000053
C16	C	0.535642	0.052599	0.000054
C17	C	0.569554	0.157043	0.000044
C18	C	0.396095	0.152880	0.000049
C19	C	0.302059	0.150624	0.000056
C20	C	0.663597	0.159300	0.000039
C21	C	0.987959	-0.052545	0.000057
C22	C	0.985751	-0.178539	0.000056
C23	C	0.981691	-0.409216	0.000040
C24	C	0.983947	-0.280850	0.000049
C25	C	1.134791	0.146619	0.000058
C26	C	1.227097	0.148824	0.000057
C27	C	0.977690	0.362468	0.000042
C28	C	0.979898	0.488462	0.000037
N29	N	0.982818	0.154957	0.217045
N30	N	0.982838	0.154957	-0.216944
C31	C	1.039011	0.077803	0.452058
C32	C	1.039013	0.077800	0.548039
C33	C	0.926639	0.232115	0.548036
C34	C	0.926633	0.232111	0.452057
C35	C	0.982824	0.154957	0.404070
C36	C	0.982832	0.154957	0.596031
C37	C	0.982834	0.154955	0.700098
C38	C	0.982821	0.154957	0.299996
H39	H	0.421291	-0.034518	0.000067
O40	O	0.871947	0.306949	0.594614
C41	C	0.727690	0.373440	0.623952
C42	C	0.789536	0.288607	0.571164
H43	H	0.661047	0.358656	0.604998
H44	H	0.737275	0.360190	0.700805
H45	H	0.738971	0.464341	0.605084
H46	H	0.778292	0.197673	0.589955
H47	H	0.779936	0.301956	0.494324
H48	H	0.544351	0.344443	0.000041
O49	O	0.586830	-0.046941	0.000013
C50	C	0.596433	-0.252279	0.000074
C51	C	0.538367	-0.139644	0.000094
H52	H	0.557274	-0.327258	0.000159
H53	H	0.637496	-0.256547	-0.063752
H54	H	0.637524	-0.256410	0.063874
H55	H	0.497224	-0.135437	-0.063663
H56	H	0.497361	-0.135422	0.063962
O57	O	0.871971	0.306910	0.405393
C58	C	0.758574	0.331021	0.296986
C59	C	0.820415	0.246195	0.349793
H60	H	0.716887	0.281967	0.252006
H61	H	0.718358	0.386159	0.347725
H62	H	0.794742	0.387747	0.252083
H63	H	0.784315	0.189395	0.394696
H64	H	0.860631	0.191136	0.299004
O65	O	1.093503	0.002673	0.405505
C66	C	1.141336	-0.194686	0.376262
C67	C	1.079565	-0.109707	0.429007
H68	H	1.130100	-0.285564	0.395259
H69	H	1.131702	-0.181571	0.299403
H70	H	1.207984	-0.179824	0.395126
H71	H	1.012892	-0.124518	0.410220
H72	H	1.089272	-0.122843	0.505854
O73	O	0.378831	0.356851	0.000003
C74	C	0.369242	0.562188	0.000049
C75	C	0.427300	0.449547	0.000076
H76	H	0.408406	0.637162	0.000127
H77	H	0.328179	0.566465	-0.063778
H78	H	0.328150	0.566321	0.063848
H79	H	0.468444	0.445339	-0.063680
H80	H	0.468306	0.445317	0.063945
O81	O	1.093480	0.002744	0.594695
C82	C	1.110492	-0.152212	0.703106
C83	C	1.048715	-0.067287	0.650310
H84	H	1.074324	-0.208839	0.748098
H85	H	1.150637	-0.207436	0.652360
H86	H	1.152259	-0.103170	0.747995
H87	H	1.006893	-0.116238	0.605420
H88	H	1.008629	-0.012064	0.701106
