data_functionalizedCrystal
_audit_creation_method	'MofGen! by Chris Wilmer'
_symmetry_space_group_name_H-M	'P1'
_symmetry_Int_Tables_number	1
_symmetry_cell_setting	triclinic
loop_
_symmetry_equiv_pos_as_xyz
  x,y,z
_cell_length_a	13.032721
_cell_length_b	12.827893
_cell_length_c	13.032328
_cell_angle_alpha	82.835319
_cell_angle_beta	103.288501
_cell_angle_gamma	82.795733
loop_
_atom_site_label
_atom_site_type_symbol
_atom_site_fract_x
_atom_site_fract_y
_atom_site_fract_z
Zn1	Zn	-0.499067	-1.451108	-0.654163
Zn2	Zn	-0.654154	-1.450995	-0.499112
Zn3	Zn	-0.476565	-1.301776	-0.476587
Zn4	Zn	-0.676625	-1.250909	-0.676657
O5	O	-0.576603	-1.363697	-0.576630
O6	O	-0.519652	-1.597326	-0.633608
O7	O	-0.611775	-1.452441	-0.347505
O8	O	-0.330920	-1.342920	-0.481303
O9	O	-0.633594	-1.597242	-0.519692
O10	O	-0.347452	-1.452634	-0.611766
O11	O	-0.481302	-1.342810	-0.330956
O12	O	-0.503091	-1.148795	-0.503114
O13	O	-0.671892	-1.256225	-0.822292
O14	O	-0.650073	-1.111424	-0.650105
O15	O	-0.541441	-1.403311	-0.805766
O16	O	-0.805765	-1.403117	-0.541504
O17	O	-0.822274	-1.256115	-0.671946
C18	C	-0.576580	-1.092193	-0.576607
C19	C	-0.576598	-0.976035	-0.576626
C20	C	-0.852561	-1.324109	-0.611633
C21	C	-0.970621	-1.307264	-0.626643
C22	C	-0.611683	-1.324107	-0.853642
C23	C	-0.626632	-1.307236	-0.971688
C24	C	-1.015059	-1.372537	-0.568844
C25	C	-1.137081	-1.355128	-0.584356
C26	C	-0.299570	-1.403464	-0.541513
C27	C	-0.181515	-1.420410	-0.526548
C28	C	-0.576627	-1.636261	-0.576653
C29	C	-0.576637	-1.752411	-0.576663
C30	C	-0.649418	-0.905785	-0.649274
C31	C	-0.649440	-0.785729	-0.649295
C32	C	-0.584209	-1.355066	-1.138147
C33	C	-0.568749	-1.372499	-1.016139
C34	C	-0.541582	-1.403204	-0.300686
C35	C	-0.526334	-1.420320	-0.182602
H36	H	-0.962771	-1.441312	-0.507878
O37	O	-0.664996	-1.263959	-1.207371
H38	H	-0.745688	-1.272917	-1.196705
O39	O	-0.494056	-0.832337	-0.494267
H40	H	-0.501578	-0.820762	-0.413163
O41	O	-0.487947	-1.463604	-0.946922
H42	H	-0.508840	-1.539991	-0.970467
O43	O	-0.707427	-1.216122	-1.040901
H44	H	-0.788116	-1.225084	-1.030230
O45	O	-0.731979	-0.943843	-0.731648
H46	H	-0.785320	-0.874120	-0.784874
H47	H	-0.514267	-0.947298	-0.514448
O48	O	-0.732107	-0.705847	-0.731650
H49	H	-0.724668	-0.717409	-0.812781
H50	H	-1.129229	-1.489190	-0.465579
O51	O	-1.206326	-1.264016	-0.665116
H52	H	-1.291299	-1.264632	-0.664617
O53	O	-1.039870	-1.216156	-0.707399
H54	H	-1.124842	-1.216772	-0.706901
H55	H	-0.465335	-1.489088	-1.130336
