data_functionalizedCrystal
_audit_creation_method	'MofGen! by Chris Wilmer'
_symmetry_space_group_name_H-M	'P1'
_symmetry_Int_Tables_number	1
_symmetry_cell_setting	triclinic
loop_
_symmetry_equiv_pos_as_xyz
  x,y,z
_cell_length_a	12.759401
_cell_length_b	12.759400
_cell_length_c	13.032268
_cell_angle_alpha	97.151488
_cell_angle_beta	97.165524
_cell_angle_gamma	90.012209
loop_
_atom_site_label
_atom_site_type_symbol
_atom_site_fract_x
_atom_site_fract_y
_atom_site_fract_z
Zn1	Zn	1.530787	-0.493687	-0.590803
Zn2	Zn	2.030787	0.006313	-0.090803
Zn3	Zn	1.553010	-0.647089	-0.416070
Zn4	Zn	2.053010	-0.147089	0.083930
Zn5	Zn	1.377411	-0.471424	-0.416085
Zn6	Zn	1.877411	0.028576	0.083915
Zn7	Zn	1.355087	-0.669317	-0.590768
Zn8	Zn	1.855087	-0.169317	-0.090768
O9	O	1.454074	-0.570379	-0.503431
O10	O	1.954074	-0.070379	-0.003431
O11	O	1.680755	-0.514051	-0.567632
O12	O	2.180755	-0.014051	-0.067632
O13	O	1.548359	-0.605167	-0.269840
O14	O	2.048359	-0.105167	0.230160
O15	O	1.397799	-0.327359	-0.439283
O16	O	1.897799	0.172641	0.060717
O17	O	1.697082	-0.626755	-0.439256
O18	O	2.197082	-0.126755	0.060744
O19	O	1.510484	-0.343715	-0.567647
O20	O	2.010484	0.156285	-0.067647
O21	O	1.419347	-0.476107	-0.269851
O22	O	1.919347	0.023893	0.230149
O23	O	1.227430	-0.497660	-0.439249
O24	O	1.727430	0.002340	0.060751
O25	O	1.359752	-0.664639	-0.737005
O26	O	1.859752	-0.164639	-0.237005
O27	O	1.211029	-0.643051	-0.567588
O28	O	1.711029	-0.143051	-0.067588
O29	O	1.488838	-0.535604	-0.737030
O30	O	1.988838	-0.035604	-0.237030
O31	O	1.526713	-0.797056	-0.439223
O32	O	2.026713	-0.297056	0.060777
O33	O	1.381300	-0.813387	-0.567573
O34	O	1.881300	-0.313387	-0.067573
C35	C	1.181108	-0.570353	-0.503417
C36	C	1.681108	-0.070353	-0.003417
C37	C	1.064329	-0.570370	-0.503435
C38	C	1.564329	-0.070370	-0.003435
C39	C	1.000946	-0.511825	-0.570384
C40	C	1.500946	-0.011825	-0.070384
C41	C	0.891221	-0.511846	-0.570391
C42	C	1.391221	-0.011846	-0.070391
C43	C	0.908273	-0.628965	-0.436497
C44	C	1.408273	-0.128965	0.063503
C45	C	1.017997	-0.628938	-0.436486
C46	C	1.517997	-0.128938	0.063514
C47	C	1.047279	-0.453257	-0.637334
C48	C	1.547279	0.046743	-0.137334
C49	C	0.983894	-0.394708	-0.704289
C50	C	1.483894	0.105292	-0.204289
C51	C	0.874169	-0.394729	-0.704296
C52	C	1.374169	0.105271	-0.204296
C53	C	0.827829	-0.453299	-0.637347
C54	C	1.327829	0.046701	-0.137347
C55	C	1.454021	-0.843344	-0.503415
C56	C	1.954021	-0.343344	-0.003415
C57	C	1.454090	-0.960125	-0.503443
C58	C	1.954090	-0.460125	-0.003443
C59	C	1.512724	-1.023431	-0.570337
C60	C	2.012724	-0.523431	-0.070337
C61	C	1.512770	-1.133158	-0.570362
C62	C	2.012770	-0.633158	-0.070362
C63	C	1.395545	-1.116262	-0.436591
C64	C	1.895545	-0.616262	0.063409
C65	C	1.395494	-1.006538	-0.436571
C66	C	1.895494	-0.506538	0.063429
C67	C	1.571320	-0.977018	-0.637209
C68	C	2.071320	-0.477018	-0.137209
C69	C	1.629961	-1.040324	-0.704107
C70	C	2.129961	-0.540324	-0.204107
C71	C	1.630006	-1.150052	-0.704133
C72	C	2.130006	-0.650052	-0.204133
C73	C	1.571412	-1.196472	-0.637259
C74	C	2.071412	-0.696472	-0.137259
C75	C	1.728105	-0.570407	-0.503447
C76	C	2.228105	-0.070407	-0.003447
C77	C	1.844881	-0.570418	-0.503453
C78	C	2.344881	-0.070418	-0.003453
C79	C	1.419326	-0.605084	-0.775994
C80	C	1.919326	-0.105084	-0.275994
C81	C	1.404518	-0.619873	-0.892144
C82	C	1.904518	-0.119873	-0.392144
C83	C	1.454153	-0.296351	-0.503471
C84	C	1.954153	0.203649	-0.003471
C85	C	1.454186	-0.179576	-0.503488
C86	C	1.954186	0.320424	-0.003488
C87	C	1.461786	-0.562623	-0.943940
C88	C	1.961786	-0.062623	-0.443940
C89	C	1.446483	-0.577907	-1.063987
C90	C	1.946483	-0.077907	-0.563987
C91	C	1.488747	-0.535733	-0.231929
C92	C	1.988747	-0.035733	0.268071
C93	C	1.503758	-0.520648	-0.115780
C94	C	2.003758	-0.020648	0.384220
H95	H	0.822565	-0.347047	-0.758806
H96	H	1.322565	0.152953	-0.258806
H97	H	0.738485	-0.453286	-0.637336
H98	H	1.238485	0.046714	-0.137336
F99	F	1.367579	-0.656762	-1.122181
F100	F	1.867579	-0.156762	-0.622181
F101	F	0.858950	-0.691297	-0.365253
F102	F	1.358950	-0.191297	0.134747
F103	F	1.582668	-0.441798	-1.057588
F104	F	2.082668	0.058202	-0.557588
H105	H	1.069605	-0.676610	-0.381970
H106	H	1.569605	-0.176610	0.118030
H107	H	1.344153	-0.680195	-0.936674
H108	H	1.844153	-0.180195	-0.436674
H109	H	1.347840	-1.154067	-0.382145
H110	H	1.847840	-0.654067	0.117855
H111	H	1.347747	-0.954993	-0.382101
H112	H	1.847747	-0.454993	0.117899
F113	F	1.540659	-0.483745	-0.885742
F114	F	2.040659	0.016255	-0.385742
H115	H	1.136621	-0.453233	-0.637336
H116	H	1.636621	0.046767	-0.137336
H117	H	1.677744	-1.201594	-0.758613
H118	H	2.177744	-0.701594	-0.258613
F119	F	1.033216	-0.332369	-0.775529
F120	F	1.533216	0.167631	-0.275529
F121	F	1.571602	-1.313240	-0.637167
F122	F	2.071602	-0.813240	-0.137167
F123	F	1.571254	-0.860240	-0.637207
F124	F	2.071254	-0.360240	-0.137207
H125	H	1.677660	-1.002524	-0.758560
H126	H	2.177660	-0.502524	-0.258560
