data_functionalizedCrystal
_audit_creation_method	'MofGen! by Chris Wilmer'
_symmetry_space_group_name_H-M	'P1'
_symmetry_Int_Tables_number	1
_symmetry_cell_setting	triclinic
loop_
_symmetry_equiv_pos_as_xyz
  x,y,z
_cell_length_a	12.594517
_cell_length_b	19.121063
_cell_length_c	12.594509
_cell_angle_alpha	92.405810
_cell_angle_beta	89.978673
_cell_angle_gamma	92.468805
loop_
_atom_site_label
_atom_site_type_symbol
_atom_site_fract_x
_atom_site_fract_y
_atom_site_fract_z
Zn1	Zn	1.609106	-0.279596	-0.619881
Zn2	Zn	1.601367	-0.397059	-0.449473
Zn3	Zn	1.431108	-0.279626	-0.441911
Zn4	Zn	1.423466	-0.397010	-0.627400
O5	O	1.516262	-0.338323	-0.534666
O6	O	1.757025	-0.295185	-0.597293
O7	O	1.578742	-0.381514	-0.299526
O8	O	1.461157	-0.181338	-0.459208
O9	O	1.751339	-0.381485	-0.472096
O10	O	1.591931	-0.181315	-0.589961
O11	O	1.453653	-0.295237	-0.293971
O12	O	1.281149	-0.295189	-0.466499
O13	O	1.448132	-0.381402	-0.775346
O14	O	1.275534	-0.381431	-0.602777
O15	O	1.584521	-0.295138	-0.769822
O16	O	1.571331	-0.495337	-0.479386
O17	O	1.440628	-0.495301	-0.610109
C18	C	1.239722	-0.338309	-0.534634
C19	C	1.121416	-0.338319	-0.534646
C20	C	1.055190	-0.291349	-0.460657
C21	C	0.980217	-0.355414	-0.438606
C22	C	0.985587	-0.274285	-0.556717
C23	C	1.047999	-0.402419	-0.512547
C24	C	1.053378	-0.321246	-0.630701
C25	C	0.978435	-0.385356	-0.608690
C26	C	1.504339	-0.520803	-0.546407
C27	C	1.499336	-0.598868	-0.551466
C28	C	1.565089	-0.635539	-0.485838
C29	C	1.560390	-0.708890	-0.490602
C30	C	1.489932	-0.745569	-0.560988
C31	C	1.424176	-0.708893	-0.626623
C32	C	1.428881	-0.635544	-0.621864
C33	C	1.472323	-0.967038	-0.578765
C34	C	1.467620	-1.040393	-0.583517
C35	C	1.603835	-1.040385	-0.447497
C36	C	1.608530	-0.967034	-0.442740
C37	C	1.542779	-0.930365	-0.508378
C38	C	1.485124	-0.820546	-0.565857
C39	C	1.547592	-0.855389	-0.503514
C40	C	1.793882	-0.338337	-0.534699
C41	C	1.912187	-0.338343	-0.534713
C42	C	1.516337	-0.338261	-0.812283
C43	C	1.516369	-0.338235	-0.930587
C44	C	1.528260	-0.155130	-0.522903
C45	C	1.533373	-0.077064	-0.517890
C46	C	1.442211	-0.385127	-1.002843
C47	C	1.538217	-0.402288	-1.074740
C48	C	1.420442	-0.321032	-1.069487
C49	C	1.612424	-0.355429	-1.000927
C50	C	1.494585	-0.274143	-0.995667
C51	C	1.590659	-0.291280	-1.067530
C52	C	1.516251	-0.338333	-0.258126
C53	C	1.516438	-0.338162	-0.139810
H54	H	0.957978	-0.220129	-0.575322
C55	C	1.676215	-0.854592	-0.375044
C56	C	1.685977	-0.926718	-0.365367
H57	H	1.724021	-0.829704	-0.327268
H58	H	1.692534	-0.842529	-0.445780
H59	H	1.605471	-0.842628	-0.358628
H60	H	1.756720	-0.938683	-0.381791
H61	H	1.669666	-0.938786	-0.294615
C62	C	1.555063	-0.174582	-0.886061
C63	C	1.469625	-0.201038	-0.948921
H64	H	1.539645	-0.129449	-0.857208
H65	H	1.566139	-0.205123	-0.829922
H66	H	1.617344	-0.171222	-0.928432
H67	H	1.407346	-0.204403	-0.906549
H68	H	1.458536	-0.170490	-1.005068
C69	C	1.713560	-0.552980	-0.465821
C70	C	1.642537	-0.595224	-0.408466
H71	H	1.761371	-0.528090	-0.418052
H72	H	1.752413	-0.581549	-0.514077
H73	H	1.675061	-0.520642	-0.504218
H74	H	1.681036	-0.627565	-0.370075
H75	H	1.603681	-0.566653	-0.360191
H76	H	1.427755	-0.850418	-0.623164
C77	C	1.745015	-0.441982	-1.001352
C78	C	1.722006	-0.375121	-0.960418
H79	H	1.812667	-0.454137	-0.976346
H80	H	1.692295	-0.475102	-0.978695
H81	H	1.745704	-0.442046	-1.076779
H82	H	1.721309	-0.375058	-0.884991
H83	H	1.774740	-0.341993	-0.983068
H84	H	1.375340	-0.605687	-0.675306
C85	C	1.380725	-0.505784	-1.004431
C86	C	1.357610	-0.438739	-0.964359
H87	H	1.328502	-0.538882	-0.980666
H88	H	1.380595	-0.506418	-1.079881
H89	H	1.448750	-0.517526	-0.979907
H90	H	1.289589	-0.426995	-0.988890
H91	H	1.357729	-0.438103	-0.888894
C92	C	1.334438	-0.884621	-0.588066
C93	C	1.400044	-0.926731	-0.650900
H94	H	1.289819	-0.859731	-0.632602
H95	H	1.291915	-0.913281	-0.543523
H96	H	1.377089	-0.852284	-0.545473
H97	H	1.357393	-0.959072	-0.693488
H98	H	1.442571	-0.898068	-0.695462
C99	C	1.775811	-0.255849	-1.071001
C100	C	1.675447	-0.237706	-1.105755
H101	H	1.828155	-0.222779	-1.094608
H102	H	1.776628	-0.255855	-0.995590
H103	H	1.790720	-0.301216	-1.099251
H104	H	1.660534	-0.192341	-1.077498
H105	H	1.674628	-0.237693	-1.181180
C106	C	1.563852	-0.474417	-1.232563
C107	C	1.563137	-0.475411	-1.121460
H108	H	1.579235	-0.519561	-1.261402
H109	H	1.496196	-0.461899	-1.257018
H110	H	1.616623	-0.441124	-1.254617
H111	H	1.510360	-0.508700	-1.099405
H112	H	1.630802	-0.487937	-1.096995
H113	H	1.366812	-0.738763	-0.683937
C114	C	1.268038	-0.356142	-1.176450
C115	C	1.310891	-0.301425	-1.110193
H116	H	1.200402	-0.344042	-1.201572
H117	H	1.314122	-0.363898	-1.235087
H118	H	1.260510	-0.397592	-1.137617
H119	H	1.318426	-0.259976	-1.149028
H120	H	1.264795	-0.293661	-1.051547
C121	C	1.063565	-0.255843	-0.275606
C122	C	1.100557	-0.237778	-0.376099
H123	H	1.091579	-0.222775	-0.223405
H124	H	0.988160	-0.255779	-0.274627
H125	H	1.085886	-0.301225	-0.260629
H126	H	1.078230	-0.192398	-0.391080
H127	H	1.175979	-0.237835	-0.377081
H128	H	1.613932	-0.738745	-0.437161
C129	C	0.964868	-0.506043	-0.669863
C130	C	0.933318	-0.439051	-0.693198
H131	H	0.937006	-0.539192	-0.722028
H132	H	1.040243	-0.506589	-0.669904
H133	H	0.938734	-0.517784	-0.601834
H134	H	0.959459	-0.427307	-0.761224
H135	H	0.857927	-0.438503	-0.693167
H136	H	0.948119	-0.369870	-0.357403
H137	H	1.075422	-0.456598	-0.493817
C138	C	1.741742	-1.122790	-0.438201
C139	C	1.676126	-1.080690	-0.375364
H140	H	1.786382	-1.147667	-0.393668
H141	H	1.699106	-1.155132	-0.480783
H142	H	1.784253	-1.094120	-0.482756
H143	H	1.633609	-1.109361	-0.330814
H144	H	1.718766	-1.048344	-0.332764
C145	C	1.065475	-0.234582	-0.763203
C146	C	1.096757	-0.301707	-0.740284
H147	H	1.092265	-0.222513	-0.830852
H148	H	0.990104	-0.234029	-0.763844
H149	H	1.092860	-0.201678	-0.710463
H150	H	1.069365	-0.334612	-0.793021
H151	H	1.172144	-0.302265	-0.739652
H152	H	1.410257	-1.070255	-0.640852
H153	H	1.604963	-0.825523	-0.446209
