data_functionalizedCrystal
_audit_creation_method	'MofGen! by Chris Wilmer'
_symmetry_space_group_name_H-M	'P1'
_symmetry_Int_Tables_number	1
_symmetry_cell_setting	triclinic
loop_
_symmetry_equiv_pos_as_xyz
  x,y,z
_cell_length_a	11.792254
_cell_length_b	10.868271
_cell_length_c	11.792241
_cell_angle_alpha	90.001559
_cell_angle_beta	84.196007
_cell_angle_gamma	90.004308
loop_
_atom_site_label
_atom_site_type_symbol
_atom_site_fract_x
_atom_site_fract_y
_atom_site_fract_z
O1	O	1.506901	0.102322	0.155631
O2	O	1.176561	0.102324	0.171649
O3	O	1.349747	0.102314	-0.001530
O4	O	1.333715	0.102332	0.328810
O5	O	1.349732	-0.102330	-0.001525
O6	O	1.176546	-0.102320	0.171654
O7	O	1.506885	-0.102323	0.155636
Zn8	Zn	1.341713	-0.134813	0.163646
Zn9	Zn	1.341733	0.134815	0.163639
O10	O	1.333699	-0.102313	0.328815
C11	C	1.134263	0.000002	0.170642
C12	C	1.008250	0.000003	0.167622
N13	N	1.341707	-0.318827	0.163651
C14	C	1.341716	-0.430165	0.163651
C15	C	1.341730	-0.569843	0.163640
C16	C	0.905913	0.000008	0.165168
C17	C	0.777527	0.000009	0.162100
C18	C	1.549183	0.000002	0.156643
C19	C	1.675196	0.000009	0.159663
C20	C	1.348732	-0.000008	-0.043819
C21	C	1.345718	-0.000006	-0.169832
N22	N	1.341748	0.318829	0.163626
C23	C	1.340175	0.000014	-0.400545
C24	C	1.343255	0.000003	-0.272160
C25	C	1.334714	0.000012	0.371104
C26	C	1.337728	0.000019	0.497118
