data_functionalizedCrystal
_audit_creation_method	'MofGen! by Chris Wilmer'
_symmetry_space_group_name_H-M	'P1'
_symmetry_Int_Tables_number	1
_symmetry_cell_setting	triclinic
loop_
_symmetry_equiv_pos_as_xyz
  x,y,z
_cell_length_a	6.817900
_cell_length_b	10.992410
_cell_length_c	11.102289
_cell_angle_alpha	91.891801
_cell_angle_beta	108.605707
_cell_angle_gamma	108.764651
loop_
_atom_site_label
_atom_site_type_symbol
_atom_site_fract_x
_atom_site_fract_y
_atom_site_fract_z
V1	V	-4.113419	-0.400593	-0.175839
O2	O	-4.072416	-0.392967	0.008450
O3	O	-4.090183	-0.397853	-0.348659
O4	O	-4.091024	-0.575305	-0.173134
O5	O	-4.071569	-0.214287	-0.168290
V6	V	-4.590417	-0.378309	-0.153796
O7	O	-4.388992	-0.449474	-0.224192
O8	O	-4.765042	-0.329428	-0.105443
O9	O	-4.390446	-0.381049	0.019024
O10	O	-4.748817	-0.385935	-0.338085
O11	O	-4.749664	-0.564615	-0.161345
O12	O	-4.389605	-0.203597	-0.156501
C13	C	-3.940464	-0.391533	-0.390789
C14	C	-4.002926	-0.390458	-0.532072
C15	C	-3.941535	-0.617890	-0.166888
C16	C	-4.004675	-0.760718	-0.165820
C17	C	-4.216309	-0.396362	-0.604920
C18	C	-4.274992	-0.395362	-0.737672
C19	C	-3.906887	-0.382549	-0.724714
C20	C	-3.848211	-0.383558	-0.591966
C21	C	-4.428829	-0.403753	-0.612402
C22	C	-4.487513	-0.402754	-0.745153
C23	C	-3.871844	-0.955842	-0.156090
C24	C	-3.806286	-0.807358	-0.157727
C25	C	-4.202100	-0.837822	-0.291131
C26	C	-4.266419	-0.986389	-0.290023
C27	C	-4.145329	-0.948357	-0.047376
C28	C	-4.074622	-0.799344	-0.046782
C29	C	-4.203508	-0.387365	0.061147
C30	C	-4.120285	-0.388449	0.202429
C31	C	-4.202436	-0.161005	-0.162751
C32	C	-4.118534	-0.018176	-0.163813
H33	H	-3.674468	-0.378765	-0.532660
H34	H	-4.538406	-0.314989	-0.770122
F35	F	-4.504228	-1.042112	-0.304242
H36	H	-4.042863	-0.968716	0.047783
F37	F	-4.398595	-0.800181	-0.304789
F38	F	-4.379241	-1.001742	-0.053323
H39	H	-3.748706	-0.782544	-0.242550
H40	H	-3.658255	-0.754018	-0.067623
F41	F	-3.887948	-0.730918	0.074386
F42	F	-3.719174	-0.980281	-0.037408
H43	H	-4.216742	-0.766832	-0.045310
F44	F	-4.660186	-0.527222	-0.820798
F45	F	-3.838727	-1.018564	-0.265442
H46	H	-3.780932	-0.376932	-0.773496
F47	F	-4.575607	-0.525888	-0.587272
F48	F	-4.141750	-0.804355	-0.406653
H49	H	-4.428470	-0.313164	-0.559175
F50	F	-4.245537	-1.046871	-0.405259
