data_functionalizedCrystal
_audit_creation_method	'MofGen! by Chris Wilmer'
_symmetry_space_group_name_H-M	'P1'
_symmetry_Int_Tables_number	1
_symmetry_cell_setting	triclinic
loop_
_symmetry_equiv_pos_as_xyz
  x,y,z
_cell_length_a	13.032831
_cell_length_b	16.959454
_cell_length_c	13.032268
_cell_angle_alpha	97.150351
_cell_angle_beta	90.886977
_cell_angle_gamma	82.825094
loop_
_atom_site_label
_atom_site_type_symbol
_atom_site_fract_x
_atom_site_fract_y
_atom_site_fract_z
Zn1	Zn	1.498450	-0.533808	-0.780847
Zn2	Zn	1.520186	-0.651576	-0.608869
Zn3	Zn	1.348310	-0.500789	-0.587087
Zn4	Zn	1.326434	-0.647302	-0.758994
O5	O	1.423345	-0.583369	-0.683949
O6	O	1.645253	-0.565038	-0.776295
O7	O	1.515638	-0.619543	-0.462063
O8	O	1.368285	-0.394566	-0.612819
O9	O	1.661222	-0.651561	-0.649944
O10	O	1.478592	-0.418826	-0.755173
O11	O	1.389361	-0.508760	-0.446059
O12	O	1.201488	-0.504616	-0.591629
O13	O	1.331000	-0.644277	-0.905810
O14	O	1.185416	-0.612259	-0.717929
O15	O	1.457380	-0.560894	-0.921865
O16	O	1.494425	-0.761611	-0.628754
O17	O	1.352077	-0.758471	-0.739051
C18	C	1.156135	-0.554392	-0.650045
C19	C	1.041819	-0.542016	-0.635565
C20	C	0.982940	-0.589828	-0.691506
C21	C	0.864788	-0.577038	-0.676542
C22	C	1.423261	-0.788724	-0.683921
C23	C	1.423315	-0.876589	-0.683955
C24	C	1.349320	-1.246472	-0.741386
C25	C	1.497643	-1.249702	-0.626654
C26	C	1.497608	-1.167152	-0.626640
C27	C	1.423427	-1.124257	-0.683998
C28	C	1.349281	-1.163913	-0.741371
C29	C	1.571746	-1.127488	-0.569260
C30	C	1.571713	-1.044932	-0.569243
C31	C	1.497536	-1.002037	-0.626608
C32	C	1.423388	-1.041698	-0.683984
C33	C	1.349208	-0.998804	-0.741342
C34	C	1.275063	-1.038465	-0.798724
C35	C	1.275104	-1.121018	-0.798736
C36	C	1.497495	-0.919484	-0.626597
C37	C	1.349169	-0.916245	-0.741327
C38	C	1.691598	-0.612460	-0.717986
C39	C	1.805911	-0.624856	-0.732491
C40	C	1.389325	-0.605792	-0.952197
C41	C	1.374828	-0.615348	-1.066508
C42	C	1.423454	-0.377216	-0.684004
C43	C	1.423501	-0.289366	-0.684027
C44	C	1.430895	-0.578351	-1.125415
C45	C	1.415913	-0.588227	-1.243562
C46	C	1.457291	-0.560982	-0.416753
C47	C	1.471987	-0.551225	-0.302467
H48	H	1.288765	-0.881326	-0.788040
C49	C	1.033006	-0.657921	-0.771175
N50	N	1.070714	-0.709213	-0.831181
C51	C	1.294991	-0.668012	-1.116535
N52	N	1.234856	-0.707681	-1.154213
H53	H	0.827729	-0.526630	-0.617570
C54	C	1.653268	-1.001312	-0.506115
N55	N	1.714694	-0.968456	-0.458565
C56	C	0.991753	-0.473924	-0.555895
N57	N	0.954045	-0.422635	-0.495885
H58	H	1.557858	-0.887195	-0.579871
H59	H	1.214661	-1.003530	-0.845421
H60	H	0.842968	-0.675257	-0.791474
H61	H	1.214739	-1.153317	-0.845452
C62	C	1.267761	-1.290098	-0.804498
N63	N	1.206329	-1.322958	-0.852032
H64	H	1.558032	-1.284630	-0.579948
C65	C	1.653326	-1.174673	-0.506153
N66	N	1.714772	-1.210217	-0.458616
H67	H	1.489984	-0.539364	-1.088380
C68	C	1.336072	-0.640894	-1.293584
N69	N	1.275936	-0.680562	-1.331263
H70	H	1.531079	-0.512233	-1.265438
