data_functionalizedCrystal
_audit_creation_method	'MofGen! by Chris Wilmer'
_symmetry_space_group_name_H-M	'P1'
_symmetry_Int_Tables_number	1
_symmetry_cell_setting	triclinic
loop_
_symmetry_equiv_pos_as_xyz
  x,y,z
_cell_length_a	11.792254
_cell_length_b	23.532407
_cell_length_c	10.868271
_cell_angle_alpha	90.006064
_cell_angle_beta	90.004308
_cell_angle_gamma	83.523637
loop_
_atom_site_label
_atom_site_type_symbol
_atom_site_fract_x
_atom_site_fract_y
_atom_site_fract_z
O1	O	1.505062	0.078086	0.102335
O2	O	1.838396	0.411419	0.435668
O3	O	2.171729	0.744753	0.769002
O4	O	1.174534	0.086123	0.102339
O5	O	1.507867	0.419456	0.435672
O6	O	1.841201	0.752790	0.769006
O7	O	1.349765	-0.000768	0.102314
O8	O	1.683099	0.332565	0.435648
O9	O	2.016432	0.665899	0.768981
O10	O	1.329831	0.164977	0.102360
O11	O	1.663165	0.498310	0.435693
O12	O	1.996498	0.831644	0.769026
O13	O	1.349750	-0.000765	-0.102330
O14	O	1.683083	0.332568	0.231003
O15	O	2.016416	0.665902	0.564336
O16	O	1.174518	0.086126	-0.102306
O17	O	1.507852	0.419459	0.231028
O18	O	1.841185	0.752792	0.564361
O19	O	1.505047	0.078089	-0.102310
O20	O	1.838380	0.411422	0.231024
O21	O	2.171713	0.744756	0.564357
Zn22	Zn	1.339780	0.082108	-0.134799
Zn23	Zn	1.673113	0.415441	0.198534
Zn24	Zn	2.006447	0.748774	0.531867
Zn25	Zn	1.339801	0.082104	0.134829
Zn26	Zn	1.673134	0.415437	0.468162
Zn27	Zn	2.006468	0.748771	0.801495
O28	O	1.329815	0.164980	-0.102285
O29	O	1.663149	0.498313	0.231048
O30	O	1.996482	0.831646	0.564382
C31	C	1.132247	0.085618	0.000017
C32	C	1.465581	0.418951	0.333350
C33	C	1.798914	0.752285	0.666684
C34	C	1.006270	0.084103	0.000017
C35	C	1.339603	0.417436	0.333351
C36	C	1.672937	0.750769	0.666684
C37	C	0.903963	0.082872	0.000022
C38	C	1.237296	0.416205	0.333356
C39	C	1.570629	0.749538	0.666689
C40	C	0.775612	0.081332	0.000023
C41	C	1.108945	0.414665	0.333356
C42	C	1.442279	0.747999	0.666689
C43	C	1.349250	-0.021986	-0.000011
C44	C	1.682583	0.311348	0.333322
C45	C	2.015917	0.644681	0.666655
C46	C	1.347724	-0.085212	-0.000021
C47	C	1.681057	0.248122	0.333313
C48	C	2.014390	0.581455	0.666646
C49	C	1.441849	-0.483755	0.000046
C50	C	1.775183	-0.150421	0.333379
C51	C	2.108516	0.182912	0.666712
C52	C	1.440432	-0.543163	0.000055
C53	C	1.773765	-0.209830	0.333388
C54	C	2.107098	0.123503	0.666722
O55	O	1.527687	-0.579389	0.000099
O56	O	1.861020	-0.246056	0.333433
O57	O	2.194354	0.087278	0.666766
N58	N	1.336257	-0.566409	0.000055
N59	N	1.669590	-0.233076	0.333389
N60	N	2.002923	0.100257	0.666722
C61	C	1.233493	-0.530243	0.000059
C62	C	1.566826	-0.196910	0.333392
C63	C	1.900159	0.136424	0.666726
O64	O	1.144754	-0.555471	0.000061
O65	O	1.478087	-0.222137	0.333395
O66	O	1.811420	0.111196	0.666728
C67	C	1.234912	-0.470836	0.000058
C68	C	1.568245	-0.137502	0.333392
C69	C	1.901578	0.195831	0.666725
C70	C	1.339093	-0.447593	0.000046
C71	C	1.672427	-0.114260	0.333379
C72	C	2.005760	0.219073	0.666712
C73	C	1.546023	-0.460512	0.000034
C74	C	1.879356	-0.127178	0.333367
C75	C	2.212689	0.206155	0.666701
C76	C	1.547440	-0.401107	0.000022
C77	C	1.880773	-0.067774	0.333356
C78	C	2.214106	0.265560	0.666689
C79	C	1.444684	-0.364946	0.000022
C80	C	1.778017	-0.031612	0.333356
C81	C	2.111351	0.301721	0.666689
C82	C	1.340511	-0.388189	0.000034
C83	C	1.673844	-0.054855	0.333367
C84	C	2.007177	0.278478	0.666701
C85	C	1.132149	-0.434671	0.000071
C86	C	1.465482	-0.101337	0.333404
C87	C	1.798816	0.231996	0.666737
C88	C	1.133577	-0.375260	0.000071
C89	C	1.466910	-0.041926	0.333404
C90	C	1.800244	0.291407	0.666738
C91	C	1.237759	-0.352017	0.000058
C92	C	1.571092	-0.018684	0.333392
C93	C	1.904425	0.314650	0.666725
C94	C	1.239172	-0.292622	0.000022
C95	C	1.572505	0.040711	0.333355
C96	C	1.905839	0.374044	0.666689
N97	N	1.343347	-0.269376	0.000022
N98	N	1.676680	0.063957	0.333355
N99	N	2.010014	0.397290	0.666688
C100	C	1.446103	-0.305538	0.000022
C101	C	1.779436	0.027795	0.333355
C102	C	2.112770	0.361129	0.666688
C103	C	1.230521	-0.655003	0.000062
C104	C	1.563854	-0.321670	0.333396
C105	C	1.897187	0.011663	0.666729
C106	C	1.229101	-0.714410	0.000054
C107	C	1.562434	-0.381076	0.333387
C108	C	1.895767	-0.047743	0.666721
C109	C	1.436040	-0.727326	0.000052
C110	C	1.769373	-0.393993	0.333386
C111	C	2.102707	-0.060659	0.666719
C112	C	1.437459	-0.667918	0.000052
C113	C	1.770792	-0.334585	0.333385
C114	C	2.104126	-0.001252	0.666718
C115	C	1.334696	-0.631757	0.000062
C116	C	1.668029	-0.298424	0.333395
C117	C	2.001362	0.034909	0.666729
C118	C	1.449071	-0.180784	-0.000004
C119	C	1.782405	0.152550	0.333330
C120	C	2.115738	0.485883	0.666663
C121	C	1.450480	-0.121373	-0.000020
C122	C	1.783813	0.211960	0.333313
C123	C	2.117146	0.545293	0.666646
C124	C	1.243541	-0.108462	-0.000012
C125	C	1.576874	0.224871	0.333321
C126	C	1.910208	0.558204	0.666654
C127	C	1.242132	-0.167867	-0.000002
C128	C	1.575465	0.165466	0.333331
C129	C	1.908799	0.498799	0.666665
C130	C	1.344907	-0.204027	0.000006
C131	C	1.678240	0.129306	0.333340
C132	C	2.011573	0.462639	0.666673
O133	O	1.151962	-0.256362	-0.000017
O134	O	1.485296	0.076971	0.333316
O135	O	1.818629	0.410305	0.666649
O136	O	1.534827	-0.280302	0.000036
O137	O	1.868161	0.053031	0.333369
O138	O	2.201494	0.386364	0.666702
C139	C	1.547333	0.078594	0.000015
C140	C	1.880667	0.411927	0.333348
C141	C	2.214000	0.745260	0.666682
C142	C	1.673311	0.080109	0.000023
C143	C	2.006644	0.413442	0.333356
C144	C	2.339977	0.746776	0.666689
C145	C	1.330331	0.186197	0.000043
C146	C	1.663664	0.519531	0.333376
C147	C	1.996998	0.852864	0.666710
C148	C	1.331857	0.249423	0.000061
C149	C	1.665190	0.582757	0.333394
C150	C	1.998524	0.916090	0.666727
N151	N	1.339774	0.082110	-0.318814
N152	N	1.673107	0.415443	0.014520
N153	N	2.006441	0.748777	0.347853
C154	C	1.339783	0.082110	-0.430151
C155	C	1.673116	0.415443	-0.096818
C156	C	2.006450	0.748777	0.236515
C157	C	1.339798	0.082105	-0.569829
C158	C	1.673131	0.415438	-0.236495
C159	C	2.006464	0.748772	0.096838
N160	N	1.339816	0.082097	0.318843
N161	N	1.673149	0.415431	0.652176
N162	N	2.006482	0.748764	0.985509
H163	H	1.535320	-0.102453	-0.000034
H164	H	1.868654	0.230880	0.333299
H165	H	2.201987	0.564214	0.666633
H166	H	1.159880	-0.079009	-0.000017
H167	H	1.493213	0.254324	0.333317
H168	H	1.826547	0.587658	0.666650
H169	H	1.522293	-0.648999	0.000042
H170	H	1.855626	-0.315666	0.333376
H171	H	2.188959	0.017668	0.666709
H172	H	1.157299	-0.186792	-0.000026
H173	H	1.490632	0.146541	0.333308
H174	H	1.823966	0.479875	0.666641
Cl175	Cl	1.101319	-0.609549	0.000061
Cl176	Cl	1.434652	-0.276216	0.333394
Cl177	Cl	1.767986	0.057118	0.666728
Cl178	Cl	1.004380	-0.329803	0.000085
Cl179	Cl	1.337714	0.003530	0.333419
Cl180	Cl	1.671047	0.336863	0.666752
Cl181	Cl	1.678418	-0.371897	0.000041
Cl182	Cl	2.011752	-0.038564	0.333375
Cl183	Cl	2.345085	0.294769	0.666708
Cl184	Cl	1.578276	-0.226233	0.000005
Cl185	Cl	1.911609	0.107101	0.333338
Cl186	Cl	2.244942	0.440434	0.666672
Cl187	Cl	1.675220	-0.505962	0.000032
Cl188	Cl	2.008553	-0.172629	0.333365
Cl189	Cl	2.341887	0.160704	0.666699
H190	H	1.519709	-0.756780	0.000057
H191	H	1.853043	-0.423447	0.333391
H192	H	2.186376	-0.090113	0.666724
Cl193	Cl	1.001169	-0.463874	0.000095
Cl194	Cl	1.334503	-0.130541	0.333428
Cl195	Cl	1.667836	0.202792	0.666762
Cl196	Cl	1.098124	-0.743621	0.000047
Cl197	Cl	1.431457	-0.410288	0.333380
Cl198	Cl	1.764791	-0.076954	0.666713
