data_functionalizedCrystal
_audit_creation_method	'MofGen! by Chris Wilmer'
_symmetry_space_group_name_H-M	'P1'
_symmetry_Int_Tables_number	1
_symmetry_cell_setting	triclinic
loop_
_symmetry_equiv_pos_as_xyz
  x,y,z
_cell_length_a	18.215407
_cell_length_b	17.640280
_cell_length_c	18.215399
_cell_angle_alpha	78.775397
_cell_angle_beta	89.980167
_cell_angle_gamma	78.800709
loop_
_atom_site_label
_atom_site_type_symbol
_atom_site_fract_x
_atom_site_fract_y
_atom_site_fract_z
Zn1	Zn	1.184366	-0.314661	-0.356963
Zn2	Zn	1.684366	0.185339	0.143037
Zn3	Zn	1.209181	-0.446838	-0.209048
Zn4	Zn	1.709181	0.053162	0.290952
Zn5	Zn	1.061303	-0.314687	-0.233905
Zn6	Zn	1.561303	0.185313	0.266095
Zn7	Zn	1.086163	-0.446794	-0.332082
Zn8	Zn	1.586163	0.053206	0.167918
O9	O	1.135253	-0.380745	-0.282999
O10	O	1.635253	0.119255	0.217001
O11	O	1.290643	-0.332202	-0.337352
O12	O	1.790643	0.167798	0.162648
O13	O	1.189546	-0.429337	-0.109356
O14	O	1.689546	0.070663	0.390644
O15	O	1.056838	-0.204079	-0.271045
O16	O	1.556838	0.295921	0.228955
O17	O	1.308875	-0.429312	-0.228680
O18	O	1.808875	0.070688	0.271320
O19	O	1.147252	-0.204060	-0.361454
O20	O	1.647252	0.295940	0.138546
O21	O	1.080901	-0.332246	-0.127618
O22	O	1.580901	0.167754	0.372382
O23	O	0.961615	-0.332203	-0.246918
O24	O	1.461615	0.167797	0.253082
O25	O	1.099208	-0.429237	-0.438372
O26	O	1.599208	0.070763	0.061628
O27	O	0.979879	-0.429262	-0.319048
O28	O	1.479879	0.070738	0.180952
O29	O	1.171357	-0.332159	-0.456652
O30	O	1.671357	0.167841	0.043348
O31	O	1.213652	-0.557436	-0.204553
O32	O	1.713652	-0.057436	0.295447
O33	O	1.123271	-0.557404	-0.294945
O34	O	1.623271	-0.057404	0.205055
C35	C	0.944044	-0.380731	-0.282981
C36	C	1.444044	0.119269	0.217019
C37	C	0.862248	-0.380745	-0.282987
C38	C	1.362248	0.119255	0.217013
C39	C	0.683598	-0.431363	-0.320471
C40	C	1.183598	0.068637	0.179529
C41	C	0.606740	-0.431365	-0.320479
C42	C	1.106740	0.068635	0.179521
C43	C	0.587662	-0.330142	-0.245542
C44	C	1.087662	0.169858	0.254458
C45	C	0.664519	-0.330136	-0.245538
C46	C	1.164519	0.169864	0.254462
C47	C	0.712485	-0.380751	-0.283000
C48	C	1.212485	0.119249	0.217000
C49	C	0.558771	-0.380759	-0.283013
C50	C	1.058771	0.119241	0.216987
C51	C	0.475438	-0.380761	-0.283022
C52	C	0.975438	0.119239	0.216978
C53	C	0.795824	-0.380748	-0.282993
C54	C	1.295824	0.119252	0.217007
C55	C	1.173871	-0.586099	-0.244368
C56	C	1.673871	-0.086099	0.255632
C57	C	1.190460	-0.673950	-0.227866
C58	C	1.690460	-0.173950	0.272134
C59	C	1.009534	-0.962935	-0.408631
C60	C	1.509534	-0.462935	0.091369
C61	C	1.025123	-1.045484	-0.393101
C62	C	1.525123	-0.545484	0.106899
C63	C	1.119295	-1.045452	-0.299071
C64	C	1.619295	-0.545452	0.200929
C65	C	1.103717	-0.962901	-0.314596
C66	C	1.603717	-0.462901	0.185404
C67	C	1.048835	-0.921649	-0.369375
C68	C	1.548835	-0.421649	0.130625
C69	C	1.143018	-0.921615	-0.275340
C70	C	1.643018	-0.421615	0.224660
C71	C	1.127438	-0.839071	-0.290861
C72	C	1.627438	-0.339071	0.209139
C73	C	1.072557	-0.797813	-0.345636
C74	C	1.572557	-0.297813	0.154364
C75	C	1.033255	-0.839105	-0.384896
C76	C	1.533255	-0.339105	0.115104
C77	C	1.197896	-0.962869	-0.220557
C78	C	1.697896	-0.462869	0.279443
C79	C	1.237196	-0.921583	-0.181301
C80	C	1.737196	-0.421583	0.318699
C81	C	1.221620	-0.839038	-0.196825
C82	C	1.721620	-0.339038	0.303175
C83	C	1.166739	-0.797780	-0.251601
C84	C	1.666739	-0.297780	0.248399
C85	C	1.260922	-0.797746	-0.157566
C86	C	1.760922	-0.297746	0.342434
C87	C	1.245342	-0.715202	-0.173086
C88	C	1.745342	-0.215202	0.326914
C89	C	1.151159	-0.715236	-0.267122
C90	C	1.651159	-0.215236	0.232878
C91	C	1.327209	-0.380759	-0.283018
C92	C	1.827209	0.119241	0.216982
C93	C	1.409009	-0.380765	-0.283027
C94	C	1.909009	0.119235	0.216973
C95	C	1.135288	-0.380690	-0.474963
C96	C	1.635288	0.119310	0.025037
C97	C	1.135302	-0.380667	-0.556766
C98	C	1.635302	0.119333	-0.056766
C99	C	1.096504	-0.174589	-0.321798
C100	C	1.596504	0.325411	0.178202
C101	C	1.079991	-0.086738	-0.338331
C102	C	1.579991	0.413262	0.161669
C103	C	1.172878	-0.330072	-0.754489
C104	C	1.672878	0.169928	-0.254489
C105	C	1.172883	-0.330049	-0.831352
C106	C	1.672883	0.169951	-0.331352
C107	C	1.097755	-0.431141	-0.812304
C108	C	1.597755	0.068859	-0.312304
C109	C	1.097747	-0.431159	-0.735444
C110	C	1.597747	0.068841	-0.235444
C111	C	1.135313	-0.380626	-0.706537
C112	C	1.635313	0.119374	-0.206537
C113	C	1.135326	-0.380584	-0.860261
C114	C	1.635326	0.119416	-0.360261
C115	C	1.135330	-0.380560	-0.943600
C116	C	1.635330	0.119440	-0.443600
C117	C	1.135307	-0.380649	-0.623194
C118	C	1.635307	0.119351	-0.123194
C119	C	1.135250	-0.380742	-0.091794
C120	C	1.635250	0.119258	0.408206
C121	C	1.135336	-0.380543	-0.010033
C122	C	1.635336	0.119457	0.489967
H123	H	1.106474	-0.681646	-0.311735
H124	H	1.606474	-0.181646	0.188265
C125	C	1.056433	-0.486723	-0.844109
C126	C	1.556433	0.013277	-0.344109
N127	N	1.025308	-0.528588	-0.868064
N128	N	1.525308	-0.028588	-0.368064
H129	H	1.067151	-0.472326	-0.696400
H130	H	1.567151	0.027674	-0.196400
C131	C	1.214194	-0.274477	-0.722696
C132	C	1.714194	0.225523	-0.222696
N133	N	1.245312	-0.232598	-0.698753
N134	N	1.745312	0.267402	-0.198753
H135	H	0.688037	-0.288916	-0.215026
H136	H	1.188037	0.211084	0.284974
C137	C	0.736358	-0.487035	-0.361687
C138	C	1.236358	0.012965	0.138313
N139	N	0.776095	-0.528966	-0.392736
N140	N	1.276095	-0.028966	0.107264
C141	C	0.574970	-0.487050	-0.361692
C142	C	1.074970	0.012950	0.138308
N143	N	0.551042	-0.528996	-0.392732
N144	N	1.051042	-0.028996	0.107268
C145	C	0.981888	-1.090896	-0.436294
C146	C	1.481888	-0.590896	0.063706
N147	N	0.949325	-1.125099	-0.468826
N148	N	1.449325	-0.625099	0.031174
H149	H	0.548599	-0.288934	-0.215039
H150	H	1.048599	0.211066	0.284961
H151	H	1.281879	-0.955182	-0.136698
H152	H	1.781879	-0.455182	0.363302
C153	C	1.055419	-0.707011	-0.362710
C154	C	1.555419	-0.207011	0.137290
N155	N	1.042511	-0.638620	-0.375570
N156	N	1.542511	-0.138620	0.124430
H157	H	1.277344	-0.681587	-0.141120
H158	H	1.777344	-0.181587	0.358880
H159	H	1.203471	-0.288881	-0.870391
H160	H	1.703471	0.211119	-0.370391
C161	C	0.972872	-0.793722	-0.445147
C162	C	1.472872	-0.293722	0.054853
N163	N	0.927388	-0.759540	-0.490520
N164	N	1.427388	-0.259540	0.009480
H165	H	0.964849	-0.929345	-0.453244
H166	H	1.464849	-0.429345	0.046756
C167	C	1.321282	-0.843135	-0.097302
C168	C	1.821282	-0.343135	0.402698
N169	N	1.366745	-0.877322	-0.051910
N170	N	1.866745	-0.377322	0.448090
C171	C	1.215035	-1.053671	-0.203488
C172	C	1.715035	-0.553671	0.296512
N173	N	1.227946	-1.122063	-0.190634
N174	N	1.727946	-0.622063	0.309366
H175	H	1.163978	-1.079051	-0.254467
H176	H	1.663978	-0.579051	0.245533
