data_functionalizedCrystal
_audit_creation_method	'MofGen! by Chris Wilmer'
_symmetry_space_group_name_H-M	'P1'
_symmetry_Int_Tables_number	1
_symmetry_cell_setting	triclinic
loop_
_symmetry_equiv_pos_as_xyz
  x,y,z
_cell_length_a	13.897449
_cell_length_b	12.645330
_cell_length_c	13.897441
_cell_angle_alpha	89.973671
_cell_angle_beta	89.978743
_cell_angle_gamma	90.018519
loop_
_atom_site_label
_atom_site_type_symbol
_atom_site_fract_x
_atom_site_fract_y
_atom_site_fract_z
Zn1	Zn	1.474682	-0.421992	-0.545472
Zn2	Zn	1.974682	0.078008	-0.045472
Zn3	Zn	1.474582	-0.599285	-0.384182
Zn4	Zn	1.974582	-0.099285	0.115818
Zn5	Zn	1.313377	-0.422038	-0.384183
Zn6	Zn	1.813377	0.077962	0.115817
Zn7	Zn	1.313353	-0.599217	-0.545428
Zn8	Zn	1.813353	-0.099217	-0.045428
O9	O	1.393999	-0.510633	-0.464816
O10	O	1.893999	-0.010633	0.035184
O11	O	1.609651	-0.445520	-0.524095
O12	O	2.109651	0.054480	-0.024095
O13	O	1.453166	-0.575820	-0.249201
O14	O	1.953166	-0.075820	0.250799
O15	O	1.334827	-0.273685	-0.405597
O16	O	1.834827	0.226315	0.094403
O17	O	1.609577	-0.575776	-0.405596
O18	O	2.109577	-0.075776	0.094404
O19	O	1.453337	-0.273651	-0.524095
O20	O	1.953337	0.226349	-0.024095
O21	O	1.334730	-0.445598	-0.249201
O22	O	1.834730	0.054402	0.250799
O23	O	1.178393	-0.445532	-0.405554
O24	O	1.678393	0.054468	0.094446
O25	O	1.334785	-0.575660	-0.680415
O26	O	1.834785	-0.075660	-0.180415
O27	O	1.178375	-0.575704	-0.524020
O28	O	1.678375	-0.075704	-0.024020
O29	O	1.453313	-0.445454	-0.680448
O30	O	1.953313	0.054546	-0.180448
O31	O	1.453143	-0.747623	-0.405553
O32	O	1.953143	-0.247623	0.094447
O33	O	1.334689	-0.747573	-0.524019
O34	O	1.834689	-0.247573	-0.024019
C35	C	1.143384	-0.510617	-0.464782
C36	C	1.643384	-0.010617	0.035218
C37	C	1.036171	-0.510635	-0.464791
C38	C	1.536171	-0.010635	0.035209
C39	C	0.949101	-0.510639	-0.464807
C40	C	1.449101	-0.010639	0.035193
C41	C	0.839868	-0.510646	-0.464836
C42	C	1.339868	-0.010646	0.035164
C43	C	1.393928	-0.786063	-0.464803
C44	C	1.893928	-0.286063	0.035197
C45	C	1.393987	-0.903893	-0.464829
C46	C	1.893987	-0.403893	0.035171
C47	C	1.319774	-1.071469	-0.539586
C48	C	1.819774	-0.571469	-0.039586
C49	C	1.319395	-0.948910	-0.539346
C50	C	1.819395	-0.448910	-0.039346
C51	C	1.366471	-0.948490	-0.363172
C52	C	1.866471	-0.448490	0.136828
C53	C	1.366018	-1.071089	-0.363626
C54	C	1.866018	-0.571089	0.136374
C55	C	1.496168	-1.070980	-0.490905
C56	C	1.996168	-0.570980	0.009095
C57	C	1.495542	-0.948373	-0.493127
C58	C	1.995542	-0.448373	0.006873
C59	C	1.645592	-0.510650	-0.464850
C60	C	2.145592	-0.010650	0.035150
C61	C	1.752806	-0.510658	-0.464865
C62	C	2.252806	-0.010658	0.035135
C63	C	1.394058	-0.510544	-0.716409
C64	C	1.894058	-0.010544	-0.216409
C65	C	1.394083	-0.510506	-0.823623
C66	C	1.894083	-0.010506	-0.323623
C67	C	1.394096	-0.234128	-0.464851
C68	C	1.894096	0.265872	0.035149
C69	C	1.394137	-0.116298	-0.464866
C70	C	1.894137	0.383702	0.035134
C71	C	1.394103	-0.510476	-0.910693
C72	C	1.894103	-0.010476	-0.410693
C73	C	1.394130	-0.510428	-1.019926
C74	C	1.894130	-0.010428	-0.519926
C75	C	1.393996	-0.510645	-0.214202
C76	C	1.893996	-0.010645	0.285798
C77	C	1.394157	-0.510385	-0.106988
C78	C	1.894157	-0.010385	0.393012
H79	H	1.336610	-0.918754	-0.614723
H80	H	1.836610	-0.418754	-0.114723
C81	C	1.530077	-1.112634	-0.589344
C82	C	2.030077	-0.612634	-0.089344
H83	H	1.482319	-1.158057	-0.615487
H84	H	1.982319	-0.658057	-0.115487
H85	H	1.588441	-1.150760	-0.581539
H86	H	2.088441	-0.650760	-0.081539
H87	H	1.540367	-1.054776	-0.631749
H88	H	2.040367	-0.554776	-0.131749
H89	H	1.553864	-0.917723	-0.442668
H90	H	2.053864	-0.417723	0.057332
H91	H	1.551570	-1.099968	-0.436483
H92	H	2.051570	-0.599968	0.063517
H93	H	1.516293	-0.919220	-0.567942
H94	H	2.016293	-0.419220	-0.067942
H95	H	1.243753	-0.919677	-0.522094
H96	H	1.743753	-0.419677	-0.022094
H97	H	1.291433	-1.099782	-0.341568
H98	H	1.791433	-0.599782	0.158432
H99	H	1.336831	-1.100879	-0.615211
H100	H	1.836831	-0.600879	-0.115211
H101	H	1.244605	-1.102372	-0.522555
H102	H	1.744605	-0.602372	-0.022555
H103	H	1.417831	-1.100747	-0.306055
H104	H	1.917831	-0.600747	0.193945
C105	C	1.437310	-0.909098	-0.285903
C106	C	1.937310	-0.409098	0.214097
H107	H	1.484406	-0.864993	-0.315022
H108	H	1.984406	-0.364993	0.184978
H109	H	1.467989	-0.967947	-0.256520
H110	H	1.967989	-0.467947	0.243480
H111	H	1.403235	-0.870028	-0.238502
H112	H	1.903235	-0.370028	0.261498
C113	C	1.266758	-0.907160	-0.332837
C114	C	1.766758	-0.407160	0.167163
H115	H	1.241762	-0.862738	-0.381979
H116	H	1.741762	-0.362738	0.118021
H117	H	1.272517	-0.868035	-0.274789
H118	H	1.772517	-0.368035	0.225211
H119	H	1.224467	-0.965218	-0.323050
H120	H	1.724467	-0.465218	0.176950
