data_functionalizedCrystal
_audit_creation_method	'MofGen! by Chris Wilmer'
_symmetry_space_group_name_H-M	'P1'
_symmetry_Int_Tables_number	1
_symmetry_cell_setting	triclinic
loop_
_symmetry_equiv_pos_as_xyz
  x,y,z
_cell_length_a	15.995350
_cell_length_b	11.792241
_cell_length_c	10.868271
_cell_angle_alpha	90.005281
_cell_angle_beta	90.000670
_cell_angle_gamma	83.842895
loop_
_atom_site_label
_atom_site_type_symbol
_atom_site_fract_x
_atom_site_fract_y
_atom_site_fract_z
O1	O	-1.111649	-0.146296	-0.102218
O2	O	-0.778316	0.187037	0.231115
O3	O	-0.444983	0.520370	0.564448
O4	O	-0.867956	-0.164362	-0.102244
O5	O	-0.534623	0.168972	0.231090
O6	O	-0.201289	0.502305	0.564423
O7	O	-0.995716	0.009891	-0.102222
O8	O	-0.662383	0.343224	0.231111
O9	O	-0.329050	0.676558	0.564445
O10	O	-0.983889	-0.320549	-0.102240
O11	O	-0.650556	0.012785	0.231093
O12	O	-0.317222	0.346118	0.564426
O13	O	-0.995706	0.009898	0.102423
O14	O	-0.662373	0.343231	0.435756
O15	O	-0.329039	0.676564	0.769089
O16	O	-0.867946	-0.164355	0.102401
O17	O	-0.534612	0.168978	0.435734
O18	O	-0.201279	0.502312	0.769067
O19	O	-1.111639	-0.146289	0.102426
O20	O	-0.778305	0.187044	0.435760
O21	O	-0.444972	0.520377	0.769093
Zn22	Zn	-0.989790	-0.155321	0.134905
Zn23	Zn	-0.656457	0.178012	0.468239
Zn24	Zn	-0.323124	0.511345	0.801572
Zn25	Zn	-0.989804	-0.155330	-0.134723
Zn26	Zn	-0.656471	0.178003	0.198610
Zn27	Zn	-0.323138	0.511337	0.531944
O28	O	-0.983878	-0.320542	0.102404
O29	O	-0.650545	0.012791	0.435738
O30	O	-0.317212	0.346125	0.769071
C31	C	-0.836753	-0.163612	0.000075
C32	C	-0.503419	0.169722	0.333409
C33	C	-0.170086	0.503055	0.666742
C34	C	-0.743792	-0.161372	0.000066
C35	C	-0.410459	0.171961	0.333399
C36	C	-0.077125	0.505294	0.666733
C37	C	-0.994968	0.052179	0.000100
C38	C	-0.661635	0.385512	0.333433
C39	C	-0.328302	0.718846	0.666767
C40	C	-0.992745	0.178174	0.000099
C41	C	-0.659411	0.511507	0.333432
C42	C	-0.326078	0.844841	0.666765
C43	C	-1.142842	-0.147040	0.000104
C44	C	-0.809509	0.186294	0.333438
C45	C	-0.476176	0.519627	0.666771
C46	C	-1.235803	-0.149279	0.000106
C47	C	-0.902469	0.184055	0.333439
C48	C	-0.569136	0.517388	0.666772
C49	C	-0.406008	-0.153331	0.000092
C50	C	-0.072675	0.180002	0.333425
C51	C	0.260659	0.513335	0.666759
C52	C	-0.452879	-0.029232	0.000555
C53	C	-0.119545	0.304102	0.333889
C54	C	0.213788	0.637435	0.667222
C55	C	-0.549579	-0.031471	0.000085
C56	C	-0.216246	0.301862	0.333419
C57	C	0.117087	0.635195	0.666752
C58	C	-0.573587	-0.157320	0.000080
C59	C	-0.240253	0.176013	0.333413
C60	C	0.093080	0.509347	0.666746
C61	C	-0.532784	-0.218534	-0.116781
C62	C	-0.199450	0.114800	0.216552
C63	C	0.133883	0.448133	0.549886
C64	C	-0.436134	-0.215416	-0.116870
C65	C	-0.102800	0.117917	0.216463
C66	C	0.230533	0.451250	0.549797
C67	C	-0.435794	-0.217973	0.115849
C68	C	-0.102461	0.115361	0.449182
C69	C	0.230872	0.448694	0.782516
C70	C	-0.532740	-0.217943	0.117385
C71	C	-0.199406	0.115390	0.450718
C72	C	0.133927	0.448723	0.784052
C73	C	-0.668295	-0.159581	0.000069
C74	C	-0.334961	0.173753	0.333402
C75	C	-0.001628	0.507086	0.666735
C76	C	-0.311300	-0.151074	0.000095
C77	C	0.022033	0.182259	0.333428
C78	C	0.355367	0.515592	0.666761
C79	C	-0.984627	-0.362830	0.000080
C80	C	-0.651293	-0.029497	0.333413
C81	C	-0.317960	0.303836	0.666746
C82	C	-0.986850	-0.488825	0.000073
C83	C	-0.653517	-0.155492	0.333406
C84	C	-0.320184	0.177841	0.666740
N85	N	-0.989787	-0.155314	0.318919
N86	N	-0.656454	0.178019	0.652253
N87	N	-0.323120	0.511352	0.985586
C88	C	-0.988655	0.408852	0.000078
C89	C	-0.655322	0.742186	0.333411
C90	C	-0.321989	1.075519	0.666744
C91	C	-0.990927	0.280486	0.000089
C92	C	-0.657594	0.613819	0.333422
C93	C	-0.324261	0.947153	0.666756
N94	N	-0.989814	-0.155328	-0.318737
N95	N	-0.656481	0.178006	0.014596
N96	N	-0.323148	0.511339	0.347930
C97	C	-0.989800	-0.155328	0.569925
C98	C	-0.656467	0.178006	0.903259
C99	C	-0.323133	0.511339	1.236592
C100	C	-0.989790	-0.155324	0.430248
C101	C	-0.656457	0.178010	0.763581
C102	C	-0.323123	0.511343	1.096915
H103	H	-0.577785	0.016646	0.083857
H104	H	-0.244452	0.349979	0.417190
H105	H	0.088881	0.683312	0.750523
F106	F	-0.408711	-0.164937	0.231627
F107	F	-0.075377	0.168396	0.564961
F108	F	0.257956	0.501730	0.898294
F109	F	-0.411942	-0.157076	-0.231044
F110	F	-0.078608	0.176258	0.102289
F111	F	0.254725	0.509591	0.435622
H112	H	-0.548521	-0.309716	0.124439
H113	H	-0.215188	0.023618	0.457773
H114	H	0.118146	0.356951	0.791106
H115	H	-0.404448	-0.309470	0.116635
H116	H	-0.071115	0.023863	0.449969
H117	H	0.262218	0.357196	0.783302
H118	H	-0.434127	0.020377	0.084361
H119	H	-0.100794	0.353710	0.417694
H120	H	0.232540	0.687043	0.751028
F121	F	-0.426977	0.035311	-0.108366
F122	F	-0.093644	0.368645	0.224967
F123	F	0.239689	0.701978	0.558301
F124	F	-0.585690	0.031582	-0.109767
F125	F	-0.252356	0.364915	0.223566
F126	F	0.080977	0.698249	0.556900
F127	F	-0.394521	-0.334503	-0.123808
F128	F	-0.061188	-0.001170	0.209525
F129	F	0.272146	0.332163	0.542859
H130	H	-0.547328	-0.310992	-0.121130
H131	H	-0.213995	0.022342	0.212203
H132	H	0.119338	0.355675	0.545536
F133	F	-0.569622	-0.162970	-0.230454
F134	F	-0.236288	0.170363	0.102879
F135	F	0.097045	0.503696	0.436212
H136	H	-0.559849	-0.173257	0.203838
H137	H	-0.226516	0.160076	0.537171
H138	H	0.106818	0.493409	0.870505
