data_functionalizedCrystal
_audit_creation_method	'MofGen! by Chris Wilmer'
_symmetry_space_group_name_H-M	'P1'
_symmetry_Int_Tables_number	1
_symmetry_cell_setting	triclinic
loop_
_symmetry_equiv_pos_as_xyz
  x,y,z
_cell_length_a	12.837943
_cell_length_b	10.489741
_cell_length_c	11.295483
_cell_angle_alpha	94.137284
_cell_angle_beta	85.461227
_cell_angle_gamma	89.684057
loop_
_atom_site_label
_atom_site_type_symbol
_atom_site_fract_x
_atom_site_fract_y
_atom_site_fract_z
O1	O	1.384854	0.324137	-0.099003
O2	O	1.884854	0.824137	0.400997
O3	O	1.082927	0.307742	-0.099010
O4	O	1.582927	0.807742	0.400990
O5	O	1.240760	0.131100	-0.098999
O6	O	1.740760	0.631100	0.401001
O7	O	1.227021	0.500780	-0.099013
O8	O	1.727021	1.000780	0.400987
O9	O	1.226897	0.146588	0.099051
O10	O	1.726897	0.646588	0.599051
O11	O	1.069064	0.323231	0.099040
O12	O	1.569064	0.823231	0.599040
O13	O	1.370991	0.339626	0.099047
O14	O	1.870991	0.839626	0.599047
Cu15	Cu	1.218762	0.332842	0.117127
Cu16	Cu	1.718762	0.832842	0.617127
Cu17	Cu	1.235156	0.314526	-0.117090
Cu18	Cu	1.735156	0.814526	0.382910
O19	O	1.213158	0.516268	0.099036
O20	O	1.713158	1.016268	0.599036
C21	C	1.037334	0.309948	0.000014
C22	C	1.537334	0.809948	0.500014
C23	C	0.922133	0.293430	0.000012
C24	C	1.422133	0.793430	0.500012
C25	C	0.682657	0.492006	0.000021
C26	C	1.182657	0.992006	0.500021
C27	C	0.574415	0.476492	0.000020
C28	C	1.074415	0.976492	0.500020
C29	C	0.597406	0.246889	0.000016
C30	C	1.097406	0.746889	0.500016
C31	C	0.705648	0.262403	0.000017
C32	C	1.205648	0.762403	0.500017
C33	C	0.748269	0.384966	0.000018
C34	C	1.248269	0.884966	0.500018
C35	C	0.856513	0.400478	0.000011
C36	C	1.356513	0.900478	0.500011
C37	C	0.879501	0.170877	0.000016
C38	C	1.379501	0.670877	0.500016
C39	C	0.771260	0.155363	0.000014
C40	C	1.271260	0.655363	0.500014
C41	C	1.232791	0.091198	0.000025
C42	C	1.732791	0.591198	0.500025
C43	C	1.229686	-0.050774	0.000023
C44	C	1.729686	0.449226	0.500023
C45	C	1.129262	-0.129987	0.000012
C46	C	1.629262	0.370013	0.500012
C47	C	1.169867	-0.209242	0.097662
C48	C	1.669867	0.290758	0.597662
C49	C	1.183558	-0.224485	-0.097600
C50	C	1.683558	0.275515	0.402400
C51	C	1.270327	-0.128153	0.097754
C52	C	1.770327	0.371847	0.597754
C53	C	1.284011	-0.143394	-0.097596
C54	C	1.784011	0.356606	0.402404
C55	C	1.324687	-0.222613	0.000078
C56	C	1.824687	0.277387	0.500078
C57	C	1.416585	0.337420	0.000020
C58	C	1.916585	0.837420	0.500020
C59	C	1.531786	0.353937	0.000015
C60	C	2.031786	0.853937	0.500015
C61	C	1.221127	0.556170	0.000010
C62	C	1.721127	1.056170	0.500010
C63	C	1.224233	0.698141	0.000004
C64	C	1.724233	1.198141	0.500004
N65	N	1.207238	0.345726	0.281863
N66	N	1.707238	0.845726	0.781863
N67	N	1.246688	0.301633	-0.281825
N68	N	1.746688	0.801633	0.218175
C69	C	1.329641	0.208822	0.531161
C70	C	1.829641	0.708822	1.031161
C71	C	1.320940	0.218568	0.655824
C72	C	1.820940	0.718568	1.155824
C73	C	1.181131	0.374956	0.655854
C74	C	1.681131	0.874956	1.155854
C75	C	1.189832	0.365210	0.531191
C76	C	1.689832	0.865210	1.031191
C77	C	1.264090	0.282142	0.468849
C78	C	1.764090	0.782142	0.968849
C79	C	1.272796	0.272403	0.344183
C80	C	1.772796	0.772403	0.844183
C81	C	1.132982	0.428784	0.344216
C82	C	1.632982	0.928784	0.844216
C83	C	1.124281	0.438530	0.468879
C84	C	1.624281	0.938530	0.968879
H85	H	0.562677	0.147112	0.000113
H86	H	1.062677	0.647112	0.500113
H87	H	0.891213	0.500275	0.000014
H88	H	1.391213	1.000275	0.500014
H89	H	1.079610	0.488490	0.293468
H90	H	1.579610	0.988490	0.793468
H91	H	0.717359	0.591801	0.000020
H92	H	1.217359	1.091801	0.500020
H93	H	1.333263	0.204769	0.293425
H94	H	1.833263	0.704769	0.793425
H95	H	1.374316	0.158862	0.706555
H96	H	1.874316	0.658862	1.206555
H97	H	1.046686	-0.089431	0.000108
H98	H	1.546686	0.410569	0.500108
H99	H	1.390112	0.141194	0.480400
H100	H	1.890112	0.641194	0.980400
H101	H	1.146833	-0.266591	-0.180163
H102	H	1.646833	0.233409	0.319837
H103	H	1.120664	0.442579	0.706630
H104	H	1.620664	0.942579	1.206630
H105	H	1.063819	0.506159	0.519653
H106	H	1.563819	1.006159	1.019653
H107	H	0.520997	0.563656	0.000025
H108	H	1.020997	1.063656	0.500025
H109	H	0.736541	0.055577	0.000027
H110	H	1.236541	0.555577	0.500027
H111	H	0.932936	0.083716	0.000006
H112	H	1.432936	0.583716	0.500006
H113	H	1.121596	-0.238482	0.180216
H114	H	1.621596	0.261518	0.680216
H115	H	1.306997	-0.086177	0.180402
H116	H	1.806997	0.413823	0.680402
H117	H	1.407326	-0.262921	0.000134
H118	H	1.907326	0.237079	0.500134
H119	H	1.332246	-0.114126	-0.180154
H120	H	1.832246	0.385874	0.319846
