data_functionalizedCrystal
_audit_creation_method	'MofGen! by Chris Wilmer'
_symmetry_space_group_name_H-M	'P1'
_symmetry_Int_Tables_number	1
_symmetry_cell_setting	triclinic
loop_
_symmetry_equiv_pos_as_xyz
  x,y,z
_cell_length_a	23.532361
_cell_length_b	23.532407
_cell_length_c	22.010155
_cell_angle_alpha	90.006286
_cell_angle_beta	89.997469
_cell_angle_gamma	97.160827
loop_
_atom_site_label
_atom_site_type_symbol
_atom_site_fract_x
_atom_site_fract_y
_atom_site_fract_z
O1	O	0.755276	-0.068996	0.050470
O2	O	0.589409	-0.079027	0.050486
O3	O	0.677344	0.008921	0.050466
O4	O	0.667341	-0.156944	0.050490
O5	O	0.677338	0.008898	-0.050584
O6	O	0.589403	-0.079050	-0.050565
O7	O	0.755270	-0.069019	-0.050580
Cu8	Cu	0.672336	-0.074036	-0.059799
Cu9	Cu	0.672343	-0.074009	0.059705
O10	O	0.667335	-0.156967	-0.050561
C11	C	0.568189	-0.078787	-0.000038
C12	C	0.504971	-0.078032	-0.000032
C13	C	0.677086	0.030126	-0.000060
C14	C	0.676320	0.093343	-0.000065
N15	N	0.672335	-0.074055	-0.143851
C16	C	0.231730	-0.074716	0.055046
C17	C	0.291130	-0.075431	0.055048
O18	O	0.321859	-0.075770	0.101892
N19	N	0.320832	-0.075804	-0.000035
C20	C	0.291133	-0.075457	-0.055123
O21	O	0.321851	-0.075840	-0.101975
C22	C	0.231735	-0.074738	-0.055124
C23	C	0.202035	-0.074370	-0.000037
C24	C	0.202030	-0.074347	0.110128
C25	C	0.142635	-0.073633	0.110126
C26	C	0.112939	-0.073288	0.055043
C27	C	0.142639	-0.073657	-0.000039
C28	C	0.202036	-0.074387	-0.110211
C29	C	0.142634	-0.073668	-0.110207
C30	C	0.112934	-0.073300	-0.055121
C31	C	0.053547	-0.072597	-0.055125
N32	N	0.023845	-0.072224	-0.000042
C33	C	0.053541	-0.072569	0.055042
C34	C	0.415873	-0.076966	-0.055117
C35	C	0.475269	-0.077689	-0.055116
C36	C	0.475263	-0.077662	0.055055
C37	C	0.415865	-0.076943	0.055054
C38	C	0.386171	-0.076593	-0.000034
C39	C	-0.071195	-0.071070	0.055034
C40	C	-0.130596	-0.070359	0.055027
C41	C	-0.130584	-0.070384	-0.055144
C42	C	-0.071188	-0.071098	-0.055137
C43	C	-0.041495	-0.071440	-0.000044
O44	O	0.022781	-0.072255	-0.101945
O45	O	0.022816	-0.072178	0.101886
C46	C	0.776489	-0.069258	-0.000055
C47	C	0.839708	-0.070014	-0.000057
C48	C	0.667592	-0.178171	-0.000033
C49	C	0.668358	-0.241388	-0.000024
C50	C	0.723555	0.492454	-0.000036
C51	C	0.722844	0.551854	-0.000031
O52	O	0.766630	0.588606	-0.000013
N53	N	0.670566	0.574471	-0.000027
C54	C	0.618997	0.537685	-0.000021
O55	O	0.574465	0.562377	-0.000016
C56	C	0.619709	0.478286	-0.000021
C57	C	0.671990	0.455672	-0.000032
C58	C	0.775832	0.469839	-0.000046
C59	C	0.776543	0.410443	-0.000052
C60	C	0.724977	0.373662	-0.000048
C61	C	0.672701	0.396276	-0.000038
C62	C	0.568140	0.441501	-0.000011
C63	C	0.568857	0.382099	-0.000011
C64	C	0.621137	0.359485	-0.000021
C65	C	0.621847	0.300099	-0.000039
N66	N	0.674124	0.277481	-0.000044
C67	C	0.725690	0.314263	-0.000048
C68	C	0.617505	0.662427	-0.000019
C69	C	0.616793	0.721825	-0.000023
C70	C	0.720640	0.735990	-0.000032
C71	C	0.721352	0.676591	-0.000033
C72	C	0.669783	0.639810	-0.000024
C73	C	0.727179	0.189526	-0.000061
C74	C	0.727886	0.130124	-0.000069
C75	C	0.624039	0.115965	-0.000057
C76	C	0.623332	0.175361	-0.000051
C77	C	0.674907	0.212141	-0.000051
O78	O	0.578083	0.263312	-0.000055
O79	O	0.770214	0.289562	-0.000045
C80	C	0.633384	-0.112953	-0.436455
C81	C	0.633382	-0.112958	-0.372847
O82	O	0.600248	-0.146054	-0.339949
N83	N	0.672330	-0.074033	-0.341036
C84	C	0.711278	-0.035097	-0.372835
O85	O	0.744406	-0.001989	-0.339936
C86	C	0.711277	-0.035090	-0.436441
C87	C	0.672330	-0.074021	-0.468250
C88	C	0.594440	-0.151881	-0.468263
C89	C	0.594442	-0.151876	-0.531866
C90	C	0.633389	-0.112944	-0.563661
C91	C	0.672332	-0.074016	-0.531853
C92	C	0.750222	0.003849	-0.468239
C93	C	0.750216	0.003853	-0.531850
C94	C	0.711270	-0.035078	-0.563659
C95	C	0.711281	-0.035080	-0.627251
N96	N	0.672333	-0.074004	-0.659063
C97	C	0.633387	-0.112937	-0.627268
C98	C	0.711278	-0.035115	-0.239257
C99	C	0.711283	-0.035125	-0.175652
C100	C	0.633386	-0.112985	-0.175669
C101	C	0.633385	-0.112978	-0.239275
C102	C	0.672330	-0.074040	-0.271069
C103	C	0.633395	-0.112924	-0.760839
C104	C	0.633402	-0.112918	-0.824448
C105	C	0.711297	-0.035056	-0.824426
C106	C	0.711292	-0.035064	-0.760822
C107	C	0.672336	-0.074000	-0.729031
O108	O	0.744397	-0.001999	-0.660190
O109	O	0.600260	-0.146035	-0.660174
N110	N	0.672349	-0.073986	0.143757
H111	H	-0.154776	-0.070061	0.099887
H112	H	0.819115	0.392037	-0.000058
C113	C	0.383213	-0.076593	-0.115717
H114	H	0.409413	-0.076924	-0.148518
H115	H	0.364575	-0.043099	-0.118020
H116	H	0.355508	-0.109535	-0.118002
H117	H	0.582056	0.086007	-0.000055
C118	C	0.832557	0.510293	-0.000049
H119	H	0.824656	0.548911	-0.000043
H120	H	0.854004	0.503460	-0.035289
H121	H	0.854007	0.503468	0.035192
C122	C	0.793059	0.046679	-0.433264
H123	H	0.816244	0.069868	-0.461318
H124	H	0.816655	0.026323	-0.408454
H125	H	0.772702	0.070280	-0.408449
H126	H	0.762627	0.765949	-0.000033
H127	H	0.743008	-0.003359	-0.850323
C128	C	0.785396	0.105250	-0.000081
H129	H	0.778438	0.064606	-0.000090
H130	H	0.806617	0.117896	0.035155
H131	H	0.806607	0.117896	-0.035326
C132	C	0.507934	-0.078037	0.115648
H133	H	0.481741	-0.077717	0.148457
H134	H	0.535640	-0.045100	0.117929
H135	H	0.526570	-0.111536	0.117941
C136	C	0.383200	-0.076537	0.115648
H137	H	0.409398	-0.076844	0.148451
H138	H	0.355493	-0.109471	0.117943
H139	H	0.364567	-0.043036	0.117937
C140	C	0.590549	-0.155758	-0.725877
H141	H	0.567363	-0.178942	-0.753938
H142	H	0.566954	-0.135404	-0.701057
H143	H	0.610904	-0.179364	-0.701073
H144	H	-0.047026	-0.071349	0.099896
C145	C	0.551602	-0.194702	-0.566848
H146	H	0.528408	-0.217885	-0.538795
H147	H	0.571953	-0.218302	-0.591665
H148	H	0.528006	-0.174340	-0.591655
C149	C	0.590546	-0.155811	-0.140686
H150	H	0.596125	-0.150234	-0.098250
H151	H	0.596513	-0.193788	-0.151117
H152	H	0.552570	-0.149822	-0.151102
C153	C	0.109974	-0.073214	0.170722
H154	H	0.136175	-0.073514	0.203523
H155	H	0.082264	-0.106146	0.173029
H156	H	0.091344	-0.039710	0.173002
H157	H	0.763923	0.658183	-0.000041
C158	C	0.559284	0.746694	-0.000016
H159	H	0.528678	0.716276	-0.000010
H160	H	0.556841	0.769571	-0.035251
H161	H	0.556849	0.769570	0.035230
C162	C	0.560775	0.621973	-0.000021
H163	H	0.529543	0.643954	-0.000024
H164	H	0.558890	0.598508	0.035216
H165	H	0.558892	0.598506	-0.035265
H166	H	0.743003	-0.003429	-0.149758
H167	H	0.601671	-0.144679	-0.265170
H168	H	0.742997	-0.003408	-0.265141
C169	C	0.510630	0.466363	0.000006
H170	H	0.480027	0.435943	0.000016
H171	H	0.508181	0.489238	-0.035229
H172	H	0.508197	0.489240	0.035252
C173	C	0.512129	0.341643	-0.000003
H174	H	0.480894	0.363622	-0.000001
H175	H	0.510249	0.318177	0.035233
H176	H	0.510243	0.318176	-0.035248
H177	H	0.226208	-0.074685	-0.155068
C178	C	0.793059	0.046686	-0.566820
H179	H	0.816253	0.069865	-0.538762
H180	H	0.772709	0.070288	-0.591628
H181	H	0.816654	0.026323	-0.591636
H182	H	0.601687	-0.144622	-0.850344
C183	C	-0.163250	-0.069955	-0.115731
H184	H	-0.202876	-0.069457	-0.107837
H185	H	-0.158068	-0.103277	-0.138397
H186	H	-0.148963	-0.036842	-0.138333
C187	C	0.109966	-0.073321	-0.170803
H188	H	0.070335	-0.072850	-0.162919
H189	H	0.115182	-0.106669	-0.193408
H190	H	0.124222	-0.040233	-0.193463
C191	C	0.234686	-0.074732	0.170726
H192	H	0.208482	-0.074414	0.203525
H193	H	0.262395	-0.041798	0.173022
H194	H	0.253317	-0.108234	0.173021
C195	C	0.507933	-0.078096	-0.115711
H196	H	0.481735	-0.077784	-0.148514
H197	H	0.526573	-0.111590	-0.118002
H198	H	0.535635	-0.045154	-0.118005
C199	C	0.754134	0.007756	-0.725832
H200	H	0.777328	0.030945	-0.753880
H201	H	0.777723	-0.012605	-0.701019
H202	H	0.733777	0.031359	-0.701019
H203	H	0.562723	-0.183584	-0.442382
H204	H	0.769176	0.219466	-0.000058
C205	C	-0.038515	-0.071485	-0.115730
H206	H	-0.064709	-0.071168	-0.148536
H207	H	-0.019863	-0.104970	-0.118032
H208	H	-0.010821	-0.038534	-0.118009
H209	H	0.580761	0.193774	-0.000060
