data_functionalizedCrystal
_audit_creation_method	'MofGen! by Chris Wilmer'
_symmetry_space_group_name_H-M	'P1'
_symmetry_Int_Tables_number	1
_symmetry_cell_setting	triclinic
loop_
_symmetry_equiv_pos_as_xyz
  x,y,z
_cell_length_a	16.625548
_cell_length_b	19.121063
_cell_length_c	16.625539
_cell_angle_alpha	87.589626
_cell_angle_beta	90.017055
_cell_angle_gamma	92.470058
loop_
_atom_site_label
_atom_site_type_symbol
_atom_site_fract_x
_atom_site_fract_y
_atom_site_fract_z
Zn1	Zn	1.218929	-0.279606	0.469578
Zn2	Zn	1.718929	0.220394	0.969578
Zn3	Zn	1.213076	-0.397060	0.340487
Zn4	Zn	1.713076	0.102940	0.840487
Zn5	Zn	1.084098	-0.279629	0.334759
Zn6	Zn	1.584098	0.220371	0.834759
Zn7	Zn	1.078299	-0.397023	0.475275
Zn8	Zn	1.578299	0.102977	0.975275
O9	O	1.148601	-0.338330	0.405025
O10	O	1.648601	0.161670	0.905025
O11	O	1.330985	-0.295192	0.452466
O12	O	1.830985	0.204808	0.952466
O13	O	1.195945	-0.381507	0.226896
O14	O	1.695945	0.118493	0.726896
O15	O	1.106861	-0.181341	0.347862
O16	O	1.606861	0.318659	0.847862
O17	O	1.326685	-0.381485	0.357624
O18	O	1.826685	0.118515	0.857624
O19	O	1.205920	-0.181324	0.446913
O20	O	1.705920	0.318676	0.946913
O21	O	1.101185	-0.295231	0.222688
O22	O	1.601185	0.204769	0.722688
O23	O	0.970497	-0.295196	0.353386
O24	O	1.470497	0.204804	0.853386
O25	O	1.096976	-0.381423	0.587350
O26	O	1.596976	0.118577	1.087350
O27	O	0.966236	-0.381445	0.456622
O28	O	1.466236	0.118555	0.956622
O29	O	1.200297	-0.295157	0.583165
O30	O	1.700297	0.204843	1.083165
O31	O	1.190321	-0.495340	0.363148
O32	O	1.690321	0.004660	0.863148
O33	O	1.091301	-0.495313	0.462176
O34	O	1.591301	0.004687	0.962176
C35	C	0.939110	-0.338320	0.405002
C36	C	1.439110	0.161680	0.905002
C37	C	0.849489	-0.338332	0.405012
C38	C	1.349489	0.161668	0.905012
C39	C	0.521313	-0.338337	0.405046
C40	C	1.021313	0.161663	0.905046
C41	C	0.612621	-0.338334	0.405034
C42	C	1.112621	0.161666	0.905034
C43	C	0.685398	-0.338335	0.405028
C44	C	1.185398	0.161665	0.905028
C45	C	0.776712	-0.338331	0.405017
C46	C	1.276712	0.161669	0.905017
C47	C	1.139568	-0.520811	0.413919
C48	C	1.639568	-0.020811	0.913919
C49	C	1.135778	-0.598877	0.417751
C50	C	1.635778	-0.098877	0.917751
C51	C	1.185592	-0.635543	0.368035
C52	C	1.685592	-0.135543	0.868035
C53	C	1.182032	-0.708894	0.371644
C54	C	1.682032	-0.208894	0.871644
C55	C	1.128653	-0.745578	0.424965
C56	C	1.628653	-0.245578	0.924965
C57	C	1.078837	-0.708907	0.474686
C58	C	1.578837	-0.208907	0.974686
C59	C	1.082402	-0.635557	0.471081
C60	C	1.582402	-0.135557	0.971081
C61	C	1.115313	-0.967048	0.438432
C62	C	1.615313	-0.467048	0.938432
C63	C	1.111750	-1.040404	0.442031
C64	C	1.611750	-0.540404	0.942031
C65	C	1.214946	-1.040386	0.338990
C66	C	1.714946	-0.540386	0.838990
C67	C	1.218503	-0.967035	0.335386
C68	C	1.718503	-0.467035	0.835386
C69	C	1.168690	-0.930370	0.385110
C70	C	1.668690	-0.430370	0.885110
C71	C	1.125011	-0.820555	0.428653
C72	C	1.625011	-0.320555	0.928653
C73	C	1.172336	-0.855394	0.381425
C74	C	1.672336	-0.355394	0.881425
C75	C	1.358909	-0.338340	0.405048
C76	C	1.858909	0.161660	0.905048
C77	C	1.448530	-0.338345	0.405058
C78	C	1.948530	0.161655	0.905058
C79	C	1.148642	-0.338283	0.615331
C80	C	1.648642	0.161717	1.115331
C81	C	1.148660	-0.338264	0.704952
C82	C	1.648660	0.161736	1.204952
C83	C	1.157690	-0.155136	0.396113
C84	C	1.657690	0.344864	0.896113
C85	C	1.161564	-0.077070	0.392316
C86	C	1.661564	0.422930	0.892316
C87	C	1.148608	-0.338325	0.195534
C88	C	1.648608	0.161675	0.695534
C89	C	1.148756	-0.338147	0.105904
C90	C	1.648756	0.161853	0.605904
C91	C	1.148674	-0.338248	0.777733
C92	C	1.648674	0.161752	1.277733
C93	C	1.148694	-0.338222	0.869041
C94	C	1.648694	0.161778	1.369041
C95	C	1.148715	-0.338197	0.941816
C96	C	1.648715	0.161803	1.441816
C97	C	1.148736	-0.338172	1.033129
C98	C	1.648736	0.161828	1.533129
H99	H	1.222595	-0.738745	0.331160
H100	H	1.722595	-0.238745	0.831160
O101	O	1.268687	-1.079940	0.285387
O102	O	1.768687	-0.579940	0.785387
H103	H	1.231010	-1.113422	0.245978
H104	H	1.731010	-0.613422	0.745978
H105	H	1.261968	-0.937168	0.291968
H106	H	1.761968	-0.437168	0.791968
H107	H	1.068292	-1.070270	0.485466
H108	H	1.568292	-0.570270	0.985466
O109	O	1.061564	-0.927506	0.492035
O110	O	1.561564	-0.427506	0.992035
H111	H	1.023835	-0.965340	0.529702
H112	H	1.523835	-0.465340	1.029702
O113	O	1.021253	-0.748467	0.532190
O114	O	1.521253	-0.248467	1.032190
H115	H	1.027132	-0.805633	0.526336
H116	H	1.527132	-0.305633	1.026336
H117	H	1.041839	-0.605704	0.511566
H118	H	1.541839	-0.105704	1.011566
O119	O	1.229918	-0.815828	0.323929
O120	O	1.729918	-0.315828	0.823929
H121	H	1.195479	-0.782459	0.281233
H122	H	1.695479	-0.282459	0.781233
O123	O	1.067426	-0.860128	0.486146
O124	O	1.567426	-0.360128	0.986146
H125	H	1.101862	-0.893503	0.528838
H126	H	1.601862	-0.393503	1.028838
H127	H	1.229055	-0.605680	0.324612
H128	H	1.729055	-0.105680	0.824612
