data_functionalizedCrystal
_audit_creation_method	'MofGen! by Chris Wilmer'
_symmetry_space_group_name_H-M	'P1'
_symmetry_Int_Tables_number	1
_symmetry_cell_setting	triclinic
loop_
_symmetry_equiv_pos_as_xyz
  x,y,z
_cell_length_a	14.908520
_cell_length_b	14.908571
_cell_length_c	14.908308
_cell_angle_alpha	89.824947
_cell_angle_beta	83.639235
_cell_angle_gamma	90.205961
loop_
_atom_site_label
_atom_site_type_symbol
_atom_site_fract_x
_atom_site_fract_y
_atom_site_fract_z
Zn1	Zn	-0.470613	1.316651	0.613065
Zn2	Zn	0.029387	1.816651	1.113065
Zn3	Zn	-0.613252	1.316549	0.470429
Zn4	Zn	-0.113252	1.816549	0.970429
Zn5	Zn	-0.453291	1.176020	0.453125
Zn6	Zn	0.046709	1.676020	0.953125
Zn7	Zn	-0.612180	1.157642	0.612023
Zn8	Zn	-0.112180	1.657642	1.112023
O9	O	-0.537334	1.241715	0.537161
O10	O	-0.037334	1.741715	1.037161
O11	O	-0.497231	1.441995	0.601822
O12	O	0.002769	1.941995	1.101822
O13	O	-0.585232	1.305556	0.341941
O14	O	-0.085232	1.805556	0.841941
O15	O	-0.329399	1.202409	0.467536
O16	O	0.170601	1.702409	0.967536
O17	O	-0.602028	1.441920	0.497029
O18	O	-0.102028	1.941920	0.997029
O19	O	-0.342124	1.305730	0.585043
O20	O	0.157876	1.805730	1.085043
O21	O	-0.467710	1.202310	0.329228
O22	O	0.032290	1.702310	0.829228
O23	O	-0.466671	1.048225	0.466525
O24	O	0.033329	1.548225	0.966525
O25	O	-0.600202	1.171086	0.738354
O26	O	-0.100202	1.671086	1.238354
O27	O	-0.583406	1.034722	0.583267
O28	O	-0.083406	1.534722	1.083267
O29	O	-0.496192	1.287909	0.739120
O30	O	0.003808	1.787909	1.239120
O31	O	-0.739300	1.287736	0.496018
O32	O	-0.239300	1.787736	0.996018
O33	O	-0.738513	1.170987	0.600046
O34	O	-0.238513	1.670987	1.100046
C35	C	-0.523043	1.008970	0.522906
C36	C	-0.023043	1.508970	1.022906
C37	C	-0.516953	0.909397	0.516830
C38	C	-0.016953	1.409397	1.016830
C39	C	-0.627234	0.708277	0.626831
C40	C	-0.127234	1.208277	1.126831
C41	C	-0.621514	0.614720	0.621125
C42	C	-0.121514	1.114720	1.121125
C43	C	-0.499789	0.628723	0.499719
C44	C	0.000211	1.128723	0.999719
C45	C	-0.505509	0.722281	0.505424
C46	C	-0.005509	1.222281	1.005424
C47	C	-0.569235	0.762054	0.568981
C48	C	-0.069235	1.262054	1.068981
C49	C	-0.574958	0.855613	0.574682
C50	C	-0.074958	1.355613	1.074682
C51	C	-0.453230	0.869615	0.453280
C52	C	0.046770	1.369615	0.953280
C53	C	-0.447510	0.776058	0.447575
C54	C	0.052490	1.276058	0.947575
C55	C	-0.771629	1.227379	0.549818
C56	C	-0.271629	1.727379	1.049818
C57	C	-0.871868	1.221326	0.555268
C58	C	-0.371868	1.721326	1.055268
C59	C	-1.060998	1.331634	0.457284
C60	C	-0.560998	1.831634	0.957284
C61	C	-1.155181	1.325950	0.462402
C62	C	-0.655181	1.825950	0.962402
C63	C	-1.154420	1.204279	0.570626
C64	C	-0.654420	1.704279	1.070626
C65	C	-1.060237	1.209963	0.565508
C66	C	-0.560237	1.709963	1.065508
C67	C	-1.013529	1.273642	0.508834
C68	C	-0.513529	1.773642	1.008834
C69	C	-0.919343	1.279321	0.503712
C70	C	-0.419343	1.779321	1.003712
C71	C	-0.918584	1.157655	0.611940
C72	C	-0.418584	1.657655	1.111940
C73	C	-1.012768	1.151970	0.617058
C74	C	-0.512768	1.651970	1.117058
C75	C	-0.302127	1.256131	0.524476
C76	C	0.197873	1.756131	1.024476
C77	C	-0.201896	1.262274	0.519070
C78	C	0.298104	1.762274	1.019070
C79	C	-0.550010	1.227459	0.772372
C80	C	-0.050010	1.727459	1.272372
C81	C	-0.555411	1.221383	0.872606
C82	C	-0.055411	1.721383	1.372606
C83	C	-0.551681	1.475370	0.551472
C84	C	-0.051681	1.975370	1.051472
C85	C	-0.557795	1.574939	0.557571
C86	C	-0.057795	2.074939	1.057571
C87	C	-0.524646	1.255972	0.302864
C88	C	-0.024646	1.755972	0.802864
C89	C	-0.519001	1.262236	0.202628
C90	C	-0.019001	1.762236	0.702628
C91	C	-0.457236	1.331614	1.061752
C92	C	0.042764	1.831614	1.561752
C93	C	-0.462308	1.325908	1.155930
C94	C	0.037692	1.825908	1.655930
C95	C	-0.570623	1.204264	1.155141
C96	C	-0.070623	1.704264	1.655141
C97	C	-0.565551	1.209969	1.060963
C98	C	-0.065551	1.709969	1.560963
C99	C	-0.508856	1.273647	1.014272
C100	C	-0.008856	1.773647	1.514272
C101	C	-0.503789	1.279356	0.920093
C102	C	-0.003789	1.779356	1.420093
C103	C	-0.612099	1.157708	0.919305
C104	C	-0.112099	1.657708	1.419305
C105	C	-0.617171	1.152002	1.013483
C106	C	-0.117171	1.652002	1.513483
H107	H	-0.447902	0.596323	0.447979
H108	H	0.052098	1.096323	0.947979
H109	H	-0.881314	1.331169	0.457563
H110	H	-0.381314	1.831169	0.957563
C111	C	-0.441429	1.349395	0.868729
C112	C	0.058571	1.849395	1.368729
H113	H	-0.445805	1.344498	0.805840
H114	H	0.054195	1.844498	1.305840
H115	H	-0.380867	1.339058	0.880091
H116	H	0.119133	1.839058	1.380091
H117	H	-0.459154	1.407844	0.888562
H118	H	0.040846	1.907844	1.388562
H119	H	-1.193828	1.373175	0.420427
H120	H	-0.693828	1.873175	0.920427
C121	C	-0.394875	1.401653	1.010389
C122	C	0.105125	1.901653	1.510389
H123	H	-0.364854	1.435356	1.052156
H124	H	0.135146	1.935356	1.552156
H125	H	-0.429783	1.440796	0.977897
H126	H	0.070217	1.940796	1.477897
H127	H	-0.351499	1.372008	0.969436
H128	H	0.148501	1.872008	1.469436
H129	H	-0.420271	1.373109	1.194585
H130	H	0.079729	1.873109	1.694585
C131	C	-0.632970	1.134218	1.206510
C132	C	-0.132970	1.634218	1.706510
H133	H	-0.628595	1.139125	1.269399
H134	H	-0.128595	1.639125	1.769399
H135	H	-0.615246	1.075774	1.186675
H136	H	-0.115246	1.575774	1.686675
H137	H	-0.693540	1.144552	1.195159
H138	H	-0.193540	1.644552	1.695159
H139	H	-0.663328	1.100156	1.051511
H140	H	-0.163328	1.600156	1.551511
H141	H	-0.654134	1.110509	0.880636
H142	H	-0.154134	1.610509	1.380636
C143	C	-0.697329	0.752031	0.696735
C144	C	-0.197329	1.252031	1.196735
H145	H	-0.731052	0.706603	0.730374
H146	H	-0.231052	1.206603	1.230374
H147	H	-0.736934	0.788221	0.666521
H148	H	-0.236934	1.288221	1.166521
H149	H	-0.667240	0.788253	0.736452
H150	H	-0.167240	1.288253	1.236452
H151	H	-0.626848	0.887995	0.626432
H152	H	-0.126848	1.387995	1.126432
H153	H	-0.668742	0.570938	0.668234
H154	H	-0.168742	1.070938	1.168234
C155	C	-0.377423	0.732302	0.377663
C156	C	0.122577	1.232302	0.877663
H157	H	-0.382326	0.668880	0.382545
H158	H	0.117674	1.168880	0.882545
H159	H	-0.318504	0.750530	0.388610
H160	H	0.181496	1.250530	0.888610
H161	H	-0.388214	0.750493	0.318694
H162	H	0.111786	1.250493	0.818694
H163	H	-1.050810	1.100127	0.663202
H164	H	-0.550810	1.600127	1.163202
C165	C	-0.389429	0.928768	0.389638
C166	C	0.110571	1.428768	0.889638
H167	H	-0.350666	0.891677	0.350965
H168	H	0.149334	1.391677	0.850965
H169	H	-0.354282	0.965581	0.424294
H170	H	0.145718	1.465581	0.924294
H171	H	-0.423989	0.965529	0.354374
H172	H	0.076011	1.465529	0.854374
C173	C	-1.009612	1.401670	0.394944
C174	C	-0.509612	1.901670	0.894944
H175	H	-0.946721	1.396744	0.399275
H176	H	-0.446721	1.896744	0.899275
H177	H	-1.029392	1.460119	0.412708
H178	H	-0.529392	1.960119	0.912708
H179	H	-1.021012	1.391340	0.334381
H180	H	-0.521012	1.891340	0.834381
C181	C	-1.205809	1.134238	0.632957
C182	C	-0.705809	1.634238	1.132957
H183	H	-1.268699	1.139159	0.628616
H184	H	-0.768699	1.639159	1.128616
H185	H	-1.194408	1.144549	0.693519
H186	H	-0.694408	1.644549	1.193519
H187	H	-1.186031	1.075788	0.615176
H188	H	-0.686031	1.575788	1.115176
H189	H	-0.879924	1.110431	0.653913
H190	H	-0.379924	1.610431	1.153913
