data_functionalizedCrystal
_audit_creation_method	'MofGen! by Chris Wilmer'
_symmetry_space_group_name_H-M	'P1'
_symmetry_Int_Tables_number	1
_symmetry_cell_setting	triclinic
loop_
_symmetry_equiv_pos_as_xyz
  x,y,z
_cell_length_a	21.295417
_cell_length_b	21.395362
_cell_length_c	21.395355
_cell_angle_alpha	90.048039
_cell_angle_beta	89.978549
_cell_angle_gamma	89.951233
loop_
_atom_site_label
_atom_site_type_symbol
_atom_site_fract_x
_atom_site_fract_y
_atom_site_fract_z
Zn1	Zn	-0.250375	-0.957860	-0.354641
Zn2	Zn	-0.355627	-0.957763	-0.249859
Zn3	Zn	-0.250409	-0.853075	-0.249835
Zn4	Zn	-0.355644	-0.853045	-0.354556
O5	O	-0.303014	-0.905436	-0.302223
O6	O	-0.264316	-1.045525	-0.340787
O7	O	-0.341676	-0.943848	-0.162177
O8	O	-0.162315	-0.867029	-0.263764
O9	O	-0.341644	-1.045454	-0.263804
O10	O	-0.162290	-0.944014	-0.340765
O11	O	-0.264373	-0.866935	-0.162160
O12	O	-0.264390	-0.765393	-0.263681
O13	O	-0.341673	-0.866977	-0.442245
O14	O	-0.341706	-0.765371	-0.340619
O15	O	-0.264333	-0.943984	-0.442308
O16	O	-0.443718	-0.943819	-0.263721
O17	O	-0.443731	-0.866883	-0.340641
C18	C	-0.303054	-0.742648	-0.302138
C19	C	-0.303086	-0.673007	-0.302117
C20	C	-0.466565	-0.905354	-0.302188
C21	C	-0.536534	-0.905376	-0.302194
C22	C	-0.343399	-0.640299	-0.342116
C23	C	-0.343387	-0.574863	-0.342140
C24	C	-0.303067	-0.542139	-0.302152
C25	C	-0.262747	-0.574855	-0.262150
C26	C	-0.262756	-0.640289	-0.262133
C27	C	-0.298001	-0.438414	-0.245740
C28	C	-0.297996	-0.372981	-0.245757
C29	C	-0.303035	-0.340318	-0.302207
C30	C	-0.308092	-0.373096	-0.358643
C31	C	-0.308102	-0.438530	-0.358625
C32	C	-0.303052	-0.471186	-0.302167
C33	C	-0.343336	-0.236657	-0.342235
C34	C	-0.343319	-0.171221	-0.342259
C35	C	-0.262682	-0.171214	-0.262265
C36	C	-0.262696	-0.236649	-0.262246
C37	C	-0.303026	-0.269367	-0.302230
C38	C	-0.569373	-0.945472	-0.262183
C39	C	-0.635115	-0.945502	-0.262197
C40	C	-0.668016	-0.905424	-0.302216
C41	C	-0.635169	-0.865325	-0.342235
C42	C	-0.569428	-0.865301	-0.342224
N43	N	-0.771300	-0.850614	-0.306964
N44	N	-0.833752	-0.850638	-0.306970
C45	C	-0.866091	-0.905494	-0.302252
N46	N	-0.833619	-0.960325	-0.297514
N47	N	-0.771162	-0.960300	-0.297504
C48	C	-0.739301	-0.905445	-0.302232
C49	C	-0.970215	-0.945625	-0.262253
C50	C	-1.035959	-0.945656	-0.262272
C51	C	-1.036012	-0.865473	-0.342307
C52	C	-0.970269	-0.865448	-0.342292
C53	C	-0.937375	-0.905523	-0.302262
C54	C	-0.138823	-0.905536	-0.302271
C55	C	-0.068855	-0.905578	-0.302292
C56	C	-0.303001	-0.905488	-0.465646
C57	C	-0.302996	-0.905510	-0.535287
C58	C	-0.302984	-0.068859	-0.302290
C59	C	-0.302999	-0.138501	-0.302272
C60	C	-0.262723	-0.945606	-0.568034
C61	C	-0.262696	-0.945605	-0.633470
C62	C	-0.302953	-0.905515	-0.666156
C63	C	-0.343228	-0.865411	-0.633401
C64	C	-0.343250	-0.865409	-0.567967
C65	C	-0.359634	-0.900539	-0.769816
C66	C	-0.359614	-0.900546	-0.835249
C67	C	-0.302886	-0.905519	-0.867977
C68	C	-0.246177	-0.910498	-0.835263
C69	C	-0.246198	-0.910496	-0.769829
C70	C	-0.302934	-0.905513	-0.737108
C71	C	-0.262580	-0.945616	-0.971676
C72	C	-0.262552	-0.945611	-1.037113
C73	C	-0.343091	-0.865420	-1.037043
C74	C	-0.343113	-0.865422	-0.971607
C75	C	-0.302859	-0.905523	-0.938928
C76	C	-0.302981	-0.905420	-0.139435
C77	C	-0.302809	-0.905520	-0.069794
H78	H	-0.376238	-0.666933	-0.374676
H79	H	-0.542690	-0.832649	-0.374807
Br80	Br	-0.925698	-0.811027	-0.396595
H81	H	-0.542592	-0.978105	-0.229589
H82	H	-0.661858	-0.978155	-0.229615
H83	H	-0.661961	-0.832694	-0.374820
H84	H	-0.405817	-0.896322	-0.743175
Br85	Br	-0.925569	-1.000009	-0.207926
Br86	Br	-0.169240	-0.917249	-0.725433
Br87	Br	-0.208022	-0.530445	-0.207887
Br88	Br	-0.314930	-0.328777	-0.435260
H89	H	-0.229754	-0.978261	-1.063774
Br90	Br	-1.080528	-1.000084	-0.207972
Br91	Br	-0.397719	-0.811003	-1.081395
Br92	Br	-0.436576	-0.893798	-0.879640
H93	H	-0.376214	-0.548227	-0.374714
H94	H	-0.312218	-0.465215	-0.404577
Br95	Br	-0.398066	-0.281064	-0.396500
Br96	Br	-0.169184	-0.917253	-0.879670
H97	H	-0.376146	-0.144590	-0.374835
Br98	Br	-0.207949	-1.000036	-0.927322
Br99	Br	-1.080656	-0.811087	-0.396626
H100	H	-0.229944	-0.978259	-0.541431
H101	H	-0.229851	-0.144570	-0.229709
H102	H	-0.293882	-0.346298	-0.199803
H103	H	-0.229872	-0.263280	-0.229671
H104	H	-0.293894	-0.465003	-0.199768
H105	H	-0.229897	-0.978255	-0.660137
Br106	Br	-0.397774	-0.811004	-0.927162
H107	H	-0.376044	-0.832755	-0.541305
Br108	Br	-0.208040	-0.684682	-0.207845
Br109	Br	-0.397859	-0.810998	-0.677759
