data_functionalizedCrystal
_audit_creation_method	'MofGen! by Chris Wilmer'
_symmetry_space_group_name_H-M	'P1'
_symmetry_Int_Tables_number	1
_symmetry_cell_setting	triclinic
loop_
_symmetry_equiv_pos_as_xyz
  x,y,z
_cell_length_a	15.944551
_cell_length_b	14.853567
_cell_length_c	13.930277
_cell_angle_alpha	89.995623
_cell_angle_beta	90.003362
_cell_angle_gamma	96.433166
loop_
_atom_site_label
_atom_site_type_symbol
_atom_site_fract_x
_atom_site_fract_y
_atom_site_fract_z
O1	O	0.109662	-1.196228	0.079767
O2	O	0.609662	-0.696228	0.579767
O3	O	0.122726	-0.933752	0.079783
O4	O	0.622726	-0.433752	0.579783
O5	O	-0.006073	-1.072158	0.079766
O6	O	0.493927	-0.572158	0.579766
O7	O	0.238460	-1.057822	0.079784
O8	O	0.738460	-0.557822	0.579784
O9	O	-0.006071	-1.072137	-0.079896
O10	O	0.493929	-0.572137	0.420104
O11	O	0.122728	-0.933732	-0.079878
O12	O	0.622728	-0.433732	0.420122
O13	O	0.109664	-1.196208	-0.079895
O14	O	0.609664	-0.696208	0.420105
Zn15	Zn	0.116197	-1.064967	-0.105236
Zn16	Zn	0.616197	-0.564967	0.394764
Zn17	Zn	0.116193	-1.064993	0.105125
Zn18	Zn	0.616193	-0.564993	0.605125
O19	O	0.238463	-1.057802	-0.079878
O20	O	0.738463	-0.557802	0.420122
C21	C	0.122135	-0.900154	-0.000045
C22	C	0.622135	-0.400154	0.499955
C23	C	0.120361	-0.800072	-0.000039
C24	C	0.620361	-0.300072	0.499961
C25	C	-0.037367	-1.071552	-0.000065
C26	C	0.462633	-0.571552	0.499935
C27	C	-0.130615	-1.069768	-0.000065
C28	C	0.369385	-0.569768	0.499935
C29	C	0.110255	-1.229806	-0.000064
C30	C	0.610255	-0.729806	0.499936
C31	C	0.112029	-1.329887	-0.000064
C32	C	0.612029	-0.829887	0.499936
C33	C	-0.345572	-0.979713	-0.000047
C34	C	0.154428	-0.479713	0.499953
C35	C	-0.406541	-1.021522	-0.078772
C36	C	0.093459	-0.521522	0.421228
C37	C	-0.301344	-1.066541	-0.000058
C38	C	0.198656	-0.566541	0.499942
C39	C	-0.406527	-1.021562	0.078642
C40	C	0.093473	-0.521562	0.578642
C41	C	-0.466260	-1.063416	-0.000046
C42	C	0.033740	-0.563416	0.499954
C43	C	-0.361085	-1.108373	-0.078848
C44	C	0.138915	-0.608373	0.421152
C45	C	-0.361065	-1.108401	0.078636
C46	C	0.138935	-0.608401	0.578636
C47	C	-0.422017	-1.150273	-0.000109
C48	C	0.077983	-0.650273	0.499891
C49	C	-0.206340	-1.068338	-0.000065
C50	C	0.293660	-0.568338	0.499935
C51	C	-0.561263	-1.061626	-0.000046
C52	C	-0.061263	-0.561626	0.499954
C53	C	0.269756	-1.058407	-0.000044
C54	C	0.769756	-0.558407	0.499956
C55	C	0.363004	-1.060191	-0.000038
C56	C	0.863004	-0.560191	0.499962
N57	N	0.116198	-1.064955	-0.248803
N58	N	0.616198	-0.564955	0.251197
C59	C	0.036354	-0.387646	-0.000067
C60	C	0.536354	0.112354	0.499933
C61	C	0.189369	-0.366169	-0.000055
C62	C	0.689369	0.133831	0.499945
C63	C	0.191037	-0.460201	-0.000051
C64	C	0.691037	0.039799	0.499949
C65	C	0.115362	-0.517960	-0.000055
C66	C	0.615362	-0.017960	0.499945
C67	C	0.038019	-0.481687	-0.000061
C68	C	0.538019	0.018313	0.499939
C69	C	0.268379	-0.496480	-0.000035
C70	C	0.768379	0.003520	0.499965
C71	C	0.270050	-0.590517	-0.000031
C72	C	0.770050	-0.090517	0.499969
C73	C	0.194374	-0.648278	-0.000041
C74	C	0.694374	-0.148278	0.499959
C75	C	0.117028	-0.612000	-0.000049
C76	C	0.617028	-0.112000	0.499951
C77	C	0.041353	-0.669759	-0.000052
C78	C	0.541353	-0.169759	0.499948
C79	C	-0.035994	-0.633483	-0.000066
C80	C	0.464006	-0.133483	0.499934
C81	C	-0.037657	-0.539448	-0.000071
C82	C	0.462343	-0.039448	0.499929
C83	C	0.196036	-0.742313	-0.000036
C84	C	0.696036	-0.242313	0.499964
C85	C	0.043018	-0.763800	-0.000046
C86	C	0.543018	-0.263800	0.499954
C87	C	0.065160	-1.010280	-0.299066
C88	C	0.565160	-0.510280	0.200934
C89	C	0.167232	-1.119641	-0.299044
C90	C	0.667232	-0.619641	0.200956
C91	C	0.167232	-1.119652	-0.399540
C92	C	0.667232	-0.619652	0.100460
C93	C	0.116194	-1.064978	-0.449803
C94	C	0.616194	-0.564978	0.050197
C95	C	0.065156	-1.010292	-0.399571
C96	C	0.565156	-0.510292	0.100429
C97	C	0.218262	-1.174344	-0.449780
C98	C	0.718262	-0.674344	0.050220
C99	C	0.218263	-1.174358	-0.550282
C100	C	0.718263	-0.674358	-0.050282
C101	C	0.167228	-1.119678	-0.600547
C102	C	0.667228	-0.619678	-0.100547
C103	C	0.116190	-1.064989	-0.550308
C104	C	0.616190	-0.564989	-0.050308
C105	C	0.065151	-1.010315	-0.600572
C106	C	0.565151	-0.510315	-0.100572
C107	C	0.014116	-0.955620	-0.550335
C108	C	0.514116	-0.455620	-0.050335
C109	C	0.014122	-0.955612	-0.449836
C110	C	0.514122	-0.455612	0.050164
C111	C	0.167223	-1.119687	-0.701046
C112	C	0.667223	-0.619687	-0.201046
C113	C	0.065147	-1.010326	-0.701077
C114	C	0.565147	-0.510326	-0.201077
N115	N	0.116185	-1.065012	0.248691
N116	N	0.616185	-0.565012	0.748691
H117	H	-0.312344	-0.907643	-0.000121
H118	H	0.187656	-0.407643	0.499879
N119	N	-0.433224	-0.972878	-0.166936
N120	N	0.066776	-0.472878	0.333064
H121	H	-0.405133	-0.908461	-0.166878
H122	H	0.094867	-0.408461	0.333122
H123	H	-0.496538	-0.972616	-0.166559
H124	H	0.003462	-0.472616	0.333441
H125	H	-0.341053	-1.145058	-0.145478
H126	H	0.158947	-0.645058	0.354522
N127	N	-0.117617	-0.695779	-0.000068
N128	N	0.382383	-0.195779	0.499932
H129	H	-0.120335	-0.735271	0.059123
H130	H	0.379665	-0.235271	0.559123
H131	H	-0.120281	-0.735216	-0.059289
H132	H	0.379719	-0.235216	0.440711
N133	N	-0.433187	-0.972909	0.166800
N134	N	0.066813	-0.472909	0.666800
H135	H	-0.415837	-1.005059	0.226257
H136	H	0.084163	-0.505059	0.726257
H137	H	-0.496493	-0.972582	0.166389
H138	H	0.003507	-0.472582	0.666389
H139	H	-0.455095	-1.222407	-0.000158
H140	H	0.044905	-0.722407	0.499842
N141	N	0.270987	-0.303878	-0.000041
N142	N	0.770987	0.196122	0.499959
H143	H	0.258196	-0.238802	-0.000043
H144	H	0.758196	0.261198	0.499957
H145	H	0.304689	-0.315619	-0.059227
H146	H	0.804689	0.184381	0.440773
N147	N	-0.047068	-0.348528	-0.000095
N148	N	0.452932	0.151472	0.499905
H149	H	-0.036645	-0.280193	-0.000104
H150	H	0.463355	0.219807	0.499896
H151	H	-0.080192	-0.369653	0.059089
H152	H	0.419808	0.130347	0.559089
H153	H	0.333030	-0.620045	-0.000019
H154	H	0.833030	-0.120045	0.499981
N155	N	-0.040932	-0.896640	-0.395653
N156	N	0.459068	-0.396640	0.104347
H157	H	-0.004441	-0.852516	-0.353953
H158	H	0.495559	-0.352516	0.146047
H159	H	-0.081967	-0.935961	-0.354014
H160	H	0.418033	-0.435961	0.145986
H161	H	-0.340895	-1.145102	0.145191
H162	H	0.159105	-0.645102	0.645191
N163	N	-0.038604	-0.826095	-0.000060
N164	N	0.461396	-0.326095	0.499940
H165	H	-0.087851	-0.788843	-0.000072
H166	H	0.412149	-0.288843	0.499928
H167	H	-0.041253	-0.865580	0.059131
H168	H	0.458747	-0.365580	0.559131
H169	H	-0.100629	-0.509903	-0.000105
H170	H	0.399371	-0.009903	0.499895
H171	H	0.329989	-0.449447	-0.000023
H172	H	0.829989	0.050553	0.499977
N173	N	0.279453	-0.781434	-0.000020
N174	N	0.779453	-0.281434	0.499980
H175	H	0.283561	-0.819967	-0.059205
H176	H	0.783561	-0.319967	0.440795
H177	H	0.283500	-0.819928	0.059208
H178	H	0.783500	-0.319928	0.559208
N179	N	0.010096	-0.951357	-0.755287
N180	N	0.510096	-0.451357	-0.255287
H181	H	-0.022232	-0.916712	-0.708211
H182	H	0.477768	-0.416712	-0.208211
H183	H	-0.030904	-0.990671	-0.796971
H184	H	0.469096	-0.490671	-0.296971
H185	H	0.208780	-1.164160	-0.258114
H186	H	0.708780	-0.664160	0.241886
N187	N	-0.040936	-0.896660	-0.604557
N188	N	0.459064	-0.396660	-0.104557
H189	H	-0.004440	-0.852548	-0.646268
H190	H	0.495560	-0.352548	-0.146268
H191	H	-0.073258	-0.862069	-0.557429
H192	H	0.426742	-0.362069	-0.057429
N193	N	0.010113	-0.951295	-0.244891
N194	N	0.510113	-0.451295	0.255109
H195	H	0.017856	-0.959582	-0.173598
H196	H	0.517856	-0.459582	0.326402
H197	H	-0.050947	-0.969114	-0.262460
H198	H	0.449053	-0.469114	0.237540
H199	H	0.259808	-1.218863	-0.408848
H200	H	0.759808	-0.718863	0.091152
H201	H	0.259819	-1.218893	-0.591176
H202	H	0.759819	-0.718893	-0.091176
H203	H	0.208772	-1.164221	-0.741944
H204	H	0.708772	-0.664221	-0.241944
