data_functionalizedCrystal
_audit_creation_method	'MofGen! by Chris Wilmer'
_symmetry_space_group_name_H-M	'P1'
_symmetry_Int_Tables_number	1
_symmetry_cell_setting	triclinic
loop_
_symmetry_equiv_pos_as_xyz
  x,y,z
_cell_length_a	19.188924
_cell_length_b	16.109295
_cell_length_c	18.266242
_cell_angle_alpha	90.006012
_cell_angle_beta	89.992796
_cell_angle_gamma	96.699425
loop_
_atom_site_label
_atom_site_type_symbol
_atom_site_fract_x
_atom_site_fract_y
_atom_site_fract_z
O1	O	0.089726	-1.102840	-0.060834
O2	O	0.423060	-0.769507	0.272499
O3	O	0.756393	-0.436174	0.605832
O4	O	0.100899	-0.860740	-0.060847
O5	O	0.434232	-0.527407	0.272486
O6	O	0.767566	-0.194074	0.605819
O7	O	-0.006327	-0.988780	-0.060832
O8	O	0.327006	-0.655446	0.272501
O9	O	0.660340	-0.322113	0.605835
O10	O	0.196952	-0.974801	-0.060850
O11	O	0.530286	-0.641467	0.272483
O12	O	0.863619	-0.308134	0.605817
O13	O	-0.006330	-0.988758	0.060930
O14	O	0.327003	-0.655425	0.394263
O15	O	0.660336	-0.322091	0.727597
O16	O	0.100896	-0.860718	0.060915
O17	O	0.434229	-0.527385	0.394248
O18	O	0.767563	-0.194052	0.727581
O19	O	0.089723	-1.102818	0.060928
O20	O	0.423057	-0.769485	0.394261
O21	O	0.756390	-0.436152	0.727594
Zn22	Zn	0.095309	-0.981765	0.080253
Zn23	Zn	0.428642	-0.648432	0.413587
Zn24	Zn	0.761976	-0.315098	0.746920
Zn25	Zn	0.095313	-0.981794	-0.080173
Zn26	Zn	0.428646	-0.648460	0.253160
Zn27	Zn	0.761980	-0.315127	0.586493
O28	O	0.196949	-0.974779	0.060912
O29	O	0.530283	-0.641446	0.394245
O30	O	0.863616	-0.308112	0.727579
C31	C	0.100446	-0.829756	0.000032
C32	C	0.433779	-0.496423	0.333365
C33	C	0.767112	-0.163089	0.666699
C34	C	0.099091	-0.737465	0.000028
C35	C	0.432424	-0.404132	0.333361
C36	C	0.765757	-0.070798	0.666694
C37	C	-0.032341	-0.988317	0.000050
C38	C	0.300993	-0.654984	0.333383
C39	C	0.634326	-0.321650	0.666716
C40	C	-0.109849	-0.986961	0.000052
C41	C	0.223485	-0.653628	0.333385
C42	C	0.556818	-0.320294	0.666718
C43	C	0.159565	-0.514990	0.000030
C44	C	0.492899	-0.181656	0.333363
C45	C	0.826232	0.151677	0.666697
C46	C	0.158287	-0.428273	0.000035
C47	C	0.491620	-0.094940	0.333368
C48	C	0.824954	0.238393	0.666701
C49	C	0.031069	-0.448573	0.000043
C50	C	0.364402	-0.115240	0.333376
C51	C	0.697736	0.218094	0.666709
C52	C	0.032348	-0.535288	0.000043
C53	C	0.365681	-0.201954	0.333377
C54	C	0.699015	0.131379	0.666710
C55	C	0.096598	-0.568493	0.000033
C56	C	0.429932	-0.235160	0.333367
C57	C	0.763265	0.098173	0.666700
C58	C	0.094041	-0.395062	0.000037
C59	C	0.427374	-0.061729	0.333371
C60	C	0.760707	0.271604	0.666704
C61	C	0.092654	-0.301041	0.000042
C62	C	0.425988	0.032293	0.333375
C63	C	0.759321	0.365626	0.666709
C64	C	0.097985	-0.662521	0.000030
C65	C	0.431319	-0.329188	0.333363
C66	C	0.764652	0.004146	0.666696
C67	C	-0.146247	-0.986340	-0.066321
C68	C	0.187086	-0.653007	0.267012
C69	C	0.520419	-0.319673	0.600346
C70	C	-0.219073	-0.985054	-0.066327
C71	C	0.114260	-0.651721	0.267007
C72	C	0.447594	-0.318387	0.600340
C73	C	-0.255499	-0.984406	0.000044
C74	C	0.077834	-0.651073	0.333377
C75	C	0.411167	-0.317739	0.666711
C76	C	-0.219091	-0.985022	0.066426
C77	C	0.114242	-0.651689	0.399759
C78	C	0.447575	-0.318356	0.733092
C79	C	-0.146266	-0.986300	0.066429
C80	C	0.187067	-0.652967	0.399763
C81	C	0.520401	-0.319633	0.733096
N82	N	-0.375059	-1.029704	0.049445
N83	N	-0.041725	-0.696370	0.382778
N84	N	0.291608	-0.363037	0.716111
N85	N	-0.444240	-1.028492	0.049437
N86	N	-0.110906	-0.695159	0.382770
N87	N	0.222427	-0.361825	0.716103
C88	C	-0.474917	-0.980555	0.000037
C89	C	-0.141584	-0.647222	0.333370
C90	C	0.191749	-0.313888	0.666704
N91	N	-0.433801	-0.933886	-0.049366
N92	N	-0.100468	-0.600553	0.283968
N93	N	0.232865	-0.267219	0.617301
N94	N	-0.364614	-0.935102	-0.049360
N95	N	-0.031281	-0.601768	0.283974
N96	N	0.302052	-0.268435	0.617307
C97	C	-0.334466	-0.983020	0.000047
C98	C	-0.001133	-0.649687	0.333381
C99	C	0.332201	-0.316353	0.666714
C100	C	-0.590282	-0.978538	-0.066346
C101	C	-0.256948	-0.645205	0.266987
C102	C	0.076385	-0.311872	0.600320
C103	C	-0.663108	-0.977247	-0.066349
C104	C	-0.329775	-0.643914	0.266984
C105	C	0.003558	-0.310580	0.600317
C106	C	-0.663126	-0.977224	0.066405
C107	C	-0.329792	-0.643890	0.399738
C108	C	0.003541	-0.310557	0.733071
C109	C	-0.590300	-0.978507	0.066406
C110	C	-0.256966	-0.645173	0.399739
C111	C	0.076367	-0.311840	0.733072
C112	C	-0.553883	-0.979168	0.000028
C113	C	-0.220549	-0.645834	0.333361
C114	C	0.112784	-0.312501	0.666695
C115	C	0.222963	-0.975242	0.000029
C116	C	0.556296	-0.641908	0.333362
C117	C	0.889630	-0.308575	0.666696
C118	C	0.300471	-0.976598	0.000022
C119	C	0.633804	-0.643264	0.333355
C120	C	0.967138	-0.309931	0.666689
C121	C	0.090181	-0.133802	0.000046
C122	C	0.423514	0.199531	0.333379
C123	C	0.756848	0.532865	0.666712
C124	C	0.091548	-0.226091	0.000043
C125	C	0.424882	0.107242	0.333376
C126	C	0.758215	0.440576	0.666710
N127	N	0.095306	-0.981752	0.189740
N128	N	0.428639	-0.648418	0.523074
N129	N	0.761973	-0.315085	0.856407
N130	N	0.095311	-0.981814	-0.189660
N131	N	0.428644	-0.648480	0.143673
N132	N	0.761977	-0.315147	0.477006
C133	C	0.137668	-1.032012	0.228042
C134	C	0.471001	-0.698679	0.561375
C135	C	0.804335	-0.365346	0.894709
C136	C	0.137666	-1.032026	0.304687
C137	C	0.471000	-0.698693	0.638020
C138	C	0.804333	-0.365359	0.971354
C139	C	0.095310	-0.981764	0.343027
C140	C	0.428643	-0.648430	0.676361
C141	C	0.761977	-0.315097	1.009694
C142	C	0.052939	-0.931500	0.304716
C143	C	0.386273	-0.598166	0.638050
C144	C	0.719606	-0.264833	0.971383
C145	C	0.052937	-0.931494	0.228073
C146	C	0.386271	-0.598160	0.561406
C147	C	0.719604	-0.264827	0.894740
N148	N	0.093421	-0.908950	0.463376
N149	N	0.426755	-0.575617	0.796710
N150	N	0.760088	-0.242283	1.130043
N151	N	0.093427	-0.908958	0.536184
N152	N	0.426760	-0.575624	0.869518
N153	N	0.760094	-0.242291	1.202851
C154	C	0.095313	-0.981780	0.573950
C155	C	0.428646	-0.648447	0.907283
C156	C	0.761979	-0.315113	1.240616
N157	N	0.097206	-1.054595	0.536156
N158	N	0.430539	-0.721262	0.869490
N159	N	0.763872	-0.387928	1.202823
N160	N	0.097203	-1.054586	0.463342
N161	N	0.430537	-0.721253	0.796675
N162	N	0.763870	-0.387919	1.130008
C163	C	0.095307	-0.981765	0.426134
C164	C	0.428641	-0.648432	0.759468
C165	C	0.761974	-0.315098	1.092801
C166	C	0.137675	-1.032060	0.695358
C167	C	0.471008	-0.698727	1.028692
C168	C	0.804342	-0.365393	1.362025
C169	C	0.137668	-1.032076	0.772005
C170	C	0.471001	-0.698742	1.105338
C171	C	0.804335	-0.365409	1.438671
C172	C	0.052945	-0.931542	0.772033
C173	C	0.386279	-0.598208	1.105366
C174	C	0.719612	-0.264875	1.438699
C175	C	0.052948	-0.931534	0.695388
C176	C	0.386282	-0.598201	1.028721
C177	C	0.719615	-0.264867	1.362055
C178	C	0.095317	-0.981792	0.657055
C179	C	0.428650	-0.648458	0.990389
C180	C	0.761984	-0.315125	1.323722
H181	H	0.211882	-0.542023	0.000027
H182	H	0.545215	-0.208689	0.333361
H183	H	0.878549	0.124644	0.666694
F184	F	-0.257859	-0.984327	0.137062
F185	F	0.075475	-0.650994	0.470395
F186	F	0.408808	-0.317660	0.803729
F187	F	-0.551521	-0.979237	-0.136990
F188	F	-0.218187	-0.645903	0.196343
F189	F	0.115146	-0.312570	0.529676
F190	F	-0.701888	-0.976530	0.137042
F191	F	-0.368554	-0.643196	0.470376
F192	F	-0.035221	-0.309863	0.803709
F193	F	-0.037307	-0.413225	0.000050
F194	F	0.296026	-0.079892	0.333384
F195	F	0.629360	0.253441	0.666717
H196	H	0.018455	-0.890603	0.664202
H197	H	0.351788	-0.557269	0.997536
H198	H	0.685122	-0.223936	1.330869
F199	F	0.182755	-1.085577	0.812768
F200	F	0.516088	-0.752244	1.146101
F201	F	0.849422	-0.418910	1.479435
H202	H	-0.116630	-0.986802	0.120480
H203	H	0.216703	-0.653469	0.453813
H204	H	0.550037	-0.320135	0.787146
H205	H	0.172174	-1.072984	0.664146
H206	H	0.505507	-0.739650	0.997480
H207	H	0.838840	-0.406317	1.330813
H208	H	-0.248714	-0.984543	-0.120377
H209	H	0.084619	-0.651210	0.212956
H210	H	0.417952	-0.317877	0.546290
H211	H	0.018457	-0.890618	0.803249
H212	H	0.351791	-0.557285	1.136582
H213	H	0.685124	-0.223951	1.469915
H214	H	0.209561	-0.384713	0.000033
H215	H	0.542894	-0.051380	0.333367
H216	H	0.876228	0.281953	0.666700
H217	H	-0.018930	-0.578853	0.000048
H218	H	0.314403	-0.245520	0.333382
H219	H	0.647736	0.087813	0.666715
F220	F	-0.107493	-0.987039	-0.136966
F221	F	0.225840	-0.653706	0.196367
F222	F	0.559173	-0.320373	0.529700
F223	F	0.182772	-1.085488	0.187250
F224	F	0.516105	-0.752155	0.520583
F225	F	0.849438	-0.418822	0.853917
F226	F	-0.701846	-0.976580	-0.136996
F227	F	-0.368512	-0.643247	0.196337
F228	F	-0.035179	-0.309914	0.529670
F229	F	0.182755	-1.085523	0.345459
F230	F	0.516088	-0.752190	0.678792
F231	F	0.849422	-0.418857	1.012125
H232	H	-0.560664	-0.979019	0.120454
H233	H	-0.227331	-0.645686	0.453787
H234	H	0.106002	-0.312353	0.787120
H235	H	0.018452	-0.890577	0.335938
H236	H	0.351785	-0.557243	0.669271
H237	H	0.685119	-0.223910	1.002605
F238	F	0.007851	-0.877993	0.187308
F239	F	0.341184	-0.544660	0.520642
F240	F	0.674517	-0.211327	0.853975
