data_functionalizedCrystal
_audit_creation_method	'MofGen! by Chris Wilmer'
_symmetry_space_group_name_H-M	'P1'
_symmetry_Int_Tables_number	1
_symmetry_cell_setting	triclinic
loop_
_symmetry_equiv_pos_as_xyz
  x,y,z
_cell_length_a	10.685980
_cell_length_b	25.639240
_cell_length_c	10.685880
_cell_angle_alpha	94.327944
_cell_angle_beta	80.918858
_cell_angle_gamma	94.398495
loop_
_atom_site_label
_atom_site_type_symbol
_atom_site_fract_x
_atom_site_fract_y
_atom_site_fract_z
Zn1	Zn	1.995601	-0.172273	-0.866571
Zn2	Zn	1.979126	-0.253501	-0.654267
Zn3	Zn	1.767041	-0.172301	-0.638044
Zn4	Zn	1.783229	-0.265901	-0.850163
O5	O	1.881249	-0.215994	-0.752261
O6	O	2.171053	-0.177847	-0.852065
O7	O	1.937323	-0.237552	-0.474492
O8	O	1.797481	-0.099130	-0.668436
O9	O	2.158948	-0.237525	-0.696086
O10	O	1.965403	-0.099110	-0.836334
O11	O	1.781505	-0.177894	-0.462573
O12	O	1.591552	-0.189918	-0.652526
O13	O	1.825070	-0.258659	-1.029963
O14	O	1.603444	-0.258686	-0.808369
O15	O	1.981099	-0.189871	-1.042018
O16	O	1.953019	-0.328313	-0.680176
O17	O	1.809094	-0.337423	-0.824100
C18	C	1.551439	-0.225651	-0.726907
C19	C	1.410347	-0.229796	-0.716090
C20	C	1.881062	-0.351839	-0.752148
C21	C	1.881102	-0.409952	-0.752151
C22	C	1.968738	-0.770268	-0.839836
C23	C	1.968777	-0.824872	-0.839864
O24	O	2.043067	-0.853072	-0.914298
N25	N	1.881435	-0.852231	-0.752398
C26	C	1.794039	-0.824985	-0.664905
O27	O	1.719750	-0.853271	-0.590511
C28	C	1.793995	-0.770382	-0.664883
C29	C	1.881351	-0.743025	-0.752347
C30	C	2.056086	-0.742910	-0.927293
C31	C	2.056048	-0.688310	-0.927263
C32	C	1.968661	-0.661067	-0.839774
C33	C	1.881313	-0.688425	-0.752317
C34	C	1.706594	-0.743137	-0.577398
C35	C	1.706556	-0.688531	-0.577384
C36	C	1.793913	-0.661174	-0.664848
C37	C	1.793888	-0.606582	-0.664798
N38	N	1.881230	-0.579222	-0.752264
C39	C	1.968617	-0.606465	-0.839753
C40	C	1.794137	-0.939654	-0.664959
C41	C	1.794186	-0.994255	-0.664974
C42	C	1.968924	-0.994138	-0.839935
C43	C	1.968879	-0.939536	-0.839913
C44	C	1.881480	-0.912294	-0.752425
C45	C	1.968531	-0.491800	-0.839681
C46	C	1.968488	-0.437195	-0.839639
C47	C	1.793748	-0.437317	-0.664683
C48	C	1.793794	-0.491917	-0.664720
C49	C	1.881191	-0.519157	-0.752230
O50	O	1.719632	-0.578347	-0.590405
O51	O	2.042882	-0.578173	-0.914145
C52	C	2.212348	-0.206300	-0.777716
C53	C	2.353442	-0.202169	-0.788563
C54	C	1.906728	-0.225645	-1.083333
C55	C	1.917585	-0.229758	-1.224417
C56	C	1.881474	-0.079618	-0.752406
C57	C	1.881569	-0.021503	-0.752467
C58	C	1.855943	-0.206341	-0.422483
C59	C	1.845332	-0.202073	-0.281420
H60	H	2.039690	-0.513973	-0.910948
O61	O	2.001471	-0.261754	-1.294821
C62	C	2.125549	-0.245682	-1.272274
H63	H	2.120881	-0.222731	-1.176216
H64	H	2.182074	-0.281623	-1.272200
H65	H	2.174026	-0.219699	-1.350170
H66	H	1.412663	-0.175342	-0.858882
O67	O	1.761431	-0.170104	-1.210922
C68	C	1.637359	-0.186158	-1.233522
H69	H	1.633664	-0.229167	-1.269509
H70	H	1.568009	-0.180977	-1.141474
H71	H	1.610077	-0.161311	-1.307854
O72	O	1.339658	-0.261864	-0.632363
C73	C	1.268475	-0.300001	-0.698651
H74	H	1.316210	-0.305044	-0.801643
H75	H	1.263250	-0.338914	-0.652430
H76	H	1.168408	-0.286884	-0.695484
H77	H	2.039629	-0.414922	-0.910863
H78	H	2.127178	-0.666039	-0.998487
H79	H	2.040012	-0.917265	-0.911134
H80	H	2.127247	-0.765086	-0.998544
O81	O	2.053759	-1.020557	-0.925102
C82	C	2.035613	-1.011712	-1.049441
H83	H	1.986993	-0.973587	-1.048267
H84	H	2.131563	-1.008781	-1.113475
H85	H	1.973613	-1.045614	-1.087124
O86	O	1.709164	-1.020812	-0.580123
C87	C	1.584746	-1.012005	-0.598009
H88	H	1.586053	-1.000123	-0.698903
H89	H	1.521209	-1.049453	-0.582213
H90	H	1.546368	-0.979320	-0.527376
O91	O	1.709414	-0.913129	-0.579906
C92	C	1.775419	-0.877038	-0.503505
H93	H	1.875022	-0.867295	-0.555742
H94	H	1.722374	-0.839685	-0.482447
H95	H	1.782232	-0.894948	-0.410547
H96	H	1.635459	-0.765403	-0.506174
O97	O	1.621602	-0.662148	-0.492274
C98	C	1.544494	-0.698010	-0.415115
H99	H	1.596191	-0.735263	-0.414778
H100	H	1.523312	-0.679743	-0.314053
H101	H	1.451630	-0.708022	-0.454119
H102	H	1.722670	-0.514192	-0.593491
O103	O	1.708912	-0.410769	-0.579825
C104	C	1.727637	-0.356709	-0.598549
H105	H	1.776680	-0.350860	-0.699724
H106	H	1.631881	-0.338523	-0.582560
H107	H	1.789491	-0.337029	-0.528505
