data_functionalizedCrystal
_audit_creation_method	'MofGen! by Chris Wilmer'
_symmetry_space_group_name_H-M	'P1'
_symmetry_Int_Tables_number	1
_symmetry_cell_setting	triclinic
loop_
_symmetry_equiv_pos_as_xyz
  x,y,z
_cell_length_a	17.077404
_cell_length_b	18.050590
_cell_length_c	17.077396
_cell_angle_alpha	89.970225
_cell_angle_beta	89.980499
_cell_angle_gamma	90.018777
loop_
_atom_site_label
_atom_site_type_symbol
_atom_site_fract_x
_atom_site_fract_y
_atom_site_fract_z
Zn1	Zn	1.200078	-0.295655	-0.443836
Zn2	Zn	1.533412	0.037678	-0.110502
Zn3	Zn	1.866745	0.371012	0.222831
Zn4	Zn	1.199995	-0.419852	-0.312567
Zn5	Zn	1.533329	-0.086519	0.020767
Zn6	Zn	1.866662	0.246814	0.354100
Zn7	Zn	1.068810	-0.295681	-0.312584
Zn8	Zn	1.402143	0.037652	0.020750
Zn9	Zn	1.735477	0.370986	0.354083
Zn10	Zn	1.068788	-0.419808	-0.443790
Zn11	Zn	1.402121	-0.086475	-0.110457
Zn12	Zn	1.735455	0.246859	0.222876
O13	O	1.134418	-0.357749	-0.378194
O14	O	1.467751	-0.024416	-0.044861
O15	O	1.801085	0.308918	0.288473
O16	O	1.309914	-0.312138	-0.426434
O17	O	1.643247	0.021196	-0.093101
O18	O	1.976581	0.354529	0.240232
O19	O	1.182568	-0.403410	-0.202722
O20	O	1.515901	-0.070077	0.130611
O21	O	1.849234	0.263257	0.463945
O22	O	1.086267	-0.191753	-0.330021
O23	O	1.419600	0.141580	0.003313
O24	O	1.752934	0.474914	0.336646
O25	O	1.309853	-0.403385	-0.329992
O26	O	1.643187	-0.070051	0.003342
O27	O	1.976520	0.263282	0.336675
O28	O	1.182709	-0.191734	-0.426451
O29	O	1.516043	0.141600	-0.093118
O30	O	1.849376	0.474933	0.240216
O31	O	1.086187	-0.312182	-0.202734
O32	O	1.419520	0.021151	0.130599
O33	O	1.752853	0.354485	0.463932
O34	O	0.958960	-0.312139	-0.329977
O35	O	1.292294	0.021194	0.003357
O36	O	1.625627	0.354527	0.336690
O37	O	1.086229	-0.403310	-0.553643
O38	O	1.419563	-0.069976	-0.220310
O39	O	1.752896	0.263357	0.113023
O40	O	0.958944	-0.403335	-0.426374
O41	O	1.292277	-0.070002	-0.093040
O42	O	1.625611	0.263332	0.240293
O43	O	1.182688	-0.312095	-0.553677
O44	O	1.516021	0.021239	-0.220343
O45	O	1.849354	0.354572	0.112990
O46	O	1.182546	-0.523771	-0.329948
O47	O	1.515880	-0.190438	0.003386
O48	O	1.849213	0.142896	0.336719
O49	O	1.086149	-0.523739	-0.426357
O50	O	1.419482	-0.190405	-0.093024
O51	O	1.752816	0.142928	0.240310
C52	C	0.930470	-0.357736	-0.378172
C53	C	1.263803	-0.024402	-0.044839
C54	C	1.597137	0.308931	0.288494
C55	C	0.843220	-0.357748	-0.378182
C56	C	1.176554	-0.024414	-0.044848
C57	C	1.509887	0.308919	0.288485
C58	C	0.802242	-0.405305	-0.428295
C59	C	1.135576	-0.071972	-0.094962
C60	C	1.468909	0.261362	0.238372
C61	C	0.720262	-0.405307	-0.428308
C62	C	1.053595	-0.071973	-0.094974
C63	C	1.386928	0.261360	0.238359
C64	C	0.679261	-0.357754	-0.378202
C65	C	1.012594	-0.024421	-0.044869
C66	C	1.345928	0.308912	0.288464
C67	C	0.720245	-0.310192	-0.328087
C68	C	1.053578	0.023142	0.005247
C69	C	1.386911	0.356475	0.338580
C70	C	0.802224	-0.310187	-0.328079
C71	C	1.135557	0.023146	0.005255
C72	C	1.468890	0.356480	0.338588
C73	C	0.549375	-0.310206	-0.328106
C74	C	0.882708	0.023127	0.005228
C75	C	1.216041	0.356460	0.338561
C76	C	0.467390	-0.310212	-0.328112
C77	C	0.800723	0.023121	0.005221
C78	C	1.134057	0.356455	0.338554
C79	C	0.467413	-0.405326	-0.428335
C80	C	0.800746	-0.071993	-0.095001
C81	C	1.134079	0.261341	0.238332
C82	C	0.549392	-0.405321	-0.428327
C83	C	0.882725	-0.071988	-0.094993
C84	C	1.216058	0.261345	0.238340
C85	C	0.590370	-0.357760	-0.378210
C86	C	0.923703	-0.024426	-0.044876
C87	C	1.257037	0.308907	0.288457
C88	C	1.134358	-0.550701	-0.378163
C89	C	1.467691	-0.217368	-0.044829
C90	C	1.801024	0.115965	0.288504
C91	C	1.134404	-0.633247	-0.378176
C92	C	1.467737	-0.299914	-0.044842
C93	C	1.801070	0.033420	0.288491
C94	C	1.186934	-0.832688	-0.325821
C95	C	1.520267	-0.499355	0.007512
C96	C	1.853600	-0.166022	0.340845
C97	C	1.206108	-0.882019	-0.397464
C98	C	1.539442	-0.548686	-0.064131
C99	C	1.872775	-0.215352	0.269203
C100	C	1.134448	-0.784377	-0.378207
C101	C	1.467781	-0.451044	-0.044874
C102	C	1.801115	-0.117711	0.288460
C103	C	1.115353	-0.882128	-0.306596
C104	C	1.448687	-0.548795	0.026737
C105	C	1.782020	-0.215461	0.360070
C106	C	1.134493	-0.930362	-0.378231
C107	C	1.467826	-0.597029	-0.044898
C108	C	1.801159	-0.263696	0.288436
C109	C	1.153660	-0.832621	-0.449887
C110	C	1.486993	-0.499288	-0.116554
C111	C	1.820326	-0.165954	0.216779
C112	C	1.062871	-0.832726	-0.358971
C113	C	1.396205	-0.499392	-0.025638
C114	C	1.729538	-0.166059	0.307695
C115	C	1.082019	-0.882034	-0.430663
C116	C	1.415352	-0.548701	-0.097330
C117	C	1.748685	-0.215368	0.236003
C118	C	1.134424	-0.700279	-0.378192
C119	C	1.467758	-0.366946	-0.044859
C120	C	1.801091	-0.033612	0.288475
C121	C	1.134516	-1.014459	-0.378254
C122	C	1.467849	-0.681126	-0.044920
C123	C	1.801183	-0.347792	0.288413
C124	C	1.339162	-0.357763	-0.378216
C125	C	1.672495	-0.024430	-0.044883
C126	C	2.005829	0.308904	0.288450
C127	C	1.426412	-0.357769	-0.378226
C128	C	1.759745	-0.024436	-0.044892
C129	C	2.093079	0.308898	0.288441
C130	C	1.134465	-0.357694	-0.582938
C131	C	1.467799	-0.024361	-0.249605
C132	C	1.801132	0.308972	0.083728
C133	C	1.134486	-0.357671	-0.670188
C134	C	1.467819	-0.024338	-0.336855
C135	C	1.801152	0.308996	-0.003522
C136	C	1.134500	-0.164043	-0.378243
C137	C	1.467833	0.169290	-0.044909
C138	C	1.801167	0.502623	0.288424
C139	C	1.134535	-0.081498	-0.378263
C140	C	1.467868	0.251836	-0.044930
C141	C	1.801201	0.585169	0.288403
C142	C	1.184713	-0.310172	-0.711197
C143	C	1.518047	0.023162	-0.377864
C144	C	1.851380	0.356495	-0.044530
C145	C	1.184723	-0.310147	-0.793178
C146	C	1.518056	0.023186	-0.459844
C147	C	1.851389	0.356520	-0.126511
C148	C	1.134508	-0.357626	-0.834148
C149	C	1.467841	-0.024293	-0.500814
C150	C	1.801175	0.309041	-0.167481
C151	C	1.084275	-0.405127	-0.793133
C152	C	1.417608	-0.071794	-0.459800
C153	C	1.750941	0.261539	-0.126467
C154	C	1.084262	-0.405148	-0.711154
C155	C	1.417595	-0.071815	-0.377821
C156	C	1.750928	0.261519	-0.044488
C157	C	1.084306	-0.405083	-0.964003
C158	C	1.417640	-0.071750	-0.630670
C159	C	1.750973	0.261584	-0.297337
C160	C	1.084320	-0.405064	-1.045988
C161	C	1.417653	-0.071730	-0.712655
C162	C	1.750987	0.261603	-0.379321
C163	C	1.184767	-0.310082	-1.046027
C164	C	1.518101	0.023252	-0.712693
C165	C	1.851434	0.356585	-0.379360
C166	C	1.184754	-0.310102	-0.964048
C167	C	1.518088	0.023231	-0.630714
C168	C	1.851421	0.356564	-0.297381
C169	C	1.134522	-0.357605	-0.923039
C170	C	1.467855	-0.024272	-0.589706
C171	C	1.801189	0.309062	-0.256372
C172	C	1.134416	-0.357750	-0.174246
C173	C	1.467749	-0.024417	0.159087
C174	C	1.801082	0.308917	0.492420
C175	C	1.134548	-0.357564	-0.086997
C176	C	1.467881	-0.024231	0.246336
C177	C	1.801214	0.309103	0.579670
H178	H	0.835619	-0.444030	-0.469094
H179	H	1.168953	-0.110697	-0.135761
H180	H	1.502286	0.222636	0.197572
Br181	Br	1.252911	-0.245672	-0.908445
Br182	Br	1.586244	0.087661	-0.575112
Br183	Br	1.919577	0.420994	-0.241778
H184	H	0.434009	-0.271482	-0.287321
H185	H	0.767343	0.061852	0.046012
H186	H	1.100676	0.395185	0.379345
Br187	Br	1.180737	-0.796536	-0.550869
Br188	Br	1.514071	-0.463203	-0.217536
Br189	Br	1.847404	-0.129870	0.115797
Br190	Br	1.252943	-0.245617	-1.101680
Br191	Br	1.586277	0.087717	-0.768347
Br192	Br	1.919610	0.421050	-0.435014
Br193	Br	1.008070	-0.917924	-0.504599
Br194	Br	1.341404	-0.584590	-0.171265
Br195	Br	1.674737	-0.251257	0.162068
Br196	Br	1.016120	-0.469560	-0.848735
Br197	Br	1.349453	-0.136227	-0.515401
Br198	Br	1.682787	0.197107	-0.182068
H199	H	0.582736	-0.271470	-0.287302
H200	H	0.916070	0.061863	0.046031
H201	H	1.249403	0.395197	0.379365
H202	H	1.043353	-0.443819	-0.677766
H203	H	1.376687	-0.110486	-0.344433
H204	H	1.710020	0.222847	-0.011099
Br205	Br	0.961973	-0.796611	-0.331798
Br206	Br	1.295307	-0.463277	0.001535
Br207	Br	1.628640	-0.129944	0.334869
Br208	Br	1.088404	-0.918376	-0.205645
Br209	Br	1.421737	-0.585043	0.127688
Br210	Br	1.755071	-0.251709	0.461022
Br211	Br	1.252872	-0.245738	-0.655603
Br212	Br	1.586205	0.087596	-0.322269
Br213	Br	1.919539	0.420929	0.011064
Br214	Br	0.664602	-0.245648	-0.260093
Br215	Br	0.997935	0.087685	0.073240
Br216	Br	1.331268	0.421018	0.406574
H217	H	1.266659	-0.903674	-0.413749
H218	H	1.599992	-0.570340	-0.080416
H219	H	1.933325	-0.237007	0.252918
H220	H	0.582772	-0.444047	-0.469122
H221	H	0.916106	-0.110713	-0.135789
H222	H	1.249439	0.222620	0.197544
H223	H	1.225625	-0.271470	-0.826563
H224	H	1.558958	0.061864	-0.493230
H225	H	1.892292	0.395197	-0.159897
H226	H	1.043429	-0.443724	-1.079344
H227	H	1.376762	-0.110390	-0.746011
H228	H	1.710095	0.222943	-0.412677
Br229	Br	1.260931	-0.796572	-0.252057
Br230	Br	1.594265	-0.463239	0.081276
Br231	Br	1.927598	-0.129905	0.414609
H232	H	1.043389	-0.443753	-0.930617
H233	H	1.376723	-0.110420	-0.597283
H234	H	1.710056	0.222914	-0.263950
H235	H	0.835587	-0.271457	-0.287275
H236	H	1.168920	0.061876	0.046058
H237	H	1.502254	0.395210	0.379391
Br238	Br	0.411801	-0.469865	-0.496361
Br239	Br	0.745134	-0.136531	-0.163027
Br240	Br	1.078468	0.196802	0.170306
Br241	Br	0.664651	-0.469850	-0.496324
Br242	Br	0.997985	-0.136516	-0.162990
Br243	Br	1.331318	0.196817	0.170343
