data_functionalizedCrystal
_audit_creation_method	'MofGen! by Chris Wilmer'
_symmetry_space_group_name_H-M	'P1'
_symmetry_Int_Tables_number	1
_symmetry_cell_setting	triclinic
loop_
_symmetry_equiv_pos_as_xyz
  x,y,z
_cell_length_a	17.699103
_cell_length_b	10.489716
_cell_length_c	16.176319
_cell_angle_alpha	90.003464
_cell_angle_beta	89.998536
_cell_angle_gamma	83.910098
loop_
_atom_site_label
_atom_site_type_symbol
_atom_site_fract_x
_atom_site_fract_y
_atom_site_fract_z
O1	O	0.106679	1.692103	0.068750
O2	O	0.116721	1.320718	0.068754
O3	O	0.001580	1.516890	0.068736
O4	O	0.221820	1.495931	0.068768
O5	O	0.001601	1.516871	-0.068757
O6	O	0.116742	1.320699	-0.068739
O7	O	0.106700	1.692084	-0.068743
Cu8	Cu	0.111723	1.506390	-0.081295
Cu9	Cu	0.111698	1.506412	0.081306
O10	O	0.221841	1.495912	-0.068725
C11	C	0.115977	1.273190	0.000008
C12	C	0.113719	1.131601	0.000009
C13	C	0.184328	1.032624	0.000021
C14	C	0.147027	0.955957	-0.067780
C15	C	0.146990	0.955983	0.067778
C16	C	0.076448	1.056800	-0.067848
C17	C	0.076421	1.056830	0.067771
C18	C	0.039069	0.980214	-0.000046
C19	C	-0.026612	1.516125	-0.000013
C20	C	-0.110644	1.513860	-0.000020
C21	C	-0.626456	1.500010	0.074982
C22	C	-0.547499	1.502138	0.074975
C23	C	-0.508023	1.503188	0.000022
C24	C	-0.547508	1.502125	-0.074928
C25	C	-0.626464	1.500007	-0.074920
C26	C	-0.229086	1.510669	-0.074962
C27	C	-0.150124	1.512783	-0.074965
C28	C	-0.150121	1.512800	0.074932
C29	C	-0.229077	1.510681	0.074940
C30	C	-0.268556	1.509625	-0.000009
C31	C	-0.354171	1.507320	-0.000001
C32	C	-0.422409	1.505483	0.000013
C33	C	0.250032	1.496677	0.000026
C34	C	0.334064	1.498943	0.000038
C35	C	0.107444	1.739612	0.000005
C36	C	0.109701	1.881201	0.000010
N37	N	0.111740	1.506384	-0.195661
C38	C	0.065333	1.429210	-0.761057
C39	C	0.065339	1.429208	-0.674510
C40	C	0.111691	1.506418	-0.631236
C41	C	0.158035	1.583645	-0.674514
C42	C	0.158024	1.583654	-0.761059
C43	C	0.158077	1.583614	-0.325486
C44	C	0.158086	1.583596	-0.238934
C45	C	0.065392	1.429168	-0.238936
C46	C	0.065382	1.429176	-0.325481
C47	C	0.111722	1.506408	-0.368752
C48	C	0.111714	1.506412	-0.462596
C49	C	0.111704	1.506408	-0.537393
N50	N	0.111675	1.506429	0.195671
H51	H	-0.658592	1.499143	0.136017
H52	H	0.027640	1.366299	-0.360710
H53	H	0.195760	1.646534	-0.796290
Br54	Br	0.196677	0.882599	0.163300
Br55	Br	-0.493923	1.503594	0.176690
H56	H	0.027592	1.366330	-0.796284
Br57	Br	-0.096548	1.514206	-0.176693
Br58	Br	0.220936	1.688442	-0.615786
Br59	Br	0.286692	1.071866	-0.000068
H60	H	-0.022394	0.956918	-0.000094
H61	H	0.176843	0.911917	-0.125090
H62	H	0.046668	1.100658	-0.125224
H63	H	-0.515360	1.502988	-0.135955
H64	H	0.046629	1.100884	0.125084
H65	H	0.195833	1.646474	-0.203703
Br66	Br	-0.282649	1.509247	0.176665
Br67	Br	-0.096539	1.514250	0.176652
Br68	Br	-0.282654	1.509225	-0.176680
Br69	Br	-0.680046	1.498572	-0.176634
H70	H	0.027601	1.366333	-0.639281
H71	H	0.027657	1.366286	-0.203695
Br72	Br	0.220972	1.688420	-0.384199
