data_functionalizedCrystal
_audit_creation_method	'MofGen! by Chris Wilmer'
_symmetry_space_group_name_H-M	'P1'
_symmetry_Int_Tables_number	1
_symmetry_cell_setting	triclinic
loop_
_symmetry_equiv_pos_as_xyz
  x,y,z
_cell_length_a	18.215407
_cell_length_b	16.959454
_cell_length_c	18.215399
_cell_angle_alpha	89.976304
_cell_angle_beta	89.980167
_cell_angle_gamma	90.020523
loop_
_atom_site_label
_atom_site_type_symbol
_atom_site_fract_x
_atom_site_fract_y
_atom_site_fract_z
Zn1	Zn	1.125097	-0.314680	-0.416138
Zn2	Zn	1.125015	-0.446866	-0.293080
Zn3	Zn	1.002029	-0.314706	-0.293085
Zn4	Zn	1.002005	-0.446822	-0.416105
O5	O	1.063537	-0.380768	-0.354602
O6	O	1.228070	-0.332222	-0.399825
O7	O	1.108677	-0.429364	-0.190097
O8	O	1.018398	-0.204092	-0.309424
O9	O	1.228010	-0.429339	-0.309416
O10	O	1.108815	-0.204073	-0.399830
O11	O	1.018319	-0.332267	-0.190100
O12	O	0.899042	-0.332224	-0.309392
O13	O	1.018358	-0.429264	-0.519094
O14	O	0.899024	-0.429289	-0.399775
O15	O	1.108792	-0.332180	-0.519118
O16	O	1.108654	-0.557471	-0.309385
O17	O	1.018279	-0.557438	-0.399770
C18	C	0.872330	-0.380755	-0.354581
C19	C	0.790531	-0.380768	-0.354589
C20	C	0.602348	-0.431389	-0.401593
C21	C	0.525489	-0.431392	-0.401602
C22	C	0.525478	-0.330162	-0.307628
C23	C	0.602335	-0.330156	-0.307623
C24	C	0.640768	-0.380774	-0.354604
C25	C	0.487052	-0.380782	-0.354618
C26	C	0.403718	-0.380785	-0.354628
C27	C	0.724107	-0.380771	-0.354596
C28	C	1.063475	-0.586135	-0.354590
C29	C	1.063516	-0.673991	-0.354609
C30	C	1.016547	-1.045480	-0.401661
C31	C	1.110731	-1.045454	-0.307618
C32	C	1.110706	-0.962908	-0.307611
C33	C	1.063599	-0.921644	-0.354629
C34	C	1.016518	-0.962926	-0.401654
C35	C	1.157781	-0.921619	-0.260582
C36	C	1.157756	-0.839068	-0.260573
C37	C	1.110653	-0.797803	-0.307595
C38	C	1.063570	-0.839091	-0.354622
C39	C	1.016464	-0.797827	-0.401640
C40	C	0.969384	-0.839113	-0.448672
C41	C	0.969414	-0.921661	-0.448676
C42	C	1.110623	-0.715255	-0.307591
C43	C	1.016435	-0.715273	-0.401634
C44	C	1.255489	-0.380783	-0.354624
C45	C	1.337288	-0.380789	-0.354633
C46	C	1.063581	-0.380714	-0.546555
C47	C	1.063601	-0.380691	-0.628354
C48	C	1.063619	-0.174600	-0.354631
C49	C	1.063653	-0.086744	-0.354643
C50	C	1.110707	-0.330092	-0.816562
C51	C	1.110716	-0.330069	-0.893420
C52	C	1.016546	-0.431167	-0.893384
C53	C	1.016534	-0.431186	-0.816527
C54	C	1.063619	-0.380649	-0.778118
C55	C	1.063639	-0.380608	-0.931834
C56	C	1.063649	-0.380583	-1.015168
C57	C	1.063609	-0.380672	-0.694779
C58	C	1.063534	-0.380766	-0.163396
C59	C	1.063658	-0.380566	-0.081597
H60	H	0.633617	-0.288934	-0.269359
H61	H	0.978184	-0.472355	-0.785225
C62	C	1.161847	-0.275133	-0.774992
C63	C	1.203072	-0.230837	-0.825114
C64	C	1.250182	-0.180190	-0.786849
H65	H	1.193964	-0.305287	-0.745008
H66	H	1.133718	-0.240657	-0.745027
H67	H	1.231199	-0.265308	-0.855067
H68	H	1.170974	-0.200667	-0.855100
H69	H	1.222053	-0.145714	-0.756884
H70	H	1.282294	-0.210350	-0.756867
H71	H	1.278154	-0.150124	-0.820851
C72	C	1.161718	-0.275077	-0.935196
C73	C	1.120071	-0.224384	-0.979301
C74	C	1.167029	-0.173703	-1.017785
H75	H	1.193792	-0.305210	-0.965243
H76	H	1.189740	-0.244938	-0.901332
H77	H	1.092061	-0.254520	-1.013161
H78	H	1.087999	-0.194234	-0.949272
H79	H	1.195051	-0.143564	-0.983921
H80	H	1.199101	-0.203843	-1.047828
H81	H	1.138778	-0.139298	-1.047710
C82	C	0.965525	-1.090258	-0.452845
C83	C	0.981515	-1.070136	-0.525671
C84	C	0.934537	-1.111378	-0.572842
H85	H	0.916053	-1.076810	-0.442126
H86	H	0.972295	-1.145339	-0.446169
H87	H	0.974739	-1.015067	-0.532344
H88	H	1.030979	-1.083586	-0.536413
H89	H	0.941306	-1.166459	-0.566166
H90	H	0.885067	-1.097927	-0.562116
H91	H	0.945383	-1.097737	-0.622260
C92	C	0.483789	-0.275080	-0.256707
C93	C	0.502498	-0.196893	-0.272865
C94	C	0.464106	-0.146129	-0.225975
H95	H	0.496333	-0.286476	-0.207216
H96	H	0.432506	-0.282278	-0.263442
H97	H	0.553771	-0.189699	-0.266124
H98	H	0.489953	-0.185472	-0.322347
H99	H	0.412822	-0.153327	-0.232710
H100	H	0.476652	-0.157533	-0.176487
H101	H	0.476789	-0.093074	-0.236936
H102	H	0.978077	-0.681682	-0.439924
C103	C	0.644170	-0.486209	-0.452648
C104	C	0.688339	-0.441512	-0.499870
C105	C	0.726881	-0.491985	-0.546909
H106	H	0.610363	-0.516371	-0.480705
H107	H	0.674174	-0.520599	-0.424463
H108	H	0.658338	-0.407137	-0.528052
H109	H	0.722160	-0.411353	-0.471833
H110	H	0.756885	-0.526375	-0.518724
H111	H	0.693068	-0.522144	-0.574961
H112	H	0.756859	-0.461666	-0.578950
C113	C	0.965513	-0.486008	-0.935221
C114	C	0.975615	-0.475188	-1.010758
C115	C	0.928623	-0.525703	-1.049318
H116	H	0.916038	-0.474491	-0.922707
H117	H	0.976269	-0.539137	-0.922659
H118	H	0.964853	-0.422071	-1.023315
H119	H	1.025080	-0.486710	-1.023294
H120	H	0.939379	-0.578832	-1.036757
H121	H	0.879151	-0.514182	-1.036799
H122	H	0.935475	-0.518373	-1.100574
C123	C	1.208915	-0.794145	-0.209637
C124	C	1.256032	-0.746684	-0.251349
C125	C	1.303164	-0.705280	-0.204453
H126	H	1.237044	-0.830452	-0.181618
H127	H	1.180792	-0.761934	-0.177555
H128	H	1.284152	-0.778893	-0.283417
H129	H	1.227924	-0.710362	-0.279365
H130	H	1.275041	-0.673068	-0.172371
H131	H	1.331287	-0.741592	-0.176437
H132	H	1.335134	-0.673067	-0.232747
H133	H	0.931026	-0.805506	-0.486951
H134	H	0.494211	-0.472606	-0.439866
C135	C	0.918392	-0.966446	-0.499853
C136	C	0.934378	-0.946338	-0.572684
C137	C	0.887397	-0.987590	-0.619846
H138	H	0.868920	-0.952997	-0.489134
H139	H	0.925162	-1.021526	-0.493168
H140	H	0.927601	-0.891271	-0.579366
H141	H	0.983841	-0.959790	-0.583426
H142	H	0.894167	-1.042669	-0.613161
H143	H	0.837928	-0.974137	-0.609120
H144	H	0.898242	-0.973958	-0.669267
C145	C	1.161933	-1.090311	-0.256677
C146	C	1.209105	-1.137653	-0.298372
C147	C	1.256277	-1.178990	-0.251462
H148	H	1.133865	-1.122603	-0.224588
H149	H	1.190013	-1.053940	-0.228668
H150	H	1.181028	-1.174019	-0.326369
H151	H	1.237189	-1.105381	-0.330460
H152	H	1.284357	-1.142619	-0.223453
H153	H	1.228203	-1.211277	-0.219376
H154	H	1.288293	-1.211110	-0.279746
C155	C	1.208940	-0.966503	-0.209619
C156	C	1.256119	-1.013868	-0.251284
C157	C	1.303232	-1.055241	-0.204343
H158	H	1.180830	-0.998783	-0.177556
H159	H	1.237017	-0.930154	-0.181583
H160	H	1.228044	-1.050212	-0.279307
H161	H	1.284244	-0.981608	-0.283345
H162	H	1.331310	-1.018892	-0.176307
H163	H	1.275117	-1.087516	-0.172283
H164	H	1.335253	-1.087377	-0.232606
H165	H	1.148950	-0.681644	-0.269295
