data_functionalizedCrystal
_audit_creation_method	'MofGen! by Chris Wilmer'
_symmetry_space_group_name_H-M	'P1'
_symmetry_Int_Tables_number	1
_symmetry_cell_setting	triclinic
loop_
_symmetry_equiv_pos_as_xyz
  x,y,z
_cell_length_a	21.295418
_cell_length_b	25.639239
_cell_length_c	21.295411
_cell_angle_alpha	89.980474
_cell_angle_beta	89.956262
_cell_angle_gamma	90.054499
loop_
_atom_site_label
_atom_site_type_symbol
_atom_site_fract_x
_atom_site_fract_y
_atom_site_fract_z
Zn1	Zn	0.962320	-0.207990	-0.356243
Zn2	Zn	1.295653	0.125344	-0.022910
Zn3	Zn	1.628987	0.458677	0.310424
Zn4	Zn	0.962207	-0.295410	-0.250972
Zn5	Zn	1.295541	0.037924	0.082361
Zn6	Zn	1.628874	0.371257	0.415695
Zn7	Zn	0.857043	-0.208014	-0.250953
Zn8	Zn	1.190377	0.125319	0.082381
Zn9	Zn	1.523710	0.458652	0.415714
Zn10	Zn	0.856998	-0.295420	-0.356169
Zn11	Zn	1.190331	0.037913	-0.022835
Zn12	Zn	1.523664	0.371247	0.310498
O13	O	0.909642	-0.251708	-0.303584
O14	O	1.242975	0.081625	0.029749
O15	O	1.576309	0.414958	0.363083
O16	O	1.050395	-0.219572	-0.342318
O17	O	1.383728	0.113762	-0.008984
O18	O	1.717061	0.447095	0.324349
O19	O	0.948229	-0.283822	-0.162880
O20	O	1.281562	0.049511	0.170453
O21	O	1.614896	0.382844	0.503787
O22	O	0.871075	-0.134846	-0.264943
O23	O	1.204408	0.198488	0.068391
O24	O	1.537741	0.531821	0.401724
O25	O	1.050312	-0.283799	-0.264976
O26	O	1.383645	0.049535	0.068358
O27	O	1.716978	0.382868	0.401691
O28	O	0.948421	-0.134828	-0.342299
O29	O	1.281754	0.198506	-0.008965
O30	O	1.615088	0.531839	0.324368
O31	O	0.870965	-0.219613	-0.162866
O32	O	1.204299	0.113720	0.170468
O33	O	1.537632	0.447053	0.503801
O34	O	0.768948	-0.219623	-0.264871
O35	O	1.102281	0.113710	0.068463
O36	O	1.435614	0.447043	0.401796
O37	O	0.870997	-0.283816	-0.444268
O38	O	1.204330	0.049517	-0.110935
O39	O	1.537664	0.382850	0.222399
O40	O	0.768914	-0.283840	-0.342172
O41	O	1.102248	0.049493	-0.008839
O42	O	1.435581	0.382827	0.324494
O43	O	0.948377	-0.219582	-0.444322
O44	O	1.281710	0.113752	-0.110989
O45	O	1.615043	0.447085	0.222344
O46	O	0.948185	-0.368576	-0.264904
O47	O	1.281518	-0.035243	0.068430
O48	O	1.614852	0.298090	0.401763
O49	O	0.870888	-0.368584	-0.342191
O50	O	1.204221	-0.035251	-0.008858
O51	O	1.537554	0.298083	0.324476
C52	C	0.746090	-0.251736	-0.303512
C53	C	1.079424	0.081597	0.029822
C54	C	1.412757	0.414931	0.363155
C55	C	0.676122	-0.251760	-0.303496
C56	C	1.009456	0.081573	0.029838
C57	C	1.342789	0.414906	0.363171
C58	C	0.643255	-0.285242	-0.343686
C59	C	0.976588	0.048091	-0.010353
C60	C	1.309921	0.381424	0.322980
C61	C	0.577512	-0.285229	-0.343715
C62	C	0.910845	0.048104	-0.010381
C63	C	1.244179	0.381437	0.322952
C64	C	0.544640	-0.251740	-0.303541
C65	C	0.877973	0.081593	0.029793
C66	C	1.211306	0.414927	0.363126
C67	C	0.577515	-0.218252	-0.263347
C68	C	0.910849	0.115082	0.069986
C69	C	1.244182	0.448415	0.403320
C70	C	0.643257	-0.218262	-0.263325
C71	C	0.976590	0.115072	0.070009
C72	C	1.309923	0.448405	0.403342
N73	N	0.441365	-0.247648	-0.248483
N74	N	0.774698	0.085686	0.084850
N75	N	1.108031	0.419019	0.418184
N76	N	0.378913	-0.247641	-0.248506
N77	N	0.712246	0.085692	0.084827
N78	N	1.045580	0.419026	0.418160
C79	C	0.346565	-0.251707	-0.303608
C80	C	0.679898	0.081627	0.029726
C81	C	1.013232	0.414960	0.363059
N82	N	0.379028	-0.255789	-0.358686
N83	N	0.712361	0.077544	-0.025353
N84	N	1.045695	0.410877	0.307981
N85	N	0.441485	-0.255799	-0.358662
N86	N	0.774818	0.077535	-0.025328
N87	N	1.108152	0.410868	0.308005
C88	C	0.473354	-0.251725	-0.303561
C89	C	0.806688	0.081608	0.029772
C90	C	1.140021	0.414942	0.363106
C91	C	0.242412	-0.285176	-0.343832
C92	C	0.575745	0.048157	-0.010499
C93	C	0.909079	0.381490	0.322834
C94	C	0.176668	-0.285160	-0.343862
C95	C	0.510002	0.048173	-0.010528
C96	C	0.843335	0.381507	0.322805
C97	C	0.176673	-0.218185	-0.263489
C98	C	0.510006	0.115148	0.069845
C99	C	0.843339	0.448482	0.403178
C100	C	0.242415	-0.218199	-0.263465
C101	C	0.575749	0.115135	0.069868
C102	C	0.909082	0.448468	0.403202
C103	C	0.275281	-0.251697	-0.303636
C104	C	0.608614	0.081636	0.029697
C105	C	0.941948	0.414969	0.363031
C106	C	0.909536	-0.387551	-0.303555
C107	C	1.242870	-0.054218	0.029778
C108	C	1.576203	0.279116	0.363111
C109	C	0.909548	-0.445665	-0.303564
C110	C	1.242882	-0.112332	0.029769
C111	C	1.576215	0.221002	0.363103
C112	C	0.949996	-0.806011	-0.263409
C113	C	1.283329	-0.472678	0.069924
C114	C	1.616662	-0.139345	0.403258
C115	C	0.950020	-0.860616	-0.263418
C116	C	1.283353	-0.527282	0.069916
C117	C	1.616687	-0.193949	0.403249
O118	O	0.984300	-0.888838	-0.229245
O119	O	1.317633	-0.555505	0.104088
O120	O	1.650967	-0.222172	0.437422
N121	N	0.909753	-0.887947	-0.303626
N122	N	1.243086	-0.554614	0.029708
N123	N	1.576419	-0.221281	0.363041
C124	C	0.869463	-0.860672	-0.343833
C125	C	1.202796	-0.527339	-0.010499
C126	C	1.536129	-0.194005	0.322834
O127	O	0.835215	-0.888934	-0.378034
O128	O	1.168548	-0.555600	-0.044701
O129	O	1.501881	-0.222267	0.288632
C130	C	0.869442	-0.806069	-0.343827
C131	C	1.202775	-0.472735	-0.010494
C132	C	1.536109	-0.139402	0.322840
C133	C	0.909708	-0.778740	-0.303612
C134	C	1.243041	-0.445406	0.029722
C135	C	1.576374	-0.112073	0.363055
C136	C	0.990259	-0.778683	-0.223198
C137	C	1.323592	-0.445349	0.110136
C138	C	1.656925	-0.112016	0.443469
C139	C	0.990233	-0.724082	-0.223188
C140	C	1.323567	-0.390749	0.110145
C141	C	1.656900	-0.057415	0.443478
C142	C	0.949945	-0.696810	-0.263391
C143	C	1.283278	-0.363477	0.069942
C144	C	1.616612	-0.030144	0.403276
C145	C	0.909682	-0.724139	-0.303603
C146	C	1.243016	-0.390806	0.029731
C147	C	1.576349	-0.057473	0.363064
C148	C	0.829156	-0.778794	-0.384037
C149	C	1.162489	-0.445461	-0.050703
C150	C	1.495822	-0.112127	0.282630
C151	C	0.829139	-0.724187	-0.384028
C152	C	1.162472	-0.390854	-0.050695
C153	C	1.495805	-0.057520	0.282639
C154	C	0.869404	-0.696858	-0.343812
C155	C	1.202738	-0.363525	-0.010479
C156	C	1.536071	-0.030192	0.322854
C157	C	0.869369	-0.642267	-0.343796
C158	C	1.202702	-0.308934	-0.010463
C159	C	1.536035	0.024400	0.322871
N160	N	0.909636	-0.614935	-0.303588
N161	N	1.242969	-0.281602	0.029746
N162	N	1.576303	0.051731	0.363079
C163	C	0.949924	-0.642207	-0.263385
C164	C	1.283258	-0.308874	0.069948
C165	C	1.616591	0.024460	0.403281
C166	C	0.869510	-0.975343	-0.343842
C167	C	1.202844	-0.642009	-0.010509
C168	C	1.536177	-0.308676	0.322824
C169	C	0.869527	-1.029945	-0.343845
C170	C	1.202861	-0.696611	-0.010512
C171	C	1.536194	-0.363278	0.322821
C172	C	0.950086	-1.029885	-0.263431
C173	C	1.283419	-0.696552	0.069902
C174	C	1.616752	-0.363218	0.403236
C175	C	0.950065	-0.975282	-0.263425
C176	C	1.283398	-0.641948	0.069908
C177	C	1.616732	-0.308615	0.403241
C178	C	0.909778	-0.948011	-0.303634
C179	C	1.243111	-0.614678	0.029699
C180	C	1.576444	-0.281344	0.363032
C181	C	0.949868	-0.527542	-0.263369
C182	C	1.283201	-0.194209	0.069965
C183	C	1.616534	0.139125	0.403298
C184	C	0.949837	-0.472937	-0.263361
C185	C	1.283170	-0.139603	0.069972
C186	C	1.616503	0.193730	0.403305
C187	C	0.869281	-0.473001	-0.343778
C188	C	1.202614	-0.139668	-0.010445
C189	C	1.535948	0.193665	0.322889
C190	C	0.869309	-0.527602	-0.343783
C191	C	1.202642	-0.194269	-0.010450
C192	C	1.535976	0.139065	0.322883
C193	C	0.909607	-0.554871	-0.303577
C194	C	1.242941	-0.221538	0.029757
C195	C	1.576274	0.111796	0.363090
O196	O	0.835108	-0.614010	-0.377953
O197	O	1.168441	-0.280676	-0.044620
O198	O	1.501775	0.052657	0.288714
O199	O	0.984172	-0.613939	-0.229195
O200	O	1.317506	-0.280605	0.104138
O201	O	1.650839	0.052728	0.437471
C202	C	1.073832	-0.251681	-0.303657
C203	C	1.407166	0.081652	0.029676
C204	C	1.740499	0.414985	0.363010
C205	C	1.143801	-0.251670	-0.303688
C206	C	1.477134	0.081664	0.029645
C207	C	1.810467	0.414997	0.362978
C208	C	0.909694	-0.251697	-0.467774
C209	C	1.243028	0.081636	-0.134441
C210	C	1.576361	0.414969	0.198892
C211	C	0.909717	-0.251693	-0.537743
C212	C	1.243050	0.081641	-0.204409
C213	C	1.576383	0.414974	0.128924
C214	C	0.909766	-0.115335	-0.303627
C215	C	1.243099	0.217998	0.029707
C216	C	1.576432	0.551331	0.363040
C217	C	0.909818	-0.057221	-0.303645
C218	C	1.243151	0.276112	0.029688
C219	C	1.576485	0.609445	0.363022
C220	C	0.950007	-0.218244	-0.570639
C221	C	1.283340	0.115089	-0.237305
C222	C	1.616673	0.448423	0.096028
C223	C	0.950006	-0.218221	-0.636381
C224	C	1.283339	0.115112	-0.303048
C225	C	1.616672	0.448445	0.030286
C226	C	0.909721	-0.251657	-0.669225
C227	C	1.243055	0.081677	-0.335892
C228	C	1.576388	0.415010	-0.002558
C229	C	0.869424	-0.285108	-0.636321
C230	C	1.202757	0.048226	-0.302988
C231	C	1.536090	0.381559	0.030346
C232	C	0.869421	-0.285126	-0.570580
C233	C	1.202755	0.048208	-0.237246
C234	C	1.536088	0.381541	0.096087
N235	N	0.904857	-0.297396	-0.772441
N236	N	1.238190	0.035937	-0.439108
N237	N	1.571524	0.369271	-0.105774
N238	N	0.904863	-0.297377	-0.834892
N239	N	1.238196	0.035956	-0.501559
N240	N	1.571530	0.369289	-0.168226
C241	C	0.909725	-0.251604	-0.867300
C242	C	1.243059	0.081730	-0.533967
C243	C	1.576392	0.415063	-0.200633
N244	N	0.914594	-0.205848	-0.834897
N245	N	1.247927	0.127485	-0.501563
N246	N	1.581261	0.460818	-0.168230
N247	N	0.914591	-0.205867	-0.772440
N248	N	1.247925	0.127466	-0.439106
N249	N	1.581258	0.460799	-0.105773
C250	C	0.909719	-0.251641	-0.740511
C251	C	1.243053	0.081693	-0.407177
C252	C	1.576386	0.415026	-0.073844
C253	C	0.950017	-0.218128	-0.971482
C254	C	1.283350	0.115206	-0.638148
C255	C	1.616683	0.448539	-0.304815
C256	C	0.950011	-0.218104	-1.037225
C257	C	1.283345	0.115229	-0.703892
C258	C	1.616678	0.448562	-0.370559
C259	C	0.869433	-0.284995	-1.037164
C260	C	1.202766	0.048338	-0.703831
C261	C	1.536099	0.381672	-0.370497
C262	C	0.869435	-0.285014	-0.971422
C263	C	1.202768	0.048320	-0.638088
C264	C	1.536101	0.381653	-0.304755
C265	C	0.909730	-0.251581	-0.938584
C266	C	1.243063	0.081752	-0.605251
C267	C	1.576397	0.415086	-0.271918
C268	C	0.909626	-0.251682	-0.140032
C269	C	1.242960	0.081652	0.193301
C270	C	1.576293	0.414985	0.526634
C271	C	0.909726	-0.251539	-0.070065
C272	C	1.243059	0.081794	0.263269
C273	C	1.576393	0.415128	0.596602
H274	H	0.269176	-0.190937	-0.230734
H275	H	0.602510	0.142397	0.102599
H276	H	0.935843	0.475730	0.435933
C277	C	0.784818	-0.694193	-0.428262
C278	C	1.118152	-0.360859	-0.094929
C279	C	1.451485	-0.027526	0.238404
N280	N	0.751435	-0.671602	-0.461579
N281	N	1.084769	-0.338269	-0.128245
N282	N	1.418102	-0.004935	0.205088
H283	H	0.836622	-0.312329	-0.663067
H284	H	1.169955	0.021004	-0.329734
H285	H	1.503289	0.354338	0.003600
C286	C	0.825120	-0.321775	-1.073289
C287	C	1.158453	0.011559	-0.739955
C288	C	1.491786	0.344892	-0.406622
N289	N	0.791742	-0.349478	-1.100501
N290	N	1.125075	-0.016144	-0.767167
N291	N	1.458408	0.317189	-0.433834
C292	C	0.278566	-0.322019	-0.388028
C293	C	0.611900	0.011314	-0.054695
C294	C	0.945233	0.344648	0.278639
N295	N	0.305796	-0.349768	-0.421318
N296	N	0.639130	-0.016435	-0.087985
N297	N	0.972463	0.316898	0.245349
C298	C	0.825114	-0.321813	-0.935234
C299	C	1.158448	0.011521	-0.601901
C300	C	1.491781	0.344854	-0.268568
N301	N	0.791729	-0.349530	-0.907979
N302	N	1.125062	-0.016196	-0.574645
N303	N	1.458395	0.317137	-0.241312
H304	H	0.982819	-0.190863	-1.064008
H305	H	1.316153	0.142470	-0.730675
H306	H	1.649486	0.475803	-0.397342
H307	H	0.836477	-0.450788	-0.376509
H308	H	1.169810	-0.117455	-0.043175
H309	H	1.503143	0.215878	0.290158
C310	C	0.679403	-0.322090	-0.387878
C311	C	1.012736	0.011243	-0.054545
C312	C	1.346070	0.344577	0.278789
N313	N	0.706631	-0.349844	-0.421164
N314	N	1.039964	-0.016510	-0.087831
N315	N	1.373298	0.316823	0.245503
H316	H	0.149909	-0.190915	-0.230781
H317	H	0.483242	0.142419	0.102552
H318	H	0.816575	0.475752	0.435885
H319	H	0.982818	-0.191020	-0.543907
H320	H	1.316151	0.142314	-0.210573
H321	H	1.649484	0.475647	0.122760
C322	C	0.679412	-0.181430	-0.219106
C323	C	1.012745	0.151903	0.114227
C324	C	1.346079	0.485237	0.447560
N325	N	0.706645	-0.153689	-0.185799
N326	N	1.039979	0.179644	0.147535
N327	N	1.373312	0.512977	0.480868
H328	H	0.149909	-0.312424	-0.376594
H329	H	0.483242	0.020909	-0.043261
H330	H	0.816575	0.354243	0.290073
C331	C	0.825098	-0.321924	-0.534393
C332	C	1.158432	0.011409	-0.201060
C333	C	1.491765	0.344742	0.132274
N334	N	0.791715	-0.349643	-0.507136
N335	N	1.125048	-0.016309	-0.173803
N336	N	1.458382	0.317024	0.159530
C337	C	0.994409	-1.059894	-0.219212
C338	C	1.327742	-0.726561	0.114121
C339	C	1.661075	-0.393228	0.447455
N340	N	1.027792	-1.082499	-0.185909
N341	N	1.361125	-0.749166	0.147424
N342	N	1.694458	-0.415832	0.480757
C343	C	0.825013	-0.557664	-0.388020
C344	C	1.158346	-0.224331	-0.054686
C345	C	1.491680	0.109002	0.278647
N346	N	0.791653	-0.580304	-0.421344
N347	N	1.124986	-0.246971	-0.088011
N348	N	1.458320	0.086363	0.245322
H349	H	0.550746	-0.312494	-0.376445
H350	H	0.884079	0.020839	-0.043112
H351	H	1.217413	0.354173	0.290222
C352	C	0.994336	-0.181347	-0.935358
C353	C	1.327670	0.151987	-0.602025
C354	C	1.661003	0.485320	-0.268692
N355	N	1.027717	-0.153642	-0.908152
N356	N	1.361051	0.179691	-0.574819
N357	N	1.694384	0.513025	-0.241485
H358	H	0.982813	-0.190981	-0.663170
H359	H	1.316147	0.142353	-0.329837
H360	H	1.649480	0.475686	0.003496
C361	C	0.994131	-0.442878	-0.219116
C362	C	1.327464	-0.109545	0.114217
C363	C	1.660797	0.223788	0.447550
N364	N	1.027492	-0.420240	-0.185792
N365	N	1.360825	-0.086907	0.147542
N366	N	1.694159	0.246427	0.480875
C367	C	0.541355	-0.181413	-0.219156
C368	C	0.874688	0.151920	0.114177
C369	C	1.208021	0.485253	0.447511
N370	N	0.514118	-0.153664	-0.185871
N371	N	0.847452	0.179669	0.147462
N372	N	1.180785	0.513002	0.480796
C373	C	1.034524	-0.694028	-0.178943
C374	C	1.367857	-0.360694	0.154391
C375	C	1.701191	-0.027361	0.487724
N376	N	1.067884	-0.671394	-0.145613
N377	N	1.401218	-0.338061	0.187720
N378	N	1.734551	-0.004727	0.521054
C379	C	0.994194	-0.557530	-0.219136
C380	C	1.327527	-0.224197	0.114198
C381	C	1.660861	0.109137	0.447531
N382	N	1.027577	-0.580117	-0.185815
N383	N	1.360911	-0.246783	0.147518
N384	N	1.694244	0.086550	0.480851
C385	C	1.034579	-0.808673	-0.178964
C386	C	1.367913	-0.475340	0.154369
C387	C	1.701246	-0.142006	0.487703
N388	N	1.067960	-0.831258	-0.145640
N389	N	1.401294	-0.497925	0.187693
N390	N	1.734627	-0.164591	0.521026
H391	H	0.836733	-1.052191	-0.376587
H392	H	1.170066	-0.718858	-0.043254
H393	H	1.503400	-0.385525	0.290080
C394	C	0.994362	-0.945225	-0.219188
C395	C	1.327695	-0.611892	0.114146
C396	C	1.661028	-0.278558	0.447479
N397	N	1.027729	-0.922589	-0.185867
N398	N	1.361062	-0.589256	0.147467
N399	N	1.694396	-0.255922	0.480800
H400	H	0.836698	-0.953141	-0.376584
H401	H	1.170032	-0.619808	-0.043250
H402	H	1.503365	-0.286475	0.290083
H403	H	0.796364	-0.801036	-0.416781
H404	H	1.129697	-0.467703	-0.083448
H405	H	1.463031	-0.134369	0.249885
