data_functionalizedCrystal
_audit_creation_method	'MofGen! by Chris Wilmer'
_symmetry_space_group_name_H-M	'P1'
_symmetry_Int_Tables_number	1
_symmetry_cell_setting	triclinic
loop_
_symmetry_equiv_pos_as_xyz
  x,y,z
_cell_length_a	16.992694
_cell_length_b	18.266242
_cell_length_c	16.974813
_cell_angle_alpha	93.660911
_cell_angle_beta	87.024634
_cell_angle_gamma	90.003271
loop_
_atom_site_label
_atom_site_type_symbol
_atom_site_fract_x
_atom_site_fract_y
_atom_site_fract_z
O1	O	1.040217	0.070720	0.167651
O2	O	1.373550	0.404053	0.500985
O3	O	1.706883	0.737387	0.834318
O4	O	0.811933	0.070633	0.165812
O5	O	1.145267	0.403966	0.499145
O6	O	1.478600	0.737299	0.832479
O7	O	0.932438	0.063877	0.052030
O8	O	1.265772	0.397210	0.385363
O9	O	1.599105	0.730543	0.718697
O10	O	0.919712	0.077476	0.281433
O11	O	1.253045	0.410809	0.614766
O12	O	1.586378	0.744143	0.948100
O13	O	0.932418	-0.057886	0.052022
O14	O	1.265751	0.275448	0.385356
O15	O	1.599084	0.608781	0.718689
O16	O	0.811913	-0.051130	0.165804
O17	O	1.145246	0.282204	0.499138
O18	O	1.478580	0.615537	0.832471
O19	O	1.040196	-0.051042	0.167644
O20	O	1.373530	0.282291	0.500977
O21	O	1.706863	0.615624	0.834310
Zn22	Zn	0.926051	-0.070418	0.166723
Zn23	Zn	1.259385	0.262915	0.500056
Zn24	Zn	1.592718	0.596248	0.833389
Zn25	Zn	0.926078	0.090009	0.166733
Zn26	Zn	1.259412	0.423342	0.500066
Zn27	Zn	1.592745	0.756676	0.833399
O28	O	0.919691	-0.044286	0.281426
O29	O	1.253025	0.289047	0.614759
O30	O	1.586358	0.622380	0.948092
C31	C	0.782713	0.009614	0.163442
C32	C	1.116046	0.342947	0.496775
C33	C	1.449380	0.676281	0.830109
C34	C	0.695676	0.009204	0.156382
C35	C	1.029010	0.342537	0.489716
C36	C	1.362343	0.675871	0.823049
N37	N	0.926039	-0.179906	0.166716
N38	N	1.259372	0.153428	0.500049
N39	N	1.592705	0.486761	0.833383
C40	C	0.645363	0.013241	0.224498
C41	C	0.978696	0.346575	0.557832
C42	C	1.312030	0.679908	0.891165
C43	C	0.563583	0.012838	0.217860
C44	C	0.896917	0.346171	0.551194
C45	C	1.230250	0.679505	0.884527
C46	C	0.532119	0.008402	0.143106
C47	C	0.865452	0.341735	0.476439
C48	C	1.198786	0.675069	0.809772
C49	C	0.582439	0.004362	0.074985
C50	C	0.915772	0.337695	0.408318
C51	C	1.249106	0.671029	0.741652
C52	C	0.664217	0.004761	0.081624
C53	C	0.997550	0.338094	0.414957
C54	C	1.330884	0.671427	0.748290
C55	C	0.288551	0.006751	0.115591
C56	C	0.621884	0.340085	0.448924
C57	C	0.955217	0.673418	0.782258
C58	C	0.206766	0.006355	0.108957
C59	C	0.540100	0.339689	0.442291
C60	C	0.873433	0.673022	0.775624
C61	C	0.187917	0.014830	0.251833
C62	C	0.521250	0.348163	0.585167
C63	C	0.854583	0.681497	0.918500
C64	C	0.269697	0.015232	0.258466
C65	C	0.603030	0.348566	0.591799
C66	C	0.936364	0.681899	0.925132
C67	C	0.320010	0.011189	0.190345
C68	C	0.653343	0.344522	0.523678
C69	C	0.986676	0.677855	0.857011
N70	N	0.448528	0.007992	0.136319
N71	N	0.781861	0.341325	0.469652
N72	N	1.115194	0.674658	0.802986
N73	N	0.403600	0.011594	0.197132
N74	N	0.736933	0.344927	0.530466
N75	N	1.070266	0.678260	0.863799
C76	C	0.979416	-0.221205	0.116361
C77	C	1.312749	0.112129	0.449694
C78	C	1.646082	0.445462	0.783027
C79	C	0.979421	-0.297850	0.116357
C80	C	1.312754	0.035484	0.449691
C81	C	1.646087	0.368817	0.783024
C82	C	0.926056	-0.333192	0.166723
C83	C	1.259389	0.000141	0.500057
C84	C	1.592723	0.333474	0.833390
C85	C	0.872669	-0.291884	0.217082
C86	C	1.206002	0.041449	0.550415
C87	C	1.539336	0.374783	0.883749
C88	C	0.872660	-0.215241	0.217078
C89	C	1.205994	0.118093	0.550411
C90	C	1.539327	0.451426	0.883745
N91	N	0.916001	-0.449414	0.236053
N92	N	1.249335	-0.116081	0.569386
N93	N	1.582668	0.217253	0.902720
N94	N	0.916015	-0.522222	0.236054
N95	N	1.249348	-0.188889	0.569387
N96	N	1.582681	0.144445	0.902721
C97	C	0.926078	-0.564114	0.166736
C98	C	1.259411	-0.230780	0.500070
C99	C	1.592745	0.102553	0.833403
N100	N	0.936144	-0.530447	0.097415
N101	N	1.269477	-0.197114	0.430749
N102	N	1.602810	0.136219	0.764082
N103	N	0.936135	-0.457632	0.097415
N104	N	1.269468	-0.124299	0.430748
N105	N	1.602801	0.209034	0.764082
C106	C	0.926059	-0.416299	0.166732
C107	C	1.259393	-0.082965	0.500066
C108	C	1.592726	0.250368	0.833399
C109	C	0.979464	-0.688520	0.116373
C110	C	1.312797	-0.355187	0.449706
C111	C	1.646130	-0.021854	0.783040
C112	C	0.979463	-0.765167	0.116368
C113	C	1.312796	-0.431834	0.449702
C114	C	1.646130	-0.098500	0.783035
C115	C	0.872715	-0.759199	0.217100
C116	C	1.206048	-0.425866	0.550433
C117	C	1.539382	-0.092533	0.883767
C118	C	0.872712	-0.682555	0.217098
C119	C	1.206045	-0.349221	0.550431
C120	C	1.539378	-0.015888	0.883764
C121	C	0.926090	-0.647220	0.166735
C122	C	1.259423	-0.313886	0.500069
C123	C	1.592757	0.019447	0.833402
C124	C	1.069416	0.009978	0.170013
C125	C	1.402750	0.343311	0.503347
C126	C	1.736083	0.676645	0.836680
C127	C	1.156453	0.010393	0.177073
C128	C	1.489786	0.343726	0.510406
C129	C	1.823120	0.677060	0.843740
C130	C	0.931944	0.001249	0.022537
C131	C	1.265277	0.334582	0.355870
C132	C	1.598610	0.667916	0.689204
C133	C	0.930491	-0.003955	-0.065332
C134	C	1.263824	0.329379	0.268002
C135	C	1.597158	0.662712	0.601335
N136	N	0.926097	0.199496	0.166734
N137	N	1.259430	0.532829	0.500067
N138	N	1.592764	0.866163	0.833400
C139	C	0.929822	0.059973	-0.106604
C140	C	1.263155	0.393306	0.226729
C141	C	1.596488	0.726640	0.560063
C142	C	0.928452	0.055081	-0.189166
C143	C	1.261785	0.388414	0.144168
C144	C	1.595118	0.721748	0.477501
C145	C	0.927757	-0.013739	-0.230454
C146	C	1.261090	0.319595	0.102879
C147	C	1.594423	0.652928	0.436213
C148	C	0.928424	-0.077671	-0.189176
C149	C	1.261757	0.255662	0.144158
C150	C	1.595091	0.588996	0.477491
C151	C	0.929788	-0.072779	-0.106615
C152	C	1.263122	0.260555	0.226718
C153	C	1.596455	0.593888	0.560051
C154	C	0.923670	-0.035488	-0.477374
C155	C	1.257003	0.297845	-0.144041
C156	C	1.590337	0.631178	0.189293
C157	C	0.922308	-0.040376	-0.559941
C158	C	1.255641	0.292957	-0.226607
C159	C	1.588975	0.626291	0.106726
C160	C	0.922334	0.092377	-0.559925
C161	C	1.255667	0.425710	-0.226591
C162	C	1.589001	0.759044	0.106742
C163	C	0.923703	0.097263	-0.477363
C164	C	1.257036	0.430597	-0.144029
C165	C	1.590370	0.763930	0.189304
C166	C	0.924366	0.033331	-0.436092
C167	C	1.257699	0.366664	-0.102758
C168	C	1.591033	0.699998	0.230575
N169	N	0.926359	-0.018741	-0.314845
N170	N	1.259692	0.314593	0.018488
N171	N	1.593026	0.647926	0.351821
N172	N	0.925758	0.038334	-0.351701
N173	N	1.259092	0.371667	-0.018368
N174	N	1.592425	0.705000	0.314966
C175	C	0.920186	0.018343	0.310918
C176	C	1.253519	0.351676	0.644252
C177	C	1.586852	0.685010	0.977585
C178	C	0.921638	0.023551	0.398787
C179	C	1.254972	0.356885	0.732121
C180	C	1.588305	0.690218	1.065454
H181	H	0.670974	0.016854	0.285371
H182	H	1.004308	0.350187	0.618705
H183	H	1.337641	0.683521	0.952038
H184	H	0.522621	0.016126	0.273328
H185	H	0.855954	0.349460	0.606661
H186	H	1.189288	0.682793	0.939994
H187	H	0.930391	0.116014	-0.072993
H188	H	1.263725	0.449347	0.260340
H189	H	1.597058	0.782680	0.593674
H190	H	0.927854	-0.133706	-0.222799
H191	H	1.261187	0.199628	0.110534
H192	H	1.594520	0.532961	0.443868
H193	H	1.022925	-0.659750	0.075362
H194	H	1.356259	-0.326416	0.408696
H195	H	1.689592	0.006917	0.742029
F196	F	0.342087	0.002448	0.043090
F197	F	0.675420	0.335781	0.376423
F198	F	1.008754	0.669114	0.709756
H199	H	0.930322	-0.124835	-0.073012
H200	H	1.263656	0.208498	0.260322
H201	H	1.596989	0.541831	0.593655
H202	H	0.927910	0.107138	-0.222766
H203	H	1.261243	0.440471	0.110567
H204	H	1.594576	0.773804	0.443901
H205	H	0.924270	0.153304	-0.443751
H206	H	1.257603	0.486637	-0.110418
H207	H	1.590937	0.819970	0.222915
H208	H	0.921793	0.144427	-0.593536
H209	H	1.255126	0.477760	-0.260203
H210	H	1.588459	0.811093	0.073130
H211	H	0.829217	-0.320664	0.258089
H212	H	1.162551	0.012670	0.591423
H213	H	1.495884	0.346003	0.924756
F214	F	0.548950	-0.000364	-0.004575
F215	F	0.882283	0.332970	0.328758
F216	F	1.215617	0.666303	0.662092
F217	F	0.921573	-0.113627	-0.603881
F218	F	1.254906	0.219706	-0.270548
F219	F	1.588239	0.553040	0.062785
F220	F	0.303177	0.019957	0.338029
F221	F	0.636510	0.353291	0.671363
F222	F	0.969844	0.686624	1.004696
F223	F	0.134365	0.019132	0.324327
F224	F	0.467698	0.352465	0.657660
F225	F	0.801032	0.685798	0.990994
F226	F	0.717764	0.000461	0.009125
F227	F	1.051098	0.333794	0.342459
F228	F	1.384431	0.667127	0.675792
H229	H	0.181152	0.002744	0.048080
H230	H	0.514485	0.336077	0.381414
H231	H	0.847819	0.669410	0.714747
H232	H	0.924225	-0.087547	-0.443782
H233	H	1.257559	0.245787	-0.110449
H234	H	1.590892	0.579120	0.222885
H235	H	1.022878	-0.192437	0.075351
H236	H	1.356211	0.140896	0.408684
H237	H	1.689544	0.474229	0.742018
H238	H	0.829193	-0.181614	0.258084
H239	H	1.162527	0.151719	0.591417
H240	H	1.495860	0.485053	0.924751
F241	F	1.036235	-0.341810	0.062760
F242	F	1.369568	-0.008477	0.396093
F243	F	1.702902	0.324857	0.729426
H244	H	1.022927	-0.798794	0.075359
H245	H	1.356260	-0.465460	0.408692
H246	H	1.689593	-0.132127	0.742025
F247	F	0.815916	-0.796810	0.270698
F248	F	1.149249	-0.463477	0.604031
F249	F	1.482582	-0.130143	0.937364
H250	H	0.829250	-0.648927	0.258105
H251	H	1.162584	-0.315593	0.591438
H252	H	1.495917	0.017740	0.924772
