data_functionalizedCrystal
_audit_creation_method	'MofGen! by Chris Wilmer'
_symmetry_space_group_name_H-M	'P1'
_symmetry_Int_Tables_number	1
_symmetry_cell_setting	triclinic
loop_
_symmetry_equiv_pos_as_xyz
  x,y,z
_cell_length_a	12.759401
_cell_length_b	12.645329
_cell_length_c	12.759393
_cell_angle_alpha	89.968574
_cell_angle_beta	89.981433
_cell_angle_gamma	90.017022
loop_
_atom_site_label
_atom_site_type_symbol
_atom_site_fract_x
_atom_site_fract_y
_atom_site_fract_z
Zn1	Zn	1.606231	-0.422004	-0.593984
Zn2	Zn	1.606116	-0.599308	-0.418305
Zn3	Zn	1.430533	-0.422056	-0.418324
Zn4	Zn	1.430512	-0.599223	-0.593946
O5	O	1.518348	-0.510648	-0.506140
O6	O	1.753237	-0.445537	-0.570688
O7	O	1.582785	-0.575852	-0.271286
O8	O	1.453898	-0.273702	-0.441649
O9	O	1.753152	-0.575802	-0.441617
O10	O	1.582982	-0.273664	-0.570706
O11	O	1.453785	-0.445626	-0.271300
O12	O	1.283510	-0.445544	-0.441612
O13	O	1.453861	-0.575657	-0.740972
O14	O	1.283494	-0.575707	-0.570641
O15	O	1.582961	-0.445455	-0.741000
O16	O	1.582764	-0.747644	-0.441580
O17	O	1.453749	-0.747581	-0.570623
C18	C	1.245381	-0.510623	-0.506125
C19	C	1.128604	-0.510638	-0.506144
C20	C	1.073779	-0.442937	-0.573455
C21	C	0.964055	-0.442957	-0.573462
C22	C	0.963990	-0.578388	-0.438843
C23	C	1.073712	-0.578362	-0.438832
C24	C	1.128671	-0.375213	-0.640767
C25	C	1.073846	-0.307508	-0.708085
C26	C	0.964122	-0.307528	-0.708092
C27	C	0.909223	-0.375253	-0.640781
C28	C	1.518270	-0.786077	-0.506118
C29	C	1.518333	-0.903907	-0.506144
C30	C	1.437131	-0.948795	-0.587278
C31	C	1.437468	-1.071354	-0.587630
C32	C	1.629255	-1.071673	-0.535976
C33	C	1.628688	-0.949075	-0.536531
C34	C	1.489784	-0.949207	-0.395046
C35	C	1.487438	-1.071816	-0.395672
C36	C	1.792381	-0.510673	-0.506155
C37	C	1.909158	-0.510684	-0.506161
C38	C	1.518422	-0.510541	-0.780173
C39	C	1.518453	-0.510495	-0.896950
C40	C	1.518455	-0.234142	-0.506184
C41	C	1.518501	-0.116312	-0.506203
C42	C	1.585685	-0.442692	-0.951828
C43	C	1.585710	-0.442654	-1.061552
C44	C	1.451268	-0.578230	-1.061510
C45	C	1.451239	-0.578262	-0.951788
C46	C	1.652899	-0.374925	-0.896990
C47	C	1.720137	-0.307118	-0.951869
C48	C	1.720162	-0.307080	-1.061593
C49	C	1.652949	-0.374849	-1.116438
C50	C	1.518335	-0.510678	-0.233172
C51	C	1.518508	-0.510425	-0.116396
H52	H	1.218014	-0.375188	-0.640769
Br53	Br	1.732982	-0.899564	-0.442287
Br54	Br	0.889485	-0.670297	-0.347500
Br55	Br	1.360059	-0.670198	-1.135943
H56	H	1.118352	-0.633490	-0.384021
H57	H	0.819878	-0.375242	-0.640769
Br58	Br	1.811413	-0.215059	-1.136069
Br59	Br	1.148348	-0.215587	-0.799419
Br60	Br	1.588358	-0.900824	-0.294298
H61	H	1.652963	-0.374800	-1.205783
Br62	Br	1.811329	-0.215130	-0.877439
Br63	Br	0.889719	-0.215634	-0.799438
Br64	Br	1.300596	-1.121676	-0.556632
Br65	Br	1.299749	-0.899817	-0.556626
Br66	Br	1.652876	-0.374980	-0.748079
H67	H	1.455822	-0.917909	-0.669131
Br68	Br	1.469024	-1.120112	-0.724877
H69	H	1.396477	-0.633457	-0.907105
Br70	Br	1.668967	-0.901265	-0.671876
H71	H	1.653887	-1.102291	-0.616305
Br72	Br	1.732932	-1.120170	-0.440525
H73	H	1.410350	-0.918387	-0.367875
Br74	Br	1.351580	-1.120458	-0.358238
H75	H	1.542285	-1.102435	-0.332023
