data_functionalizedCrystal
_audit_creation_method	'MofGen! by Chris Wilmer'
_symmetry_space_group_name_H-M	'P1'
_symmetry_Int_Tables_number	1
_symmetry_cell_setting	triclinic
loop_
_symmetry_equiv_pos_as_xyz
  x,y,z
_cell_length_a	14.044220
_cell_length_b	14.044220
_cell_length_c	9.798715
_cell_angle_alpha	89.995876
_cell_angle_beta	90.001156
_cell_angle_gamma	93.188878
loop_
_atom_site_label
_atom_site_type_symbol
_atom_site_fract_x
_atom_site_fract_y
_atom_site_fract_z
O1	O	1.277167	0.230165	-0.113351
O2	O	1.610500	0.563499	0.219982
O3	O	1.943834	0.896832	0.553315
O4	O	1.000495	0.221860	-0.113386
O5	O	1.333829	0.555193	0.219948
O6	O	1.667162	0.888526	0.553281
O7	O	1.134678	0.087677	-0.113355
O8	O	1.468012	0.421010	0.219978
O9	O	1.801345	0.754343	0.553311
O10	O	1.142984	0.364348	-0.113381
O11	O	1.476317	0.697682	0.219952
O12	O	1.809651	1.031015	0.553285
O13	O	1.134667	0.087676	0.113627
O14	O	1.468001	0.421009	0.446960
O15	O	1.801334	0.754342	0.780293
O16	O	1.000485	0.221858	0.113597
O17	O	1.333818	0.555192	0.446930
O18	O	1.667151	0.888525	0.780263
O19	O	1.277156	0.230164	0.113631
O20	O	1.610489	0.563497	0.446964
O21	O	1.943823	0.896831	0.780298
Zn22	Zn	1.138819	0.226011	0.149652
Zn23	Zn	1.472152	0.559344	0.482985
Zn24	Zn	1.805485	0.892678	0.816319
Zn25	Zn	1.138833	0.226013	-0.149407
Zn26	Zn	1.472166	0.559346	0.183927
Zn27	Zn	1.805500	0.892679	0.517260
O28	O	1.142973	0.364347	0.113601
O29	O	1.476306	0.697680	0.446934
O30	O	1.809640	1.031014	0.780267
C31	C	0.964868	0.218223	0.000101
C32	C	1.298201	0.551557	0.333435
C33	C	1.631535	0.884890	0.666768
C34	C	0.858725	0.207379	0.000088
C35	C	1.192059	0.540712	0.333422
C36	C	1.525392	0.874045	0.666755
C37	C	0.664388	0.187553	0.000117
C38	C	0.997721	0.520886	0.333451
C39	C	1.331054	0.854219	0.666784
C40	C	0.613258	0.264467	0.000116
C41	C	0.946591	0.597800	0.333449
C42	C	1.279924	0.931134	0.666783
C43	C	0.505122	0.253435	0.000132
C44	C	0.838455	0.586769	0.333465
C45	C	1.171788	0.920102	0.666799
C46	C	0.772534	0.198583	0.000101
C47	C	1.105867	0.531916	0.333435
C48	C	1.439200	0.865249	0.666768
C49	C	1.131037	0.052054	0.000136
C50	C	1.464371	0.385388	0.333469
C51	C	1.797704	0.718721	0.666802
C52	C	1.120193	-0.054088	0.000136
C53	C	1.453526	0.279245	0.333469
C54	C	1.786859	0.612578	0.666803
C55	C	1.100366	-0.248426	0.000114
C56	C	1.433700	0.084907	0.333447
C57	C	1.767033	0.418241	0.666781
C58	C	1.177281	-0.299556	0.000119
C59	C	1.510614	0.033777	0.333453
C60	C	1.843947	0.367111	0.666786
C61	C	1.166249	-0.407692	0.000107
C62	C	1.499583	-0.074359	0.333440
C63	C	1.832916	0.258974	0.666774
C64	C	1.111397	-0.140280	0.000126
C65	C	1.444730	0.193053	0.333460
C66	C	1.778063	0.526387	0.666793
C67	C	1.312783	0.233800	0.000141
C68	C	1.646117	0.567134	0.333474
C69	C	1.979450	0.900467	0.666808
C70	C	1.418926	0.244645	0.000145
C71	C	1.752259	0.577978	0.333478
C72	C	2.085593	0.911312	0.666811
C73	C	1.146614	0.399969	0.000107
C74	C	1.479948	0.733303	0.333440
C75	C	1.813281	1.066636	0.666773
C76	C	1.157459	0.506112	0.000097
C77	C	1.490792	0.839446	0.333431
C78	C	1.824125	1.172779	0.666764
N79	N	1.138816	0.226010	0.353752
N80	N	1.472149	0.559343	0.687085
N81	N	1.805482	0.892677	1.020418
N82	N	1.138843	0.226007	-0.353506
N83	N	1.472176	0.559340	-0.020173
N84	N	1.805509	0.892674	0.313160
C85	C	1.195135	0.169402	0.421541
C86	C	1.528468	0.502735	0.754875
C87	C	1.861802	0.836068	1.088208
C88	C	1.195150	0.169399	0.578704
C89	C	1.528483	0.502733	0.912037
C90	C	1.861817	0.836066	1.245371
H91	H	0.650697	0.338600	0.000102
H92	H	0.984030	0.671934	0.333436
H93	H	1.317364	1.005267	0.666769
H94	H	1.026239	-0.285863	0.000101
H95	H	1.359572	0.047470	0.333435
H96	H	1.692906	0.380804	0.666768
Cl97	Cl	1.291738	-0.241757	0.000148
Cl98	Cl	1.625072	0.091576	0.333482
Cl99	Cl	1.958405	0.424910	0.666815
Cl100	Cl	1.269332	0.094343	0.331520
Cl101	Cl	1.602665	0.427676	0.664853
Cl102	Cl	1.935998	0.761009	0.998186
H103	H	0.626951	0.113425	0.000132
H104	H	0.960284	0.446758	0.333465
H105	H	1.293617	0.780092	0.666798
Cl106	Cl	1.269603	0.094575	0.668703
Cl107	Cl	1.602936	0.427909	1.002036
Cl108	Cl	1.936269	0.761242	1.335370
Cl109	Cl	1.064380	0.300832	0.443774
Cl110	Cl	1.397713	0.634165	0.777107
Cl111	Cl	1.731047	0.967498	1.110441
H112	H	1.090627	0.274478	0.588206
H113	H	1.423960	0.607811	0.921540
H114	H	1.757293	0.941145	1.254873
