data_functionalizedCrystal
_audit_creation_method	'MofGen! by Chris Wilmer'
_symmetry_space_group_name_H-M	'P1'
_symmetry_Int_Tables_number	1
_symmetry_cell_setting	triclinic
loop_
_symmetry_equiv_pos_as_xyz
  x,y,z
_cell_length_a	16.120530
_cell_length_b	16.120484
_cell_length_c	16.120379
_cell_angle_alpha	90.213218
_cell_angle_beta	89.817857
_cell_angle_gamma	89.832673
loop_
_atom_site_label
_atom_site_type_symbol
_atom_site_fract_x
_atom_site_fract_y
_atom_site_fract_z
Zn1	Zn	1.228148	0.365922	-0.552154
Zn2	Zn	1.728148	0.865922	-0.052154
Zn3	Zn	1.227287	0.512081	-0.420095
Zn4	Zn	1.727287	1.012081	0.079905
Zn5	Zn	1.096051	0.366741	-0.406100
Zn6	Zn	1.596051	0.866741	0.093900
Zn7	Zn	1.082036	0.497916	-0.551395
Zn8	Zn	1.582036	0.997916	-0.051395
O9	O	1.158381	0.435665	-0.482436
O10	O	1.658381	0.935665	0.017564
O11	O	1.344105	0.390896	-0.540810
O12	O	1.844105	0.890896	-0.040810
O13	O	1.215384	0.499073	-0.302165
O14	O	1.715384	0.999073	0.197835
O15	O	1.119799	0.250567	-0.419935
O16	O	1.619799	0.750567	0.080065
O17	O	1.343473	0.498278	-0.443787
O18	O	1.843473	0.998278	0.056213
O19	O	1.216850	0.249965	-0.527240
O20	O	1.716850	0.749965	-0.027240
O21	O	1.118965	0.392292	-0.291883
O22	O	1.618965	0.892292	0.208117
O23	O	0.978121	0.378556	-0.419199
O24	O	1.478121	0.878556	0.080801
O25	O	1.095913	0.474135	-0.667569
O26	O	1.595913	0.974135	-0.167569
O27	O	0.967824	0.474929	-0.525947
O28	O	1.467824	0.974929	-0.025947
O29	O	1.203261	0.377160	-0.668127
O30	O	1.703261	0.877160	-0.168127
O31	O	1.201794	0.626267	-0.443051
O32	O	1.701794	1.126267	0.056949
O33	O	1.095079	0.615860	-0.539517
O34	O	1.595079	1.115860	-0.039517
C35	C	0.942876	0.425295	-0.470972
C36	C	1.442876	0.925295	0.029028
C37	C	0.850681	0.420878	-0.466089
C38	C	1.350681	0.920878	0.033911
C39	C	1.146844	0.651158	-0.492740
C40	C	1.646844	1.151158	0.007260
C41	C	1.141983	0.743349	-0.497179
C42	C	1.641983	1.243349	0.002821
C43	C	1.148119	0.423976	-0.698786
C44	C	1.648119	0.923976	-0.198786
C45	C	1.143747	0.418995	-0.790982
C46	C	1.643747	0.918995	-0.290982
C47	C	0.681878	0.412793	-0.457179
C48	C	1.181878	0.912793	0.042821
C49	C	0.635717	0.458594	-0.507756
C50	C	1.135717	0.958594	-0.007756
C51	C	0.541790	0.454096	-0.502799
C52	C	1.041790	0.954096	-0.002799
C53	C	0.775815	0.417290	-0.462135
C54	C	1.275815	0.917290	0.037865
C55	C	1.374726	0.446076	-0.493945
C56	C	1.874726	0.946076	0.006055
C57	C	1.466920	0.450512	-0.498849
C58	C	1.966920	0.950512	0.001151
C59	C	1.169984	0.219330	-0.472111
C60	C	1.669984	0.719330	0.027889
C61	C	1.174929	0.127141	-0.467711
C62	C	1.674929	0.627141	0.032289
C63	C	1.133112	0.912144	-0.505303
C64	C	1.633112	1.412144	-0.005303
C65	C	1.183797	0.958352	-0.459591
C66	C	1.683797	1.458352	0.040409
C67	C	1.178861	1.052275	-0.464110
C68	C	1.678861	1.552275	0.035890
C69	C	1.138047	0.818212	-0.500784
C70	C	1.638047	1.318212	-0.000784
C71	C	1.168653	0.447251	-0.266927
C72	C	1.668653	0.947251	0.233073
C73	C	1.173198	0.452006	-0.174729
C74	C	1.673198	0.952006	0.325271
C75	C	1.181510	0.460689	-0.005923
C76	C	1.681510	0.960689	0.494077
C77	C	1.135438	0.410315	0.040217
C78	C	1.635438	0.910315	0.540217
C79	C	1.140062	0.415146	0.134147
C80	C	1.640062	0.915146	0.634147
C81	C	1.176886	0.455859	-0.099861
C82	C	1.676886	0.955859	0.400139
H83	H	0.666739	0.501183	-0.554780
H84	H	1.166739	1.001183	-0.054780
H85	H	1.230895	0.927373	-0.417060
H86	H	1.730895	1.427373	0.082940
F87	F	0.641334	0.357129	-0.395719
F88	F	1.141334	0.857129	0.104281
F89	F	1.071553	0.952632	-0.560888
F90	F	1.571553	1.452632	-0.060888
F91	F	1.237601	0.521797	0.034648
F92	F	1.737601	1.021797	0.534648
F93	F	1.079342	0.349203	-0.000354
F94	F	1.579342	0.849203	0.499646
