data_functionalizedCrystal
_audit_creation_method	'MofGen! by Chris Wilmer'
_symmetry_space_group_name_H-M	'P1'
_symmetry_Int_Tables_number	1
_symmetry_cell_setting	triclinic
loop_
_symmetry_equiv_pos_as_xyz
  x,y,z
_cell_length_a	16.974897
_cell_length_b	15.455301
_cell_length_c	10.723024
_cell_angle_alpha	92.975888
_cell_angle_beta	83.933465
_cell_angle_gamma	96.650569
loop_
_atom_site_label
_atom_site_type_symbol
_atom_site_fract_x
_atom_site_fract_y
_atom_site_fract_z
O1	O	1.056313	0.146201	0.168999
O2	O	1.556313	0.646201	0.668999
O3	O	0.825520	0.130019	0.188144
O4	O	1.325520	0.630019	0.688144
O5	O	0.946240	0.138480	-0.003060
O6	O	1.446240	0.638480	0.496940
O7	O	0.935593	0.137740	0.360203
O8	O	1.435593	0.637740	0.860203
O9	O	0.939978	-0.006222	-0.012835
O10	O	1.439978	0.493778	0.487165
O11	O	0.819258	-0.014683	0.178369
O12	O	1.319258	0.485317	0.678369
O13	O	1.050051	0.001500	0.159224
O14	O	1.550051	0.501500	0.659224
Cu15	Cu	0.934083	-0.019804	0.167904
Cu16	Cu	1.434083	0.480196	0.667904
Cu17	Cu	0.941488	0.151323	0.179464
Cu18	Cu	1.441488	0.651323	0.679464
O19	O	0.929331	-0.006962	0.350428
O20	O	1.429331	0.493038	0.850428
C21	C	0.792837	0.055596	0.182343
C22	C	1.292837	0.555596	0.682343
C23	C	0.704782	0.049422	0.179608
C24	C	1.204782	0.549422	0.679608
N25	N	0.928881	-0.140165	0.159773
N26	N	1.428881	0.359835	0.659773
C27	C	0.666820	0.125392	0.183654
C28	C	1.166820	0.625392	0.683654
C29	C	0.584081	0.119577	0.181103
C30	C	1.084081	0.619577	0.681103
C31	C	0.539307	0.037793	0.174497
C32	C	1.039307	0.537793	0.674497
C33	C	0.577275	-0.038183	0.170455
C34	C	1.077275	0.461817	0.670455
C35	C	0.660012	-0.032368	0.173015
C36	C	1.160012	0.467632	0.673015
C37	C	0.291494	0.011944	0.166278
C38	C	0.791494	0.511944	0.666278
C39	C	0.208752	0.006134	0.163714
C40	C	0.708752	0.506134	0.663714
C41	C	0.215563	0.163896	0.174365
C42	C	0.715563	0.663896	0.674365
C43	C	0.298302	0.169703	0.176917
C44	C	0.798302	0.669703	0.676917
C45	C	0.336262	0.093728	0.172881
C46	C	0.836262	0.593728	0.672881
N47	N	0.454734	0.031848	0.171885
N48	N	0.954734	0.531848	0.671885
N49	N	0.420833	0.099673	0.175502
N50	N	0.920833	0.599673	0.675502
C51	C	0.975423	-0.182291	0.232577
C52	C	1.475423	0.317709	0.732577
C53	C	0.971499	-0.273374	0.226420
C54	C	1.471499	0.226626	0.726420
C55	C	0.921028	-0.322331	0.147464
C56	C	1.421028	0.177669	0.647464
C57	C	0.874484	-0.280199	0.074652
C58	C	1.374484	0.219801	0.574652
C59	C	0.878413	-0.189116	0.080803
C60	C	1.378413	0.310884	0.580803
C61	C	0.904081	-0.595102	0.120924
C62	C	1.404081	-0.095102	0.620924
C63	C	0.900154	-0.686190	0.114781
C64	C	1.400154	-0.186190	0.614781
C65	C	0.997171	-0.679360	0.266548
C66	C	1.497171	-0.179360	0.766548
C67	C	1.001091	-0.588276	0.272698
C68	C	1.501091	-0.088276	0.772698
C69	C	0.954550	-0.546152	0.199881
C70	C	1.454550	-0.046152	0.699881
N71	N	0.917014	-0.415433	0.141171
N72	N	1.417014	0.084567	0.641171
N73	N	0.958569	-0.453051	0.206167
N74	N	1.458569	0.046949	0.706167
C75	C	1.082734	0.075924	0.165025
C76	C	1.582734	0.575924	0.665025
C77	C	1.170789	0.082104	0.167760
C78	C	1.670789	0.582104	0.667760
N79	N	0.946697	0.271684	0.187585
N80	N	1.446697	0.771684	0.687585
C81	C	0.942334	0.066076	-0.054439
C82	C	1.442334	0.566076	0.445561
C83	C	0.940016	0.065916	-0.192969
C84	C	1.440016	0.565916	0.307031
C85	C	1.007565	0.070654	-0.268652
C86	C	1.507565	0.570654	0.231348
C87	C	1.005171	0.070489	-0.411830
C88	C	1.505171	0.570489	0.088170
C89	C	0.933237	0.065444	0.401807
C90	C	1.433237	0.565444	0.901807
C91	C	0.935555	0.065610	0.540337
C92	C	1.435555	0.565610	1.040337
H93	H	0.553175	0.181440	0.184397
H94	H	1.053175	0.681440	0.684397
O95	O	0.533881	-0.117677	0.163870
O96	O	1.033881	0.382323	0.663870
C97	C	0.560404	-0.163648	0.053264
C98	C	1.060404	0.336352	0.553264
H99	H	0.624242	-0.136803	0.020642
H100	H	1.124242	0.363197	0.520642
H101	H	0.558234	-0.235741	0.072761
H102	H	1.058234	0.264259	0.572761
H103	H	0.520187	-0.155575	-0.023050
H104	H	1.020187	0.344425	0.476950
H105	H	0.690919	-0.094231	0.169726
H106	H	1.190919	0.405769	0.669726
O107	O	0.858788	-0.554331	0.050158
O108	O	1.358788	-0.054331	0.550158
C109	C	0.813413	-0.617074	-0.020864
C110	C	1.313413	-0.117074	0.479136
H111	H	0.806267	-0.682302	0.026397
H112	H	1.306267	-0.182302	0.526397
H113	H	0.752144	-0.595148	-0.027081
H114	H	1.252144	-0.095148	0.472919
H115	H	0.845136	-0.624509	-0.119337
H116	H	1.345136	-0.124509	0.380663
H117	H	0.334752	0.236301	0.182287
H118	H	0.834752	0.736301	0.682287
H119	H	0.184647	0.225750	0.177654
H120	H	0.684647	0.725750	0.677654
H121	H	1.062997	0.074541	-0.476862
H122	H	1.562997	0.574541	0.023138
H123	H	0.880413	0.061743	-0.234173
H124	H	1.380413	0.561743	0.265827
H125	H	0.172296	-0.060468	0.158370
H126	H	0.672296	0.439532	0.658370
H127	H	0.877725	0.061548	-0.394639
H128	H	1.377725	0.561548	0.105361
O129	O	0.833079	-0.148241	0.010225
O130	O	1.333079	0.351759	0.510225
C131	C	0.751810	-0.176156	0.042947
C132	C	1.251810	0.323844	0.542947
H133	H	0.743605	-0.201690	0.141858
H134	H	1.243605	0.298310	0.641858
H135	H	0.715340	-0.119001	0.039561
H136	H	1.215340	0.380999	0.539561
H137	H	0.730769	-0.230347	-0.026116
H138	H	1.230769	0.269653	0.473884
O139	O	0.710186	0.204908	0.190131
O140	O	1.210186	0.704908	0.690131
C141	C	0.658934	0.270713	0.193128
C142	C	1.158934	0.770713	0.693128
H143	H	0.595893	0.243226	0.229207
H144	H	1.095893	0.743226	0.729207
H145	H	0.680514	0.327229	0.258129
H146	H	1.180514	0.827229	0.758129
H147	H	0.658953	0.294895	0.094476
H148	H	1.158953	0.794895	0.594476
H149	H	0.859051	-0.726049	0.050486
H150	H	1.359051	-0.226049	0.550486
H151	H	0.833394	-0.320066	0.010358
H152	H	1.333394	0.179934	0.510358
H153	H	0.322392	-0.049921	0.162983
H154	H	0.822392	0.450079	0.662983
H155	H	1.067168	0.074828	-0.227448
H156	H	1.567168	0.574828	0.272552
H157	H	1.016517	-0.142437	0.296878
H158	H	1.516517	0.357563	0.796878
O159	O	1.016734	-0.314159	0.297274
O160	O	1.516734	0.185841	0.797274
C161	C	1.062132	-0.251417	0.368265
C162	C	1.562132	0.248583	0.868265
H163	H	1.032140	-0.188796	0.379793
H164	H	1.532140	0.311204	0.879793
H165	H	1.066440	-0.277346	0.464636
H166	H	1.566440	0.222654	0.964636
H167	H	1.124524	-0.237374	0.317774
H168	H	1.624524	0.262626	0.817774
H169	H	1.042192	-0.548422	0.336988
H170	H	1.542192	-0.048422	0.836988
H171	H	1.035062	-0.713667	0.325831
H172	H	1.535062	-0.213667	0.825831
