data_functionalizedCrystal
_audit_creation_method	'MofGen! by Chris Wilmer'
_symmetry_space_group_name_H-M	'P1'
_symmetry_Int_Tables_number	1
_symmetry_cell_setting	triclinic
loop_
_symmetry_equiv_pos_as_xyz
  x,y,z
_cell_length_a	13.897449
_cell_length_b	12.827892
_cell_length_c	12.827885
_cell_angle_alpha	89.970214
_cell_angle_beta	90.020099
_cell_angle_gamma	89.983328
loop_
_atom_site_label
_atom_site_type_symbol
_atom_site_fract_x
_atom_site_fract_y
_atom_site_fract_z
Zn1	Zn	1.474712	0.415947	0.590872
Zn2	Zn	1.474614	0.590724	0.416132
Zn3	Zn	1.313403	0.416002	0.416143
Zn4	Zn	1.313389	0.590650	0.590830
O5	O	1.394030	0.503331	0.503494
O6	O	1.609681	0.439139	0.567705
O7	O	1.453194	0.567601	0.269897
O8	O	1.334848	0.269758	0.439343
O9	O	1.609609	0.567547	0.439325
O10	O	1.453361	0.269718	0.567716
O11	O	1.334753	0.439233	0.269905
O12	O	1.178420	0.439161	0.439302
O13	O	1.334824	0.567422	0.737071
O14	O	1.178410	0.567475	0.567644
O15	O	1.453347	0.439068	0.737102
O16	O	1.453181	0.736950	0.439284
O17	O	1.334730	0.736896	0.567633
C18	C	1.393969	0.774841	0.503476
C19	C	1.394032	0.890994	0.503503
C20	C	1.143415	0.503317	0.503470
C21	C	1.036201	0.503336	0.503485
C22	C	1.394095	0.503230	0.776064
C23	C	1.394123	0.503188	0.892218
C24	C	0.839906	0.503340	0.503512
C25	C	0.949139	0.503334	0.503494
C26	C	1.645623	0.503345	0.503519
C27	C	1.752836	0.503352	0.503529
C28	C	1.394116	0.230761	0.503535
C29	C	1.394153	0.114607	0.503553
C30	C	1.452715	0.942771	0.440062
C31	C	1.452781	1.062821	0.440088
C32	C	1.394020	0.503355	0.231984
C33	C	1.394179	0.503104	0.115832
C34	C	1.452779	0.439662	0.944018
C35	C	1.452809	0.439616	1.064068
H36	H	1.502911	0.898225	0.385731
F37	F	1.328475	1.056418	0.574546
F38	F	1.518447	1.121017	0.369088
H39	H	1.503029	0.385232	1.108615
H40	H	1.343844	0.935542	0.557840
F41	F	1.328508	0.574229	0.950414
H42	H	1.502970	0.385305	0.899489
H43	H	1.343963	0.557497	1.071291
