data_functionalizedCrystal
_audit_creation_method	'MofGen! by Chris Wilmer'
_symmetry_space_group_name_H-M	'P1'
_symmetry_Int_Tables_number	1
_symmetry_cell_setting	triclinic
loop_
_symmetry_equiv_pos_as_xyz
  x,y,z
_cell_length_a	6.817900
_cell_length_b	11.102188
_cell_length_c	12.200875
_cell_angle_alpha	92.493457
_cell_angle_beta	107.143593
_cell_angle_gamma	108.603875
loop_
_atom_site_label
_atom_site_type_symbol
_atom_site_fract_x
_atom_site_fract_y
_atom_site_fract_z
V1	V	-4.094460	-0.176128	-0.357661
O2	O	-4.053827	0.008167	-0.350853
O3	O	-4.071344	-0.348946	-0.355215
O4	O	-4.063800	-0.173549	-0.513649
O5	O	-4.061423	-0.168445	-0.191321
V6	V	-4.572513	-0.154068	-0.337765
O7	O	-4.367717	-0.224516	-0.401304
O8	O	-4.749453	-0.105680	-0.294123
O9	O	-4.372422	0.018750	-0.340211
O10	O	-4.730542	-0.338362	-0.344574
O11	O	-4.722946	-0.161751	-0.504105
O12	O	-4.379966	-0.156647	-0.181777
C13	C	-3.921922	-0.391071	-0.349573
C14	C	-3.984427	-0.532353	-0.348613
C15	C	-3.958635	-0.580493	-0.243113
C16	C	-4.017389	-0.713244	-0.242215
C17	C	-4.127719	-0.749703	-0.452326
C18	C	-4.068980	-0.616955	-0.453223
C19	C	-4.149487	-0.876921	-0.118458
C20	C	-4.123658	-0.925064	-0.012951
C21	C	-3.937777	-0.861725	0.083188
C22	C	-3.777674	-0.750242	0.073828
C23	C	-3.803488	-0.702106	-0.031680
C24	C	-3.989413	-0.765444	-0.127817
C25	C	-3.936861	-0.453273	-0.576973
C26	C	-3.962660	-0.405134	-0.682481
C27	C	-4.148533	-0.468472	-0.778630
C28	C	-4.308614	-0.579960	-0.769280
C29	C	-4.282815	-0.628099	-0.663772
C30	C	-4.096941	-0.564752	-0.567622
C31	C	-3.912297	-0.167333	-0.551670
C32	C	-3.968681	-0.166368	-0.679191
C33	C	-4.071870	-0.164603	-0.912666
C34	C	-4.014440	-0.165585	-0.782744
C35	C	-4.185187	0.060868	-0.345851
C36	C	-4.101921	0.202149	-0.346818
C37	C	-4.194811	-0.162867	-0.143750
C38	C	-4.117665	-0.163826	-0.016228
H39	H	-4.300871	-0.928493	-0.196731
C40	C	-3.865648	-0.487435	-0.128039
N41	N	-3.795619	-0.417347	-0.041362
H42	H	-3.785499	-0.401690	-0.498683
H43	H	-3.916753	-0.900932	0.169094
C44	C	-3.627396	-0.579478	-0.041978
N45	N	-3.494764	-0.487107	-0.049729
H46	H	-3.626306	-0.698687	0.152114
C47	C	-4.299785	-1.047686	-0.002656
N48	N	-4.432435	-1.140045	0.005101
H49	H	-4.196565	-0.818602	-0.537496
H50	H	-4.169514	-0.429272	-0.864543
C51	C	-4.458923	-0.750735	-0.653486
N52	N	-4.591567	-0.843102	-0.645739
H53	H	-4.459961	-0.631537	-0.847574
C54	C	-3.786559	-0.282493	-0.692763
N55	N	-3.653926	-0.190117	-0.700506
