data_functionalizedCrystal
_audit_creation_method	'MofGen! by Chris Wilmer'
_symmetry_space_group_name_H-M	'P1'
_symmetry_Int_Tables_number	1
_symmetry_cell_setting	triclinic
loop_
_symmetry_equiv_pos_as_xyz
  x,y,z
_cell_length_a	16.992694
_cell_length_b	10.654541
_cell_length_c	15.455313
_cell_angle_alpha	92.691200
_cell_angle_beta	87.142206
_cell_angle_gamma	87.576076
loop_
_atom_site_label
_atom_site_type_symbol
_atom_site_fract_x
_atom_site_fract_y
_atom_site_fract_z
O1	O	1.045242	0.261289	-0.072021
O2	O	1.545242	0.761289	0.427979
O3	O	0.816942	0.258364	-0.072047
O4	O	1.316942	0.758364	0.427953
O5	O	0.936342	0.077541	-0.072028
O6	O	1.436342	0.577541	0.427972
O7	O	0.925843	0.442112	-0.072040
O8	O	1.425843	0.942112	0.427960
O9	O	0.929514	0.087836	0.072233
O10	O	1.429514	0.587836	0.572233
O11	O	0.810114	0.268659	0.072214
O12	O	1.310114	0.768659	0.572214
O13	O	1.038414	0.271584	0.072240
O14	O	1.538414	0.771584	0.572240
Cu15	Cu	0.923641	0.271061	0.085399
Cu16	Cu	1.423641	0.771061	0.585399
Cu17	Cu	0.931716	0.258886	-0.085206
Cu18	Cu	1.431716	0.758886	0.414794
O19	O	0.919015	0.452407	0.072221
O20	O	1.419015	0.952407	0.572221
C21	C	0.784296	0.259751	0.000080
C22	C	1.284296	0.759751	0.500080
C23	C	0.697191	0.248531	0.000071
C24	C	1.197191	0.748531	0.500071
C25	C	0.647539	0.356782	0.000068
C26	C	1.147539	0.856782	0.500068
C27	C	0.565694	0.346233	0.000080
C28	C	1.065694	0.846233	0.500080
C29	C	0.533504	0.227433	0.000089
C30	C	1.033504	0.727433	0.500089
C31	C	0.583162	0.119174	0.000095
C32	C	1.083162	0.619174	0.500095
C33	C	0.665005	0.129724	0.000089
C34	C	1.165005	0.629724	0.500089
C35	C	0.289667	0.183707	0.000114
C36	C	0.789667	0.683707	0.500114
C37	C	0.207818	0.173165	0.000117
C38	C	0.707818	0.673165	0.500117
C39	C	0.190356	0.400226	0.000105
C40	C	0.690356	0.900226	0.500105
C41	C	0.272201	0.410765	0.000093
C42	C	0.772201	0.910765	0.500093
C43	C	0.321852	0.302507	0.000103
C44	C	0.821852	0.802507	0.500103
N45	N	0.449846	0.216648	0.000099
N46	N	0.949846	0.716648	0.500099
N47	N	0.405508	0.313293	0.000100
N48	N	0.905508	0.813293	0.500100
C49	C	0.932158	0.035824	0.000102
C50	C	1.432158	0.535824	0.500102
C51	C	0.929852	-0.103819	0.000100
C52	C	1.429852	0.396181	0.500100
C53	C	1.072627	-0.119450	0.000127
C54	C	1.572627	0.380550	0.500127
C55	C	1.142928	-0.192868	0.000142
C56	C	1.642928	0.307132	0.500142
C57	C	1.140757	-0.324074	0.000139
C58	C	1.640757	0.175926	0.500139
C59	C	1.068277	-0.381864	0.000119
C60	C	1.568277	0.118136	0.500119
C61	C	0.997977	-0.308446	0.000103
C62	C	1.497977	0.191554	0.500103
C63	C	1.000155	-0.177238	0.000109
C64	C	1.500155	0.322762	0.500109
C65	C	0.855204	-0.292816	0.000070
C66	C	1.355204	0.207184	0.500070
C67	C	0.857373	-0.161609	0.000079
C68	C	1.357373	0.338391	0.500079
C69	C	0.782725	-0.350606	0.000050
C70	C	1.282725	0.149394	0.500050
C71	C	0.712422	-0.277188	0.000041
C72	C	1.212422	0.222812	0.500041
C73	C	0.714596	-0.145974	0.000045
C74	C	1.214596	0.354026	0.500045
C75	C	0.787072	-0.088191	0.000064
C76	C	1.287072	0.411809	0.500064
C77	C	1.071061	0.270197	0.000111
C78	C	1.571061	0.770197	0.500111
C79	C	1.158166	0.281416	0.000115
C80	C	1.658166	0.781416	0.500115
C81	C	0.923199	0.494124	0.000089
C82	C	1.423199	0.994124	0.500089
C83	C	0.925505	0.633766	0.000085
C84	C	1.425505	1.133766	0.500085
N85	N	0.917967	0.279624	0.205394
N86	N	1.417967	0.779624	0.705394
N87	N	0.937396	0.250314	-0.205201
N88	N	1.437396	0.750314	0.294799
C89	C	0.968710	0.202836	0.250796
C90	C	1.468710	0.702836	0.750796
C91	C	0.964427	0.209324	0.341603
C92	C	1.464427	0.709324	0.841603
C93	C	0.909403	0.292608	0.387007
C94	C	1.409403	0.792608	0.887007
C95	C	0.858655	0.369399	0.341598
C96	C	1.358655	0.869399	0.841598
C97	C	0.862935	0.362903	0.250793
C98	C	1.362935	0.862903	0.750793
C99	C	0.890928	0.320610	0.658585
C100	C	1.390928	0.820610	1.158585
C101	C	0.886653	0.327102	0.749397
C102	C	1.386653	0.827102	1.249397
C103	C	0.992424	0.167025	0.749396
C104	C	1.492424	0.667025	1.249396
C105	C	0.996703	0.160543	0.658588
C106	C	1.496703	0.660543	1.158588
C107	C	0.945952	0.237329	0.613188
C108	C	1.445952	0.737329	1.113188
N109	N	0.905025	0.299244	0.479826
N110	N	1.405025	0.799244	0.979826
N111	N	0.950326	0.230685	0.520370
N112	N	1.450326	0.730685	1.020370
H113	H	0.525270	0.434383	0.000077
H114	H	1.025270	0.934383	0.500077
H115	H	0.653415	-0.324252	0.000018
H116	H	1.153415	0.175748	0.500018
C117	C	0.789470	0.056138	0.000068
C118	C	1.289470	0.556138	0.500068
N119	N	0.791280	0.164847	0.000067
N120	N	1.291280	0.664847	0.500067
C121	C	1.020230	0.124819	0.391541
C122	C	1.520230	0.624819	0.891541
N123	N	1.062256	0.061152	0.429154
N124	N	1.562256	0.561152	0.929154
H125	H	0.330084	0.095555	0.000123
H126	H	0.830084	0.595555	0.500123
H127	H	0.821614	0.425431	0.213827
H128	H	1.321614	0.925431	0.713827
H129	H	0.298404	0.507504	0.000076
H130	H	0.798404	1.007504	0.500076
C131	C	0.172412	0.042470	0.000126
C132	C	0.672412	0.542470	0.500126
N133	N	0.145743	-0.055965	0.000131
N134	N	0.645743	0.444035	0.500131
C135	C	1.057229	0.068918	0.608651
C136	C	1.557229	0.568918	1.108651
N137	N	1.102818	-0.000095	0.571039
N138	N	1.602818	0.499905	1.071039
H139	H	0.657348	-0.086204	0.000029
H140	H	1.157348	0.413796	0.500029
H141	H	1.066517	-0.488700	0.000105
H142	H	1.566517	0.011300	0.500105
H143	H	0.813849	0.437205	0.378571
H144	H	1.313849	0.937205	0.878571
H145	H	0.149921	0.488363	0.000098
H146	H	0.649921	0.988363	0.500098
C147	C	0.835202	0.405251	0.608657
C148	C	1.335202	0.905251	1.108657
N149	N	0.793263	0.469070	0.571047
N150	N	1.293263	0.969070	1.071047
C151	C	1.029241	0.111216	0.200860
C152	C	1.529241	0.611216	0.700860
N153	N	1.074831	0.042202	0.163251
N154	N	1.574831	0.542202	0.663251
H155	H	1.201939	-0.145800	0.000167
H156	H	1.701939	0.354200	0.500167
C157	C	0.682940	0.487473	0.000060
C158	C	1.182940	0.987473	0.500060
N159	N	0.709601	0.585913	0.000058
N160	N	1.209601	1.085913	0.500058
H161	H	1.033743	0.104508	0.786369
H162	H	1.533743	0.604508	1.286369
C163	C	0.547750	-0.011508	0.000106
C164	C	1.047750	0.488492	0.500106
N165	N	0.521079	-0.109941	0.000111
N166	N	1.021079	0.390059	0.500111
H167	H	0.705432	0.041574	0.000090
H168	H	1.205432	0.541574	0.500090
H169	H	1.074401	-0.012615	0.000141
H170	H	1.574401	0.487385	0.500141
C171	C	0.826118	0.418720	0.799339
C172	C	1.326118	0.918720	1.299339
N173	N	0.780525	0.487724	0.836956
N174	N	1.280525	0.987724	1.336956
H175	H	1.198002	-0.383851	0.000145
H176	H	1.698002	0.116149	0.500145
C177	C	0.780338	-0.494936	0.000052
C178	C	1.280338	0.005064	0.500052
N179	N	0.778539	-0.603646	0.000060
N180	N	1.278539	-0.103646	0.500060
