data_functionalizedCrystal
_audit_creation_method	'MofGen! by Chris Wilmer'
_symmetry_space_group_name_H-M	'P1'
_symmetry_Int_Tables_number	1
_symmetry_cell_setting	triclinic
loop_
_symmetry_equiv_pos_as_xyz
  x,y,z
_cell_length_a	6.817900
_cell_length_b	7.190339
_cell_length_c	11.102193
_cell_angle_alpha	92.053688
_cell_angle_beta	71.395941
_cell_angle_gamma	119.388276
loop_
_atom_site_label
_atom_site_type_symbol
_atom_site_fract_x
_atom_site_fract_y
_atom_site_fract_z
V1	V	4.172415	0.295110	-0.395359
O2	O	4.067624	-0.014165	-0.388757
O3	O	4.209044	0.585138	-0.391766
O4	O	4.148254	0.290578	-0.568194
O5	O	4.128835	0.282435	-0.211108
V6	V	4.641885	0.258116	-0.373429
O7	O	4.464502	0.376259	-0.443464
O8	O	4.799996	0.176968	-0.325324
O9	O	4.382049	-0.031912	-0.377022
O10	O	4.864073	0.567392	-0.380031
O11	O	4.802861	0.270792	-0.557680
O12	O	4.442839	0.262649	-0.200594
C13	C	3.996400	0.280097	-0.610350
C14	C	4.058492	0.278310	-0.751638
C15	C	4.073964	0.655843	-0.385306
C16	C	4.187456	0.897403	-0.383489
C17	C	4.259438	0.668960	-0.786776
C18	C	4.389071	0.863437	-0.870720
C19	C	4.447408	0.861746	-1.003471
C20	C	4.376109	0.665557	-1.052279
C21	C	4.246476	0.471081	-0.968335
C22	C	4.188142	0.472792	-0.835583
C23	C	4.045547	0.080436	-0.933198
C24	C	3.987193	0.082121	-0.800446
C25	C	3.974248	-0.115753	-0.982007
C26	C	3.844598	-0.310236	-0.898062
C27	C	3.786259	-0.308537	-0.765304
C28	C	3.857560	-0.112356	-0.716502
C29	C	4.258036	0.273137	-0.158431
C30	C	4.175180	0.274913	-0.017142
H31	H	4.211915	0.670355	-0.678684
O32	O	4.432385	0.663619	-1.181199
C33	C	4.219851	0.545830	-1.209816
H34	H	4.068563	0.429384	-1.121020
H35	H	4.249292	0.450941	-1.291361
H36	H	4.169839	0.661912	-1.240207
O37	O	3.660442	-0.497256	-0.683588
C38	C	3.624174	-0.453712	-0.555948
H39	H	3.767212	-0.281907	-0.555144
H40	H	3.637031	-0.572128	-0.497708
H41	H	3.438957	-0.471889	-0.511777
H42	H	4.447120	1.023170	-0.830965
H43	H	4.552969	1.020107	-1.071819
O44	O	4.031334	-0.117106	-1.110994
C45	C	4.282861	-0.000440	-1.171098
H46	H	4.366896	0.117971	-1.106895
H47	H	4.331480	0.092169	-1.267170
H48	H	4.353601	-0.117114	-1.187834
H49	H	3.810054	-0.110955	-0.608411
H50	H	3.786572	-0.469956	-0.937814
