data_functionalizedCrystal
_audit_creation_method	'MofGen! by Chris Wilmer'
_symmetry_space_group_name_H-M	'P1'
_symmetry_Int_Tables_number	1
_symmetry_cell_setting	triclinic
loop_
_symmetry_equiv_pos_as_xyz
  x,y,z
_cell_length_a	27.732048
_cell_length_b	14.044220
_cell_length_c	12.503572
_cell_angle_alpha	86.156832
_cell_angle_beta	86.516589
_cell_angle_gamma	92.084234
loop_
_atom_site_label
_atom_site_type_symbol
_atom_site_fract_x
_atom_site_fract_y
_atom_site_fract_z
O1	O	0.648762	-0.107201	-0.089184
O2	O	0.982095	0.226132	0.244150
O3	O	1.315429	0.559465	0.577483
O4	O	0.508774	-0.124338	-0.089216
O5	O	0.842107	0.208996	0.244117
O6	O	1.175440	0.542329	0.577450
O7	O	0.576666	0.022184	-0.089190
O8	O	0.910000	0.355517	0.244143
O9	O	1.243333	0.688850	0.577477
O10	O	0.580869	-0.253723	-0.089210
O11	O	0.914203	0.079611	0.244123
O12	O	1.247536	0.412944	0.577457
O13	O	0.571561	0.011146	0.089450
O14	O	0.904895	0.344480	0.422783
O15	O	1.238228	0.677813	0.756117
O16	O	0.503669	-0.135375	0.089424
O17	O	0.837002	0.197958	0.422757
O18	O	1.170335	0.531292	0.756090
O19	O	0.643657	-0.118239	0.089456
O20	O	0.976990	0.215095	0.422790
O21	O	1.310324	0.548428	0.756123
Cu22	Cu	0.573197	-0.127815	0.105751
Cu23	Cu	0.906530	0.205519	0.439085
Cu24	Cu	1.239863	0.538852	0.772418
Cu25	Cu	0.579234	-0.114762	-0.105511
Cu26	Cu	0.912567	0.218572	0.227822
Cu27	Cu	1.245901	0.551905	0.561155
O28	O	0.575764	-0.264760	0.089430
O29	O	0.909098	0.068573	0.422763
O30	O	1.242431	0.401907	0.756096
C31	C	0.488197	-0.129496	0.000100
C32	C	0.821531	0.203837	0.333433
C33	C	1.154864	0.537170	0.666766
C34	C	0.434492	-0.128412	0.000087
C35	C	0.767825	0.204921	0.333421
C36	C	1.101159	0.538254	0.666754
N37	N	0.568954	-0.136995	0.254342
N38	N	0.902287	0.196339	0.587675
N39	N	1.235620	0.529672	0.921008
C40	C	0.572274	0.051953	0.000130
C41	C	0.905608	0.385286	0.333463
C42	C	1.238941	0.718619	0.666797
C43	C	0.566787	0.157098	0.000130
C44	C	0.900120	0.490431	0.333463
C45	C	1.233454	0.823765	0.666797
C46	C	0.099419	-0.208180	0.000128
C47	C	0.432753	0.125153	0.333461
C48	C	0.766086	0.458486	0.666795
C49	C	-0.102429	-0.204162	0.000138
C50	C	0.230904	0.129172	0.333471
C51	C	0.564237	0.462505	0.666805
O52	O	-0.130263	-0.277104	0.000179
O53	O	0.203070	0.056229	0.333512
O54	O	0.536403	0.389562	0.666846
N55	N	-0.125630	-0.117280	0.000142
N56	N	0.207703	0.216053	0.333476
N57	N	0.541036	0.549387	0.666809
C58	C	-0.098366	-0.031397	0.000151
C59	C	0.234967	0.301936	0.333485
C60	C	0.568300	0.635269	0.666818
O61	O	-0.122732	0.042593	0.000166
O62	O	0.210601	0.375926	0.333500
O63	O	0.543934	0.709259	0.666833
C64	C	0.103481	-0.035417	0.000149
C65	C	0.436814	0.297916	0.333483
C66	C	0.770148	0.631249	0.666816
C67	C	0.126680	-0.122304	0.000134
C68	C	0.460013	0.211029	0.333467
C69	C	0.793346	0.544363	0.666800
C70	C	0.122618	-0.295060	0.000114
C71	C	0.455951	0.038273	0.333447
C72	C	0.789285	0.371607	0.666780
C73	C	0.173077	-0.296063	0.000105
C74	C	0.506411	0.037270	0.333439
C75	C	0.839744	0.370603	0.666772
C76	C	0.200338	-0.210187	0.000111
C77	C	0.533671	0.123146	0.333445
C78	C	0.867004	0.456480	0.666778
C79	C	0.177139	-0.123307	0.000125
C80	C	0.510472	0.210026	0.333459
C81	C	0.843806	0.543359	0.666792
C82	C	0.130744	0.050464	0.000166
C83	C	0.464077	0.383797	0.333499
C84	C	0.797410	0.717131	0.666833
C85	C	0.181209	0.049451	0.000168
C86	C	0.514542	0.382784	0.333501
C87	C	0.847875	0.716118	0.666835
C88	C	0.204407	-0.037436	0.000153
C89	C	0.537741	0.295898	0.333486
C90	C	0.871074	0.629231	0.666819
C91	C	0.254859	-0.038434	0.000123
C92	C	0.588192	0.294899	0.333456
C93	C	0.921525	0.628232	0.666790
N94	N	0.278060	-0.125316	0.000119
N95	N	0.611393	0.208017	0.333452
N96	N	0.944726	0.541350	0.666785
C97	C	0.250799	-0.211193	0.000113
C98	C	0.584133	0.122141	0.333446
C99	C	0.917466	0.455474	0.666779
C100	C	-0.204339	-0.029293	0.000150
C101	C	0.128994	0.304041	0.333484
C102	C	0.462327	0.637374	0.666817
C103	C	-0.254801	-0.028287	0.000149
C104	C	0.078533	0.305046	0.333482
C105	C	0.411866	0.638380	0.666816
C106	C	-0.258860	-0.201052	0.000138
C107	C	0.074473	0.132281	0.333471
C108	C	0.407806	0.465614	0.666804
C109	C	-0.208398	-0.202056	0.000131
C110	C	0.124936	0.131277	0.333465
C111	C	0.458269	0.464610	0.666798
C112	C	-0.181138	-0.116174	0.000146
C113	C	0.152195	0.217159	0.333479
C114	C	0.485529	0.550492	0.666813
C115	C	0.356768	-0.213293	0.000094
C116	C	0.690101	0.120040	0.333428
C117	C	1.023434	0.453374	0.666761
C118	C	0.407232	-0.214289	0.000081
C119	C	0.740565	0.119045	0.333415
C120	C	1.073898	0.452378	0.666748
C121	C	0.411287	-0.041524	0.000099
C122	C	0.744620	0.291809	0.333432
C123	C	1.077953	0.625142	0.666765
C124	C	0.360827	-0.040528	0.000106
C125	C	0.694160	0.292805	0.333439
C126	C	1.027494	0.626139	0.666772
C127	C	0.333569	-0.126420	0.000107
C128	C	0.666902	0.206913	0.333441
C129	C	1.000235	0.540246	0.666774
O130	O	0.282722	0.034468	0.000094
O131	O	0.616056	0.367802	0.333427
O132	O	0.949389	0.701135	0.666761
O133	O	0.275173	-0.285173	0.000121
O134	O	0.608507	0.048160	0.333455
O135	O	0.941840	0.381494	0.666788
C136	C	0.048960	-0.207177	0.000136
C137	C	0.382293	0.126156	0.333470
C138	C	0.715627	0.459490	0.666803
C139	C	0.025761	-0.120297	0.000150
C140	C	0.359094	0.213036	0.333484
C141	C	0.692428	0.546369	0.666817
C142	C	0.053021	-0.034421	0.000156
C143	C	0.386355	0.298912	0.333490
C144	C	0.719688	0.632246	0.666823
C145	C	-0.024701	-0.119292	0.000149
C146	C	0.308633	0.214041	0.333482
C147	C	0.641966	0.547375	0.666816
C148	C	-0.051961	-0.205168	0.000143
C149	C	0.281372	0.128165	0.333477
C150	C	0.614706	0.461498	0.666810
C151	C	-0.028760	-0.292050	0.000139
C152	C	0.304573	0.041283	0.333472
C153	C	0.637907	0.374617	0.666805
C154	C	0.021699	-0.293053	0.000130
C155	C	0.355033	0.040280	0.333464
C156	C	0.688366	0.373613	0.666797
C157	C	0.029820	0.052461	0.000161
C158	C	0.363154	0.385794	0.333494
C159	C	0.696487	0.719128	0.666827
C160	C	-0.020639	0.053457	0.000168
C161	C	0.312694	0.386791	0.333501
C162	C	0.646028	0.720124	0.666835
C163	C	-0.047900	-0.032419	0.000162
C164	C	0.285434	0.300914	0.333495
C165	C	0.618767	0.634248	0.666829
C166	C	0.664233	-0.113080	0.000138
C167	C	0.997567	0.220253	0.333471
C168	C	1.330900	0.553587	0.666805
C169	C	0.717939	-0.114164	0.000143
C170	C	1.051272	0.219170	0.333477
C171	C	1.384605	0.552503	0.666810
C172	C	0.580156	-0.294529	0.000107
C173	C	0.913490	0.038805	0.333441
C174	C	1.246823	0.372138	0.666774
C175	C	0.585644	-0.399674	0.000100
C176	C	0.918977	-0.066340	0.333434
C177	C	1.252310	0.266993	0.666767
C178	C	0.556756	0.349613	0.000112
C179	C	0.890089	0.682947	0.333446
C180	C	1.223423	1.016280	0.666779
C181	C	0.595673	0.407816	0.000118
C182	C	0.929006	0.741150	0.333452
C183	C	1.262339	1.074483	0.666785
C184	C	0.590091	0.514939	0.000108
C185	C	0.923425	0.848272	0.333442
C186	C	1.256758	1.181605	0.666775
C187	C	0.562337	0.242481	0.000122
C188	C	0.895670	0.575814	0.333456
C189	C	1.229003	0.909148	0.666789
N190	N	0.583480	-0.105574	-0.254102
N191	N	0.916814	0.227759	0.079231
N192	N	1.250147	0.561093	0.412565
C193	C	0.562713	-0.150507	0.473455
C194	C	0.896046	0.182826	0.806788
C195	C	1.229379	0.516160	1.140121
C196	C	0.589720	-0.092065	0.526792
C197	C	0.923053	0.241269	0.860126
C198	C	1.256387	0.574602	1.193459
C199	C	0.586247	-0.099583	0.648714
C200	C	0.919581	0.233750	0.982047
C201	C	1.252914	0.567083	1.315381
C202	C	0.566185	-0.142990	0.351522
C203	C	0.899518	0.190343	0.684855
C204	C	1.232851	0.523677	1.018188
H205	H	0.426118	-0.285045	0.000068
H206	H	0.759451	0.048288	0.333402
H207	H	1.092784	0.381622	0.666735
H208	H	0.633184	0.377199	0.000055
H209	H	0.966518	0.710532	0.333388
H210	H	1.299851	1.043865	0.666722
H211	H	-0.189513	-0.272807	0.000125
H212	H	0.143820	0.060526	0.333458
H213	H	0.477154	0.393859	0.666791
H214	H	0.615450	-0.036385	0.480889
H215	H	0.948784	0.296948	0.814223
H216	H	1.282117	0.630282	1.147556
H217	H	0.519250	0.380234	0.000101
H218	H	0.852583	0.713567	0.333434
H219	H	1.185916	1.046901	0.666768
H220	H	0.334579	-0.283235	0.000099
H221	H	0.667913	0.050098	0.333432
H222	H	1.001246	0.383432	0.666766
H223	H	0.191961	-0.366816	0.000093
H224	H	0.525294	-0.033482	0.333426
H225	H	0.858628	0.299851	0.666759
H226	H	0.536985	-0.206185	0.519352
H227	H	0.870318	0.127149	0.852685
H228	H	1.203651	0.460482	1.186019
H229	H	-0.281064	-0.270976	0.000133
H230	H	0.052269	0.062357	0.333466
H231	H	0.385602	0.395691	0.666800
H232	H	0.100427	-0.364995	0.000113
H233	H	0.433761	-0.031662	0.333446
H234	H	0.767094	0.301671	0.666780
H235	H	-0.182149	0.040647	0.000162
H236	H	0.151184	0.373980	0.333496
H237	H	0.484518	0.707314	0.666829
H238	H	0.111864	0.121216	0.000179
H239	H	0.445198	0.454550	0.333513
H240	H	0.778531	0.787883	0.666846
H241	H	-0.273684	0.042466	0.000145
H242	H	0.059649	0.375799	0.333478
H243	H	0.392982	0.709132	0.666811
H244	H	0.040583	-0.363806	0.000119
H245	H	0.373916	-0.030472	0.333453
H246	H	0.707250	0.302861	0.666786
H247	H	0.203401	0.119388	0.000181
H248	H	0.536734	0.452722	0.333514
H249	H	0.870068	0.786055	0.666848
H250	H	0.433491	0.028394	0.000099
H251	H	0.766825	0.361727	0.333433
H252	H	1.100158	0.695061	0.666766
H253	H	0.341938	0.030223	0.000103
H254	H	0.675272	0.363556	0.333436
H255	H	1.008605	0.696890	0.666769
H256	H	-0.039523	0.124217	0.000172
H257	H	0.293811	0.457550	0.333505
H258	H	0.627144	0.790883	0.666839
H259	H	-0.050964	-0.361973	0.000130
H260	H	0.282369	-0.028640	0.333463
H261	H	0.615703	0.304693	0.666796
H262	H	0.052011	0.122393	0.000168
H263	H	0.385344	0.455727	0.333501
H264	H	0.718678	0.789060	0.666835
