data_functionalizedCrystal
_audit_creation_method	'MofGen! by Chris Wilmer'
_symmetry_space_group_name_H-M	'P1'
_symmetry_Int_Tables_number	1
_symmetry_cell_setting	triclinic
loop_
_symmetry_equiv_pos_as_xyz
  x,y,z
_cell_length_a	10.489741
_cell_length_b	22.010155
_cell_length_c	10.489741
_cell_angle_alpha	90.004586
_cell_angle_beta	95.460826
_cell_angle_gamma	90.005851
loop_
_atom_site_label
_atom_site_type_symbol
_atom_site_fract_x
_atom_site_fract_y
_atom_site_fract_z
O1	O	1.694063	0.050487	-0.179950
O2	O	2.194063	0.550487	0.320050
O3	O	1.322867	0.050497	-0.196843
O4	O	1.822867	0.550497	0.303157
O5	O	1.516911	0.050488	-0.002799
O6	O	2.016911	0.550488	0.497201
O7	O	1.500019	0.050496	-0.373995
O8	O	2.000019	0.550496	0.126005
O9	O	1.516876	-0.050562	-0.002828
O10	O	2.016876	0.449438	0.497172
O11	O	1.322832	-0.050554	-0.196872
O12	O	1.822832	0.449446	0.303128
O13	O	1.694028	-0.050563	-0.179979
O14	O	2.194028	0.449437	0.320021
Cu15	Cu	1.508426	-0.059785	-0.188428
Cu16	Cu	2.008426	0.440215	0.311572
Cu17	Cu	1.508468	0.059719	-0.188394
Cu18	Cu	2.008468	0.559719	0.311606
O19	O	1.499983	-0.050555	-0.374024
O20	O	1.999983	0.449445	0.125976
C21	C	1.275318	-0.000027	-0.195582
C22	C	1.775318	0.499973	0.304418
C23	C	1.133688	-0.000024	-0.191765
C24	C	1.633688	0.499976	0.308235
N25	N	1.508406	-0.143838	-0.188452
N26	N	2.008406	0.356162	0.311548
C27	C	1.065548	-0.000032	-0.068300
C28	C	1.565548	0.499968	0.431700
C29	C	0.973439	0.049791	-0.126609
C30	C	1.473439	0.549791	0.373391
C31	C	0.973438	-0.049837	-0.126667
C32	C	1.473438	0.450163	0.373333
C33	C	1.043444	0.049840	-0.250125
C34	C	1.543444	0.549840	0.249875
C35	C	1.043453	-0.049832	-0.250165
C36	C	1.543453	0.450168	0.249835
C37	C	0.951371	0.000003	-0.308564
C38	C	1.451371	0.500003	0.191436
C39	C	1.594396	-0.563621	-0.102484
C40	C	2.094396	-0.063621	0.397516
C41	C	1.594402	-0.627228	-0.102475
C42	C	2.094402	-0.127228	0.397525
O43	O	1.667463	-0.660123	-0.029398
O44	O	2.167463	-0.160123	0.470602
N45	N	1.508467	-0.659045	-0.188367
N46	N	2.008467	-0.159045	0.311633
C47	C	1.422512	-0.627250	-0.274265
C48	C	1.922512	-0.127250	0.225735
O49	O	1.349418	-0.660153	-0.347322
O50	O	1.849418	-0.160153	0.152678
C51	C	1.422501	-0.563644	-0.274267
C52	C	1.922501	-0.063644	0.225733
C53	C	1.508450	-0.531831	-0.188378
C54	C	2.008450	-0.031831	0.311622
C55	C	1.680337	-0.531808	-0.016600
C56	C	2.180337	-0.031808	0.483400
C57	C	1.680333	-0.468204	-0.016611
C58	C	2.180333	0.031796	0.483389
C59	C	1.594387	-0.436414	-0.102505
C60	C	2.094387	0.063586	0.397495
C61	C	1.508446	-0.468227	-0.188388
C62	C	2.008446	0.031773	0.311612
C63	C	1.336541	-0.531850	-0.360158
C64	C	1.836541	-0.031850	0.139842
C65	C	1.336537	-0.468240	-0.360151
C66	C	1.836537	0.031760	0.139849
C67	C	1.422486	-0.436426	-0.274262
C68	C	1.922486	0.063574	0.225738
C69	C	1.422496	-0.372834	-0.274293
C70	C	1.922496	0.127166	0.225707
N71	N	1.508430	-0.341018	-0.188400
N72	N	2.008430	0.158982	0.311600
C73	C	1.594376	-0.372808	-0.102506
C74	C	2.094376	0.127192	0.397494
C75	C	1.422540	-0.760828	-0.274254
C76	C	1.922540	-0.260828	0.225746
C77	C	1.422556	-0.824433	-0.274260
C78	C	1.922556	-0.324433	0.225740
C79	C	1.594445	-0.824407	-0.102467
C80	C	2.094445	-0.324407	0.397533
C81	C	1.594434	-0.760801	-0.102469
C82	C	2.094434	-0.260801	0.397531
C83	C	1.508475	-0.729012	-0.188362
C84	C	2.008475	-0.229012	0.311638
C85	C	1.594361	-0.239237	-0.102536
C86	C	2.094361	0.260763	0.397464
C87	C	1.594352	-0.175628	-0.102558
C88	C	2.094352	0.324372	0.397442
C89	C	1.422460	-0.175659	-0.274345
C90	C	1.922460	0.324341	0.225655
C91	C	1.422472	-0.239263	-0.274328
C92	C	1.922472	0.260737	0.225672
C93	C	1.508428	-0.271050	-0.188413
C94	C	2.008428	0.228950	0.311587
O95	O	1.349469	-0.339899	-0.347329
O96	O	1.849469	0.160101	0.152671
O97	O	1.667447	-0.339897	-0.029451
O98	O	2.167447	0.160103	0.470549
C99	C	1.741577	-0.000038	-0.181241
C100	C	2.241577	0.499962	0.318759
C101	C	1.883206	-0.000037	-0.185058
C102	C	2.383206	0.499963	0.314942
C103	C	1.515618	-0.000037	0.044718
C104	C	2.015618	0.499963	0.544718
C105	C	1.511801	-0.000036	0.186348
C106	C	2.011801	0.499964	0.686348
N107	N	1.508498	0.143771	-0.188361
N108	N	2.008498	0.643771	0.311639
C109	C	1.501277	-0.000028	-0.421541
C110	C	2.001277	0.499972	0.078459
C111	C	1.505094	-0.000026	-0.563170
C112	C	2.005094	0.499974	-0.063170
C113	C	1.388336	-0.000028	0.254488
C114	C	1.888336	0.499972	0.754488
C115	C	1.446642	-0.049852	0.346596
C116	C	1.946642	0.450148	0.846596
C117	C	1.446706	0.049775	0.346599
C118	C	1.946706	0.549775	0.846599
C119	C	1.570158	-0.049901	0.276591
C120	C	2.070158	0.450099	0.776591
C121	C	1.570205	0.049771	0.276584
C122	C	2.070205	0.549771	0.776584
C123	C	1.628600	-0.000065	0.368665
C124	C	2.128600	0.499935	0.868665
H125	H	0.942439	0.091911	-0.074356
H126	H	1.442439	0.591911	0.425644
O127	O	1.253885	-0.000087	0.188691
O128	O	1.753885	0.499913	0.688691
H129	H	1.184108	-0.000544	0.261867
H130	H	1.684108	0.499456	0.761867
O131	O	1.763202	-0.000054	0.434091
O132	O	2.263202	0.499946	0.934091
H133	H	1.759481	0.000361	0.539481
H134	H	2.259481	0.500361	1.039481
H135	H	1.394387	-0.091973	0.377595
H136	H	1.894387	0.408027	0.877595
O137	O	1.639366	0.105564	0.235456
O138	O	2.139366	0.605564	0.735456
H139	H	1.587936	0.146865	0.263188
H140	H	2.087936	0.646865	0.763188
H141	H	1.622338	-0.092071	0.245746
H142	H	2.122338	0.407929	0.745746
H143	H	1.664425	-0.850302	-0.032526
H144	H	2.164425	-0.350302	0.467474
H145	H	1.352487	-0.149766	-0.344283
H146	H	1.852487	0.350234	0.155717
O147	O	1.377515	0.105574	0.387654
O148	O	1.877515	0.605574	0.887654
H149	H	1.277811	0.105467	0.341486
H150	H	1.777811	0.605467	0.841486
O151	O	1.329897	-0.858744	-0.366938
O152	O	1.829897	-0.358744	0.133062
H153	H	1.270145	-0.825946	-0.426668
H154	H	1.770145	-0.325946	0.073332
H155	H	0.901947	0.000032	-0.410168
H156	H	1.401947	0.500032	0.089832
H157	H	1.352546	-0.734948	-0.344209
H158	H	1.852546	-0.234948	0.155791
H159	H	1.115238	0.000028	0.033196
H160	H	1.615238	0.500028	0.533196
H161	H	1.664352	-0.265110	-0.032575
H162	H	2.164352	0.234890	0.467425
O163	O	1.084286	0.105714	-0.319206
O164	O	1.584286	0.605714	0.180794
H165	H	1.189859	0.105297	-0.321440
H166	H	1.689859	0.605297	0.178560
H167	H	1.664347	-0.149727	-0.032617
H168	H	2.164347	0.350273	0.467383
O169	O	1.084592	-0.105624	-0.319318
O170	O	1.584592	0.394376	0.180682
H171	H	1.056865	-0.146926	-0.267883
H172	H	1.556865	0.353074	0.232117
H173	H	1.750316	-0.442306	0.053331
H174	H	2.250316	0.057694	0.553331
O175	O	0.932390	-0.105638	-0.057475
O176	O	1.432390	0.394362	0.442525
H177	H	0.978560	-0.105531	0.042229
H178	H	1.478560	0.394469	0.542229
H179	H	1.750325	-0.557686	0.053351
H180	H	2.250325	-0.057686	0.553351
O181	O	1.687122	-0.726488	-0.009821
O182	O	2.187122	-0.226488	0.490179
H183	H	1.746876	-0.759287	0.049907
H184	H	2.246876	-0.259287	0.549907
H185	H	1.266535	-0.442360	-0.430094
H186	H	1.766535	0.057640	0.069906
O187	O	1.243884	-0.566154	-0.452842
O188	O	1.743884	-0.066154	0.047158
H189	H	1.184136	-0.533353	-0.512567
H190	H	1.684136	-0.033353	-0.012567
H191	H	1.352497	-0.265165	-0.344280
H192	H	1.852497	0.234835	0.155720
