data_functionalizedCrystal
_audit_creation_method	'MofGen! by Chris Wilmer'
_symmetry_space_group_name_H-M	'P1'
_symmetry_Int_Tables_number	1
_symmetry_cell_setting	triclinic
loop_
_symmetry_equiv_pos_as_xyz
  x,y,z
_cell_length_a	25.639239
_cell_length_b	12.759401
_cell_length_c	25.639218
_cell_angle_alpha	90.065869
_cell_angle_beta	89.886347
_cell_angle_gamma	89.963105
loop_
_atom_site_label
_atom_site_type_symbol
_atom_site_fract_x
_atom_site_fract_y
_atom_site_fract_z
Zn1	Zn	-0.207750	-1.606561	-0.295590
Zn2	Zn	-0.295313	-1.606240	-0.208155
Zn3	Zn	-0.207891	-1.430721	-0.208171
Zn4	Zn	-0.295153	-1.430778	-0.295561
O5	O	-0.251527	-1.518575	-0.251869
O6	O	-0.219373	-1.753540	-0.283997
O7	O	-0.283843	-1.582798	-0.134991
O8	O	-0.134707	-1.454157	-0.219786
O9	O	-0.283706	-1.753304	-0.219758
O10	O	-0.134603	-1.583346	-0.284013
O11	O	-0.219614	-1.453845	-0.135003
O12	O	-0.219459	-1.283708	-0.219758
O13	O	-0.283433	-1.454255	-0.368731
O14	O	-0.283570	-1.283750	-0.283964
O15	O	-0.219218	-1.583402	-0.368752
O16	O	-0.368457	-1.582854	-0.219730
O17	O	-0.368340	-1.453943	-0.283948
C18	C	-0.251513	-1.245608	-0.251860
C19	C	-0.251519	-1.128831	-0.251868
C20	C	-0.218080	-1.074093	-0.285369
C21	C	-0.218083	-0.964369	-0.285371
C22	C	-0.284969	-0.964131	-0.218372
C23	C	-0.284962	-1.073853	-0.218367
C24	C	-0.156427	-0.814531	-0.304171
C25	C	-0.122993	-0.759789	-0.337680
C26	C	-0.114956	-0.795535	-0.388709
C27	C	-0.140360	-0.886022	-0.406241
C28	C	-0.173798	-0.940758	-0.372735
C29	C	-0.181826	-0.905014	-0.321698
C30	C	-0.346619	-1.223693	-0.199572
C31	C	-0.380060	-1.278431	-0.166069
C32	C	-0.388103	-1.242687	-0.115038
C33	C	-0.362708	-1.152197	-0.097508
C34	C	-0.329267	-1.097458	-0.131012
C35	C	-0.321223	-1.133210	-0.182042
C36	C	-0.387369	-1.518398	-0.251845
C37	C	-0.445483	-1.518419	-0.251853
C38	C	-0.805895	-1.585874	-0.218488
C39	C	-0.860499	-1.585915	-0.218495
O40	O	-0.888777	-1.643085	-0.190101
N41	N	-0.887766	-1.518760	-0.251904
C42	C	-0.860425	-1.451567	-0.285312
O43	O	-0.888631	-1.394451	-0.313729
C44	C	-0.805822	-1.451532	-0.285307
C45	C	-0.778558	-1.518685	-0.251892
C46	C	-0.778631	-1.653022	-0.185077
C47	C	-0.724031	-1.652979	-0.185069
C48	C	-0.696694	-1.585790	-0.218473
C49	C	-0.723958	-1.518642	-0.251885
C50	C	-0.778482	-1.384346	-0.318717
C51	C	-0.723875	-1.384317	-0.318709
C52	C	-0.696611	-1.451469	-0.285295
C53	C	-0.642020	-1.451410	-0.285281
N54	N	-0.614754	-1.518565	-0.251872
C55	C	-0.642091	-1.585755	-0.218468
C56	C	-0.975096	-1.451646	-0.285320
C57	C	-1.029698	-1.451675	-0.285322
C58	C	-1.029768	-1.586025	-0.218506
C59	C	-0.975165	-1.585990	-0.218502
C60	C	-0.947829	-1.518801	-0.251911
C61	C	-0.527426	-1.585660	-0.218455
C62	C	-0.472820	-1.585609	-0.218449
C63	C	-0.472755	-1.451264	-0.285266
C64	C	-0.527355	-1.451311	-0.285271
C65	C	-0.554689	-1.518517	-0.251863
O66	O	-0.613707	-1.394272	-0.313662
O67	O	-0.613878	-1.642871	-0.190060
C68	C	-0.115154	-1.518781	-0.251905
C69	C	-0.057040	-1.518869	-0.251920
C70	C	-0.251292	-1.518871	-0.388243
C71	C	-0.251191	-1.518997	-0.446357
C72	C	-0.251537	-0.792608	-0.251877
C73	C	-0.251528	-0.909385	-0.251876
C74	C	-0.251723	-1.518341	-0.116026
C75	C	-0.251676	-1.518419	-0.057913
C76	C	-0.285063	-1.451990	0.302610
C77	C	-0.285018	-1.452041	0.357214
O78	O	-0.313621	-1.395277	0.385587
N79	N	-0.251323	-1.518821	0.384369
C80	C	-0.217666	-1.585547	0.356918
O81	O	-0.189001	-1.642353	0.385029
C82	C	-0.217708	-1.585490	0.302314
C83	C	-0.251409	-1.518713	0.275162
C84	C	-0.318761	-1.385218	0.275457
C85	C	-0.318806	-1.385169	0.220857
C86	C	-0.285152	-1.451891	0.193409
C87	C	-0.251454	-1.518664	0.220561
C88	C	-0.184049	-1.652210	0.274864
C89	C	-0.184093	-1.652146	0.220257
C90	C	-0.217795	-1.585369	0.193104
C91	C	-0.217846	-1.585337	0.138513
N92	N	-0.251541	-1.518557	0.111358
C93	C	-0.285194	-1.451834	0.138806
C94	C	-0.217580	-1.585661	0.471588
C95	C	-0.217540	-1.585724	0.526190
C96	C	-0.284892	-1.452216	0.526483
C97	C	-0.284934	-1.452159	0.471880
C98	C	-0.251275	-1.518881	0.444433
C99	C	-0.285286	-1.451736	0.024141
C100	C	-0.285329	-1.451696	-0.030465
C101	C	-0.217976	-1.585199	-0.030753
C102	C	-0.217934	-1.585244	0.023848
C103	C	-0.251591	-1.518504	0.051293
O104	O	-0.189256	-1.642070	0.110106
O105	O	-0.313850	-1.395028	0.110687
H106	H	-0.308589	-1.023776	-0.116735
C107	C	-0.945180	-1.659865	-0.181745
N108	N	-0.922598	-1.715512	-0.154059
H109	H	-0.087733	-0.750957	-0.415992
H110	H	-0.312688	-1.397381	0.046480
C111	C	-0.146968	-1.725660	0.304719
N112	N	-0.119035	-1.780982	0.327205
H113	H	-0.701836	-1.707663	-0.157862
C114	C	-0.337774	-1.263020	-0.255709
N115	N	-0.331115	-1.292641	-0.297992
C116	C	-1.059682	-1.377792	-0.322076
N117	N	-1.082264	-1.322145	-0.349762
C118	C	-0.355785	-1.311811	0.305641
N119	N	-0.383677	-1.256520	0.328372
C120	C	-0.322403	-1.378229	-0.060329
N121	N	-0.350325	-1.322892	-0.082821
C122	C	-0.355874	-1.311695	0.190996
N123	N	-0.383793	-1.256347	0.168509
C124	C	-0.147067	-1.725551	0.190068
N125	N	-0.119180	-1.780841	0.167332
C126	C	-0.945031	-1.377733	-0.322077
N127	N	-0.922389	-1.322067	-0.349766
C128	C	-0.408004	-1.377963	-0.185357
N129	N	-0.429051	-1.452927	-0.199885
C130	C	-0.180865	-1.658709	0.053717
N131	N	-0.152941	-1.714038	0.076210
C132	C	-0.322004	-1.378693	0.442017
N133	N	-0.349925	-1.323352	0.419527
H134	H	-0.800883	-1.707742	-0.157875
H135	H	-1.052036	-1.640738	-0.191309
C136	C	-0.442834	-1.659479	-0.181686
N137	N	-0.420249	-1.715117	-0.153997
C138	C	-0.131510	-0.925348	-0.462375
N139	N	-0.124837	-0.954978	-0.504655
C140	C	-0.180954	-1.658580	-0.060956
N141	N	-0.153064	-1.713842	-0.083706
H142	H	-0.312293	-1.397885	0.548841
H143	H	-0.549675	-1.640389	-0.191252
H144	H	-0.800671	-1.329658	-0.345924
C145	C	-0.693809	-1.310403	-0.355464
N146	N	-0.671164	-1.254729	-0.383146
C147	C	-0.442674	-1.377362	-0.322011
N148	N	-0.420015	-1.321706	-0.349690
C149	C	-0.180469	-1.659190	0.556052
N150	N	-0.152543	-1.714522	0.578542
C151	C	-0.180556	-1.659077	0.441401
N152	N	-0.152670	-1.714375	0.418667
H153	H	-0.190847	-1.118853	-0.312646
H154	H	-0.194480	-1.014434	-0.387008
C155	C	-0.165261	-0.775208	-0.248034
N156	N	-0.171915	-0.745583	-0.205751
C157	C	-0.095043	-0.660265	-0.318391
N158	N	-0.073990	-0.585305	-0.303864
C159	C	-0.321758	-0.903645	-0.181526
N160	N	-0.349469	-0.858088	-0.153774
H161	H	-0.369259	-1.123089	-0.055956
H162	H	-0.415348	-1.287245	-0.087766
C163	C	-0.557346	-1.377437	-0.322026
N164	N	-0.579931	-1.321801	-0.349716
