data_functionalizedCrystal
_audit_creation_method	'MofGen! by Chris Wilmer'
_symmetry_space_group_name_H-M	'P1'
_symmetry_Int_Tables_number	1
_symmetry_cell_setting	triclinic
loop_
_symmetry_equiv_pos_as_xyz
  x,y,z
_cell_length_a	10.489716
_cell_length_b	10.489741
_cell_length_c	9.565339
_cell_angle_alpha	90.000516
_cell_angle_beta	89.996780
_cell_angle_gamma	84.534155
loop_
_atom_site_label
_atom_site_type_symbol
_atom_site_fract_x
_atom_site_fract_y
_atom_site_fract_z
O1	O	1.694071	0.179810	-0.116248
O2	O	1.322871	0.196735	-0.116253
O3	O	1.516918	0.002674	-0.116242
O4	O	1.500025	0.373871	-0.116259
O5	O	1.516902	0.002686	0.116278
O6	O	1.322856	0.196747	0.116267
O7	O	1.694056	0.179822	0.116272
Zn8	Zn	1.508453	0.188286	0.153187
Zn9	Zn	1.508474	0.188271	-0.153168
O10	O	1.500009	0.373883	0.116261
C11	C	1.275332	0.195470	0.000006
C12	C	1.133701	0.191665	0.000005
C13	C	1.036027	0.310669	-0.000004
C14	C	0.958673	0.247791	0.114650
C15	C	0.958695	0.247751	-0.114597
C16	C	1.058213	0.128836	0.114753
C17	C	1.058240	0.128814	-0.114597
C18	C	0.980935	0.065848	0.000085
C19	C	1.515634	-0.044852	0.000017
C20	C	1.511817	-0.186481	0.000015
C21	C	1.388351	-0.254610	0.000003
C22	C	1.446668	-0.346732	0.114648
C23	C	1.446712	-0.346718	-0.114599
C24	C	1.570184	-0.276737	0.114754
C25	C	1.570212	-0.276714	-0.114595
C26	C	1.628618	-0.368808	0.000078
C27	C	1.741596	0.181087	0.000010
C28	C	1.883227	0.184892	0.000002
C29	C	1.501293	0.421409	-0.000001
C30	C	1.505110	0.563038	-0.000008
N31	N	1.508449	0.188297	0.362267
N32	N	1.508488	0.188250	-0.362247
C33	C	1.418681	0.278013	0.453465
C34	C	1.534180	0.303814	0.546644
C35	C	1.393001	0.162506	0.546643
C36	C	1.624006	0.214155	0.453394
C37	C	1.482750	0.072797	0.453385
C38	C	1.598332	0.098549	0.546522
H39	H	0.915218	0.298007	-0.211514
Cl40	Cl	1.301587	0.395255	0.390370
Cl41	Cl	1.650765	-0.229143	0.264565
H42	H	1.101522	0.078633	0.211779
Cl43	Cl	1.231625	-0.177938	0.000169
Cl44	Cl	1.715686	-0.018624	0.609222
H45	H	1.101742	0.078610	-0.211526
Cl46	Cl	1.074131	0.470483	0.000154
Cl47	Cl	0.891526	0.325357	0.264293
H48	H	1.394461	-0.377683	-0.211532
Cl49	Cl	1.366005	-0.394598	0.264290
H50	H	1.730222	-0.418241	0.000143
H51	H	1.622415	-0.245679	-0.211523
Cl52	Cl	1.567782	0.454583	0.609891
Cl53	Cl	1.449095	-0.077929	0.390083
H54	H	1.721677	0.236065	0.412606
H55	H	1.295352	0.140714	0.587606
H56	H	0.956505	-0.037744	0.000156
