data_functionalizedCrystal
_audit_creation_method	'MofGen! by Chris Wilmer'
_symmetry_space_group_name_H-M	'P1'
_symmetry_Int_Tables_number	1
_symmetry_cell_setting	triclinic
loop_
_symmetry_equiv_pos_as_xyz
  x,y,z
_cell_length_a	27.731994
_cell_length_b	14.044220
_cell_length_c	12.503572
_cell_angle_alpha	86.156832
_cell_angle_beta	86.517947
_cell_angle_gamma	92.095294
loop_
_atom_site_label
_atom_site_type_symbol
_atom_site_fract_x
_atom_site_fract_y
_atom_site_fract_z
O1	O	0.648767	-0.106955	-0.089169
O2	O	0.508778	-0.124144	-0.089205
O3	O	0.576671	0.022403	-0.089177
O4	O	0.580874	-0.253502	-0.089197
O5	O	0.571566	0.011364	0.089463
O6	O	0.503673	-0.135184	0.089435
O7	O	0.643662	-0.117994	0.089471
Cu8	Cu	0.573201	-0.127597	0.105764
Cu9	Cu	0.579239	-0.114542	-0.105498
O10	O	0.575769	-0.264541	0.089443
C11	C	0.488202	-0.129311	0.000111
C12	C	0.434496	-0.128247	0.000097
N13	N	0.568958	-0.136779	0.254355
C14	C	0.572279	0.052170	0.000143
C15	C	0.566792	0.157313	0.000143
C16	C	0.098679	-0.127574	0.097516
C17	C	-0.103169	-0.123534	0.097528
O18	O	-0.131635	-0.128089	0.180343
N19	N	-0.125624	-0.117015	0.000152
C20	C	-0.097615	-0.111499	-0.097235
O21	O	-0.121346	-0.105852	-0.180059
C22	C	0.104233	-0.115532	-0.097246
C23	C	0.126685	-0.122061	0.000137
C24	C	0.121132	-0.134101	0.194891
C25	C	0.171591	-0.135116	0.194887
C26	C	0.199597	-0.129603	0.097508
C27	C	0.177144	-0.123076	0.000133
C28	C	0.132242	-0.110009	-0.194631
C29	C	0.182707	-0.111015	-0.194626
C30	C	0.205159	-0.117544	-0.097243
C31	C	0.255609	-0.118578	-0.097250
N32	N	0.278065	-0.125097	0.000126
C33	C	0.250059	-0.130610	0.097505
C34	C	-0.203588	-0.109384	-0.097222
C35	C	-0.254049	-0.108378	-0.097219
C36	C	-0.259600	-0.120411	0.097544
C37	C	-0.209138	-0.121425	0.097540
C38	C	-0.181132	-0.115904	0.000155
C39	C	0.356026	-0.132742	0.097489
C40	C	0.406490	-0.133760	0.097476
C41	C	0.412036	-0.121721	-0.097286
C42	C	0.361577	-0.120708	-0.097274
C43	C	0.333573	-0.126215	0.000122
O44	O	0.284105	-0.114016	-0.180022
O45	O	0.273799	-0.136236	0.180317
C46	C	0.048220	-0.126559	0.097520
C47	C	0.025767	-0.120031	0.000145
C48	C	0.053774	-0.114518	-0.097234
C49	C	-0.024694	-0.119025	0.000148
C50	C	-0.052700	-0.124537	0.097527
C51	C	-0.030245	-0.131057	0.194903
C52	C	0.020214	-0.132072	0.194899
C53	C	0.031318	-0.107999	-0.194610
C54	C	-0.019141	-0.106986	-0.194598
C55	C	-0.047147	-0.112499	-0.097219
C56	C	0.664239	-0.112828	0.000153
C57	C	0.717945	-0.113891	0.000160
C58	C	0.580161	-0.294308	0.000121
C59	C	0.585649	-0.399451	0.000114
C60	C	0.556761	0.349825	0.000125
C61	C	0.595678	0.408043	0.000132
C62	C	0.590096	0.515163	0.000122
C63	C	0.562341	0.242695	0.000135
N64	N	0.583485	-0.105352	-0.254088
C65	C	0.562717	-0.150293	0.473468
C66	C	0.589725	-0.091841	0.526806
C67	C	0.586252	-0.099360	0.648728
C68	C	0.566189	-0.142775	0.351535
H69	H	0.424768	-0.139080	0.176781
H70	H	0.536989	-0.205980	0.519364
H71	H	0.615456	-0.036151	0.480904
Br72	Br	0.318029	-0.140213	0.229671
H73	H	0.189867	-0.140427	0.274186
H74	H	-0.037417	-0.101676	-0.273905
Br75	Br	0.331104	-0.111866	-0.229437
H76	H	0.098334	-0.138589	0.274193
Br77	Br	-0.068263	-0.138545	0.327059
Br78	Br	-0.178672	-0.130286	0.229707
Br79	Br	-0.297618	-0.127893	0.229701
Br80	Br	0.658197	0.357033	0.000157
Br81	Br	-0.284515	-0.099540	-0.229387
Br82	Br	0.494245	0.400838	0.000100
H83	H	0.113970	-0.104691	-0.273931
Br84	Br	-0.165587	-0.101891	-0.229402
H85	H	0.205507	-0.106519	-0.273931
H86	H	0.434848	-0.117237	-0.176570
H87	H	0.054116	-0.103507	-0.273910
Br88	Br	0.050677	-0.140935	0.327069
