data_functionalizedCrystal
_audit_creation_method	'MofGen! by Chris Wilmer'
_symmetry_space_group_name_H-M	'P1'
_symmetry_Int_Tables_number	1
_symmetry_cell_setting	triclinic
loop_
_symmetry_equiv_pos_as_xyz
  x,y,z
_cell_length_a	12.594517
_cell_length_b	12.594516
_cell_length_c	12.594509
_cell_angle_alpha	90.027875
_cell_angle_beta	90.021327
_cell_angle_gamma	90.011616
loop_
_atom_site_label
_atom_site_type_symbol
_atom_site_fract_x
_atom_site_fract_y
_atom_site_fract_z
Zn1	Zn	1.627298	-0.423716	0.601863
Zn2	Zn	2.127298	0.076284	1.101863
Zn3	Zn	1.627202	-0.601726	0.423885
Zn4	Zn	2.127202	-0.101726	0.923885
Zn5	Zn	1.449302	-0.423761	0.423892
Zn6	Zn	1.949302	0.076239	0.923892
Zn7	Zn	1.449298	-0.601652	0.601815
Zn8	Zn	1.949298	-0.101652	1.101815
O9	O	1.538275	-0.512714	0.512864
O10	O	2.038275	-0.012714	1.012864
O11	O	1.776231	-0.447341	0.578271
O12	O	2.276231	0.052659	1.078271
O13	O	1.603565	-0.578169	0.274940
O14	O	2.103565	-0.078169	0.774940
O15	O	1.472956	-0.274809	0.447522
O16	O	1.972956	0.225191	0.947522
O17	O	1.776161	-0.578124	0.447512
O18	O	2.276161	-0.078124	0.947512
O19	O	1.603729	-0.274776	0.578277
O20	O	2.103729	0.225224	1.078277
O21	O	1.472863	-0.447419	0.274945
O22	O	1.972863	0.052581	0.774945
O23	O	1.300356	-0.447347	0.447476
O24	O	1.800356	0.052653	0.947476
O25	O	1.472948	-0.577998	0.750767
O26	O	1.972948	-0.077998	1.250767
O27	O	1.300352	-0.578042	0.578196
O28	O	1.800352	-0.078042	1.078196
O29	O	1.603724	-0.447269	0.750802
O30	O	2.103724	0.052731	1.250802
O31	O	1.603561	-0.750662	0.447466
O32	O	2.103561	-0.250662	0.947466
O33	O	1.472855	-0.750608	0.578190
O34	O	1.972855	-0.250608	1.078190
C35	C	1.261734	-0.512692	0.512832
C36	C	1.761734	-0.012692	1.012832
C37	C	1.143429	-0.512709	0.512844
C38	C	1.643429	-0.012709	1.012844
C39	C	1.538226	-0.789255	0.512845
C40	C	2.038226	-0.289255	1.012845
C41	C	1.538302	-0.907560	0.512873
C42	C	2.038302	-0.407560	1.012873
C43	C	1.609475	-0.976804	0.441848
C44	C	2.109475	-0.476804	0.941848
C45	C	1.635486	-1.047501	0.538997
C46	C	2.135486	-0.547501	1.038997
C47	C	1.512425	-1.047662	0.415785
C48	C	2.012425	-0.547662	0.915785
C49	C	1.564362	-0.976698	0.610073
C50	C	2.064362	-0.476698	1.110073
C51	C	1.441256	-0.976854	0.486796
C52	C	1.941256	-0.476854	0.986796
C53	C	1.467229	-1.047519	0.584012
C54	C	1.967229	-0.547519	1.084012
C55	C	1.074146	-0.441526	0.441881
C56	C	1.574146	0.058474	0.941881
C57	C	1.003343	-0.538615	0.415702
C58	C	1.503343	-0.038615	0.915702
C59	C	1.003433	-0.415668	0.539042
C60	C	1.503433	0.084332	1.039042
C61	C	1.074183	-0.609849	0.486614
C62	C	1.574183	-0.109849	0.986614
C63	C	1.074280	-0.486836	0.609999
C64	C	1.574280	0.013164	1.109999
C65	C	1.003508	-0.583991	0.583857
C66	C	1.503508	-0.083991	1.083857
C67	C	1.815896	-0.512736	0.512896
C68	C	2.315896	-0.012736	1.012896
C69	C	1.934201	-0.512745	0.512909
C70	C	2.434201	-0.012745	1.012909
C71	C	1.538346	-0.512620	0.790485
C72	C	2.038346	-0.012620	1.290485
C73	C	1.538377	-0.512581	0.908790
C74	C	2.038377	-0.012581	1.408790
C75	C	1.538354	-0.235093	0.512906
C76	C	2.038354	0.264907	1.012906
C77	C	1.538387	-0.116787	0.512923
C78	C	2.038387	0.383213	1.012923
C79	C	1.538265	-0.512730	0.236323
C80	C	2.038265	-0.012730	0.736323
C81	C	1.538441	-0.512470	0.118018
C82	C	2.038441	-0.012470	0.618018
C83	C	1.467270	-0.583644	0.978025
C84	C	1.967270	-0.083644	1.478025
C85	C	1.564392	-0.609650	1.048815
C86	C	2.064392	-0.109650	1.548815
C87	C	1.441330	-0.486510	1.048799
C88	C	1.941330	0.013490	1.548799
C89	C	1.635550	-0.538638	0.978023
C90	C	2.135550	-0.038638	1.478023
C91	C	1.512422	-0.415453	0.978000
C92	C	2.012422	0.084547	1.478000
C93	C	1.609612	-0.441422	1.048759
C94	C	2.109612	0.058578	1.548759
H95	H	1.669674	-0.945753	0.381838
H96	H	2.169674	-0.445753	0.881838
H97	H	0.972185	-0.560522	0.333568
H98	H	1.472185	-0.060522	0.833568
Br99	Br	1.475886	-1.099620	0.278905
Br100	Br	1.975886	-0.599620	0.778905
H101	H	1.105163	-0.381389	0.381796
H102	H	1.605163	0.118611	0.881796
Br103	Br	1.125756	-0.746698	0.449571
Br104	Br	1.625756	-0.246698	0.949571
Br105	Br	1.709993	-0.341178	1.100206
Br106	Br	2.209993	0.158822	1.600206
Br107	Br	0.952133	-0.684458	0.683929
Br108	Br	1.452133	-0.184458	1.183929
Br109	Br	1.601075	-0.924974	0.746994
Br110	Br	2.101075	-0.424974	1.246994
Br111	Br	1.126251	-0.450278	0.746859
Br112	Br	1.626251	0.049722	1.246859
Br113	Br	0.951623	-0.278864	0.575924
Br114	Br	1.451623	0.221136	1.075924
Br115	Br	1.772339	-1.099199	0.575831
Br116	Br	2.272339	-0.599199	1.075831
Br117	Br	1.367121	-0.683956	0.926255
Br118	Br	1.867121	-0.183956	1.426255
H119	H	1.407077	-1.078372	0.644167
H120	H	1.907077	-0.578372	1.144167
H121	H	1.586380	-0.691742	1.079921
H122	H	2.086380	-0.191742	1.579921
H123	H	1.717672	-0.560736	0.947064
H124	H	2.217672	-0.060736	1.447064
H125	H	1.359232	-0.464506	1.079889
H126	H	1.859232	0.035494	1.579889
Br127	Br	1.304437	-0.925095	0.449945
Br128	Br	1.804437	-0.425095	0.949945
Br129	Br	1.475729	-0.278664	0.926113
Br130	Br	1.975729	0.221336	1.426113
