data_functionalizedCrystal
_audit_creation_method	'MofGen! by Chris Wilmer'
_symmetry_space_group_name_H-M	'P1'
_symmetry_Int_Tables_number	1
_symmetry_cell_setting	triclinic
loop_
_symmetry_equiv_pos_as_xyz
  x,y,z
_cell_length_a	14.044220
_cell_length_b	10.654550
_cell_length_c	9.730223
_cell_angle_alpha	89.998384
_cell_angle_beta	89.995496
_cell_angle_gamma	91.163110
loop_
_atom_site_label
_atom_site_type_symbol
_atom_site_fract_x
_atom_site_fract_y
_atom_site_fract_z
O1	O	-1.259693	0.302980	-0.114145
O2	O	-0.983652	0.292047	-0.114180
O3	O	-1.128019	0.115412	-0.114152
O4	O	-1.115326	0.479615	-0.114174
O5	O	-1.128018	0.115417	0.114428
O6	O	-0.983650	0.292052	0.114400
O7	O	-1.259691	0.302985	0.114434
Zn8	Zn	-1.121671	0.297519	0.150709
Zn9	Zn	-1.121673	0.297513	-0.150455
O10	O	-1.115324	0.479620	0.114406
C11	C	-0.948305	0.287263	0.000105
C12	C	-0.842986	0.272988	0.000092
C13	C	-1.127086	0.068523	0.000138
C14	C	-1.124298	-0.071201	0.000136
C15	C	-1.295038	0.307769	0.000146
C16	C	-1.400358	0.322044	0.000150
C17	C	-0.650153	0.246889	0.000121
C18	C	-0.593185	0.348137	0.000121
C19	C	-0.485886	0.333615	0.000137
C20	C	-0.757461	0.261409	0.000105
C21	C	-1.116257	0.526509	0.000114
C22	C	-1.119045	0.666233	0.000106
N23	N	-1.121676	0.297523	0.356245
C24	C	-1.034044	0.737176	0.000108
C25	C	-1.036670	0.868461	0.000119
C26	C	-1.209305	0.857846	0.000130
C27	C	-1.206679	0.726564	0.000110
C28	C	-0.946411	0.676845	0.000105
C29	C	-0.861403	0.747790	0.000109
C30	C	-0.864028	0.879074	0.000119
C31	C	-0.951662	0.939415	0.000125
N32	N	-1.121675	0.297500	-0.355991
C33	C	-1.185618	0.219340	0.428184
C34	C	-1.185616	0.219324	0.572067
C35	C	-1.057725	0.375686	0.572060
C36	C	-1.057724	0.375694	0.428180
C37	C	-1.249570	0.141169	0.356250
C38	C	-1.313518	0.062980	0.428188
C39	C	-1.313516	0.062965	0.572071
C40	C	-1.249565	0.141138	0.644016
H41	H	-0.624998	0.445725	0.000109
H42	H	-1.005655	0.439357	0.369607
H43	H	-0.794811	0.936834	0.000109
O44	O	-0.608025	0.117627	0.000135
H45	H	-0.563425	0.106194	-0.093030
O46	O	-0.943582	0.535246	0.000094
H47	H	-0.868367	0.505209	0.000084
O48	O	-0.988776	0.460024	0.649659
H49	H	-0.944312	0.514394	0.575461
O50	O	-0.766886	0.682721	0.000109
H51	H	-0.779337	0.579512	0.000118
H52	H	-1.249580	0.141177	0.239093
H53	H	-0.953794	1.046316	0.000127
O54	O	-1.303821	0.922918	0.000151
H55	H	-1.291367	1.026126	0.000179
H56	H	-1.365580	-0.000674	0.369604
O57	O	-1.298355	0.650031	0.000120
H58	H	-1.359733	0.714036	0.000150
H59	H	-1.365579	-0.000708	0.630642
H60	H	-1.249562	0.141109	0.761175
