data_functionalizedCrystal
_audit_creation_method	'MofGen! by Chris Wilmer'
_symmetry_space_group_name_H-M	'P1'
_symmetry_Int_Tables_number	1
_symmetry_cell_setting	triclinic
loop_
_symmetry_equiv_pos_as_xyz
  x,y,z
_cell_length_a	10.967926
_cell_length_b	19.188924
_cell_length_c	10.065875
_cell_angle_alpha	98.757069
_cell_angle_beta	93.120479
_cell_angle_gamma	83.944562
loop_
_atom_site_label
_atom_site_type_symbol
_atom_site_fract_x
_atom_site_fract_y
_atom_site_fract_z
O1	O	1.612246	0.121736	0.265688
O2	O	2.112246	0.621736	0.765688
O3	O	1.262191	0.123729	0.183355
O4	O	1.762191	0.623729	0.683355
O5	O	1.447322	0.021359	0.226914
O6	O	1.947322	0.521359	0.726914
O7	O	1.427115	0.224106	0.222129
O8	O	1.927115	0.724106	0.722129
O9	O	1.412020	0.040961	0.445596
O10	O	1.912020	0.540961	0.945596
O11	O	1.226889	0.143332	0.402037
O12	O	1.726889	0.643332	0.902037
O13	O	1.576944	0.141338	0.484371
O14	O	2.076944	0.641338	0.984371
Zn15	Zn	1.396311	0.145447	0.477924
Zn16	Zn	1.896311	0.645447	0.977924
Zn17	Zn	1.442824	0.119620	0.189801
Zn18	Zn	1.942824	0.619620	0.689801
O19	O	1.391813	0.243708	0.440811
O20	O	1.891813	0.743708	0.940811
C21	C	1.199755	0.131904	0.282163
C22	C	1.699755	0.631904	0.782163
C23	C	1.066311	0.127050	0.250777
C24	C	1.566311	0.627050	0.750777
C25	C	0.988529	0.135041	0.350068
C26	C	1.488529	0.635041	0.850068
C27	C	0.850607	0.130024	0.317632
C28	C	1.350607	0.630024	0.817632
C29	C	1.429018	0.005131	0.336103
C30	C	1.929018	0.505131	0.836103
C31	C	1.427057	-0.072428	0.335645
C32	C	1.927057	0.427572	0.835645
C33	C	1.445385	-0.119538	0.216226
C34	C	1.945385	0.380462	0.716226
C35	C	1.443527	-0.192413	0.215778
C36	C	1.943527	0.307587	0.715778
C37	C	1.423364	-0.218176	0.334763
C38	C	1.923364	0.281824	0.834763
C39	C	1.405027	-0.171056	0.454196
C40	C	1.905027	0.328944	0.954196
C41	C	1.406873	-0.098182	0.454638
C42	C	1.906873	0.401818	0.954638
N43	N	1.474551	-0.328064	0.438889
N44	N	1.974551	0.171936	0.938889
N45	N	1.472802	-0.397292	0.438463
N46	N	1.972802	0.102708	0.938463
C47	C	1.417798	-0.437742	0.333441
C48	C	1.917798	0.062258	0.833441
N49	N	1.364629	-0.406350	0.228845
N50	N	1.864629	0.093650	0.728845
N51	N	1.366385	-0.337116	0.229269
N52	N	1.866385	0.162884	0.729269
C53	C	1.421359	-0.297195	0.334298
C54	C	1.921359	0.202805	0.834298
C55	C	1.434111	-0.563872	0.213528
C56	C	1.934111	-0.063872	0.713528
C57	C	1.432245	-0.636748	0.213083
C58	C	1.932245	-0.136748	0.713083
C59	C	1.393757	-0.615390	0.451508
C60	C	1.893757	-0.115390	0.951508
C61	C	1.395611	-0.542515	0.451946
C62	C	1.895611	-0.042515	0.951946
C63	C	1.415795	-0.516761	0.332953
C64	C	1.915795	-0.016761	0.832953
C65	C	1.639380	0.133163	0.385560
C66	C	2.139380	0.633163	0.885560
C67	C	1.772826	0.138016	0.416937
C68	C	2.272826	0.638016	0.916937
C69	C	1.410118	0.259936	0.331620
C70	C	1.910118	0.759936	0.831620
C71	C	1.412080	0.337494	0.332069
C72	C	1.912080	0.837494	0.832069
N73	N	1.364577	0.163073	0.674563
N74	N	1.864577	0.663073	1.174563
N75	N	1.474568	0.101988	-0.006836
N76	N	1.974568	0.601988	0.493164
C77	C	1.431775	0.125748	0.758153
C78	C	1.931775	0.625748	1.258153
C79	C	1.407360	0.139319	0.909576
C80	C	1.907360	0.639319	1.409576
H81	H	0.815097	0.119467	0.208604
H82	H	1.315097	0.619467	0.708604
H83	H	1.331745	0.181322	0.950105
H84	H	1.831745	0.681322	1.450105
F85	F	0.819234	0.151805	0.559447
F86	F	1.319234	0.651805	1.059447
F87	F	1.573598	0.047205	0.940242
F88	F	2.073598	0.547205	1.440242
H89	H	1.288966	0.205074	0.715099
H90	H	1.788966	0.705074	1.215099
H91	H	1.024046	0.145592	0.459088
H92	H	1.524046	0.645592	0.959088
H93	H	1.507377	0.083742	0.717617
H94	H	2.007377	0.583742	1.217617
H95	H	1.030795	0.116493	0.141757
H96	H	1.530795	0.616493	0.641757
H97	H	1.447165	-0.675105	0.115833
H98	H	1.947165	-0.175105	0.615833
H99	H	1.461816	-0.098574	0.119332
H100	H	1.961816	0.401426	0.619332
F101	F	1.376103	-0.492375	0.579050
F102	F	1.876103	0.007625	1.079050
F103	F	1.463034	-0.242560	0.088671
F104	F	1.963034	0.257440	0.588671
H105	H	1.377330	-0.636365	0.548385
H106	H	1.877330	-0.136365	1.048385
H107	H	1.388606	-0.192037	0.551074
H108	H	1.888606	0.307963	1.051074
H109	H	1.450539	-0.542902	0.116635
H110	H	1.950539	-0.042902	0.616635
F111	F	1.387362	-0.048042	0.581745
F112	F	1.887362	0.451958	1.081745
