data_functionalizedCrystal
_audit_creation_method	'MofGen! by Chris Wilmer'
_symmetry_space_group_name_H-M	'P1'
_symmetry_Int_Tables_number	1
_symmetry_cell_setting	triclinic
loop_
_symmetry_equiv_pos_as_xyz
  x,y,z
_cell_length_a	18.101398
_cell_length_b	25.639239
_cell_length_c	18.101390
_cell_angle_alpha	89.965145
_cell_angle_beta	89.977223
_cell_angle_gamma	90.033952
loop_
_atom_site_label
_atom_site_type_symbol
_atom_site_fract_x
_atom_site_fract_y
_atom_site_fract_z
Zn1	Zn	1.132071	-0.208197	-0.418828
Zn2	Zn	1.465404	0.125136	-0.085495
Zn3	Zn	1.798737	0.458469	0.247838
Zn4	Zn	1.131954	-0.295641	-0.294982
Zn5	Zn	1.465287	0.037693	0.038351
Zn6	Zn	1.798620	0.371026	0.371684
Zn7	Zn	1.008233	-0.208214	-0.294989
Zn8	Zn	1.341566	0.125119	0.038344
Zn9	Zn	1.674900	0.458453	0.371677
Zn10	Zn	1.008164	-0.295596	-0.418771
Zn11	Zn	1.341497	0.037737	-0.085438
Zn12	Zn	1.674831	0.371070	0.247896
O13	O	1.070105	-0.251912	-0.356893
O14	O	1.403439	0.081421	-0.023559
O15	O	1.736772	0.414755	0.309774
O16	O	1.235688	-0.219808	-0.402421
O17	O	1.569021	0.113525	-0.069088
O18	O	1.902355	0.446858	0.264246
O19	O	1.115522	-0.284069	-0.191350
O20	O	1.448855	0.049265	0.141983
O21	O	1.782188	0.382598	0.475316
O22	O	1.024738	-0.135046	-0.311444
O23	O	1.358072	0.198287	0.021889
O24	O	1.691405	0.531620	0.355223
O25	O	1.235602	-0.284053	-0.311432
O26	O	1.568935	0.049281	0.021902
O27	O	1.902269	0.382614	0.355235
O28	O	1.115721	-0.135034	-0.402428
O29	O	1.449055	0.198299	-0.069094
O30	O	1.782388	0.531632	0.264239
O31	O	1.024625	-0.219837	-0.191356
O32	O	1.357958	0.113497	0.141978
O33	O	1.691291	0.446830	0.475311
O34	O	0.904591	-0.219794	-0.311388
O35	O	1.237924	0.113540	0.021945
O36	O	1.571258	0.446873	0.355278
O37	O	1.024621	-0.283977	-0.522411
O38	O	1.357954	0.049356	-0.189078
O39	O	1.691287	0.382690	0.144255
O40	O	0.904540	-0.283993	-0.402330
O41	O	1.237874	0.049340	-0.068997
O42	O	1.571207	0.382673	0.264337
O43	O	1.115654	-0.219765	-0.522454
O44	O	1.448988	0.113568	-0.189120
O45	O	1.782321	0.446901	0.144213
O46	O	1.115455	-0.368800	-0.311376
O47	O	1.448788	-0.035467	0.021957
O48	O	1.782121	0.297867	0.355290
O49	O	1.024507	-0.368767	-0.402323
O50	O	1.357840	-0.035434	-0.068990
O51	O	1.691174	0.297899	0.264344
C52	C	0.877695	-0.251891	-0.356854
C53	C	1.211028	0.081443	-0.023521
C54	C	1.544361	0.414776	0.309813
C55	C	0.795381	-0.251894	-0.356855
C56	C	1.128714	0.081439	-0.023522
C57	C	1.462047	0.414772	0.309812
C58	C	0.496290	-0.251927	-0.356917
C59	C	0.829623	0.081406	-0.023584
C60	C	1.162956	0.414740	0.309749
C61	C	0.527622	-0.211332	-0.299978
C62	C	0.860955	0.122001	0.033355
C63	C	1.194289	0.455334	0.366688
C64	C	0.613240	-0.211441	-0.299735
C65	C	0.946574	0.121892	0.033598
C66	C	1.279907	0.455225	0.366931
C67	C	0.644672	-0.251910	-0.356886
C68	C	0.978006	0.081423	-0.023553
C69	C	1.311339	0.414756	0.309780
C70	C	0.613544	-0.306988	-0.335559
C71	C	0.946878	0.026345	-0.002226
C72	C	1.280211	0.359679	0.331107
C73	C	0.527899	-0.306762	-0.335163
C74	C	0.861233	0.026571	-0.001830
C75	C	1.194566	0.359904	0.331503
C76	C	0.527905	-0.237923	-0.435317
C77	C	0.861238	0.095411	-0.101984
C78	C	1.194571	0.428744	0.231349
C79	C	0.613556	-0.236696	-0.434890
C80	C	0.946889	0.096637	-0.101556
C81	C	1.280223	0.429971	0.231777
C82	C	0.728532	-0.251904	-0.356870
C83	C	1.061865	0.081429	-0.023537
C84	C	1.395198	0.414762	0.309796
C85	C	0.412430	-0.251937	-0.356932
C86	C	0.745764	0.081397	-0.023598
C87	C	1.079097	0.414730	0.309735
C88	C	1.069981	-0.387755	-0.356859
C89	C	1.403314	-0.054421	-0.023525
C90	C	1.736647	0.278912	0.309808
C91	C	1.069995	-0.445869	-0.356869
C92	C	1.403329	-0.112535	-0.023536
C93	C	1.736662	0.220798	0.309798
C94	C	1.117585	-0.806236	-0.309617
C95	C	1.450919	-0.472903	0.023716
C96	C	1.784252	-0.139569	0.357049
C97	C	1.117614	-0.860840	-0.309627
C98	C	1.450947	-0.527507	0.023706
C99	C	1.784281	-0.194174	0.357039
O100	O	1.157948	-0.889081	-0.269415
O101	O	1.491281	-0.555747	0.063918
O102	O	1.824614	-0.222414	0.397252
N103	N	1.070235	-0.888151	-0.356942
N104	N	1.403569	-0.554818	-0.023608
N105	N	1.736902	-0.221484	0.309725
C106	C	1.022830	-0.860855	-0.404255
C107	C	1.356164	-0.527521	-0.070922
C108	C	1.689497	-0.194188	0.262412
O109	O	0.982534	-0.889098	-0.444501
O110	O	1.315868	-0.555765	-0.111168
O111	O	1.649201	-0.222432	0.222166
C112	C	1.022806	-0.806251	-0.404248
C113	C	1.356139	-0.472918	-0.070915
C114	C	1.689473	-0.139585	0.262419
C115	C	1.070182	-0.778943	-0.356925
C116	C	1.403516	-0.445610	-0.023592
C117	C	1.736849	-0.112277	0.309741
C118	C	1.164958	-0.778928	-0.262299
C119	C	1.498292	-0.445595	0.071034
C120	C	1.831625	-0.112261	0.404368
C121	C	1.164928	-0.724328	-0.262288
C122	C	1.498262	-0.390994	0.071045
C123	C	1.831595	-0.057661	0.404378
C124	C	1.117526	-0.697035	-0.309596
C125	C	1.450859	-0.363702	0.023737
C126	C	1.784192	-0.030368	0.357071
C127	C	1.070152	-0.724343	-0.356914
C128	C	1.403486	-0.391010	-0.023581
C129	C	1.736819	-0.057676	0.309752
C130	C	0.975405	-0.778956	-0.451564
C131	C	1.308739	-0.445623	-0.118231
C132	C	1.642072	-0.112289	0.215102
C133	C	0.975385	-0.724349	-0.451554
C134	C	1.308719	-0.391015	-0.118221
C135	C	1.642052	-0.057682	0.215113
C136	C	1.022762	-0.697041	-0.404231
C137	C	1.356095	-0.363708	-0.070898
C138	C	1.689428	-0.030374	0.262436
C139	C	1.022720	-0.642450	-0.404212
C140	C	1.356053	-0.309116	-0.070878
C141	C	1.689386	0.024217	0.262455
N142	N	1.070098	-0.615139	-0.356897
N143	N	1.403432	-0.281806	-0.023564
N144	N	1.736765	0.051528	0.309770
C145	C	1.117501	-0.642432	-0.309589
C146	C	1.450834	-0.309098	0.023744
C147	C	1.784168	0.024235	0.357077
C148	C	1.022886	-0.975525	-0.404266
C149	C	1.356220	-0.642192	-0.070933
C150	C	1.689553	-0.308859	0.262400
C151	C	1.022906	-1.030128	-0.404270
C152	C	1.356240	-0.696794	-0.070936
C153	C	1.689573	-0.363461	0.262397
C154	C	1.117691	-1.030110	-0.309643
C155	C	1.451024	-0.696776	0.023690
C156	C	1.784358	-0.363443	0.357024
C157	C	1.117667	-0.975506	-0.309636
C158	C	1.451000	-0.642173	0.023697
C159	C	1.784333	-0.308840	0.357030
C160	C	1.070265	-0.948215	-0.356952
C161	C	1.403598	-0.614881	-0.023618
C162	C	1.736931	-0.281548	0.309715
C163	C	1.117434	-0.527767	-0.309570
C164	C	1.450768	-0.194433	0.023763
C165	C	1.784101	0.138900	0.357097
C166	C	1.117398	-0.473161	-0.309561
C167	C	1.450731	-0.139828	0.023772
C168	C	1.784065	0.193505	0.357105
C169	C	1.022616	-0.473184	-0.404190
C170	C	1.355950	-0.139851	-0.070857
C171	C	1.689283	0.193483	0.262476
C172	C	1.022650	-0.527785	-0.404197
C173	C	1.355983	-0.194451	-0.070863
C174	C	1.689316	0.138882	0.262470
C175	C	1.070065	-0.555075	-0.356884
C176	C	1.403398	-0.221741	-0.023551
C177	C	1.736731	0.111592	0.309783
O178	O	0.982409	-0.614175	-0.444406
O179	O	1.315742	-0.280841	-0.111072
O180	O	1.649075	0.052492	0.222261
O181	O	1.157797	-0.614181	-0.269357
O182	O	1.491131	-0.280848	0.063977
O183	O	1.824464	0.052486	0.397310
C184	C	1.263267	-0.251934	-0.356932
C185	C	1.596600	0.081400	-0.023599
C186	C	1.929934	0.414733	0.309735
C187	C	1.345581	-0.251943	-0.356949
C188	C	1.678915	0.081390	-0.023615
C189	C	2.012248	0.414724	0.309718
C190	C	1.070143	-0.251865	-0.550055
C191	C	1.403476	0.081469	-0.216721
C192	C	1.736810	0.414802	0.116612
C193	C	1.070159	-0.251844	-0.632369
C194	C	1.403492	0.081489	-0.299036
C195	C	1.736826	0.414822	0.034298
C196	C	1.070250	-0.115539	-0.356943
C197	C	1.403584	0.217794	-0.023610
C198	C	1.736917	0.551128	0.309724
C199	C	1.070312	-0.057425	-0.356964
C200	C	1.403646	0.275908	-0.023631
C201	C	1.736979	0.609242	0.309702
C202	C	1.070185	-0.251828	-0.783077
C203	C	1.403519	0.081505	-0.449744
C204	C	1.736852	0.414839	-0.116411
C205	C	1.127463	-0.211424	-0.814458
C206	C	1.460797	0.121909	-0.481124
C207	C	1.794130	0.455243	-0.147791
C208	C	1.127703	-0.211533	-0.900076
C209	C	1.461036	0.121800	-0.566743
C210	C	1.794369	0.455133	-0.233409
C211	C	1.070212	-0.251811	-0.931460
C212	C	1.403545	0.081522	-0.598127
C213	C	1.736878	0.414856	-0.264793
C214	C	1.091077	-0.306959	-0.900349
C215	C	1.424410	0.026374	-0.567015
C216	C	1.757743	0.359708	-0.233682
C217	C	1.091477	-0.306735	-0.814704
C218	C	1.424811	0.026598	-0.481371
C219	C	1.758144	0.359932	-0.148037
C220	C	0.991903	-0.237562	-0.814628
C221	C	1.325236	0.095771	-0.481295
C222	C	1.658570	0.429105	-0.147961
C223	C	0.992338	-0.236337	-0.900280
C224	C	1.325672	0.096997	-0.566946
C225	C	1.659005	0.430330	-0.233613
C226	C	1.070225	-0.251805	-1.015320
C227	C	1.403558	0.081529	-0.681986
C228	C	1.736892	0.414862	-0.348653
C229	C	1.070174	-0.251838	-0.699218
C230	C	1.403507	0.081496	-0.365885
C231	C	1.736840	0.414829	-0.032551
C232	C	1.070110	-0.251922	-0.164482
C233	C	1.403444	0.081412	0.168851
C234	C	1.736777	0.414745	0.502184
C235	C	1.070238	-0.251795	-0.082169
C236	C	1.403571	0.081539	0.251165
C237	C	1.736905	0.414872	0.584498
H238	H	0.507059	-0.170365	-0.313200
H239	H	0.840392	0.162968	0.020133
H240	H	1.173726	0.496301	0.353467
H241	H	0.633907	-0.196165	-0.450971
H242	H	0.967240	0.137168	-0.117638
H243	H	1.300574	0.470502	0.215696
F244	F	0.971761	-0.183290	-0.926862
F245	F	1.305095	0.150044	-0.593529
F246	F	1.638428	0.483377	-0.260195
H247	H	0.947411	-0.263599	-0.921640
H248	H	1.280744	0.069734	-0.588307
H249	H	1.614077	0.403067	-0.254973
H250	H	0.507642	-0.267490	-0.477742
H251	H	0.840975	0.065843	-0.144409
H252	H	1.174308	0.399177	0.188924
H253	H	1.203508	-0.702097	-0.223756
H254	H	1.536842	-0.368763	0.109577
H255	H	1.870175	-0.035430	0.442911
H256	H	0.507170	-0.338033	-0.374826
H257	H	0.840504	-0.004699	-0.041493
H258	H	1.173837	0.328634	0.291840
F259	F	1.167898	-0.556803	-0.259214
F260	F	1.501232	-0.223470	0.074119
F261	F	1.834565	0.109864	0.407452
H262	H	1.155978	-0.450929	-0.271023
H263	H	1.489311	-0.117596	0.062311
H264	H	1.822644	0.215738	0.395644
H265	H	1.114586	-0.170413	-0.793886
H266	H	1.447919	0.162920	-0.460553
H267	H	1.781252	0.496253	-0.127219
F268	F	1.166261	-0.322507	-0.788605
F269	F	1.499594	0.010826	-0.455272
F270	F	1.832927	0.344160	-0.121939
H271	H	1.185141	-0.220767	-0.792948
H272	H	1.518474	0.112567	-0.459615
H273	H	1.851807	0.445900	-0.126282
F274	F	1.203528	-0.223899	-0.926876
F275	F	1.536861	0.109434	-0.593543
F276	F	1.870195	0.442767	-0.260209
H277	H	0.936786	-0.702131	-0.490086
H278	H	1.270119	-0.368797	-0.156753
H279	H	1.603452	-0.035464	0.176580
F280	F	1.110469	-0.158125	-0.927576
F281	F	1.443803	0.175208	-0.594243
F282	F	1.777136	0.508541	-0.260910
H283	H	0.949231	-0.266988	-0.794330
H284	H	1.282565	0.066345	-0.460997
H285	H	1.615898	0.399679	-0.127664
H286	H	0.506073	-0.220486	-0.242223
H287	H	0.839406	0.112847	0.091111
H288	H	1.172739	0.446181	0.424444
H289	H	0.634958	-0.319070	-0.278864
H290	H	0.968292	0.014264	0.054470
H291	H	1.301625	0.347597	0.387803
H292	H	0.633694	-0.220700	-0.241642
H293	H	0.967027	0.112634	0.091692
H294	H	1.300360	0.445967	0.425025
F295	F	0.641521	-0.272527	-0.493314
F296	F	0.974855	0.060806	-0.159981
F297	F	1.308188	0.394140	0.173353
F298	F	0.972474	-1.059185	-0.454629
F299	F	1.305807	-0.725851	-0.121296
F300	F	1.639140	-0.392518	0.212038
H301	H	0.936823	-0.801181	-0.490096
H302	H	1.270156	-0.467847	-0.156763
H303	H	1.603489	-0.134514	0.176570
F304	F	0.640754	-0.158057	-0.317208
F305	F	0.974087	0.175276	0.016125
F306	F	1.307420	0.508609	0.349459
F307	F	1.215417	-0.807967	-0.211944
F308	F	1.548750	-0.474633	0.121389
F309	F	1.882083	-0.141300	0.454723
F310	F	1.039300	-0.347437	-0.787564
F311	F	1.372634	-0.014104	-0.454230
F312	F	1.705967	0.319229	-0.120897
H313	H	0.984019	-0.450954	-0.442706
H314	H	1.317353	-0.117621	-0.109372
H315	H	1.650686	0.215713	0.223961
H316	H	1.050643	-0.337881	-0.920673
H317	H	1.383976	-0.004548	-0.587340
H318	H	1.717310	0.328785	-0.254007
F319	F	1.168091	-0.946448	-0.259270
F320	F	1.501424	-0.613115	0.074064
F321	F	1.834758	-0.279781	0.407397
F322	F	1.168141	-1.059166	-0.259292
F323	F	1.501474	-0.725833	0.074041
F324	F	1.834808	-0.392499	0.407374
F325	F	1.165048	-0.322999	-0.928396
F326	F	1.498381	0.010334	-0.595063
F327	F	1.831715	0.343668	-0.261730
H328	H	0.984280	-0.953307	-0.442794
H329	H	1.317613	-0.619974	-0.109461
H330	H	1.650946	-0.286640	0.223873
F331	F	0.972213	-0.556849	-0.454549
F332	F	1.305547	-0.223515	-0.121216
F333	F	1.638880	0.109818	0.212118
F334	F	0.501739	-0.322284	-0.260249
F335	F	0.835073	0.011050	0.073084
F336	F	1.168406	0.344383	0.406418
F337	F	0.640145	-0.347582	-0.388072
F338	F	0.973478	-0.014248	-0.054739
F339	F	1.306811	0.319085	0.278594
F340	F	0.499720	-0.186340	-0.460662
F341	F	0.833054	0.146994	-0.127328
F342	F	1.166387	0.480327	0.206005
F343	F	0.966990	-0.185898	-0.786417
F344	F	1.300323	0.147436	-0.453084
F345	F	1.633657	0.480769	-0.119751
