data_functionalizedCrystal
_audit_creation_method	'MofGen! by Chris Wilmer'
_symmetry_space_group_name_H-M	'P1'
_symmetry_Int_Tables_number	1
_symmetry_cell_setting	triclinic
loop_
_symmetry_equiv_pos_as_xyz
  x,y,z
_cell_length_a	27.440280
_cell_length_b	17.917559
_cell_length_c	17.917603
_cell_angle_alpha	60.142335
_cell_angle_beta	90.006544
_cell_angle_gamma	63.038521
loop_
_atom_site_label
_atom_site_type_symbol
_atom_site_fract_x
_atom_site_fract_y
_atom_site_fract_z
Zr1	Zr	0.497381	0.806673	-0.128860
O2	O	0.427465	0.951699	-0.249391
O3	O	0.515462	0.654462	-0.087225
O4	O	0.524305	0.796294	-0.242614
O5	O	0.415460	0.820559	0.023240
O6	O	0.604507	0.796281	-0.242598
O7	O	0.418622	0.809866	-0.094002
O8	O	0.588688	0.542569	0.035363
O9	O	0.431278	1.074271	-0.254721
O10	O	0.587077	0.719720	-0.075118
O11	O	0.524863	0.727710	0.012367
O12	O	0.535274	0.894699	-0.170583
O13	O	0.473061	0.902689	-0.083098
Zr14	Zr	0.620251	0.823706	0.058152
Zr15	Zr	0.625294	0.806652	-0.128836
Zr16	Zr	0.492338	0.823727	0.058128
Zr17	Zr	0.503463	1.002162	-0.137362
Zr18	Zr	0.614169	0.628217	0.066654
O19	O	0.602170	0.975917	0.016517
O20	O	0.609341	0.951669	-0.249356
O21	O	0.420294	0.975947	0.016483
O22	O	0.690166	0.678680	0.178683
O23	O	0.697337	0.654432	-0.087190
O24	O	0.508291	0.678710	0.178648
O25	O	0.702171	0.809820	-0.093948
O26	O	0.593327	0.834085	0.171906
O27	O	0.513125	0.834098	0.171890
O28	O	0.699009	0.820513	0.023294
O29	O	0.532952	1.074255	-0.254702
O30	O	0.584680	0.556124	0.183994
O31	O	0.686353	0.556108	0.184013
O32	O	0.690362	0.542552	0.035383
O33	O	0.427269	1.087827	-0.106091
O34	O	0.528943	1.087810	-0.106071
O35	O	0.582357	0.735680	0.099875
O36	O	0.644571	0.727690	0.012390
O37	O	0.592768	0.902669	-0.083075
O38	O	0.530555	0.910659	0.004411
C39	C	0.551209	0.570662	-0.024720
C40	C	0.548627	0.487672	-0.021110
C41	C	0.573679	0.294712	-0.056246
C42	C	0.543954	0.335671	-0.014464
C43	C	0.546555	0.420252	-0.018163
C44	C	0.571079	0.210123	-0.052548
C45	C	0.398816	0.815215	-0.035384
C46	C	0.344514	0.815224	-0.035395
C47	C	0.034853	0.723837	0.014502
C48	C	-0.016166	0.723832	0.014510
O49	O	-0.019558	0.646155	0.056917
N50	N	-0.068723	0.815168	-0.035322
C51	C	-0.070260	0.906516	-0.085158
O52	O	-0.119649	0.984204	-0.127543
C53	C	-0.019242	0.906520	-0.085161
C54	C	0.033314	0.815178	-0.035332
C55	C	0.087407	0.632502	0.064327
C56	C	0.138423	0.632507	0.064318
C57	C	0.136884	0.723848	0.014483
C58	C	0.084329	0.815183	-0.035342
C59	C	-0.020780	0.997868	-0.134991
C60	C	0.030243	0.997864	-0.134989
C61	C	0.082800	0.906522	-0.085160
C62	C	0.133806	0.906529	-0.085186
N63	N	0.186363	0.815193	-0.035354
C64	C	0.187902	0.723852	0.014481
C65	C	-0.177400	0.906499	-0.085148
C66	C	-0.228417	0.906496	-0.085152
C67	C	-0.174319	0.723811	0.014518
C68	C	-0.123301	0.723816	0.014516
C69	C	-0.124843	0.815163	-0.035316
C70	C	0.295035	0.723870	0.014457
C71	C	0.346053	0.723884	0.014440
C72	C	0.291950	0.906567	-0.085226
C73	C	0.240937	0.906555	-0.085213
C74	C	0.242483	0.815198	-0.035365
O75	O	0.137242	0.984166	-0.127568
O76	O	0.237292	0.646178	0.056868
C77	C	0.718815	0.815163	-0.035323
C78	C	0.773118	0.815155	-0.035313
C79	C	0.565124	0.793858	-0.269248
C80	C	0.567265	0.786618	-0.348629
C81	C	0.566423	1.059717	-0.045988
C82	C	0.569005	1.142707	-0.049597
C83	C	0.571188	0.773394	-0.493985
C84	C	0.546445	0.856980	-0.576725
C85	C	0.548627	0.849622	-0.657606
C86	C	0.569006	0.780750	-0.413095
C87	C	0.552507	0.836521	0.198540
C88	C	0.550366	0.843761	0.277921
C89	C	0.711208	0.570636	-0.024689
C90	C	0.762929	0.487637	-0.021069
C91	C	0.544900	0.591994	0.209174
C92	C	0.540177	0.516243	0.292165
C93	C	0.704900	0.591968	0.209205
C94	C	0.754479	0.516208	0.292206
C95	C	0.412732	1.038411	-0.279913
C96	C	0.363152	1.114171	-0.362914
C97	C	0.406423	1.059743	-0.046019
C98	C	0.354703	1.142742	-0.049638
C99	C	0.572731	1.038385	-0.279882
C100	C	0.577454	1.114136	-0.362873
C101	C	0.757206	0.444499	-0.065056
C102	C	0.805799	0.366522	-0.061673
C103	C	0.860114	0.331679	-0.014298
C104	C	0.865835	0.374825	0.029690
C105	C	0.817243	0.452806	0.026301
C106	C	0.567971	0.484831	0.376824
C107	C	0.563531	0.413667	0.454809
C108	C	0.531301	0.373911	0.448133
C109	C	0.503505	0.405330	0.363465
C110	C	0.507941	0.476498	0.285481
C111	C	0.810243	0.476460	0.285517
C112	C	0.856833	0.405287	0.363498
C113	C	0.847659	0.373857	0.448166
C114	C	0.791890	0.413612	0.454853
C115	C	0.745301	0.484790	0.376873
C116	C	0.307389	1.153928	-0.356226
C117	C	0.260799	1.225126	-0.434207
C118	C	0.269973	1.256560	-0.518876
C119	C	0.325742	1.216799	-0.525562
C120	C	0.372331	1.145608	-0.447581
C121	C	0.360426	1.185887	-0.005660
C122	C	0.311834	1.263884	-0.009065
C123	C	0.257520	1.298729	-0.056443
C124	C	0.251798	1.255580	-0.100426
C125	C	0.300389	1.177589	-0.097027
C126	C	0.609688	1.153870	-0.356168
C127	C	0.614137	1.225036	-0.434138
C128	C	0.586348	1.256472	-0.518814
C129	C	0.554112	1.216730	-0.525517
C130	C	0.549667	1.145560	-0.447547
H131	H	0.388846	0.649498	0.055019
Br132	Br	0.619347	0.342142	-0.120499
H133	H	0.028981	1.072253	-0.175558
H134	H	-0.173074	0.649436	0.055094
H135	H	0.516548	0.307220	0.024081
Br136	Br	0.601260	0.371041	0.569704
H137	H	0.290707	0.980934	-0.125803
H138	H	0.316504	1.299004	0.026756
Br139	Br	0.939552	0.327525	0.093984
Br140	Br	0.292612	1.119039	-0.156713
H141	H	0.885600	0.315898	0.511655
Br142	Br	0.611718	0.538765	0.385910
Br143	Br	0.448008	1.091654	-0.456674
H144	H	-0.178663	0.980890	-0.125732
H145	H	0.784429	0.388011	0.523800
Br146	Br	0.822709	0.519105	0.170620
H147	H	0.299908	1.128338	-0.287291
H148	H	0.523620	0.934067	-0.586817
H149	H	0.821910	0.487920	0.062126
H150	H	0.527693	0.315962	0.511640
Br151	Br	0.932513	0.351345	0.354403
Br152	Br	0.338183	1.259468	-0.640476
H153	H	0.296303	0.649479	0.055049
H154	H	0.404647	1.157524	0.032926
H155	H	0.217958	1.362235	-0.059204
H156	H	0.477263	0.372950	0.358042
H157	H	0.594009	0.696314	-0.483894
H158	H	0.485310	0.502064	0.216551
H159	H	0.699897	0.517144	0.382331
H160	H	0.215394	1.257487	-0.428746
Br161	Br	0.647408	1.111223	-0.241261
Br162	Br	0.505912	1.091652	-0.456663
Br163	Br	0.206739	1.353179	-0.624699
H164	H	0.181212	0.558126	0.104890
Br165	Br	0.178081	1.302878	-0.164719
H166	H	0.640385	1.257386	-0.428663
H167	H	0.589972	1.314424	-0.582295
H168	H	0.088670	0.558117	0.104913
Br169	Br	-0.051979	0.599847	0.082142
Br170	Br	0.516396	1.259413	-0.640441
Br171	Br	0.926055	0.225846	-0.009707
Br172	Br	-0.092097	1.121842	-0.202613
Br173	Br	-0.299738	1.030464	-0.152794
H174	H	0.712985	0.472865	-0.103645
Br175	Br	0.798021	0.307980	-0.121373
Br176	Br	0.169610	1.030518	-0.152859
