data_functionalizedCrystal
_audit_creation_method	'MofGen! by Chris Wilmer'
_symmetry_space_group_name_H-M	'P1'
_symmetry_Int_Tables_number	1
_symmetry_cell_setting	triclinic
loop_
_symmetry_equiv_pos_as_xyz
  x,y,z
_cell_length_a	10.654545
_cell_length_b	19.188924
_cell_length_c	9.730223
_cell_angle_alpha	89.993539
_cell_angle_beta	89.997167
_cell_angle_gamma	83.812522
loop_
_atom_site_label
_atom_site_type_symbol
_atom_site_fract_x
_atom_site_fract_y
_atom_site_fract_z
O1	O	1.665763	0.098047	-0.114283
O2	O	1.300086	0.107393	-0.114290
O3	O	1.493482	0.001133	-0.114270
O4	O	1.472367	0.204307	-0.114303
O5	O	1.493469	0.001130	0.114310
O6	O	1.300074	0.107390	0.114290
O7	O	1.665751	0.098044	0.114297
Zn8	Zn	1.482910	0.102717	0.150586
Zn9	Zn	1.482927	0.102721	-0.150578
O10	O	1.472355	0.204304	0.114277
C11	C	1.253296	0.106706	-0.000000
C12	C	1.113896	0.104655	-0.000002
C13	C	1.048405	0.103688	0.124598
C14	C	0.917427	0.101749	0.124598
C15	C	0.917441	0.101747	-0.124612
C16	C	1.048418	0.103681	-0.124611
C17	C	1.492793	-0.024884	0.000021
C18	C	1.490745	-0.102402	0.000025
C19	C	1.489796	-0.138806	-0.124574
C20	C	1.487854	-0.211641	-0.124585
C21	C	1.486886	-0.248072	0.000011
C22	C	1.487828	-0.211659	0.124627
C23	C	1.489758	-0.138824	0.124634
N24	N	1.555314	-0.367289	0.092746
N25	N	1.553483	-0.436480	0.092731
C26	C	1.481069	-0.467519	-0.000002
N27	N	1.410570	-0.426755	-0.092741
N28	N	1.412406	-0.357559	-0.092730
C29	C	1.484792	-0.327049	0.000017
C30	C	1.478012	-0.582899	-0.124622
C31	C	1.476062	-0.655735	-0.124627
C32	C	1.476049	-0.655752	0.124588
C33	C	1.477986	-0.582917	0.124590
C34	C	1.478974	-0.546495	-0.000019
C35	C	1.712541	0.098731	0.000004
C36	C	1.851941	0.100782	-0.000003
C37	C	1.473044	0.230321	-0.000017
C38	C	1.475092	0.307839	-0.000030
N39	N	1.482908	0.102714	0.356122
N40	N	1.482938	0.102718	-0.356115
C41	C	1.568573	0.055682	0.428057
C42	C	1.568585	0.055682	0.571939
C43	C	1.397265	0.149752	0.571941
C44	C	1.397247	0.149748	0.428060
H45	H	0.864110	0.100962	0.226060
H46	H	0.864113	0.100955	-0.226065
O47	O	1.304853	0.200480	0.350457
H48	H	1.245304	0.233194	0.424650
O49	O	1.660995	0.004956	0.649514
H50	H	1.608345	-0.029260	0.715077
H51	H	1.475251	-0.685413	0.226037
H52	H	1.101743	0.104467	-0.226082
H53	H	1.101714	0.104481	0.226063
H54	H	1.490596	-0.109155	-0.226041
O55	O	1.304893	0.200487	0.649540
H56	H	1.320584	0.254994	0.621886
O57	O	1.486833	-0.250919	-0.258978
H58	H	1.487849	-0.213356	-0.345623
H59	H	1.478809	-0.553242	-0.226085
H60	H	1.490525	-0.109184	0.226100
O61	O	1.486807	-0.250947	0.259017
H62	H	1.485326	-0.307712	0.238081
H63	H	1.478770	-0.553277	0.226052
O64	O	1.474989	-0.695001	-0.259022
H65	H	1.475994	-0.657435	-0.345662
H66	H	1.638321	0.017382	0.369488
