data_functionalizedCrystal
_audit_creation_method	'MofGen! by Chris Wilmer'
_symmetry_space_group_name_H-M	'P1'
_symmetry_Int_Tables_number	1
_symmetry_cell_setting	triclinic
loop_
_symmetry_equiv_pos_as_xyz
  x,y,z
_cell_length_a	11.792241
_cell_length_b	10.868271
_cell_length_c	11.792254
_cell_angle_alpha	90.001586
_cell_angle_beta	84.196007
_cell_angle_gamma	90.000156
loop_
_atom_site_label
_atom_site_type_symbol
_atom_site_fract_x
_atom_site_fract_y
_atom_site_fract_z
O1	O	1.506916	0.102203	0.155561
O2	O	1.840249	0.435537	0.488895
O3	O	2.173583	0.768870	0.822228
O4	O	1.176576	0.102232	0.171594
O5	O	1.509909	0.435565	0.504928
O6	O	1.843242	0.768899	0.838261
O7	O	1.349755	0.102208	-0.001592
O8	O	1.683088	0.435542	0.331742
O9	O	2.016422	0.768875	0.665075
O10	O	1.333737	0.102227	0.328747
O11	O	1.667070	0.435560	0.662081
O12	O	2.000404	0.768894	0.995414
O13	O	1.349739	-0.102436	-0.001586
O14	O	1.683073	0.230897	0.331747
O15	O	2.016406	0.564230	0.665080
O16	O	1.176560	-0.102413	0.171600
O17	O	1.509893	0.230921	0.504933
O18	O	1.843227	0.564254	0.838266
O19	O	1.506900	-0.102441	0.155567
O20	O	1.840234	0.230892	0.488900
O21	O	2.173567	0.564225	0.822234
Zn22	Zn	1.341728	-0.134919	0.163584
Zn23	Zn	1.675061	0.198415	0.496918
Zn24	Zn	2.008394	0.531748	0.830251
Zn25	Zn	1.341748	0.134709	0.163577
Zn26	Zn	1.675082	0.468043	0.496910
Zn27	Zn	2.008415	0.801376	0.830244
O28	O	1.333721	-0.102418	0.328753
O29	O	1.667055	0.230916	0.662086
O30	O	2.000388	0.564249	0.995420
C31	C	1.134277	-0.000087	0.170590
C32	C	1.467610	0.333247	0.503923
C33	C	1.800944	0.666580	0.837257
C34	C	1.008263	-0.000076	0.167576
C35	C	1.341596	0.333257	0.500909
C36	C	1.674930	0.666591	0.834242
N37	N	1.341722	-0.318933	0.163589
N38	N	1.675055	0.014401	0.496922
N39	N	2.008389	0.347734	0.830255
C40	C	0.777551	-0.000112	0.162033
C41	C	1.110884	0.333222	0.495366
C42	C	1.444217	0.666555	0.828699
C43	C	0.905936	-0.000092	0.165112
C44	C	1.239269	0.333241	0.498446
C45	C	1.572603	0.666575	0.831779
C46	C	1.341731	-0.430270	0.163589
C47	C	1.675064	-0.096937	0.496922
C48	C	2.008397	0.236396	0.830256
C49	C	1.341745	-0.569948	0.163579
C50	C	1.675079	-0.236615	0.496912
C51	C	2.008412	0.096719	0.830245
C52	C	1.549199	-0.000120	0.156571
C53	C	1.882533	0.333213	0.489905
C54	C	2.215866	0.666547	0.823238
C55	C	1.675213	-0.000123	0.159586
C56	C	2.008546	0.333211	0.492919
C57	C	2.341880	0.666544	0.826252
C58	C	1.348738	-0.000114	-0.043880
C59	C	1.682071	0.333220	0.289454
C60	C	2.015405	0.666553	0.622787
C61	C	1.345718	-0.000112	-0.169893
C62	C	1.679051	0.333221	0.163441
C63	C	2.012385	0.666555	0.496774
N64	N	1.341763	0.318724	0.163564
N65	N	1.675097	0.652057	0.496897
N66	N	2.008430	0.985390	0.830230
C67	C	1.343264	-0.000108	-0.272229
C68	C	1.676597	0.333226	0.061104
C69	C	2.009931	0.666559	0.394437
C70	C	1.340196	-0.000096	-0.400616
C71	C	1.673529	0.333237	-0.067283
C72	C	2.006862	0.666571	0.266051
C73	C	1.334738	-0.000093	0.371041
C74	C	1.668071	0.333240	0.704374
C75	C	2.001405	0.666574	1.037708
C76	C	1.337758	-0.000086	0.497054
C77	C	1.671092	0.333247	0.830387
C78	C	2.004425	0.666580	1.163721
