data_functionalizedCrystal
_audit_creation_method	'MofGen! by Chris Wilmer'
_symmetry_space_group_name_H-M	'P1'
_symmetry_Int_Tables_number	1
_symmetry_cell_setting	triclinic
loop_
_symmetry_equiv_pos_as_xyz
  x,y,z
_cell_length_a	19.077105
_cell_length_b	19.077068
_cell_length_c	19.076919
_cell_angle_alpha	94.470751
_cell_angle_beta	90.076224
_cell_angle_gamma	90.115316
loop_
_atom_site_label
_atom_site_type_symbol
_atom_site_fract_x
_atom_site_fract_y
_atom_site_fract_z
Zn1	Zn	1.044048	-0.340450	-0.453500
Zn2	Zn	1.043962	-0.453600	-0.340340
Zn3	Zn	0.931660	-0.331023	-0.330931
Zn4	Zn	0.921801	-0.453176	-0.453077
O5	O	0.985368	-0.394562	-0.394462
O6	O	1.142196	-0.359583	-0.442604
O7	O	1.033154	-0.433572	-0.240616
O8	O	0.950731	-0.233799	-0.343429
O9	O	1.142133	-0.442714	-0.359466
O10	O	1.033302	-0.240725	-0.433479
O11	O	0.950647	-0.343516	-0.233703
O12	O	0.832193	-0.343104	-0.343019
O13	O	0.933928	-0.441990	-0.551609
O14	O	0.824949	-0.432849	-0.432759
O15	O	1.023742	-0.359171	-0.551919
O16	O	1.023594	-0.552019	-0.359056
O17	O	0.933844	-0.551707	-0.441883
C18	C	0.803119	-0.386908	-0.386822
C19	C	0.725151	-0.383651	-0.383571
C20	C	0.684769	-0.428912	-0.428699
C21	C	0.611510	-0.425842	-0.425647
C22	C	0.578634	-0.377515	-0.377464
C23	C	0.619022	-0.332250	-0.332335
C24	C	0.692280	-0.335317	-0.335390
C25	C	0.359940	-0.363323	-0.363326
C26	C	0.286677	-0.360262	-0.360273
C27	C	0.279170	-0.453853	-0.453586
C28	C	0.352429	-0.456918	-0.456635
C29	C	0.392810	-0.411651	-0.411508
N30	N	0.503752	-0.374378	-0.374342
N31	N	0.467691	-0.414785	-0.414634
C32	C	0.977658	-0.577398	-0.401461
C33	C	0.974423	-0.655619	-0.404482
C34	C	1.019665	-0.692509	-0.362816
C35	C	1.016626	-0.766007	-0.365661
C36	C	0.968342	-0.802612	-0.410169
C37	C	0.923098	-0.765717	-0.451839
C38	C	0.926141	-0.692221	-0.448997
C39	C	0.954231	-1.022406	-0.423292
C40	C	0.951190	-1.095907	-0.426130
C41	C	1.044720	-1.096192	-0.339952
C42	C	1.047755	-1.022695	-0.337111
C43	C	1.002514	-0.985806	-0.378784
N44	N	0.965233	-0.877738	-0.413077
N45	N	1.005627	-0.910681	-0.375880
C46	C	1.168328	-0.402247	-0.402132
C47	C	1.246295	-0.405522	-0.405400
C48	C	0.977745	-0.401585	-0.578012
C49	C	0.974497	-0.404578	-0.656230
C50	C	0.993126	-0.211015	-0.387451
C51	C	0.996432	-0.132798	-0.384464
C52	C	1.019730	-0.362866	-0.693140
C53	C	1.016669	-0.365675	-0.766634
C54	C	0.968378	-0.410200	-0.803216
C55	C	0.923140	-0.451913	-0.766301
C56	C	0.926198	-0.449100	-0.692809
C57	C	0.954216	-0.423233	-1.022998
C58	C	0.951163	-0.426044	-1.096496
C59	C	1.044691	-0.339805	-1.096823
C60	C	1.047748	-0.337000	-1.023329
C61	C	1.002507	-0.378710	-0.986421
N62	N	0.965250	-0.413073	-0.878339
N63	N	1.005632	-0.375832	-0.911299
C64	C	0.993003	-0.387518	-0.211626
C65	C	0.996396	-0.384333	-0.133406
H66	H	0.725159	-0.298457	-0.298646
O67	O	0.583569	-0.280141	-0.280347
H68	H	0.525844	-0.285623	-0.285791
O69	O	1.065421	-0.805797	-0.320720
H70	H	1.056302	-0.789114	-0.264434
H71	H	0.578633	-0.462699	-0.462394
H72	H	0.889357	-0.483058	-0.662757
O73	O	0.387882	-0.509052	-0.508598
H74	H	0.445607	-0.503588	-0.503133
H75	H	1.058980	-0.662710	-0.326570
H76	H	0.259912	-0.320900	-0.321040
H77	H	1.087072	-0.992892	-0.300869
O78	O	0.899104	-1.135396	-0.474129
H79	H	0.927597	-1.171537	-0.512556
H80	H	0.392810	-0.326468	-0.326576
O81	O	0.905417	-0.982621	-0.468215
H82	H	0.871321	-1.020424	-0.499627
H83	H	1.081554	-1.126235	-0.306026
O84	O	0.235612	-0.502709	-0.502220
H85	H	0.270780	-0.536845	-0.536220
H86	H	0.889301	-0.662185	-0.482927
O87	O	0.871010	-0.805192	-0.499838
H88	H	0.876486	-0.862496	-0.494807
H89	H	1.059056	-0.326612	-0.663360
H90	H	1.053504	-0.331711	-0.796682
H91	H	0.711530	-0.468267	-0.467932
O92	O	0.871053	-0.499935	-0.805757
H93	H	0.817098	-0.485005	-0.788882
O94	O	1.099835	-0.288980	-0.983872
H95	H	1.130774	-0.260444	-1.021885
O96	O	1.093465	-0.294798	-1.136628
H97	H	1.083219	-0.304221	-1.193878
H98	H	0.911836	-0.462303	-1.126280
O99	O	0.905389	-0.468180	-0.983190
H100	H	0.871289	-0.499603	-1.020977
