data_functionalizedCrystal
_audit_creation_method	'MofGen! by Chris Wilmer'
_symmetry_space_group_name_H-M	'P1'
_symmetry_Int_Tables_number	1
_symmetry_cell_setting	triclinic
loop_
_symmetry_equiv_pos_as_xyz
  x,y,z
_cell_length_a	16.109301
_cell_length_b	14.853567
_cell_length_c	14.586319
_cell_angle_alpha	90.000002
_cell_angle_beta	89.999213
_cell_angle_gamma	83.548205
loop_
_atom_site_label
_atom_site_type_symbol
_atom_site_fract_x
_atom_site_fract_y
_atom_site_fract_z
O1	O	1.103294	0.115881	-0.076175
O2	O	1.603294	0.615881	0.423825
O3	O	0.861252	0.130302	-0.076188
O4	O	1.361252	0.630302	0.423812
O5	O	0.988738	-0.008149	-0.076184
O6	O	1.488738	0.491851	0.423816
O7	O	0.975807	0.254332	-0.076179
O8	O	1.475807	0.754332	0.423821
O9	O	0.988729	-0.008151	0.076297
O10	O	1.488729	0.491849	0.576297
O11	O	0.861243	0.130300	0.076293
O12	O	1.361243	0.630300	0.576293
O13	O	1.103285	0.115879	0.076306
O14	O	1.603285	0.615879	0.576306
Cu15	Cu	0.982263	0.123089	0.090222
Cu16	Cu	1.482263	0.623089	0.590222
Cu17	Cu	0.982274	0.123091	-0.090104
Cu18	Cu	1.482274	0.623091	0.409896
O19	O	0.975799	0.254330	0.076302
O20	O	1.475799	0.754330	0.576302
C21	C	0.830272	0.129717	0.000050
C22	C	1.330272	0.629717	0.500050
C23	C	0.737974	0.127965	0.000045
C24	C	1.237974	0.627965	0.500045
C25	C	0.515811	0.206047	0.000057
C26	C	1.015811	0.706047	0.500057
C27	C	0.429089	0.204395	0.000063
C28	C	0.929089	0.704395	0.500063
C29	C	0.448732	0.040127	0.000056
C30	C	0.948732	0.540127	0.500056
C31	C	0.535453	0.041781	0.000057
C32	C	1.035453	0.541781	0.500057
C33	C	0.568990	0.124743	0.000052
C34	C	1.068990	0.624743	0.500052
C35	C	0.395546	0.121437	0.000058
C36	C	0.895546	0.621437	0.500058
C37	C	0.301518	0.119645	0.000064
C38	C	0.801518	0.619645	0.500064
C39	C	0.663025	0.126536	0.000048
C40	C	1.163025	0.626536	0.500048
C41	C	0.988148	-0.041738	0.000054
C42	C	1.488148	0.458262	0.500054
C43	C	0.986392	-0.141819	0.000046
C44	C	1.486392	0.358181	0.500046
C45	C	0.903241	-0.554215	0.000059
C46	C	1.403241	-0.054215	0.500059
C47	C	1.054697	-0.575746	0.000067
C48	C	1.554697	-0.075746	0.500067
C49	C	1.056348	-0.481715	0.000062
C50	C	1.556348	0.018285	0.500062
C51	C	0.981444	-0.423930	0.000056
C52	C	1.481444	0.076070	0.500056
C53	C	0.904889	-0.460175	0.000056
C54	C	1.404889	0.039825	0.500056
C55	C	1.132901	-0.445463	0.000071
C56	C	1.632901	0.054537	0.500071
C57	C	1.134555	-0.351426	0.000067
C58	C	1.634555	0.148574	0.500067
C59	C	1.059650	-0.293639	0.000055
C60	C	1.559650	0.206361	0.500055
C61	C	0.983093	-0.329890	0.000054
C62	C	1.483093	0.170110	0.500054
C63	C	0.908189	-0.272104	0.000048
C64	C	1.408189	0.227896	0.500048
C65	C	0.831630	-0.308353	0.000040
C66	C	1.331630	0.191647	0.500040
C67	C	0.829984	-0.402388	0.000044
C68	C	1.329984	0.097612	0.500044
C69	C	1.061296	-0.199604	0.000051
C70	C	1.561296	0.300396	0.500051
C71	C	0.909837	-0.178064	0.000046
C72	C	1.409837	0.321936	0.500046
C73	C	1.134265	0.116464	0.000066
C74	C	1.634265	0.616464	0.500066
C75	C	1.226563	0.118215	0.000065
C76	C	1.726563	0.618215	0.500065
C77	C	0.976389	0.287918	0.000062
C78	C	1.476389	0.787918	0.500062
C79	C	0.978145	0.387999	0.000064
C80	C	1.478145	0.887999	0.500064
N81	N	0.982262	0.123087	0.217054
N82	N	1.482262	0.623087	0.717054
N83	N	0.982281	0.123087	-0.216936
N84	N	1.482281	0.623087	0.283064
C85	C	1.038731	0.061801	0.452062
C86	C	1.538731	0.561801	0.952062
C87	C	1.038734	0.061799	0.548044
C88	C	1.538734	0.561799	1.048044
C89	C	0.925806	0.184375	0.548049
C90	C	1.425806	0.684375	1.048049
C91	C	0.925800	0.184372	0.452070
C92	C	1.425800	0.684372	0.952070
C93	C	0.982268	0.123086	0.404079
C94	C	1.482268	0.623086	0.904079
C95	C	0.982276	0.123087	0.596039
C96	C	1.482276	0.623087	1.096039
C97	C	0.982278	0.123085	0.700107
C98	C	1.482278	0.623085	1.200107
C99	C	0.982265	0.123087	0.300005
C100	C	1.482265	0.623087	0.800005
H101	H	0.385793	0.270600	0.000068
H102	H	0.885793	0.770600	0.500068
H103	H	1.193884	-0.492518	0.000084
H104	H	1.693884	0.007482	0.500084
C105	C	0.863693	0.251784	0.600848
C106	C	1.363693	0.751784	1.100848
N107	N	0.816909	0.302558	0.640615
N108	N	1.316909	0.802558	1.140615
C109	C	0.411833	-0.051127	0.000052
C110	C	0.911833	0.448873	0.500052
N111	N	0.384041	-0.119862	0.000045
N112	N	0.884041	0.380138	0.500045
C113	C	1.100842	-0.005627	0.600821
C114	C	1.600842	0.494373	1.100821
N115	N	1.147621	-0.056418	0.640573
N116	N	1.647621	0.443582	1.140573
C117	C	0.863720	0.251835	0.399285
C118	C	1.363720	0.751835	0.899285
N119	N	0.816976	0.302659	0.359527
N120	N	1.316976	0.802659	0.859527
C121	C	0.827435	-0.114506	0.000037
C122	C	1.327435	0.385494	0.500037
N123	N	0.765369	-0.066635	0.000031
N124	N	1.265369	0.433365	0.500031
C125	C	0.552699	0.297308	0.000064
C126	C	1.052699	0.797308	0.500064
N127	N	0.580480	0.366049	0.000074
N128	N	1.080480	0.866049	0.500074
C129	C	0.593954	-0.047665	0.000052
C130	C	1.093954	0.452335	0.500052
N131	N	0.638017	-0.115032	0.000051
N132	N	1.138017	0.384968	0.500051
C133	C	0.745777	-0.442269	0.000055
C134	C	1.245777	0.057731	0.500055
N135	N	0.682353	-0.472312	0.000071
N136	N	1.182353	0.027688	0.500071
C137	C	0.749238	-0.244777	0.000035
C138	C	1.249238	0.255223	0.500035
N139	N	0.687183	-0.196888	0.000028
N140	N	1.187183	0.303112	0.500028
C141	C	1.137087	-0.639313	0.000078
C142	C	1.637087	-0.139313	0.500078
N143	N	1.199146	-0.687196	0.000084
N144	N	1.699146	-0.187196	0.500084
C145	C	0.819030	-0.594090	0.000058
C146	C	1.319030	-0.094090	0.500058
N147	N	0.755602	-0.624124	0.000062
N148	N	1.255602	-0.124124	0.500062
C149	C	1.100840	-0.005622	0.399276
C150	C	1.600840	0.494378	0.899276
N151	N	1.147620	-0.056410	0.359519
N152	N	1.647620	0.443590	0.859519
H153	H	1.196894	-0.321921	0.000072
H154	H	1.696894	0.178079	0.500072
H155	H	1.123629	-0.170094	0.000064
H156	H	1.623629	0.329906	0.500064
