data_functionalizedCrystal
_audit_creation_method	'MofGen! by Chris Wilmer'
_symmetry_space_group_name_H-M	'P1'
_symmetry_Int_Tables_number	1
_symmetry_cell_setting	triclinic
loop_
_symmetry_equiv_pos_as_xyz
  x,y,z
_cell_length_a	11.792254
_cell_length_b	15.995292
_cell_length_c	10.868271
_cell_angle_alpha	89.998057
_cell_angle_beta	89.995741
_cell_angle_gamma	83.833607
loop_
_atom_site_label
_atom_site_type_symbol
_atom_site_fract_x
_atom_site_fract_y
_atom_site_fract_z
O1	O	1.505910	0.114817	-0.102312
O2	O	2.005910	0.614817	0.397688
O3	O	1.175469	0.126633	-0.102314
O4	O	1.675469	0.626633	0.397686
O5	O	1.349756	-0.001124	-0.102315
O6	O	1.849756	0.498876	0.397685
O7	O	1.331622	0.242575	-0.102311
O8	O	1.831622	0.742575	0.397689
O9	O	1.349742	-0.001129	0.102330
O10	O	1.849742	0.498871	0.602330
O11	O	1.175454	0.126628	0.102331
O12	O	1.675454	0.626628	0.602331
O13	O	1.505895	0.114812	0.102333
O14	O	2.005895	0.614812	0.602333
Zn15	Zn	1.340673	0.120719	0.134824
Zn16	Zn	1.840673	0.620719	0.634824
Zn17	Zn	1.340691	0.120726	-0.134804
Zn18	Zn	1.840691	0.620726	0.365196
O19	O	1.331608	0.242570	0.102334
O20	O	1.831608	0.742570	0.602334
C21	C	1.133177	0.125887	0.000008
C22	C	1.633177	0.625887	0.500008
C23	C	1.007183	0.123658	0.000007
C24	C	1.507183	0.623658	0.500007
C25	C	0.904862	0.121848	0.000002
C26	C	1.404862	0.621848	0.500002
C27	C	0.776495	0.119585	0.000001
C28	C	1.276495	0.619585	0.500001
C29	C	1.349011	-0.032326	0.000005
C30	C	1.849011	0.467674	0.500005
C31	C	1.346798	-0.125289	-0.000005
C32	C	1.846798	0.374711	0.499995
C33	C	1.338664	-0.463065	0.000007
C34	C	1.838664	0.036935	0.500007
C35	C	1.464460	-0.439177	0.000465
C36	C	1.964460	0.060823	0.500465
C37	C	1.466851	-0.342491	-0.000001
C38	C	1.966851	0.157509	0.499999
C39	C	1.342700	-0.295490	0.000002
C40	C	1.842700	0.204510	0.500002
C41	C	1.279816	-0.324876	-0.116857
C42	C	1.779816	0.175124	0.383143
C43	C	1.278302	-0.421673	-0.116950
C44	C	1.778302	0.078327	0.383050
C45	C	1.275717	-0.421548	0.115769
C46	C	1.775717	0.078452	0.615769
C47	C	1.280378	-0.325034	0.117309
C48	C	1.780378	0.174966	0.617309
C49	C	1.344975	-0.200784	-0.000005
C50	C	1.844975	0.299216	0.499995
C51	C	1.336385	-0.557771	0.000005
C52	C	1.836385	-0.057771	0.500005
C53	C	1.548187	0.115559	0.000008
C54	C	2.048187	0.615559	0.500008
C55	C	1.674181	0.117787	0.000001
C56	C	2.174181	0.617787	0.500001
C57	C	1.332353	0.273771	0.000012
C58	C	1.832353	0.773771	0.500012
C59	C	1.334566	0.366734	0.000013
C60	C	1.834566	0.866734	0.500013
N61	N	1.340668	0.120714	0.318838
N62	N	1.840668	0.620714	0.818838
N63	N	1.340705	0.120724	-0.318819
N64	N	1.840705	0.620724	0.181181
C65	C	1.340685	0.120724	0.569844
C66	C	1.840685	0.620724	1.069844
C67	C	1.340672	0.120721	0.430166
C68	C	1.840672	0.620721	0.930166
H69	H	1.512942	-0.466955	0.084269
H70	H	2.012942	0.033045	0.584269
H71	H	1.315326	-0.449458	0.204348
H72	H	1.815326	0.050542	0.704348
H73	H	1.512684	-0.467972	-0.082869
H74	H	2.012684	0.032028	0.417131
H75	H	1.516403	-0.323857	-0.083916
H76	H	2.016403	0.176143	0.416084
N77	N	1.336020	-0.456938	-0.232648
N78	N	1.836020	0.043062	0.267352
H79	H	1.362205	-0.409582	-0.283109
H80	H	1.862205	0.090418	0.216891
H81	H	1.404022	-0.497864	-0.209885
H82	H	1.904022	0.002136	0.290115
N83	N	1.156135	-0.441515	-0.123990
N84	N	1.656135	0.058485	0.376010
H85	H	1.103503	-0.387401	-0.127024
H86	H	1.603503	0.112599	0.372976
H87	H	1.145395	-0.475533	-0.200589
H88	H	1.645395	0.024467	0.299411
N89	N	1.158808	-0.283210	-0.122629
N90	N	1.658808	0.216790	0.377371
H91	H	1.120016	-0.303014	-0.198464
H92	H	1.620016	0.196986	0.301536
H93	H	1.115943	-0.298541	-0.046876
H94	H	1.615943	0.201459	0.453124
H95	H	1.323496	-0.304614	-0.203824
H96	H	1.823496	0.195386	0.296176
N97	N	1.532103	-0.316990	0.110943
N98	N	2.032103	0.183010	0.610943
H99	H	1.533790	-0.253992	0.110847
H100	H	2.033790	0.246008	0.610847
H101	H	1.493487	-0.334400	0.188360
H102	H	1.993487	0.165600	0.688360
H103	H	1.189760	-0.292479	0.124369
H104	H	1.689760	0.207521	0.624369
N105	N	1.341017	-0.300166	0.231831
N106	N	1.841017	0.199834	0.731831
H107	H	1.408575	-0.269887	0.207840
H108	H	1.908575	0.230113	0.707840
H109	H	1.286716	-0.261780	0.283676
H110	H	1.786716	0.238220	0.783676
H111	H	1.183121	-0.435962	0.116558
H112	H	1.683121	0.064038	0.616558
