data_functionalizedCrystal
_audit_creation_method	'MofGen! by Chris Wilmer'
_symmetry_space_group_name_H-M	'P1'
_symmetry_Int_Tables_number	1
_symmetry_cell_setting	triclinic
loop_
_symmetry_equiv_pos_as_xyz
  x,y,z
_cell_length_a	21.606444
_cell_length_b	21.606444
_cell_length_c	21.606444
_cell_angle_alpha	60.001331
_cell_angle_beta	90.000833
_cell_angle_gamma	59.999875
loop_
_atom_site_label
_atom_site_type_symbol
_atom_site_fract_x
_atom_site_fract_y
_atom_site_fract_z
Zr1	Zr	0.596210	0.677477	-0.081222
O2	O	0.497381	0.806595	-0.180041
O3	O	0.626507	0.548358	-0.050932
O4	O	0.626499	0.677482	-0.180050
O5	O	0.497394	0.677467	0.050931
O6	O	0.728349	0.677487	-0.180054
O7	O	0.497389	0.677471	-0.050923
O8	O	0.728363	0.446508	0.050915
O9	O	0.497380	0.908446	-0.180038
O10	O	0.715437	0.601470	-0.038013
O11	O	0.639431	0.601463	0.038003
O12	O	0.639422	0.753490	-0.114018
O13	O	0.563417	0.753484	-0.038002
Zr14	Zr	0.758657	0.677477	0.081217
Zr15	Zr	0.758648	0.677484	-0.081228
Zr16	Zr	0.596218	0.677470	0.081223
Zr17	Zr	0.596208	0.839917	-0.081217
Zr18	Zr	0.758658	0.515036	0.081212
O19	O	0.728359	0.806595	0.050927
O20	O	0.728348	0.806605	-0.180050
O21	O	0.497393	0.806585	0.050935
O22	O	0.857486	0.548358	0.180036
O23	O	0.857474	0.548368	-0.050940
O24	O	0.626519	0.548348	0.180045
O25	O	0.857473	0.677487	-0.050936
O26	O	0.728367	0.677471	0.180045
O27	O	0.626518	0.677467	0.180049
O28	O	0.857478	0.677482	0.050918
O29	O	0.626497	0.908451	-0.180043
O30	O	0.728370	0.446502	0.180038
O31	O	0.857487	0.446508	0.180033
O32	O	0.857480	0.446513	0.050910
O33	O	0.497386	0.908440	-0.050916
O34	O	0.626503	0.908446	-0.050920
O35	O	0.715445	0.601463	0.114012
O36	O	0.791450	0.601470	0.037997
O37	O	0.715435	0.753490	-0.038008
O38	O	0.639430	0.753484	0.038008
C39	C	0.677435	0.474289	-0.000009
C40	C	0.677436	0.405329	-0.000011
C41	C	0.717109	0.372934	-0.039692
C42	C	0.717111	0.308134	-0.039687
C43	C	0.677437	0.275734	-0.000005
C44	C	0.637763	0.308131	0.039680
C45	C	0.637765	0.372925	0.039679
C46	C	0.637754	0.046822	0.039686
C47	C	0.637753	-0.017975	0.039683
C48	C	0.717100	-0.017969	-0.039679
C49	C	0.717102	0.046825	-0.039680
C50	C	0.677432	0.079213	0.000008
C51	C	0.677431	0.149475	0.000003
C52	C	0.677433	0.205477	-0.000004
C53	C	0.474247	0.677468	0.000005
C54	C	0.405288	0.677465	0.000007
C55	C	0.412568	0.598113	0.039678
C56	C	0.347770	0.598115	0.039679
C57	C	0.275694	0.677471	0.000004
C58	C	0.268416	0.756829	-0.039668
C59	C	0.333212	0.756826	-0.039664
C60	C	0.007098	0.756844	-0.039685
C61	C	-0.057700	0.756842	-0.039688
C62	C	0.021656	0.598134	0.039658
C63	C	0.086452	0.598130	0.039662
C64	C	0.079169	0.677488	-0.000007
C65	C	0.149430	0.677485	-0.000006
C66	C	0.205434	0.677475	-0.000002
C67	C	0.880619	0.677485	-0.000010
C68	C	0.949579	0.677488	-0.000012
C69	C	0.677423	0.677485	-0.203197
C70	C	0.677419	0.677488	-0.272160
C71	C	0.677431	0.880665	0.000004
C72	C	0.677430	0.949625	0.000006
C73	C	0.637740	0.756841	-0.344232
C74	C	0.637747	0.756838	-0.409027
C75	C	0.677429	0.677483	-0.401748
C76	C	0.717113	0.598124	-0.329668
C77	C	0.717110	0.598127	-0.264874
C78	C	0.717125	0.598109	-0.590971
C79	C	0.717122	0.598112	-0.655771
C80	C	0.637761	0.756820	-0.735123
C81	C	0.637759	0.756823	-0.670330
C82	C	0.677446	0.677465	-0.598256
C83	C	0.677440	0.677469	-0.527998
C84	C	0.677431	0.677478	-0.472004
C85	C	0.677444	0.677468	0.203192
C86	C	0.677447	0.677465	0.272154
C87	C	0.880621	0.474297	-0.000017
C88	C	0.949581	0.405340	-0.000021
C89	C	0.677446	0.474280	0.203185
C90	C	0.677450	0.405317	0.272146
C91	C	0.880632	0.474289	0.203178
C92	C	0.949595	0.405329	0.272136
C93	C	0.474235	0.880665	-0.203183
C94	C	0.405271	0.949625	-0.272141
C95	C	0.474245	0.880656	0.000011
C96	C	0.405285	0.949613	0.000016
C97	C	0.677421	0.880673	-0.203191
C98	C	0.677417	0.949637	-0.272151
C99	C	0.942288	0.372957	-0.039707
C100	C	1.007077	0.308174	-0.039726
C101	C	1.079159	0.275770	-0.000056
C102	C	1.086451	0.308159	0.039631
C103	C	1.021663	0.372946	0.039646
C104	C	0.717130	0.372931	0.344213
C105	C	0.717131	0.308142	0.409015
C106	C	0.677456	0.275735	0.401747
C107	C	0.637771	0.308128	0.329672
C108	C	0.637766	0.372920	0.264872
C109	C	1.021662	0.372948	0.264840
C110	C	1.086467	0.308161	0.329627
C111	C	1.079203	0.275753	0.401709
C112	C	1.007129	0.308140	0.409003
C113	C	0.942326	0.372930	0.344217
C114	C	0.333204	0.982014	-0.264845
C115	C	0.268399	1.046820	-0.329632
C116	C	0.275663	1.079232	-0.401714
C117	C	0.347738	1.046841	-0.409008
C118	C	0.412541	0.982040	-0.344222
C119	C	0.412579	0.982003	0.039695
C120	C	0.347790	1.046804	0.039696
C121	C	0.275707	1.079211	0.000024
C122	C	0.268415	1.046818	-0.039660
C123	C	0.333204	0.982022	-0.039666
C124	C	0.717099	0.982023	-0.264859
C125	C	0.717110	1.046812	-0.329648
C126	C	0.677433	1.079219	-0.401728
C127	C	0.637749	1.046827	-0.409019
C128	C	0.637744	0.982034	-0.344230
H129	H	0.749406	0.073206	-0.071996
H130	H	1.001125	0.281810	-0.072044
H131	H	0.209726	0.821442	-0.071968
C132	C	0.760748	-0.053608	-0.083325
H133	H	0.755074	-0.096846	-0.077636
H134	H	0.741152	-0.007095	-0.135525
H135	H	0.812951	-0.078887	-0.063728
H136	H	0.749439	0.533487	-0.649836
C137	C	0.594072	0.082491	0.083292
H138	H	0.599747	0.125727	0.077605
H139	H	0.541878	0.107766	0.063669
H140	H	0.613642	0.035997	0.135501
H141	H	0.605469	0.281732	0.323766
H142	H	0.471266	0.955623	0.072006
C143	C	0.760750	0.946384	-0.185579
H144	H	0.784389	0.974951	-0.190526
H145	H	0.726509	0.957002	-0.158647
H146	H	0.798300	0.885207	-0.158658
H147	H	0.749441	0.533491	-0.532293
H148	H	0.209717	1.073213	-0.071961
C149	C	0.594121	0.408532	0.185602
H150	H	0.570502	0.379942	0.190561
H151	H	0.556570	0.469705	0.158667
H152	H	0.628372	0.397900	0.158677
C153	C	0.594127	-0.053632	0.083352
H154	H	0.570510	-0.025073	0.106998
H155	H	0.556574	-0.043020	0.049117
H156	H	0.628393	-0.114809	0.120894
H157	H	0.327276	0.955627	-0.206158
H158	H	1.145149	0.281766	0.071929
C159	C	1.029667	0.408588	0.185558
H160	H	1.081873	0.380024	0.190503
H161	H	1.006045	0.397966	0.158629
H162	H	1.006036	0.469765	0.158637
C163	C	0.999145	0.272487	0.488294
H164	H	0.946943	0.301052	0.483368
H165	H	1.022782	0.211313	0.515214
H166	H	1.022775	0.283116	0.515213
C167	C	0.204378	1.150508	-0.472974
H168	H	0.219020	1.165180	-0.516952
H169	H	0.175067	1.129265	-0.472970
H170	H	0.175072	1.201059	-0.472966
H171	H	0.605448	0.821437	-0.793816
H172	H	0.605458	0.399302	0.071989
H173	H	0.749427	0.533511	-0.323745
C174	C	0.760771	0.408573	0.352219
H175	H	0.755096	0.451796	0.303309
H176	H	0.741174	0.433851	0.379139
H177	H	0.812975	0.362054	0.379142
C178	C	0.594079	0.946426	-0.352261
H179	H	0.570446	0.975018	-0.404470
H180	H	0.628314	0.885253	-0.328640
H181	H	0.556525	0.957061	-0.328640
C182	C	0.325171	0.946389	-0.083304
H183	H	0.272961	0.974967	-0.106921
H184	H	0.348792	0.957001	-0.120856
H185	H	0.348792	0.885214	-0.049050
C186	C	0.760754	0.510840	-0.185595
H187	H	0.784382	0.463578	-0.190538
H188	H	0.798299	0.507543	-0.158668
H189	H	0.726501	0.507542	-0.158671
C190	C	1.150422	0.204499	-0.000069
H191	H	1.194400	0.189837	0.029238
H192	H	1.150417	0.153951	0.021169
H193	H	1.150417	0.225750	-0.050627
H194	H	0.605464	0.281741	0.071994
C195	C	-0.000916	0.844130	-0.082965
H196	H	0.047995	0.832768	-0.077168
H197	H	-0.027868	0.877064	-0.135218
H198	H	-0.027809	0.876405	-0.063093
H199	H	0.027580	0.533516	0.071960
H200	H	0.353742	1.073168	0.072014
H201	H	0.749424	1.073179	-0.323697
C202	C	0.863004	0.408595	-0.083349
H203	H	0.825456	0.451815	-0.077658
H204	H	0.857319	0.433878	-0.135549
H205	H	0.857323	0.362074	-0.063755
C206	C	0.204445	1.150481	0.000037
H207	H	0.160467	1.165150	-0.029277
H208	H	0.204452	1.129236	0.050591
H209	H	0.204447	1.201035	-0.021209
C210	C	0.491812	0.946385	-0.352253
H211	H	0.529373	0.903145	-0.303350
H212	H	0.497460	0.921122	-0.379183
H213	H	0.497512	0.992891	-0.379176
H214	H	0.749416	0.281759	-0.071997
H215	H	0.677444	1.131978	-0.454477
C216	C	0.165734	0.510842	0.083305
H217	H	0.203282	0.522205	0.077621
H218	H	0.171417	0.478235	0.135504
H219	H	0.171419	0.478238	0.063704
H220	H	1.027612	0.399304	0.071967
H221	H	0.749412	0.399314	-0.072009
C222	C	0.594102	1.082487	-0.488309
H223	H	0.599785	1.125721	-0.525844
H224	H	0.613683	1.035986	-0.494012
H225	H	0.541897	1.107778	-0.493993
H226	H	0.749450	0.281776	0.467695
H227	H	0.353643	1.073239	-0.467705
C228	C	0.189128	1.082432	-0.321594
H229	H	0.194089	1.053832	-0.269385
H230	H	0.162195	1.143602	-0.345206
H231	H	0.162199	1.071811	-0.345223
H232	H	0.471252	0.533492	0.071990
H233	H	-0.116390	0.821467	-0.071998
C234	C	0.355780	0.510827	0.083310
H235	H	0.407986	0.463566	0.106931
H236	H	0.332157	0.507519	0.120860
H237	H	0.332151	0.507539	0.049051
C238	C	1.165741	0.272518	0.321593
H239	H	1.203300	0.229291	0.370497
H240	H	1.171400	0.247242	0.294674
H241	H	1.171430	0.319032	0.294661
C242	C	0.325209	0.844111	-0.083270
H243	H	0.374122	0.832744	-0.077569
H244	H	0.298285	0.876752	-0.135475
H245	H	0.298291	0.876682	-0.063642
H246	H	0.605421	0.821462	-0.350168
H247	H	0.605437	0.821455	-0.467709
H248	H	0.883648	0.399286	0.350168
H249	H	0.605442	0.821443	-0.676264
H250	H	0.677466	0.222977	0.454518
H251	H	1.131977	0.222997	0.454456
