data_functionalizedCrystal
_audit_creation_method	'MofGen! by Chris Wilmer'
_symmetry_space_group_name_H-M	'P1'
_symmetry_Int_Tables_number	1
_symmetry_cell_setting	triclinic
loop_
_symmetry_equiv_pos_as_xyz
  x,y,z
_cell_length_a	10.654550
_cell_length_b	15.995350
_cell_length_c	9.730223
_cell_angle_alpha	89.997832
_cell_angle_beta	89.999957
_cell_angle_gamma	83.988653
loop_
_atom_site_label
_atom_site_type_symbol
_atom_site_fract_x
_atom_site_fract_y
_atom_site_fract_z
O1	O	1.666303	0.117602	-0.114180
O2	O	2.166303	0.617602	0.385820
O3	O	1.300678	0.128807	-0.114204
O4	O	1.800678	0.628807	0.385796
O5	O	1.493485	0.001375	-0.114190
O6	O	1.993485	0.501375	0.385810
O7	O	1.473496	0.245034	-0.114194
O8	O	1.973496	0.745034	0.385806
O9	O	1.493473	0.001371	0.114390
O10	O	1.993473	0.501371	0.614390
O11	O	1.300666	0.128803	0.114375
O12	O	1.800666	0.628803	0.614375
O13	O	1.666290	0.117599	0.114400
O14	O	2.166290	0.617599	0.614400
Zn15	Zn	1.483476	0.123201	0.150680
Zn16	Zn	1.983476	0.623201	0.650680
Zn17	Zn	1.483492	0.123205	-0.150484
Zn18	Zn	1.983492	0.623205	0.349516
O19	O	1.473483	0.245031	0.114386
O20	O	1.973483	0.745031	0.614386
C21	C	1.253884	0.127982	0.000082
C22	C	1.753884	0.627982	0.500082
C23	C	1.114473	0.125521	0.000073
C24	C	1.614473	0.625521	0.500073
C25	C	1.034008	0.200551	0.000075
C26	C	1.534008	0.700551	0.500075
C27	C	0.903017	0.198233	0.000099
C28	C	1.403017	0.698233	0.500099
C29	C	0.932971	0.045849	0.000112
C30	C	1.432971	0.545849	0.500112
C31	C	1.063959	0.048168	0.000098
C32	C	1.563959	0.548168	0.500098
C33	C	1.492652	-0.029826	0.000097
C34	C	1.992652	0.470174	0.500097
C35	C	1.490175	-0.122791	0.000089
C36	C	1.990175	0.377209	0.500089
C37	C	1.481277	-0.460590	0.000093
C38	C	1.981277	0.039410	0.500093
C39	C	1.343964	-0.413954	-0.000429
C40	C	1.843964	0.086046	0.499571
C41	C	1.346442	-0.317249	0.000087
C42	C	1.846442	0.182751	0.500087
C43	C	1.485691	-0.293004	0.000090
C44	C	1.985691	0.206996	0.500090
C45	C	1.553412	-0.333690	0.130623
C46	C	2.053412	0.166310	0.630623
C47	C	1.549962	-0.430346	0.130732
C48	C	2.049962	0.069654	0.630732
C49	C	1.552813	-0.430684	-0.129206
C50	C	2.052813	0.069316	0.370794
C51	C	1.552780	-0.333739	-0.130931
C52	C	2.052780	0.166261	0.369069
C53	C	1.488192	-0.198292	0.000093
C54	C	1.988192	0.301708	0.500093
C55	C	1.478780	-0.555303	0.000099
C56	C	1.978780	-0.055303	0.500099
C57	C	1.713084	0.118423	0.000110
C58	C	2.213084	0.618423	0.500110
C59	C	1.852495	0.120885	0.000111
C60	C	2.352495	0.620885	0.500111
C61	C	1.474316	0.276232	0.000095
C62	C	1.974316	0.776232	0.500095
C63	C	1.476793	0.369197	0.000094
C64	C	1.976793	0.869197	0.500094
N65	N	1.483474	0.123197	0.356216
N66	N	1.983474	0.623197	0.856216
N67	N	1.483504	0.123202	-0.356021
N68	N	1.983504	0.623202	0.143979
C69	C	1.568878	0.066794	0.428148
C70	C	2.068878	0.566794	0.928148
C71	C	1.568890	0.066794	0.572031
C72	C	2.068890	0.566794	1.072031
C73	C	1.398091	0.179608	0.572037
C74	C	1.898091	0.679608	1.072037
C75	C	1.398074	0.179603	0.428157
C76	C	1.898074	0.679603	0.928157
H77	H	0.837506	0.259330	0.000104
H78	H	1.337506	0.759330	0.500104
H79	H	1.503268	-0.306776	-0.227495
H80	H	2.003268	0.193224	0.272505
F81	F	1.087764	0.282877	0.000054
F82	F	1.587764	0.782877	0.500054
F83	F	0.879198	-0.036471	0.000133
F84	F	1.379198	0.463529	0.500133
F85	F	1.149603	-0.031694	0.000104
F86	F	1.649603	0.468306	0.500104
H87	H	1.293208	-0.289135	-0.093484
H88	H	1.793208	0.210865	0.406516
H89	H	1.289086	-0.432803	-0.094036
H90	H	1.789086	0.067197	0.405964
F91	F	1.272355	-0.440263	0.120898
F92	F	1.772355	0.059737	0.620898
F93	F	1.307166	0.239634	0.351595
F94	F	1.807166	0.739634	0.851595
F95	F	1.307209	0.239638	0.648611
F96	F	1.807209	0.739638	1.148611
H97	H	1.500570	-0.448936	0.228304
H98	H	2.000570	0.051064	0.728304
F99	F	1.659786	0.006761	0.648582
F100	F	2.159786	0.506761	1.148582
F101	F	1.276377	-0.281232	0.122588
F102	F	1.776377	0.218768	0.622588
F103	F	1.685140	-0.471429	-0.130352
F104	F	2.185140	0.028571	0.369648
H105	H	1.638414	0.020864	0.369578
H106	H	2.138414	0.520864	0.869578
H107	H	1.650775	-0.462009	0.136657
H108	H	2.150775	0.037991	0.636657
H109	H	1.655714	-0.318971	0.135480
H110	H	2.155714	0.181029	0.635480
F111	F	1.491921	-0.296956	0.257588
F112	F	1.991921	0.203044	0.757588
H113	H	1.507924	-0.451483	-0.228142
H114	H	2.007924	0.048517	0.271858
H115	H	1.654327	-0.317787	-0.138810
H116	H	2.154327	0.182213	0.361190
