data_functionalizedCrystal
_audit_creation_method	'MofGen! by Chris Wilmer'
_symmetry_space_group_name_H-M	'P1'
_symmetry_Int_Tables_number	1
_symmetry_cell_setting	triclinic
loop_
_symmetry_equiv_pos_as_xyz
  x,y,z
_cell_length_a	16.959455
_cell_length_b	16.959454
_cell_length_c	18.215399
_cell_angle_alpha	89.976304
_cell_angle_beta	89.975385
_cell_angle_gamma	90.017095
loop_
_atom_site_label
_atom_site_type_symbol
_atom_site_fract_x
_atom_site_fract_y
_atom_site_fract_z
Zn1	Zn	1.208417	-0.314752	-0.416232
Zn2	Zn	1.208330	-0.446938	-0.293174
Zn3	Zn	1.076236	-0.314770	-0.293169
Zn4	Zn	1.076210	-0.446886	-0.416189
O5	O	1.142298	-0.380837	-0.354691
O6	O	1.319016	-0.332301	-0.399928
O7	O	1.190781	-0.429435	-0.190189
O8	O	1.093817	-0.204157	-0.309509
O9	O	1.318952	-0.429417	-0.309518
O10	O	1.190930	-0.204144	-0.399922
O11	O	1.093732	-0.332332	-0.190185
O12	O	0.965621	-0.332282	-0.309467
O13	O	1.093773	-0.429329	-0.519179
O14	O	0.965603	-0.429346	-0.399850
O15	O	1.190905	-0.332251	-0.519210
O16	O	1.190756	-0.557542	-0.309477
O17	O	1.093689	-0.557504	-0.399855
C18	C	0.936932	-0.380811	-0.354654
C19	C	0.849075	-0.380819	-0.354655
C20	C	0.477556	-0.431355	-0.307591
C21	C	0.477644	-0.330384	-0.401881
C22	C	0.560190	-0.330371	-0.401863
C23	C	0.601422	-0.380852	-0.354709
C24	C	0.560109	-0.431345	-0.307573
C25	C	0.601509	-0.279884	-0.449003
C26	C	0.684060	-0.279870	-0.448988
C27	C	0.725294	-0.330347	-0.401830
C28	C	0.683976	-0.380842	-0.354691
C29	C	0.725208	-0.431322	-0.307537
C30	C	0.683892	-0.481814	-0.260394
C31	C	0.601343	-0.481822	-0.260415
C32	C	0.807842	-0.330338	-0.401809
C33	C	0.807762	-0.431312	-0.307519
C34	C	1.142232	-0.586203	-0.354678
C35	C	1.142276	-0.674060	-0.354698
C36	C	1.091828	-1.045545	-0.401746
C37	C	1.192988	-1.045525	-0.307711
C38	C	1.192960	-0.962979	-0.307704
C39	C	1.142365	-0.921712	-0.354718
C40	C	1.091797	-0.962992	-0.401739
C41	C	1.243522	-0.921694	-0.260679
C42	C	1.243495	-0.839143	-0.260670
C43	C	1.192903	-0.797875	-0.307688
C44	C	1.142334	-0.839159	-0.354711
C45	C	1.091739	-0.797892	-0.401725
C46	C	1.041173	-0.839175	-0.448753
C47	C	1.041205	-0.921724	-0.448757
C48	C	1.192871	-0.715326	-0.307684
C49	C	1.091708	-0.715339	-0.401718
C50	C	1.348466	-0.380863	-0.354729
C51	C	1.436323	-0.380874	-0.354745
C52	C	1.142346	-0.380782	-0.546644
C53	C	1.142367	-0.380759	-0.628443
C54	C	1.142386	-0.174668	-0.354720
C55	C	1.142424	-0.086812	-0.354732
C56	C	1.192961	-0.330163	-0.816654
C57	C	1.192971	-0.330140	-0.893513
C58	C	1.091828	-0.431232	-0.893469
C59	C	1.091815	-0.431251	-0.816612
C60	C	1.142386	-0.380717	-0.778206
C61	C	1.142409	-0.380676	-0.931923
C62	C	1.142418	-0.380651	-1.015256
C63	C	1.142376	-0.380741	-0.694867
C64	C	1.142296	-0.380834	-0.163485
C65	C	1.142428	-0.380634	-0.081686
H66	H	0.567931	-0.238791	-0.487398
H67	H	1.234153	-0.288973	-0.924814
C68	C	0.432737	-0.275609	-0.452994
C69	C	0.351601	-0.286413	-0.442909
C70	C	0.310206	-0.235957	-0.489976
H71	H	0.446204	-0.287190	-0.502450
H72	H	0.446219	-0.222467	-0.442294
H73	H	0.338125	-0.339543	-0.453614
H74	H	0.338111	-0.274827	-0.393463
H75	H	0.323688	-0.182814	-0.479276
H76	H	0.323679	-0.247542	-0.539429
H77	H	0.255151	-0.243275	-0.483135
C78	C	0.986327	-0.794224	-0.499767
C79	C	0.997139	-0.713097	-0.489700
C80	C	0.946638	-0.671661	-0.536686
H81	H	0.933197	-0.807698	-0.488998
H82	H	0.997879	-0.807665	-0.549244
H83	H	0.985581	-0.699662	-0.440235
H84	H	1.050258	-0.699599	-0.500474
H85	H	0.958189	-0.685101	-0.586163
H86	H	0.893511	-0.685142	-0.525914
H87	H	0.953971	-0.616612	-0.529867
C88	C	1.037062	-0.486198	-0.935208
C89	C	1.081807	-0.536868	-0.979319
C90	C	1.031384	-0.587521	-1.017770
H91	H	1.002623	-0.456043	-0.965248
H92	H	1.006951	-0.516355	-0.901324
H93	H	1.111904	-0.506714	-1.013199
H94	H	1.116243	-0.567039	-0.949297
H95	H	1.001274	-0.617678	-0.983886
H96	H	0.996948	-0.557360	-1.047806
H97	H	1.061737	-0.621911	-1.047698
H98	H	1.000037	-0.955343	-0.487044
H99	H	1.050625	-0.472418	-0.785307
H100	H	1.050661	-1.079161	-0.440037
H101	H	1.284708	-0.955299	-0.222397
C102	C	0.852384	-0.486209	-0.256295
C103	C	0.798530	-0.530439	-0.215030
C104	C	0.839606	-0.581026	-0.167843
H105	H	0.884575	-0.456015	-0.224206
H106	H	0.884579	-0.520730	-0.284370
H107	H	0.766348	-0.495924	-0.186957
H108	H	0.766337	-0.560650	-0.247099
H109	H	0.871801	-0.615546	-0.195918
H110	H	0.871796	-0.550825	-0.135759
H111	H	0.803073	-0.611047	-0.139844
C112	C	1.247715	-0.670604	-0.256510
C113	C	1.230561	-0.690748	-0.183684
C114	C	1.281076	-0.649574	-0.136520
H115	H	1.240502	-0.615519	-0.263140
H116	H	1.300837	-0.684108	-0.267281
H117	H	1.177452	-0.677239	-0.172916
H118	H	1.237779	-0.745826	-0.177030
H119	H	1.334198	-0.663078	-0.147292
H120	H	1.273859	-0.594491	-0.143157
H121	H	1.269449	-0.663241	-0.087103
C122	C	0.728772	-0.224960	-0.500191
C123	C	0.674992	-0.180741	-0.541476
C124	C	0.716153	-0.130140	-0.588643
H125	H	0.760999	-0.255144	-0.532267
H126	H	0.760939	-0.190434	-0.472099
H127	H	0.642839	-0.215263	-0.569566
H128	H	0.642763	-0.150541	-0.509420
H129	H	0.748320	-0.095614	-0.560551
H130	H	0.748378	-0.160330	-0.620714
H131	H	0.679670	-0.100126	-0.616655
H132	H	0.443912	-0.472462	-0.269206
H133	H	1.234176	-1.079129	-0.269430
H134	H	0.717474	-0.522919	-0.222005
C135	C	1.247889	-0.275207	-0.775089
C136	C	1.292167	-0.230914	-0.825214
C137	C	1.342766	-0.180270	-0.786954
H138	H	1.282385	-0.305364	-0.745107
H139	H	1.217677	-0.240730	-0.745121
H140	H	1.322377	-0.265387	-0.855169
H141	H	1.257692	-0.200742	-0.855198
H142	H	1.312554	-0.145793	-0.756986
H143	H	1.377256	-0.210433	-0.756974
H144	H	1.372809	-0.150206	-0.820958
H145	H	1.284669	-0.805535	-0.222378
H146	H	0.567696	-0.522929	-0.222033
H147	H	1.050510	-0.681744	-0.440006
C148	C	0.852744	-0.275660	-0.453078
C149	C	0.900148	-0.320480	-0.500173
C150	C	0.941514	-0.270135	-0.547420
H151	H	0.884996	-0.241158	-0.425061
H152	H	0.816391	-0.245613	-0.481211
H153	H	0.936497	-0.350513	-0.472044
H154	H	0.867915	-0.354979	-0.528206
H155	H	0.905161	-0.240088	-0.575553
H156	H	0.973762	-0.235636	-0.519397
H157	H	0.973677	-0.300538	-0.579384
