data_functionalizedCrystal
_audit_creation_method	'MofGen! by Chris Wilmer'
_symmetry_space_group_name_H-M	'P1'
_symmetry_Int_Tables_number	1
_symmetry_cell_setting	triclinic
loop_
_symmetry_equiv_pos_as_xyz
  x,y,z
_cell_length_a	10.967874
_cell_length_b	10.967829
_cell_length_c	16.176319
_cell_angle_alpha	77.865348
_cell_angle_beta	77.863909
_cell_angle_gamma	82.165976
loop_
_atom_site_label
_atom_site_type_symbol
_atom_site_fract_x
_atom_site_fract_y
_atom_site_fract_z
O1	O	1.657238	0.175051	-0.329769
O2	O	1.294077	0.191801	-0.280421
O3	O	1.484030	0.001846	-0.280417
O4	O	1.467285	0.365006	-0.329774
O5	O	1.484004	0.001833	-0.142918
O6	O	1.294051	0.191788	-0.142923
O7	O	1.657212	0.175038	-0.192270
Cu8	Cu	1.475629	0.183412	-0.155042
Cu9	Cu	1.475660	0.183427	-0.317650
O10	O	1.467259	0.364993	-0.192275
C11	C	1.247563	0.190575	-0.204874
C12	C	1.109006	0.186926	-0.184616
C13	C	1.047246	0.185305	-0.246813
C14	C	0.904039	0.181534	-0.225877
C15	C	1.482796	-0.044661	-0.204870
C16	C	1.479145	-0.183218	-0.184614
C17	C	1.477531	-0.244979	-0.246812
C18	C	1.473758	-0.388185	-0.225878
C19	C	1.703726	0.176264	-0.267819
C20	C	1.842283	0.179913	-0.288083
C21	C	1.468492	0.411500	-0.267824
C22	C	1.472144	0.550057	-0.288085
N23	N	1.475616	0.183401	-0.040673
N24	N	1.475683	0.183428	-0.432019
C25	C	1.559753	0.099324	0.002585
C26	C	1.559759	0.099323	0.089131
C27	C	1.475634	0.183406	0.132416
C28	C	1.391488	0.267487	0.089153
C29	C	1.391476	0.267481	0.002610
C30	C	1.391531	0.267511	0.438172
C31	C	1.391551	0.267512	0.524721
C32	C	1.559813	0.099352	0.524693
C33	C	1.559802	0.099347	0.438150
C34	C	1.475652	0.183423	0.394895
C35	C	1.475645	0.183421	0.301053
C36	C	1.475646	0.183414	0.226256
H37	H	0.850898	0.180136	-0.157125
Cl38	Cl	0.924315	0.182100	-0.394236
Cl39	Cl	1.474275	-0.367905	-0.394231
Cl40	Cl	1.026963	0.184767	-0.078471
Cl41	Cl	1.129288	0.187476	-0.352959
Cl42	Cl	1.479740	-0.162943	-0.352962
Cl43	Cl	1.471568	-0.470219	-0.119726
H44	H	1.477725	-0.236362	-0.115864
Cl45	Cl	1.665523	-0.006381	-0.051824
Cl46	Cl	1.665532	-0.006377	0.143514
Cl47	Cl	1.285750	0.373208	0.383800
H48	H	1.628309	0.030883	0.402908
H49	H	1.628329	0.030889	0.559921
H50	H	1.323041	0.335985	0.559962
H51	H	1.322985	0.335944	0.124403
H52	H	1.322962	0.335944	-0.032609
