data_functionalizedCrystal
_audit_creation_method	'MofGen! by Chris Wilmer'
_symmetry_space_group_name_H-M	'P1'
_symmetry_Int_Tables_number	1
_symmetry_cell_setting	triclinic
loop_
_symmetry_equiv_pos_as_xyz
  x,y,z
_cell_length_a	14.908294
_cell_length_b	12.759401
_cell_length_c	12.759399
_cell_angle_alpha	89.983359
_cell_angle_beta	93.268796
_cell_angle_gamma	86.719911
loop_
_atom_site_label
_atom_site_type_symbol
_atom_site_fract_x
_atom_site_fract_y
_atom_site_fract_z
Zn1	Zn	-0.510062	-1.571937	-0.452485
Zn2	Zn	-0.359211	-1.581979	-0.618053
Zn3	Zn	-0.359225	-1.406387	-0.442394
Zn4	Zn	-0.510024	-1.396229	-0.628125
O5	O	-0.434630	-1.489133	-0.535264
O6	O	-0.490061	-1.720289	-0.474456
O7	O	-0.232971	-1.567140	-0.586313
O8	O	-0.379255	-1.428396	-0.296713
O9	O	-0.379231	-1.727667	-0.596098
O10	O	-0.490075	-1.550025	-0.304127
O11	O	-0.232981	-1.438133	-0.457257
O12	O	-0.379219	-1.258019	-0.467024
O13	O	-0.636271	-1.411083	-0.613264
O14	O	-0.490010	-1.250556	-0.603479
O15	O	-0.636299	-1.540175	-0.484223
O16	O	-0.379195	-1.557290	-0.766408
O17	O	-0.489997	-1.420820	-0.773808
C18	C	-0.434612	-1.216167	-0.535250
C19	C	-0.434626	-1.099389	-0.535271
C20	C	-0.669933	-1.473376	-0.550992
C21	C	-0.770206	-1.466661	-0.557695
C22	C	-0.434610	-1.489070	-0.808230
C23	C	-0.434631	-1.489137	-0.925008
C24	C	-0.911521	-1.389988	-0.634314
C25	C	-0.817307	-1.396296	-0.628024
C26	C	-0.817326	-1.530722	-0.493649
C27	C	-0.911540	-1.524415	-0.499939
C28	C	-0.958635	-1.454047	-0.570275
C29	C	-1.052851	-1.447746	-0.576569
C30	C	-1.052868	-1.582167	-0.442189
C31	C	-0.958654	-1.588474	-0.435899
C32	C	-0.200243	-1.504889	-0.519521
C33	C	-0.099971	-1.511807	-0.512523
C34	C	-0.434649	-1.763165	-0.535279
C35	C	-0.434657	-1.879941	-0.535285
C36	C	-0.492225	-1.040675	-0.606419
C37	C	-0.492243	-0.930950	-0.606425
C38	C	-0.377056	-0.938663	-0.464129
C39	C	-0.377043	-1.048386	-0.464120
C40	C	-0.377002	-1.560269	-0.975987
C41	C	-0.377032	-1.560334	-1.085713
C42	C	-0.492323	-1.418127	-1.093473
C43	C	-0.492297	-1.418067	-0.983749
C44	C	-0.434671	-1.489223	-0.261234
C45	C	-0.434688	-1.489262	-0.144458
H46	H	-1.091194	-1.390451	-0.633843
F47	F	-0.315774	-0.884373	-0.388411
H48	H	-0.949866	-1.332699	-0.691591
H49	H	-1.091238	-1.634330	-0.390045
F50	F	-0.767189	-1.605555	-0.418747
H51	H	-0.330139	-1.096193	-0.406176
H52	H	-0.920296	-1.645763	-0.378631
F53	F	-0.315631	-1.635909	-0.913474
F54	F	-0.315698	-1.636045	-1.139963
F55	F	-0.553512	-1.094952	-0.682142
H56	H	-0.539271	-1.360262	-1.141312
H57	H	-0.778950	-1.344126	-0.680165
F58	F	-0.553641	-1.342359	-0.929491
H59	H	-0.539146	-0.883149	-0.664360
