data_functionalizedCrystal
_audit_creation_method	'MofGen! by Chris Wilmer'
_symmetry_space_group_name_H-M	'P1'
_symmetry_Int_Tables_number	1
_symmetry_cell_setting	triclinic
loop_
_symmetry_equiv_pos_as_xyz
  x,y,z
_cell_length_a	12.759401
_cell_length_b	10.685194
_cell_length_c	12.759393
_cell_angle_alpha	85.596526
_cell_angle_beta	89.981504
_cell_angle_gamma	94.377514
loop_
_atom_site_label
_atom_site_type_symbol
_atom_site_fract_x
_atom_site_fract_y
_atom_site_fract_z
Zn1	Zn	1.574245	-0.502330	-0.561904
Zn2	Zn	1.560690	-0.713400	-0.372745
Zn3	Zn	1.398543	-0.502396	-0.386239
Zn4	Zn	1.385092	-0.713303	-0.548393
O5	O	1.479642	-0.607857	-0.467320
O6	O	1.719467	-0.530341	-0.536819
O7	O	1.539137	-0.685478	-0.227510
O8	O	1.433153	-0.325788	-0.420843
O9	O	1.709508	-0.685414	-0.397845
O10	O	1.562240	-0.325739	-0.549903
O11	O	1.420008	-0.530455	-0.237424
O12	O	1.249739	-0.530361	-0.407742
O13	O	1.410227	-0.685249	-0.697211
O14	O	1.239856	-0.685313	-0.526876
O15	O	1.549197	-0.530247	-0.707137
O16	O	1.526094	-0.889986	-0.384744
O17	O	1.397083	-0.889915	-0.513791
C18	C	1.206677	-0.607835	-0.467307
C19	C	1.089899	-0.607855	-0.467325
C20	C	1.458686	-0.935741	-0.446360
C21	C	1.449817	-1.076011	-0.437428
C22	C	0.920178	-0.688681	-0.529250
C23	C	1.029903	-0.688667	-0.529240
C24	C	1.040163	-0.527062	-0.405407
C25	C	0.930440	-0.527083	-0.405412
C26	C	1.753674	-0.607881	-0.467334
C27	C	1.870450	-0.607891	-0.467340
C28	C	1.479724	-0.607730	-0.741362
C29	C	1.479759	-0.607675	-0.858142
C30	C	1.500709	-0.278693	-0.488386
C31	C	1.509686	-0.138423	-0.497362
C32	C	1.417754	-0.526940	-0.918167
C33	C	1.417781	-0.526901	-1.027893
C34	C	1.541826	-0.688337	-1.017561
C35	C	1.541793	-0.688381	-0.907836
C36	C	1.479628	-0.607893	-0.194351
C37	C	1.479819	-0.607592	-0.077594
H38	H	0.871338	-0.754480	-0.579675
H39	H	1.089020	-0.461269	-0.354990
H40	H	1.391762	-1.129894	-0.379284
H41	H	1.367241	-0.461224	-0.877710
H42	H	1.070386	-0.754456	-0.579653
C43	C	1.349562	-0.438111	-1.093920
H44	H	1.358450	-0.449655	-1.166385
H45	H	1.370347	-0.353321	-1.081379
H46	H	1.277785	-0.456603	-1.074738
H47	H	1.592334	-0.754043	-1.058035
C48	C	1.588096	-1.065654	-0.575926
H49	H	1.624457	-1.123617	-0.612336
H50	H	1.637113	-1.014219	-0.539024
H51	H	1.551080	-1.014242	-0.624906
H52	H	0.889951	-0.461292	-0.354993
C53	C	1.610004	-0.777192	-0.841805
H54	H	1.646966	-0.825238	-0.887115
H55	H	1.566281	-0.832188	-0.795478
H56	H	1.658861	-0.728930	-0.802096
