data_functionalizedCrystal
_audit_creation_method	'MofGen! by Chris Wilmer'
_symmetry_space_group_name_H-M	'P1'
_symmetry_Int_Tables_number	1
_symmetry_cell_setting	triclinic
loop_
_symmetry_equiv_pos_as_xyz
  x,y,z
_cell_length_a	10.686220
_cell_length_b	21.395362
_cell_length_c	21.395355
_cell_angle_alpha	90.021787
_cell_angle_beta	94.345449
_cell_angle_gamma	85.582175
loop_
_atom_site_label
_atom_site_type_symbol
_atom_site_fract_x
_atom_site_fract_y
_atom_site_fract_z
Zn1	Zn	1.929018	0.175919	-0.280862
Zn2	Zn	1.928804	0.280687	-0.176087
Zn3	Zn	1.717989	0.183970	-0.184127
Zn4	Zn	1.717908	0.288717	-0.288850
O5	O	1.823430	0.232323	-0.232482
O6	O	2.105567	0.183087	-0.260256
O7	O	1.900782	0.267866	-0.089478
O8	O	1.746105	0.095219	-0.196981
O9	O	2.105409	0.260060	-0.183278
O10	O	1.901148	0.089304	-0.268052
O11	O	1.745897	0.196809	-0.095385
O12	O	1.541401	0.204595	-0.204727
O13	O	1.745969	0.273745	-0.375466
O14	O	1.541342	0.281551	-0.281666
O15	O	1.901070	0.190873	-0.369598
O16	O	1.900705	0.369435	-0.191023
O17	O	1.745761	0.375334	-0.273870
C18	C	1.495587	0.244818	-0.244936
C19	C	1.355334	0.250179	-0.250279
C20	C	1.823235	0.395118	-0.232453
C21	C	1.823267	0.464758	-0.232458
C22	C	1.903945	0.494337	-0.269494
C23	C	1.903976	0.559771	-0.269507
C24	C	1.823342	0.595624	-0.232472
C25	C	1.742649	0.566038	-0.195433
C26	C	1.742611	0.500605	-0.195426
C27	C	1.813499	0.699700	-0.176405
C28	C	1.813545	0.765131	-0.176411
C29	C	1.823450	0.797440	-0.232493
C30	C	1.833336	0.764310	-0.288572
C31	C	1.833298	0.698877	-0.288565
C32	C	1.823373	0.666575	-0.232475
C33	C	1.904166	0.897970	-0.269547
C34	C	1.904188	0.963405	-0.269561
C35	C	1.742868	0.969671	-0.195481
C36	C	1.742839	0.904237	-0.195473
C37	C	1.823495	0.868390	-0.232505
C38	C	2.152553	0.219780	-0.219979
C39	C	2.292805	0.214434	-0.214651
C40	C	1.823534	0.232306	-0.395901
C41	C	1.823579	0.232299	-0.465541
C42	C	1.823608	1.068893	-0.232519
C43	C	1.823552	0.999254	-0.232526
C44	C	1.904337	0.189146	-0.495199
C45	C	1.904335	0.189120	-0.560635
C46	C	1.823589	0.232256	-0.596409
C47	C	1.742815	0.275413	-0.566743
C48	C	1.742810	0.275434	-0.501309
C49	C	1.813558	0.289054	-0.700453
C50	C	1.813572	0.289033	-0.765885
C51	C	1.823597	0.232190	-0.798229
C52	C	1.833635	0.175364	-0.765132
C53	C	1.833630	0.175386	-0.699698
C54	C	1.823585	0.232237	-0.667361
C55	C	1.904357	0.189004	-0.898840
C56	C	1.904347	0.188977	-0.964277
C57	C	1.742833	0.275275	-0.970384
C58	C	1.742837	0.275297	-0.904948
C59	C	1.823606	0.232162	-0.869180
C60	C	1.823398	0.232292	-0.069695
C61	C	1.823598	0.232113	-0.000047
H62	H	1.969616	0.465152	-0.299650
H63	H	1.301564	0.284888	-0.284868
F64	F	1.989853	0.591257	-0.308925
H65	H	1.677075	0.310392	-0.999511
F66	F	1.363076	0.169074	-0.169437
F67	F	1.803034	0.800384	-0.116727
F68	F	1.657047	1.007824	-0.156067
F69	F	1.656853	0.321365	-0.469744
H70	H	1.841344	0.671904	-0.334225
F71	F	1.802900	0.349511	-0.801103
H72	H	1.841800	0.129077	-0.791465
F73	F	1.656827	0.604196	-0.156021
H74	H	1.841404	0.790614	-0.334239
H75	H	1.970095	0.153976	-0.584787
F76	F	1.990048	0.994885	-0.308990
H77	H	1.676912	0.476523	-0.165266
F78	F	1.990001	0.859816	-0.308961
H79	H	1.677149	0.880153	-0.165311
F80	F	1.803084	0.665315	-0.116700
F81	F	1.802916	0.349559	-0.666035
H82	H	1.677083	0.310441	-0.880800
H83	H	1.970107	0.153833	-0.988424
H84	H	1.970104	0.154022	-0.466080
F85	F	1.844306	0.114910	-0.664476
H86	H	1.970117	0.153878	-0.869716
H87	H	1.677067	0.310533	-0.595875
