data_functionalizedCrystal
_audit_creation_method	'MofGen! by Chris Wilmer'
_symmetry_space_group_name_H-M	'P1'
_symmetry_Int_Tables_number	1
_symmetry_cell_setting	triclinic
loop_
_symmetry_equiv_pos_as_xyz
  x,y,z
_cell_length_a	25.639242
_cell_length_b	25.639239
_cell_length_c	17.077384
_cell_angle_alpha	89.909707
_cell_angle_beta	89.931352
_cell_angle_gamma	90.033587
loop_
_atom_site_label
_atom_site_type_symbol
_atom_site_fract_x
_atom_site_fract_y
_atom_site_fract_z
Zn1	Zn	0.799468	-0.207916	-0.444003
Zn2	Zn	0.799320	-0.295444	-0.312731
Zn3	Zn	0.711973	-0.208017	-0.312732
Zn4	Zn	0.711990	-0.295315	-0.443936
O5	O	0.755688	-0.251673	-0.378350
O6	O	0.872614	-0.219539	-0.426617
O7	O	0.787664	-0.283943	-0.202884
O8	O	0.723634	-0.134838	-0.330174
O9	O	0.872505	-0.283845	-0.330172
O10	O	0.787917	-0.134764	-0.426618
O11	O	0.723490	-0.219710	-0.202884
O12	O	0.638810	-0.219585	-0.330108
O13	O	0.723663	-0.283625	-0.553792
O14	O	0.638822	-0.283722	-0.426503
O15	O	0.787933	-0.219413	-0.553841
O16	O	0.787680	-0.368592	-0.330107
O17	O	0.723519	-0.368497	-0.426502
C18	C	0.619845	-0.251651	-0.378299
C19	C	0.561731	-0.251654	-0.378296
C20	C	0.310522	-0.218221	-0.328244
C21	C	0.365127	-0.218216	-0.328234
O22	O	0.393350	-0.189759	-0.285634
N23	N	0.392457	-0.251660	-0.378335
C24	C	0.365180	-0.285108	-0.428455
O25	O	0.393441	-0.313555	-0.471070
C26	C	0.310577	-0.285110	-0.428469
C27	C	0.283249	-0.251667	-0.378359
C28	C	0.283195	-0.184780	-0.278139
C29	C	0.228594	-0.184786	-0.278148
C30	C	0.201321	-0.218232	-0.328262
C31	C	0.228649	-0.251673	-0.378368
C32	C	0.283301	-0.318555	-0.478592
C33	C	0.228694	-0.318553	-0.478602
C34	C	0.201367	-0.285110	-0.428492
C35	C	0.146775	-0.285125	-0.428492
N36	N	0.119445	-0.251680	-0.378390
C37	C	0.146718	-0.218234	-0.328276
C38	C	0.479851	-0.285101	-0.428425
C39	C	0.534453	-0.285103	-0.428408
C40	C	0.534396	-0.218209	-0.328187
C41	C	0.479792	-0.218211	-0.328201
C42	C	0.452521	-0.251657	-0.378323
C43	C	0.032053	-0.218248	-0.328298
C44	C	-0.022553	-0.218259	-0.328310
C45	C	-0.022490	-0.285150	-0.428533
C46	C	0.032110	-0.285142	-0.428519
C47	C	0.059381	-0.251687	-0.378399
O48	O	0.118517	-0.313566	-0.471072
O49	O	0.118451	-0.189787	-0.285676
C50	C	0.755600	-0.387515	-0.378314
C51	C	0.755610	-0.445630	-0.378325
C52	C	0.789184	-0.806029	-0.328243
C53	C	0.789204	-0.860634	-0.328253
O54	O	0.817658	-0.888902	-0.285632
N55	N	0.755779	-0.887912	-0.378402
C56	C	0.722336	-0.860583	-0.428550
O57	O	0.693909	-0.888799	-0.471207
C58	C	0.722319	-0.805980	-0.428543
C59	C	0.755742	-0.778704	-0.378385
C60	C	0.822604	-0.778754	-0.278089
C61	C	0.822583	-0.724154	-0.278078
C62	C	0.789141	-0.696828	-0.328220
C63	C	0.755721	-0.724104	-0.378373
C64	C	0.688879	-0.778652	-0.478694
C65	C	0.688865	-0.724045	-0.478683
C66	C	0.722288	-0.696769	-0.428525
C67	C	0.722258	-0.642178	-0.428504
N68	N	0.755683	-0.614900	-0.378355
C69	C	0.789124	-0.642225	-0.328213
C70	C	0.722376	-0.975253	-0.428562
C71	C	0.722390	-1.029856	-0.428566
C72	C	0.789258	-1.029903	-0.328270
C73	C	0.789241	-0.975300	-0.328263
C74	C	0.755800	-0.947975	-0.378413
C75	C	0.789077	-0.527560	-0.328192
C76	C	0.789051	-0.472955	-0.328183
C77	C	0.722185	-0.472912	-0.428482
C78	C	0.722209	-0.527513	-0.428488
C79	C	0.755659	-0.554835	-0.378341
O80	O	0.693820	-0.613875	-0.471106
O81	O	0.817552	-0.614002	-0.285570
C82	C	0.892061	-0.251695	-0.378402
C83	C	0.950175	-0.251705	-0.378424
C84	C	0.755817	-0.251493	-0.583095
C85	C	0.755872	-0.251417	-0.670345
C86	C	0.755790	-0.115300	-0.378404
C87	C	0.755834	-0.057186	-0.378426
C88	C	0.755589	-0.251814	-0.174402
C89	C	0.755636	-0.251743	-0.087152
C90	C	0.722004	-0.218513	-0.046199
C91	C	0.722053	-0.218447	0.035781
C92	C	0.755730	-0.251613	0.076807
C93	C	0.789365	-0.284844	0.035848
C94	C	0.789319	-0.284908	-0.046131
C95	C	0.789457	-0.284709	0.206718
C96	C	0.789503	-0.284647	0.288702
C97	C	0.722191	-0.218249	0.288629
C98	C	0.722145	-0.218312	0.206650
C99	C	0.755780	-0.251544	0.165697
H100	H	0.457650	-0.312341	-0.469239
O101	O	0.202147	-0.351071	-0.527184
C102	C	0.170516	-0.384849	-0.482414
H103	H	0.162288	-0.366404	-0.422977
H104	H	0.191536	-0.423591	-0.473681
C105	C	0.128792	-0.416984	-0.598597
C106	C	0.118682	-0.394327	-0.525598
H107	H	0.096819	-0.422834	-0.625235
H108	H	0.150103	-0.394229	-0.628760
H109	H	0.146309	-0.449267	-0.591309
H110	H	0.101171	-0.362043	-0.532887
H111	H	0.097366	-0.417078	-0.495436
O112	O	0.855178	-0.805218	-0.229415
C113	C	0.907275	-0.791791	-0.246689
H114	H	0.908319	-0.752120	-0.276891
H115	H	0.924914	-0.822463	-0.287061
C116	C	0.937663	-0.838002	-0.133130
C117	C	0.938946	-0.789276	-0.170219
H118	H	0.957201	-0.836453	-0.085961
H119	H	0.902565	-0.847050	-0.121493
H120	H	0.952361	-0.863557	-0.166781
H121	H	0.924243	-0.763722	-0.136572
H122	H	0.974043	-0.780223	-0.181848
O123	O	0.821759	-0.948887	-0.279517
C124	C	0.851264	-0.984721	-0.235249
H125	H	0.853087	-1.023606	-0.267413
H126	H	0.832112	-0.990612	-0.175603
C127	C	0.904666	-0.915620	-0.184511
C128	C	0.906908	-0.963378	-0.224019
H129	H	0.938989	-0.902454	-0.177581
H130	H	0.884787	-0.891478	-0.214333
H131	H	0.888704	-0.920536	-0.134811
H132	H	0.922864	-0.958460	-0.273722
H133	H	0.926792	-0.987519	-0.194205
H134	H	0.694666	-0.191388	0.069121
H135	H	0.457546	-0.190977	-0.287399
O136	O	0.689217	-0.186322	-0.085961
C137	C	0.637193	-0.198111	-0.065734
H138	H	0.636275	-0.218171	-0.006127
H139	H	0.619731	-0.225151	-0.111708
C140	C	0.606322	-0.122724	-0.135264
C141	C	0.605194	-0.147359	-0.062050
H142	H	0.586582	-0.091418	-0.132995
H143	H	0.641371	-0.114782	-0.148894
H144	H	0.591771	-0.145262	-0.173568
H145	H	0.619750	-0.124823	-0.023750
H146	H	0.570146	-0.155295	-0.048413
O147	O	0.309659	-0.152345	-0.229338
C148	C	0.296220	-0.163757	-0.151081
H149	H	0.281187	-0.205528	-0.147019
H150	H	0.264515	-0.135729	-0.130653
C151	C	0.363136	-0.106356	-0.103672
C152	C	0.344677	-0.157662	-0.098681
H153	H	0.393026	-0.102594	-0.071347
H154	H	0.372189	-0.098666	-0.156395
H155	H	0.336711	-0.083005	-0.086649
H156	H	0.371100	-0.181011	-0.115713
H157	H	0.335630	-0.165356	-0.045959
O158	O	0.689414	-0.186047	0.166918
C159	C	0.659729	-0.156710	0.220640
H160	H	0.681162	-0.154700	0.279006
H161	H	0.620150	-0.176132	0.229558
C162	C	0.625489	-0.103614	0.116750
C163	C	0.651816	-0.101142	0.188434
H164	H	0.620606	-0.069338	0.096883
H165	H	0.645487	-0.123380	0.080555
H166	H	0.592510	-0.119801	0.124191
H167	H	0.684797	-0.084961	0.180990
H168	H	0.631823	-0.081372	0.224627
H169	H	-0.044800	-0.191024	-0.287502
O170	O	0.689858	-0.948656	-0.477165
C171	C	0.656063	-0.917163	-0.432416
H172	H	0.674496	-0.909025	-0.372959
H173	H	0.617326	-0.938256	-0.423726
C174	C	0.623935	-0.875254	-0.548617
C175	C	0.646577	-0.865256	-0.475593
H176	H	0.618081	-0.843237	-0.575251
H177	H	0.646701	-0.896473	-0.578765
H178	H	0.591656	-0.892833	-0.541364
H179	H	0.678858	-0.847684	-0.482846
H180	H	0.623816	-0.844033	-0.445446
O181	O	0.821766	-1.056533	-0.279691
C182	C	0.814621	-1.110574	-0.290475
H183	H	0.797455	-1.117962	-0.351000
H184	H	0.786828	-1.126180	-0.243831
C185	C	0.888635	-1.129473	-0.209166
C186	C	0.867555	-1.138547	-0.283507
H187	H	0.921286	-1.146729	-0.204865
H188	H	0.893447	-1.093064	-0.201898
H189	H	0.865469	-1.142478	-0.170304
H190	H	0.890717	-1.125536	-0.322367
H191	H	0.862747	-1.174954	-0.290782
O192	O	0.560915	-0.317610	-0.477153
C193	C	0.525128	-0.347139	-0.521368
H194	H	0.486219	-0.325724	-0.524146
H195	H	0.519274	-0.386843	-0.492513
C196	C	0.594290	-0.380990	-0.601479
C197	C	0.546503	-0.354686	-0.604896
H198	H	0.607475	-0.385648	-0.653002
H199	H	0.618401	-0.361098	-0.571689
H200	H	0.589405	-0.414075	-0.577430
H201	H	0.551389	-0.321601	-0.628936
H202	H	0.522393	-0.374574	-0.634693
O203	O	0.689568	-0.185982	0.328528
C204	C	0.696821	-0.193043	0.409681
H205	H	0.737289	-0.209867	0.420825
H206	H	0.666006	-0.221090	0.433156
C207	C	0.642000	-0.119481	0.437879
C208	C	0.691705	-0.140140	0.451566
H209	H	0.638842	-0.086849	0.463717
H210	H	0.637112	-0.114724	0.383204
H211	H	0.616326	-0.142859	0.457442
H212	H	0.717377	-0.116766	0.431994
H213	H	0.696597	-0.144892	0.506238
H214	H	0.816938	-0.311640	0.322103
H215	H	0.695169	-1.052059	-0.469402
O216	O	0.822146	-0.317040	0.167056
C217	C	0.851889	-0.346292	0.220843
H218	H	0.830519	-0.348208	0.279355
H219	H	0.891478	-0.326859	0.229360
C220	C	0.886014	-0.399555	0.117189
C221	C	0.859765	-0.401912	0.189052
H222	H	0.890875	-0.433864	0.097578
H223	H	0.865978	-0.379846	0.080951
H224	H	0.919002	-0.383358	0.124296
H225	H	0.826775	-0.418103	0.181942
H226	H	0.879796	-0.421625	0.225289
O227	O	-0.049069	-0.317588	-0.477188
C228	C	-0.103122	-0.310424	-0.466434
H229	H	-0.110576	-0.270072	-0.440829
H230	H	-0.118672	-0.341433	-0.424554
C231	C	-0.121939	-0.364782	-0.577296
C232	C	-0.131093	-0.315219	-0.545854
H233	H	-0.139193	-0.367742	-0.626285
H234	H	-0.085522	-0.369610	-0.584540
H235	H	-0.134897	-0.390617	-0.542388
H236	H	-0.118129	-0.289386	-0.580756
H237	H	-0.167509	-0.310387	-0.538617
H238	H	0.694956	-0.450656	-0.469304
H239	H	0.661660	-0.800850	-0.519534
H240	H	0.816787	-0.311846	0.069258
H241	H	0.305542	-0.345788	-0.519397
O242	O	0.058457	-0.185738	-0.279533
C243	C	0.022619	-0.156220	-0.235328
H244	H	-0.016316	-0.177642	-0.232574
H245	H	0.016857	-0.116514	-0.264176
C246	C	0.091670	-0.122365	-0.155176
C247	C	0.043851	-0.148678	-0.151787
H248	H	0.104767	-0.117710	-0.103645
H249	H	0.115816	-0.142250	-0.184959
H250	H	0.086862	-0.089279	-0.179219
H251	H	0.048661	-0.181765	-0.127753
H252	H	0.019707	-0.128798	-0.121998
O253	O	0.821570	-0.446541	-0.279433
C254	C	0.851081	-0.482372	-0.235169
H255	H	0.852908	-0.521256	-0.267335
H256	H	0.831932	-0.488267	-0.175522
C257	C	0.904477	-0.413266	-0.184431
C258	C	0.906723	-0.461023	-0.223941
H259	H	0.938798	-0.400096	-0.177501
H260	H	0.884593	-0.389125	-0.214250
H261	H	0.888516	-0.418185	-0.134730
H262	H	0.922677	-0.456102	-0.273645
H263	H	0.926611	-0.485162	-0.194130
H264	H	0.206349	-0.157553	-0.237343
O265	O	0.821500	-0.554158	-0.279451
C266	C	0.791747	-0.585824	-0.228692
H267	H	0.752128	-0.594013	-0.256307
H268	H	0.785994	-0.564855	-0.170504
C269	C	0.869200	-0.627620	-0.180629
C270	C	0.820540	-0.637682	-0.214549
H271	H	0.886961	-0.659607	-0.171902
H272	H	0.889245	-0.606285	-0.214824
H273	H	0.864398	-0.610144	-0.132142
H274	H	0.825342	-0.655151	-0.263039
H275	H	0.800496	-0.659021	-0.180363
H276	H	0.816706	-0.311966	-0.079474
H277	H	0.054362	-0.312378	-0.469316
O278	O	0.656332	-0.697584	-0.527427
C279	C	0.626850	-0.733371	-0.571711
H280	H	0.625050	-0.772331	-0.539559
H281	H	0.646010	-0.739095	-0.631355
C282	C	0.573410	-0.664252	-0.622435
C283	C	0.571194	-0.712102	-0.582942
H284	H	0.539079	-0.651132	-0.629367
H285	H	0.593273	-0.640141	-0.592603
H286	H	0.589378	-0.669029	-0.672135
H287	H	0.555232	-0.707324	-0.533240
H288	H	0.551327	-0.736212	-0.612766
O289	O	0.689797	-0.553989	-0.477319
C290	C	0.701218	-0.540532	-0.555567
H291	H	0.742980	-0.525472	-0.559589
H292	H	0.673174	-0.508842	-0.576033
C293	C	0.643869	-0.607477	-0.603021
C294	C	0.695164	-0.588986	-0.607962
H295	H	0.640133	-0.637365	-0.635342
H296	H	0.636173	-0.616543	-0.550303
H297	H	0.620505	-0.581065	-0.620074
H298	H	0.718527	-0.615396	-0.590900
H299	H	0.702864	-0.579925	-0.660678
H300	H	0.849800	-0.701949	-0.237237
H301	H	0.556611	-0.190974	-0.287383
