data_functionalizedCrystal
_audit_creation_method	'MofGen! by Chris Wilmer'
_symmetry_space_group_name_H-M	'P1'
_symmetry_Int_Tables_number	1
_symmetry_cell_setting	triclinic
loop_
_symmetry_equiv_pos_as_xyz
  x,y,z
_cell_length_a	14.853566
_cell_length_b	19.188930
_cell_length_c	13.330367
_cell_angle_alpha	89.990439
_cell_angle_beta	89.994651
_cell_angle_gamma	83.389598
loop_
_atom_site_label
_atom_site_type_symbol
_atom_site_fract_x
_atom_site_fract_y
_atom_site_fract_z
O1	O	1.195864	0.091151	-0.083369
O2	O	0.933344	0.102010	-0.083387
O3	O	1.072179	-0.005050	-0.083358
O4	O	1.057028	0.198211	-0.083398
O5	O	1.072158	-0.005052	0.083489
O6	O	0.933322	0.102009	0.083460
O7	O	1.195842	0.091149	0.083478
Cu8	Cu	1.064580	0.096578	0.098704
Cu9	Cu	1.064606	0.096581	-0.098612
O10	O	1.057006	0.198209	0.083449
C11	C	0.899747	0.101518	0.000035
C12	C	0.799671	0.100043	0.000029
C13	C	0.376533	0.093810	-0.090901
C14	C	0.376530	0.093808	0.091002
C15	C	0.470557	0.095192	0.090999
C16	C	0.517575	0.095886	0.000044
C17	C	0.470568	0.095196	-0.090907
C18	C	0.517570	0.095890	0.181949
C19	C	0.611602	0.097275	0.181949
C20	C	0.658623	0.097964	0.090993
C21	C	0.611610	0.097273	0.000038
C22	C	0.658629	0.097967	-0.090916
C23	C	0.611618	0.097271	-0.181873
C24	C	0.517589	0.095885	-0.181863
C25	C	0.752653	0.099349	0.090983
C26	C	0.752663	0.099353	-0.090923
C27	C	1.071678	-0.031063	0.000069
C28	C	1.070205	-0.108573	0.000077
C29	C	1.151669	-0.153225	0.000088
C30	C	1.150285	-0.226054	0.000071
C31	C	1.067433	-0.254226	0.000065
C32	C	0.985958	-0.209564	0.000049
C33	C	0.987344	-0.136737	0.000055
N34	N	1.004094	-0.362443	0.056842
N35	N	1.002783	-0.431626	0.056838
C36	C	1.063252	-0.473649	0.000044
N37	N	1.125094	-0.443877	-0.056733
N38	N	1.126408	-0.374688	-0.056725
C39	C	1.065921	-0.333194	0.000058
C40	C	1.143221	-0.597271	0.000036
C41	C	1.141834	-0.670100	0.000013
C42	C	0.977504	-0.653609	0.000001
C43	C	0.978893	-0.580781	0.000013
C44	C	1.061754	-0.552617	0.000036
C45	C	1.229439	0.091642	0.000054
C46	C	1.329514	0.093116	0.000054
C47	C	1.057508	0.224223	0.000020
C48	C	1.058980	0.301732	0.000005
N49	N	1.064568	0.096577	0.237485
C50	C	1.003118	0.143971	0.710095
C51	C	1.126100	0.049190	0.710089
C52	C	1.126091	0.049188	0.605071
C53	C	1.064596	0.096578	0.552560
C54	C	1.003109	0.143971	0.605067
C55	C	1.187583	0.001800	0.552555
C56	C	1.187577	0.001796	0.447531
C57	C	1.126076	0.049184	0.395018
C58	C	1.064586	0.096579	0.447532
C59	C	1.003091	0.143969	0.395021
C60	C	0.941596	0.191361	0.447533
C61	C	0.941608	0.191359	0.552554
C62	C	1.126064	0.049186	0.289996
C63	C	1.003081	0.143970	0.289993
N64	N	1.064614	0.096581	0.762606
H65	H	0.649871	0.097840	0.256011
H66	H	0.790940	0.099916	-0.164990
H67	H	0.790923	0.099923	0.165038
C68	C	1.254374	-0.049738	0.390704
C69	C	1.308215	-0.091251	0.459171
C70	C	1.369748	-0.138739	0.406857
H71	H	1.291882	-0.024653	0.349712
H72	H	1.222078	-0.078888	0.349775
H73	H	1.340510	-0.062104	0.500082
H74	H	1.270732	-0.116351	0.500165
H75	H	1.337451	-0.167889	0.365929
H76	H	1.407250	-0.113649	0.365867
H77	H	1.406281	-0.166916	0.453304
H78	H	0.479304	0.095318	-0.255914
H79	H	0.953001	0.182558	0.247245
H80	H	0.649912	0.097841	-0.255928
H81	H	0.338253	0.093240	-0.164955
H82	H	0.910044	-0.676546	-0.000009
H83	H	0.891542	0.229944	0.595316
H84	H	0.338241	0.093248	0.165053
H85	H	1.210691	-0.574338	0.000049
H86	H	1.219141	-0.130299	0.000102
H87	H	0.479280	0.095329	0.255999
C88	C	1.192811	-0.002375	0.766976
C89	C	1.178467	-0.071004	0.741434
C90	C	1.239909	-0.118528	0.793815
H91	H	1.184070	0.004318	0.837057
H92	H	1.252968	0.005242	0.749734
H93	H	1.118325	-0.078617	0.758682
H94	H	1.187216	-0.077718	0.671361
H95	H	1.300065	-0.110912	0.776574
H96	H	1.231163	-0.111829	0.863894
H97	H	1.230191	-0.165098	0.776486
H98	H	1.176136	0.010604	0.247246
H99	H	0.953047	0.182555	0.752853
H100	H	1.216626	-0.262417	0.000076
H101	H	0.921004	-0.100380	0.000047
C102	C	0.896094	-0.240283	0.000094
C103	C	0.912315	-0.313620	0.000120
C104	C	0.829552	-0.341940	0.000170
H105	H	0.862502	-0.225031	-0.058077
H106	H	0.862545	-0.225007	0.058298
H107	H	0.945850	-0.328890	-0.058078
H108	H	0.945894	-0.328891	0.058286
H109	H	0.796003	-0.326664	0.058373
H110	H	0.795967	-0.326683	-0.058002
H111	H	0.840547	-0.391702	0.000196
C112	C	1.230384	-0.718468	0.000075
C113	C	1.303241	-0.678211	0.000124
C114	C	1.384828	-0.722743	0.000195
H115	H	1.233402	-0.747226	-0.058096
H116	H	1.233294	-0.747220	0.058278
H117	H	1.300332	-0.649471	-0.058073
H118	H	1.300253	-0.649454	0.058291
H119	H	1.387738	-0.751495	0.058398
H120	H	1.387836	-0.751499	-0.057977
H121	H	1.434271	-0.695435	0.000237
H122	H	0.912556	-0.544424	0.000011
H123	H	0.891529	0.229950	0.404766
H124	H	1.237655	-0.036780	0.595313
