data_functionalizedCrystal
_audit_creation_method	'MofGen! by Chris Wilmer'
_symmetry_space_group_name_H-M	'P1'
_symmetry_Int_Tables_number	1
_symmetry_cell_setting	triclinic
loop_
_symmetry_equiv_pos_as_xyz
  x,y,z
_cell_length_a	19.805407
_cell_length_b	19.077068
_cell_length_c	19.805399
_cell_angle_alpha	92.267915
_cell_angle_beta	89.983114
_cell_angle_gamma	92.327086
loop_
_atom_site_label
_atom_site_type_symbol
_atom_site_fract_x
_atom_site_fract_y
_atom_site_fract_z
Zn1	Zn	1.023886	-0.280208	-0.393533
Zn2	Zn	1.357219	0.053125	-0.060200
Zn3	Zn	1.690553	0.386459	0.273133
Zn4	Zn	1.019256	-0.397910	-0.284888
Zn5	Zn	1.352589	-0.064577	0.048446
Zn6	Zn	1.685923	0.268757	0.381779
Zn7	Zn	0.910705	-0.280230	-0.280359
Zn8	Zn	1.244038	0.053103	0.052974
Zn9	Zn	1.577372	0.386436	0.386308
Zn10	Zn	0.906116	-0.397870	-0.398033
Zn11	Zn	1.239449	-0.064536	-0.064699
Zn12	Zn	1.572782	0.268797	0.268634
O13	O	0.964991	-0.339054	-0.339203
O14	O	1.298324	-0.005721	-0.005870
O15	O	1.631657	0.327612	0.327463
O16	O	1.117988	-0.295829	-0.379134
O17	O	1.451321	0.037504	-0.045800
O18	O	1.784655	0.370838	0.287533
O19	O	1.004840	-0.382326	-0.189571
O20	O	1.338173	-0.048992	0.143762
O21	O	1.671506	0.284341	0.477095
O22	O	0.929577	-0.181736	-0.291594
O23	O	1.262910	0.151597	0.041740
O24	O	1.596244	0.484930	0.375073
O25	O	1.114587	-0.382304	-0.299312
O26	O	1.447920	-0.048971	0.034021
O27	O	1.781253	0.284363	0.367355
O28	O	1.012730	-0.181720	-0.374742
O29	O	1.346064	0.151613	-0.041409
O30	O	1.679397	0.484947	0.291924
O31	O	0.925088	-0.295867	-0.186244
O32	O	1.258421	0.037466	0.147089
O33	O	1.591754	0.370800	0.480423
O34	O	0.815380	-0.295828	-0.295956
O35	O	1.148713	0.037505	0.037377
O36	O	1.482047	0.370839	0.370710
O37	O	0.921755	-0.382235	-0.492152
O38	O	1.255088	-0.048902	-0.158818
O39	O	1.588422	0.284431	0.174515
O40	O	0.812008	-0.382257	-0.382411
O41	O	1.145342	-0.048924	-0.049077
O42	O	1.478675	0.284410	0.284256
O43	O	1.008280	-0.295790	-0.488846
O44	O	1.341614	0.037543	-0.155513
O45	O	1.674947	0.370877	0.177821
O46	O	1.000390	-0.496396	-0.303675
O47	O	1.333723	-0.163062	0.029659
O48	O	1.667056	0.170271	0.362992
O49	O	0.917266	-0.496366	-0.386802
O50	O	1.250599	-0.163033	-0.053469
O51	O	1.583933	0.170301	0.279865
C52	C	0.789135	-0.339041	-0.339181
C53	C	1.122469	-0.005708	-0.005847
C54	C	1.455802	0.327626	0.327486
C55	C	0.713903	-0.339052	-0.339188
C56	C	1.047236	-0.005719	-0.005855
C57	C	1.380569	0.327615	0.327479
C58	C	0.676818	-0.384124	-0.384137
C59	C	1.010151	-0.050790	-0.050804
C60	C	1.343485	0.282543	0.282529
C61	C	0.606130	-0.384125	-0.384147
C62	C	0.939463	-0.050791	-0.050814
C63	C	1.272796	0.282542	0.282520
C64	C	0.572527	-0.339058	-0.339203
C65	C	0.905860	-0.005724	-0.005870
C66	C	1.239194	0.327609	0.327463
C67	C	0.609617	-0.293981	-0.294252
C68	C	0.942950	0.039352	0.039082
C69	C	1.276284	0.372685	0.372415
C70	C	0.680304	-0.293977	-0.294246
C71	C	1.013638	0.039356	0.039087
C72	C	1.346971	0.372690	0.372421
C73	C	0.324543	-0.293997	-0.294275
C74	C	0.657876	0.039336	0.039059
C75	C	0.991210	0.372670	0.372392
C76	C	0.253851	-0.294006	-0.294283
C77	C	0.587184	0.039327	0.039051
C78	C	0.920517	0.372661	0.372384
C79	C	0.250368	-0.384145	-0.384176
C80	C	0.583702	-0.050811	-0.050842
C81	C	0.917035	0.282522	0.282491
C82	C	0.321056	-0.384140	-0.384170
C83	C	0.654389	-0.050807	-0.050837
C84	C	0.987722	0.282526	0.282497
C85	C	0.358139	-0.339062	-0.339221
C86	C	0.691473	-0.005728	-0.005888
C87	C	1.024806	0.327605	0.327446
C88	C	0.434788	-0.339060	-0.339212
C89	C	0.768121	-0.005727	-0.005879
C90	C	1.101455	0.327607	0.327455
C91	C	0.495880	-0.339062	-0.339208
C92	C	0.829213	-0.005729	-0.005875
C93	C	1.162546	0.327604	0.327458
C94	C	0.957846	-0.521918	-0.346233
C95	C	1.291179	-0.188585	-0.012900
C96	C	1.624512	0.144748	0.320434
C97	C	0.954851	-0.600148	-0.349263
C98	C	1.288184	-0.266815	-0.015929
C99	C	1.621518	0.066518	0.317404
C100	C	0.996756	-0.636893	-0.307442
C101	C	1.330089	-0.303560	0.025891
C102	C	1.663422	0.029774	0.359224
C103	C	0.993943	-0.710399	-0.310296
C104	C	1.327276	-0.377065	0.023037
C105	C	1.660610	-0.043732	0.356371
C106	C	0.949222	-0.747158	-0.354967
C107	C	1.282555	-0.413825	-0.021634
C108	C	1.615888	-0.080491	0.311699
C109	C	0.907315	-0.710408	-0.396793
C110	C	1.240649	-0.377075	-0.063459
C111	C	1.573982	-0.043741	0.269874
C112	C	0.910132	-0.636904	-0.393942
C113	C	1.243465	-0.303571	-0.060608
C114	C	1.576798	0.029763	0.272725
C115	C	0.936157	-0.966992	-0.368134
C116	C	1.269490	-0.633659	-0.034801
C117	C	1.602823	-0.300326	0.298533
C118	C	0.933342	-1.040502	-0.370980
C119	C	1.266675	-0.707168	-0.037647
C120	C	1.600008	-0.373835	0.295686
C121	C	1.019971	-1.040487	-0.284484
C122	C	1.353304	-0.707154	0.048849
C123	C	1.686638	-0.373820	0.382182
C124	C	1.022781	-0.966982	-0.281635
C125	C	1.356114	-0.633648	0.051699
C126	C	1.689447	-0.300315	0.385032
C127	C	0.980877	-0.930238	-0.323462
C128	C	1.314210	-0.596905	0.009871
C129	C	1.647543	-0.263571	0.343204
N130	N	0.946344	-0.822292	-0.357884
N131	N	1.279677	-0.488959	-0.024551
N132	N	1.613011	-0.155626	0.308783
N133	N	0.983758	-0.855105	-0.320549
N134	N	1.317092	-0.521772	0.012785
N135	N	1.650425	-0.188438	0.346118
C136	C	1.141533	-0.339068	-0.339226
C137	C	1.474866	-0.005735	-0.005893
C138	C	1.808200	0.327598	0.327441
C139	C	1.216765	-0.339074	-0.339236
C140	C	1.550098	-0.005741	-0.005903
C141	C	1.883431	0.327592	0.327431
C142	C	0.965022	-0.339006	-0.515744
C143	C	1.298356	-0.005672	-0.182411
C144	C	1.631689	0.327661	0.150923
C145	C	0.965036	-0.338985	-0.590975
C146	C	1.298369	-0.005651	-0.257642
C147	C	1.631702	0.327682	0.075691
C148	C	0.972182	-0.155476	-0.332161
C149	C	1.305515	0.177857	0.001172
C150	C	1.638849	0.511190	0.334506
C151	C	0.975247	-0.077246	-0.329160
C152	C	1.308580	0.256087	0.004173
C153	C	1.641913	0.589420	0.337507
C154	C	0.923521	-0.293962	-0.624586
C155	C	1.256855	0.039372	-0.291253
C156	C	1.590188	0.372705	0.042080
C157	C	0.923531	-0.293948	-0.695274
C158	C	1.256865	0.039386	-0.361941
C159	C	1.590198	0.372719	-0.028608
C160	C	0.965059	-0.338954	-0.732350
C161	C	1.298393	-0.005621	-0.399016
C162	C	1.631726	0.327712	-0.065683
C163	C	1.006576	-0.383983	-0.698734
C164	C	1.339909	-0.050649	-0.365401
C165	C	1.673242	0.282684	-0.032067
C166	C	1.006562	-0.383999	-0.628048
C167	C	1.339895	-0.050666	-0.294714
C168	C	1.673228	0.282667	0.038619
C169	C	1.006632	-0.383917	-0.983805
C170	C	1.339965	-0.050583	-0.650472
C171	C	1.673298	0.282750	-0.317138
C172	C	1.006644	-0.383895	-1.054496
C173	C	1.339977	-0.050562	-0.721163
C174	C	1.673311	0.282772	-0.387830
C175	C	0.923601	-0.293865	-1.051032
C176	C	1.256935	0.039468	-0.717698
C177	C	1.590268	0.372801	-0.384365
C178	C	0.923587	-0.293882	-0.980345
C179	C	1.256921	0.039451	-0.647012
C180	C	1.590254	0.372785	-0.313679
C181	C	0.965101	-0.338913	-0.946736
C182	C	1.298434	-0.005579	-0.613402
C183	C	1.631767	0.327754	-0.280069
C184	C	0.965088	-0.338928	-0.870088
C185	C	1.298422	-0.005594	-0.536754
C186	C	1.631755	0.327739	-0.203421
C187	C	0.965076	-0.338936	-0.808996
C188	C	1.298409	-0.005603	-0.475663
C189	C	1.631742	0.327731	-0.142330
C190	C	0.965000	-0.339052	-0.163347
C191	C	1.298334	-0.005719	0.169986
C192	C	1.631667	0.327614	0.503320
C193	C	0.965126	-0.338875	-0.088109
C194	C	1.298459	-0.005542	0.245225
C195	C	1.631792	0.327792	0.578558
H196	H	1.033170	-0.606968	-0.271063
H197	H	1.366503	-0.273635	0.062270
H198	H	1.699836	0.059698	0.395604
H199	H	0.710498	-0.257272	-0.257647
H200	H	1.043831	0.076062	0.075686
H201	H	1.377165	0.409395	0.409020
H202	H	0.870905	-0.740343	-0.433168
H203	H	1.204238	-0.407010	-0.099835
H204	H	1.537572	-0.073677	0.233499
C205	C	1.052324	-0.433408	-1.095279
C206	C	1.385657	-0.100075	-0.761945
C207	C	1.718990	0.233259	-0.428612
H208	H	1.077041	-0.460234	-1.065139
H209	H	1.410374	-0.126901	-0.731806
H210	H	1.743708	0.206433	-0.398472
H211	H	1.082876	-0.406482	-1.121824
H212	H	1.416209	-0.073148	-0.788491
H213	H	1.749543	0.260185	-0.455157
H214	H	1.025228	-0.464064	-1.124026
H215	H	1.358561	-0.130730	-0.790693
H216	H	1.691895	0.202603	-0.457360
C217	C	1.040035	-0.750815	-0.264290
C218	C	1.373368	-0.417481	0.069043
C219	C	1.706702	-0.084148	0.402377
H220	H	1.067066	-0.718395	-0.237271
H221	H	1.400399	-0.385062	0.096062
H222	H	1.733733	-0.051728	0.429396
H223	H	1.068416	-0.779445	-0.291316
H224	H	1.401749	-0.446111	0.042017
H225	H	1.735082	-0.112778	0.375351
H226	H	1.013056	-0.779532	-0.235888
H227	H	1.346389	-0.446198	0.097445
H228	H	1.679722	-0.112865	0.430779
C229	C	1.071978	-0.926551	-0.232500
C230	C	1.405312	-0.593218	0.100833
C231	C	1.738645	-0.259885	0.434166
H232	H	1.096538	-0.958963	-0.208006
H233	H	1.429871	-0.625630	0.125327
H234	H	1.763204	-0.292297	0.458661
H235	H	1.047205	-0.897919	-0.201875
H236	H	1.380538	-0.564586	0.131459
H237	H	1.713871	-0.231252	0.464792
H238	H	1.102555	-0.897835	-0.257313
H239	H	1.435888	-0.564502	0.076021
H240	H	1.769221	-0.231169	0.409354
H241	H	0.876009	-0.606987	-0.427997
H242	H	1.209343	-0.273654	-0.094664
H243	H	1.542676	0.059679	0.238669
H244	H	1.054088	-1.070411	-0.250432
H245	H	1.387421	-0.737078	0.082901
H246	H	1.720754	-0.403745	0.416235
C247	C	0.890063	-0.926580	-0.414138
C248	C	1.223396	-0.593247	-0.080805
C249	C	1.556729	-0.259914	0.252528
H250	H	0.898148	-0.877539	-0.406052
H251	H	1.231481	-0.544206	-0.072718
H252	H	1.564814	-0.210872	0.260615
H253	H	0.844129	-0.938672	-0.404660
H254	H	1.177462	-0.605339	-0.071327
H255	H	1.510795	-0.272005	0.262006
H256	H	0.899485	-0.938589	-0.460092
H257	H	1.232818	-0.605256	-0.126758
H258	H	1.566152	-0.271923	0.206575
C259	C	1.052295	-0.433444	-0.946840
C260	C	1.385629	-0.100111	-0.613507
C261	C	1.718962	0.233222	-0.280173
H262	H	1.046336	-0.427018	-0.899432
H263	H	1.379670	-0.093685	-0.566098
H264	H	1.713003	0.239649	-0.232765
H265	H	1.098178	-0.423147	-0.958034
H266	H	1.431512	-0.089814	-0.624701
H267	H	1.764845	0.243520	-0.291367
H268	H	1.040533	-0.480731	-0.960240
H269	H	1.373866	-0.147398	-0.626907
H270	H	1.707199	0.185935	-0.293574
C271	C	0.713775	-0.433697	-0.433577
C272	C	1.047108	-0.100364	-0.100244
C273	C	1.380442	0.232970	0.233090
H274	H	0.681562	-0.460535	-0.460353
H275	H	1.014895	-0.127201	-0.127019
H276	H	1.348229	0.206132	0.206314
H277	H	0.740145	-0.464328	-0.408815
H278	H	1.073479	-0.130995	-0.075482
H279	H	1.406812	0.202338	0.257851
H280	H	0.742409	-0.406806	-0.462077
H281	H	1.075742	-0.073472	-0.128744
H282	H	1.409076	0.259861	0.204590
H283	H	1.040372	-0.420657	-0.600682
H284	H	1.373706	-0.087323	-0.267349
H285	H	1.707039	0.246010	0.065984
H286	H	0.896932	-1.070429	-0.407369
H287	H	1.230266	-0.737096	-0.074036
H288	H	1.563599	-0.403762	0.259298
C289	C	0.365329	-0.244417	-0.244832
C290	C	0.698663	0.088916	0.088501
C291	C	1.031996	0.422250	0.421835
H292	H	0.412241	-0.250860	-0.251267
H293	H	0.745575	0.082474	0.082066
H294	H	1.078908	0.415807	0.415399
H295	H	0.353328	-0.254656	-0.199733
H296	H	0.686662	0.078677	0.133600
H297	H	1.019995	0.412011	0.466933
H298	H	0.355590	-0.197140	-0.253002
H299	H	0.688923	0.136193	0.080331
H300	H	1.022257	0.469526	0.413665
C301	C	1.052257	-0.433488	-0.739515
C302	C	1.385590	-0.100154	-0.406182
C303	C	1.718924	0.233179	-0.072848
H304	H	1.046326	-0.427025	-0.786427
H305	H	1.379659	-0.093692	-0.453094
H306	H	1.712992	0.239642	-0.119761
H307	H	1.040498	-0.480780	-0.729744
H308	H	1.373832	-0.147446	-0.396411
H309	H	1.707165	0.185887	-0.063077
H310	H	1.098137	-0.423188	-0.727539
H311	H	1.431471	-0.089854	-0.394205
H312	H	1.764804	0.243479	-0.060872
H313	H	0.582252	-0.257284	-0.257661
H314	H	0.915585	0.076049	0.075673
H315	H	1.248919	0.409383	0.409006
C316	C	0.877834	-0.244459	-0.583810
C317	C	1.211167	0.088874	-0.250476
C318	C	1.544500	0.422207	0.082857
H319	H	0.853105	-0.217650	-0.613954
H320	H	1.186438	0.115683	-0.280621
H321	H	1.519771	0.449017	0.052713
H322	H	0.904914	-0.213799	-0.555059
H323	H	1.238247	0.119535	-0.221725
H324	H	1.571581	0.452868	0.111608
H325	H	0.847281	-0.271397	-0.557268
H326	H	1.180615	0.061936	-0.223935
H327	H	1.513948	0.395270	0.109399
C328	C	0.216886	-0.244424	-0.244851
C329	C	0.550219	0.088910	0.088482
C330	C	0.883553	0.422243	0.421816
H331	H	0.169476	-0.250888	-0.251290
H332	H	0.502809	0.082445	0.082043
H333	H	0.836143	0.415778	0.415377
H334	H	0.230318	-0.197148	-0.253019
H335	H	0.563651	0.136185	0.080314
H336	H	0.896985	0.469519	0.413647
H337	H	0.228051	-0.254658	-0.199745
H338	H	0.561385	0.078675	0.133588
H339	H	0.894718	0.412009	0.466922
H340	H	0.889797	-0.257201	-1.078405
H341	H	1.223130	0.076132	-0.745072
H342	H	1.556464	0.409465	-0.411738
H343	H	0.575938	-0.420827	-0.420749
H344	H	0.909271	-0.087494	-0.087415
H345	H	1.242605	0.245840	0.245918
H346	H	0.889723	-0.257288	-0.722637
H347	H	1.223057	0.076045	-0.389304
H348	H	1.556390	0.409379	-0.055971
H349	H	0.889773	-0.257230	-0.950162
H350	H	1.223107	0.076103	-0.616828
H351	H	1.556440	0.409436	-0.283495
H352	H	0.348411	-0.420841	-0.420765
H353	H	0.681744	-0.087508	-0.087432
H354	H	1.015078	0.245826	0.245901
H355	H	0.220166	-0.420847	-0.420778
H356	H	0.553500	-0.087514	-0.087444
H357	H	0.886833	0.245819	0.245889
