data_functionalizedCrystal
_audit_creation_method	'MofGen! by Chris Wilmer'
_symmetry_space_group_name_H-M	'P1'
_symmetry_Int_Tables_number	1
_symmetry_cell_setting	triclinic
loop_
_symmetry_equiv_pos_as_xyz
  x,y,z
_cell_length_a	19.077105
_cell_length_b	13.032721
_cell_length_c	19.076919
_cell_angle_alpha	80.861841
_cell_angle_beta	89.923776
_cell_angle_gamma	95.201395
loop_
_atom_site_label
_atom_site_type_symbol
_atom_site_fract_x
_atom_site_fract_y
_atom_site_fract_z
Zn1	Zn	1.013397	-0.505360	0.481832
Zn2	Zn	1.513397	-0.005360	0.981832
Zn3	Zn	1.003124	-0.673317	0.378090
Zn4	Zn	1.503124	-0.173317	0.878090
Zn5	Zn	0.901858	-0.491366	0.358479
Zn6	Zn	1.401858	0.008634	0.858479
Zn7	Zn	0.881001	-0.672687	0.490791
Zn8	Zn	1.381001	-0.172687	0.990791
O9	O	0.949845	-0.585683	0.427298
O10	O	1.449845	-0.085683	0.927298
O11	O	1.109823	-0.533760	0.472529
O12	O	1.609823	-0.033760	0.972529
O13	O	0.994119	-0.643588	0.276699
O14	O	1.494119	-0.143588	0.776699
O15	O	0.929682	-0.347048	0.362886
O16	O	1.429682	0.152952	0.862886
O17	O	1.102275	-0.657157	0.396309
O18	O	1.602275	-0.157157	0.896309
O19	O	1.011630	-0.357329	0.453513
O20	O	1.511630	0.142671	0.953513
O21	O	0.919720	-0.509909	0.262291
O22	O	1.419720	-0.009909	0.762291
O23	O	0.801303	-0.509299	0.371572
O24	O	1.301303	-0.009299	0.871572
O25	O	0.894135	-0.656084	0.588392
O26	O	1.394135	-0.156084	1.088392
O27	O	0.785980	-0.642515	0.468781
O28	O	1.285980	-0.142515	0.968781
O29	O	0.991406	-0.533149	0.581810
O30	O	1.491406	-0.033149	1.081810
O31	O	0.973896	-0.819408	0.404996
O32	O	1.473896	-0.319408	0.904996
O33	O	0.884173	-0.818945	0.487797
O34	O	1.384173	-0.318945	0.987797
C35	C	0.768286	-0.574321	0.419021
C36	C	1.268286	-0.074321	0.919021
C37	C	0.690611	-0.569486	0.415499
C38	C	1.190611	-0.069486	0.915499
C39	C	0.646154	-0.636670	0.464393
C40	C	1.146154	-0.136670	0.964393
C41	C	0.573171	-0.632114	0.461086
C42	C	1.073171	-0.132114	0.961086
C43	C	0.544646	-0.560378	0.408881
C44	C	1.044646	-0.060378	0.908881
C45	C	0.589109	-0.493187	0.359985
C46	C	1.089109	0.006813	0.859985
C47	C	0.662091	-0.497739	0.363296
C48	C	1.162091	0.002261	0.863296
C49	C	0.327230	-0.539312	0.393562
C50	C	0.827230	-0.039312	0.893562
C51	C	0.254242	-0.534767	0.390254
C52	C	0.754242	-0.034767	0.890254
C53	C	0.238309	-0.673693	0.491357
C54	C	0.738309	-0.173693	0.991357
C55	C	0.311292	-0.678243	0.494660
C56	C	0.811292	-0.178243	0.994660
C57	C	0.355749	-0.611048	0.445766
C58	C	0.855749	-0.111048	0.945766
N59	N	0.470046	-0.555721	0.405499
N60	N	0.970046	-0.055721	0.905499
N61	N	0.430348	-0.615700	0.449153
N62	N	0.930348	-0.115700	0.949153
C63	C	0.925675	-0.857080	0.449513
C64	C	1.425675	-0.357080	0.949513
C65	C	0.915397	-0.973191	0.459043
C66	C	1.415397	-0.473191	0.959043
C67	C	0.955245	-1.025155	0.422357
C68	C	1.455245	-0.525155	0.922357
C69	C	0.944623	-1.145161	0.432206
C70	C	1.444623	-0.645161	0.932206
C71	C	1.132113	-0.597090	0.435607
C72	C	1.632113	-0.097090	0.935607
C73	C	1.209785	-0.601951	0.439148
C74	C	1.709785	-0.101951	0.939148
C75	C	0.941590	-0.596107	0.611432
C76	C	1.441590	-0.096107	1.111432
C77	C	0.938072	-0.600549	0.689899
C78	C	1.438072	-0.100549	1.189899
C79	C	0.974128	-0.313227	0.405012
C80	C	1.474128	0.186773	0.905012
C81	C	0.984476	-0.197123	0.395516
C82	C	1.484476	0.302877	0.895516
C83	C	0.958115	-0.575226	0.243875
C84	C	1.458115	-0.075226	0.743875
C85	C	0.961794	-0.570498	0.165391
C86	C	1.461794	-0.070498	0.665391
C87	C	0.987061	-0.538633	0.723338
C88	C	1.487061	-0.038633	1.223338
C89	C	0.983747	-0.542803	0.797065
C90	C	1.483747	-0.042803	1.297065
C91	C	0.931448	-0.608894	0.837354
C92	C	1.431448	-0.108894	1.337354
C93	C	0.882454	-0.670812	0.803910
C94	C	1.382454	-0.170812	1.303910
C95	C	0.885765	-0.666637	0.730183
C96	C	1.385765	-0.166637	1.230183
C97	C	0.916112	-0.628240	1.058220
C98	C	1.416112	-0.128240	1.558220
C99	C	0.912806	-0.632414	1.131952
C100	C	1.412806	-0.132414	1.631952
C101	C	1.014098	-0.504402	1.125102
C102	C	1.514098	-0.004402	1.625102
C103	C	1.017407	-0.500237	1.051375
C104	C	1.517407	-0.000237	1.551375
C105	C	0.968412	-0.562151	1.017937
C106	C	1.468412	-0.062151	1.517937
N107	N	0.928061	-0.613160	0.912715
N108	N	1.428061	-0.113160	1.412715
N109	N	0.971796	-0.557879	0.942576
N110	N	1.471796	-0.057879	1.442576
H111	H	0.363418	-0.484604	0.353745
H112	H	0.863418	0.015396	0.853745
H113	H	0.873422	-1.017547	0.497745
H114	H	1.373422	-0.517547	0.997745
Cl115	Cl	1.052815	-0.455548	0.672698
Cl116	Cl	1.552815	0.044452	1.172698
Cl117	Cl	1.075686	-0.426568	1.167142
Cl118	Cl	1.575686	0.073432	1.667142
H119	H	0.202105	-0.728397	0.531164
H120	H	0.702105	-0.228397	1.031164
H121	H	0.565879	-0.434774	0.317481
H122	H	1.065879	0.065226	0.817481
H123	H	0.845867	-0.717044	0.702958
H124	H	1.345867	-0.217044	1.202958
H125	H	0.839869	-0.724621	0.836718
H126	H	1.339869	-0.224621	1.336718
H127	H	0.902645	-1.189513	0.470911
H128	H	1.402645	-0.689513	0.970911
H129	H	0.876225	-0.678671	1.031006
H130	H	1.376225	-0.178671	1.531006
Cl131	Cl	1.049296	-1.128657	0.335765
Cl132	Cl	1.549296	-0.628657	0.835765
H133	H	0.870215	-0.686236	1.164753
H134	H	1.370215	-0.186236	1.664753
H135	H	1.023640	-0.492387	0.824288
H136	H	1.523640	0.007613	1.324288
H137	H	0.669372	-0.695088	0.506902
H138	H	1.169372	-0.195088	1.006902
H139	H	1.059997	-0.446421	1.018577
H140	H	1.559997	0.053579	1.518577
H141	H	0.231022	-0.476339	0.347746
H142	H	0.731022	0.023661	0.847746
H143	H	0.536976	-0.686823	0.500901
H144	H	1.036976	-0.186823	1.000901
H145	H	0.698288	-0.443025	0.323484
H146	H	1.198288	0.056975	0.823484
H147	H	0.334511	-0.736660	0.537169
H148	H	0.834511	-0.236660	1.037169
Cl149	Cl	1.020062	-0.956683	0.362611
Cl150	Cl	1.520062	-0.456683	0.862611
