data_functionalizedCrystal
_audit_creation_method	'MofGen! by Chris Wilmer'
_symmetry_space_group_name_H-M	'P1'
_symmetry_Int_Tables_number	1
_symmetry_cell_setting	triclinic
loop_
_symmetry_equiv_pos_as_xyz
  x,y,z
_cell_length_a	12.811445
_cell_length_b	14.044190
_cell_length_c	11.295483
_cell_angle_alpha	94.464886
_cell_angle_beta	80.460739
_cell_angle_gamma	88.597571
loop_
_atom_site_label
_atom_site_type_symbol
_atom_site_fract_x
_atom_site_fract_y
_atom_site_fract_z
O1	O	1.421147	0.111538	-0.252496
O2	O	1.114700	0.127544	-0.219410
O3	O	1.263318	-0.018428	-0.235432
O4	O	1.272529	0.257511	-0.236474
O5	O	1.250263	-0.005627	-0.035974
O6	O	1.101644	0.140345	-0.019951
O7	O	1.408092	0.124340	-0.053038
Cu8	Cu	1.253676	0.133511	-0.018283
Cu9	Cu	1.269115	0.118372	-0.254165
O10	O	1.259473	0.270312	-0.037015
C11	C	1.068716	0.133439	-0.115420
C12	C	0.951150	0.131921	-0.102726
C13	C	0.744462	0.115129	-0.296343
C14	C	0.633998	0.113703	-0.284421
C15	C	0.619757	0.127650	-0.066959
C16	C	0.730221	0.129076	-0.078882
C17	C	0.792569	0.122814	-0.193577
C18	C	0.903035	0.124233	-0.205499
C19	C	0.888792	0.138186	0.011961
C20	C	0.778328	0.136760	0.023884
C21	C	1.252762	-0.047330	-0.135265
C22	C	1.240747	-0.152519	-0.133957
C23	C	1.303996	-0.402998	-0.140833
C24	C	1.218801	-0.345114	-0.131626
C25	C	1.231015	-0.237944	-0.132923
C26	C	1.291784	-0.510177	-0.139535
C27	C	1.454075	0.118444	-0.157030
C28	C	1.571642	0.119962	-0.169732
C29	C	1.270029	0.299213	-0.137185
C30	C	1.282045	0.404402	-0.138501
N31	N	1.242824	0.144159	0.147624
N32	N	1.279975	0.107717	-0.420072
C33	C	1.358086	0.031018	0.384487
C34	C	1.349893	0.039071	0.510034
C35	C	1.218242	0.168313	0.524267
C36	C	1.226435	0.160260	0.398720
C37	C	1.296360	0.091611	0.328834
C38	C	1.304557	0.083563	0.203284
C39	C	1.172901	0.212800	0.217521
C40	C	1.164709	0.220853	0.343068
H41	H	0.568973	0.132756	0.026420
H42	H	1.386099	-0.372070	-0.149685
H43	H	0.727549	0.141861	0.117266
H44	H	1.361497	0.027669	0.146383
F45	F	0.969391	0.117565	-0.327566
F46	F	1.143816	0.241361	0.598659
H47	H	0.927972	0.144442	0.095641
F48	F	0.810821	0.108454	-0.418408
H49	H	1.136691	-0.376043	-0.122767
H50	H	1.415029	-0.024872	0.327583
H51	H	1.400155	-0.010271	0.555342
F52	F	1.090289	0.293908	0.417456
F53	F	1.107211	0.277294	0.158279
H54	H	0.594834	0.107448	-0.368103
