data_functionalizedCrystal
_audit_creation_method	'MofGen! by Chris Wilmer'
_symmetry_space_group_name_H-M	'P1'
_symmetry_Int_Tables_number	1
_symmetry_cell_setting	triclinic
loop_
_symmetry_equiv_pos_as_xyz
  x,y,z
_cell_length_a	17.666332
_cell_length_b	19.188930
_cell_length_c	19.188930
_cell_angle_alpha	83.144779
_cell_angle_beta	89.988397
_cell_angle_gamma	89.976766
loop_
_atom_site_label
_atom_site_type_symbol
_atom_site_fract_x
_atom_site_fract_y
_atom_site_fract_z
O1	O	0.063200	-0.926150	-0.087169
O2	O	0.396533	-0.592816	0.246165
O3	O	0.729867	-0.259483	0.579498
O4	O	0.063149	-0.722838	-0.098903
O5	O	0.396483	-0.389505	0.234430
O6	O	0.729816	-0.056172	0.567764
O7	O	0.063161	-0.830361	0.008620
O8	O	0.396495	-0.497028	0.341953
O9	O	0.729828	-0.163694	0.675286
O10	O	0.063188	-0.818627	-0.194692
O11	O	0.396521	-0.485294	0.138642
O12	O	0.729855	-0.151960	0.471975
O13	O	-0.062735	-0.830342	0.008625
O14	O	0.270598	-0.497009	0.341959
O15	O	0.603931	-0.163676	0.675292
O16	O	-0.062747	-0.722820	-0.098897
O17	O	0.270586	-0.389486	0.234436
O18	O	0.603919	-0.056153	0.567769
O19	O	-0.062697	-0.926131	-0.087163
O20	O	0.270637	-0.592797	0.246170
O21	O	0.603970	-0.259464	0.579504
Cu22	Cu	-0.074217	-0.824473	-0.093030
Cu23	Cu	0.259116	-0.491140	0.240304
Cu24	Cu	0.592449	-0.157807	0.573637
Cu25	Cu	0.074670	-0.824496	-0.093036
Cu26	Cu	0.408003	-0.491162	0.240297
Cu27	Cu	0.741337	-0.157829	0.573630
O28	O	-0.062709	-0.818608	-0.194686
O29	O	0.270625	-0.485275	0.138647
O30	O	0.603958	-0.151941	0.471981
C31	C	0.000194	-0.696818	-0.098520
C32	C	0.333528	-0.363485	0.234813
C33	C	0.666861	-0.030151	0.568146
C34	C	0.000174	-0.619313	-0.097380
C35	C	0.333508	-0.285980	0.235954
C36	C	0.666841	0.047353	0.569287
N37	N	-0.178937	-0.824463	-0.093025
N38	N	0.154397	-0.491130	0.240309
N39	N	0.487730	-0.157796	0.573642
C40	C	0.000211	-0.829972	0.034634
C41	C	0.333544	-0.496638	0.367967
C42	C	0.666877	-0.163305	0.701300
C43	C	0.000204	-0.828831	0.112138
C44	C	0.333537	-0.495498	0.445471
C45	C	0.666871	-0.162164	0.778805
C46	C	-0.218541	-0.872089	-0.045437
C47	C	0.114792	-0.538756	0.287897
C48	C	0.448125	-0.205423	0.621230
C49	C	-0.297789	-0.872093	-0.045433
C50	C	0.035545	-0.538760	0.287900
C51	C	0.368878	-0.205427	0.621233
C52	C	-0.337429	-0.824478	-0.093030
C53	C	-0.004096	-0.491144	0.240303
C54	C	0.329238	-0.157811	0.573637
C55	C	-0.297815	-0.776842	-0.140621
C56	C	0.035518	-0.443509	0.192712
C57	C	0.368852	-0.110176	0.526045
C58	C	-0.218569	-0.776835	-0.140619
C59	C	0.114764	-0.443502	0.192715
C60	C	0.448098	-0.110168	0.526048
N61	N	-0.461841	-0.815401	-0.154837
N62	N	-0.128508	-0.482068	0.178496
N63	N	0.204826	-0.148735	0.511829
N64	N	-0.537121	-0.815413	-0.154837
N65	N	-0.203788	-0.482079	0.178496
N66	N	0.129545	-0.148746	0.511829
C67	C	-0.576193	-0.824496	-0.093040
C68	C	-0.242860	-0.491163	0.240294
C69	C	0.090474	-0.157829	0.573627
N70	N	-0.537140	-0.833582	-0.031239
N71	N	-0.203807	-0.500248	0.302094
N72	N	0.129526	-0.166915	0.635427
N73	N	-0.461853	-0.833574	-0.031240
N74	N	-0.128520	-0.500241	0.302094
N75	N	0.204814	-0.166907	0.635427
C76	C	-0.423358	-0.824480	-0.093038
C77	C	-0.090025	-0.491147	0.240296
C78	C	0.243309	-0.157813	0.573629
C79	C	-0.701727	-0.872130	-0.045444
C80	C	-0.368393	-0.538796	0.287889
C81	C	-0.035060	-0.205463	0.621223
C82	C	-0.780976	-0.872129	-0.045440
C83	C	-0.447642	-0.538795	0.287894
C84	C	-0.114309	-0.205462	0.621227
C85	C	-0.781000	-0.776881	-0.140634
C86	C	-0.447667	-0.443548	0.192699
C87	C	-0.114334	-0.110214	0.526033
C88	C	-0.701753	-0.776878	-0.140632
C89	C	-0.368420	-0.443545	0.192701
C90	C	-0.035086	-0.110212	0.526034
C91	C	-0.662121	-0.824506	-0.093038
C92	C	-0.328787	-0.491173	0.240295
C93	C	0.004546	-0.157840	0.573629
N94	N	0.179390	-0.824512	-0.093036
N95	N	0.512723	-0.491178	0.240297
N96	N	0.846056	-0.157845	0.573631
C97	C	0.000260	-0.952151	-0.087546
C98	C	0.333593	-0.618818	0.245787
C99	C	0.666927	-0.285485	0.579121
C100	C	0.000285	-1.029656	-0.088687
C101	C	0.333618	-0.696322	0.244647
C102	C	0.666952	-0.362989	0.577980
C103	C	0.000194	-0.574389	-0.160470
C104	C	0.333528	-0.241056	0.172863
C105	C	0.666861	0.092277	0.506196
C106	C	0.000203	-0.501566	-0.159399
C107	C	0.333536	-0.168232	0.173935
C108	C	0.666869	0.165101	0.507268
C109	C	0.000206	-0.473669	-0.095233
C110	C	0.333539	-0.140336	0.238101
C111	C	0.666872	0.192998	0.571434
C112	C	0.000181	-0.518603	-0.032133
C113	C	0.333515	-0.185270	0.301200
C114	C	0.666848	0.148064	0.634533
C115	C	0.000166	-0.591425	-0.033207
C116	C	0.333499	-0.258092	0.300126
C117	C	0.666832	0.075242	0.633460
N118	N	0.043078	-0.365695	-0.046188
N119	N	0.376411	-0.032362	0.287146
N120	N	0.709745	0.300971	0.620479
N121	N	0.043095	-0.296517	-0.045172
N122	N	0.376428	0.036817	0.288161
N123	N	0.709761	0.370150	0.621495
C124	C	0.000252	-0.254260	-0.091994
C125	C	0.333585	0.079073	0.241339
C126	C	0.666918	0.412406	0.574672
N127	N	-0.042599	-0.283795	-0.139881
N128	N	0.290734	0.049539	0.193452
N129	N	0.624068	0.382872	0.526785
N130	N	-0.042612	-0.352979	-0.140899
N131	N	0.290721	-0.019646	0.192435
N132	N	0.624054	0.313687	0.525768
C133	C	0.000222	-0.394707	-0.094062
C134	C	0.333556	-0.061373	0.239272
C135	C	0.666889	0.271960	0.572605
C136	C	0.000280	-0.130372	-0.153928
C137	C	0.333613	0.202961	0.179406
C138	C	0.666946	0.536295	0.512739
C139	C	0.000283	-0.057547	-0.152853
C140	C	0.333616	0.275786	0.180480
C141	C	0.666950	0.609119	0.513813
C142	C	0.000270	-0.074586	-0.025586
C143	C	0.333603	0.258747	0.307747
C144	C	0.666936	0.592081	0.641080
C145	C	0.000258	-0.147409	-0.026662
C146	C	0.333592	0.185924	0.306671
C147	C	0.666925	0.519257	0.640004
C148	C	0.000267	-0.175298	-0.090835
C149	C	0.333600	0.158036	0.242498
C150	C	0.666934	0.491369	0.575832
C151	C	0.000244	-0.818997	-0.220700
C152	C	0.333577	-0.485664	0.112634
C153	C	0.666910	-0.152331	0.445967
C154	C	0.000255	-0.820138	-0.298204
C155	C	0.333589	-0.486805	0.035129
C156	C	0.666922	-0.153471	0.368462
C157	C	0.000216	-0.891922	0.157062
C158	C	0.333549	-0.558589	0.490395
C159	C	0.666883	-0.225255	0.823729
C160	C	0.000228	-0.890850	0.229886
C161	C	0.333561	-0.557517	0.563219
C162	C	0.666895	-0.224184	0.896552
C163	C	0.000212	-0.826684	0.257782
C164	C	0.333546	-0.493351	0.591116
C165	C	0.666879	-0.160017	0.924449
C166	C	0.000205	-0.763585	0.212849
C167	C	0.333538	-0.430252	0.546182
C168	C	0.666871	-0.096918	0.879515
C169	C	0.000200	-0.764658	0.140026
C170	C	0.333534	-0.431325	0.473360
C171	C	0.666867	-0.097992	0.806693
N172	N	-0.042645	-0.777630	0.365789
N173	N	0.290689	-0.444297	0.699123
N174	N	0.624022	-0.110964	1.032456
N175	N	-0.042642	-0.776615	0.434968
N176	N	0.290691	-0.443282	0.768301
N177	N	0.624024	-0.109948	1.101635
C178	C	0.000227	-0.823446	0.477191
C179	C	0.333560	-0.490113	0.810524
C180	C	0.666894	-0.156779	1.143858
N181	N	0.043084	-0.871341	0.447624
N182	N	0.376418	-0.538008	0.780957
N183	N	0.709751	-0.204675	1.114290
N184	N	0.043079	-0.872359	0.378439
N185	N	0.376412	-0.539026	0.711772
N186	N	0.709745	-0.205692	1.045106
C187	C	0.000218	-0.825513	0.336745
C188	C	0.333551	-0.492180	0.670078
C189	C	0.666884	-0.158846	1.003412
C190	C	0.000253	-0.885379	0.601079
C191	C	0.333586	-0.552046	0.934413
C192	C	0.666920	-0.218712	1.267746
C193	C	0.000270	-0.884305	0.673904
C194	C	0.333603	-0.550971	1.007238
C195	C	0.666936	-0.217638	1.340571
C196	C	0.000239	-0.757038	0.656865
C197	C	0.333572	-0.423704	0.990199
C198	C	0.666905	-0.090371	1.323532
C199	C	0.000230	-0.758114	0.584042
C200	C	0.333563	-0.424781	0.917376
C201	C	0.666896	-0.091447	1.250709
C202	C	0.000233	-0.822287	0.556154
C203	C	0.333567	-0.488953	0.889487
C204	C	0.666900	-0.155620	1.222821
H205	H	-0.186275	-0.910869	-0.006681
H206	H	0.147058	-0.577536	0.326652
H207	H	0.480392	-0.244202	0.659985
H208	H	0.000295	-0.020970	-0.204232
H209	H	0.333628	0.312363	0.129102
H210	H	0.666962	0.645697	0.462435
F211	F	0.000181	-0.488912	0.036157
F212	F	0.333515	-0.155579	0.369490
F213	F	0.666848	0.177754	0.702823
F214	F	0.000241	-0.195223	0.040488
F215	F	0.333574	0.138110	0.373822
F216	F	0.666908	0.471444	0.707155
F217	F	0.000236	-0.960220	0.127385
F218	F	0.333570	-0.626887	0.460719
F219	F	0.666903	-0.293554	0.794052
F220	F	0.000242	-0.958003	0.277706
F221	F	0.333575	-0.624669	0.611039
F222	F	0.666909	-0.291336	0.944373
F223	F	0.000201	-0.604066	-0.228769
F224	F	0.333535	-0.270733	0.104564
F225	F	0.666868	0.062601	0.437898
H226	H	-0.813222	-0.910910	-0.006684
H227	H	-0.479889	-0.577576	0.326649
H228	H	-0.146556	-0.244243	0.659982
H229	H	0.000194	-0.711340	0.235567
H230	H	0.333527	-0.378007	0.568900
H231	H	0.666860	-0.044674	0.902233
F232	F	0.000144	-0.639238	0.033946
F233	F	0.333477	-0.305905	0.367279
F234	F	0.666811	0.027428	0.700613
H235	H	-0.669457	-0.910909	-0.006688
H236	H	-0.336124	-0.577576	0.326645
H237	H	-0.002790	-0.244242	0.659979
H238	H	0.000190	-0.713281	0.103448
H239	H	0.333524	-0.379947	0.436782
H240	H	0.666857	-0.046614	0.770115
H241	H	0.000276	-0.153080	-0.206181
H242	H	0.333609	0.180254	0.127153
H243	H	0.666942	0.513587	0.460486
F244	F	-0.823185	-0.726201	-0.191285
F245	F	-0.489851	-0.392867	0.142048
F246	F	-0.156518	-0.059534	0.475381
H247	H	0.000284	-0.935683	0.710481
H248	H	0.333617	-0.602350	1.043815
H249	H	0.666950	-0.269017	1.377148
F250	F	0.000226	-0.688747	0.686550
F251	F	0.333559	-0.355413	1.019883
F252	F	0.666893	-0.022080	1.353217
H253	H	0.000319	-0.051874	0.026659
H254	H	0.333652	0.281460	0.359992
H255	H	0.666986	0.614793	0.693326
F256	F	0.000214	-0.690963	0.536229
F257	F	0.333547	-0.357630	0.869562
F258	F	0.666880	-0.024296	1.202895
F259	F	-0.339946	-0.922787	0.005219
F260	F	-0.006612	-0.589453	0.338552
F261	F	0.326721	-0.256120	0.671886
F262	F	-0.340003	-0.726164	-0.191275
F263	F	-0.006670	-0.392831	0.142058
F264	F	0.326663	-0.059497	0.475392
H265	H	0.000259	-0.937632	0.578372
H266	H	0.333593	-0.604299	0.911705
H267	H	0.666926	-0.270966	1.245038
F268	F	-0.659600	-0.726191	-0.191285
F269	F	-0.326266	-0.392858	0.142048
F270	F	0.007067	-0.059524	0.475382
F271	F	-0.176417	-0.726143	-0.191271
F272	F	0.156916	-0.392809	0.142063
F273	F	0.490249	-0.059476	0.475396
H274	H	0.000217	-0.464982	-0.210776
H275	H	0.333550	-0.131648	0.122557
H276	H	0.666884	0.201685	0.455890
