data_functionalizedCrystal
_audit_creation_method	'MofGen! by Chris Wilmer'
_symmetry_space_group_name_H-M	'P1'
_symmetry_Int_Tables_number	1
_symmetry_cell_setting	triclinic
loop_
_symmetry_equiv_pos_as_xyz
  x,y,z
_cell_length_a	6.817900
_cell_length_b	9.514088
_cell_length_c	17.458011
_cell_angle_alpha	90.061718
_cell_angle_beta	106.367272
_cell_angle_gamma	118.843545
loop_
_atom_site_label
_atom_site_type_symbol
_atom_site_fract_x
_atom_site_fract_y
_atom_site_fract_z
V1	V	-4.233184	-0.502203	-0.111987
O2	O	-4.200812	-0.491160	0.003924
O3	O	-4.198635	-0.500194	-0.220649
O4	O	-4.267810	-0.720580	-0.110904
O5	O	-4.131158	-0.269249	-0.106581
V6	V	-4.704259	-0.474166	-0.098047
O7	O	-4.521749	-0.563703	-0.142565
O8	O	-4.865892	-0.412666	-0.067469
O9	O	-4.515601	-0.476175	0.010615
O10	O	-4.854028	-0.485209	-0.213957
O11	O	-4.923682	-0.707120	-0.103453
O12	O	-4.446426	-0.255789	-0.099130
C13	C	-4.044320	-0.492640	-0.247118
C14	C	-4.097912	-0.492453	-0.335955
C15	C	-4.419467	-0.492088	-0.836438
C16	C	-4.369110	-0.492284	-0.752968
C17	C	-4.158200	-0.484326	-0.707146
C18	C	-3.997626	-0.476155	-0.744796
C19	C	-4.047976	-0.475947	-0.828264
C20	C	-3.987689	-0.484074	-0.457074
C21	C	-3.937352	-0.484287	-0.373601
C22	C	-4.308839	-0.500414	-0.381778
C23	C	-4.359180	-0.500214	-0.465248
C24	C	-4.198597	-0.492035	-0.502890
N25	N	-4.106725	-0.484532	-0.621826
N26	N	-4.250065	-0.491817	-0.588208
C27	C	-4.132557	-0.773762	-0.107127
C28	C	-4.242242	-0.952295	-0.106960
C29	C	-4.333258	-0.483725	0.037080
C30	C	-4.258908	-0.483922	0.125916
C31	C	-4.245019	-0.202599	-0.102910
C32	C	-4.114571	-0.024063	-0.103072
H33	H	-3.856912	-0.477394	-0.487710
H34	H	-4.435476	-1.027444	-0.110164
C35	C	-3.853556	-0.922568	-0.098755
H36	H	-3.811601	-0.811863	-0.099436
H37	H	-3.831901	-0.961894	-0.143940
H38	H	-3.756124	-0.931304	-0.050213
H39	H	-4.591215	-0.498577	-0.873742
H40	H	-3.765605	-0.477817	-0.336294
H41	H	-4.530922	-0.506696	-0.502551
C42	C	-4.545751	-0.501300	-0.711564
H43	H	-4.678590	-0.506039	-0.750811
H44	H	-4.471210	-0.407537	-0.671594
H45	H	-4.596472	-0.595923	-0.686755
H46	H	-3.825888	-0.469665	-0.707480
C47	C	-4.485446	-0.509389	-0.340368
H48	H	-4.425251	-0.508359	-0.284094
H49	H	-4.632676	-0.606850	-0.363301
H50	H	-4.507332	-0.418460	-0.348150
H51	H	-3.917238	-0.469311	-0.858915
