data_functionalizedCrystal
_audit_creation_method	'MofGen! by Chris Wilmer'
_symmetry_space_group_name_H-M	'P1'
_symmetry_Int_Tables_number	1
_symmetry_cell_setting	triclinic
loop_
_symmetry_equiv_pos_as_xyz
  x,y,z
_cell_length_a	11.026607
_cell_length_b	14.044220
_cell_length_c	9.482900
_cell_angle_alpha	100.188801
_cell_angle_beta	78.636152
_cell_angle_gamma	100.887447
loop_
_atom_site_label
_atom_site_type_symbol
_atom_site_fract_x
_atom_site_fract_y
_atom_site_fract_z
O1	O	1.671574	0.392560	-0.120918
O2	O	1.313283	0.346512	-0.120917
O3	O	1.487049	0.230635	-0.120903
O4	O	1.497809	0.508437	-0.120932
O5	O	1.451766	0.254293	0.120886
O6	O	1.278001	0.370170	0.120872
O7	O	1.636292	0.416218	0.120871
Cu8	Cu	1.453925	0.395354	0.142949
Cu9	Cu	1.495650	0.367376	-0.142995
O10	O	1.462526	0.532095	0.120857
C11	C	1.249512	0.349846	-0.000022
C12	C	1.112056	0.324521	-0.000022
C13	C	1.045821	0.394445	-0.000030
C14	C	0.903753	0.368273	-0.000029
C15	C	1.464699	0.206346	-0.000008
C16	C	1.450655	0.098724	-0.000006
C17	C	1.424983	-0.098320	-0.000027
C18	C	1.524588	-0.138958	-0.000032
C19	C	1.510304	-0.248600	-0.000043
C20	C	1.439266	0.011332	-0.000015
C21	C	1.700064	0.412884	-0.000027
C22	C	1.837521	0.438207	-0.000037
C23	C	1.484876	0.556383	-0.000041
C24	C	1.498922	0.664004	-0.000053
N25	N	1.424586	0.415033	0.344067
N26	N	1.524998	0.347690	-0.344113
C27	C	1.486988	0.373174	0.416271
C28	C	1.462587	0.389556	0.583687
H29	H	0.855294	0.289024	-0.000058
H30	H	1.328988	-0.145870	-0.000030
F31	F	1.331137	0.477724	0.425262
H32	H	1.620606	-0.091415	-0.000129
H33	H	1.558472	0.325203	0.354149
H34	H	1.391089	0.437521	0.645805
H35	H	1.063591	0.245278	-0.000051
F36	F	1.109168	0.498020	-0.000036
F37	F	0.900858	0.541789	-0.000030
F38	F	1.618670	0.285186	0.574701
