data_functionalizedCrystal
_audit_creation_method	'MofGen! by Chris Wilmer'
_symmetry_space_group_name_H-M	'P1'
_symmetry_Int_Tables_number	1
_symmetry_cell_setting	triclinic
loop_
_symmetry_equiv_pos_as_xyz
  x,y,z
_cell_length_a	11.792241
_cell_length_b	11.792254
_cell_length_c	7.681481
_cell_angle_alpha	84.218036
_cell_angle_beta	95.767103
_cell_angle_gamma	84.196007
loop_
_atom_site_label
_atom_site_type_symbol
_atom_site_fract_x
_atom_site_fract_y
_atom_site_fract_z
O1	O	1.496263	0.166234	-0.146261
O2	O	1.996263	0.666234	0.353739
O3	O	1.165920	0.182270	-0.146302
O4	O	1.665920	0.682270	0.353698
O5	O	1.339101	0.009082	-0.146268
O6	O	1.839101	0.509082	0.353732
O7	O	1.323081	0.339423	-0.146295
O8	O	1.823081	0.839423	0.353705
O9	O	1.360417	-0.012283	0.146594
O10	O	1.860417	0.487717	0.646594
O11	O	1.187235	0.160905	0.146560
O12	O	1.687235	0.660905	0.646560
O13	O	1.517578	0.144869	0.146601
O14	O	2.017578	0.644869	0.646601
Zn15	Zn	1.355791	0.149495	0.193079
Zn16	Zn	1.855791	0.649495	0.693079
Zn17	Zn	1.327707	0.177644	-0.192779
Zn18	Zn	1.827707	0.677644	0.307221
O19	O	1.344397	0.318058	0.146567
O20	O	1.844397	0.818058	0.646567
C21	C	1.134286	0.170581	0.000124
C22	C	1.634286	0.670581	0.500124
C23	C	1.008271	0.167568	0.000109
C24	C	1.508271	0.667568	0.500109
C25	C	0.777562	0.162021	0.000160
C26	C	1.277562	0.662021	0.500160
C27	C	0.905946	0.165103	0.000132
C28	C	1.405946	0.665103	0.500132
C29	C	1.348750	-0.043892	0.000163
C30	C	1.848750	0.456108	0.500163
C31	C	1.345730	-0.169904	0.000161
C32	C	1.845730	0.330096	0.500161
C33	C	1.343275	-0.272241	0.000154
C34	C	1.843275	0.227759	0.500154
C35	C	1.340206	-0.400626	0.000137
C36	C	1.840206	0.099374	0.500137
C37	C	1.549212	0.156559	0.000172
C38	C	2.049212	0.656559	0.500172
C39	C	1.675226	0.159573	0.000175
C40	C	2.175226	0.659573	0.500175
C41	C	1.334748	0.371031	0.000133
C42	C	1.834748	0.871031	0.500133
C43	C	1.337767	0.497045	0.000123
C44	C	1.837767	0.997045	0.500123
N45	N	1.374966	0.130283	0.456417
N46	N	1.874966	0.630283	0.956417
N47	N	1.308541	0.196847	-0.456117
N48	N	1.808541	0.696847	0.043883
H49	H	1.240735	0.264790	0.468672
H50	H	1.740735	0.764790	0.968672
H51	H	1.442785	0.062344	0.531636
H52	H	1.942785	0.562344	1.031636
