data_functionalizedCrystal
_audit_creation_method	'MofGen! by Chris Wilmer'
_symmetry_space_group_name_H-M	'P1'
_symmetry_Int_Tables_number	1
_symmetry_cell_setting	triclinic
loop_
_symmetry_equiv_pos_as_xyz
  x,y,z
_cell_length_a	14.971486
_cell_length_b	10.654550
_cell_length_c	13.448316
_cell_angle_alpha	89.994587
_cell_angle_beta	89.998199
_cell_angle_gamma	84.049516
loop_
_atom_site_label
_atom_site_type_symbol
_atom_site_fract_x
_atom_site_fract_y
_atom_site_fract_z
O1	O	1.187838	0.163659	-0.082575
O2	O	1.687838	0.663659	0.417425
O3	O	0.927544	0.183258	-0.082602
O4	O	1.427544	0.683258	0.417398
O5	O	1.063676	-0.009345	-0.082584
O6	O	1.563676	0.490655	0.417416
O7	O	1.051707	0.356262	-0.082593
O8	O	1.551707	0.856262	0.417407
O9	O	1.063659	-0.009357	0.082800
O10	O	1.563659	0.490643	0.582800
O11	O	0.927527	0.183246	0.082782
O12	O	1.427527	0.683246	0.582782
O13	O	1.187821	0.163647	0.082809
O14	O	1.687821	0.663647	0.582809
Cu15	Cu	1.057672	0.173445	0.097896
Cu16	Cu	1.557672	0.673445	0.597896
Cu17	Cu	1.057693	0.173460	-0.097689
Cu18	Cu	1.557693	0.673460	0.402311
O19	O	1.051689	0.356250	0.082791
O20	O	1.551689	0.856250	0.582791
C21	C	0.894206	0.182375	0.000087
C22	C	1.394206	0.682375	0.500087
C23	C	0.794895	0.179749	0.000077
C24	C	1.294895	0.679749	0.500077
C25	C	0.738285	0.292898	0.000075
C26	C	1.238285	0.792898	0.500075
C27	C	0.644972	0.290422	0.000090
C28	C	1.144972	0.790422	0.500090
C29	C	0.608271	0.174797	0.000099
C30	C	1.108271	0.674797	0.500099
C31	C	0.664888	0.061639	0.000104
C32	C	1.164888	0.561639	0.500104
C33	C	0.758199	0.064116	0.000096
C34	C	1.258199	0.564116	0.500096
C35	C	0.470397	0.056485	0.000117
C36	C	0.970397	0.556485	0.500117
C37	C	0.377080	0.054007	0.000123
C38	C	0.877080	0.554007	0.500123
C39	C	0.357171	0.282791	0.000112
C40	C	0.857171	0.782791	0.500112
C41	C	0.450482	0.285268	0.000104
C42	C	0.950482	0.785268	0.500104
C43	C	0.507092	0.172110	0.000106
C44	C	1.007092	0.672110	0.500106
C45	C	1.062788	-0.056139	0.000107
C46	C	1.562788	0.443861	0.500107
C47	C	1.060159	-0.195555	0.000103
C48	C	1.560159	0.304445	0.500103
C49	C	1.140311	-0.275900	0.000114
C50	C	1.640311	0.224100	0.500114
C51	C	1.137835	-0.406894	0.000107
C52	C	1.637835	0.093106	0.500107
C53	C	0.975048	-0.377185	0.000081
C54	C	1.475048	0.122815	0.500081
C55	C	0.977525	-0.246193	0.000082
C56	C	1.477525	0.253807	0.500082
C57	C	1.234295	-0.293054	0.000133
C58	C	1.734295	0.206946	0.500133
C59	C	1.231819	-0.424048	0.000126
C60	C	1.731819	0.075952	0.500126
C61	C	1.221159	0.164530	0.000118
C62	C	1.721159	0.664530	0.500118
C63	C	1.320470	0.167156	0.000122
C64	C	1.820470	0.667156	0.500122
C65	C	1.052577	0.403044	0.000098
C66	C	1.552577	0.903044	0.500098
C67	C	1.055206	0.542460	0.000096
C68	C	1.555206	1.042460	0.500096
N69	N	1.057664	0.173435	0.235461
N70	N	1.557664	0.673435	0.735461
N71	N	1.057708	0.173460	-0.235253
N72	N	1.557708	0.673460	0.264747
C73	C	1.117962	0.088185	0.287509
C74	C	1.617962	0.588185	0.787509
C75	C	1.117968	0.088184	0.391612
C76	C	1.617968	0.588184	0.891612
C77	C	1.057679	0.173440	0.443665
C78	C	1.557679	0.673440	0.943665
C79	C	0.997375	0.258693	0.391610
C80	C	1.497375	0.758693	0.891610
C81	C	0.997365	0.258687	0.287509
C82	C	1.497365	0.758687	0.787509
C83	C	0.997400	0.258702	0.608590
C84	C	1.497400	0.758702	1.108590
C85	C	0.997410	0.258710	0.712698
C86	C	1.497410	0.758710	1.212698
C87	C	1.118002	0.088199	0.712694
C88	C	1.618002	0.588199	1.212694
C89	C	1.117993	0.088193	0.608592
C90	C	1.617993	0.588193	1.108592
C91	C	1.057689	0.173448	0.556544
C92	C	1.557689	0.673448	1.056544
H93	H	0.347201	-0.040145	0.000132
H94	H	0.847201	0.459855	0.500132
H95	H	0.948291	0.328122	0.566216
H96	H	1.448291	0.828122	1.066216
F97	F	0.818447	-0.056313	0.000101
F98	F	1.318447	0.443687	0.500101
F99	F	0.933185	0.349418	0.232116
F100	F	1.433185	0.849418	0.732116
H101	H	1.167067	0.018767	0.433989
H102	H	1.667067	0.518767	0.933989
F103	F	0.887108	-0.431089	0.000056
F104	F	1.387108	0.068911	0.500056
H105	H	0.768160	0.387053	0.000067
H106	H	1.268160	0.887053	0.500067
F107	F	1.282352	-0.255183	-0.090319
F108	F	1.782352	0.244817	0.409681
F109	F	1.273391	-0.246905	0.093479
F110	F	1.773391	0.253095	0.593479
F111	F	1.268953	-0.484105	-0.093203
F112	F	1.768953	0.015895	0.406797
F113	F	1.278092	-0.479140	0.090594
F114	F	1.778092	0.020860	0.590594
F115	F	1.182136	-0.002551	0.232120
F116	F	1.682136	0.497449	0.732120
F117	F	1.182163	-0.002537	0.553193
F118	F	1.682163	0.497463	1.053193
H119	H	0.598884	0.382560	0.000088
H120	H	1.098884	0.882560	0.500088
H121	H	1.167103	0.018781	0.755077
H122	H	1.667103	0.518781	1.255077
H123	H	0.948315	0.328132	0.755075
H124	H	1.448315	0.828132	1.255075
F125	F	0.892216	-0.160687	0.000048
F126	F	1.392216	0.339313	0.500048
F127	F	0.933205	0.349424	0.447009
F128	F	1.433205	0.849424	0.947009
H129	H	0.634998	-0.032505	0.000125
H130	H	1.134998	0.467495	0.500125
F131	F	0.530645	-0.063952	0.000123
F132	F	1.030645	0.436048	0.500123
F133	F	0.489540	0.408329	0.000084
F134	F	0.989540	0.908329	0.500084
F135	F	0.296921	0.403223	0.000111
F136	F	0.796921	0.903223	0.500111
