data_functionalizedCrystal
_audit_creation_method	'MofGen! by Chris Wilmer'
_symmetry_space_group_name_H-M	'P1'
_symmetry_Int_Tables_number	1
_symmetry_cell_setting	triclinic
loop_
_symmetry_equiv_pos_as_xyz
  x,y,z
_cell_length_a	10.685661
_cell_length_b	10.685194
_cell_length_c	18.215399
_cell_angle_alpha	85.603424
_cell_angle_beta	85.617083
_cell_angle_gamma	89.666250
loop_
_atom_site_label
_atom_site_type_symbol
_atom_site_fract_x
_atom_site_fract_y
_atom_site_fract_z
Zn1	Zn	1.879704	-0.646721	-0.471056
Zn2	Zn	2.379704	-0.146721	0.028944
Zn3	Zn	1.863527	-0.856522	-0.337891
Zn4	Zn	2.363527	-0.356522	0.162109
Zn5	Zn	1.669915	-0.630656	-0.339364
Zn6	Zn	2.169915	-0.130656	0.160636
Zn7	Zn	1.653845	-0.840353	-0.452285
Zn8	Zn	2.153845	-0.340353	0.047715
O9	O	1.766748	-0.743563	-0.400149
O10	O	2.266748	-0.243563	0.099851
O11	O	2.053108	-0.688041	-0.460631
O12	O	2.553108	-0.188041	0.039369
O13	O	1.837800	-0.826603	-0.235098
O14	O	2.337800	-0.326603	0.264902
O15	O	1.711239	-0.457226	-0.365306
O16	O	2.211239	0.042774	0.134694
O17	O	2.041223	-0.842181	-0.362795
O18	O	2.541223	-0.342181	0.137205
O19	O	1.865370	-0.469029	-0.462060
O20	O	2.365370	0.030971	0.037940
O21	O	1.695554	-0.660661	-0.236180
O22	O	2.195554	-0.160661	0.263820
O23	O	1.492233	-0.644983	-0.347104
O24	O	1.992233	-0.144983	0.152896
O25	O	1.683850	-0.814624	-0.557763
O26	O	2.183850	-0.314624	-0.057763
O27	O	1.480427	-0.799046	-0.430066
O28	O	1.980427	-0.299046	0.069934
O29	O	1.849788	-0.672363	-0.571555
O30	O	2.349788	-0.172363	-0.071555
O31	O	1.822218	-1.029938	-0.344593
O32	O	2.322218	-0.529938	0.155407
O33	O	1.668165	-1.018059	-0.428638
O34	O	2.168165	-0.518059	0.071362
C35	C	1.440812	-0.718518	-0.386708
C36	C	1.940812	-0.218518	0.113292
C37	C	1.301373	-0.707833	-0.380974
C38	C	1.801373	-0.207833	0.119026
C39	C	1.741726	-1.069522	-0.384436
C40	C	2.241726	-0.569522	0.115564
C41	C	1.731137	-1.208978	-0.377743
C42	C	2.231137	-0.708978	0.122257
C43	C	2.093956	-0.768707	-0.413643
C44	C	2.593956	-0.268707	0.086357
C45	C	2.233393	-0.779422	-0.419393
C46	C	2.733393	-0.279422	0.080607
C47	C	1.766831	-0.743482	-0.592109
C48	C	2.266831	-0.243482	-0.092109
C49	C	1.766866	-0.743448	-0.673911
C50	C	2.266866	-0.243448	-0.173911
C51	C	1.791901	-0.416333	-0.415941
C52	C	2.291901	0.083667	0.084059
C53	C	1.802620	-0.276887	-0.422670
C54	C	2.302620	0.223113	0.077330
C55	C	1.853304	-0.669300	-0.869292
C56	C	2.353304	-0.169300	-0.369292
C57	C	1.853322	-0.669265	-0.946154
C58	C	2.353322	-0.169265	-0.446154
C59	C	1.680532	-0.817409	-0.931781
C60	C	2.180532	-0.317409	-0.431781
C61	C	1.680509	-0.817436	-0.854921
C62	C	2.180509	-0.317436	-0.354921
C63	C	1.766902	-0.743384	-0.823679
C64	C	2.266902	-0.243384	-0.323679
C65	C	1.766943	-0.743321	-0.977400
C66	C	2.266943	-0.243321	-0.477400
C67	C	1.766961	-0.743283	-1.060736
C68	C	2.266961	-0.243283	-0.560736
C69	C	1.766883	-0.743420	-0.740338
C70	C	2.266883	-0.243420	-0.240338
C71	C	1.766744	-0.743558	-0.208943
C72	C	2.266744	-0.243558	0.291057
C73	C	1.766979	-0.743258	-0.127168
C74	C	2.266979	-0.243258	0.372832
H75	H	1.871923	-1.228341	-0.466259
H76	H	2.371923	-0.728341	0.033741
H77	H	1.661819	-1.257531	-0.334158
H78	H	2.161819	-0.757531	0.165842
C79	C	1.948317	-0.587830	-0.834928
C80	C	2.448317	-0.087830	-0.334928
H81	H	1.999768	-0.543693	-0.873105
H82	H	2.499768	-0.043693	-0.373105
H83	H	1.999287	-0.640020	-0.804883
H84	H	2.499287	-0.140020	-0.304883
H85	H	1.904505	-0.529488	-0.805606
H86	H	2.404505	-0.029488	-0.305606
H87	H	1.281868	-0.848878	-0.456676
H88	H	1.781868	-0.348878	0.043324
C89	C	1.585518	-0.898871	-0.966150
C90	C	2.085518	-0.398871	-0.466150
H91	H	1.597913	-0.888255	-1.018458
H92	H	2.097913	-0.388255	-0.518458
H93	H	1.502634	-0.874046	-0.950962
H94	H	2.002634	-0.374046	-0.450962
H95	H	1.597409	-0.984584	-0.950240
H96	H	2.097409	-0.484584	-0.450240
H97	H	1.610141	-0.877763	-0.817781
H98	H	2.110141	-0.377763	-0.317781
H99	H	1.923677	-0.608935	-0.983289
H100	H	2.423677	-0.108935	-0.483289
H101	H	1.252892	-0.638362	-0.343695
H102	H	1.752892	-0.138362	0.156305
