data_functionalizedCrystal
_audit_creation_method	'MofGen! by Chris Wilmer'
_symmetry_space_group_name_H-M	'P1'
_symmetry_Int_Tables_number	1
_symmetry_cell_setting	triclinic
loop_
_symmetry_equiv_pos_as_xyz
  x,y,z
_cell_length_a	12.645330
_cell_length_b	13.897449
_cell_length_c	13.897441
_cell_angle_alpha	89.977141
_cell_angle_beta	90.027301
_cell_angle_gamma	89.982475
loop_
_atom_site_label
_atom_site_type_symbol
_atom_site_fract_x
_atom_site_fract_y
_atom_site_fract_z
Zn1	Zn	-0.422010	-1.474703	0.545458
Zn2	Zn	-0.088677	-1.141369	0.878791
Zn3	Zn	0.244656	-0.808036	1.212125
Zn4	Zn	-0.599306	-1.474597	0.384169
Zn5	Zn	-0.265972	-1.141263	0.717502
Zn6	Zn	0.067361	-0.807930	1.050835
Zn7	Zn	-0.422056	-1.313392	0.384170
Zn8	Zn	-0.088723	-0.980058	0.717504
Zn9	Zn	0.244610	-0.646725	1.050837
Zn10	Zn	-0.599232	-1.313373	0.545415
Zn11	Zn	-0.265898	-0.980040	0.878749
Zn12	Zn	0.067435	-0.646707	1.212082
O13	O	-0.510651	-1.394016	0.464803
O14	O	-0.177318	-1.060683	0.798136
O15	O	0.156016	-0.727349	1.131470
O16	O	-0.445541	-1.609670	0.524080
O17	O	-0.112207	-1.276337	0.857413
O18	O	0.221126	-0.943004	1.190746
O19	O	-0.575843	-1.453176	0.249187
O20	O	-0.242510	-1.119842	0.582520
O21	O	0.090823	-0.786509	0.915854
O22	O	-0.273703	-1.334842	0.405584
O23	O	0.059630	-1.001509	0.738917
O24	O	0.392964	-0.668175	1.072251
O25	O	-0.575799	-1.609592	0.405581
O26	O	-0.242466	-1.276259	0.738914
O27	O	0.090868	-0.942926	1.072248
O28	O	-0.273669	-1.453356	0.524081
O29	O	0.059664	-1.120023	0.857415
O30	O	0.392998	-0.786690	1.190748
O31	O	-0.445619	-1.334739	0.249188
O32	O	-0.112286	-1.001406	0.582522
O33	O	0.221048	-0.668073	0.915855
O34	O	-0.445547	-1.178408	0.405543
O35	O	-0.112214	-0.845074	0.738876
O36	O	0.221120	-0.511741	1.072209
O37	O	-0.575673	-1.334811	0.680403
O38	O	-0.242339	-1.001478	1.013736
O39	O	0.090994	-0.668144	1.347069
O40	O	-0.575717	-1.178394	0.524009
O41	O	-0.242384	-0.845061	0.857342
O42	O	0.090950	-0.511728	1.190675
O43	O	-0.445469	-1.453339	0.680434
O44	O	-0.112135	-1.120005	1.013767
O45	O	0.221198	-0.786672	1.347101
O46	O	-0.747643	-1.453158	0.405540
O47	O	-0.414310	-1.119825	0.738873
O48	O	-0.080976	-0.786491	1.072206
O49	O	-0.747589	-1.334708	0.524007
O50	O	-0.414255	-1.001375	0.857340
O51	O	-0.080922	-0.668041	1.190674
C52	C	-0.786081	-1.393946	0.464790
C53	C	-0.452747	-1.060612	0.798123
C54	C	-0.119414	-0.727279	1.131456
C55	C	-0.903911	-1.394004	0.464816
C56	C	-0.570577	-1.060671	0.798149
C57	C	-0.237244	-0.727337	1.131483
C58	C	-0.510630	-1.143402	0.464772
C59	C	-0.177297	-0.810068	0.798105
C60	C	0.156037	-0.476735	1.131438
C61	C	-0.510646	-1.036188	0.464781
C62	C	-0.177313	-0.702855	0.798115
C63	C	0.156020	-0.369521	1.131448
C64	C	-0.510557	-1.394085	0.716396
C65	C	-0.177224	-1.060751	1.049730
C66	C	0.156109	-0.727418	1.383063
C67	C	-0.510517	-1.394114	0.823610
C68	C	-0.177184	-1.060780	1.156944
C69	C	0.156149	-0.727447	1.490277
C70	C	-1.071485	-1.319794	0.539574
C71	C	-0.738151	-0.986461	0.872907
C72	C	-0.404818	-0.653128	1.206240
C73	C	-0.948925	-1.319415	0.539333
C74	C	-0.615592	-0.986081	0.872667
C75	C	-0.282258	-0.652748	1.206000
C76	C	-0.948509	-1.366485	0.363159
C77	C	-0.615176	-1.033151	0.696493
C78	C	-0.281843	-0.699818	1.029826
C79	C	-1.071108	-1.366032	0.363613
C80	C	-0.737775	-1.032698	0.696947
C81	C	-0.404441	-0.699365	1.030280
C82	C	-1.070999	-1.496187	0.490891
C83	C	-0.737666	-1.162853	0.824224
C84	C	-0.404332	-0.829520	1.157557
C85	C	-0.948392	-1.495561	0.493113
C86	C	-0.615059	-1.162227	0.826447
C87	C	-0.281725	-0.828894	1.159780
C88	C	-0.234146	-1.394113	0.464838
C89	C	0.099188	-1.060780	0.798171
C90	C	0.432521	-0.727446	1.131504
C91	C	-0.116316	-1.394154	0.464852
C92	C	0.217018	-1.060821	0.798186
C93	C	0.550351	-0.727488	1.131519
C94	C	-0.510645	-0.839893	0.464799
C95	C	-0.177311	-0.506559	0.798133
C96	C	0.156022	-0.173226	1.131466
C97	C	-0.510642	-0.949125	0.464787
C98	C	-0.177309	-0.615792	0.798120
C99	C	0.156024	-0.282459	1.131453
C100	C	-0.510666	-0.645609	0.464826
C101	C	-0.177333	-0.312276	0.798159
C102	C	0.156001	0.021058	1.131492
C103	C	-0.510655	-0.752823	0.464812
C104	C	-0.177321	-0.419490	0.798145
C105	C	0.156012	-0.086156	1.131478
C106	C	-0.510668	-1.394003	0.214189
C107	C	-0.177334	-1.060670	0.547522
C108	C	0.155999	-0.727337	0.880855
C109	C	-0.510409	-1.394161	0.106975
C110	C	-0.177076	-1.060828	0.440309
C111	C	0.156258	-0.727495	0.773642
C112	C	-0.510446	-1.394140	1.019905
C113	C	-0.177112	-1.060807	1.353239
C114	C	0.156221	-0.727473	1.686572
C115	C	-0.510488	-1.394122	0.910673
C116	C	-0.177155	-1.060789	1.244006
C117	C	0.156178	-0.727456	1.577340
H118	H	-1.100893	-1.336854	0.615198
H119	H	-0.767560	-1.003521	0.948532
H120	H	-0.434226	-0.670187	1.281865
N121	N	-1.111875	-1.529456	0.587397
N122	N	-0.778541	-1.196123	0.920730
N123	N	-0.445208	-0.862790	1.254064
H124	H	-1.081828	-1.595054	0.602679
H125	H	-0.748495	-1.261720	0.936012
H126	H	-0.415162	-0.928387	1.269346
H127	H	-1.191598	-1.533280	0.585298
H128	H	-0.858265	-1.199946	0.918631
H129	H	-0.524932	-0.866613	1.251964
H130	H	-1.102386	-1.244625	0.522543
H131	H	-0.769053	-0.911292	0.855877
H132	H	-0.435719	-0.577958	1.189210
H133	H	-0.918768	-1.336632	0.614711
H134	H	-0.585434	-1.003299	0.948044
H135	H	-0.252101	-0.669966	1.281377
N136	N	-0.910188	-1.219223	0.516476
N137	N	-0.576855	-0.885890	0.849809
N138	N	-0.243521	-0.552557	1.183143
H139	H	-0.972754	-1.175134	0.506512
H140	H	-0.639421	-0.841800	0.839845
H141	H	-0.306087	-0.508467	1.173179
H142	H	-0.866025	-1.220942	0.455969
H143	H	-0.532691	-0.887609	0.789302
H144	H	-0.199358	-0.554276	1.122635
H145	H	-1.099800	-1.291445	0.341556
H146	H	-0.766467	-0.958112	0.674889
H147	H	-0.433133	-0.624779	1.008222
N148	N	-1.110407	-1.434652	0.287354
N149	N	-0.777074	-1.101319	0.620687
N150	N	-0.443741	-0.767986	0.954021
H151	H	-1.048088	-1.465059	0.253589
H152	H	-0.714754	-1.131725	0.586922
H153	H	-0.381421	-0.798392	0.920256
H154	H	-1.154763	-1.398265	0.239058
H155	H	-0.821430	-1.064932	0.572391
H156	H	-0.488097	-0.731599	0.905725
N157	N	-0.909898	-1.435945	0.287391
N158	N	-0.576564	-1.102612	0.620725
N159	N	-0.243231	-0.769279	0.954058
H160	H	-0.863010	-1.486040	0.318308
H161	H	-0.529677	-1.152706	0.651642
H162	H	-0.196343	-0.819373	0.984975
H163	H	-0.868411	-1.399681	0.236993
H164	H	-0.535077	-1.066348	0.570327
H165	H	-0.201744	-0.733014	0.903660
N166	N	-0.907967	-1.268719	0.333403
N167	N	-0.574634	-0.935386	0.666736
N168	N	-0.241301	-0.602053	1.000070
H169	H	-0.860723	-1.242115	0.385617
H170	H	-0.527390	-0.908782	0.718950
H171	H	-0.194057	-0.575448	1.052283
H172	H	-0.969710	-1.223792	0.322960
H173	H	-0.636377	-0.890458	0.656293
H174	H	-0.303044	-0.557125	0.989627
H175	H	-0.917744	-1.553880	0.442654
H176	H	-0.584411	-1.220547	0.775987
H177	H	-0.251078	-0.887213	1.109321
N178	N	-0.909778	-1.523061	0.592211
N179	N	-0.576445	-1.189728	0.925544
N180	N	-0.243112	-0.856395	1.258877
H181	H	-0.863661	-1.469965	0.618671
H182	H	-0.530328	-1.136631	0.952005
H183	H	-0.196995	-0.803298	1.285338
H184	H	-0.867485	-1.584577	0.588065
H185	H	-0.534152	-1.251244	0.921398
H186	H	-0.200819	-0.917911	1.254732
N187	N	-1.109393	-1.569575	0.418806
N188	N	-0.776059	-1.236242	0.752140
N189	N	-0.442726	-0.902909	1.085473
H190	H	-1.155912	-1.536944	0.369518
H191	H	-0.822579	-1.203611	0.702852
H192	H	-0.489245	-0.870277	1.036185
H193	H	-1.151215	-1.621044	0.453203
H194	H	-0.817882	-1.287710	0.786536
H195	H	-0.484548	-0.954377	1.119869
