data_functionalizedCrystal
_audit_creation_method	'MofGen! by Chris Wilmer'
_symmetry_space_group_name_H-M	'P1'
_symmetry_Int_Tables_number	1
_symmetry_cell_setting	triclinic
loop_
_symmetry_equiv_pos_as_xyz
  x,y,z
_cell_length_a	25.639243
_cell_length_b	25.639240
_cell_length_c	25.639234
_cell_angle_alpha	90.032088
_cell_angle_beta	90.023148
_cell_angle_gamma	90.035481
loop_
_atom_site_label
_atom_site_type_symbol
_atom_site_fract_x
_atom_site_fract_y
_atom_site_fract_z
Zn1	Zn	0.799284	-0.208145	0.295630
Zn2	Zn	0.799205	-0.295573	0.208183
Zn3	Zn	0.711849	-0.208157	0.208203
Zn4	Zn	0.711814	-0.295555	0.295582
O5	O	0.755538	-0.251857	0.251900
O6	O	0.872438	-0.219744	0.284041
O7	O	0.787599	-0.283990	0.135020
O8	O	0.723495	-0.134990	0.219829
O9	O	0.872381	-0.283977	0.219794
O10	O	0.787733	-0.134981	0.284061
O11	O	0.723419	-0.219766	0.135035
O12	O	0.638679	-0.219749	0.219783
O13	O	0.723435	-0.283947	0.368754
O14	O	0.638654	-0.283959	0.283980
O15	O	0.787699	-0.219727	0.368789
O16	O	0.787565	-0.368736	0.219749
O17	O	0.723359	-0.368723	0.283960
C18	C	0.619695	-0.251854	0.251879
C19	C	0.561581	-0.251865	0.251882
C20	C	0.201243	-0.218464	0.285409
C21	C	0.146638	-0.218463	0.285412
O22	O	0.118423	-0.190055	0.313891
N23	N	0.119299	-0.251856	0.251914
C24	C	0.146567	-0.285247	0.218407
O25	O	0.118298	-0.313650	0.189914
C26	C	0.201170	-0.285245	0.218401
C27	C	0.228507	-0.251854	0.251905
C28	C	0.228580	-0.185075	0.318909
C29	C	0.283180	-0.185076	0.318907
C30	C	0.310444	-0.218466	0.285403
C31	C	0.283107	-0.251855	0.251903
C32	C	0.228437	-0.318633	0.184892
C33	C	0.283044	-0.318627	0.184889
C34	C	0.310380	-0.285236	0.218393
C35	C	0.364971	-0.285246	0.218396
N36	N	0.392311	-0.251854	0.251894
C37	C	0.365047	-0.218464	0.285398
C38	C	0.031896	-0.285250	0.218420
C39	C	-0.022706	-0.285255	0.218428
C40	C	-0.022631	-0.218470	0.285432
C41	C	0.031973	-0.218468	0.285427
C42	C	0.059235	-0.251857	0.251918
C43	C	0.479712	-0.218469	0.285390
C44	C	0.534318	-0.218475	0.285386
C45	C	0.534237	-0.285258	0.218380
C46	C	0.479637	-0.285254	0.218386
C47	C	0.452375	-0.251856	0.251892
O48	O	0.393222	-0.313639	0.189930
O49	O	0.393322	-0.190061	0.313881
C50	C	0.755464	-0.387700	0.251859
C51	C	0.755480	-0.445814	0.251859
C52	C	0.789003	-0.806134	0.285405
C53	C	0.789019	-0.860738	0.285416
O54	O	0.817433	-0.888938	0.313897
N55	N	0.755611	-0.888096	0.251950
C56	C	0.722181	-0.860848	0.218475
O57	O	0.693766	-0.889132	0.190011
C58	C	0.722163	-0.806244	0.218468
C59	C	0.755578	-0.778889	0.251932
C60	C	0.822414	-0.778778	0.318868
C61	C	0.822399	-0.724178	0.318856
C62	C	0.788974	-0.696933	0.285383
C63	C	0.755563	-0.724288	0.251920
C64	C	0.688732	-0.778997	0.184996
C65	C	0.688717	-0.724390	0.184991
C66	C	0.722131	-0.697034	0.218455
C67	C	0.722122	-0.642443	0.218435
N68	N	0.755530	-0.615084	0.251901
C69	C	0.788956	-0.642329	0.285375
C70	C	0.722220	-0.975518	0.218494
C71	C	0.722240	-1.030121	0.218499
C72	C	0.789077	-1.030007	0.285441
C73	C	0.789059	-0.975404	0.285433
C74	C	0.755628	-0.948160	0.251960
C75	C	0.788922	-0.527664	0.285348
C76	C	0.788906	-0.473059	0.285332
C77	C	0.722067	-0.473177	0.218393
C78	C	0.722085	-0.527778	0.218406
C79	C	0.755515	-0.555020	0.251888
O80	O	0.693720	-0.614208	0.189971
O81	O	0.817361	-0.614038	0.313839
C82	C	0.891911	-0.251861	0.251921
C83	C	0.950025	-0.251863	0.251930
C84	C	0.755572	-0.251834	0.388273
C85	C	0.755587	-0.251823	0.446387
C86	C	0.755626	-0.115484	0.251952
C87	C	0.755664	-0.057370	0.251975
C88	C	0.755534	-0.251843	0.116057
C89	C	0.755621	-0.251706	0.057943
C90	C	0.722183	-0.218320	0.806763
C91	C	0.722185	-0.218310	0.861367
O92	O	0.693758	-0.189882	0.889615
N93	N	0.755604	-0.251741	0.888669
C94	C	0.789018	-0.285188	0.861364
O95	O	0.817443	-0.313623	0.889601
C96	C	0.789012	-0.285200	0.806761
C97	C	0.755595	-0.251763	0.779462
C98	C	0.688768	-0.184886	0.779464
C99	C	0.688766	-0.184895	0.724863
C100	C	0.722179	-0.218338	0.697562
C101	C	0.755593	-0.251772	0.724861
C102	C	0.822423	-0.318648	0.779457
C103	C	0.822414	-0.318657	0.724849
C104	C	0.788997	-0.285220	0.697550
C105	C	0.789004	-0.285223	0.642959
N106	N	0.755585	-0.251792	0.615657
C107	C	0.722173	-0.218349	0.642959
C108	C	0.789027	-0.285161	0.976035
C109	C	0.789036	-0.285147	1.030637
C110	C	0.722202	-0.218270	1.030637
C111	C	0.722197	-0.218282	0.976033
C112	C	0.755609	-0.251730	0.948733
C113	C	0.722171	-0.218370	0.528294
C114	C	0.722174	-0.218381	0.473688
C115	C	0.789005	-0.285259	0.473693
C116	C	0.789005	-0.285247	0.528294
C117	C	0.755584	-0.251801	0.555593
O118	O	0.817415	-0.313639	0.614676
O119	O	0.693748	-0.189924	0.614716
H120	H	0.457378	-0.312450	0.191110
H121	H	0.661557	-0.157653	0.801687
C122	C	0.685299	-0.443197	0.181576
N123	N	0.657601	-0.420615	0.153848
C124	C	0.651969	-0.809076	0.148185
N125	N	0.624276	-0.831730	0.120458
C126	C	0.198378	-0.355360	0.148028
N127	N	0.175739	-0.383021	0.120256
H128	H	0.849606	-0.701908	0.346107
H129	H	-0.044839	-0.191281	0.312711
H130	H	0.694962	-0.191150	0.451464
C131	C	0.651939	-0.694425	0.148167
N132	N	0.624240	-0.671856	0.120429
H133	H	0.849633	-0.800955	0.346129
H134	H	0.694881	-0.550052	0.191153
C135	C	0.685410	-0.181574	0.558314
N136	N	0.657724	-0.153857	0.580925
C137	C	0.825768	-0.322026	0.558324
N138	N	0.853455	-0.349733	0.580939
H139	H	0.816268	-0.953134	0.312683
H140	H	0.849635	-0.345877	0.801674
C141	C	0.313029	-0.355361	0.148028
N142	N	0.335613	-0.383030	0.120265
C143	C	0.564385	-0.181738	0.322242
N144	N	0.587029	-0.154067	0.349999
H145	H	0.661552	-0.157669	0.702641
H146	H	0.054227	-0.191277	0.312708
H147	H	0.694986	-0.191054	0.953810
C148	C	0.685444	-0.181486	1.060679
N149	N	0.657758	-0.153783	1.083308
C150	C	0.825801	-0.321927	1.060660
N151	N	0.853492	-0.349633	1.083271
C152	C	0.825799	-0.321946	0.946009
N153	N	0.853498	-0.349649	0.923397
C154	C	-0.052771	-0.321991	0.181574
N155	N	-0.075413	-0.349658	0.153811
H156	H	0.206387	-0.157882	0.346192
H157	H	0.849626	-0.345892	0.702624
C158	C	0.825756	-0.322046	0.443651
N159	N	0.853433	-0.349758	0.421022
H160	H	0.054090	-0.312444	0.191135
H161	H	0.457523	-0.191272	0.312673
H162	H	0.694998	-0.953339	0.191232
C163	C	0.564238	-0.321981	0.181524
N164	N	0.586836	-0.349637	0.153759
C165	C	0.313243	-0.148336	0.355757
N166	N	0.335884	-0.120659	0.383511
H167	H	0.816118	-0.450788	0.312583
C168	C	0.825700	-0.557623	0.322176
N169	N	0.853404	-0.580187	0.349913
H170	H	0.816293	-1.052200	0.312698
C171	C	0.685486	-1.060206	0.181681
N172	N	0.657799	-1.082864	0.153951
