data_functionalizedCrystal
_audit_creation_method	'MofGen! by Chris Wilmer'
_symmetry_space_group_name_H-M	'P1'
_symmetry_Int_Tables_number	1
_symmetry_cell_setting	triclinic
loop_
_symmetry_equiv_pos_as_xyz
  x,y,z
_cell_length_a	10.654550
_cell_length_b	9.130313
_cell_length_c	10.654550
_cell_angle_alpha	89.998874
_cell_angle_beta	95.515069
_cell_angle_gamma	89.997013
loop_
_atom_site_label
_atom_site_type_symbol
_atom_site_fract_x
_atom_site_fract_y
_atom_site_fract_z
O1	O	1.667834	0.121690	-0.176393
O2	O	1.302356	0.121716	-0.193199
O3	O	1.493498	0.121693	-0.002057
O4	O	1.476692	0.121713	-0.367536
O5	O	1.493495	-0.121906	-0.002062
O6	O	1.302353	-0.121882	-0.193205
O7	O	1.667832	-0.121909	-0.176399
Cu8	Cu	1.485092	-0.144138	-0.184802
Cu9	Cu	1.485095	0.143946	-0.184796
O10	O	1.476689	-0.121886	-0.367541
C11	C	1.255556	-0.000080	-0.191968
C12	C	1.116113	-0.000070	-0.188276
N13	N	1.485099	-0.346761	-0.184806
C14	C	1.036628	-0.000068	-0.300818
C15	C	0.905607	-0.000093	-0.297341
C16	C	0.933570	-0.000117	-0.068772
C17	C	1.064588	-0.000101	-0.072250
C18	C	1.569759	-0.423423	-0.100197
C19	C	1.569756	-0.576760	-0.100182
C20	C	1.400429	-0.576759	-0.269395
C21	C	1.400427	-0.423425	-0.269403
C22	C	1.654431	-0.346759	-0.015599
C23	C	1.739099	-0.423422	0.069016
C24	C	1.739095	-0.576759	0.069031
C25	C	1.654424	-0.653433	-0.015569
C26	C	1.714631	-0.000110	-0.177630
C27	C	1.854074	-0.000110	-0.181322
C28	C	1.492263	-0.000105	0.044738
C29	C	1.488571	-0.000103	0.184181
N30	N	1.485098	0.346568	-0.184783
C31	C	1.477925	-0.000084	-0.414336
C32	C	1.481617	-0.000077	-0.553779
C33	C	1.601112	-0.000111	0.263667
C34	C	1.597636	-0.000092	0.394688
C35	C	1.369066	-0.000065	0.366725
C36	C	1.372544	-0.000073	0.235706
H37	H	1.078574	-0.000053	-0.395294
H38	H	1.274601	-0.000043	0.408693
H39	H	1.331488	-0.361006	-0.338298
F40	F	0.821017	-0.000094	-0.417124
F41	F	0.878722	-0.000144	0.054705
F42	F	1.717418	-0.000098	0.479278
F43	F	1.149188	-0.000113	0.047539
F44	F	1.829197	-0.341819	0.159057
H45	H	1.654420	-0.778290	-0.015541
F46	F	1.654445	-0.183566	-0.015613
F47	F	1.252755	-0.000054	0.151106
F48	F	1.829194	-0.658346	0.159092
H49	H	1.331494	-0.639197	-0.338274
H50	H	1.695588	-0.000132	0.221720
