data_functionalizedCrystal
_audit_creation_method	'MofGen! by Chris Wilmer'
_symmetry_space_group_name_H-M	'P1'
_symmetry_Int_Tables_number	1
_symmetry_cell_setting	triclinic
loop_
_symmetry_equiv_pos_as_xyz
  x,y,z
_cell_length_a	18.101398
_cell_length_b	18.101390
_cell_length_c	12.759399
_cell_angle_alpha	89.970129
_cell_angle_beta	90.010383
_cell_angle_gamma	89.975319
loop_
_atom_site_label
_atom_site_type_symbol
_atom_site_fract_x
_atom_site_fract_y
_atom_site_fract_z
Zn1	Zn	1.132206	-0.418854	-0.418359
Zn2	Zn	1.632206	0.081146	0.081641
Zn3	Zn	1.132136	-0.295019	-0.594071
Zn4	Zn	1.632136	0.204981	-0.094071
Zn5	Zn	1.008364	-0.295016	-0.418392
Zn6	Zn	1.508364	0.204984	0.081608
Zn7	Zn	1.008350	-0.418808	-0.593982
Zn8	Zn	1.508350	0.081192	-0.093982
O9	O	1.070264	-0.356924	-0.506201
O10	O	1.570264	0.143076	-0.006201
O11	O	1.235829	-0.402449	-0.441691
O12	O	1.735829	0.097551	0.058309
O13	O	1.115693	-0.191386	-0.570818
O14	O	1.615693	0.308614	-0.070818
O15	O	1.024827	-0.311461	-0.271367
O16	O	1.524827	0.188539	0.228633
O17	O	1.235778	-0.311468	-0.570786
O18	O	1.735778	0.188532	-0.070786
O19	O	1.115813	-0.402445	-0.271342
O20	O	1.615813	0.097555	0.228658
O21	O	1.024759	-0.191383	-0.441748
O22	O	1.524759	0.308617	0.058252
O23	O	0.904729	-0.311416	-0.441661
O24	O	1.404729	0.188584	0.058339
O25	O	1.024803	-0.522447	-0.570634
O26	O	1.524803	-0.022447	-0.070634
O27	O	0.904719	-0.402366	-0.570666
O28	O	1.404719	0.097634	-0.070666
O29	O	1.115800	-0.522481	-0.441604
O30	O	1.615800	-0.022481	0.058396
O31	O	1.115680	-0.311423	-0.741080
O32	O	1.615680	0.188577	-0.241080
O33	O	1.024735	-0.402369	-0.741015
O34	O	1.524735	0.097631	-0.241015
C35	C	0.877853	-0.356886	-0.506158
C36	C	1.377853	0.143114	-0.006158
C37	C	0.795539	-0.356887	-0.506165
C38	C	1.295539	0.143113	-0.006165
C39	C	0.496448	-0.356949	-0.506231
C40	C	0.996448	0.143051	-0.006231
C41	C	0.527755	-0.300005	-0.424659
C42	C	1.027755	0.199995	0.075341
C43	C	0.613373	-0.299762	-0.424878
C44	C	1.113373	0.200238	0.075122
C45	C	0.644831	-0.356918	-0.506198
C46	C	1.144831	0.143082	-0.006198
C47	C	0.613734	-0.335598	-0.616873
C48	C	1.113734	0.164402	-0.116873
C49	C	0.528089	-0.335202	-0.616420
C50	C	1.028089	0.164798	-0.116420
C51	C	0.528058	-0.435347	-0.478090
C52	C	1.028058	0.064653	0.021910
C53	C	0.613708	-0.434919	-0.475625
C54	C	1.113708	0.065081	0.024375
C55	C	0.728690	-0.356902	-0.506185
C56	C	1.228690	0.143098	-0.006185
C57	C	0.412589	-0.356963	-0.506251
C58	C	0.912589	0.143037	-0.006251
C59	C	1.070308	-0.550086	-0.506105
C60	C	1.570308	-0.050086	-0.006105
C61	C	1.070327	-0.632401	-0.506064
C62	C	1.570327	-0.132401	-0.006064
C63	C	1.070367	-0.931492	-0.505999
C64	C	1.570367	-0.431492	-0.005999
C65	C	1.127808	-0.900188	-0.425103
C66	C	1.627808	-0.400188	0.074897
C67	C	1.127628	-0.814570	-0.424802
C68	C	1.627628	-0.314570	0.075198
C69	C	1.070347	-0.783109	-0.506031
C70	C	1.570347	-0.283109	-0.006031
C71	C	0.992325	-0.814174	-0.475942
C72	C	1.492325	-0.314174	0.024058
C73	C	0.992669	-0.899820	-0.475335
C74	C	1.492669	-0.399820	0.024665
C75	C	1.090261	-0.899910	-0.617192
C76	C	1.590261	-0.399910	-0.117192
C77	C	1.091973	-0.814260	-0.616626
C78	C	1.591973	-0.314260	-0.116626
C79	C	1.070332	-0.699250	-0.506051
C80	C	1.570332	-0.199250	-0.006051
C81	C	1.070377	-1.015351	-0.505976
C82	C	1.570377	-0.515351	-0.005976
C83	C	1.263426	-0.356964	-0.506245
C84	C	1.763426	0.143036	-0.006245
C85	C	1.345740	-0.356980	-0.506263
C86	C	1.845740	0.143020	-0.006263
C87	C	1.070219	-0.356908	-0.779168
C88	C	1.570219	0.143092	-0.279168
C89	C	1.070267	-0.356925	-0.895945
C90	C	1.570267	0.143075	-0.395945
C91	C	1.070263	-0.164514	-0.506221
C92	C	1.570263	0.335486	-0.006221
C93	C	1.070387	-0.082200	-0.505966
C94	C	1.570387	0.417800	-0.005966
C95	C	1.117676	-0.309623	-0.950806
C96	C	1.617676	0.190377	-0.450806
C97	C	1.117723	-0.309648	-1.060530
C98	C	1.617723	0.190352	-0.560530
C99	C	1.022947	-0.404279	-1.060522
C100	C	1.522947	0.095721	-0.560522
C101	C	1.022903	-0.404257	-0.950800
C102	C	1.522903	0.095743	-0.450800
C103	C	1.070330	-0.356958	-0.232168
C104	C	1.570330	0.143042	0.267832
C105	C	1.070358	-0.356972	-0.115391
C106	C	1.570358	0.143028	0.384609
H107	H	0.633830	-0.241670	-0.443482
H108	H	1.133830	0.258330	0.056518
H109	H	0.634036	-0.450996	-0.394181
H110	H	1.134036	0.049004	0.105819
H111	H	1.149391	-0.793956	-0.639315
H112	H	1.649391	-0.293956	-0.139315
H113	H	0.507169	-0.313221	-0.342338
H114	H	1.007169	0.186779	0.157662
H115	H	0.975806	-0.919806	-0.394053
H116	H	1.475806	-0.419806	0.105947
Cl117	Cl	1.177328	-0.250181	-1.129494
Cl118	Cl	1.677328	0.249819	-0.629494
Cl119	Cl	0.497196	-0.246715	-0.653259
Cl120	Cl	0.997196	0.253285	-0.153259
Cl121	Cl	0.646766	-0.503937	-0.560674
Cl122	Cl	1.146766	-0.003937	-0.060674
Cl123	Cl	1.216955	-0.782140	-0.453878
Cl124	Cl	1.716955	-0.282140	0.046122
Cl125	Cl	0.496801	-0.500854	-0.569817
Cl126	Cl	0.996801	-0.000854	-0.069817
H127	H	1.156243	-0.271083	-0.906146
H128	H	1.656243	0.228917	-0.406146
H129	H	0.984384	-0.442814	-1.105199
H130	H	1.484384	0.057186	-0.605199
Cl131	Cl	1.217426	-0.932009	-0.453828
Cl132	Cl	1.717426	-0.432009	0.046172
H133	H	0.984297	-0.442780	-0.906129
H134	H	1.484297	0.057220	-0.406129
H135	H	0.634111	-0.375775	-0.679279
H136	H	1.134111	0.124225	-0.179279
Cl137	Cl	0.494476	-0.210838	-0.453036
Cl138	Cl	0.994476	0.289162	0.046964
Cl139	Cl	0.645837	-0.320392	-0.298167
Cl140	Cl	1.145837	0.179608	0.201833
Cl141	Cl	0.496112	-0.396438	-0.713437
Cl142	Cl	0.996112	0.103562	-0.213437
H143	H	0.635154	-0.278904	-0.641151
H144	H	1.135154	0.221096	-0.141151
Cl145	Cl	1.107735	-0.933432	-0.298630
Cl146	Cl	1.607735	-0.433432	0.201370
H147	H	1.048428	-0.920158	-0.677469
H148	H	1.548428	-0.420158	-0.177469
Cl149	Cl	0.494733	-0.465275	-0.355653
Cl150	Cl	0.994733	0.034725	0.144347
H151	H	1.114458	-0.794093	-0.342428
H152	H	1.614458	-0.294093	0.157572
Cl153	Cl	0.924334	-0.931792	-0.562327
Cl154	Cl	1.424334	-0.431792	-0.062327
H155	H	0.948364	-0.793794	-0.533048
H156	H	1.448364	-0.293794	-0.033048
H157	H	0.975155	-0.792732	-0.395563
H158	H	1.475155	-0.292732	0.104437
Cl159	Cl	1.176598	-0.933275	-0.659445
Cl160	Cl	1.676598	-0.433275	-0.159445
Cl161	Cl	1.032074	-0.781201	-0.714688
Cl162	Cl	1.532074	-0.281201	-0.214688
