data_functionalizedCrystal
_audit_creation_method	'MofGen! by Chris Wilmer'
_symmetry_space_group_name_H-M	'P1'
_symmetry_Int_Tables_number	1
_symmetry_cell_setting	triclinic
loop_
_symmetry_equiv_pos_as_xyz
  x,y,z
_cell_length_a	16.625546
_cell_length_b	19.077300
_cell_length_c	19.076919
_cell_angle_alpha	85.332737
_cell_angle_beta	92.269917
_cell_angle_gamma	92.272239
loop_
_atom_site_label
_atom_site_type_symbol
_atom_site_fract_x
_atom_site_fract_y
_atom_site_fract_z
Zn1	Zn	-0.386172	-1.061661	-0.355292
Zn2	Zn	0.113828	-0.561661	0.144708
Zn3	Zn	-0.515798	-1.066320	-0.237408
Zn4	Zn	-0.015798	-0.566320	0.262592
Zn5	Zn	-0.375787	-0.948519	-0.242156
Zn6	Zn	0.124213	-0.448519	0.257844
Zn7	Zn	-0.515763	-0.943752	-0.359987
Zn8	Zn	-0.015763	-0.443752	0.140013
O9	O	-0.448380	-1.005063	-0.298711
O10	O	0.051620	-0.505063	0.201289
O11	O	-0.407728	-1.160925	-0.335702
O12	O	0.092272	-0.660925	0.164298
O13	O	-0.492894	-1.054638	-0.139390
O14	O	0.007106	-0.554638	0.360610
O15	O	-0.264335	-0.963573	-0.257186
O16	O	0.235665	-0.463573	0.242814
O17	O	-0.502964	-1.164348	-0.249093
O18	O	-0.002964	-0.664348	0.250907
O19	O	-0.271965	-1.046698	-0.340306
O20	O	0.228035	-0.546698	0.159694
O21	O	-0.390028	-0.968090	-0.142879
O22	O	0.109972	-0.468090	0.357121
O23	O	-0.389994	-0.849241	-0.261739
O24	O	0.110006	-0.349241	0.238261
O25	O	-0.502904	-0.955448	-0.458011
O26	O	-0.002904	-0.455448	0.041989
O27	O	-0.492833	-0.845738	-0.348309
O28	O	0.007167	-0.345738	0.151691
O29	O	-0.407694	-1.042076	-0.454562
O30	O	0.092306	-0.542076	0.045438
O31	O	-0.628623	-1.050016	-0.253646
O32	O	-0.128623	-0.550016	0.246354
O33	O	-0.628597	-0.959966	-0.343704
O34	O	-0.128597	-0.459966	0.156296
C35	C	-0.440283	-0.821912	-0.306049
C36	C	0.059717	-0.321912	0.193951
C37	C	-0.436840	-0.743558	-0.309205
C38	C	0.063160	-0.243558	0.190795
C39	C	-0.412080	-0.302318	-0.331852
C40	C	0.087920	0.197682	0.168148
C41	C	-0.415330	-0.375939	-0.328882
C42	C	0.084670	0.124061	0.171118
C43	C	-0.466452	-0.414526	-0.282232
C44	C	0.033548	0.085474	0.217768
C45	C	-0.514332	-0.379487	-0.238553
C46	C	-0.014332	0.120513	0.261447
C47	C	-0.511085	-0.305867	-0.241527
C48	C	-0.011085	0.194133	0.258473
C49	C	-0.481473	-0.634899	-0.268500
C50	C	0.018527	-0.134899	0.231500
C51	C	-0.484715	-0.708524	-0.265528
C52	C	0.015285	-0.208524	0.234472
C53	C	-0.385714	-0.704971	-0.355858
C54	C	0.114286	-0.204971	0.144142
C55	C	-0.382468	-0.631349	-0.358825
C56	C	0.117532	-0.131349	0.141175
C57	C	-0.430351	-0.596317	-0.315149
C58	C	0.069649	-0.096317	0.184851
N59	N	-0.469773	-0.489780	-0.279194
N60	N	0.030227	0.010220	0.220806
N61	N	-0.427033	-0.521065	-0.318191
N62	N	0.072967	-0.021065	0.181809
C63	C	-0.657867	-1.004998	-0.298684
C64	C	-0.157867	-0.504998	0.201316
C65	C	-0.747490	-1.005033	-0.298693
C66	C	-0.247490	-0.505033	0.201307
C67	C	-1.075674	-1.005153	-0.298762
C68	C	-0.575674	-0.505153	0.201238
C69	C	-0.984363	-1.005117	-0.298745
C70	C	-0.484363	-0.505117	0.201255
C71	C	-0.911585	-1.005093	-0.298727
C72	C	-0.411585	-0.505093	0.201273
C73	C	-0.820268	-1.005058	-0.298711
C74	C	-0.320268	-0.505058	0.201289
C75	C	-0.238077	-1.005147	-0.298752
C76	C	0.261923	-0.505147	0.201248
C77	C	-0.148458	-1.005183	-0.298770
C78	C	0.351542	-0.505183	0.201230
C79	C	-0.456453	-0.997711	-0.482580
C80	C	0.043547	-0.497711	0.017420
C81	C	-0.459894	-0.994577	-0.560934
C82	C	0.040106	-0.494577	-0.060934
C83	C	-0.456504	-0.188930	-0.291337
C84	C	0.043496	0.311070	0.208663
C85	C	-0.459955	-0.267284	-0.288175
C86	C	0.040045	0.232716	0.211825
C87	C	-0.411942	-1.038205	-0.595951
C88	C	0.088058	-0.538205	-0.095951
C89	C	-0.415171	-1.035253	-0.669573
C90	C	0.084829	-0.535253	-0.169573
C91	C	-0.466357	-0.988675	-0.708178
C92	C	0.033643	-0.488675	-0.208178
C93	C	-0.514311	-0.945042	-0.673156
C94	C	-0.014311	-0.445042	-0.173156
C95	C	-0.511077	-0.947992	-0.599536
C96	C	-0.011077	-0.447992	-0.099536
C97	C	-0.481340	-0.975014	-0.928554
C98	C	0.018660	-0.475014	-0.428554
C99	C	-0.484572	-0.972069	-1.002179
C100	C	0.015428	-0.472069	-0.502179
C101	C	-0.385431	-1.062279	-0.998591
C102	C	0.114569	-0.562279	-0.498591
C103	C	-0.382205	-1.065228	-0.924969
C104	C	0.117795	-0.565228	-0.424969
C105	C	-0.430156	-1.021592	-0.889954
C106	C	0.069844	-0.521592	-0.389954
N107	N	-0.469661	-0.985658	-0.783432
N108	N	0.030339	-0.485658	-0.283432
N109	N	-0.426847	-1.024607	-0.814701
N110	N	0.073153	-0.524607	-0.314701
C111	C	-0.440282	-1.012428	-0.115555
C112	C	0.059718	-0.512428	0.384445
C113	C	-0.436620	-1.015697	-0.037196
C114	C	0.063380	-0.515697	0.462804
H115	H	-0.340843	-0.599937	-0.396815
H116	H	0.159157	-0.099937	0.103185
N117	N	-0.336460	-1.106845	-1.034369
N118	N	0.163540	-0.606845	-0.534369
N119	N	-0.339352	-1.104209	-1.100101
N120	N	0.160648	-0.604209	-0.600101
H121	H	-0.304763	-1.135684	-1.125371
H122	H	0.195237	-0.635684	-0.625371
N123	N	-0.530359	-0.599110	-0.223877
N124	N	-0.030359	-0.099110	0.276123
N125	N	-0.527454	-0.533378	-0.226530
N126	N	-0.027454	-0.033378	0.273470
H127	H	-0.561978	-0.508098	-0.195010
H128	H	-0.061978	-0.008098	0.304990
N129	N	-0.336810	-0.740768	-0.400464
N130	N	0.163190	-0.240768	0.099536
N131	N	-0.339712	-0.806500	-0.397804
N132	N	0.160288	-0.306500	0.102196
H133	H	-0.305173	-0.831782	-0.429310
H134	H	0.194827	-0.331782	0.070690
N135	N	-0.566540	-0.418913	-0.190901
N136	N	-0.066540	0.081087	0.309099
N137	N	-0.537925	-0.461783	-0.144368
N138	N	-0.037925	0.038217	0.355632
H139	H	-0.574796	-0.489628	-0.110711
H140	H	-0.074796	0.010372	0.389289
H141	H	-0.526347	-0.739940	-0.227538
H142	H	-0.026347	-0.239940	0.272462
H143	H	-0.550071	-0.277343	-0.205962
H144	H	-0.050071	0.222657	0.294038
N145	N	-0.536838	-0.924462	-1.041605
N146	N	-0.036838	-0.424462	-0.541605
N147	N	-0.579628	-0.885490	-1.010335
N148	N	-0.079628	-0.385490	-0.510335
H149	H	-0.616529	-0.851861	-1.038179
H150	H	-0.116529	-0.351861	-0.538179
N151	N	-0.359657	-1.085793	-0.556531
N152	N	0.140343	-0.585793	-0.056531
N153	N	-0.316846	-1.124741	-0.587808
N154	N	0.183154	-0.624741	-0.087808
H155	H	-0.279916	-1.158350	-0.559970
H156	H	0.220084	-0.658350	-0.059970
N157	N	-0.366183	-1.079823	-0.705330
N158	N	0.133817	-0.579823	-0.205330
N159	N	-0.320490	-1.121410	-0.670853
N160	N	0.179510	-0.621410	-0.170853
H161	H	-0.285890	-1.152891	-0.696105
H162	H	0.214110	-0.652891	-0.196105
H163	H	-0.340526	-1.103158	-0.893541
H164	H	0.159474	-0.603158	-0.393541
H165	H	-0.520397	-0.939493	-0.900053
H166	H	-0.020397	-0.439493	-0.400053
H167	H	-0.555984	-0.907115	-0.704594
H168	H	-0.055984	-0.407115	-0.204594
N169	N	-0.560047	-0.903418	-0.563765
N170	N	-0.060047	-0.403418	-0.063765
N171	N	-0.552178	-0.838044	-0.574590
N172	N	-0.052178	-0.338044	-0.074590
H173	H	-0.586761	-0.806559	-0.549327
H174	H	-0.086761	-0.306559	-0.049327
N175	N	-0.359870	-0.262912	-0.379518
N176	N	0.140130	0.237088	0.120482
N177	N	-0.368569	-0.268557	-0.444223
N178	N	0.131431	0.231443	0.055777
H179	H	-0.331699	-0.240727	-0.477893
H180	H	0.168301	0.259273	0.022107
N181	N	-0.366430	-0.411714	-0.373509
N182	N	0.133570	0.088286	0.126491
N183	N	-0.320791	-0.377253	-0.415159
N184	N	0.179209	0.122747	0.084841
H185	H	-0.286255	-0.402518	-0.446682
H186	H	0.213745	0.097482	0.053318
