data_functionalizedCrystal
_audit_creation_method	'MofGen! by Chris Wilmer'
_symmetry_space_group_name_H-M	'P1'
_symmetry_Int_Tables_number	1
_symmetry_cell_setting	triclinic
loop_
_symmetry_equiv_pos_as_xyz
  x,y,z
_cell_length_a	14.908795
_cell_length_b	16.120444
_cell_length_c	14.908308
_cell_angle_alpha	95.986749
_cell_angle_beta	89.788666
_cell_angle_gamma	96.375662
loop_
_atom_site_label
_atom_site_type_symbol
_atom_site_fract_x
_atom_site_fract_y
_atom_site_fract_z
Zn1	Zn	1.328312	-0.293318	-0.602929
Zn2	Zn	1.828312	0.206682	-0.102929
Zn3	Zn	1.329259	-0.425040	-0.459348
Zn4	Zn	1.829259	0.074960	0.040652
Zn5	Zn	1.186679	-0.292410	-0.443853
Zn6	Zn	1.686679	0.207590	0.056147
Zn7	Zn	1.169354	-0.441096	-0.601796
Zn8	Zn	1.669354	0.058904	-0.101796
O9	O	1.253401	-0.362966	-0.526981
O10	O	1.753401	0.137034	-0.026981
O11	O	1.454633	-0.304452	-0.590841
O12	O	1.954633	0.195548	-0.090841
O13	O	1.317992	-0.400346	-0.331104
O14	O	1.817992	0.099654	0.168896
O15	O	1.212321	-0.175179	-0.458944
O16	O	1.712321	0.324821	0.041056
O17	O	1.455328	-0.401227	-0.485353
O18	O	1.955328	0.098773	0.014647
O19	O	1.316379	-0.175846	-0.575816
O20	O	1.816379	0.324154	-0.075816
O21	O	1.213239	-0.302903	-0.319720
O22	O	1.713239	0.197097	0.180280
O23	O	1.058185	-0.318473	-0.457846
O24	O	1.558185	0.181527	0.042154
O25	O	1.182794	-0.428593	-0.728135
O26	O	1.682794	0.071407	-0.228135
O27	O	1.045457	-0.427712	-0.573886
O28	O	1.545457	0.072288	-0.073886
O29	O	1.299580	-0.320022	-0.728967
O30	O	1.799580	0.179978	-0.228967
O31	O	1.301192	-0.544521	-0.484255
O32	O	1.801192	-0.044521	0.015745
O33	O	1.183711	-0.556318	-0.588911
O34	O	1.683711	-0.056318	-0.088911
C35	C	1.019100	-0.374737	-0.514062
C36	C	1.519100	0.125263	-0.014062
C37	C	0.918863	-0.379794	-0.508557
C38	C	1.418863	0.120206	-0.008557
C39	C	0.777957	-0.437213	-0.445784
C40	C	1.277957	0.062787	0.054216
C41	C	0.872139	-0.432464	-0.450955
C42	C	1.372139	0.067536	0.049045
C43	C	0.871399	-0.331866	-0.560989
C44	C	1.371399	0.168134	-0.060989
C45	C	0.777217	-0.336614	-0.555818
C46	C	1.277217	0.163386	-0.055818
C47	C	0.730499	-0.389290	-0.498214
C48	C	1.230499	0.110710	0.001786
C49	C	0.636315	-0.394042	-0.493047
C50	C	1.136315	0.105958	0.006953
C51	C	0.635578	-0.293440	-0.603076
C52	C	1.135578	0.206560	-0.103076
C53	C	0.729760	-0.288692	-0.608248
C54	C	1.229760	0.211308	-0.108248
C55	C	1.240698	-0.580847	-0.538163
C56	C	1.740698	-0.080847	-0.038163
C57	C	1.235344	-0.674056	-0.542981
C58	C	1.735344	-0.174056	-0.042981
C59	C	1.281383	-0.880371	-0.502194
C60	C	1.781383	-0.380371	-0.002194
C61	C	1.225585	-0.844702	-0.551788
C62	C	1.725585	-0.344702	-0.051788
C63	C	1.231017	-0.749745	-0.546886
C64	C	1.731017	-0.249745	-0.046886
C65	C	1.275953	-0.975336	-0.507094
C66	C	1.775953	-0.475336	-0.007094
C67	C	1.488616	-0.351150	-0.539952
C68	C	1.988616	0.148850	-0.039952
C69	C	1.588851	-0.346114	-0.545479
C70	C	2.088851	0.153886	-0.045479
C71	C	1.239149	-0.376200	-0.762185
C72	C	1.739149	0.123800	-0.262185
C73	C	1.233075	-0.381839	-0.862415
C74	C	1.733075	0.118161	-0.362415
C75	C	1.266177	-0.144234	-0.515778
C76	C	1.766177	0.355766	-0.015778
C77	C	1.271622	-0.051023	-0.511003
C78	C	1.771622	0.448977	-0.011003
C79	C	1.343270	-0.279361	-1.051624
C80	C	1.843270	0.220639	-0.551624
C81	C	1.337567	-0.284657	-1.145799
C82	C	1.837567	0.215343	-0.645799
C83	C	1.215961	-0.397722	-1.144941
C84	C	1.715961	0.102278	-0.644941
C85	C	1.221664	-0.392426	-1.050766
C86	C	1.721664	0.107574	-0.550766
C87	C	1.285322	-0.333245	-1.004111
C88	C	1.785322	0.166755	-0.504111
C89	C	1.291029	-0.327954	-0.909935
C90	C	1.791029	0.172046	-0.409935
C91	C	1.169420	-0.441014	-0.909078
C92	C	1.669420	0.058986	-0.409078
C93	C	1.163716	-0.446310	-1.003253
C94	C	1.663716	0.053690	-0.503253
C95	C	1.267653	-0.349721	-0.292693
C96	C	1.767653	0.150279	0.207307
C97	C	1.273915	-0.343836	-0.192461
C98	C	1.773915	0.156164	0.307539
H99	H	0.909453	-0.288975	-0.607882
H100	H	1.409453	0.211025	-0.107882
H101	H	1.173736	-0.885478	-0.597928
H102	H	1.673736	-0.385478	-0.097928
O103	O	1.147291	-0.461537	-1.195265
O104	O	1.647291	0.038463	-0.695265
H105	H	1.153061	-0.456161	-1.268732
H106	H	1.653061	0.043839	-0.768732
O107	O	0.727565	-0.494023	-0.383655
O108	O	1.227565	0.005977	0.116345
H109	H	0.679740	-0.541178	-0.423778
H110	H	1.179740	-0.041178	0.076222
O111	O	1.350072	-0.826369	-0.441089
O112	O	1.850072	-0.326369	0.058911
H113	H	1.343610	-0.759182	-0.446785
H114	H	1.843610	-0.259182	0.053215
H115	H	1.342864	-0.279766	-0.871950
H116	H	1.842864	0.220234	-0.371950
H117	H	0.767810	-0.245803	-0.655145
H118	H	1.267810	0.254197	-0.155145
O119	O	0.923330	-0.484151	-0.394407
O120	O	1.423330	0.015849	0.105593
H121	H	0.875017	-0.521579	-0.353489
H122	H	1.375017	-0.021579	0.146511
O123	O	0.584395	-0.241743	-0.659628
O124	O	1.084395	0.258257	-0.159628
H125	H	0.511055	-0.253888	-0.646353
H126	H	1.011055	0.246112	-0.146353
O127	O	1.411927	-0.215537	-1.001294
O128	O	1.911927	0.284463	-0.501294
H129	H	1.451264	-0.178956	-1.050156
H130	H	1.951264	0.321044	-0.550156
O131	O	1.400072	-0.226546	-1.197051
O132	O	1.900072	0.273454	-0.697051
H133	H	1.445297	-0.184511	-1.148784
H134	H	1.945297	0.315489	-0.648784
H135	H	1.111886	-0.494492	-1.041252
H136	H	1.611886	0.005508	-0.541252
O137	O	1.106908	-0.499135	-0.857834
O138	O	1.606908	0.000865	-0.357834
H139	H	1.121563	-0.485509	-0.784509
H140	H	1.621563	0.014491	-0.284509
H141	H	0.598279	-0.436937	-0.446146
H142	H	1.098279	0.063063	0.053854
