data_functionalizedCrystal
_audit_creation_method	'MofGen! by Chris Wilmer'
_symmetry_space_group_name_H-M	'P1'
_symmetry_Int_Tables_number	1
_symmetry_cell_setting	triclinic
loop_
_symmetry_equiv_pos_as_xyz
  x,y,z
_cell_length_a	14.908571
_cell_length_b	12.759394
_cell_length_c	12.759387
_cell_angle_alpha	89.968595
_cell_angle_beta	86.687440
_cell_angle_gamma	86.711101
loop_
_atom_site_label
_atom_site_type_symbol
_atom_site_fract_x
_atom_site_fract_y
_atom_site_fract_z
Zn1	Zn	1.379261	-0.511036	-0.686587
Zn2	Zn	1.879261	-0.011036	-0.186587
Zn3	Zn	1.379175	-0.686747	-0.510899
Zn4	Zn	1.879175	-0.186747	-0.010899
Zn5	Zn	1.228396	-0.500935	-0.500796
Zn6	Zn	1.728396	-0.000935	-0.000796
Zn7	Zn	1.228380	-0.676520	-0.676415
Zn8	Zn	1.728380	-0.176520	-0.176415
O9	O	1.303803	-0.593810	-0.593674
O10	O	1.803803	-0.093810	-0.093674
O11	O	1.505496	-0.542852	-0.671766
O12	O	2.005496	-0.042852	-0.171766
O13	O	1.359145	-0.662151	-0.362536
O14	O	1.859145	-0.162151	0.137464
O15	O	1.248451	-0.355257	-0.525471
O16	O	1.748451	0.144743	-0.025471
O17	O	1.505433	-0.671946	-0.542689
O18	O	2.005433	-0.171946	-0.042689
O19	O	1.359291	-0.362678	-0.661970
O20	O	1.859291	0.137322	-0.161970
O21	O	1.248368	-0.525636	-0.355113
O22	O	1.748368	-0.025636	0.144887
O23	O	1.102148	-0.515719	-0.515608
O24	O	1.602148	-0.015719	-0.015608
O25	O	1.248424	-0.654516	-0.824788
O26	O	1.748424	-0.154516	-0.324788
O27	O	1.102136	-0.644721	-0.644634
O28	O	1.602136	-0.144721	-0.144634
O29	O	1.359276	-0.532936	-0.832261
O30	O	1.859276	-0.032936	-0.332261
O31	O	1.359130	-0.832408	-0.532826
O32	O	1.859130	-0.332408	-0.032826
O33	O	1.248341	-0.824895	-0.654430
O34	O	1.748341	-0.324895	-0.154430
C35	C	1.069408	-0.578015	-0.577922
C36	C	1.569408	-0.078015	-0.077922
C37	C	0.969133	-0.571283	-0.571207
C38	C	1.469133	-0.071283	-0.071207
C39	C	0.780741	-0.693171	-0.692766
C40	C	1.280741	-0.193171	-0.192766
C41	C	0.686524	-0.686849	-0.686461
C42	C	1.186524	-0.186849	-0.186461
C43	C	0.686478	-0.552313	-0.552299
C44	C	1.186478	-0.052313	-0.052299
C45	C	0.780696	-0.558635	-0.558604
C46	C	1.280696	-0.058635	-0.058604
C47	C	0.827824	-0.629068	-0.628838
C48	C	1.327824	-0.129068	-0.128838
C49	C	0.922043	-0.635394	-0.635137
C50	C	1.422043	-0.135394	-0.135137
C51	C	0.921996	-0.500853	-0.500981
C52	C	1.421996	-0.000853	-0.000981
C53	C	0.827779	-0.494531	-0.494676
C54	C	1.327779	0.005469	0.005324
C55	C	1.303749	-0.866773	-0.593645
C56	C	1.803749	-0.366773	-0.093645
C57	C	1.303808	-0.983554	-0.593674
C58	C	1.803808	-0.483554	-0.093674
C59	C	1.419259	-0.991331	-0.467154
C60	C	1.919259	-0.491331	0.032846
C61	C	1.477008	-1.050081	-0.403908
C62	C	1.977008	-0.550081	0.096092
C63	C	1.477061	-1.159806	-0.403940
C64	C	1.977061	-0.659806	0.096060
C65	C	1.419361	-1.210783	-0.467227
C66	C	1.919361	-0.710783	0.032773
C67	C	1.361612	-1.152032	-0.530473
C68	C	1.861612	-0.652032	-0.030473
C69	C	1.361563	-1.042305	-0.530432
C70	C	1.861563	-0.542305	-0.030432
C71	C	1.246167	-1.144256	-0.656997
C72	C	1.746167	-0.644256	-0.156997
C73	C	1.246108	-1.034531	-0.656961
C74	C	1.746108	-0.534531	-0.156961
C75	C	1.188467	-1.195233	-0.720284
C76	C	1.688467	-0.695233	-0.220284
C77	C	1.130712	-1.136482	-0.783526
C78	C	1.630712	-0.636482	-0.283526
C79	C	1.130661	-1.026750	-0.783491
C80	C	1.630661	-0.526750	-0.283491
C81	C	1.188359	-0.975780	-0.720207
C82	C	1.688359	-0.475780	-0.220207
C83	C	1.539114	-0.609667	-0.609489
C84	C	2.039114	-0.109667	-0.109489
C85	C	1.639389	-0.616424	-0.616229
C86	C	2.139389	-0.116424	-0.116229
C87	C	1.303858	-0.593711	-0.867712
C88	C	1.803858	-0.093711	-0.367712
C89	C	1.303881	-0.593670	-0.984490
C90	C	1.803881	-0.093670	-0.484490
C91	C	1.303882	-0.319781	-0.593728
C92	C	1.803882	0.180219	-0.093728
C93	C	1.303916	-0.203007	-0.593751
C94	C	1.803916	0.296993	-0.093751
C95	C	1.419297	-0.735754	-1.211648
C96	C	1.919297	-0.235754	-0.711648
C97	C	1.476956	-0.806851	-1.160640
C98	C	1.976956	-0.306851	-0.660640
C99	C	1.476926	-0.806889	-1.050917
C100	C	1.976926	-0.306889	-0.550917
C101	C	1.419229	-0.735825	-0.992198
C102	C	1.919229	-0.235825	-0.492198
C103	C	1.361570	-0.664728	-1.043206
C104	C	1.861570	-0.164728	-0.543206
C105	C	1.361608	-0.664696	-1.152932
C106	C	1.861608	-0.164696	-0.652932
C107	C	1.246222	-0.522573	-1.035498
C108	C	1.746222	-0.022573	-0.535498
C109	C	1.246255	-0.522528	-1.145222
C110	C	1.746255	-0.022528	-0.645222
C111	C	1.188525	-0.451509	-0.976779
C112	C	1.688525	0.048491	-0.476779
C113	C	1.130869	-0.380406	-1.027787
C114	C	1.630869	0.119594	-0.527787
C115	C	1.130902	-0.380370	-1.137518
C116	C	1.630902	0.119630	-0.637518
C117	C	1.188596	-0.451432	-1.196230
C118	C	1.688596	0.048568	-0.696230
C119	C	1.303801	-0.593835	-0.320707
C120	C	1.803801	-0.093835	0.179293
C121	C	1.303952	-0.593593	-0.203941
C122	C	1.803952	-0.093593	0.296059
H123	H	0.819114	-0.750526	-0.749948
H124	H	1.319114	-0.250526	-0.249948
H125	H	1.188317	-0.886436	-0.720165
H126	H	1.688317	-0.386436	-0.220165
H127	H	0.648192	-0.739047	-0.738519
H128	H	1.148192	-0.239047	-0.238519
Cl129	Cl	1.419351	-0.735698	-1.349589
Cl130	Cl	1.919351	-0.235698	-0.849589
Cl131	Cl	1.549480	-0.896189	-1.234462
Cl132	Cl	2.049480	-0.396189	-0.734462
H133	H	1.419417	-1.300128	-0.467257
H134	H	1.919417	-0.800128	0.032743
H135	H	1.083638	-0.978921	-0.834998
H136	H	1.583638	-0.478921	-0.334998
Cl137	Cl	1.549406	-0.896274	-0.986789
Cl138	Cl	2.049406	-0.396274	-0.486789
Cl139	Cl	1.188646	-0.451389	-1.334170
Cl140	Cl	1.688646	0.048611	-0.834170
H141	H	1.419210	-0.901986	-0.467107
H142	H	1.919210	-0.401986	0.032893
H143	H	1.419202	-0.735871	-0.902855
H144	H	1.919202	-0.235871	-0.402855
Cl145	Cl	1.188488	-0.451557	-0.838840
Cl146	Cl	1.688488	0.048443	-0.338840
H147	H	1.188518	-1.284578	-0.720311
H148	H	1.688518	-0.784578	-0.220311
H149	H	0.648090	-0.494964	-0.495124
H150	H	1.148090	0.005036	0.004876
Cl151	Cl	1.058349	-0.291073	-0.953966
Cl152	Cl	1.558349	0.208927	-0.453966
H153	H	1.083741	-1.177997	-0.835055
H154	H	1.583741	-0.677997	-0.335055
H155	H	0.960414	-0.692745	-0.692324
H156	H	1.460414	-0.192745	-0.192324
Cl157	Cl	0.768523	-0.405989	-0.406391
Cl158	Cl	1.268523	0.094011	0.093609
Cl159	Cl	1.058410	-0.290987	-1.201632
Cl160	Cl	1.558410	0.209013	-0.701632
H161	H	0.960341	-0.448657	-0.448925
H162	H	1.460341	0.051343	0.051075
H163	H	1.523989	-1.008567	-0.352382
H164	H	2.023989	-0.508567	0.147618
H165	H	1.524089	-1.207642	-0.352445
H166	H	2.024089	-0.707642	0.147555
