data_functionalizedCrystal
_audit_creation_method	'MofGen! by Chris Wilmer'
_symmetry_space_group_name_H-M	'P1'
_symmetry_Int_Tables_number	1
_symmetry_cell_setting	triclinic
loop_
_symmetry_equiv_pos_as_xyz
  x,y,z
_cell_length_a	21.395362
_cell_length_b	19.805405
_cell_length_c	21.395356
_cell_angle_alpha	89.970920
_cell_angle_beta	89.957023
_cell_angle_gamma	90.042288
loop_
_atom_site_label
_atom_site_type_symbol
_atom_site_fract_x
_atom_site_fract_y
_atom_site_fract_z
Zn1	Zn	0.957872	-0.269193	-0.354580
Zn2	Zn	1.457872	0.230807	0.145420
Zn3	Zn	0.957784	-0.382381	-0.249800
Zn4	Zn	1.457784	0.117619	0.250200
Zn5	Zn	0.853089	-0.269243	-0.249781
Zn6	Zn	1.353089	0.230757	0.250219
Zn7	Zn	0.853064	-0.382377	-0.354504
Zn8	Zn	1.353064	0.117623	0.145496
O9	O	0.905452	-0.325799	-0.302166
O10	O	1.405452	0.174201	0.197834
O11	O	1.045539	-0.284189	-0.340720
O12	O	1.545539	0.215811	0.159280
O13	O	0.943870	-0.367396	-0.162119
O14	O	1.443870	0.132604	0.337881
O15	O	0.867036	-0.174520	-0.263706
O16	O	1.367036	0.325480	0.236294
O17	O	1.045474	-0.367348	-0.263738
O18	O	1.545474	0.132652	0.236262
O19	O	0.944020	-0.174483	-0.340701
O20	O	1.444020	0.325517	0.159299
O21	O	0.866951	-0.284274	-0.162105
O22	O	1.366951	0.215726	0.337895
O23	O	0.765408	-0.284270	-0.263633
O24	O	1.265408	0.215730	0.236367
O25	O	0.866994	-0.367341	-0.442192
O26	O	1.366994	0.132659	0.057808
O27	O	0.765390	-0.367389	-0.340573
O28	O	1.265390	0.132611	0.159427
O29	O	0.943996	-0.284185	-0.442247
O30	O	1.443996	0.215815	0.057753
O31	O	0.943846	-0.477097	-0.263665
O32	O	1.443846	0.022903	0.236335
O33	O	0.866908	-0.477094	-0.340591
O34	O	1.366908	0.022906	0.159409
C35	C	0.742665	-0.325835	-0.302093
C36	C	1.242665	0.174165	0.197907
C37	C	0.673024	-0.325866	-0.302077
C38	C	1.173024	0.174134	0.197923
C39	C	0.640317	-0.369204	-0.342080
C40	C	1.140317	0.130796	0.157920
C41	C	0.574882	-0.369187	-0.342108
C42	C	1.074882	0.130813	0.157892
C43	C	0.542155	-0.325840	-0.302122
C44	C	1.042155	0.174160	0.197878
C45	C	0.574869	-0.282494	-0.262116
C46	C	1.074869	0.217506	0.237884
C47	C	0.640303	-0.282507	-0.262094
C48	C	1.140303	0.217493	0.237906
C49	C	0.438431	-0.320397	-0.245717
C50	C	0.938431	0.179603	0.254283
C51	C	0.372998	-0.320389	-0.245738
C52	C	0.872998	0.179611	0.254262
C53	C	0.340335	-0.325796	-0.302191
C54	C	0.840335	0.174204	0.197809
C55	C	0.373112	-0.331225	-0.358624
C56	C	0.873112	0.168775	0.141376
C57	C	0.438546	-0.331239	-0.358602
C58	C	0.938546	0.168761	0.141398
C59	C	0.471203	-0.325821	-0.302142
C60	C	0.971203	0.174179	0.197858
C61	C	0.236676	-0.369118	-0.342227
C62	C	0.736676	0.130882	0.157773
C63	C	0.171239	-0.369096	-0.342256
C64	C	0.671239	0.130904	0.157744
C65	C	0.171228	-0.282407	-0.262259
C66	C	0.671228	0.217593	0.237741
C67	C	0.236663	-0.282425	-0.262236
C68	C	0.736663	0.217575	0.237764
C69	C	0.269383	-0.325784	-0.302219
C70	C	0.769383	0.174216	0.197781
C71	C	0.905382	-0.501655	-0.302136
C72	C	1.405382	-0.001655	0.197864
C73	C	0.905409	-0.576887	-0.302144
C74	C	1.405409	-0.076887	0.197856
C75	C	0.945509	-0.612210	-0.262130
C76	C	1.445509	-0.112210	0.237870
C77	C	0.945536	-0.682898	-0.262144
C78	C	1.445536	-0.182898	0.237856
C79	C	0.905459	-0.718262	-0.302169
C80	C	1.405459	-0.218262	0.197831
C81	C	0.865357	-0.682934	-0.342187
C82	C	1.365357	-0.182934	0.157813
C83	C	0.865334	-0.612247	-0.342175
C84	C	1.365334	-0.112247	0.157825
C85	C	0.865449	-0.968007	-0.342233
C86	C	1.365449	-0.468007	0.157767
C87	C	0.865474	-1.038699	-0.342240
C88	C	1.365474	-0.538699	0.157760
C89	C	0.945651	-1.038659	-0.262202
C90	C	1.445651	-0.538659	0.237798
C91	C	0.945628	-0.967972	-0.262191
C92	C	1.445628	-0.467972	0.237809
C93	C	0.905529	-0.932650	-0.302210
C94	C	1.405529	-0.432650	0.197790
C95	C	0.905501	-0.856001	-0.302196
C96	C	1.405501	-0.356001	0.197804
C97	C	0.905483	-0.794909	-0.302181
C98	C	1.405483	-0.294909	0.197819
C99	C	1.068876	-0.325763	-0.302239
C100	C	1.568876	0.174237	0.197761
C101	C	1.138517	-0.325748	-0.302271
C102	C	1.638517	0.174252	0.197729
C103	C	0.905502	-0.325757	-0.465589
C104	C	1.405502	0.174243	0.034411
C105	C	0.905523	-0.325739	-0.535231
C106	C	1.405523	0.174261	-0.035231
C107	C	0.905540	-0.149256	-0.302210
C108	C	1.405540	0.350744	0.197790
C109	C	0.905578	-0.074024	-0.302229
C110	C	1.405578	0.425976	0.197771
C111	C	0.865482	-0.282452	-0.567927
C112	C	1.365482	0.217548	-0.067927
C113	C	0.865479	-0.282440	-0.633362
C114	C	1.365479	0.217560	-0.133362
C115	C	0.905530	-0.325707	-0.666099
C116	C	1.405530	0.174293	-0.166099
C117	C	0.945574	-0.369002	-0.633395
C118	C	1.445574	0.130998	-0.133395
C119	C	0.945570	-0.369018	-0.567961
C120	C	1.445570	0.130982	-0.067961
C121	C	0.961982	-0.331011	-0.769804
C122	C	1.461982	0.168989	-0.269804
C123	C	0.961987	-0.330990	-0.835237
C124	C	1.461987	0.169010	-0.335237
C125	C	0.905540	-0.325661	-0.867920
C126	C	1.405540	0.174339	-0.367920
C127	C	0.849087	-0.320338	-0.835161
C128	C	1.349087	0.179662	-0.335161
C129	C	0.849084	-0.320354	-0.769727
C130	C	1.349084	0.179646	-0.269727
C131	C	0.905538	-0.325694	-0.737051
C132	C	1.405538	0.174306	-0.237051
C133	C	0.865493	-0.282358	-0.971569
C134	C	1.365493	0.217642	-0.471569
C135	C	0.865490	-0.282351	-1.037005
C136	C	1.365490	0.217649	-0.537005
C137	C	0.945590	-0.368909	-1.037037
C138	C	1.445590	0.131091	-0.537037
C139	C	0.945587	-0.368920	-0.971601
C140	C	1.445587	0.131080	-0.471601
C141	C	0.905540	-0.325642	-0.938871
C142	C	1.405540	0.174358	-0.438871
C143	C	0.905439	-0.325792	-0.139378
C144	C	1.405439	0.174208	0.360622
C145	C	0.905540	-0.325619	-0.069738
C146	C	1.405540	0.174381	0.430262
H147	H	0.465231	-0.335657	-0.404552
H148	H	0.965231	0.164343	0.095448
F149	F	0.789008	-0.314663	-0.869939
F150	F	1.289008	0.185337	-0.369939
F151	F	0.822655	-0.574654	-0.384765
F152	F	1.322655	-0.074654	0.115235
H153	H	0.978305	-1.067427	-0.229618
H154	H	1.478305	-0.567427	0.270382
F155	F	0.136431	-0.415221	-0.384838
F156	F	0.636431	0.084779	0.115162
F157	F	0.271501	-0.415260	-0.384783
F158	F	0.771501	0.084740	0.115217
H159	H	0.548247	-0.404477	-0.374685
H160	H	1.048247	0.095523	0.125315
F161	F	0.988218	-0.720489	-0.219558
F162	F	1.488218	-0.220489	0.280442
F163	F	0.822771	-0.930424	-0.384825
F164	F	1.322771	-0.430424	0.115175
H165	H	0.803118	-0.316022	-0.743058
H166	H	1.303118	0.183978	-0.243058
F167	F	0.988190	-0.415091	-0.533162
F168	F	1.488190	0.084909	-0.033162
F169	F	0.540038	-0.236359	-0.219563
F170	F	1.040038	0.263641	0.280437
H171	H	0.666932	-0.247215	-0.229519
H172	H	1.166932	0.252785	0.270481
F173	F	0.338120	-0.314611	-0.185677
F174	F	0.838120	0.185389	0.314323
F175	F	0.988195	-0.415052	-0.668237
F176	F	1.488195	0.084948	-0.168237
F177	F	0.822817	-1.076335	-0.384843
F178	F	1.322817	-0.576335	0.115157
H179	H	0.144582	-0.247110	-0.229705
H180	H	0.644582	0.252890	0.270295
F181	F	0.675137	-0.415348	-0.384635
F182	F	1.175137	0.084652	0.115365
H183	H	0.346519	-0.335627	-0.404594
H184	H	0.846519	0.164373	0.095406
H185	H	0.832879	-0.247104	-1.063625
H186	H	1.332879	0.252896	-0.563625
F187	F	1.022067	-0.336660	-0.870095
F188	F	1.522067	0.163340	-0.370095
F189	F	0.822707	-0.720573	-0.384788
F190	F	1.322707	-0.220573	0.115212
F191	F	1.022064	-0.336688	-0.735027
F192	F	1.522064	0.163312	-0.235027
H193	H	0.978142	-0.583421	-0.229535
H194	H	1.478142	-0.083421	0.270465
F195	F	0.988211	-0.414961	-1.071873
F196	F	1.488211	0.085039	-0.571873
H197	H	0.832869	-0.247214	-0.541282
H198	H	1.332869	0.252786	-0.041282
H199	H	0.263293	-0.247138	-0.229658
H200	H	0.763293	0.252862	0.270342
H201	H	0.465020	-0.315991	-0.199743
H202	H	0.965020	0.184009	0.300257
F203	F	0.822871	-0.236355	-0.668167
F204	F	1.322871	0.263645	-0.168167
F205	F	0.822869	-0.236301	-0.936733
F206	F	1.322869	0.263699	-0.436733
H207	H	0.978261	-0.939181	-0.229597
H208	H	1.478261	-0.439181	0.270403
H209	H	0.978195	-0.404168	-0.944980
H210	H	1.478195	0.095832	-0.444980
