data_functionalizedCrystal
_audit_creation_method	'MofGen! by Chris Wilmer'
_symmetry_space_group_name_H-M	'P1'
_symmetry_Int_Tables_number	1
_symmetry_cell_setting	triclinic
loop_
_symmetry_equiv_pos_as_xyz
  x,y,z
_cell_length_a	12.759401
_cell_length_b	29.839131
_cell_length_c	29.839125
_cell_angle_alpha	89.988394
_cell_angle_beta	89.987900
_cell_angle_gamma	90.042945
loop_
_atom_site_label
_atom_site_type_symbol
_atom_site_fract_x
_atom_site_fract_y
_atom_site_fract_z
Zn1	Zn	1.605980	-0.178925	-0.253987
Zn2	Zn	1.605816	-0.254029	-0.178857
Zn3	Zn	1.430305	-0.178916	-0.178871
Zn4	Zn	1.430188	-0.254031	-0.253960
O5	O	1.518072	-0.216475	-0.216419
O6	O	1.752979	-0.188891	-0.244026
O7	O	1.582515	-0.244061	-0.115992
O8	O	1.453726	-0.116050	-0.188853
O9	O	1.752859	-0.244070	-0.188828
O10	O	1.582794	-0.116057	-0.244040
O11	O	1.453568	-0.188875	-0.116002
O12	O	1.283269	-0.188877	-0.188827
O13	O	1.453527	-0.244072	-0.316831
O14	O	1.283183	-0.244064	-0.243995
O15	O	1.582680	-0.188893	-0.316850
O16	O	1.582401	-0.316896	-0.188802
O17	O	1.453368	-0.316898	-0.243980
C18	C	1.245105	-0.216470	-0.216410
C19	C	1.128328	-0.216478	-0.216417
C20	C	1.073449	-0.245258	-0.245097
C21	C	0.963725	-0.245259	-0.245106
C22	C	0.963769	-0.187701	-0.187750
C23	C	1.073491	-0.187697	-0.187744
C24	C	0.813792	-0.261403	-0.298068
C25	C	0.758909	-0.290189	-0.326744
C26	C	0.794457	-0.334035	-0.333559
C27	C	0.884885	-0.349103	-0.311690
C28	C	0.939763	-0.320319	-0.283011
C29	C	0.904217	-0.276467	-0.276205
C30	C	1.223426	-0.171559	-0.134782
C31	C	1.278305	-0.142777	-0.106099
C32	C	1.242760	-0.098930	-0.099280
C33	C	1.152328	-0.083863	-0.121141
C34	C	1.097448	-0.112645	-0.149823
C35	C	1.133001	-0.156491	-0.156643
C36	C	1.517883	-0.333198	-0.216397
C37	C	1.517897	-0.383132	-0.216402
C38	C	1.585382	-0.692762	-0.187730
C39	C	1.585511	-0.880435	-0.187747
O40	O	1.642739	-0.904689	-0.163351
N41	N	1.518290	-0.903917	-0.216453
C42	C	1.451036	-0.880478	-0.245158
O43	O	1.393871	-0.904757	-0.269578
C44	C	1.450913	-0.692806	-0.245143
C45	C	1.518131	-0.669326	-0.216432
C46	C	1.652595	-0.669283	-0.159021
C47	C	1.652558	-0.622367	-0.159016
C48	C	1.585307	-0.598931	-0.187718
C49	C	1.518094	-0.622411	-0.216426
C50	C	1.383665	-0.669368	-0.273850
C51	C	1.383642	-0.622446	-0.273845
C52	C	1.450860	-0.598967	-0.245134
C53	C	1.450806	-0.552060	-0.245123
N54	N	1.518027	-0.528578	-0.216417
C55	C	1.585278	-0.552014	-0.187715
C56	C	1.451105	-0.979009	-0.245164
C57	C	1.451134	-1.025926	-0.245167
C58	C	1.585611	-1.025881	-0.187756
C59	C	1.585575	-0.978962	-0.187751
C60	C	1.518326	-0.955527	-0.216458
C61	C	1.585194	-0.453488	-0.187704
C62	C	1.585148	-0.406568	-0.187700
C63	C	1.450676	-0.406618	-0.245112
C64	C	1.450718	-0.453534	-0.245115
C65	C	1.517985	-0.476967	-0.216410
O66	O	1.393617	-0.527777	-0.269509
O67	O	1.642451	-0.527726	-0.163306
C68	C	1.585419	-0.739678	-0.187735
C69	C	1.518205	-0.763157	-0.216443
C70	C	1.450955	-0.739721	-0.245146
C71	C	1.518235	-0.810075	-0.216447
C72	C	1.585485	-0.833511	-0.187745
C73	C	1.652707	-0.810029	-0.159039
C74	C	1.652670	-0.763114	-0.159033
C75	C	1.383733	-0.763203	-0.273852
C76	C	1.383775	-0.810119	-0.273855
C77	C	1.451026	-0.833555	-0.245152
C78	C	1.792105	-0.216481	-0.216428
C79	C	1.908882	-0.216484	-0.216432
C80	C	1.518109	-0.216484	-0.333597
C81	C	1.518124	-0.216487	-0.383532
C82	C	1.518291	-0.099297	-0.216451
C83	C	1.518385	-0.049362	-0.216465
C84	C	1.450947	-0.245116	-0.740109
C85	C	1.450909	-0.245168	-0.552436
O86	O	1.393689	-0.269594	-0.528163
N87	N	1.518147	-0.216446	-0.528977
C88	C	1.585395	-0.187706	-0.552439
O89	O	1.642577	-0.163274	-0.528180
C90	C	1.585427	-0.187652	-0.740111
C91	C	1.518191	-0.216380	-0.763568
C92	C	1.383716	-0.273841	-0.763565
C93	C	1.383731	-0.273830	-0.810481
C94	C	1.450975	-0.245093	-0.833940
C95	C	1.518206	-0.216368	-0.810483
C96	C	1.652668	-0.158911	-0.763573
C97	C	1.652668	-0.158899	-0.810494
C98	C	1.585433	-0.187627	-0.833950
C99	C	1.585464	-0.187621	-0.880858
N100	N	1.518226	-0.216343	-0.904317
C101	C	1.450982	-0.245079	-0.880858
C102	C	1.585375	-0.187737	-0.453909
C103	C	1.585369	-0.187751	-0.406991
C104	C	1.450881	-0.245212	-0.406990
C105	C	1.450894	-0.245200	-0.453909
C106	C	1.518137	-0.216459	-0.477367
C107	C	1.451017	-0.245053	-0.979384
C108	C	1.451040	-0.245041	-1.026303
C109	C	1.585523	-0.187578	-1.026299
C110	C	1.585504	-0.187592	-0.979384
C111	C	1.518243	-0.216331	-0.955927
O112	O	1.642646	-0.163204	-0.905160
O113	O	1.393792	-0.269501	-0.905125
C114	C	1.450933	-0.245128	-0.693193
C115	C	1.518163	-0.216403	-0.669737
C116	C	1.585408	-0.187667	-0.693196
C117	C	1.518157	-0.216417	-0.622819
C118	C	1.450912	-0.245153	-0.599360
C119	C	1.383674	-0.273876	-0.622819
C120	C	1.383688	-0.273864	-0.669734
C121	C	1.652646	-0.158944	-0.669737
C122	C	1.652627	-0.158958	-0.622822
C123	C	1.585383	-0.187695	-0.599363
C124	C	1.518097	-0.216434	-0.099696
C125	C	1.518285	-0.216304	-0.049762
H126	H	1.013387	-0.332588	-0.265205
H127	H	1.639973	-0.472562	-0.164331
Cl128	Cl	1.299200	-0.309946	-0.839962
H129	H	1.640137	-0.164332	-0.473004
Cl130	Cl	1.737082	-0.592857	-0.122927
H131	H	1.329029	-0.829232	-0.297234
H132	H	1.395986	-0.472652	-0.268495
H133	H	1.396144	-0.268593	-0.473004
H134	H	1.707365	-0.688359	-0.135648
H135	H	0.685282	-0.277916	-0.344550
H136	H	0.913814	-0.384809	-0.317237
H137	H	1.118094	-0.268692	-0.268446
Cl138	Cl	1.737195	-0.122792	-0.734096
H139	H	1.396237	-0.268452	-0.960291
Cl140	Cl	1.366615	-1.055438	-0.281257
Cl141	Cl	1.299168	-0.309972	-0.734082
Cl142	Cl	1.299141	-0.310002	-0.593319
Cl143	Cl	1.737165	-0.122842	-0.593339
Cl144	Cl	1.670083	-0.949450	-0.151657
H145	H	1.640129	-0.164363	-0.387896
Cl146	Cl	1.737215	-0.122825	-0.699221
H147	H	1.707422	-0.135492	-0.829591
H148	H	0.919107	-0.164269	-0.164405
Cl149	Cl	1.299159	-0.309981	-0.699215
Cl150	Cl	1.669658	-0.377054	-0.151603
Cl151	Cl	0.769108	-0.206277	-0.289510
Cl152	Cl	0.725463	-0.370221	-0.369613
Cl153	Cl	0.983756	-0.093704	-0.177303
Cl154	Cl	1.107631	-0.028741	-0.112565
H155	H	1.640369	-1.044970	-0.164386
Cl156	Cl	1.737182	-0.733604	-0.122939
Cl157	Cl	1.670041	-0.151482	-0.949895
Cl158	Cl	1.311744	-0.062749	-0.063215
Cl159	Cl	1.366551	-0.949554	-0.281255
H160	H	1.328924	-0.688476	-0.297228
Cl161	Cl	1.366142	-0.377147	-0.281195
H162	H	1.640275	-0.164183	-1.045408
H163	H	1.396129	-0.268611	-0.387882
H164	H	1.328971	-0.744125	-0.297225
Cl165	Cl	1.391982	-0.161721	-0.078610
H166	H	1.328881	-0.603368	-0.297223
H167	H	1.252382	-0.207261	-0.140336
H168	H	1.707462	-0.829119	-0.135667
H169	H	1.396289	-0.268436	-1.045399
