data_functionalizedCrystal
_audit_creation_method	'MofGen! by Chris Wilmer'
_symmetry_space_group_name_H-M	'P1'
_symmetry_Int_Tables_number	1
_symmetry_cell_setting	triclinic
loop_
_symmetry_equiv_pos_as_xyz
  x,y,z
_cell_length_a	19.121102
_cell_length_b	19.120786
_cell_length_c	19.120904
_cell_angle_alpha	90.133503
_cell_angle_beta	89.911827
_cell_angle_gamma	89.915559
loop_
_atom_site_label
_atom_site_type_symbol
_atom_site_fract_x
_atom_site_fract_y
_atom_site_fract_z
Zn1	Zn	1.040890	-0.342335	0.426845
Zn2	Zn	1.041233	-0.454595	0.304618
Zn3	Zn	0.929064	-0.332381	0.305071
Zn4	Zn	0.919063	-0.454124	0.416841
O5	O	0.982562	-0.395859	0.363344
O6	O	1.138863	-0.361590	0.414628
O7	O	1.030682	-0.434414	0.206750
O8	O	0.947940	-0.235771	0.325601
O9	O	1.139115	-0.444066	0.324828
O10	O	1.030098	-0.243084	0.415067
O11	O	0.948273	-0.344624	0.207082
O12	O	0.829810	-0.344168	0.315901
O13	O	0.930895	-0.443264	0.516097
O14	O	0.822462	-0.433612	0.398018
O15	O	1.020400	-0.361133	0.523446
O16	O	1.020985	-0.552463	0.315128
O17	O	0.931227	-0.552118	0.397578
C18	C	0.800745	-0.387759	0.355923
C19	C	0.722961	-0.384312	0.352765
C20	C	0.682611	-0.429326	0.393961
C21	C	0.609525	-0.426077	0.390997
C22	C	0.576790	-0.377818	0.346832
C23	C	0.617145	-0.332800	0.305634
C24	C	0.690230	-0.336045	0.308602
C25	C	0.356312	-0.365683	0.335738
C26	C	0.283222	-0.362442	0.332771
C27	C	0.275607	-0.455719	0.418136
C28	C	0.348693	-0.458963	0.421097
C29	C	0.389042	-0.413942	0.379902
C30	C	0.502085	-0.374498	0.343800
C31	C	0.463746	-0.417260	0.382938
C32	C	0.975076	-0.577684	0.355235
C33	C	0.971937	-0.655474	0.351792
C34	C	1.013202	-0.695766	0.396790
C35	C	1.010249	-0.768858	0.393556
C36	C	0.966034	-0.801655	0.345320
C37	C	0.924764	-0.761357	0.300320
C38	C	0.927714	-0.688267	0.303558
C39	C	0.954987	-1.022152	0.333214
C40	C	0.952042	-1.095247	0.329978
C41	C	1.037525	-1.102743	0.423215
C42	C	1.040474	-1.029652	0.426446
C43	C	0.999202	-0.989360	0.381449
C44	C	0.963016	-0.876366	0.342011
C45	C	1.002216	-0.914650	0.384761
C46	C	1.165090	-0.403991	0.370793
C47	C	1.242873	-0.407456	0.373968
C48	C	0.974494	-0.403257	0.545873
C49	C	0.971055	-0.406409	0.623656
C50	C	0.990096	-0.213325	0.371500
C51	C	0.993307	-0.135540	0.374976
C52	C	0.990642	-0.388441	0.181528
C53	C	0.994224	-0.385098	0.103760
C54	C	1.016038	-0.365131	0.664026
C55	C	1.012799	-0.368090	0.737112
C56	C	0.964579	-0.412331	0.769826
C57	C	0.919592	-0.453611	0.729450
C58	C	0.922828	-0.450648	0.656366
C59	C	0.952473	-0.423414	0.990300
C60	C	0.949242	-0.426376	1.063390
C61	C	1.042448	-0.340853	1.071046
C62	C	1.045683	-0.337897	0.997961
C63	C	1.000693	-0.379174	0.957592
C64	C	0.961269	-0.415359	0.844530
C65	C	1.004001	-0.376143	0.882888
H66	H	0.723082	-0.299386	0.275059
Br67	Br	0.892037	-1.139757	0.264507
H68	H	1.043258	-0.340119	0.856249
Br69	Br	0.871706	-0.633582	0.242490
Br70	Br	1.066241	-0.823539	0.454639
Br71	Br	1.081487	-0.305092	0.619637
Br72	Br	0.903006	-0.920882	0.276556
H73	H	0.888761	-0.788066	0.261048
Br74	Br	0.508173	-0.482751	0.442876
H75	H	1.049209	-0.669068	0.436065
Br76	Br	1.073881	-0.312101	0.791898
H77	H	1.084950	-0.301873	0.971331
H78	H	1.076477	-1.002950	0.465723
H79	H	1.079075	-0.307247	1.103923
H80	H	0.475424	-0.335207	0.307839
Br81	Br	0.891414	-0.479432	0.935523
Br82	Br	1.093533	-1.157428	0.484281
Br83	Br	0.883795	-0.486419	1.107787
Br84	Br	0.854146	-0.513649	0.773846
Br85	Br	0.861773	-0.506666	0.601577
H86	H	0.709258	-0.468626	0.429923
Br87	Br	0.393114	-0.524464	0.481033
H88	H	0.576675	-0.462733	0.424543
H89	H	0.922012	-0.451384	0.871174
H90	H	0.921382	-0.989352	0.296574
H91	H	0.256572	-0.323136	0.296812
Br92	Br	0.220845	-0.516818	0.474038
H93	H	0.590487	-0.293503	0.269677
Br94	Br	0.411063	-0.304579	0.279834
H95	H	1.038213	-0.887945	0.424037
