data_functionalizedCrystal
_audit_creation_method	'MofGen! by Chris Wilmer'
_symmetry_space_group_name_H-M	'P1'
_symmetry_Int_Tables_number	1
_symmetry_cell_setting	triclinic
loop_
_symmetry_equiv_pos_as_xyz
  x,y,z
_cell_length_a	31.640172
_cell_length_b	23.196402
_cell_length_c	23.196402
_cell_angle_alpha	120.003275
_cell_angle_beta	119.997172
_cell_angle_gamma	60.006084
loop_
_atom_site_label
_atom_site_type_symbol
_atom_site_fract_x
_atom_site_fract_y
_atom_site_fract_z
Zr1	Zr	0.407130	0.555441	-0.075645
O2	O	0.427820	0.463387	-0.167697
O3	O	0.339647	0.583649	-0.047427
O4	O	0.339651	0.583641	-0.167698
O5	O	0.497361	0.463415	0.047447
O6	O	0.339651	0.678512	-0.167697
O7	O	0.427816	0.463395	-0.047426
O8	O	0.339644	0.678528	0.047446
O9	O	0.497368	0.463400	-0.167696
O10	O	0.384734	0.666495	-0.035390
O11	O	0.436635	0.595708	0.035412
O12	O	0.436640	0.595698	-0.106192
O13	O	0.488541	0.524912	-0.035390
Zr14	Zr	0.518045	0.706782	0.075668
Zr15	Zr	0.407129	0.706750	-0.075644
Zr16	Zr	0.518046	0.555473	0.075667
Zr17	Zr	0.518051	0.555462	-0.075643
Zr18	Zr	0.407124	0.706761	0.075666
O19	O	0.585527	0.678574	0.047450
O20	O	0.427819	0.678529	-0.167696
O21	O	0.585529	0.463432	0.047448
O22	O	0.497355	0.798836	0.167720
O23	O	0.339646	0.798791	-0.047425
O24	O	0.497356	0.583694	0.167719
O25	O	0.427814	0.798808	-0.047424
O26	O	0.585523	0.678582	0.167721
O27	O	0.585524	0.583711	0.167720
O28	O	0.497359	0.798828	0.047449
O29	O	0.497368	0.583670	-0.167695
O30	O	0.427807	0.678553	0.167718
O31	O	0.427806	0.798823	0.167719
O32	O	0.339643	0.798798	0.047447
O33	O	0.585532	0.463425	-0.047424
O34	O	0.585531	0.583695	-0.047423
O35	O	0.488535	0.666525	0.106215
O36	O	0.436634	0.737311	0.035413
O37	O	0.488540	0.666515	-0.035389
O38	O	0.540441	0.595728	0.035413
C39	C	0.323842	0.631086	0.000009
C40	C	0.276752	0.631077	0.000009
C41	C	0.462581	0.631125	0.189277
C42	C	0.462579	0.631130	0.253512
C43	C	0.462586	0.820376	0.000013
C44	C	0.462586	0.884610	0.000013
C45	C	-0.042374	0.668076	-0.036940
C46	C	-0.219370	0.668090	-0.036940
O47	O	-0.265297	0.699541	-0.068346
N48	N	-0.214408	0.631139	0.000017
C49	C	-0.165193	0.594186	0.036980
O50	O	-0.165034	0.562764	0.068420
C51	C	0.011801	0.594176	0.036983
C52	C	0.006836	0.631123	0.000018
C53	C	-0.047338	0.705021	-0.073901
C54	C	-0.003092	0.705013	-0.073904
C55	C	0.046119	0.668061	-0.036946
C56	C	0.051082	0.631116	0.000015
C57	C	0.061015	0.557227	0.073950
C58	C	0.105264	0.557230	0.073949
C59	C	0.100299	0.594177	0.036984
C60	C	0.144539	0.594157	0.036971
N61	N	0.139577	0.631108	0.000014
C62	C	0.090367	0.668060	-0.036944
C63	C	-0.258119	0.594193	0.036974
C64	C	-0.302368	0.594194	0.036973
C65	C	-0.356542	0.668099	-0.036946
C66	C	-0.312292	0.668094	-0.036948
C67	C	-0.263081	0.631144	0.000018
C68	C	0.183290	0.668042	-0.036948
C69	C	0.227542	0.668029	-0.036950
C70	C	0.281712	0.594127	0.036972
C71	C	0.237464	0.594136	0.036971
C72	C	0.188251	0.631099	0.000010
O73	O	0.190481	0.562730	0.068367
O74	O	0.090219	0.699491	-0.068366
C75	C	-0.086621	0.668083	-0.036937
C76	C	-0.081657	0.631138	0.000024
C77	C	-0.032447	0.594186	0.036982
C78	C	-0.125906	0.631139	0.000022
C79	C	-0.175116	0.668091	-0.036936
C80	C	-0.180077	0.705042	-0.073893
C81	C	-0.135831	0.705035	-0.073895
C82	C	-0.027486	0.557235	0.073939
C83	C	-0.071734	0.557244	0.073938
C84	C	-0.120944	0.594197	0.036980
C85	C	0.601333	0.631137	0.000014
C86	C	0.648422	0.631146	0.000014
C87	C	0.462589	0.441847	0.000010
C88	C	0.462589	0.377613	0.000010
C89	C	0.435496	0.951739	0.036974
C90	C	0.435492	1.012094	0.036971
C91	C	0.462589	1.005317	0.000016
C92	C	0.489680	0.938176	-0.036954
C93	C	0.489679	0.877823	-0.036955
C94	C	0.507974	1.072627	0.005296
C95	C	0.507977	1.132981	0.005302
C96	C	0.462594	1.191464	0.000016
C97	C	0.417208	1.189594	-0.005263
C98	C	0.417206	1.129241	-0.005264
C99	C	0.462594	1.070756	0.000013
C100	C	0.435498	1.324039	0.036975
C101	C	0.435493	1.384394	0.036966
C102	C	0.489686	1.310475	-0.036954
C103	C	0.489685	1.250122	-0.036950
C104	C	0.462593	1.256909	0.000018
C105	C	0.489667	0.668098	0.320643
C106	C	0.489672	0.668092	0.380999
C107	C	0.462580	0.631128	0.374219
C108	C	0.435490	0.594152	0.307075
C109	C	0.435490	0.594153	0.246721
C110	C	0.417200	0.636393	0.441523
C111	C	0.417198	0.636397	0.501877
C112	C	0.462582	0.631120	0.560367
C113	C	0.507966	0.625854	0.558503
C114	C	0.507965	0.625855	0.498150
C115	C	0.462577	0.631122	0.439658
C116	C	0.489678	0.668084	0.692946
C117	C	0.489685	0.668073	0.753301
C118	C	0.435498	0.594137	0.679375
C119	C	0.435496	0.594143	0.619022
C120	C	0.462585	0.631120	0.625812
C121	C	0.462593	0.631101	0.810747
C122	C	0.462593	0.631107	0.746516
C123	C	0.323848	0.631072	-0.189256
C124	C	0.276761	0.631059	-0.253492
C125	C	0.323840	0.820350	0.000011
C126	C	0.276751	0.884576	0.000010
C127	C	0.462580	0.820389	0.189278
C128	C	0.462577	0.884629	0.253513
C129	C	0.462595	0.441834	-0.189255
C130	C	0.462598	0.377594	-0.253491
C131	C	0.601334	0.441873	0.000012
C132	C	0.648424	0.377647	0.000013
C133	C	0.601327	0.631151	0.189279
C134	C	0.648414	0.631164	0.253514
C135	C	0.281743	0.594097	-0.320621
C136	C	0.237504	0.594087	-0.380983
C137	C	0.188284	0.631035	-0.374214
C138	C	0.183303	0.668001	-0.307077
C139	C	0.227541	0.668015	-0.246717
C140	C	0.227541	0.877771	-0.036955
C141	C	0.183291	0.938113	-0.036969
C142	C	0.188252	1.005257	-0.000014
C143	C	0.237467	1.012060	0.036952
C144	C	0.281716	0.951720	0.036962
C145	C	0.435484	0.951752	0.246721
C146	C	0.435484	1.012118	0.307071
C147	C	0.462573	1.005358	0.374213
C148	C	0.489670	0.938227	0.381004
C149	C	0.489673	0.877863	0.320655
C150	C	0.489696	0.310471	-0.246698
C151	C	0.489710	0.250105	-0.307048
C152	C	0.462623	0.256865	-0.374190
C153	C	0.435524	0.323996	-0.380981
C154	C	0.435513	0.384360	-0.320632
C155	C	0.697634	0.384452	0.036971
C156	C	0.741883	0.324110	0.036969
C157	C	0.736922	0.256966	0.000012
C158	C	0.687707	0.250163	-0.036952
C159	C	0.643459	0.310503	-0.036953
C160	C	0.697625	0.594209	0.246723
C161	C	0.741873	0.594207	0.307073
C162	C	0.736907	0.631166	0.374215
C163	C	0.687691	0.668122	0.381005
C164	C	0.643444	0.668119	0.320655
H165	H	0.223494	0.698115	-0.067053
Br166	Br	0.462564	1.087288	0.456110
H167	H	0.511752	0.304953	-0.192033
Br168	Br	0.220794	0.786654	-0.087116
H169	H	0.772940	0.631162	0.423350
H170	H	0.683655	0.698212	0.435680
H171	H	0.511732	0.698196	0.435668
Br172	Br	0.526433	0.929065	0.472131
H173	H	0.413440	1.066760	0.067082
H174	H	-0.220153	0.735127	-0.103989
H175	H	0.065069	0.527142	0.104051
Br176	Br	0.220771	0.718172	-0.155614
Br177	Br	0.348499	0.960967	0.087138
Br178	Br	0.569555	0.618704	0.495617
Br179	Br	0.526490	0.159009	-0.297815
Br180	Br	0.704381	0.475569	0.087131
Br181	Br	0.398729	0.475454	-0.329863
Br182	Br	0.116507	0.928863	-0.087139
Br183	Br	0.808668	0.333360	0.087139
Br184	Br	0.680983	0.159032	-0.087102
H185	H	0.152218	1.054385	-0.000027
Br186	Br	0.348536	0.543955	-0.329828
H187	H	0.143222	0.698084	-0.301576
H188	H	0.380253	1.237214	-0.009566
Br189	Br	0.355608	0.643538	0.504399
Br190	Br	0.796980	0.175081	0.000021
Br191	Br	0.244191	1.103191	0.087105
H192	H	0.511740	0.698187	0.698475
H193	H	0.603392	0.304953	-0.067047
Br194	Br	0.398729	0.960952	0.087148
H195	H	0.413423	0.957270	0.192056
Br196	Br	0.576659	0.718281	0.329886
Br197	Br	0.526444	0.786769	0.329886
Br198	Br	0.116508	0.718208	-0.087107
Br199	Br	0.704378	0.544047	0.155609
H200	H	0.413436	0.564043	0.564359
Br201	Br	0.398706	1.103214	0.297838
Br202	Br	0.526457	0.718240	0.844414
Br203	Br	0.462643	0.174935	-0.456087
Br204	Br	0.355615	1.126703	-0.012426
Br205	Br	0.526453	0.928976	-0.087110
Br206	Br	0.398763	0.333158	-0.472108
H207	H	-0.007140	0.735101	-0.104002
H208	H	0.413435	1.329566	0.067073
Br209	Br	0.398719	1.475503	0.087126
Br210	Br	0.808660	0.544046	0.297841
Br211	Br	0.244276	0.543914	-0.472088
H212	H	-0.087405	0.735115	-0.103996
H213	H	-0.316340	0.698180	-0.067047
H214	H	0.511748	1.195462	-0.067044
H215	H	0.145334	0.527139	0.104050
Br216	Br	0.128251	0.631010	-0.456140
H217	H	0.413441	0.564037	0.673853
H218	H	-0.298318	0.564099	0.067064
Br219	Br	-0.423335	0.718249	-0.087104
Br220	Br	0.244202	0.543981	0.087125
Br221	Br	-0.191335	0.544043	0.087149
H222	H	0.413431	0.564048	0.192058
Br223	Br	-0.142579	0.755179	-0.124066
Br224	Br	0.348504	0.543979	0.087126
H225	H	0.544930	1.134492	0.009585
Br226	Br	-0.064986	0.507092	0.124105
H227	H	0.012580	0.527145	0.104037
H228	H	0.511746	1.304955	-0.067047
H229	H	0.544932	1.025008	0.009598
H230	H	0.511739	0.823162	-0.067055
H231	H	0.544922	0.621553	0.606126
Br232	Br	0.355603	0.643550	0.362144
Br233	Br	0.526438	0.718269	0.329861
Br234	Br	0.398726	0.543979	0.297871
