data_functionalizedCrystal
_audit_creation_method	'MofGen! by Chris Wilmer'
_symmetry_space_group_name_H-M	'P1'
_symmetry_Int_Tables_number	1
_symmetry_cell_setting	triclinic
loop_
_symmetry_equiv_pos_as_xyz
  x,y,z
_cell_length_a	12.645331
_cell_length_b	12.645330
_cell_length_c	12.645323
_cell_angle_alpha	90.024870
_cell_angle_beta	89.981990
_cell_angle_gamma	89.981897
loop_
_atom_site_label
_atom_site_type_symbol
_atom_site_fract_x
_atom_site_fract_y
_atom_site_fract_z
Zn1	Zn	1.620731	0.422019	-0.599314
Zn2	Zn	1.620613	0.599307	-0.422054
Zn3	Zn	1.443446	0.422060	-0.422073
Zn4	Zn	1.443428	0.599243	-0.599284
O5	O	1.532054	0.510657	-0.510681
O6	O	1.769063	0.445547	-0.575805
O7	O	1.597069	0.575839	-0.273710
O8	O	1.467020	0.273707	-0.445605
O9	O	1.768976	0.575800	-0.445573
O10	O	1.597271	0.273677	-0.575823
O11	O	1.466905	0.445616	-0.273723
O12	O	1.295096	0.445553	-0.445576
O13	O	1.466989	0.575690	-0.747636
O14	O	1.295083	0.575729	-0.575772
O15	O	1.597253	0.445484	-0.747658
O16	O	1.597052	0.747646	-0.445544
O17	O	1.466874	0.747598	-0.575754
C18	C	1.256625	0.510639	-0.510673
C19	C	1.138795	0.510657	-0.510695
C20	C	1.531977	0.786087	-0.510667
C21	C	1.532041	0.903917	-0.510696
C22	C	1.093940	0.592690	-0.592481
C23	C	0.971380	0.593027	-0.592239
C24	C	0.970841	0.540495	-0.398838
C25	C	1.093439	0.541074	-0.399312
C26	C	1.093648	0.398611	-0.539787
C27	C	0.971043	0.399230	-0.542250
C28	C	1.532132	0.510575	-0.787187
C29	C	1.532166	0.510540	-0.905017
C30	C	1.808560	0.510676	-0.510690
C31	C	1.926390	0.510685	-0.510694
C32	C	1.532161	0.234152	-0.510720
C33	C	1.532206	0.116322	-0.510736
C34	C	1.450484	1.071495	-0.592863
C35	C	1.450067	0.948936	-0.592599
C36	C	1.501796	0.948511	-0.398976
C37	C	1.501298	1.071110	-0.399475
C38	C	1.644342	1.071006	-0.539342
C39	C	1.643654	0.948399	-0.541785
C40	C	1.449964	0.592066	-1.072567
C41	C	1.450179	0.592470	-0.950007
C42	C	1.643865	0.540858	-0.949528
C43	C	1.643414	0.541369	-1.072126
C44	C	1.503724	0.398241	-1.072217
C45	C	1.501232	0.398914	-0.949611
C46	C	1.532038	0.510662	-0.235252
C47	C	1.532210	0.510399	-0.117422
H48	H	0.941327	0.574431	-0.675164
O49	O	1.392350	0.368611	-0.911080
H50	H	1.397476	0.294326	-0.864636
O51	O	1.132101	0.317659	-0.460905
H52	H	1.178215	0.255742	-0.502733
H53	H	1.706788	0.483256	-0.920387
H54	H	1.367350	0.573498	-0.919912
O55	O	1.134651	0.362517	-0.646005
H56	H	1.187668	0.424044	-0.679249
O57	O	1.676412	0.648324	-0.908887
H58	H	1.617790	0.708312	-0.934758
O59	O	1.475050	0.908979	-0.702344
H60	H	1.487544	0.977223	-0.756084
H61	H	1.671932	1.101849	-0.619422
H62	H	1.469234	1.100907	-0.675975
H63	H	1.367871	1.102396	-0.574155
H64	H	1.705227	1.099993	-0.479525
O65	O	1.728556	0.907848	-0.468293
H66	H	1.692366	0.855122	-0.408192
H67	H	1.563628	0.337395	-1.101226
O68	O	1.727280	0.465963	-1.111486
H69	H	1.785589	0.509936	-1.160161
O70	O	1.394346	0.907971	-0.366288
H71	H	1.340091	0.975842	-0.353722
H72	H	1.666463	0.919248	-0.624004
O73	O	1.574786	0.314045	-0.909062
H74	H	1.634812	0.350263	-0.856261
H75	H	1.123110	0.483878	-0.336284
H76	H	1.558238	1.100766	-0.336197
H77	H	0.942021	0.676061	-0.572938
O78	O	1.339959	0.910196	-0.567470
H79	H	1.286804	0.979028	-0.555450
O80	O	1.392722	1.109133	-0.367378
H81	H	1.333203	1.078810	-0.424305
O82	O	1.397701	0.361634	-1.113134
H83	H	1.364124	0.422980	-1.166154
H84	H	1.366889	0.573277	-1.102048
H85	H	1.559431	0.919352	-0.336113
O86	O	1.474582	0.701513	-1.113428
H87	H	1.545148	0.697998	-1.165535
O88	O	1.131290	0.649544	-0.366751
H89	H	1.062030	0.701094	-0.350820
H90	H	1.667559	0.623359	-1.100735
O91	O	1.133029	0.568347	-0.702676
H92	H	1.220715	0.572029	-0.704040
H93	H	1.468983	0.675618	-0.920692
O94	O	1.134700	0.702048	-0.567236
H95	H	1.066946	0.755413	-0.550810
H96	H	0.940419	0.334887	-0.487071
O97	O	0.932251	0.463779	-0.315898
H98	H	0.844548	0.465734	-0.312866
O99	O	0.930134	0.647782	-0.365696
H100	H	0.956001	0.708062	-0.423994
O101	O	0.932547	0.369414	-0.651279
H102	H	0.881818	0.433698	-0.682870
