data_functionalizedCrystal
_audit_creation_method	'MofGen! by Chris Wilmer'
_symmetry_space_group_name_H-M	'P1'
_symmetry_Int_Tables_number	1
_symmetry_cell_setting	triclinic
loop_
_symmetry_equiv_pos_as_xyz
  x,y,z
_cell_length_a	10.654556
_cell_length_b	11.792254
_cell_length_c	9.130313
_cell_angle_alpha	89.998555
_cell_angle_beta	89.999332
_cell_angle_gamma	84.343003
loop_
_atom_site_label
_atom_site_type_symbol
_atom_site_fract_x
_atom_site_fract_y
_atom_site_fract_z
O1	O	1.667387	0.159447	-0.121815
O2	O	1.301867	0.174628	-0.121815
O3	O	1.493489	0.001889	-0.121804
O4	O	1.475765	0.332186	-0.121825
O5	O	1.493486	0.001893	0.121794
O6	O	1.301865	0.174633	0.121784
O7	O	1.667384	0.159452	0.121784
Cu8	Cu	1.484624	0.167043	0.144027
Cu9	Cu	1.484627	0.167037	-0.144057
O10	O	1.475763	0.332191	0.121774
C11	C	1.255071	0.173514	-0.000015
C12	C	1.115637	0.170175	-0.000015
C13	C	0.919122	0.165473	-0.132812
C14	C	1.050135	0.168604	-0.132806
C15	C	1.050121	0.168603	0.132779
C16	C	0.919111	0.165464	0.132771
C17	C	0.919130	0.165479	-0.286146
C18	C	1.050144	0.168610	-0.286140
C19	C	1.492371	-0.040402	-0.000005
C20	C	1.489029	-0.166423	-0.000007
C21	C	1.486314	-0.268766	-0.000012
C22	C	1.482919	-0.397161	-0.000026
C23	C	1.714180	0.160565	-0.000019
C24	C	1.853614	0.163905	-0.000029
C25	C	1.476880	0.374482	-0.000029
C26	C	1.480222	0.500503	-0.000037
N27	N	1.484631	0.167046	0.346649
N28	N	1.484630	0.167025	-0.346680
C29	C	1.569503	0.090583	0.423306
C30	C	1.569500	0.090569	0.576643
C31	C	1.399749	0.243491	0.576653
C32	C	1.399747	0.243499	0.423319
C33	C	1.667512	0.002298	0.423301
C34	C	1.667508	0.002284	0.576638
H35	H	0.894529	0.085339	-0.345019
C36	C	1.739975	-0.162985	0.281894
C37	C	1.638871	-0.115460	0.367099
H38	H	1.722289	-0.235682	0.247203
H39	H	1.751755	-0.114512	0.200997
H40	H	1.814447	-0.171009	0.339709
H41	H	1.564400	-0.107429	0.309280
H42	H	1.627077	-0.163945	0.448007
H43	H	1.758618	0.029944	0.375741
C44	C	1.147233	0.343443	-0.269181
C45	C	1.083393	0.276796	-0.365595
H46	H	1.167768	0.410225	-0.318235
H47	H	1.094801	0.364282	-0.187458
H48	H	1.222440	0.301022	-0.236485
H49	H	1.008182	0.319214	-0.398284
H50	H	1.135827	0.255958	-0.447345
C51	C	1.103898	0.072161	0.359148
C52	C	1.122122	0.170319	0.278746
H53	H	1.148354	0.073220	0.449259
H54	H	1.016507	0.070081	0.378145
H55	H	1.134496	0.006612	0.304572
H56	H	1.091515	0.235868	0.333318
H57	H	1.209531	0.172410	0.259753
H58	H	1.102075	0.087772	-0.333714
C59	C	1.231949	0.394644	0.438737
C60	C	1.306446	0.327542	0.339057
H61	H	1.174352	0.446534	0.386714
H62	H	1.186466	0.347008	0.498539
H63	H	1.284509	0.435915	0.498546
H64	H	1.253886	0.286265	0.279254
H65	H	1.351932	0.375185	0.279230
C66	C	0.718284	0.160609	0.250685
C67	C	0.847106	0.163707	0.278729
H68	H	0.673836	0.159512	0.340799
H69	H	0.687690	0.226172	0.196156
H70	H	0.705961	0.094029	0.196099
H71	H	0.859430	0.230292	0.333306
H72	H	0.877709	0.098138	0.333281
H73	H	0.867201	0.246312	-0.333728
H74	H	1.330637	0.305736	0.639094
C75	C	1.504345	-0.123785	0.593443
C76	C	1.626665	-0.109027	0.640821
H77	H	1.479144	-0.192511	0.633056
H78	H	1.447976	-0.061330	0.625604
H79	H	1.502966	-0.127543	0.489533
H80	H	1.628042	-0.105261	0.744731
H81	H	1.683049	-0.171499	0.608668
H82	H	1.763965	0.021733	0.618253
