data_functionalizedCrystal
_audit_creation_method	'MofGen! by Chris Wilmer'
_symmetry_space_group_name_H-M	'P1'
_symmetry_Int_Tables_number	1
_symmetry_cell_setting	triclinic
loop_
_symmetry_equiv_pos_as_xyz
  x,y,z
_cell_length_a	6.817900
_cell_length_b	15.185311
_cell_length_c	10.992743
_cell_angle_alpha	93.511770
_cell_angle_beta	108.770538
_cell_angle_gamma	104.261569
loop_
_atom_site_label
_atom_site_type_symbol
_atom_site_fract_x
_atom_site_fract_y
_atom_site_fract_z
V1	V	-4.091310	-0.125728	-0.400966
O2	O	-4.073531	0.006070	-0.392945
O3	O	-4.046293	-0.249324	-0.398596
O4	O	-4.069278	-0.123781	-0.575671
O5	O	-4.050387	-0.120342	-0.214645
V6	V	-4.571083	-0.109965	-0.378635
O7	O	-4.360795	-0.160305	-0.449950
O8	O	-4.751795	-0.075387	-0.329651
O9	O	-4.392893	0.013632	-0.381004
O10	O	-4.706258	-0.241763	-0.386656
O11	O	-4.729402	-0.115350	-0.564956
O12	O	-4.369908	-0.111911	-0.203930
C13	C	-3.891264	-0.279455	-0.392367
C14	C	-3.935920	-0.380497	-0.391595
C15	C	-4.066403	-0.794765	-0.270667
C16	C	-4.183306	-0.820693	-0.506070
C17	C	-4.141320	-0.725757	-0.506789
C18	C	-4.061876	-0.665321	-0.389445
C19	C	-4.024418	-0.699820	-0.271383
C20	C	-4.178795	-0.691251	-0.624850
C21	C	-4.136811	-0.596311	-0.625574
C22	C	-4.057351	-0.535872	-0.508228
C23	C	-4.019891	-0.570377	-0.390161
C24	C	-3.940447	-0.509941	-0.272817
C25	C	-3.902970	-0.544443	-0.154747
C26	C	-3.944958	-0.639382	-0.154037
C27	C	-4.015364	-0.440933	-0.508938
C28	C	-3.898462	-0.414996	-0.273532
C29	C	-3.920582	-0.119311	-0.618241
C30	C	-3.983875	-0.118537	-0.761066
C31	C	-4.295448	-0.123271	-0.972174
C32	C	-4.229580	-0.123727	-0.823543
C33	C	-3.850033	-0.028329	-0.791570
C34	C	-3.917248	-0.027494	-0.940210
C35	C	-4.007868	-0.201025	-0.979001
C36	C	-3.946819	-0.203077	-0.830793
C37	C	-4.211264	0.043758	-0.387230
C38	C	-4.145847	0.144799	-0.388011
C39	C	-4.181945	-0.116384	-0.161353
C40	C	-4.097891	-0.117153	-0.018527
H41	H	-3.833759	-0.365793	-0.177974
O42	O	-4.155125	-0.281807	-1.044289
C43	C	-4.069473	-0.355500	-1.006616
H44	H	-3.885661	-0.329768	-0.966878
H45	H	-4.123896	-0.411209	-1.094410
H46	H	-4.129603	-0.385113	-0.928098
H47	H	-3.874383	0.034470	-0.742589
O48	O	-3.739714	-0.017562	-0.975028
C49	C	-3.584560	0.065783	-0.908038
H50	H	-3.667985	0.114973	-0.877126
H51	H	-3.498213	0.097964	-0.974579
H52	H	-3.462023	0.051806	-0.818243
H53	H	-4.432456	-0.187759	-1.025004
H54	H	-3.838294	-0.495224	-0.059207
H55	H	-4.045913	-0.412846	-0.605070
O56	O	-3.908369	-0.672743	-0.039237
C57	C	-3.829297	-0.599047	0.064183
H58	H	-3.752849	-0.533567	0.031408
H59	H	-3.702975	-0.614956	0.150133
H60	H	-3.968121	-0.589026	0.094636
H61	H	-3.771627	-0.204544	-0.789051
O62	O	-4.255705	-0.749855	-0.738907
C63	C	-4.106916	-0.730169	-0.804580
H64	H	-4.001772	-0.656087	-0.769599
H65	H	-4.198123	-0.739769	-0.913650
H66	H	-4.000541	-0.778732	-0.783595
O67	O	-4.066050	-0.282545	-0.809194
C68	C	-4.182599	-0.261845	-0.731445
H69	H	-4.099041	-0.189669	-0.674128
H70	H	-4.189344	-0.313705	-0.661116
H71	H	-4.353655	-0.265424	-0.796220
H72	H	-4.364428	-0.063031	-0.998724
H73	H	-4.035885	-0.822861	-0.174538
H74	H	-3.669713	-0.021245	-0.749682
H75	H	-4.266371	-0.063455	-0.777115
H76	H	-3.975068	0.035936	-0.963109
O77	O	-3.832301	-0.196573	-1.014263
C78	C	-3.790831	-0.118046	-1.074304
H79	H	-3.945168	-0.096421	-1.114663
H80	H	-3.732768	-0.134640	-1.157015
H81	H	-3.661025	-0.059579	-0.999788
O82	O	-4.260390	-0.879521	-0.619931
C83	C	-4.289474	-0.970717	-0.593985
H84	H	-4.181343	-0.970935	-0.490499
H85	H	-4.245171	-1.012622	-0.665456
H86	H	-4.465420	-1.002337	-0.605019
O87	O	-4.173557	-0.562917	-0.740353
C88	C	-4.393471	-0.598374	-0.817875
H89	H	-4.465379	-0.665079	-0.785918
H90	H	-4.409226	-0.612503	-0.924152
H91	H	-4.483634	-0.546213	-0.806243
H92	H	-4.333950	-0.188563	-0.804139
