data_functionalizedCrystal
_audit_creation_method	'MofGen! by Chris Wilmer'
_symmetry_space_group_name_H-M	'P1'
_symmetry_Int_Tables_number	1
_symmetry_cell_setting	triclinic
loop_
_symmetry_equiv_pos_as_xyz
  x,y,z
_cell_length_a	16.109302
_cell_length_b	10.654551
_cell_length_c	15.186229
_cell_angle_alpha	89.999082
_cell_angle_beta	89.994701
_cell_angle_gamma	83.973571
loop_
_atom_site_label
_atom_site_type_symbol
_atom_site_fract_x
_atom_site_fract_y
_atom_site_fract_z
O1	O	1.104090	0.161423	-0.073263
O2	O	1.604090	0.661423	0.426737
O3	O	0.862148	0.181511	-0.073255
O4	O	1.362148	0.681511	0.426745
O5	O	0.988681	-0.011348	-0.073259
O6	O	1.488681	0.488652	0.426741
O7	O	0.977557	0.354281	-0.073258
O8	O	1.477557	0.854281	0.426742
O9	O	0.988673	-0.011350	0.073198
O10	O	1.488673	0.488650	0.573198
O11	O	0.862139	0.181508	0.073202
O12	O	1.362139	0.681508	0.573202
O13	O	1.104082	0.161420	0.073195
O14	O	1.604082	0.661420	0.573195
Zn15	Zn	0.983109	0.171464	0.096452
Zn16	Zn	1.483109	0.671464	0.596452
Zn17	Zn	0.983121	0.171467	-0.096512
Zn18	Zn	1.483121	0.671467	0.403488
O19	O	0.977548	0.354279	0.073199
O20	O	1.477548	0.854279	0.573199
C21	C	0.831164	0.180695	-0.000025
C22	C	1.331164	0.680695	0.499975
C23	C	0.738854	0.178255	-0.000023
C24	C	1.238854	0.678255	0.499977
C25	C	0.526475	0.172612	0.079802
C26	C	1.026475	0.672612	0.579802
C27	C	0.439741	0.170306	0.079799
C28	C	0.939741	0.670306	0.579799
C29	C	0.439761	0.170315	-0.079877
C30	C	0.939761	0.670315	0.420123
C31	C	0.526494	0.172612	-0.079873
C32	C	1.026494	0.672612	0.420127
C33	C	0.569848	0.173767	-0.000031
C34	C	1.069848	0.673767	0.499969
C35	C	0.396382	0.169164	-0.000038
C36	C	0.896382	0.669164	0.499962
C37	C	0.302341	0.166664	-0.000042
C38	C	0.802341	0.666664	0.499958
C39	C	0.663895	0.176265	-0.000026
C40	C	1.163895	0.676265	0.499974
C41	C	0.987860	-0.058136	-0.000033
C42	C	1.487860	0.441864	0.499967
C43	C	0.985416	-0.197546	-0.000039
C44	C	1.485416	0.302454	0.499961
C45	C	0.984274	-0.263041	-0.079871
C46	C	1.484274	0.236959	0.420129
C47	C	0.981970	-0.394030	-0.079867
C48	C	1.481970	0.105970	0.420133
C49	C	0.981954	-0.394018	0.079809
C50	C	1.481954	0.105982	0.579809
C51	C	0.984252	-0.263030	0.079804
C52	C	1.484252	0.236970	0.579804
C53	C	0.985438	-0.197556	-0.159713
C54	C	1.485438	0.302444	0.340287
C55	C	0.984297	-0.263052	-0.239552
C56	C	1.484297	0.236948	0.260448
C57	C	0.981993	-0.394041	-0.239548
C58	C	1.481993	0.105959	0.260452
C59	C	0.980830	-0.459535	-0.159705
C60	C	1.480830	0.040465	0.340295
C61	C	1.135066	0.162236	-0.000037
C62	C	1.635066	0.662236	0.499963
C63	C	1.227376	0.164676	-0.000045
C64	C	1.727376	0.664676	0.499955
C65	C	0.978370	0.401067	-0.000030
C66	C	1.478370	0.901067	0.499970
C67	C	0.980814	0.540477	-0.000029
C68	C	1.480814	1.040477	0.499971
N69	N	0.983108	0.171460	0.228144
N70	N	1.483108	0.671460	0.728144
N71	N	0.983129	0.171461	-0.228205
N72	N	1.483129	0.671461	0.271795
C73	C	1.039156	0.086092	0.453865
C74	C	1.539156	0.586092	0.953865
C75	C	1.039159	0.086089	0.546055
C76	C	1.539159	0.586089	1.046055
C77	C	0.927074	0.256834	0.546068
C78	C	1.427074	0.756834	1.046068
C79	C	0.927068	0.256830	0.453880
C80	C	1.427068	0.756830	0.953880
C81	C	0.983114	0.171460	0.407781
C82	C	1.483114	0.671460	0.907781
C83	C	0.983122	0.171461	0.592159
C84	C	1.483122	0.671461	1.092159
C85	C	0.983125	0.171458	0.692115
C86	C	1.483125	0.671458	1.192115
C87	C	0.983111	0.171461	0.307819
C88	C	1.483111	0.671461	0.807819
H89	H	0.561810	0.173550	-0.144886
H90	H	1.061810	0.673550	0.355114
H91	H	0.561772	0.173552	0.144815
H92	H	1.061772	0.673552	0.644815
H93	H	0.987316	-0.090899	-0.159726
H94	H	1.487316	0.409101	0.340274
H95	H	0.881428	0.326347	0.416356
H96	H	1.381428	0.826347	0.916356
H97	H	0.985236	-0.209716	-0.304557
H98	H	1.485236	0.290284	0.195443
H99	H	0.404431	0.169366	0.144807
H100	H	0.904431	0.669366	0.644807
H101	H	0.404451	0.169377	-0.144881
H102	H	0.904451	0.669377	0.355119
H103	H	0.981055	-0.447362	-0.304557
H104	H	1.481055	0.052638	0.195443
H105	H	0.978942	-0.566192	-0.159708
H106	H	1.478942	-0.066192	0.340292
H107	H	0.981008	-0.447354	0.144813
H108	H	1.481008	0.052646	0.644813
H109	H	0.985164	-0.209700	0.144810
H110	H	1.485164	0.290300	0.644810
H111	H	1.084791	0.016577	0.416334
H112	H	1.584791	0.516577	0.916334
H113	H	1.084792	0.016573	0.583574
H114	H	1.584792	0.516573	1.083574
H115	H	0.881444	0.326341	0.583611
H116	H	1.381444	0.826341	1.083611
