data_functionalizedCrystal
_audit_creation_method	'MofGen! by Chris Wilmer'
_symmetry_space_group_name_H-M	'P1'
_symmetry_Int_Tables_number	1
_symmetry_cell_setting	triclinic
loop_
_symmetry_equiv_pos_as_xyz
  x,y,z
_cell_length_a	19.077105
_cell_length_b	17.640280
_cell_length_c	19.076919
_cell_angle_alpha	81.491119
_cell_angle_beta	90.076224
_cell_angle_gamma	76.093206
loop_
_atom_site_label
_atom_site_type_symbol
_atom_site_fract_x
_atom_site_fract_y
_atom_site_fract_z
Zn1	Zn	1.129876	-0.382634	-0.374495
Zn2	Zn	1.158314	-0.509803	-0.235079
Zn3	Zn	1.015111	-0.372039	-0.254114
Zn4	Zn	1.036046	-0.509326	-0.347913
O5	O	1.084837	-0.443450	-0.302900
O6	O	1.232847	-0.404137	-0.359159
O7	O	1.142458	-0.487294	-0.140002
O8	O	1.009672	-0.262768	-0.289173
O9	O	1.253740	-0.497568	-0.256731
O10	O	1.093989	-0.270552	-0.377617
O11	O	1.037247	-0.386079	-0.153987
O12	O	0.918689	-0.385616	-0.263398
O13	O	1.045353	-0.496755	-0.449041
O14	O	0.934070	-0.486481	-0.332312
O15	O	1.114289	-0.403674	-0.468571
O16	O	1.162758	-0.620416	-0.230956
O17	O	1.072929	-0.620066	-0.313855
C18	C	0.900659	-0.434848	-0.297037
C19	C	0.821869	-0.431187	-0.294542
C20	C	1.123220	-0.648940	-0.267471
C21	C	1.139704	-0.736853	-0.252340
C22	C	0.792897	-0.482056	-0.329166
C23	C	0.718864	-0.478606	-0.326827
C24	C	0.673806	-0.424291	-0.289859
C25	C	0.702782	-0.373417	-0.255233
C26	C	0.776813	-0.376864	-0.257577
C27	C	0.451534	-0.408341	-0.279014
C28	C	0.377499	-0.404900	-0.276671
C29	C	0.393586	-0.510088	-0.348266
C30	C	0.467618	-0.513532	-0.350603
C31	C	0.496587	-0.462656	-0.315981
N32	N	0.598132	-0.420765	-0.287465
N33	N	0.572258	-0.466178	-0.318379
C34	C	0.959888	-1.025193	-0.418115
C35	C	0.975380	-1.107800	-0.403874
C36	C	1.068973	-1.108106	-0.317643
C37	C	1.053491	-1.025498	-0.331879
C38	C	0.998948	-0.984048	-0.382115
C39	C	1.092551	-0.984353	-0.295879
C40	C	1.077068	-0.901751	-0.310111
C41	C	1.022525	-0.860295	-0.360343
C42	C	0.983465	-0.901447	-0.396347
C43	C	1.147091	-1.025804	-0.245640
C44	C	1.186150	-0.984658	-0.209640
C45	C	1.170671	-0.902056	-0.223875
C46	C	1.116128	-0.860600	-0.274107
C47	C	1.209731	-0.860904	-0.187872
C48	C	1.194248	-0.778303	-0.202104
C49	C	1.100645	-0.777998	-0.288339
C50	C	1.269734	-0.452087	-0.308787
C51	C	1.348526	-0.455768	-0.311295
C52	C	1.078984	-0.451343	-0.484821
C53	C	1.076490	-0.454707	-0.562344
C54	C	1.046323	-0.237160	-0.338484
C55	C	1.029910	-0.149252	-0.353647
C56	C	1.111208	-0.407827	-0.608934
C57	C	1.108856	-0.410984	-0.681775
C58	C	1.071789	-0.461025	-0.708026
C59	C	1.037067	-0.507907	-0.661431
C60	C	1.039416	-0.504745	-0.588591
C61	C	1.060912	-0.475673	-0.924783
C62	C	1.058568	-0.478833	-0.997629
C63	C	1.130356	-0.381909	-1.017969
C64	C	1.132705	-0.378755	-0.945126
C65	C	1.097980	-0.425634	-0.898538
N66	N	1.069386	-0.464255	-0.782482
N67	N	1.100379	-0.422399	-0.824084
C68	C	1.090696	-0.435533	-0.121699
C69	C	1.093286	-0.431953	-0.044218
H70	H	0.829580	-0.526287	-0.359267
H71	H	1.113380	-1.141866	-0.276739
H72	H	0.800399	-0.335437	-0.229387
H73	H	1.137129	-0.372812	-0.719706
O74	O	1.164198	-0.336456	-1.063182
C75	C	1.276883	-0.304622	-1.095912
C76	C	1.238653	-0.356167	-1.044669
H77	H	1.337084	-0.320528	-1.080953
H78	H	1.268900	-0.315480	-1.152492
H79	H	1.252951	-0.239650	-1.092198
H80	H	1.262560	-0.421156	-1.048320
H81	H	1.246631	-0.345242	-0.988110
H82	H	0.943577	-1.141299	-0.433202
O83	O	1.022500	-0.527462	-1.023015
C84	C	0.951577	-0.623296	-0.995154
C85	C	0.992379	-0.568248	-0.966311
H86	H	0.927226	-0.656299	-0.949322
H87	H	0.906597	-0.586767	-1.034315
H88	H	0.990751	-0.667620	-1.023183
H89	H	0.953261	-0.523914	-0.938249
H90	H	1.037369	-0.604828	-0.927186
H91	H	0.504301	-0.557763	-0.380705
O92	O	1.005705	-0.550208	-0.543237
C93	C	0.977543	-0.588326	-0.422002
C94	C	1.015741	-0.536786	-0.473287
H95	H	0.985656	-0.577505	-0.365435
H96	H	0.917314	-0.572383	-0.436845
H97	H	1.001424	-0.653296	-0.425761
H98	H	0.991919	-0.471801	-0.469555
H99	H	1.075968	-0.552796	-0.458429
O100	O	1.232206	-0.738250	-0.167248
C101	C	1.310756	-0.649005	-0.177072
C102	C	1.267789	-0.694305	-0.216640
H103	H	1.339548	-0.613477	-0.216986
H104	H	1.272202	-0.607219	-0.146218
H105	H	1.352370	-0.692834	-0.138706
H106	H	1.226174	-0.650535	-0.255041
H107	H	1.306388	-0.736103	-0.247447
H108	H	1.159697	-1.093063	-0.234056
O109	O	0.365320	-0.559420	-0.381888
C110	C	0.258409	-0.600762	-0.409978
C111	C	0.290321	-0.544835	-0.371879
H112	H	0.197771	-0.589001	-0.401887
H113	H	0.268538	-0.590086	-0.469090
H114	H	0.285310	-0.664651	-0.387119
H115	H	0.263440	-0.480926	-0.394679
H116	H	0.280201	-0.555580	-0.312770
H117	H	1.230557	-1.018418	-0.168736
H118	H	1.006884	-0.548648	-0.682810
H119	H	1.254135	-0.894665	-0.146965
H120	H	1.141394	-0.367081	-0.587566
O121	O	1.168607	-0.330013	-0.919693
C122	C	1.178627	-0.196112	-0.921789
C123	C	1.137894	-0.251226	-0.950625
H124	H	1.153822	-0.132404	-0.946796
H125	H	1.174336	-0.201818	-0.861728
H126	H	1.237920	-0.213328	-0.935530
H127	H	1.078587	-0.234047	-0.936936
H128	H	1.142245	-0.245513	-1.010679
O129	O	0.930436	-0.861087	-0.445069
C130	C	0.816936	-0.763884	-0.467382
C131	C	0.876944	-0.809520	-0.412139
H132	H	0.773665	-0.722194	-0.440777
H133	H	0.840977	-0.728221	-0.511577
H134	H	0.791718	-0.807501	-0.490685
H135	H	0.902185	-0.765959	-0.388781
H136	H	0.852863	-0.845195	-0.367987
H137	H	1.032649	-0.513857	-0.886858
H138	H	0.695279	-0.520029	-0.355021
H139	H	0.475112	-0.366919	-0.250816
O140	O	0.658917	-0.320722	-0.219332
C141	C	0.537733	-0.268756	-0.184032
C142	C	0.587329	-0.328485	-0.224702
H143	H	0.479842	-0.275001	-0.188372
H144	H	0.556609	-0.280774	-0.125837
H145	H	0.540031	-0.206229	-0.207822
H146	H	0.585055	-0.391035	-0.200972
H147	H	0.568437	-0.316398	-0.282894
O148	O	0.333644	-0.352077	-0.240874
C149	C	0.230445	-0.240936	-0.247464
C150	C	0.280040	-0.300726	-0.288077
H151	H	0.187103	-0.199393	-0.285613
H152	H	0.203657	-0.273914	-0.203602
H153	H	0.263897	-0.205202	-0.223112
H154	H	0.246640	-0.336477	-0.312473
H155	H	0.306831	-0.267701	-0.331901
H156	H	1.056235	-0.744249	-0.329252
H157	H	1.009915	-0.793035	-0.371925
O158	O	0.907001	-0.984891	-0.467002
C159	C	0.876884	-0.895205	-0.576897
C160	C	0.936846	-0.940821	-0.521599
H161	H	0.900988	-0.859551	-0.621045
H162	H	0.851628	-0.938763	-0.600250
H163	H	0.833629	-0.853487	-0.550300
H164	H	0.980146	-0.982540	-0.548143
H165	H	0.962045	-0.897219	-0.498250
