data_functionalizedCrystal
_audit_creation_method	'MofGen! by Chris Wilmer'
_symmetry_space_group_name_H-M	'P1'
_symmetry_Int_Tables_number	1
_symmetry_cell_setting	triclinic
loop_
_symmetry_equiv_pos_as_xyz
  x,y,z
_cell_length_a	23.532407
_cell_length_b	19.188930
_cell_length_c	17.666332
_cell_angle_alpha	89.989658
_cell_angle_beta	89.996086
_cell_angle_gamma	82.996730
loop_
_atom_site_label
_atom_site_type_symbol
_atom_site_fract_x
_atom_site_fract_y
_atom_site_fract_z
O1	O	-0.755443	-0.084756	0.062862
O2	O	-0.589606	-0.097020	0.062886
O3	O	-0.677310	0.010783	0.062858
O4	O	-0.667739	-0.192559	0.062889
O5	O	-0.677295	0.010786	-0.063038
O6	O	-0.589591	-0.097017	-0.063011
O7	O	-0.755428	-0.084753	-0.063035
Cu8	Cu	-0.672508	-0.090885	-0.074518
Cu9	Cu	-0.672526	-0.090888	0.074369
O10	O	-0.667724	-0.192556	-0.063007
C11	C	-0.568382	-0.096706	-0.000060
C12	C	-0.505163	-0.095767	-0.000052
C13	C	-0.676993	0.036794	-0.000092
C14	C	-0.676062	0.114296	-0.000098
C15	C	-0.776652	-0.085067	-0.000087
C16	C	-0.839871	-0.086006	-0.000091
C17	C	-0.106183	-0.153674	-0.000077
C18	C	-0.046780	-0.152801	-0.000082
O19	O	-0.010150	-0.206481	-0.000101
N20	N	-0.024018	-0.088713	-0.000090
C21	C	-0.060662	-0.025492	-0.000102
O22	O	-0.035846	0.029100	-0.000110
C23	C	-0.120062	-0.026365	-0.000102
C24	C	-0.142821	-0.090458	-0.000086
C25	C	-0.128942	-0.217761	-0.000062
C26	C	-0.188340	-0.218633	-0.000056
C27	C	-0.224979	-0.155417	-0.000065
C28	C	-0.202219	-0.091330	-0.000080
C29	C	-0.156705	0.036855	-0.000119
C30	C	-0.216109	0.035976	-0.000121
C31	C	-0.238868	-0.028116	-0.000104
C32	C	-0.298256	-0.028986	-0.000083
N33	N	-0.321018	-0.093075	-0.000075
C34	C	-0.284379	-0.156290	-0.000065
C35	C	0.064085	-0.023664	-0.000102
C36	C	0.123485	-0.022790	-0.000096
C37	C	0.137362	-0.150099	-0.000077
C38	C	0.077961	-0.150972	-0.000078
C39	C	0.041323	-0.087752	-0.000093
C40	C	-0.409120	-0.158117	-0.000052
C41	C	-0.468524	-0.158983	-0.000043
C42	C	-0.482396	-0.031674	-0.000065
C43	C	-0.422997	-0.030807	-0.000070
C44	C	-0.386360	-0.094034	-0.000066
O45	O	-0.334921	0.024666	-0.000067
O46	O	-0.309203	-0.210874	-0.000067
C47	C	-0.668041	-0.218568	-0.000055
C48	C	-0.668972	-0.296069	-0.000044
N49	N	-0.672499	-0.090882	-0.179238
C50	C	-0.727524	0.159384	-0.000109
C51	C	-0.726650	0.232205	-0.000097
C52	C	-0.674311	0.259935	-0.000089
C53	C	-0.622842	0.214837	-0.000074
C54	C	-0.623718	0.142017	-0.000079
N55	N	-0.634299	0.367813	-0.042929
N56	N	-0.633471	0.436989	-0.042926
C57	C	-0.671670	0.479335	-0.000073
N58	N	-0.710737	0.449893	0.042766
N59	N	-0.711567	0.380711	0.042760
C60	C	-0.673356	0.338894	-0.000084
C61	C	-0.722188	0.603384	-0.000070
C62	C	-0.721311	0.676206	-0.000053
C63	C	-0.617502	0.658836	-0.000038
C64	C	-0.618380	0.586016	-0.000047
C65	C	-0.670724	0.558295	-0.000067
C66	C	-0.706928	-0.133017	-0.218839
C67	C	-0.706937	-0.133015	-0.298087
C68	C	-0.672507	-0.090886	-0.337730
C69	C	-0.638076	-0.048742	-0.298118
C70	C	-0.638072	-0.048740	-0.218872
N71	N	-0.622629	-0.089325	-0.462163
N72	N	-0.622634	-0.089331	-0.537443
C73	C	-0.672517	-0.090888	-0.576494
N74	N	-0.722395	-0.092453	-0.537420
N75	N	-0.722389	-0.092451	-0.462132
C76	C	-0.672507	-0.090883	-0.423659
C77	C	-0.706959	-0.133024	-0.702025
C78	C	-0.706970	-0.133017	-0.781274
C79	C	-0.638102	-0.048747	-0.781304
C80	C	-0.638097	-0.048750	-0.702056
C81	C	-0.672525	-0.090892	-0.662422
N82	N	-0.672539	-0.090886	0.179089
H83	H	-0.487050	-0.211177	-0.000029
C84	C	-0.777923	0.725804	-0.000066
H85	H	-0.809220	0.698862	-0.000086
H86	H	-0.779749	0.754563	0.043838
H87	H	-0.779728	0.754580	-0.043973
H88	H	-0.576474	0.549304	-0.000042
H89	H	-0.764810	0.580813	-0.000083
C90	C	-0.744805	-0.179373	-0.341658
H91	H	-0.765305	-0.204474	-0.306703
H92	H	-0.771089	-0.150606	-0.372579
H93	H	-0.721377	-0.211651	-0.372564
C94	C	-0.783259	0.281814	-0.000114
H95	H	-0.775239	0.329152	-0.000105
H96	H	-0.804720	0.273456	-0.044024
H97	H	-0.804738	0.273443	0.043788
H98	H	0.167204	-0.201573	-0.000073
C99	C	-0.368828	-0.227665	-0.000037
H100	H	-0.390897	-0.265953	-0.000019
H101	H	-0.345363	-0.229981	-0.043939
H102	H	-0.345371	-0.229970	0.043873
C103	C	-0.744802	-0.179366	-0.175245
H104	H	-0.765311	-0.204456	-0.210185
H105	H	-0.721383	-0.211643	-0.144326
H106	H	-0.771086	-0.150585	-0.144336
H107	H	-0.138185	0.089046	-0.000133
C108	C	-0.213367	-0.289136	-0.000053
H109	H	-0.183032	-0.326654	-0.000057
H110	H	-0.236254	-0.292135	0.043848
H111	H	-0.236245	-0.292119	-0.043964
C112	C	-0.600201	-0.002403	-0.341722
H113	H	-0.605130	-0.008444	-0.394591
H114	H	-0.610902	0.045437	-0.328747
H115	H	-0.561201	-0.015623	-0.328736
C116	C	-0.522705	0.037858	-0.000081
H117	H	-0.561340	0.028154	-0.000085
H118	H	-0.515829	0.064163	0.043813
H119	H	-0.515821	0.064149	-0.043998
C120	C	-0.600194	-0.002394	-0.175309
H121	H	-0.579686	0.022696	-0.210265
H122	H	-0.623608	0.029883	-0.144393
H123	H	-0.573908	-0.031176	-0.144398
H124	H	-0.099116	-0.269242	-0.000057
H125	H	-0.734992	-0.167338	-0.669753
H126	H	-0.735010	-0.167326	-0.813516
H127	H	0.059435	-0.203162	-0.000069
C128	C	-0.600229	-0.002406	-0.824901
H129	H	-0.605159	-0.008444	-0.877770
H130	H	-0.610929	0.045433	-0.811922
H131	H	-0.561229	-0.015627	-0.811919
H132	H	0.142009	0.029401	-0.000097
C133	C	-0.600218	-0.002409	-0.658492
H134	H	-0.579709	0.022678	-0.693450
H135	H	-0.623632	0.029870	-0.627579
H136	H	-0.573933	-0.031191	-0.627579
C137	C	-0.559928	0.689327	-0.000026
H138	H	-0.529404	0.652041	-0.000017
H139	H	-0.557422	0.717384	-0.043924
H140	H	-0.557436	0.717360	0.043887
C141	C	0.023787	0.045883	-0.000102
H142	H	0.045856	0.084172	-0.000099
H143	H	0.000325	0.048200	-0.044003
H144	H	0.000328	0.048187	0.043809
H145	H	-0.404466	0.021383	-0.000072
C146	C	-0.256410	0.105518	-0.000136
H147	H	-0.295048	0.095825	-0.000137
H148	H	-0.249526	0.131817	0.043760
H149	H	-0.249524	0.131811	-0.044052
C150	C	-0.785099	0.128891	-0.000128
H151	H	-0.778252	0.079064	-0.000136
H152	H	-0.806291	0.144384	0.043769
H153	H	-0.806271	0.144402	-0.044043
C154	C	-0.565269	0.245333	-0.000062
H155	H	-0.534744	0.208047	-0.000050
H156	H	-0.562761	0.273387	-0.043962
H157	H	-0.562779	0.273369	0.043849
C158	C	-0.567107	0.092418	-0.000074
H159	H	-0.535809	0.119359	-0.000071
H160	H	-0.565296	0.063637	0.043825
H161	H	-0.565287	0.063664	-0.043987
