data_functionalizedCrystal
_audit_creation_method	'MofGen! by Chris Wilmer'
_symmetry_space_group_name_H-M	'P1'
_symmetry_Int_Tables_number	1
_symmetry_cell_setting	triclinic
loop_
_symmetry_equiv_pos_as_xyz
  x,y,z
_cell_length_a	16.956995
_cell_length_b	13.101039
_cell_length_c	16.992695
_cell_angle_alpha	86.408978
_cell_angle_beta	83.361347
_cell_angle_gamma	93.108940
loop_
_atom_site_label
_atom_site_type_symbol
_atom_site_fract_x
_atom_site_fract_y
_atom_site_fract_z
O1	O	1.064197	0.085286	0.027767
O2	O	1.564197	0.585286	0.527767
O3	O	0.833786	0.085273	0.055181
O4	O	1.333786	0.585273	0.555181
O5	O	0.948067	0.085271	-0.072609
O6	O	1.448067	0.585271	0.427391
O7	O	0.949915	0.085287	0.155556
O8	O	1.449915	0.585287	0.655556
O9	O	0.939868	-0.085159	-0.063426
O10	O	1.439868	0.414841	0.436574
O11	O	0.825587	-0.085157	0.064364
O12	O	1.325587	0.414843	0.564364
O13	O	1.055998	-0.085144	0.036950
O14	O	1.555998	0.414856	0.536950
Zn15	Zn	0.939491	-0.112210	0.052115
Zn16	Zn	1.439491	0.387790	0.552115
Zn17	Zn	0.950293	0.112339	0.040016
Zn18	Zn	1.450293	0.612339	0.540016
O19	O	0.941717	-0.085142	0.164739
O20	O	1.441717	0.414858	0.664739
C21	C	0.800068	0.000056	0.061176
C22	C	1.300068	0.500056	0.561176
C23	C	0.711813	0.000051	0.065349
C24	C	1.211813	0.500051	0.565349
C25	C	0.214504	0.000091	0.096565
C26	C	0.714504	0.500091	0.596565
C27	C	0.297429	0.000090	0.092638
C28	C	0.797429	0.500090	0.592638
C29	C	0.343819	0.000077	0.018926
C30	C	0.843819	0.500077	0.518926
C31	C	0.307281	0.000076	-0.050864
C32	C	0.807281	0.500076	0.449136
C33	C	0.224358	0.000084	-0.046936
C34	C	0.724358	0.500084	0.453064
C35	C	0.592352	0.000058	-0.000513
C36	C	1.092352	0.500058	0.499487
C37	C	0.675280	0.000046	-0.004435
C38	C	1.175280	0.500046	0.495565
C39	C	0.665422	0.000063	0.139067
C40	C	1.165422	0.500063	0.639067
C41	C	0.582498	0.000065	0.142988
C42	C	1.082498	0.500065	0.642988
C43	C	0.545967	0.000069	0.073198
C44	C	1.045967	0.500069	0.573198
N45	N	0.428582	0.000073	0.014911
N46	N	0.928582	0.500073	0.514911
N47	N	0.461206	0.000081	0.077214
N48	N	0.961206	0.500081	0.577214
N49	N	0.932124	-0.265458	0.060371
N50	N	1.432124	0.234542	0.560371
C51	C	0.922103	-0.474501	0.071611
C52	C	1.422103	0.025499	0.571611
C53	C	0.967685	-0.525377	0.020515
C54	C	1.467685	-0.025377	0.520515
C55	C	0.962108	-0.641695	0.026769
C56	C	1.462108	-0.141695	0.526769
C57	C	0.927678	-0.358172	0.065358
C58	C	1.427678	0.141828	0.565358
C59	C	1.089716	0.000075	0.030954
C60	C	1.589716	0.500075	0.530954
C61	C	1.177971	0.000087	0.026781
C62	C	1.677971	0.500087	0.526781
C63	C	0.941591	0.000056	-0.097076
C64	C	1.441591	0.500056	0.402924
C65	C	0.934501	0.000056	-0.183660
C66	C	1.434501	0.500056	0.316340
N67	N	0.957665	0.265587	0.031753
N68	N	1.457665	0.765587	0.531753
C69	C	1.002916	0.000059	-0.238335
C70	C	1.502916	0.500059	0.261665
C71	C	0.996249	0.000068	-0.319690
C72	C	1.496249	0.500068	0.180310
C73	C	0.921166	0.000067	-0.346368
C74	C	1.421166	0.500067	0.153632
C75	C	0.852746	0.000068	-0.291687
C76	C	1.352746	0.500068	0.208313
C77	C	0.859414	0.000066	-0.210334
C78	C	1.359414	0.500066	0.289666
C79	C	0.893531	0.000080	-0.588176
C80	C	1.393531	0.500080	-0.088176
C81	C	0.886869	0.000079	-0.669535
C82	C	1.386869	0.500079	-0.169535
C83	C	1.030372	0.000081	-0.697533
C84	C	1.530372	0.500081	-0.197533
C85	C	1.037033	0.000073	-0.616176
C86	C	1.537033	0.500073	-0.116176
C87	C	0.968613	0.000079	-0.561503
C88	C	1.468613	0.500079	-0.061503
N89	N	0.914350	0.000074	-0.429526
N90	N	1.414350	0.500074	0.070474
N91	N	0.975431	0.000080	-0.478347
N92	N	1.475431	0.500080	0.021653
C93	C	0.948193	0.000075	0.189206
C94	C	1.448193	0.500075	0.689206
C95	C	0.955284	0.000082	0.275790
C96	C	1.455284	0.500082	0.775790
H97	H	0.544732	0.000079	0.203013
H98	H	1.044732	0.500079	0.703013
Br99	Br	0.766562	0.000070	-0.136131
Br100	Br	1.266562	0.500070	0.363869
Br101	Br	1.040064	-0.452379	-0.059917
Br102	Br	1.540064	0.047621	0.440083
H103	H	1.064056	0.000053	-0.216620
H104	H	1.564056	0.500053	0.283380
Br105	Br	0.750848	0.000084	-0.327893
Br106	Br	1.250848	0.500084	0.172107
H107	H	0.837819	0.000084	-0.543669
H108	H	1.337819	0.500084	-0.043669
H109	H	0.878894	-0.518297	0.120050
H110	H	1.378894	-0.018297	0.620050
H111	H	0.345059	0.000071	-0.110882
H112	H	0.845059	0.500071	0.389118
H113	H	1.086075	0.000079	-0.742056
H114	H	1.586075	0.500079	-0.242056
Br115	Br	0.542786	0.000093	-0.095231
Br116	Br	1.042786	0.500093	0.404769
H117	H	1.051960	0.000068	-0.364204
H118	H	1.551960	0.500068	0.135796
Br119	Br	0.784963	0.000067	-0.705740
Br120	Br	1.284963	0.500067	-0.205740
H121	H	0.327170	0.000104	0.149464
H122	H	0.827170	0.500104	0.649464
H123	H	0.695175	0.000061	0.195887
H124	H	1.195175	0.500061	0.695887
H125	H	1.098173	0.000074	-0.594462
H126	H	1.598173	0.500074	-0.094462
H127	H	0.176738	0.000094	0.156590
H128	H	0.676738	0.500094	0.656590
H129	H	0.194615	0.000082	-0.103763
H130	H	0.694615	0.500082	0.396237
H131	H	0.713050	0.000041	-0.064464
H132	H	1.213050	0.500041	0.435536
