data_functionalizedCrystal
_audit_creation_method	'MofGen! by Chris Wilmer'
_symmetry_space_group_name_H-M	'P1'
_symmetry_Int_Tables_number	1
_symmetry_cell_setting	triclinic
loop_
_symmetry_equiv_pos_as_xyz
  x,y,z
_cell_length_a	8.559649
_cell_length_b	11.026607
_cell_length_c	7.681481
_cell_angle_alpha	82.996689
_cell_angle_beta	94.913240
_cell_angle_gamma	89.182341
loop_
_atom_site_label
_atom_site_type_symbol
_atom_site_fract_x
_atom_site_fract_y
_atom_site_fract_z
O1	O	2.097103	-0.027535	-0.146401
O2	O	1.649454	0.033500	-0.146409
O3	O	1.836178	-0.170213	-0.146399
O4	O	1.910379	0.176178	-0.146411
O5	O	1.859146	-0.195338	0.146460
O6	O	1.672422	0.008376	0.146450
O7	O	2.120071	-0.052659	0.146458
Zn8	Zn	1.899893	-0.026131	0.192952
Zn9	Zn	1.869632	0.006971	-0.192903
O10	O	1.933347	0.151054	0.146448
C11	C	1.602739	0.025563	0.000020
C12	C	1.429318	0.039332	0.000016
C13	C	1.833973	-0.226711	0.000028
C14	C	1.793166	-0.357621	0.000021
C15	C	1.905841	-0.441927	0.000020
C16	C	1.863667	-0.577231	0.000013
C17	C	2.166786	-0.044722	0.000026
C18	C	2.340205	-0.058490	0.000017
C19	C	1.935551	0.207552	0.000017
C20	C	1.976358	0.338463	0.000013
N21	N	1.920557	-0.048724	0.456287
N22	N	1.848978	0.029554	-0.456238
H23	H	1.372932	0.133621	0.000004
O24	O	2.058101	-0.408345	0.000104
C25	C	2.066310	-0.280724	0.000062
H26	H	1.957478	-0.245335	0.055502
H27	H	2.072645	-0.235038	-0.140437
C28	C	2.347405	-0.294305	0.046822
C29	C	2.213741	-0.250841	0.114930
H30	H	2.438350	-0.275870	0.117671
H31	H	2.341876	-0.380285	0.046844
H32	H	2.352662	-0.256229	-0.070259
H33	H	2.208475	-0.288928	0.231999
H34	H	2.219272	-0.164866	0.114930
O35	O	1.762009	0.124919	0.453867
C36	C	1.858139	0.199082	0.347243
H37	H	1.964138	0.142937	0.319784
H38	H	1.899513	0.279371	0.418184
C39	C	1.633879	0.316433	0.205761
C40	C	1.764062	0.247473	0.172023
H41	H	1.575848	0.346289	0.097680
H42	H	1.569114	0.266473	0.277600
H43	H	1.668377	0.383332	0.264882
H44	H	1.729563	0.180567	0.112924
H45	H	1.828820	0.297424	0.100170
O46	O	1.711277	-0.610517	-0.000307
C47	C	1.624891	-0.550884	-0.151957
H48	H	1.707664	-0.523850	-0.257964
H49	H	1.563822	-0.465471	-0.117661
C50	C	1.399549	-0.670842	-0.090544
C51	C	1.501210	-0.637648	-0.220749
H52	H	1.323251	-0.724359	-0.132975
H53	H	1.457745	-0.711016	0.011630
H54	H	1.348674	-0.599657	-0.061975
H55	H	1.552097	-0.708831	-0.249300
H56	H	1.443019	-0.597488	-0.322930
O57	O	2.007614	-0.144189	0.545806
C58	C	1.944935	-0.254947	0.500930
H59	H	1.874565	-0.237779	0.367039
H60	H	1.864986	-0.293038	0.604667
C61	C	2.165951	-0.368759	0.657086
C62	C	2.079533	-0.347674	0.492633
H63	H	2.248975	-0.425959	0.651976
H64	H	2.208177	-0.294139	0.687327
H65	H	2.099311	-0.400495	0.743517
H66	H	2.146168	-0.315924	0.406210
H67	H	2.037321	-0.422290	0.462377
H68	H	2.104043	-0.633543	-0.000117
H69	H	1.396583	-0.152771	0.000012
H70	H	1.665478	-0.385611	0.000007
