data_functionalizedCrystal
_audit_creation_method	'MofGen! by Chris Wilmer'
_symmetry_space_group_name_H-M	'P1'
_symmetry_Int_Tables_number	1
_symmetry_cell_setting	triclinic
loop_
_symmetry_equiv_pos_as_xyz
  x,y,z
_cell_length_a	23.532407
_cell_length_b	15.944551
_cell_length_c	14.421503
_cell_angle_alpha	90.003141
_cell_angle_beta	89.999621
_cell_angle_gamma	96.826292
loop_
_atom_site_label
_atom_site_type_symbol
_atom_site_fract_x
_atom_site_fract_y
_atom_site_fract_z
O1	O	0.073442	-1.113910	-0.077025
O2	O	0.406775	-0.780577	0.256309
O3	O	0.740109	-0.447244	0.589642
O4	O	0.082498	-0.869284	-0.077049
O5	O	0.415831	-0.535951	0.256284
O6	O	0.749164	-0.202618	0.589618
O7	O	-0.004933	-0.998974	-0.077019
O8	O	0.328400	-0.665641	0.256314
O9	O	0.661733	-0.332307	0.589648
O10	O	0.160873	-0.984221	-0.077055
O11	O	0.494206	-0.650887	0.256279
O12	O	0.827540	-0.317554	0.589612
O13	O	-0.004920	-0.998953	0.077204
O14	O	0.328413	-0.665619	0.410538
O15	O	0.661746	-0.332286	0.743871
O16	O	0.082511	-0.869263	0.077174
O17	O	0.415844	-0.535930	0.410508
O18	O	0.749177	-0.202596	0.743841
O19	O	0.073455	-1.113889	0.077199
O20	O	0.406788	-0.780556	0.410532
O21	O	0.740122	-0.447222	0.743865
Cu22	Cu	0.077984	-0.991574	0.091268
Cu23	Cu	0.411317	-0.658241	0.424602
Cu24	Cu	0.744651	-0.324907	0.757935
Cu25	Cu	0.077969	-0.991599	-0.091119
Cu26	Cu	0.411302	-0.658266	0.242215
Cu27	Cu	0.744635	-0.324933	0.575548
O28	O	0.160886	-0.984199	0.077169
O29	O	0.494219	-0.650866	0.410502
O30	O	0.827553	-0.317533	0.743836
C31	C	0.082128	-0.837983	0.000060
C32	C	0.415461	-0.504650	0.333393
C33	C	0.748795	-0.171316	0.666727
C34	C	0.081001	-0.744746	0.000051
C35	C	0.414334	-0.411413	0.333385
C36	C	0.747668	-0.078080	0.666718
C37	C	-0.026144	-0.998588	0.000095
C38	C	0.307189	-0.665254	0.333428
C39	C	0.640522	-0.331921	0.666762
C40	C	-0.089366	-0.997458	0.000102
C41	C	0.243968	-0.664125	0.333435
C42	C	0.577301	-0.330791	0.666769
N43	N	0.077994	-0.991562	0.219550
N44	N	0.411328	-0.658229	0.552883
N45	N	0.744661	-0.324896	0.886216
C46	C	-0.488199	-1.067121	0.000058
C47	C	-0.154866	-0.733788	0.333391
C48	C	0.178468	-0.400454	0.666725
C49	C	-0.547603	-1.066072	0.000051
C50	C	-0.214270	-0.732738	0.333384
C51	C	0.119063	-0.399405	0.666718
O52	O	-0.584098	-1.130650	0.000023
O53	O	-0.250764	-0.797317	0.333356
O54	O	0.082569	-0.463983	0.666690
N55	N	-0.570528	-0.988971	0.000044
N56	N	-0.237195	-0.655638	0.333377
N57	N	0.096139	-0.322305	0.666711
C58	C	-0.534045	-0.912915	0.000035
C59	C	-0.200712	-0.579582	0.333368
C60	C	0.132622	-0.246249	0.666701
O61	O	-0.558999	-0.847239	0.000027
O62	O	-0.225666	-0.513906	0.333361
O63	O	0.107667	-0.180572	0.666694
C64	C	-0.474642	-0.913965	0.000035
C65	C	-0.141309	-0.580632	0.333368
C66	C	0.192025	-0.247299	0.666702
C67	C	-0.451721	-0.991071	0.000052
C68	C	-0.118387	-0.657737	0.333385
C69	C	0.214946	-0.324404	0.666718
C70	C	-0.465277	-1.144220	0.000073
C71	C	-0.131944	-0.810887	0.333407
C72	C	0.201390	-0.477554	0.666740
C73	C	-0.405877	-1.145269	0.000082
C74	C	-0.072543	-0.811936	0.333416
C75	C	0.260790	-0.478603	0.666749
C76	C	-0.369399	-1.069219	0.000076
C77	C	-0.036065	-0.735886	0.333409
C78	C	0.297268	-0.402552	0.666742
C79	C	-0.392320	-0.992120	0.000060
C80	C	-0.058987	-0.658786	0.333394
C81	C	0.274346	-0.325453	0.666727
C82	C	-0.438160	-0.837910	0.000019
C83	C	-0.104827	-0.504577	0.333353
C84	C	0.228507	-0.171243	0.666686
C85	C	-0.378754	-0.838967	0.000019
C86	C	-0.045420	-0.505634	0.333352
C87	C	0.287913	-0.172300	0.666686
C88	C	-0.355832	-0.916072	0.000035
C89	C	-0.022499	-0.582739	0.333369
C90	C	0.310834	-0.249406	0.666702
C91	C	-0.296442	-0.917118	0.000063
C92	C	0.036891	-0.583785	0.333396
C93	C	0.370225	-0.250452	0.666729
N94	N	-0.273517	-0.994219	0.000070
N95	N	0.059816	-0.660886	0.333403
N96	N	0.393150	-0.327552	0.666736
C97	C	-0.309995	-1.070269	0.000076
C98	C	0.023338	-0.736936	0.333410
C99	C	0.356671	-0.403602	0.666743
C100	C	-0.658796	-0.910716	0.000032
C101	C	-0.325463	-0.577382	0.333365
C102	C	0.007870	-0.244049	0.666699
C103	C	-0.718198	-0.909664	0.000038
C104	C	-0.384865	-0.576331	0.333371
C105	C	-0.051531	-0.242998	0.666705
C106	C	-0.731752	-1.062821	0.000053
C107	C	-0.398419	-0.729488	0.333386
C108	C	-0.065086	-0.396155	0.666719
C109	C	-0.672349	-1.063872	0.000053
C110	C	-0.339016	-0.730538	0.333386
C111	C	-0.005682	-0.397205	0.666720
C112	C	-0.635871	-0.987816	0.000039
C113	C	-0.302538	-0.654483	0.333372
C114	C	0.030795	-0.321149	0.666706
C115	C	-0.185250	-1.072466	0.000096
C116	C	0.148083	-0.739133	0.333429
C117	C	0.481417	-0.405800	0.666762
C118	C	-0.125844	-1.073508	0.000108
C119	C	0.207489	-0.740175	0.333442
C120	C	0.540823	-0.406842	0.666775
C121	C	-0.112295	-0.920352	0.000089
C122	C	0.221038	-0.587019	0.333422
C123	C	0.554371	-0.253685	0.666756
C124	C	-0.171696	-0.919309	0.000081
C125	C	0.161637	-0.585976	0.333415
C126	C	0.494971	-0.252643	0.666748
C127	C	-0.208173	-0.995373	0.000081
C128	C	0.125161	-0.662040	0.333415
C129	C	0.458494	-0.328707	0.666748
O130	O	-0.259913	-0.852574	0.000087
O131	O	0.073421	-0.519241	0.333420
O132	O	0.406754	-0.185907	0.666753
O133	O	-0.285033	-1.135935	0.000072
O134	O	0.048300	-0.802601	0.333405
O135	O	0.381634	-0.469268	0.666738
C136	C	0.182097	-0.984586	0.000053
C137	C	0.515430	-0.651252	0.333386
C138	C	0.848764	-0.317919	0.666719
C139	C	0.245318	-0.985715	0.000040
C140	C	0.578652	-0.652382	0.333373
C141	C	0.911985	-0.319049	0.666706
C142	C	0.073824	-1.145190	0.000088
C143	C	0.407158	-0.811857	0.333421
C144	C	0.740491	-0.478524	0.666755
C145	C	0.074951	-1.238427	0.000090
C146	C	0.408285	-0.905094	0.333424
C147	C	0.741618	-0.571760	0.666757
C148	C	0.024113	-0.530369	0.000081
C149	C	0.357447	-0.197036	0.333415
C150	C	0.690780	0.136298	0.666748
C151	C	0.050524	-0.469137	-0.075964
C152	C	0.383857	-0.135804	0.257369
C153	C	0.717190	0.197530	0.590702
C154	C	0.078962	-0.574038	0.000063
C155	C	0.412295	-0.240704	0.333396
C156	C	0.745629	0.092629	0.666729
C157	C	0.050550	-0.469138	0.076088
C158	C	0.383883	-0.135805	0.409421
C159	C	0.717216	0.197529	0.742754
C160	C	0.076989	-0.409142	0.000078
C161	C	0.410322	-0.075808	0.333411
C162	C	0.743655	0.257525	0.666744
C163	C	0.105388	-0.514034	-0.076046
C164	C	0.438721	-0.180700	0.257287
C165	C	0.772054	0.152633	0.590621
C166	C	0.105406	-0.514041	0.076075
C167	C	0.438739	-0.180708	0.409408
C168	C	0.772072	0.152626	0.742741
C169	C	0.131856	-0.452826	0.000010
C170	C	0.465189	-0.119493	0.333343
C171	C	0.798523	0.213841	0.666677
C172	C	0.080097	-0.669030	0.000053
C173	C	0.413431	-0.335697	0.333387
C174	C	0.746764	-0.002364	0.666720
C175	C	0.075858	-0.314150	0.000081
C176	C	0.409191	0.019183	0.333414
C177	C	0.742524	0.352517	0.666747
N178	N	0.077954	-0.991618	-0.219400
N179	N	0.411287	-0.658285	0.113933
N180	N	0.744620	-0.324951	0.447267
C181	C	0.118404	-0.931583	0.469190
C182	C	0.451738	-0.598250	0.802523
C183	C	0.785071	-0.264917	1.135856
C184	C	0.129461	-1.007390	0.530997
C185	C	0.462794	-0.674057	0.864330
C186	C	0.796127	-0.340724	1.197664
C187	C	0.077981	-0.991583	0.408711
C188	C	0.411314	-0.658249	0.742044
C189	C	0.744647	-0.324916	1.075378
C190	C	0.066938	-0.915795	0.530998
C191	C	0.400271	-0.582462	0.864331
C192	C	0.733604	-0.249129	1.197664
C193	C	0.077969	-0.991596	0.591433
C194	C	0.411302	-0.658262	0.924766
C195	C	0.744636	-0.324929	1.258099
C196	C	0.089063	-1.067428	0.469158
C197	C	0.422396	-0.734094	0.802491
C198	C	0.755730	-0.400761	1.135824
C199	C	0.026517	-0.975783	0.469153
C200	C	0.359851	-0.642450	0.802486
C201	C	0.693184	-0.309117	1.135820
C202	C	0.037552	-1.051645	0.530932
C203	C	0.370885	-0.718312	0.864266
C204	C	0.704219	-0.384978	1.197599
C205	C	0.077989	-0.991574	0.303450
C206	C	0.411322	-0.658241	0.636783
C207	C	0.744656	-0.324907	0.970117
C208	C	0.077960	-0.991613	0.696691
C209	C	0.411294	-0.658280	1.030025
C210	C	0.744627	-0.324947	1.363358
H211	H	-0.107185	-1.136300	0.000124
H212	H	0.226148	-0.802966	0.333458
H213	H	0.559481	-0.469633	0.666791
O214	O	0.101501	-1.152352	0.433341
O215	O	0.434834	-0.819019	0.766674
O216	O	0.768168	-0.485686	1.100008
H217	H	0.101431	-1.151669	0.356381
H218	H	0.434765	-0.818335	0.689714
H219	H	0.768098	-0.485002	1.023047
O220	O	0.187093	-1.025125	0.567007
O221	O	0.520426	-0.691792	0.900340
O222	O	0.853759	-0.358458	1.233673
H223	H	0.186411	-1.025574	0.643962
H224	H	0.519744	-0.692241	0.977296
H225	H	0.853077	-0.358908	1.310629
H226	H	0.027320	-0.449231	-0.140246
H227	H	0.360653	-0.115898	0.193087
H228	H	0.693986	0.217435	0.526420
H229	H	0.027346	-0.449238	0.140377
H230	H	0.360679	-0.115905	0.473710
H231	H	0.694013	0.217428	0.807043
H232	H	-0.456812	-0.775123	0.000000
H233	H	-0.123478	-0.441789	0.333334
H234	H	0.209855	-0.108456	0.666667
H235	H	0.128591	-0.533968	0.140359
H236	H	0.461924	-0.200635	0.473693
H237	H	0.795257	0.132699	0.807026
O238	O	-0.504615	-1.226255	0.000095
O239	O	-0.171282	-0.892922	0.333429
O240	O	0.162052	-0.559589	0.666762
H241	H	-0.496459	-1.263195	-0.062750
H242	H	-0.163126	-0.929861	0.270583
H243	H	0.170208	-0.596528	0.603917
O244	O	-0.381162	-1.228437	0.000091
O245	O	-0.047829	-0.895103	0.333424
O246	O	0.285504	-0.561770	0.666758
H247	H	-0.333726	-1.216404	0.000099
H248	H	-0.000393	-0.883071	0.333433
H249	H	0.332940	-0.549737	0.666766
H250	H	0.177423	-0.419284	-0.000042
H251	H	0.510756	-0.085950	0.333291
H252	H	0.844089	0.247383	0.666624
H253	H	0.057603	-0.851698	0.558164
H254	H	0.390936	-0.518365	0.891497
H255	H	0.724269	-0.185031	1.224830
O256	O	-0.007737	-1.118928	0.566637
O257	O	0.325596	-0.785595	0.899970
O258	O	0.658930	-0.452261	1.233303
H259	H	0.001564	-1.181741	0.541738
H260	H	0.334897	-0.848408	0.875071
H261	H	0.668231	-0.515075	1.208404
H262	H	0.152617	-0.880895	0.442080
H263	H	0.485950	-0.547562	0.775413
H264	H	0.819283	-0.214228	1.108747
H265	H	-0.653691	-1.126658	0.000066
H266	H	-0.320358	-0.793324	0.333399
H267	H	0.012976	-0.459991	0.666732
H268	H	-0.349056	-0.777032	0.000006
H269	H	-0.015722	-0.443698	0.333339
H270	H	0.317611	-0.110365	0.666673
O271	O	-0.031105	-0.958040	0.433129
O272	O	0.302228	-0.624707	0.766462
O273	O	0.635561	-0.291373	1.099795
H274	H	-0.040170	-0.895057	0.457850
H275	H	0.293164	-0.561723	0.791183
H276	H	0.626497	-0.228390	1.124516
H277	H	-0.761464	-1.124746	0.000054
H278	H	-0.428131	-0.791412	0.333388
H279	H	-0.094797	-0.458079	0.666721
O280	O	-0.619452	-0.828680	0.000041
O281	O	-0.286119	-0.495346	0.333375
O282	O	0.047215	-0.162013	0.666708
H283	H	-0.645378	-0.774897	0.000048
H284	H	-0.312045	-0.441563	0.333382
H285	H	0.021289	-0.108230	0.666715
H286	H	-0.214943	-1.134405	0.000092
H287	H	0.118390	-0.801072	0.333426
H288	H	0.451724	-0.467738	0.666759
H289	H	-0.736855	-0.846878	0.000041
H290	H	-0.403522	-0.513544	0.333374
H291	H	-0.070188	-0.180211	0.666707
O292	O	-0.196425	-0.836149	0.000067
O293	O	0.136909	-0.502816	0.333400
O294	O	0.470242	-0.169482	0.666733
H295	H	-0.161076	-0.783444	0.000059
H296	H	0.172257	-0.450110	0.333393
H297	H	0.505590	-0.116777	0.666726
O298	O	-0.072946	-0.838327	0.000081
O299	O	0.260387	-0.504994	0.333414
O300	O	0.593720	-0.171661	0.666748
H301	H	-0.027790	-0.852018	0.000079
H302	H	0.305543	-0.518685	0.333412
H303	H	0.638876	-0.185352	0.666745
H304	H	0.128563	-0.533835	-0.140407
H305	H	0.461897	-0.200502	0.192926
H306	H	0.795230	0.132832	0.526260
H307	H	-0.021407	-0.564086	-0.000003
H308	H	0.311927	-0.230752	0.333331
H309	H	0.645260	0.102581	0.666664
