data_functionalizedCrystal
_audit_creation_method	'MofGen! by Chris Wilmer'
_symmetry_space_group_name_H-M	'P1'
_symmetry_Int_Tables_number	1
_symmetry_cell_setting	triclinic
loop_
_symmetry_equiv_pos_as_xyz
  x,y,z
_cell_length_a	16.625546
_cell_length_b	15.297475
_cell_length_c	15.299447
_cell_angle_alpha	110.792231
_cell_angle_beta	80.294948
_cell_angle_gamma	99.675296
loop_
_atom_site_label
_atom_site_type_symbol
_atom_site_fract_x
_atom_site_fract_y
_atom_site_fract_z
Zn1	Zn	-0.435987	-1.512814	-0.771470
Zn2	Zn	-0.590707	-1.485775	-0.615925
Zn3	Zn	-0.435969	-1.330368	-0.589098
Zn4	Zn	-0.550850	-1.357248	-0.744541
O5	O	-0.503379	-1.421551	-0.680258
O6	O	-0.473199	-1.639370	-0.773334
O7	O	-0.586854	-1.442594	-0.482217
O8	O	-0.323143	-1.354636	-0.613332
O9	O	-0.586871	-1.619505	-0.659056
O10	O	-0.323156	-1.488679	-0.747320
O11	O	-0.473169	-1.328418	-0.462507
O12	O	-0.434521	-1.203791	-0.587220
O13	O	-0.518940	-1.400450	-0.878262
O14	O	-0.518923	-1.223540	-0.701423
O15	O	-0.434551	-1.514743	-0.898047
O16	O	-0.698249	-1.468659	-0.632944
O17	O	-0.668966	-1.374231	-0.727437
C18	C	-0.472395	-1.179921	-0.638489
C19	C	-0.459157	-1.076554	-0.620642
C20	C	-0.712863	-1.421457	-0.680204
C21	C	-0.802488	-1.421506	-0.680227
C22	C	-0.472302	-1.463611	-0.922844
C23	C	-0.459059	-1.481535	-1.026220
C24	C	-1.130672	-1.421685	-0.680352
C25	C	-1.039361	-1.421633	-0.680319
C26	C	-0.966583	-1.421595	-0.680289
C27	C	-0.875266	-1.421544	-0.680257
C28	C	-0.293077	-1.421675	-0.680337
C29	C	-0.203458	-1.421728	-0.680371
C30	C	-0.534483	-1.664125	-0.722191
C31	C	-0.547739	-1.767496	-0.740061
C32	C	-0.598000	-0.826347	-0.807817
C33	C	-0.610444	-0.923465	-0.824582
C34	C	-0.572623	-0.961742	-0.773599
C35	C	-0.522356	-0.902892	-0.705846
C36	C	-0.509916	-0.805763	-0.689074
C37	C	-0.484539	-0.941158	-0.654856
C38	C	-0.434272	-0.882308	-0.587104
C39	C	-0.421834	-0.785190	-0.570335
C40	C	-0.459654	-0.746912	-0.621318
C41	C	-0.496980	-1.038287	-0.671629
C42	C	-0.408896	-1.017703	-0.552886
C43	C	-0.396451	-0.920585	-0.536120
C44	C	-0.597478	-1.294034	-1.276416
C45	C	-0.609916	-1.277185	-1.179288
C46	C	-0.572203	-1.328271	-1.141016
C47	C	-0.522050	-1.396209	-1.199882
C48	C	-0.509606	-1.413054	-1.297019
C49	C	-0.484331	-1.447291	-1.161619
C50	C	-0.434178	-1.515229	-1.220485
C51	C	-0.421737	-1.532072	-1.317612
C52	C	-0.459450	-1.480986	-1.355884
C53	C	-0.496774	-1.430446	-1.064482
C54	C	-0.408902	-1.549466	-1.085085
C55	C	-0.396465	-1.566315	-1.182213
C56	C	-0.534283	-1.379709	-0.438625
C57	C	-0.547322	-1.361965	-0.335281
H58	H	-0.537907	-1.086194	-0.726794
Cl59	Cl	-0.358648	-0.711207	-0.485152
H60	H	-0.628176	-1.252444	-1.307586
H61	H	-0.651374	-0.971374	-0.879744
H62	H	-0.628794	-0.795171	-0.849314
Cl63	Cl	-0.361493	-1.613697	-1.036980
H64	H	-0.355524	-0.872656	-0.480955
Cl65	Cl	-0.443822	-1.502170	-1.477994
H66	H	-0.380893	-1.587385	-1.365538
H67	H	-0.537603	-1.375124	-1.016561
H68	H	-0.582333	-1.314549	-1.061930
Cl69	Cl	-0.361351	-1.065814	-0.488784
Cl70	Cl	-0.444007	-0.624818	-0.600250
Cl71	Cl	-0.333417	-1.651719	-1.256226
H72	H	-0.582758	-1.040820	-0.787254
Cl73	Cl	-0.672959	-1.191778	-1.105292
