data_functionalizedCrystal
_audit_creation_method	'MofGen! by Chris Wilmer'
_symmetry_space_group_name_H-M	'P1'
_symmetry_Int_Tables_number	1
_symmetry_cell_setting	triclinic
loop_
_symmetry_equiv_pos_as_xyz
  x,y,z
_cell_length_a	25.639242
_cell_length_b	25.639239
_cell_length_c	25.639243
_cell_angle_alpha	90.014050
_cell_angle_beta	90.011922
_cell_angle_gamma	90.030990
loop_
_atom_site_label
_atom_site_type_symbol
_atom_site_fract_x
_atom_site_fract_y
_atom_site_fract_z
Zn1	Zn	0.799212	-0.208346	0.295633
Zn2	Zn	1.132546	0.124987	0.628966
Zn3	Zn	1.465879	0.458321	0.962300
Zn4	Zn	0.799140	-0.295758	0.208197
Zn5	Zn	1.132473	0.037576	0.541531
Zn6	Zn	1.465806	0.370909	0.874864
Zn7	Zn	0.711792	-0.208326	0.208209
Zn8	Zn	1.045126	0.125007	0.541542
Zn9	Zn	1.378459	0.458340	0.874876
Zn10	Zn	0.711734	-0.295740	0.295599
Zn11	Zn	1.045067	0.037593	0.628933
Zn12	Zn	1.378401	0.370926	0.962266
O13	O	0.755470	-0.252043	0.251910
O14	O	1.088803	0.081291	0.585243
O15	O	1.422136	0.414624	0.918576
O16	O	0.872368	-0.219957	0.284044
O17	O	1.205701	0.113377	0.617377
O18	O	1.539035	0.446710	0.950710
O19	O	0.787547	-0.284159	0.135034
O20	O	1.120880	0.049175	0.468367
O21	O	1.454214	0.382508	0.801700
O22	O	0.723444	-0.135164	0.219825
O23	O	1.056777	0.198170	0.553158
O24	O	1.390111	0.531503	0.886492
O25	O	0.872314	-0.284178	0.219805
O26	O	1.205648	0.049156	0.553139
O27	O	1.538981	0.382489	0.886472
O28	O	0.787671	-0.135178	0.284055
O29	O	1.121004	0.198155	0.617388
O30	O	1.454338	0.531488	0.950722
O31	O	0.723373	-0.219923	0.135042
O32	O	1.056707	0.113410	0.468376
O33	O	1.390040	0.446744	0.801709
O34	O	0.638620	-0.219907	0.219792
O35	O	0.971953	0.113427	0.553126
O36	O	1.305286	0.446760	0.886459
O37	O	0.723344	-0.284149	0.368769
O38	O	1.056677	0.049185	0.702102
O39	O	1.390011	0.382518	1.035436
O40	O	0.638576	-0.284129	0.283997
O41	O	0.971910	0.049204	0.617331
O42	O	1.305243	0.382537	0.950664
O43	O	0.787614	-0.219940	0.368794
O44	O	1.120948	0.113393	0.702127
O45	O	1.454281	0.446727	1.035460
O46	O	0.787490	-0.368921	0.219772
O47	O	1.120823	-0.035587	0.553106
O48	O	1.454157	0.297746	0.886439
O49	O	0.723273	-0.368908	0.283986
O50	O	1.056607	-0.035575	0.617319
O51	O	1.389940	0.297759	0.950653
C52	C	0.619627	-0.252014	0.251893
C53	C	0.952960	0.081319	0.585226
C54	C	1.286294	0.414652	0.918559
C55	C	0.561513	-0.252015	0.251898
C56	C	0.894846	0.081318	0.585231
C57	C	1.228180	0.414652	0.918565
C58	C	0.310355	-0.218662	0.285420
C59	C	0.643689	0.114671	0.618753
C60	C	0.977022	0.448004	0.952086
C61	C	0.364960	-0.218657	0.285417
C62	C	0.698293	0.114676	0.618750
C63	C	1.031626	0.448010	0.952083
O64	O	0.393227	-0.190277	0.313914
O65	O	0.726560	0.143057	0.647248
O66	O	1.059894	0.476390	0.980581
N67	N	0.392239	-0.252037	0.251916
N68	N	0.725572	0.081297	0.585249
N69	N	1.058906	0.414630	0.918582
C70	C	0.364911	-0.285427	0.218419
C71	C	0.698245	0.047906	0.551752
C72	C	1.031578	0.381239	0.885086
O73	O	0.393129	-0.313819	0.189924
O74	O	0.726462	0.019514	0.523257
O75	O	1.059795	0.352848	0.856591
C76	C	0.310308	-0.285435	0.218425
C77	C	0.643641	0.047899	0.551758
C78	C	0.976975	0.381232	0.885092
C79	C	0.283031	-0.252049	0.251925
C80	C	0.616365	0.081284	0.585258
C81	C	0.949698	0.414618	0.918591
C82	C	0.283079	-0.185280	0.318917
C83	C	0.616412	0.148053	0.652250
C84	C	0.949746	0.481387	0.985584
C85	C	0.228478	-0.185284	0.318919
C86	C	0.561812	0.148049	0.652252
C87	C	0.895145	0.481382	0.985586
C88	C	0.201154	-0.218671	0.285424
C89	C	0.534488	0.114662	0.618757
C90	C	0.867821	0.447995	0.952091
C91	C	0.228431	-0.252054	0.251927
C92	C	0.561764	0.081280	0.585260
C93	C	0.895098	0.414613	0.918594
C94	C	0.282981	-0.318827	0.184932
C95	C	0.616315	0.014506	0.518265
C96	C	0.949648	0.347839	0.851598
C97	C	0.228374	-0.318832	0.184941
C98	C	0.561708	0.014501	0.518274
C99	C	0.895041	0.347834	0.851607
C100	C	0.201098	-0.285447	0.218440
C101	C	0.534431	0.047887	0.551774
C102	C	0.867764	0.381220	0.885107
C103	C	0.146506	-0.285445	0.218434
C104	C	0.479840	0.047888	0.551767
C105	C	0.813173	0.381221	0.885101
N106	N	0.119227	-0.252066	0.251935
N107	N	0.452560	0.081268	0.585268
N108	N	0.785894	0.414601	0.918602
C109	C	0.146551	-0.218679	0.285430
C110	C	0.479884	0.114655	0.618763
C111	C	0.813218	0.447988	0.952097
C112	C	0.479582	-0.285410	0.218410
C113	C	0.812915	0.047924	0.551743
C114	C	1.146249	0.381257	0.885076
C115	C	0.534184	-0.285400	0.218401
C116	C	0.867518	0.047933	0.551734
C117	C	1.200851	0.381267	0.885067
C118	C	0.534229	-0.218630	0.285399
C119	C	0.867562	0.114703	0.618733
C120	C	1.200896	0.448036	0.952066
C121	C	0.479626	-0.218638	0.285405
C122	C	0.812959	0.114695	0.618739
C123	C	1.146292	0.448029	0.952072
C124	C	0.452303	-0.252030	0.251911
C125	C	0.785636	0.081303	0.585244
C126	C	1.118969	0.414636	0.918577
C127	C	0.031886	-0.218691	0.285432
C128	C	0.365219	0.114643	0.618765
C129	C	0.698553	0.447976	0.952098
C130	C	-0.022719	-0.218697	0.285429
C131	C	0.310614	0.114637	0.618763
C132	C	0.643947	0.447970	0.952096
C133	C	-0.022759	-0.285468	0.218433
C134	C	0.310574	0.047865	0.551766
C135	C	0.643907	0.381199	0.885100
C136	C	0.031841	-0.285460	0.218433
C137	C	0.365175	0.047873	0.551767
C138	C	0.698508	0.381206	0.885100
C139	C	0.059163	-0.252070	0.251937
C140	C	0.392496	0.081264	0.585270
C141	C	0.725829	0.414597	0.918604
O142	O	0.118205	-0.313813	0.189952
O143	O	0.451538	0.019521	0.523286
O144	O	0.784871	0.352854	0.856619
O145	O	0.118327	-0.190297	0.313925
O146	O	0.451661	0.143037	0.647259
O147	O	0.784994	0.476370	0.980592
C148	C	0.755382	-0.387885	0.251886
C149	C	1.088715	-0.054552	0.585219
C150	C	1.422048	0.278781	0.918552
C151	C	0.755392	-0.445999	0.251893
C152	C	1.088725	-0.112666	0.585226
C153	C	1.422059	0.220667	0.918560
C154	C	0.788994	-0.806356	0.218531
C155	C	1.122328	-0.473023	0.551864
C156	C	1.455661	-0.139690	0.885197
C157	C	0.789015	-0.860961	0.218538
C158	C	1.122348	-0.527627	0.551871
C159	C	1.455681	-0.194294	0.885204
O160	O	0.817494	-0.889192	0.190145
O161	O	1.150827	-0.555859	0.523479
O162	O	1.484160	-0.222526	0.856812
N163	N	0.755561	-0.888282	0.251944
N164	N	1.088895	-0.554948	0.585278
N165	N	1.422228	-0.221615	0.918611
C166	C	0.722090	-0.860996	0.285350
C167	C	1.055423	-0.527662	0.618683
C168	C	1.388756	-0.194329	0.952017
O169	O	0.693637	-0.889248	0.313766
O170	O	1.026971	-0.555915	0.647099
O171	O	1.360304	-0.222582	0.980433
C172	C	0.722072	-0.806392	0.285345
C173	C	1.055406	-0.473059	0.618679
C174	C	1.388739	-0.139726	0.952012
C175	C	0.755524	-0.779074	0.251933
C176	C	1.088857	-0.445741	0.585266
C177	C	1.422191	-0.112407	0.918599
C178	C	0.822444	-0.779038	0.185121
C179	C	1.155777	-0.445705	0.518454
C180	C	1.489110	-0.112371	0.851788
C181	C	0.822423	-0.724437	0.185113
C182	C	1.155756	-0.391104	0.518447
C183	C	1.489089	-0.057771	0.851780
C184	C	0.788952	-0.697155	0.218516
C185	C	1.122286	-0.363822	0.551849
C186	C	1.455619	-0.030489	0.885182
C187	C	0.755503	-0.724473	0.251925
C188	C	1.088836	-0.391140	0.585258
C189	C	1.422170	-0.057807	0.918592
C190	C	0.688603	-0.779107	0.318753
C191	C	1.021937	-0.445774	0.652087
C192	C	1.355270	-0.112441	0.985420
C193	C	0.688589	-0.724500	0.318746
C194	C	1.021923	-0.391167	0.652079
C195	C	1.355256	-0.057834	0.985413
C196	C	0.722041	-0.697182	0.285333
C197	C	1.055374	-0.363849	0.618667
C198	C	1.388708	-0.030515	0.952000
C199	C	0.722011	-0.642591	0.285320
C200	C	1.055345	-0.309257	0.618653
C201	C	1.388678	0.024076	0.951986
N202	N	0.755465	-0.615270	0.251913
N203	N	1.088798	-0.281936	0.585246
N204	N	1.422131	0.051397	0.918579
C205	C	0.788935	-0.642552	0.218511
C206	C	1.122268	-0.309219	0.551844
C207	C	1.455602	0.024115	0.885177
C208	C	0.722129	-0.975666	0.285358
C209	C	1.055462	-0.642333	0.618691
C210	C	1.388796	-0.309000	0.952025
C211	C	0.722143	-1.030269	0.285361
C212	C	1.055477	-0.696935	0.618694
C213	C	1.388810	-0.363602	0.952027
C214	C	0.789069	-1.030230	0.218549
C215	C	1.122402	-0.696896	0.551882
C216	C	1.455736	-0.363563	0.885215
C217	C	0.789052	-0.975626	0.218544
C218	C	1.122385	-0.642293	0.551877
C219	C	1.455719	-0.308960	0.885211
C220	C	0.755582	-0.948345	0.251951
C221	C	1.088916	-0.615012	0.585285
C222	C	1.422249	-0.281678	0.918618
C223	C	0.788888	-0.527887	0.218497
C224	C	1.122221	-0.194553	0.551830
C225	C	1.455555	0.138780	0.885164
C226	C	0.788862	-0.473281	0.218491
C227	C	1.122196	-0.139948	0.551824
C228	C	1.455529	0.193385	0.885158
C229	C	0.721939	-0.473325	0.285305
C230	C	1.055272	-0.139992	0.618638
C231	C	1.388605	0.193342	0.951971
C232	C	0.721962	-0.527926	0.285309
C233	C	1.055295	-0.194592	0.618642
C234	C	1.388629	0.138741	0.951976
C235	C	0.755441	-0.555205	0.251904
C236	C	1.088774	-0.221872	0.585237
C237	C	1.422108	0.111461	0.918570
O238	O	0.693549	-0.614324	0.313699
O239	O	1.026882	-0.280991	0.647032
O240	O	1.360215	0.052342	0.980365
O241	O	0.817387	-0.614293	0.190104
O242	O	1.150721	-0.280959	0.523438
O243	O	1.484054	0.052374	0.856771
C244	C	0.891843	-0.252071	0.251927
C245	C	1.225176	0.081262	0.585260
C246	C	1.558509	0.414595	0.918594
C247	C	0.949957	-0.252084	0.251934
C248	C	1.283290	0.081250	0.585268
C249	C	1.616623	0.414583	0.918601
C250	C	0.755481	-0.252045	0.388283
C251	C	1.088814	0.081289	0.721616
C252	C	1.422147	0.414622	1.054949
C253	C	0.755485	-0.252045	0.446397
C254	C	1.088819	0.081288	0.779730
C255	C	1.422152	0.414621	1.113063
C256	C	0.755572	-0.115670	0.251945
C257	C	1.088905	0.217664	0.585279
C258	C	1.422239	0.550997	0.918612
C259	C	0.755616	-0.057556	0.251960
C260	C	1.088949	0.275778	0.585294
C261	C	1.422282	0.609111	0.918627
C262	C	0.788883	-0.285496	0.697578
C263	C	1.122216	0.047837	1.030911
C264	C	1.455549	0.381171	1.364245
C265	C	0.788884	-0.285497	0.642974
C266	C	1.122217	0.047836	0.976307
C267	C	1.455551	0.381170	1.309640
O268	O	0.817286	-0.313951	0.614727
O269	O	1.150619	0.019382	0.948060
O270	O	1.483952	0.352715	1.281394
N271	N	0.755475	-0.252051	0.615671
N272	N	1.088809	0.081282	0.949004
N273	N	1.422142	0.414615	1.282337
C274	C	0.722059	-0.218606	0.642975
C275	C	1.055393	0.114727	0.976308
C276	C	1.388726	0.448060	1.309641
O277	O	0.693642	-0.190158	0.614737
O278	O	1.026976	0.143175	0.948070
O279	O	1.360309	0.476508	1.281404
C280	C	0.722056	-0.218608	0.697578
C281	C	1.055389	0.114725	1.030911
C282	C	1.388722	0.448058	1.364245
C283	C	0.755470	-0.252053	0.724878
C284	C	1.088804	0.081281	1.058212
C285	C	1.422137	0.414614	1.391545
C286	C	0.822294	-0.318938	0.724879
C287	C	1.155627	0.014395	1.058212
C288	C	1.488961	0.347729	1.391545
C289	C	0.822293	-0.318936	0.779479
C290	C	1.155626	0.014397	1.112812
C291	C	1.488960	0.347730	1.446146
C292	C	0.788881	-0.285493	0.806779
C293	C	1.122214	0.047841	1.140113
C294	C	1.455547	0.381174	1.473446
C295	C	0.755469	-0.252051	0.779479
C296	C	1.088803	0.081282	1.112812
C297	C	1.422136	0.414616	1.446145
C298	C	0.688637	-0.185166	0.724881
C299	C	1.021971	0.148167	1.058214
C300	C	1.355304	0.481500	1.391547
C301	C	0.688636	-0.185172	0.779488
C302	C	1.021970	0.148162	1.112821
C303	C	1.355303	0.481495	1.446154
C304	C	0.722051	-0.218616	0.806788
C305	C	1.055384	0.114718	1.140122
C306	C	1.388718	0.448051	1.473455
C307	C	0.722056	-0.218606	0.861379
C308	C	1.055390	0.114728	1.194713
C309	C	1.388723	0.448061	1.528046
N310	N	0.755465	-0.252051	0.888683
N311	N	1.088798	0.081282	1.222016
N312	N	1.422132	0.414615	1.555349
C313	C	0.788877	-0.285495	0.861383
C314	C	1.122210	0.047838	1.194716
C315	C	1.455544	0.381172	1.528049
C316	C	0.722069	-0.218605	0.528304
C317	C	1.055402	0.114728	0.861637
C318	C	1.388736	0.448062	1.194971
C319	C	0.722075	-0.218600	0.473702
C320	C	1.055408	0.114734	0.807035
C321	C	1.388742	0.448067	1.140368
C322	C	0.788899	-0.285491	0.473705
C323	C	1.122232	0.047842	0.807038
C324	C	1.455566	0.381175	1.140371
C325	C	0.788895	-0.285493	0.528308
C326	C	1.122229	0.047840	0.861641
C327	C	1.455562	0.381173	1.194975
C328	C	0.755478	-0.252051	0.555607
C329	C	1.088811	0.081283	0.888940
C330	C	1.422144	0.414616	1.222274
C331	C	0.788873	-0.285488	0.976048
C332	C	1.122206	0.047845	1.309381
C333	C	1.455540	0.381178	1.642714
C334	C	0.788871	-0.285482	1.030653
C335	C	1.122204	0.047851	1.363986
C336	C	1.455537	0.381184	1.697320
C337	C	0.722045	-0.218593	1.030645
C338	C	1.055378	0.114741	1.363979
C339	C	1.388712	0.448074	1.697312
C340	C	0.722049	-0.218597	0.976045
C341	C	1.055382	0.114737	1.309378
C342	C	1.388716	0.448070	1.642711
C343	C	0.755465	-0.252049	0.948747
C344	C	1.088798	0.081284	1.282080
C345	C	1.422132	0.414618	1.615414
O346	O	0.693668	-0.190167	0.889661
O347	O	1.027001	0.143166	1.222994
O348	O	1.360334	0.476499	1.556328
O349	O	0.817284	-0.313943	0.889627
O350	O	1.150618	0.019391	1.222960
O351	O	1.483951	0.352724	1.556293
C352	C	0.755457	-0.252049	1.116067
C353	C	1.088790	0.081284	1.449400
C354	C	1.422123	0.414618	1.782734
C355	C	0.755459	-0.252039	1.057953
C356	C	1.088792	0.081295	1.391286
C357	C	1.422125	0.414628	1.724620
H358	H	0.457339	-0.312601	0.191130
H359	H	0.790672	0.020733	0.524463
H360	H	1.124006	0.354066	0.857797
F361	F	-0.051849	-0.320998	0.182786
F362	F	0.281484	0.012336	0.516119
F363	F	0.614818	0.345669	0.849452
H364	H	0.694858	-0.191367	0.550528
H365	H	1.028191	0.141967	0.883861
H366	H	1.361525	0.475300	1.217194
F367	F	0.824437	-0.321079	1.059705
F368	F	1.157771	0.012254	1.393038
F369	F	1.491104	0.345588	1.726372
F370	F	0.563319	-0.183097	0.321048
F371	F	0.896652	0.150236	0.654381
F372	F	1.229985	0.483570	0.987715
H373	H	0.661427	-0.157933	0.702662
H374	H	0.994760	0.175400	1.035995
H375	H	1.328093	0.508733	1.369329
F376	F	0.686350	-0.557001	0.320861
F377	F	1.019683	-0.223667	0.654194
F378	F	1.353016	0.109666	0.987527
F379	F	0.686320	-0.444280	0.320853
F380	F	1.019653	-0.110946	0.654186
F381	F	1.352987	0.222387	0.987520
H382	H	0.816291	-0.953387	0.191337
H383	H	1.149625	-0.620054	0.524670
H384	H	1.482958	-0.286720	0.858003
F385	F	0.857859	-0.354537	0.695832
F386	F	1.191192	-0.021203	1.029165
F387	F	1.524525	0.312130	1.362499
H388	H	0.694871	-0.191360	0.451478
H389	H	1.028205	0.141973	0.784812
H390	H	1.361538	0.475307	1.118145
H391	H	0.816103	-0.451041	0.191281
H392	H	1.149436	-0.117707	0.524614
H393	H	1.482769	0.215626	0.857947
H394	H	0.816104	-0.312727	0.550532
H395	H	1.149438	0.020606	0.883866
H396	H	1.482771	0.353940	1.217199
H397	H	0.054125	-0.191501	0.312713
H398	H	0.387458	0.141833	0.646047
H399	H	0.720791	0.475166	0.979380
H400	H	0.694843	-0.191362	1.052883
H401	H	1.028176	0.141971	1.386216
H402	H	1.361510	0.475304	1.719549
H403	H	0.206131	-0.346026	0.157666
H404	H	0.539464	-0.012693	0.491000
H405	H	0.872797	0.320640	0.824333
H406	H	0.816151	-0.550091	0.191296
H407	H	1.149484	-0.216758	0.524630
H408	H	1.482817	0.116575	0.857963
H409	H	0.816324	-1.052453	0.191353
H410	H	1.149658	-0.719119	0.524686
H411	H	1.482991	-0.385786	0.858019
H412	H	0.457421	-0.191452	0.312683
H413	H	0.790754	0.141881	0.646016
H414	H	1.124087	0.475215	0.979350
H415	H	0.849702	-0.801245	0.157921
H416	H	1.183036	-0.467912	0.491254
H417	H	1.516369	-0.134579	0.824588
H418	H	0.661423	-0.157938	0.801712
H419	H	0.994756	0.175396	1.135045
H420	H	1.328090	0.508729	1.468379
H421	H	0.054051	-0.312641	0.191151
H422	H	0.387384	0.020693	0.524484
H423	H	0.720718	0.354026	0.857817
F424	F	0.858033	-0.695370	0.149557
F425	F	1.191366	-0.362037	0.482890
F426	F	1.524700	-0.028703	0.816223
H427	H	0.694899	-1.052506	0.312564
H428	H	1.028232	-0.719173	0.645897
H429	H	1.361565	-0.385840	0.979230
F430	F	0.311999	-0.354355	0.149270
F431	F	0.645333	-0.021022	0.482603
F432	F	0.978666	0.312312	0.815936
H433	H	0.694870	-0.953456	0.312561
H434	H	1.028203	-0.620123	0.645894
H435	H	1.361536	-0.286790	0.979228
F436	F	0.824438	-0.321092	0.947003
F437	F	1.157771	0.012241	1.280337
F438	F	1.491104	0.345575	1.613670
H439	H	0.661361	-0.801340	0.345959
H440	H	0.994694	-0.468007	0.679292
H441	H	1.328028	-0.134674	1.012626
F442	F	0.857853	-0.354537	0.808527
F443	F	1.191186	-0.021204	1.141861
F444	F	1.524520	0.312129	1.475194
F445	F	0.824458	-0.321087	0.444640
F446	F	1.157791	0.012246	0.777974
F447	F	1.491124	0.345579	1.111307
F448	F	0.686491	-0.182996	0.946989
F449	F	1.019825	0.150337	1.280322
F450	F	1.353158	0.483670	1.613655
H451	H	0.661335	-0.702290	0.345952
H452	H	0.994668	-0.368957	0.679285
H453	H	1.328002	-0.035624	1.012619
H454	H	-0.044926	-0.191508	0.312709
H455	H	0.288408	0.141826	0.646042
H456	H	0.621741	0.475159	0.979375
H457	H	0.206275	-0.158101	0.346200
H458	H	0.539608	0.175233	0.679534
H459	H	0.872941	0.508566	1.012867
H460	H	0.305320	-0.158092	0.346195
H461	H	0.638654	0.175241	0.679529
H462	H	0.971987	0.508575	1.012862
H463	H	0.556388	-0.312580	0.191116
H464	H	0.889722	0.020753	0.524450
H465	H	1.223055	0.354086	0.857783
