data_functionalizedCrystal
_audit_creation_method	'MofGen! by Chris Wilmer'
_symmetry_space_group_name_H-M	'P1'
_symmetry_Int_Tables_number	1
_symmetry_cell_setting	triclinic
loop_
_symmetry_equiv_pos_as_xyz
  x,y,z
_cell_length_a	6.817900
_cell_length_b	9.514072
_cell_length_c	10.992410
_cell_angle_alpha	88.554233
_cell_angle_beta	108.764651
_cell_angle_gamma	118.843421
loop_
_atom_site_label
_atom_site_type_symbol
_atom_site_fract_x
_atom_site_fract_y
_atom_site_fract_z
V1	V	-4.172171	-0.222204	-0.401600
O2	O	-4.069593	0.010678	-0.392919
O3	O	-4.206678	-0.440594	-0.399849
O4	O	-4.148872	-0.218786	-0.576297
O5	O	-4.127799	-0.212665	-0.215250
V6	V	-4.641803	-0.194349	-0.379190
O7	O	-4.463899	-0.283307	-0.450758
O8	O	-4.800272	-0.133246	-0.330032
O9	O	-4.384090	0.024041	-0.380940
O10	O	-4.861778	-0.427231	-0.387870
O11	O	-4.803572	-0.203888	-0.565539
O12	O	-4.441896	-0.197767	-0.204493
C13	C	-4.071035	-0.493833	-0.393771
C14	C	-4.180703	-0.672369	-0.393504
C15	C	-3.997296	-0.210893	-0.618845
C16	C	-4.060079	-0.209543	-0.761668
C17	C	-3.923996	-0.197247	-0.956735
C18	C	-3.858986	-0.199316	-0.808261
C19	C	-4.299373	-0.367896	-0.839489
C20	C	-4.363322	-0.366496	-0.988049
C21	C	-4.161158	-0.059868	-0.948628
C22	C	-4.090253	-0.059117	-0.799612
C23	C	-4.183077	0.077271	-0.387015
C24	C	-4.052649	0.255805	-0.387290
C25	C	-4.256814	-0.205665	-0.161937
C26	C	-4.173267	-0.207007	-0.019114
H27	H	-3.859082	-0.669090	-0.382111
C28	C	-3.618473	-0.045359	-0.735581
C29	C	-3.391009	-0.011743	-0.760421
C30	C	-3.150556	0.142289	-0.687789
C31	C	-3.137566	0.262705	-0.590316
C32	C	-3.365037	0.229093	-0.565470
C33	C	-3.605491	0.075061	-0.638103
H34	H	-3.400618	-0.100885	-0.832581
H35	H	-2.982167	0.167170	-0.706182
H36	H	-2.959568	0.376729	-0.536549
H37	H	-3.355429	0.318235	-0.493311
H38	H	-3.773880	0.050179	-0.619710
C39	C	-3.725284	-0.042376	-0.981480
C40	C	-3.739451	-0.013706	-1.121805
C41	C	-3.540743	0.141171	-1.146562
C42	C	-3.327869	0.267378	-1.030995
C43	C	-3.313694	0.238712	-0.890661
C44	C	-3.512401	0.083835	-0.865904
H45	H	-3.897041	-0.107136	-1.207363
H46	H	-3.551238	0.162391	-1.250447
H47	H	-3.180773	0.382028	-1.049322
H48	H	-3.156104	0.332141	-0.805103
H49	H	-3.501907	0.062615	-0.762018
H50	H	-4.282724	-0.479581	-0.814390
C51	C	-3.927527	-0.340079	-1.022194
C52	C	-4.155602	-0.465368	-1.131932
C53	C	-4.159146	-0.608207	-1.197388
C54	C	-3.934614	-0.625757	-1.153106
C55	C	-3.706522	-0.500465	-1.043362
C56	C	-3.702979	-0.357625	-0.977906
H57	H	-4.321829	-0.452379	-1.164718
H58	H	-4.327996	-0.700957	-1.278628
H59	H	-3.937238	-0.731495	-1.201560
H60	H	-3.540295	-0.513453	-1.010576
H61	H	-3.534128	-0.264876	-0.896666
C62	C	-4.507182	-0.385754	-0.800659
C63	C	-4.461901	-0.256443	-0.697588
C64	C	-4.669705	-0.274299	-0.658754
C65	C	-4.922790	-0.421465	-0.722990
C66	C	-4.968082	-0.550785	-0.826067
C67	C	-4.760278	-0.532930	-0.864901
H68	H	-4.274542	-0.147493	-0.650031
H69	H	-4.636175	-0.178566	-0.582450
H70	H	-5.076618	-0.434682	-0.694243
H71	H	-5.155440	-0.659736	-0.873624
H72	H	-4.793808	-0.628663	-0.941206
H73	H	-4.374274	-0.747478	-0.398665
H74	H	-3.829747	-0.306505	-0.783932
H75	H	-4.376801	-0.477907	-1.034824
H76	H	-4.548913	-0.380266	-1.030743
H77	H	-4.026898	0.060382	-0.968442
H78	H	-3.916464	0.058025	-0.746724
H79	H	-4.231881	-0.057257	-0.767092
H80	H	-4.341642	-0.065623	-0.989495
