data_functionalizedCrystal
_audit_creation_method	'MofGen! by Chris Wilmer'
_symmetry_space_group_name_H-M	'P1'
_symmetry_Int_Tables_number	1
_symmetry_cell_setting	triclinic
loop_
_symmetry_equiv_pos_as_xyz
  x,y,z
_cell_length_a	34.408637
_cell_length_b	34.407814
_cell_length_c	34.404193
_cell_angle_alpha	60.004510
_cell_angle_beta	60.009006
_cell_angle_gamma	59.994604
loop_
_atom_site_label
_atom_site_type_symbol
_atom_site_fract_x
_atom_site_fract_y
_atom_site_fract_z
O1	O	0.053973	-0.567860	0.474801
O2	O	0.020377	-0.442124	0.382567
O3	O	0.100004	-0.521670	0.382483
O4	O	-0.025653	-0.488314	0.474886
O5	O	0.126426	-0.495253	0.408816
O6	O	0.046800	-0.415707	0.408900
O7	O	0.080396	-0.541443	0.501134
Zn8	Zn	0.067793	-0.474381	0.459198
Zn9	Zn	0.032980	-0.509186	0.424503
O10	O	0.000769	-0.461897	0.501219
N11	N	0.091552	-0.450631	0.482879
N12	N	0.009225	-0.532940	0.400823
C13	C	0.142848	-0.268847	0.534081
C14	C	0.142979	-0.399386	0.664559
C15	C	0.142862	-0.399365	0.534081
C16	C	0.273409	-0.399338	0.533986
C17	C	0.157225	-0.311914	0.548422
C18	C	0.157300	-0.385019	0.621491
C19	C	0.230339	-0.384991	0.548370
C20	C	0.157235	-0.385007	0.548422
C21	C	0.124548	-0.214028	0.515827
C22	C	0.124571	-0.417639	0.515827
C23	C	0.175526	-0.366733	0.566676
C24	C	0.353121	-0.385580	0.491988
C25	C	0.402952	-0.402180	0.475348
C26	C	0.402981	-0.482812	0.506096
C27	C	0.353151	-0.466211	0.522737
C28	C	0.136544	-0.189099	0.466839
C29	C	0.119905	-0.139265	0.450247
C30	C	0.079280	-0.139291	0.531632
C31	C	0.095918	-0.189125	0.548224
C32	C	0.075577	-0.405615	0.527900
C33	C	0.058953	-0.422228	0.511301
C34	C	0.140315	-0.462889	0.470566
C35	C	0.156941	-0.446276	0.487159
C36	C	0.075772	-0.405653	0.744326
C37	C	0.059206	-0.422280	0.794159
C38	C	0.140607	-0.462951	0.794094
C39	C	0.157172	-0.446325	0.744260
C40	C	0.124753	-0.417674	0.719377
C41	C	0.328223	-0.417595	0.515681
C42	C	-0.172390	-0.583988	0.349141
C43	C	-0.041751	-0.584138	0.218783
C44	C	-0.041941	-0.584130	0.349402
C45	C	-0.041957	-0.714607	0.349338
C46	C	-0.129326	-0.598388	0.334853
C47	C	-0.056165	-0.598473	0.261852
C48	C	-0.056282	-0.671535	0.334962
C49	C	-0.056272	-0.598469	0.334999
C50	C	-0.227205	-0.565659	0.367327
C51	C	-0.023703	-0.565882	0.367734
C52	C	-0.074511	-0.616717	0.316667
C53	C	-0.055754	-0.794298	0.391257
C54	C	-0.039181	-0.844132	0.407888
C55	C	0.041447	-0.844215	0.377269
C56	C	0.024873	-0.794381	0.360637
C57	C	-0.252183	-0.577666	0.416302
C58	C	-0.302014	-0.561001	0.432833
C59	C	-0.301886	-0.520329	0.351410
C60	C	-0.252055	-0.536994	0.334880
C61	C	-0.035709	-0.516892	0.355682
C62	C	-0.019129	-0.500308	0.372353
C63	C	0.021465	-0.581700	0.413115
C64	C	0.004884	-0.598286	0.396450
C65	C	-0.035389	-0.516907	0.139026
C66	C	-0.018707	-0.500324	0.089193
C67	C	0.021949	-0.581721	0.089240
C68	C	0.005268	-0.598303	0.139074
C69	C	-0.023402	-0.565894	0.163965
C70	C	-0.023728	-0.769425	0.367633
N71	N	0.427173	-0.450553	0.482630
O72	O	0.589997	-0.458460	0.365361
O73	O	0.590185	-0.550997	0.490963
O74	O	0.590104	-0.550786	0.411309
O75	O	0.590077	-0.458671	0.445016
O76	O	0.510940	-0.524462	0.437777
O77	O	0.511020	-0.524674	0.517432
O78	O	0.510832	-0.432136	0.391830
Zn79	Zn	0.498357	-0.474225	0.458833
Zn80	Zn	0.602660	-0.508908	0.423960
O81	O	0.510913	-0.432348	0.471484
N82	N	0.673844	-0.532580	0.400158
N83	N	0.091520	-0.115070	0.482873
O84	O	-0.025663	0.047841	0.474857
O85	O	0.099940	0.047877	0.382299
O86	O	0.020247	0.047844	0.382560
O87	O	0.054030	0.047874	0.474596
O88	O	0.046674	-0.031326	0.408942
O89	O	0.126367	-0.031293	0.408680
O90	O	0.000764	-0.031329	0.501238
Zn91	Zn	0.067761	-0.043881	0.459148
Zn92	Zn	0.032943	0.060429	0.424389
O93	O	0.080457	-0.031296	0.500977
N94	N	0.009178	0.131618	0.400665
N95	N	0.091852	-0.450680	0.818332
O96	O	0.083862	-0.567845	0.981235
O97	O	-0.008657	-0.442198	0.981276
O98	O	-0.008441	-0.521875	0.981252
O99	O	0.083646	-0.488168	0.981258
O100	O	0.017919	-0.495468	0.902085
O101	O	0.017703	-0.415791	0.902109
O102	O	0.110222	-0.541438	0.902067
Zn103	Zn	0.068148	-0.474422	0.889518
Zn104	Zn	0.033417	-0.509214	0.993825
O105	O	0.110006	-0.461761	0.902091
N106	N	0.009712	-0.532961	1.065011
C107	C	0.030439	-0.413071	0.383027
C108	C	0.129046	-0.511580	0.382922
C109	C	0.070334	-0.570496	0.500675
C110	C	-0.028274	-0.471987	0.500780
C111	C	0.550625	-0.550579	0.520021
C112	C	0.550527	-0.550317	0.421379
C113	C	0.550389	-0.432554	0.362773
C114	C	0.550491	-0.432816	0.461414
C115	C	0.128944	0.008394	0.382712
C116	C	0.030287	0.008256	0.383068
C117	C	-0.028273	0.008252	0.500793
C118	C	0.070417	0.008292	0.500470
C119	C	-0.008218	-0.413165	0.941698
C120	C	-0.007945	-0.511830	0.941653
C121	C	0.109783	-0.570471	0.941646
C122	C	0.109516	-0.471800	0.941673
H123	H	0.019320	-0.412483	0.814467
H124	H	0.023260	-0.376951	0.354059
O125	O	-0.042489	-0.520422	0.941695
C126	C	-0.082642	-0.515127	0.982683
H127	H	-0.071265	-0.520301	1.011365
H128	H	-0.109609	-0.477952	0.973416
C129	C	-0.119418	-0.546220	0.966000
C130	C	-0.105444	-0.552578	1.001230
H131	H	-0.133485	-0.569319	0.977441
H132	H	-0.092368	-0.549785	0.938385
H133	H	-0.141889	-0.515239	0.958281
H134	H	-0.082970	-0.583556	1.008944
H135	H	-0.132492	-0.549019	1.028847
O136	O	-0.042918	-0.370136	0.941690
C137	C	-0.083893	-0.370152	0.941704
H138	H	-0.073341	-0.398340	0.926708
H139	H	-0.109757	-0.378469	0.979686
C140	C	-0.120929	-0.286235	0.929088
C141	C	-0.107968	-0.320853	0.910665
H142	H	-0.135782	-0.255825	0.909943
H143	H	-0.093324	-0.286224	0.929080
H144	H	-0.142481	-0.293172	0.960739
H145	H	-0.086413	-0.313920	0.879016
H146	H	-0.135570	-0.320862	0.910667
H147	H	-0.064344	0.008241	0.529850
H148	H	0.550485	-0.403881	0.468626
O149	O	0.171905	0.008692	0.348003
C150	C	0.201521	0.008785	0.365087
H151	H	0.178632	0.023614	0.395756
H152	H	0.225747	-0.029143	0.378129
C153	C	0.260181	0.021877	0.287035
C154	C	0.232068	0.040094	0.324701
H155	H	0.279026	0.041188	0.262122
H156	H	0.240230	0.021812	0.275525
H157	H	0.280365	-0.009730	0.297909
H158	H	0.211881	0.071698	0.313827
H159	H	0.252017	0.040165	0.336208
O160	O	0.021731	0.008268	0.348511
C161	C	0.062590	0.008264	0.307424
H162	H	0.085326	0.023265	0.307809
H163	H	0.084081	-0.029716	0.306851
C164	C	0.019556	0.020881	0.262324
C165	C	0.047478	0.039308	0.262795
H166	H	0.010235	0.040028	0.234794
H167	H	-0.007971	0.020881	0.290005
H168	H	0.037469	-0.010770	0.261848
H169	H	0.029563	0.070956	0.263277
H170	H	0.075002	0.039314	0.235113
H171	H	-0.064365	-0.464880	0.529794
H172	H	0.077653	0.008301	0.529384
O173	O	0.550476	-0.584857	0.412855
C174	C	0.509506	-0.597696	0.445507
H175	H	0.495862	-0.588220	0.478503
H176	H	0.480762	-0.577620	0.428286
C177	C	0.538766	-0.663281	0.419341
C178	C	0.522012	-0.651646	0.459868
H179	H	0.546480	-0.696559	0.428199
H180	H	0.566368	-0.654631	0.397341
H181	H	0.514811	-0.646547	0.404994
H182	H	0.545970	-0.668376	0.474212
H183	H	0.494414	-0.660301	0.481871
O184	O	-0.063311	-0.485443	0.163225
C185	C	-0.107632	-0.492573	0.191990
H186	H	-0.114456	-0.510647	0.176939
H187	H	-0.107247	-0.516082	0.229778
C188	C	-0.138967	-0.421992	0.211183
C189	C	-0.147350	-0.444187	0.192695
H190	H	-0.163467	-0.392145	0.211620
H191	H	-0.109107	-0.417189	0.191805
H192	H	-0.138646	-0.441587	0.242671
H193	H	-0.147666	-0.424594	0.161205
H194	H	-0.177212	-0.448985	0.212068
H195	H	0.077514	-0.606615	0.529644
H196	H	0.138832	-0.606554	0.941627
O197	O	0.550339	-0.397950	0.319708
C198	C	0.550306	-0.415085	0.290096
H199	H	0.565338	-0.455632	0.302963
H200	H	0.512314	-0.403017	0.291426
C201	C	0.562822	-0.345531	0.222768
C202	C	0.581288	-0.395332	0.238569
H203	H	0.581931	-0.333345	0.190983
H204	H	0.562842	-0.333986	0.242718
H205	H	0.531162	-0.335481	0.223880
H206	H	0.612945	-0.405381	0.237462
H207	H	0.581273	-0.406879	0.218617
H208	H	0.138447	-0.464586	0.941669
H209	H	0.049370	-0.382321	0.724071
H210	H	0.129672	-0.118967	0.410356
H211	H	0.167007	-0.486271	0.814352
H212	H	0.197059	-0.456117	0.723950
H213	H	0.049217	-0.382297	0.551240
H214	H	0.166679	-0.486211	0.447227
O215	O	0.011344	-0.410526	0.523092
C216	C	-0.013663	-0.381685	0.551949
H217	H	0.010128	-0.388041	0.570041
H218	H	-0.024442	-0.342647	0.528980
C219	C	-0.087775	-0.386521	0.567840
C220	C	-0.058556	-0.394331	0.590064
H221	H	-0.115468	-0.394319	0.591349
H222	H	-0.070927	-0.405950	0.548397
H223	H	-0.096752	-0.353989	0.548700
H224	H	-0.049574	-0.426863	0.609199
H225	H	-0.075403	-0.374907	0.609511
H226	H	0.196836	-0.456064	0.477324
H227	H	0.332881	-0.492283	0.542031
O228	O	0.550708	-0.585193	0.563075
C229	C	0.550712	-0.568048	0.592697
H230	H	0.565660	-0.537470	0.569805
H231	H	0.512742	-0.554859	0.616765
C232	C	0.563455	-0.646001	0.651580
C233	C	0.581818	-0.608447	0.623464
H234	H	0.582640	-0.670920	0.670560
H235	H	0.563450	-0.657552	0.631624
H236	H	0.531814	-0.635003	0.671632
H237	H	0.613456	-0.619443	0.603408
H238	H	0.581828	-0.596899	0.643417
O239	O	0.172102	-0.519979	0.348287
C240	C	0.193212	-0.487293	0.335472
H241	H	0.164368	-0.454361	0.345064
H242	H	0.219177	-0.504533	0.355468
C243	C	0.255589	-0.513235	0.269723
C244	C	0.220162	-0.472786	0.281501
H245	H	0.272215	-0.504288	0.236432
H246	H	0.241368	-0.535258	0.278358
H247	H	0.277221	-0.527598	0.286391
H248	H	0.198527	-0.458428	0.264839
H249	H	0.234380	-0.450761	0.272863
H250	H	0.423225	-0.376108	0.456057
O251	O	0.427144	-0.530039	0.512920
C252	C	0.414956	-0.545256	0.490546
H253	H	0.378760	-0.519991	0.486329
H254	H	0.442977	-0.545333	0.453993
C255	C	0.457140	-0.626937	0.526360
C256	C	0.412682	-0.595908	0.521184
H257	H	0.455740	-0.658182	0.545257
H258	H	0.465354	-0.616684	0.541432
H259	H	0.480486	-0.626994	0.495897
H260	H	0.389338	-0.595846	0.551646
H261	H	0.404465	-0.606162	0.506118
O262	O	0.328956	-0.338335	0.485052
C263	C	0.341086	-0.312618	0.435852
H264	H	0.377261	-0.334386	0.416213
H265	H	0.313022	-0.305188	0.422291
C266	C	0.298951	-0.238424	0.451073
C267	C	0.343383	-0.265158	0.426954
H268	H	0.300366	-0.209148	0.445584
H269	H	0.290777	-0.255750	0.484221
H270	H	0.275569	-0.232237	0.439770
H271	H	0.366763	-0.271350	0.438261
H272	H	0.351561	-0.247833	0.393808
O273	O	0.164282	-0.213267	0.435349
C274	C	0.139090	-0.201083	0.406559
H275	H	0.099229	-0.187399	0.425827
H276	H	0.149667	-0.172145	0.371548
C277	C	0.200090	-0.262155	0.372711
C278	C	0.151131	-0.245352	0.396378
H279	H	0.207519	-0.289462	0.366429
H280	H	0.217064	-0.270363	0.392106
H281	H	0.208898	-0.238037	0.343538
H282	H	0.142326	-0.269468	0.425553
H283	H	0.134156	-0.237150	0.376988
O284	O	0.051460	-0.115172	0.563167
C285	C	0.044458	-0.147863	0.609964
H286	H	0.050030	-0.183386	0.609874
H287	H	0.071003	-0.153156	0.624212
C288	C	-0.013423	-0.084803	0.642067
C289	C	-0.006582	-0.128433	0.641957
H290	H	-0.044905	-0.072818	0.661803
H291	H	-0.008704	-0.062779	0.610539
H292	H	0.008702	-0.089220	0.653940
H293	H	-0.028702	-0.124015	0.630080
H294	H	-0.011306	-0.150457	0.673484
H295	H	-0.322352	-0.570775	0.472713
H296	H	-0.028474	-0.460433	0.068892
O297	O	0.084322	-0.213413	0.595795
C298	C	0.105169	-0.262738	0.603496
H299	H	0.112630	-0.269546	0.570816
H300	H	0.139963	-0.276850	0.610071
C301	C	0.061702	-0.279997	0.687311
C302	C	0.070861	-0.288359	0.647174
H303	H	0.040541	-0.295802	0.714255
H304	H	0.047658	-0.246766	0.682123
H305	H	0.090699	-0.291757	0.692784
H306	H	0.041865	-0.276593	0.641698
H307	H	0.084900	-0.321589	0.652362
O308	O	0.049802	-0.613268	0.065135
C309	C	0.056791	-0.660062	0.097833
H310	H	0.051176	-0.659967	0.133372
H311	H	0.030267	-0.674301	0.103078
C312	C	0.114737	-0.692189	0.034807
C313	C	0.107845	-0.692073	0.078456
H314	H	0.146228	-0.711936	0.022854
H315	H	0.110027	-0.660663	0.012777
H316	H	0.092630	-0.704054	0.039184
H317	H	0.129947	-0.680203	0.074078
H318	H	0.112560	-0.723598	0.100485
H319	H	0.015032	-0.638195	0.159378
H320	H	-0.028907	-0.460416	0.362542
O321	O	-0.063550	-0.485394	0.327865
C322	C	-0.105351	-0.456542	0.352979
H323	H	-0.112334	-0.475774	0.392856
H324	H	-0.100806	-0.421548	0.342390
C325	C	-0.139139	-0.422698	0.291872
C326	C	-0.147719	-0.446320	0.340850
H327	H	-0.165274	-0.416390	0.284389
H328	H	-0.110977	-0.442134	0.274951
H329	H	-0.135352	-0.393539	0.283054
H330	H	-0.151500	-0.475481	0.349666
H331	H	-0.175883	-0.426889	0.357773
O332	O	0.049217	-0.613245	0.441018
C333	C	0.056271	-0.660041	0.448065
H334	H	0.026250	-0.659921	0.442434
H335	H	0.091790	-0.674350	0.421582
C336	C	0.093420	-0.692138	0.506060
C337	C	0.056546	-0.691991	0.499147
H338	H	0.093591	-0.711848	0.537568
H339	H	0.088669	-0.660611	0.501311
H340	H	0.123015	-0.704062	0.483987
H341	H	0.026951	-0.680062	0.521215
H342	H	0.061291	-0.723517	0.503901
H343	H	0.014660	-0.638178	0.406265
H344	H	0.081021	-0.864532	0.371574
O345	O	0.056040	-0.770275	0.337640
C346	C	0.089902	-0.782477	0.296577
H347	H	0.092234	-0.818649	0.301067
H348	H	0.078695	-0.754428	0.264262
C349	C	0.136016	-0.740409	0.283792
C350	C	0.138883	-0.784838	0.289309
H351	H	0.166229	-0.741863	0.279308
H352	H	0.113202	-0.732186	0.311457
H353	H	0.126675	-0.717039	0.256864
H354	H	0.148218	-0.808205	0.316240
H355	H	0.161700	-0.793065	0.261649
O356	O	-0.070328	-0.868246	0.430776
C357	C	-0.093604	-0.856064	0.400217
H358	H	-0.092415	-0.819894	0.371849
H359	H	-0.074980	-0.884122	0.382380
C360	C	-0.147255	-0.898137	0.464091
C361	C	-0.145798	-0.853711	0.429251
H362	H	-0.179450	-0.896688	0.482000
H363	H	-0.131573	-0.906347	0.484679
H364	H	-0.131732	-0.921514	0.449221
H365	H	-0.161316	-0.830336	0.444121
H366	H	-0.161484	-0.845498	0.408666
O367	O	-0.102946	-0.769995	0.397961
C368	C	-0.109644	-0.741183	0.353443
H369	H	-0.075356	-0.733763	0.325726
H370	H	-0.119445	-0.760370	0.342330
C371	C	-0.192152	-0.702929	0.391310
C372	C	-0.150040	-0.693812	0.357268
H373	H	-0.217072	-0.673709	0.393670
H374	H	-0.187641	-0.722342	0.421303
H375	H	-0.200313	-0.718919	0.382045
H376	H	-0.141877	-0.677828	0.366537
H377	H	-0.154551	-0.674395	0.327277
H378	H	-0.231954	-0.601008	0.442726
H379	H	-0.322118	-0.496994	0.324987
H380	H	-0.231721	-0.527215	0.295000
