data_functionalizedCrystal
_audit_creation_method	'MofGen! by Chris Wilmer'
_symmetry_space_group_name_H-M	'P1'
_symmetry_Int_Tables_number	1
_symmetry_cell_setting	triclinic
loop_
_symmetry_equiv_pos_as_xyz
  x,y,z
_cell_length_a	6.817900
_cell_length_b	17.982723
_cell_length_c	11.102193
_cell_angle_alpha	94.239663
_cell_angle_beta	108.604059
_cell_angle_gamma	102.447564
loop_
_atom_site_label
_atom_site_type_symbol
_atom_site_fract_x
_atom_site_fract_y
_atom_site_fract_z
V1	V	-4.080366	-0.105419	-0.396798
O2	O	-4.072043	0.005060	-0.388688
O3	O	-4.026531	-0.209022	-0.394619
O4	O	-4.057619	-0.103799	-0.569611
O5	O	-4.040740	-0.100891	-0.212485
V6	V	-4.561374	-0.092204	-0.374688
O7	O	-4.347141	-0.134406	-0.445299
O8	O	-4.744797	-0.063216	-0.326187
O9	O	-4.392003	0.011400	-0.376867
O10	O	-4.687095	-0.202682	-0.382797
O11	O	-4.718398	-0.096732	-0.559001
O12	O	-4.360915	-0.093823	-0.201874
C13	C	-3.869380	-0.234278	-0.388497
C14	C	-3.906821	-0.318975	-0.387868
C15	C	-4.319569	-0.842741	-0.390291
C16	C	-4.284379	-0.763159	-0.390888
C17	C	-4.083918	-0.719491	-0.384826
C18	C	-3.918629	-0.755408	-0.378154
C19	C	-3.953815	-0.834987	-0.377548
C20	C	-3.776722	-0.434473	-0.380598
C21	C	-3.741549	-0.354889	-0.381209
C22	C	-4.107286	-0.362645	-0.393938
C23	C	-4.142472	-0.442224	-0.393332
C24	C	-3.977178	-0.478133	-0.386653
C25	C	-4.015336	-0.564424	-0.386003
C26	C	-4.045764	-0.633202	-0.385486
C27	C	-3.909034	-0.100055	-0.611716
C28	C	-3.971683	-0.099417	-0.752995
C29	C	-4.050779	-0.238964	-0.790037
C30	C	-4.119752	-0.308435	-0.874929
C31	C	-4.178617	-0.307831	-1.007672
C32	C	-4.168512	-0.237749	-1.055524
C33	C	-4.099539	-0.168278	-0.970632
C34	C	-4.040671	-0.168890	-0.837888
C35	C	-4.020458	-0.028733	-0.933591
C36	C	-3.961578	-0.029335	-0.800847
C37	C	-4.010353	0.041349	-0.981442
C38	C	-3.941365	0.110822	-0.896549
C39	C	-3.882496	0.110215	-0.763799
C40	C	-3.892605	0.040136	-0.715955
C41	C	-4.212495	0.036652	-0.382985
C42	C	-4.154293	0.121348	-0.383623
C43	C	-4.172841	-0.097569	-0.159763
C44	C	-4.089431	-0.098204	-0.018483
H45	H	-3.578303	-0.319336	-0.376272
H46	H	-4.241870	-0.333398	-0.399370
H47	H	-4.482807	-0.878290	-0.395234
H48	H	-3.844663	0.039635	-0.607870
H49	H	-4.418969	-0.733924	-0.396323
H50	H	-4.127979	-0.365495	-0.835954
H51	H	-3.642117	-0.463699	-0.375144
H52	H	-4.234783	-0.364400	-1.076793
H53	H	-3.755403	-0.719846	-0.373210
H54	H	-4.305708	-0.477776	-0.398274
H55	H	-3.819234	-0.864226	-0.372129
H56	H	-4.002821	-0.239463	-0.681952
H57	H	-3.933158	0.167877	-0.935523
H58	H	-4.216472	-0.237264	-1.163613
H59	H	-3.826347	0.166786	-0.694686
H60	H	-4.058302	0.041836	-1.089531
