data_functionalizedCrystal
_audit_creation_method	'MofGen! by Chris Wilmer'
_symmetry_space_group_name_H-M	'P1'
_symmetry_Int_Tables_number	1
_symmetry_cell_setting	triclinic
loop_
_symmetry_equiv_pos_as_xyz
  x,y,z
_cell_length_a	17.699083
_cell_length_b	13.596369
_cell_length_c	17.699083
_cell_angle_alpha	90.006879
_cell_angle_beta	83.283015
_cell_angle_gamma	89.999299
loop_
_atom_site_label
_atom_site_type_symbol
_atom_site_fract_x
_atom_site_fract_y
_atom_site_fract_z
O1	O	1.004077	0.081655	0.095712
O2	O	1.337410	0.414989	0.429046
O3	O	1.670743	0.748322	0.762379
O4	O	0.783698	0.081688	0.108165
O5	O	1.117032	0.415021	0.441498
O6	O	1.450365	0.748355	0.774832
O7	O	0.900114	0.081662	-0.008250
O8	O	1.233447	0.414995	0.325083
O9	O	1.566780	0.748329	0.658416
O10	O	0.887661	0.081681	0.212128
O11	O	1.220994	0.415015	0.545461
O12	O	1.554328	0.748348	0.878795
O13	O	0.900102	-0.081921	-0.008257
O14	O	1.233435	0.251413	0.325077
O15	O	1.566769	0.584746	0.658410
O16	O	0.783687	-0.081895	0.108159
O17	O	1.117020	0.251438	0.441492
O18	O	1.450353	0.584772	0.774825
O19	O	1.004065	-0.081927	0.095706
O20	O	1.337398	0.251406	0.429040
O21	O	1.670732	0.584739	0.762373
Zn22	Zn	0.893874	-0.107884	0.101932
Zn23	Zn	1.227207	0.225450	0.435265
Zn24	Zn	1.560541	0.558783	0.768598
Zn25	Zn	0.893889	0.107644	0.101940
Zn26	Zn	1.227223	0.440977	0.435273
Zn27	Zn	1.560556	0.774311	0.768606
O28	O	0.887650	-0.081902	0.212122
O29	O	1.220983	0.251432	0.545455
O30	O	1.554316	0.584765	0.878788
C31	C	0.755495	-0.000099	0.107716
C32	C	1.088829	0.333234	0.441049
C33	C	1.422162	0.666567	0.774382
C34	C	0.671477	-0.000087	0.106377
C35	C	1.004811	0.333246	0.439710
C36	C	1.338144	0.666579	0.773044
N37	N	0.893869	-0.254975	0.101926
N38	N	1.227202	0.078358	0.435259
N39	N	1.560536	0.411691	0.768592
C40	C	0.622856	-0.000082	0.174710
C41	C	0.956190	0.333252	0.508044
C42	C	1.289523	0.666585	0.841377
C43	C	0.543913	-0.000095	0.173448
C44	C	0.877246	0.333239	0.506782
C45	C	1.210580	0.666572	0.840115
C46	C	0.513592	-0.000106	0.103852
C47	C	0.846926	0.333227	0.437185
C48	C	1.180259	0.666561	0.770518
C49	C	0.562219	-0.000115	0.035513
C50	C	0.895553	0.333219	0.368846
C51	C	1.228886	0.666552	0.702180
C52	C	0.641161	-0.000109	0.036776
C53	C	0.974495	0.333225	0.370109
C54	C	1.307828	0.666558	0.703443
C55	C	0.243856	-0.000139	0.030418
C56	C	0.577190	0.333194	0.363751
C57	C	0.910523	0.666527	0.697085
C58	C	0.164908	-0.000142	0.029160
C59	C	0.498242	0.333191	0.362493
C60	C	0.831575	0.666524	0.695827
C61	C	0.146608	-0.000125	0.167090
C62	C	0.479942	0.333208	0.500423
C63	C	0.813275	0.666542	0.833757
C64	C	0.225550	-0.000119	0.168353
C65	C	0.558883	0.333214	0.501686
C66	C	0.892217	0.666547	0.835020
C67	C	0.274170	-0.000133	0.100015
C68	C	0.607504	0.333200	0.433348
C69	C	0.940837	0.666534	0.766681
C70	C	0.359769	-0.000121	0.101384
C71	C	0.693103	0.333212	0.434718
C72	C	1.026436	0.666546	0.768051
C73	C	0.427995	-0.000111	0.102481
C74	C	0.761328	0.333222	0.435815
C75	C	1.094661	0.666556	0.769148
C76	C	0.893888	-0.656266	0.101940
C77	C	1.227222	-0.322933	0.435274
C78	C	1.560555	0.010400	0.768607
C79	C	0.893881	-0.544615	0.101939
C80	C	1.227214	-0.211282	0.435272
C81	C	1.560547	0.122052	0.768606
C82	C	0.893879	-0.455624	0.101934
C83	C	1.227212	-0.122291	0.435267
C84	C	1.560546	0.211042	0.768600
C85	C	0.893871	-0.343966	0.101931
C86	C	1.227204	-0.010633	0.435264
C87	C	1.560537	0.322701	0.768598
C88	C	1.032268	-0.000138	0.096156
C89	C	1.365601	0.333195	0.429489
C90	C	1.698934	0.666529	0.762822
C91	C	1.116286	-0.000144	0.097494
C92	C	1.449619	0.333190	0.430828
C93	C	1.782953	0.666523	0.764161
C94	C	0.899662	-0.000129	-0.036451
C95	C	1.232995	0.333204	0.296883
C96	C	1.566328	0.666537	0.630216
C97	C	0.898323	-0.000130	-0.120469
C98	C	1.231656	0.333204	0.212865
C99	C	1.564990	0.666537	0.546198
N100	N	0.893900	0.254736	0.101940
N101	N	1.227233	0.588069	0.435273
N102	N	1.560567	0.921403	0.768606
C103	C	0.966656	-0.000141	-0.169090
C104	C	1.299990	0.333192	0.164244
C105	C	1.633323	0.666526	0.497577
C106	C	0.965394	-0.000132	-0.248033
C107	C	1.298727	0.333201	0.085300
C108	C	1.632061	0.666534	0.418634
C109	C	0.895798	-0.000119	-0.278354
C110	C	1.229131	0.333214	0.054980
C111	C	1.562464	0.666548	0.388313
C112	C	0.827459	-0.000104	-0.229727
C113	C	1.160792	0.333229	0.103607
C114	C	1.494126	0.666562	0.436940
C115	C	0.828722	-0.000106	-0.150785
C116	C	1.162055	0.333227	0.182549
C117	C	1.495389	0.666560	0.515882
C118	C	0.822364	-0.000096	-0.548090
C119	C	1.155697	0.333238	-0.214756
C120	C	1.489030	0.666571	0.118577
C121	C	0.821106	-0.000097	-0.627038
C122	C	1.154439	0.333236	-0.293704
C123	C	1.487773	0.666570	0.039629
C124	C	0.959036	-0.000122	-0.645338
C125	C	1.292369	0.333212	-0.312004
C126	C	1.625703	0.666545	0.021329
C127	C	0.960299	-0.000123	-0.566396
C128	C	1.293632	0.333210	-0.233063
C129	C	1.626966	0.666543	0.100271
C130	C	0.891961	-0.000104	-0.517776
C131	C	1.225294	0.333229	-0.184442
C132	C	1.558627	0.666563	0.148891
C133	C	0.893330	-0.000112	-0.432177
C134	C	1.226664	0.333222	-0.098843
C135	C	1.559997	0.666555	0.234490
C136	C	0.894427	-0.000118	-0.363951
C137	C	1.227761	0.333215	-0.030618
C138	C	1.561094	0.666549	0.302715
C139	C	0.888102	-0.000108	0.240322
C140	C	1.221435	0.333225	0.573655
C141	C	1.554768	0.666559	0.906989
C142	C	0.889440	-0.000101	0.324340
C143	C	1.222773	0.333232	0.657673
C144	C	1.556107	0.666565	0.991007
H145	H	0.647537	-0.000072	0.231384
H146	H	0.980870	0.333262	0.564717
H147	H	1.314204	0.666595	0.898051
H148	H	0.107012	-0.000119	0.222734
H149	H	0.440345	0.333214	0.556067
H150	H	0.773678	0.666548	0.889401
Cl151	Cl	1.054154	-0.000168	-0.130980
Cl152	Cl	1.387488	0.333165	0.202353
Cl153	Cl	1.720821	0.666499	0.535686
Cl154	Cl	1.044948	-0.000142	-0.706465
Cl155	Cl	1.378282	0.333191	-0.373132
Cl156	Cl	1.711615	0.666524	-0.039799
H157	H	0.537526	-0.000138	-0.021154
H158	H	0.870859	0.333195	0.312180
H159	H	1.204193	0.666529	0.645513
Cl160	Cl	0.733606	-0.000078	-0.665153
Cl161	Cl	1.066940	0.333255	-0.331820
Cl162	Cl	1.400273	0.666589	0.001513
Cl163	Cl	0.702285	-0.000120	-0.049132
Cl164	Cl	1.035619	0.333213	0.284201
Cl165	Cl	1.368952	0.666546	0.617534
Cl166	Cl	0.304969	-0.000156	-0.055494
Cl167	Cl	0.638302	0.333178	0.277840
Cl168	Cl	0.971635	0.666511	0.611173
Cl169	Cl	1.051303	-0.000150	-0.309154
Cl170	Cl	1.384637	0.333184	0.024180
Cl171	Cl	1.717970	0.666517	0.357513
H172	H	0.766718	-0.000080	-0.508512
H173	H	1.100052	0.333253	-0.175179
H174	H	1.433385	0.666587	0.158155
H175	H	1.016971	-0.000139	-0.541714
H176	H	1.350305	0.333194	-0.208380
H177	H	1.683638	0.666528	0.124953
H178	H	0.504328	-0.000089	0.229092
H179	H	0.837662	0.333245	0.562426
H180	H	1.170995	0.666578	0.895759
H181	H	0.770792	-0.000087	-0.254420
H182	H	1.104126	0.333246	0.078913
H183	H	1.437459	0.666579	0.412247
H184	H	0.250232	-0.000105	0.225025
H185	H	0.583566	0.333228	0.558359
H186	H	0.916899	0.666561	0.891692
H187	H	0.140225	-0.000153	-0.027517
H188	H	0.473558	0.333180	0.305816
H189	H	0.806892	0.666514	0.639150
H190	H	0.773078	-0.000097	-0.111198
H191	H	1.106411	0.333237	0.222136
H192	H	1.439745	0.666570	0.555469
