data_functionalizedCrystal
_audit_creation_method	'MofGen! by Chris Wilmer'
_symmetry_space_group_name_H-M	'P1'
_symmetry_Int_Tables_number	1
_symmetry_cell_setting	triclinic
loop_
_symmetry_equiv_pos_as_xyz
  x,y,z
_cell_length_a	10.654550
_cell_length_b	17.699083
_cell_length_c	9.130313
_cell_angle_alpha	89.994594
_cell_angle_beta	89.999724
_cell_angle_gamma	83.883973
loop_
_atom_site_label
_atom_site_type_symbol
_atom_site_fract_x
_atom_site_fract_y
_atom_site_fract_z
O1	O	1.665979	0.106303	-0.121693
O2	O	1.300323	0.116430	-0.121721
O3	O	1.493481	0.001243	-0.121693
O4	O	1.472820	0.221490	-0.121721
O5	O	1.493468	0.001240	0.121906
O6	O	1.300310	0.116427	0.121878
O7	O	1.665966	0.106299	0.121906
Cu8	Cu	1.483136	0.111363	0.144134
Cu9	Cu	1.483152	0.111367	-0.143949
O10	O	1.472807	0.221487	0.121878
C11	C	1.253531	0.115685	0.000076
C12	C	1.114127	0.113460	0.000066
C13	C	1.033454	0.181281	0.000061
C14	C	0.902470	0.179186	0.000087
C15	C	0.932844	0.041444	0.000115
C16	C	1.063826	0.043539	0.000100
C17	C	1.492735	-0.026960	0.000106
C18	C	1.490514	-0.110993	0.000107
C19	C	1.603894	-0.158893	0.000117
C20	C	1.601799	-0.237849	0.000104
C21	C	1.486323	-0.268904	0.000091
C22	C	1.372935	-0.220998	0.000076
C23	C	1.375030	-0.142043	0.000079
C24	C	1.364481	-0.539415	0.000064
C25	C	1.362394	-0.618376	0.000065
C26	C	1.591249	-0.635221	0.000089
C27	C	1.593345	-0.556266	0.000092
C28	C	1.479957	-0.508367	0.000069
C29	C	1.482229	-0.422753	0.000080
C30	C	1.484050	-0.354516	0.000090
C31	C	1.712757	0.107045	0.000106
C32	C	1.852161	0.109269	0.000107
C33	C	1.473554	0.249690	0.000075
C34	C	1.475775	0.333722	0.000065
N35	N	1.483135	0.111360	0.346757
N36	N	1.483164	0.111364	-0.346572
C37	C	1.568694	0.060376	0.423421
C38	C	1.568706	0.060376	0.576758
C39	C	1.397596	0.162350	0.576753
C40	C	1.397579	0.162345	0.423419
H41	H	0.836791	0.234412	0.000087
C42	C	1.726517	-0.290536	0.000131
H43	H	1.795589	-0.260733	0.000160
H44	H	1.730474	-0.321684	-0.084816
H45	H	1.730442	-0.321689	0.085091
H46	H	1.683575	-0.674231	0.000100
C47	C	1.235365	-0.652535	0.000032
H48	H	1.168134	-0.612700	0.000002
H49	H	1.229776	-0.682990	0.084977
H50	H	1.229813	-0.682981	-0.084931
C51	C	1.239759	-0.486736	0.000064
H52	H	1.170690	-0.516541	0.000077
H53	H	1.235811	-0.455578	-0.084880
H54	H	1.235820	-0.455593	0.085027
H55	H	1.697927	-0.133614	0.000137
H56	H	1.638374	0.018860	0.639173
C57	C	1.088789	0.258188	0.000035
H58	H	1.178351	0.249725	0.000013
H59	H	1.061090	0.286142	0.084981
H60	H	1.061074	0.286140	-0.084927
C61	C	0.877514	-0.035465	0.000135
H62	H	0.944323	-0.075556	0.000148
H63	H	0.827044	-0.039145	-0.084808
H64	H	0.827056	-0.039146	0.085099
H65	H	1.687377	-0.530986	0.000109
H66	H	1.278912	-0.246289	0.000056
H67	H	1.282705	-0.103043	0.000070
C68	C	1.662790	0.004288	0.339097
H69	H	1.713738	-0.026081	0.406722
H70	H	1.714972	0.031802	0.279262
H71	H	1.617700	-0.027476	0.279303
C72	C	1.303470	0.218434	0.339076
H73	H	1.315709	0.211123	0.236777
H74	H	1.316953	0.269023	0.364186
H75	H	1.219685	0.209743	0.364215
C76	C	1.152572	-0.031067	0.000098
H77	H	1.103857	-0.073009	0.000099
H78	H	1.204308	-0.033112	0.085040
H79	H	1.204289	-0.033109	-0.084868
H80	H	1.327939	0.203863	0.639187
