data_functionalizedCrystal
_audit_creation_method	'MofGen! by Chris Wilmer'
_symmetry_space_group_name_H-M	'P1'
_symmetry_Int_Tables_number	1
_symmetry_cell_setting	triclinic
loop_
_symmetry_equiv_pos_as_xyz
  x,y,z
_cell_length_a	12.759401
_cell_length_b	14.908178
_cell_length_c	12.759386
_cell_angle_alpha	86.638065
_cell_angle_beta	89.958838
_cell_angle_gamma	93.314343
loop_
_atom_site_label
_atom_site_type_symbol
_atom_site_fract_x
_atom_site_fract_y
_atom_site_fract_z
Zn1	Zn	1.582340	-0.358866	-0.569832
Zn2	Zn	1.572005	-0.509852	-0.383991
Zn3	Zn	1.406564	-0.358995	-0.394163
Zn4	Zn	1.396481	-0.509701	-0.559643
O5	O	1.489348	-0.434353	-0.476907
O6	O	1.727990	-0.378903	-0.545187
O7	O	1.549953	-0.489957	-0.238311
O8	O	1.438427	-0.232718	-0.425987
O9	O	1.720396	-0.489832	-0.408651
O10	O	1.567569	-0.232623	-0.555050
O11	O	1.428405	-0.379123	-0.245784
O12	O	1.258206	-0.378977	-0.416106
O13	O	1.421241	-0.489576	-0.708023
O14	O	1.250798	-0.489701	-0.537684
O15	O	1.557791	-0.378757	-0.715510
O16	O	1.540176	-0.636091	-0.398770
O17	O	1.411219	-0.635980	-0.527821
C18	C	1.216381	-0.434337	-0.476894
C19	C	1.099604	-0.434352	-0.476911
C20	C	0.931174	-0.492107	-0.540111
C21	C	1.040898	-0.492097	-0.540101
C22	C	1.048578	-0.376619	-0.413720
C23	C	0.938855	-0.376635	-0.413725
C24	C	1.183705	-0.598505	-0.570255
C25	C	1.234727	-0.656227	-0.633457
C26	C	1.198258	-0.670141	-0.735009
C27	C	1.110769	-0.626319	-0.773381
C28	C	1.059753	-0.568591	-0.710186
C29	C	1.096219	-0.554694	-0.608618
C30	C	0.796047	-0.270226	-0.383582
C31	C	0.745030	-0.212492	-0.320392
C32	C	0.781497	-0.198569	-0.218838
C33	C	0.868990	-0.242374	-0.180471
C34	C	0.920008	-0.300108	-0.243661
C35	C	0.883533	-0.314033	-0.345213
C36	C	1.473510	-0.668773	-0.461109
C37	C	1.466831	-0.769059	-0.454386
C38	C	1.588654	-0.957258	-0.576290
C39	C	1.582381	-1.051486	-0.569976
C40	C	1.448010	-1.051743	-0.435451
C41	C	1.454282	-0.957516	-0.441764
C42	C	1.524607	-0.910277	-0.512185
C43	C	1.530884	-0.816047	-0.518493
C44	C	1.396508	-0.816307	-0.383973
C45	C	1.390236	-0.910534	-0.377660
C46	C	1.763380	-0.434370	-0.476921
C47	C	1.880156	-0.434377	-0.476927
C48	C	1.489544	-0.434135	-0.750955
C49	C	1.489628	-0.434042	-0.867739
C50	C	1.505276	-0.199018	-0.492790
C51	C	1.512063	-0.098732	-0.499558
C52	C	1.489217	-0.434505	-0.203929
C53	C	1.489354	-0.434344	-0.087164
C54	C	1.425622	-0.376987	-0.036219
C55	C	1.425761	-0.376833	0.073495
C56	C	1.553367	-0.491402	0.081309
C57	C	1.553232	-0.491550	-0.028403
C58	C	1.394692	-0.270458	0.216028
C59	C	1.330944	-0.213109	0.266977
C60	C	1.229165	-0.199939	0.230629
C61	C	1.191114	-0.244132	0.143335
C62	C	1.254857	-0.301488	0.092392
C63	C	1.356651	-0.314640	0.128737
C64	C	1.584290	-0.597927	-0.170938
C65	C	1.648028	-0.655288	-0.221883
C66	C	1.749808	-0.668467	-0.185536
C67	C	1.787854	-0.624290	-0.098238
C68	C	1.724116	-0.566929	-0.047293
C69	C	1.622338	-0.553748	-0.083647
H70	H	0.673793	-0.176817	-0.351643
H71	H	1.373612	-0.330402	-0.084059
H72	H	1.477572	-0.281167	0.245623
Br73	Br	1.294789	-0.974652	-0.282104
H74	H	1.801699	-0.715181	-0.227022
Br75	Br	1.309594	-0.752541	-0.296957
Br76	Br	1.038749	-0.359563	-0.191589
Br77	Br	0.712267	-0.120203	-0.133085
Br78	Br	1.446158	-0.580036	-0.220278
Br79	Br	1.669299	-1.115245	-0.656985
Br80	Br	1.684107	-0.893144	-0.671842
Br81	Br	1.596397	-0.715238	-0.340367
H82	H	1.223877	-0.337469	0.021319
H83	H	0.898687	-0.231034	-0.097779
Br84	Br	1.052973	-0.226266	0.094019
H85	H	1.605373	-0.537979	0.129165
Br86	Br	1.233194	-0.579638	-0.432421
H87	H	0.766346	-0.281559	-0.466276
H88	H	0.883384	-0.539125	-0.591574
H89	H	1.870730	-0.635022	-0.068642
Br90	Br	1.061293	-0.645190	-0.911219
H91	H	1.177261	-0.153243	0.272120
H92	H	1.588149	-0.777586	-0.575830
Br93	Br	1.353461	-0.715692	-0.581384
H94	H	1.390750	-1.090222	-0.378122
Br95	Br	1.128248	-0.298255	-0.327954
H96	H	1.361934	-0.177127	0.338052
Br97	Br	1.775748	-0.506977	0.071191
H98	H	1.239808	-0.717139	-0.786468
Br99	Br	0.941028	-0.509119	-0.762252
