data_functionalizedCrystal
_audit_creation_method	'MofGen! by Chris Wilmer'
_symmetry_space_group_name_H-M	'P1'
_symmetry_Int_Tables_number	1
_symmetry_cell_setting	triclinic
loop_
_symmetry_equiv_pos_as_xyz
  x,y,z
_cell_length_a	17.077404
_cell_length_b	21.295417
_cell_length_c	17.077396
_cell_angle_alpha	89.967856
_cell_angle_beta	89.980499
_cell_angle_gamma	90.029927
loop_
_atom_site_label
_atom_site_type_symbol
_atom_site_fract_x
_atom_site_fract_y
_atom_site_fract_z
Zn1	Zn	1.200017	-0.250605	-0.443823
Zn2	Zn	1.450017	-0.000605	-0.193823
Zn3	Zn	1.700017	0.249395	0.056177
Zn4	Zn	1.950017	0.499395	0.306177
Zn5	Zn	1.199909	-0.355878	-0.312548
Zn6	Zn	1.449909	-0.105878	-0.062548
Zn7	Zn	1.699909	0.144122	0.187452
Zn8	Zn	1.949909	0.394122	0.437452
Zn9	Zn	1.068749	-0.250628	-0.312571
Zn10	Zn	1.318749	-0.000628	-0.062571
Zn11	Zn	1.568749	0.249372	0.187429
Zn12	Zn	1.818749	0.499372	0.437429
Zn13	Zn	1.068702	-0.355841	-0.443772
Zn14	Zn	1.318702	-0.105841	-0.193772
Zn15	Zn	1.568702	0.144159	0.056228
Zn16	Zn	1.818702	0.394159	0.306228
O17	O	1.134344	-0.303238	-0.378178
O18	O	1.384344	-0.053238	-0.128178
O19	O	1.634344	0.196762	0.121822
O20	O	1.884344	0.446762	0.371822
O21	O	1.309850	-0.264577	-0.426421
O22	O	1.559850	-0.014577	-0.176421
O23	O	1.809850	0.235423	0.073579
O24	O	2.059850	0.485423	0.323579
O25	O	1.182485	-0.341942	-0.202704
O26	O	1.432485	-0.091942	0.047296
O27	O	1.682485	0.158058	0.297296
O28	O	1.932485	0.408058	0.547296
O29	O	1.086228	-0.162535	-0.330012
O30	O	1.336228	0.087465	-0.080012
O31	O	1.586228	0.337465	0.169988
O32	O	1.836228	0.587465	0.419988
O33	O	1.309770	-0.341920	-0.329974
O34	O	1.559770	-0.091920	-0.079974
O35	O	1.809770	0.158080	0.170026
O36	O	2.059770	0.408080	0.420026
O37	O	1.182670	-0.162519	-0.426442
O38	O	1.432670	0.087481	-0.176442
O39	O	1.682670	0.337481	0.073558
O40	O	1.932670	0.587481	0.323558
O41	O	1.086122	-0.264614	-0.202721
O42	O	1.336122	-0.014614	0.047279
O43	O	1.586122	0.235386	0.297279
O44	O	1.836122	0.485386	0.547279
O45	O	0.958896	-0.264578	-0.329963
O46	O	1.208896	-0.014578	-0.079963
O47	O	1.458896	0.235422	0.170037
O48	O	1.708896	0.485422	0.420037
O49	O	1.086146	-0.341856	-0.553626
O50	O	1.336146	-0.091856	-0.303626
O51	O	1.586146	0.158144	-0.053626
O52	O	1.836146	0.408144	0.196374
O53	O	0.958861	-0.341878	-0.426356
O54	O	1.208861	-0.091878	-0.176356
O55	O	1.458861	0.158122	0.073644
O56	O	1.708861	0.408122	0.323644
O57	O	1.182624	-0.264540	-0.553663
O58	O	1.432624	-0.014540	-0.303663
O59	O	1.682624	0.235460	-0.053663
O60	O	1.932624	0.485460	0.196337
O61	O	1.182439	-0.443963	-0.329925
O62	O	1.432439	-0.193963	-0.079925
O63	O	1.682439	0.056037	0.170075
O64	O	1.932439	0.306037	0.420075
O65	O	1.086041	-0.443935	-0.426334
O66	O	1.336041	-0.193935	-0.176334
O67	O	1.586041	0.056065	0.073666
O68	O	1.836041	0.306065	0.323666
C69	C	0.930396	-0.303227	-0.378157
C70	C	1.180396	-0.053227	-0.128157
C71	C	1.430396	0.196773	0.121843
C72	C	1.680396	0.446773	0.371843
C73	C	0.843147	-0.303237	-0.378166
C74	C	1.093147	-0.053237	-0.128166
C75	C	1.343147	0.196763	0.121834
C76	C	1.593147	0.446763	0.371834
C77	C	0.802159	-0.343548	-0.428277
C78	C	1.052159	-0.093548	-0.178277
C79	C	1.302159	0.156452	0.071723
C80	C	1.552159	0.406452	0.321723
C81	C	0.720178	-0.343549	-0.428290
C82	C	0.970178	-0.093549	-0.178290
C83	C	1.220178	0.156451	0.071710
C84	C	1.470178	0.406451	0.321710
C85	C	0.679187	-0.303242	-0.378187
C86	C	0.929187	-0.053242	-0.128187
C87	C	1.179187	0.196758	0.121813
C88	C	1.429187	0.446758	0.371813
C89	C	0.720181	-0.262927	-0.328073
C90	C	0.970181	-0.012927	-0.078073
C91	C	1.220181	0.237073	0.171927
C92	C	1.470181	0.487073	0.421927
C93	C	0.802160	-0.262923	-0.328065
C94	C	1.052160	-0.012923	-0.078065
C95	C	1.302160	0.237077	0.171935
C96	C	1.552160	0.487077	0.421935
C97	C	0.549311	-0.262940	-0.328092
C98	C	0.799311	-0.012940	-0.078092
C99	C	1.049311	0.237060	0.171908
C100	C	1.299311	0.487060	0.421908
C101	C	0.467326	-0.262944	-0.328099
C102	C	0.717326	-0.012944	-0.078099
C103	C	0.967326	0.237056	0.171901
C104	C	1.217326	0.487056	0.421901
C105	C	0.467329	-0.343566	-0.428317
C106	C	0.717329	-0.093566	-0.178317
C107	C	0.967329	0.156434	0.071683
C108	C	1.217329	0.406434	0.321683
C109	C	0.549308	-0.343562	-0.428309
C110	C	0.799308	-0.093562	-0.178309
C111	C	1.049308	0.156438	0.071691
C112	C	1.299308	0.406438	0.321691
C113	C	0.590296	-0.303247	-0.378194
C114	C	0.840296	-0.053247	-0.128194
C115	C	1.090296	0.196753	0.121806
C116	C	1.340296	0.446753	0.371806
C117	C	1.134244	-0.466790	-0.378139
C118	C	1.384244	-0.216790	-0.128139
C119	C	1.634244	0.033210	0.121861
C120	C	1.884244	0.283210	0.371861
C121	C	1.134273	-0.536758	-0.378148
C122	C	1.384273	-0.286758	-0.128148
C123	C	1.634273	-0.036758	0.121852
C124	C	1.884273	0.213242	0.371852
C125	C	1.184462	-0.569559	-0.428395
C126	C	1.434462	-0.319559	-0.178395
C127	C	1.684462	-0.069559	0.071605
C128	C	1.934462	0.180441	0.321605
C129	C	1.184490	-0.635301	-0.428414
C130	C	1.434490	-0.385301	-0.178414
C131	C	1.684490	-0.135301	0.071586
C132	C	1.934490	0.114699	0.321586
C133	C	1.134337	-0.668240	-0.378173
C134	C	1.384337	-0.418240	-0.128173
C135	C	1.634337	-0.168240	0.121827
C136	C	1.884337	0.081760	0.371827
C137	C	1.084138	-0.635431	-0.327922
C138	C	1.334138	-0.385431	-0.077922
C139	C	1.584138	-0.135431	0.172078
C140	C	1.834138	0.114569	0.422078
C141	C	1.084107	-0.569690	-0.327910
C142	C	1.334107	-0.319690	-0.077910
C143	C	1.584107	-0.069690	0.172090
C144	C	1.834107	0.180310	0.422090
N145	N	1.128408	-0.771504	-0.309474
N146	N	1.378408	-0.521504	-0.059474
N147	N	1.628408	-0.271504	0.190526
N148	N	1.878408	-0.021504	0.440526
N149	N	1.128443	-0.833955	-0.309488
N150	N	1.378443	-0.583955	-0.059488
N151	N	1.628443	-0.333955	0.190512
N152	N	1.878443	-0.083955	0.440512
C153	C	1.134429	-0.866315	-0.378208
C154	C	1.384429	-0.616315	-0.128208
C155	C	1.634429	-0.366315	0.121792
C156	C	1.884429	-0.116315	0.371792
N157	N	1.140394	-0.833864	-0.446915
N158	N	1.390394	-0.583864	-0.196915
N159	N	1.640394	-0.333864	0.053085
N160	N	1.890394	-0.083864	0.303085
N161	N	1.140363	-0.771407	-0.446900
N162	N	1.390363	-0.521407	-0.196900
N163	N	1.640363	-0.271407	0.053100
N164	N	1.890363	-0.021407	0.303100
C165	C	1.134366	-0.739526	-0.378181
C166	C	1.384366	-0.489526	-0.128181
C167	C	1.634366	-0.239526	0.121819
C168	C	1.884366	0.010474	0.371819
C169	C	1.184650	-0.970402	-0.428480
C170	C	1.434650	-0.720402	-0.178480
C171	C	1.684650	-0.470402	0.071520
C172	C	1.934650	-0.220402	0.321520
C173	C	1.184672	-1.036145	-0.428501
C174	C	1.434672	-0.786145	-0.178501
C175	C	1.684672	-0.536145	0.071499
C176	C	1.934672	-0.286145	0.321499
C177	C	1.084325	-1.036274	-0.328002
C178	C	1.334325	-0.786274	-0.078002
C179	C	1.584325	-0.536274	0.171998
C180	C	1.834325	-0.286274	0.421998
C181	C	1.084299	-0.970532	-0.327988
C182	C	1.334299	-0.720532	-0.077988
C183	C	1.584299	-0.470532	0.172012
C184	C	1.834299	-0.220532	0.422012
C185	C	1.134465	-0.937599	-0.378226
C186	C	1.384465	-0.687599	-0.128226
C187	C	1.634465	-0.437599	0.121774
C188	C	1.884465	-0.187599	0.371774
C189	C	1.339089	-0.303250	-0.378201
C190	C	1.589089	-0.053250	-0.128201
C191	C	1.839089	0.196750	0.121799
C192	C	2.089089	0.446750	0.371799
C193	C	1.426338	-0.303255	-0.378210
C194	C	1.676338	-0.053255	-0.128210
C195	C	1.926338	0.196745	0.121790
C196	C	2.176338	0.446745	0.371790
C197	C	1.134392	-0.303192	-0.582923
C198	C	1.384392	-0.053192	-0.332923
C199	C	1.634392	0.196808	-0.082923
C200	C	1.884392	0.446808	0.167077
C201	C	1.134412	-0.303172	-0.670173
C202	C	1.384412	-0.053172	-0.420173
C203	C	1.634412	0.196828	-0.170173
C204	C	1.884412	0.446828	0.079827
C205	C	1.134466	-0.139048	-0.378235
C206	C	1.384466	0.110952	-0.128235
C207	C	1.634466	0.360952	0.121765
C208	C	1.884466	0.610952	0.371765
C209	C	1.134518	-0.069080	-0.378260
C210	C	1.384518	0.180920	-0.128260
C211	C	1.634518	0.430920	0.121740
C212	C	1.884518	0.680920	0.371740
C213	C	1.184650	-0.262910	-0.711183
C214	C	1.434650	-0.012910	-0.461183
C215	C	1.684650	0.237090	-0.211183
C216	C	1.934650	0.487090	0.038817
C217	C	1.184659	-0.262889	-0.793164
C218	C	1.434659	-0.012889	-0.543164
C219	C	1.684659	0.237111	-0.293164
C220	C	1.934659	0.487111	-0.043164
C221	C	1.134434	-0.303134	-0.834132
C222	C	1.384434	-0.053134	-0.584132
C223	C	1.634434	0.196866	-0.334132
C224	C	1.884434	0.446866	-0.084132
C225	C	1.084191	-0.343397	-0.793116
C226	C	1.334191	-0.093397	-0.543116
C227	C	1.584191	0.156603	-0.293116
C228	C	1.834191	0.406603	-0.043116
C229	C	1.084178	-0.343415	-0.711137
C230	C	1.334178	-0.093415	-0.461137
C231	C	1.584178	0.156585	-0.211137
C232	C	1.834178	0.406585	0.038863
C233	C	1.084223	-0.343360	-0.963986
C234	C	1.334223	-0.093360	-0.713986
C235	C	1.584223	0.156640	-0.463986
C236	C	1.834223	0.406640	-0.213986
C237	C	1.084237	-0.343343	-1.045970
C238	C	1.334237	-0.093343	-0.795970
C239	C	1.584237	0.156657	-0.545970
C240	C	1.834237	0.406657	-0.295970
C241	C	1.184703	-0.262834	-1.046013
C242	C	1.434703	-0.012834	-0.796013
C243	C	1.684703	0.237166	-0.546013
C244	C	1.934703	0.487166	-0.296013
C245	C	1.184691	-0.262851	-0.964034
C246	C	1.434691	-0.012851	-0.714034
C247	C	1.684691	0.237149	-0.464034
C248	C	1.934691	0.487149	-0.214034
C249	C	1.134448	-0.303116	-0.923023
C250	C	1.384448	-0.053116	-0.673023
C251	C	1.634448	0.196884	-0.423023
C252	C	1.884448	0.446884	-0.173023
C253	C	1.134342	-0.303239	-0.174231
C254	C	1.384342	-0.053239	0.075769
C255	C	1.634342	0.196761	0.325769
C256	C	1.884342	0.446761	0.575769
C257	C	1.134474	-0.303081	-0.086981
C258	C	1.384474	-0.053081	0.163019
C259	C	1.634474	0.196919	0.413019
C260	C	1.884474	0.446919	0.663019
H261	H	0.835531	-0.230095	-0.287263
H262	H	1.085531	0.019905	-0.037263
H263	H	1.335531	0.269905	0.212737
H264	H	1.585531	0.519905	0.462737
H265	H	0.686799	-0.230106	-0.287282
H266	H	0.936799	0.019894	-0.037282
H267	H	1.186799	0.269894	0.212718
H268	H	1.436799	0.519894	0.462718
H269	H	0.686810	-0.376375	-0.469095
H270	H	0.936810	-0.126375	-0.219095
H271	H	1.186810	0.123625	0.030905
H272	H	1.436810	0.373625	0.280905
Cl273	Cl	1.247866	-0.212216	-1.097569
Cl274	Cl	1.497866	0.037784	-0.847569
Cl275	Cl	1.747866	0.287784	-0.597569
Cl276	Cl	1.997866	0.537784	-0.347569
Cl277	Cl	1.021018	-0.394030	-0.659580
Cl278	Cl	1.271018	-0.144030	-0.409580
Cl279	Cl	1.521018	0.105970	-0.159580
Cl280	Cl	1.771018	0.355970	0.090420
H281	H	1.043298	-0.376137	-0.930597
H282	H	1.293298	-0.126137	-0.680597
H283	H	1.543298	0.123863	-0.430597
H284	H	1.793298	0.373863	-0.180597
Cl285	Cl	1.247797	-0.212317	-0.659689
Cl286	Cl	1.497797	0.037683	-0.409689
Cl287	Cl	1.747797	0.287683	-0.159689
Cl288	Cl	1.997797	0.537683	0.090311
H289	H	1.043485	-1.063092	-0.287099
H290	H	1.293485	-0.813092	-0.037099
H291	H	1.543485	-0.563092	0.212901
H292	H	1.793485	-0.313092	0.462901
Cl293	Cl	1.247836	-0.212261	-0.912532
Cl294	Cl	1.497836	0.037739	-0.662532
Cl295	Cl	1.747836	0.287739	-0.412532
Cl296	Cl	1.997836	0.537739	-0.162532
H297	H	0.835528	-0.376372	-0.469075
H298	H	1.085528	-0.126372	-0.219075
H299	H	1.335528	0.123628	0.030925
H300	H	1.585528	0.373628	0.280925
Cl301	Cl	1.021087	-0.393930	-1.097472
Cl302	Cl	1.271087	-0.143930	-0.847472
Cl303	Cl	1.521087	0.106070	-0.597472
Cl304	Cl	1.771087	0.356070	-0.347472
H305	H	1.043302	-0.662255	-0.287017
H306	H	1.293302	-0.412255	-0.037017
H307	H	1.543302	-0.162255	0.212983
H308	H	1.793302	0.087745	0.462983
Cl309	Cl	1.021201	-0.929294	-0.264816
Cl310	Cl	1.271201	-0.679294	-0.014816
Cl311	Cl	1.521201	-0.429294	0.235184
Cl312	Cl	1.771201	-0.179294	0.485184
H313	H	0.582681	-0.376386	-0.469103
H314	H	0.832681	-0.126386	-0.219103
H315	H	1.082681	0.123614	0.030897
H316	H	1.332681	0.373614	0.280897
H317	H	1.043295	-0.376163	-0.826478
H318	H	1.293295	-0.126163	-0.576478
H319	H	1.543295	0.123837	-0.326478
H320	H	1.793295	0.373837	-0.076478
Cl321	Cl	1.247852	-0.212300	-0.844717
Cl322	Cl	1.497852	0.037700	-0.594717
Cl323	Cl	1.747852	0.287700	-0.344717
Cl324	Cl	1.997852	0.537700	-0.094717
Cl325	Cl	1.247523	-0.528162	-0.491557
Cl326	Cl	1.497523	-0.278162	-0.241557
Cl327	Cl	1.747523	-0.028162	0.008443
Cl328	Cl	1.997523	0.221838	0.258443
H329	H	0.433953	-0.376389	-0.469124
H330	H	0.683953	-0.126389	-0.219124
H331	H	0.933953	0.123611	0.030876
H332	H	1.183953	0.373611	0.280876
Cl333	Cl	1.021006	-0.528452	-0.264737
Cl334	Cl	1.271006	-0.278452	-0.014737
Cl335	Cl	1.521006	-0.028452	0.235263
Cl336	Cl	1.771006	0.221548	0.485263
Cl337	Cl	0.415795	-0.212275	-0.265107
Cl338	Cl	0.665795	0.037725	-0.015107
Cl339	Cl	0.915795	0.287725	0.234893
Cl340	Cl	1.165795	0.537725	0.484893
Cl341	Cl	1.247594	-0.676546	-0.491582
Cl342	Cl	1.497594	-0.426546	-0.241582
Cl343	Cl	1.747594	-0.176546	0.008418
Cl344	Cl	1.997594	0.073454	0.258418
Cl345	Cl	0.600837	-0.212257	-0.265090
Cl346	Cl	0.850837	0.037743	-0.015090
Cl347	Cl	1.100837	0.287743	0.234910
Cl348	Cl	1.350837	0.537743	0.484910
Cl349	Cl	1.247763	-1.077382	-0.491685
Cl350	Cl	1.497763	-0.827382	-0.241685
Cl351	Cl	1.747763	-0.577382	0.008315
Cl352	Cl	1.997763	-0.327382	0.258315
Cl353	Cl	1.247712	-0.928998	-0.491639
Cl354	Cl	1.497712	-0.678998	-0.241639
Cl355	Cl	1.747712	-0.428998	0.008361
Cl356	Cl	1.997712	-0.178998	0.258361
