data_functionalizedCrystal
_audit_creation_method	'MofGen! by Chris Wilmer'
_symmetry_space_group_name_H-M	'P1'
_symmetry_Int_Tables_number	1
_symmetry_cell_setting	triclinic
loop_
_symmetry_equiv_pos_as_xyz
  x,y,z
_cell_length_a	21.295417
_cell_length_b	13.032951
_cell_length_c	13.032268
_cell_angle_alpha	90.885735
_cell_angle_beta	82.859352
_cell_angle_gamma	97.168217
loop_
_atom_site_label
_atom_site_type_symbol
_atom_site_fract_x
_atom_site_fract_y
_atom_site_fract_z
Zn1	Zn	-0.425147	-1.498331	0.780770
Zn2	Zn	0.074853	-0.998331	1.280770
Zn3	Zn	-0.518932	-1.520042	0.608767
Zn4	Zn	-0.018932	-1.020042	1.108767
Zn5	Zn	-0.398847	-1.348199	0.587013
Zn6	Zn	0.101153	-0.848199	1.087013
Zn7	Zn	-0.515523	-1.326292	0.758887
Zn8	Zn	-0.015523	-0.826292	1.258887
O9	O	-0.464612	-1.423216	0.683859
O10	O	0.035388	-0.923216	1.183859
O11	O	-0.450021	-1.645127	0.776215
O12	O	0.049979	-1.145127	1.276215
O13	O	-0.493423	-1.515501	0.461967
O14	O	0.006577	-1.015501	0.961967
O15	O	-0.314257	-1.368196	0.612769
O16	O	0.185743	-0.868196	1.112769
O17	O	-0.518925	-1.661078	0.649845
O18	O	-0.018925	-1.161078	1.149845
O19	O	-0.333579	-1.478498	0.755121
O20	O	0.166421	-0.978498	1.255121
O21	O	-0.405197	-1.389248	0.445985
O22	O	0.094803	-0.889248	0.945985
O23	O	-0.401891	-1.201377	0.591551
O24	O	0.098109	-0.701377	1.091551
O25	O	-0.513115	-1.330859	0.905704
O26	O	-0.013115	-0.830859	1.405704
O27	O	-0.487612	-1.185282	0.717826
O28	O	0.012388	-0.685282	1.217826
O29	O	-0.446715	-1.457255	0.921781
O30	O	0.053285	-0.957255	1.421781
O31	O	-0.606559	-1.494258	0.628627
O32	O	-0.106559	-0.994258	1.128627
O33	O	-0.604054	-1.351911	0.738920
O34	O	-0.104054	-0.851911	1.238920
C35	C	-0.441528	-1.156013	0.649954
C36	C	0.058472	-0.656013	1.149954
C37	C	-0.431670	-1.041700	0.635473
C38	C	0.068330	-0.541700	1.135473
C39	C	-0.628149	-1.423088	0.683785
C40	C	-0.128149	-0.923088	1.183785
C41	C	-0.698120	-1.423123	0.683800
C42	C	-0.198120	-0.923123	1.183800
C43	C	-0.469743	-0.982811	0.691403
C44	C	0.030257	-0.482811	1.191403
C45	C	-0.459554	-0.864662	0.676438
C46	C	0.040446	-0.364662	1.176438
C47	C	-0.732280	-1.497294	0.626445
C48	C	-0.232280	-0.997294	1.126445
C49	C	-0.798028	-1.497339	0.626474
C50	C	-0.298028	-0.997339	1.126474
C51	C	-0.829612	-1.423197	0.683845
C52	C	-0.329612	-0.923197	1.183845
C53	C	-0.795445	-1.349021	0.741212
C54	C	-0.295445	-0.849021	1.241212
C55	C	-0.729699	-1.348984	0.741189
C56	C	-0.229699	-0.848984	1.241189
N57	N	-0.925632	-1.332234	0.680269
N58	N	-0.425632	-0.832234	1.180269
N59	N	-0.988088	-1.332273	0.680285
N60	N	-0.488088	-0.832273	1.180285
C61	C	-1.027701	-1.423305	0.683919
C62	C	-0.527701	-0.923305	1.183919
N63	N	-1.002497	-1.514301	0.687516
N64	N	-0.502497	-1.014301	1.187516
N65	N	-0.940035	-1.514262	0.687494
N66	N	-0.440035	-1.014262	1.187494
C67	C	-0.900902	-1.423229	0.683876
C68	C	-0.400902	-0.923229	1.183876
C69	C	-1.133152	-1.497530	0.626593
C70	C	-0.633152	-0.997530	1.126593
C71	C	-1.198902	-1.497576	0.626629
C72	C	-0.698902	-0.997576	1.126629
C73	C	-1.196317	-1.349249	0.741361
C74	C	-0.696317	-0.849249	1.241361
C75	C	-1.130569	-1.349212	0.741331
C76	C	-0.630569	-0.849212	1.241331
C77	C	-1.098990	-1.423351	0.683941
C78	C	-0.598990	-0.923351	1.183941
C79	C	-0.300441	-1.423369	0.683959
C80	C	0.199559	-0.923369	1.183959
C81	C	-0.230482	-1.423434	0.684002
C82	C	0.269518	-0.923434	1.184002
C83	C	-0.482468	-1.389192	0.952101
C84	C	0.017532	-0.889192	1.452101
C85	C	-0.490078	-1.374693	1.066409
C86	C	0.009922	-0.874693	1.566409
C87	C	-0.487780	-0.691462	0.717890
C88	C	0.012220	-0.191462	1.217890
C89	C	-0.497633	-0.805775	0.732375
C90	C	0.002367	-0.305775	1.232375
C91	C	-0.446785	-1.457167	0.416668
C92	C	0.053215	-0.957167	0.916668
C93	C	-0.439016	-1.471865	0.302386
C94	C	0.060984	-0.971865	0.802386
C95	C	-0.460617	-1.430767	1.125326
C96	C	0.039383	-0.930767	1.625326
C97	C	-0.468481	-1.415783	1.243470
C98	C	0.031519	-0.915783	1.743470
H99	H	-0.509879	-1.019863	0.750368
H100	H	-0.009879	-0.519863	1.250368
C101	C	-0.509978	-1.337048	1.292696
C102	C	-0.009978	-0.837048	1.792696
C103	C	-0.572463	-1.362653	1.269421
C104	C	-0.072463	-0.862653	1.769421
C105	C	-0.610705	-1.290140	1.314739
C106	C	-0.110705	-0.790140	1.814739
H107	H	-0.509844	-1.337381	1.365550
H108	H	-0.009844	-0.837381	1.865550
H109	H	-0.493672	-1.270153	1.266353
H110	H	0.006328	-0.770153	1.766353
H111	H	-0.588764	-1.429530	1.295769
H112	H	-0.088764	-0.929530	1.795769
H113	H	-0.572617	-1.362312	1.196576
H114	H	-0.072617	-0.862312	1.696576
H115	H	-0.594399	-1.223245	1.288396
H116	H	-0.094399	-0.723245	1.788396
H117	H	-0.610565	-1.290479	1.387590
H118	H	-0.110565	-0.790479	1.887590
H119	H	-0.653103	-1.307498	1.298945
H120	H	-0.153103	-0.807498	1.798945
H121	H	-0.407966	-1.530964	1.265366
H122	H	0.092034	-1.030964	1.765366
H123	H	-0.821165	-1.288655	0.787926
H124	H	-0.321165	-0.788655	1.287926
H125	H	-0.701886	-1.288584	0.787896
H126	H	-0.201886	-0.788584	1.287896
C127	C	-1.236027	-1.578308	0.564610
C128	C	-0.736027	-1.078308	1.064610
C129	C	-1.283237	-1.636818	0.631340
C130	C	-0.783237	-1.136818	1.131340
C131	C	-1.317434	-1.711248	0.574277
C132	C	-0.817434	-1.211248	1.074277
H133	H	-1.255421	-1.544930	0.514753
H134	H	-0.755421	-1.044930	1.014753
H135	H	-1.207802	-1.622501	0.530506
H136	H	-0.707802	-1.122501	1.030506
H137	H	-1.311457	-1.592631	0.665428
H138	H	-0.811457	-1.092631	1.165428
H139	H	-1.263860	-1.670219	0.681198
H140	H	-0.763860	-1.170219	1.181198
H141	H	-1.289209	-1.755441	0.540172
H142	H	-0.789209	-1.255441	1.040172
H143	H	-1.336824	-1.677862	0.524421
H144	H	-0.836824	-1.177862	1.024421
H145	H	-1.349466	-1.750963	0.619545
H146	H	-0.849466	-1.250963	1.119545
H147	H	-1.222032	-1.288885	0.788078
H148	H	-0.722032	-0.788885	1.288078
H149	H	-0.521117	-1.315586	1.103433
H150	H	-0.021117	-0.815586	1.603433
H151	H	-1.102754	-1.288811	0.788029
H152	H	-0.602754	-0.788811	1.288029
H153	H	-0.537771	-0.842821	0.791347
H154	H	-0.037771	-0.342821	1.291347
C155	C	-1.098925	-1.577986	0.564121
C156	C	-0.598925	-1.077986	1.064121
C157	C	-1.106274	-1.568612	0.459529
C158	C	-0.606274	-1.068612	0.959529
C159	C	-1.074761	-1.642718	0.401951
C160	C	-0.574761	-1.142718	0.901951
H161	H	-1.054862	-1.567419	0.572185
H162	H	-0.554862	-1.067419	1.072185
H163	H	-1.116635	-1.645191	0.587940
H164	H	-0.616635	-1.145191	1.087940
H165	H	-1.088561	-1.501424	0.435718
H166	H	-0.588561	-1.001424	0.935718
H167	H	-1.150329	-1.579190	0.451433
H168	H	-0.650329	-1.079190	0.951433
H169	H	-1.092472	-1.709922	0.425769
H170	H	-0.592472	-1.209922	0.925769
H171	H	-1.030700	-1.632144	0.410023
H172	H	-0.530700	-1.132144	0.910023
H173	H	-1.079748	-1.636374	0.330981
H174	H	-0.579748	-1.136374	0.830981
C175	C	-0.378209	-0.992118	0.556854
C176	C	0.121791	-0.492118	1.056854
C177	C	-0.378750	-0.884792	0.557608
C178	C	0.121250	-0.384792	1.057608
C179	C	-0.329519	-0.839089	0.485181
C180	C	0.170481	-0.339089	0.985181
H181	H	-0.338399	-1.007657	0.574148
H182	H	0.161601	-0.507657	1.074148
H183	H	-0.384265	-1.018369	0.489907
H184	H	0.115735	-0.518369	0.989907
H185	H	-0.372690	-0.858550	0.624540
H186	H	0.127310	-0.358550	1.124540
H187	H	-0.418548	-0.869223	0.540303
H188	H	0.081452	-0.369223	1.040303
H189	H	-0.335575	-0.865340	0.418234
H190	H	0.164425	-0.365340	0.918234
H191	H	-0.289713	-0.854636	0.502481
H192	H	0.210287	-0.354636	1.002481
H193	H	-0.329883	-0.766265	0.485676
H194	H	0.170117	-0.266265	0.985676
C195	C	-0.698118	-1.577914	0.564127
C196	C	-0.198118	-1.077914	1.064127
C197	C	-0.742114	-1.642898	0.513928
C198	C	-0.242114	-1.142898	1.013928
C199	C	-0.710668	-1.717189	0.456526
C200	C	-0.210668	-1.217189	0.956526
H201	H	-0.666125	-1.544415	0.514213
H202	H	-0.166125	-1.044415	1.014213
H203	H	-0.678942	-1.617742	0.609165
H204	H	-0.178942	-1.117742	1.109165
H205	H	-0.761280	-1.603075	0.468893
H206	H	-0.261280	-1.103075	0.968893
H207	H	-0.774109	-1.676421	0.563817
H208	H	-0.274109	-1.176421	1.063817
H209	H	-0.691493	-1.757017	0.501565
H210	H	-0.191493	-1.257017	1.001565
H211	H	-0.678676	-1.683681	0.406618
H212	H	-0.178676	-1.183681	0.906618
H213	H	-0.740516	-1.761295	0.422467
H214	H	-0.240516	-1.261295	0.922467
C215	C	-0.835239	-1.577790	0.564272
C216	C	-0.335239	-1.077790	1.064272
C217	C	-0.899576	-1.561955	0.576581
C218	C	-0.399576	-1.061955	1.076581
C219	C	-0.933870	-1.636043	0.519294
C220	C	-0.433870	-1.136043	1.019294
H221	H	-0.818665	-1.571592	0.493228
H222	H	-0.318665	-1.071592	0.993228
H223	H	-0.831442	-1.644993	0.588123
H224	H	-0.331442	-1.144993	1.088123
H225	H	-0.903368	-1.494768	0.552726
H226	H	-0.403368	-0.994768	1.052726
H227	H	-0.916168	-1.568162	0.647613
H228	H	-0.416168	-1.068162	1.147613
H229	H	-0.930074	-1.703246	0.543144
H230	H	-0.430074	-1.203246	1.043144
H231	H	-0.917291	-1.629839	0.448253
H232	H	-0.417291	-1.129839	0.948253
H233	H	-0.977527	-1.625314	0.527645
H234	H	-0.477527	-1.125314	1.027645
C235	C	-0.419110	-1.509441	1.076005
C236	C	0.080890	-1.009441	1.576005
C237	C	-0.356618	-1.483813	1.099234
C238	C	0.143382	-0.983813	1.599234
C239	C	-0.318362	-1.556257	1.053808
C240	C	0.181638	-1.056257	1.553808
H241	H	-0.435369	-1.576365	1.102280
H242	H	0.064631	-1.076365	1.602280
H243	H	-0.419284	-1.509028	1.003148
H244	H	0.080716	-1.009028	1.503148
H245	H	-0.356447	-1.484236	1.172076
H246	H	0.143553	-0.984236	1.672076
H247	H	-0.340340	-1.416901	1.072958
H248	H	0.159660	-0.916901	1.572958
H249	H	-0.318535	-1.555844	0.980951
H250	H	0.181465	-1.055844	1.480951
H251	H	-0.334626	-1.623177	1.080087
H252	H	0.165374	-1.123177	1.580087
H253	H	-0.275955	-1.538873	1.069555
H254	H	0.224045	-1.038873	1.569555
H255	H	-0.419411	-0.827614	0.617476
H256	H	0.080589	-0.327614	1.117476
