data_functionalizedCrystal
_audit_creation_method	'MofGen! by Chris Wilmer'
_symmetry_space_group_name_H-M	'P1'
_symmetry_Int_Tables_number	1
_symmetry_cell_setting	triclinic
loop_
_symmetry_equiv_pos_as_xyz
  x,y,z
_cell_length_a	31.640172
_cell_length_b	31.640171
_cell_length_c	21.606444
_cell_angle_alpha	59.980673
_cell_angle_beta	90.005700
_cell_angle_gamma	59.992468
loop_
_atom_site_label
_atom_site_type_symbol
_atom_site_fract_x
_atom_site_fract_y
_atom_site_fract_z
Zr1	Zr	0.407053	0.462743	-0.081462
O2	O	0.339536	0.550961	-0.180363
O3	O	0.427768	0.374534	-0.051102
O4	O	0.427739	0.462744	-0.180285
O5	O	0.339568	0.462748	0.050674
O6	O	0.497296	0.462735	-0.180272
O7	O	0.339565	0.462751	-0.051180
O8	O	0.497347	0.304944	0.050814
O9	O	0.339517	0.620539	-0.180411
O10	O	0.488492	0.410806	-0.038194
O11	O	0.436585	0.410811	0.037808
O12	O	0.436551	0.514666	-0.114289
O13	O	0.384644	0.514671	-0.038286
Zr14	Zr	0.517994	0.462725	0.081005
Zr15	Zr	0.517989	0.462730	-0.081441
Zr16	Zr	0.407059	0.462739	0.080983
Zr17	Zr	0.407023	0.573713	-0.081539
Zr18	Zr	0.518025	0.351755	0.081081
O19	O	0.497280	0.550934	0.050644
O20	O	0.497272	0.550941	-0.180333
O21	O	0.339544	0.550954	0.050613
O22	O	0.585512	0.374507	0.179906
O23	O	0.585504	0.374514	-0.051071
O24	O	0.427776	0.374527	0.179875
O25	O	0.585480	0.462720	-0.051132
O26	O	0.497309	0.462724	0.179828
O27	O	0.427752	0.462733	0.179814
O28	O	0.585483	0.462717	0.050722
O29	O	0.427696	0.620528	-0.180394
O30	O	0.497352	0.304940	0.179936
O31	O	0.585530	0.304929	0.179954
O32	O	0.585526	0.304933	0.050831
O33	O	0.339522	0.620536	-0.051289
O34	O	0.427701	0.620525	-0.051272
O35	O	0.488497	0.410802	0.113831
O36	O	0.540404	0.410798	0.037828
O37	O	0.488463	0.514658	-0.038266
O38	O	0.436556	0.514662	0.037737
C39	C	0.462562	0.323928	-0.000133
C40	C	0.462574	0.276818	-0.000101
C41	C	0.323761	0.462752	-0.000256
C42	C	0.276666	0.462758	-0.000265
C43	C	0.435429	-0.059402	0.039450
C44	C	0.435457	0.117552	0.039517
O45	O	0.412434	0.140415	0.073290
N46	N	0.462555	0.139678	-0.000148
C47	C	0.489652	0.117561	-0.039828
O48	O	0.512706	0.140436	-0.073558
C49	C	0.489627	-0.059395	-0.039890
C50	C	0.462522	-0.081515	-0.000229
C51	C	0.408327	-0.081522	0.079109
C52	C	0.408318	-0.125756	0.079089
C53	C	0.435411	-0.147869	0.039409
C54	C	0.462513	-0.125749	-0.000249
C55	C	0.516726	-0.081515	-0.079566
C56	C	0.516719	-0.125758	-0.079576
C57	C	0.489614	-0.147878	-0.039915
C58	C	0.489597	-0.192095	-0.039949
N59	N	0.462499	-0.214222	-0.000284
C60	C	0.435406	-0.192108	0.039395
C61	C	0.489662	0.210466	-0.039794
C62	C	0.489668	0.254705	-0.039780
C63	C	0.435473	0.254693	0.039567
C64	C	0.435465	0.210455	0.039548
C65	C	0.462563	0.188339	-0.000129
C66	C	0.435389	-0.285001	0.039349
C67	C	0.435380	-0.329237	0.039322
C68	C	0.489577	-0.329223	-0.040021
C69	C	0.489583	-0.284989	-0.039998
C70	C	0.462488	-0.262881	-0.000308
O71	O	0.512612	-0.214991	-0.073697
O72	O	0.412364	-0.215001	0.073133
C73	C	0.435438	-0.015168	0.039471
C74	C	0.462540	0.006952	-0.000188
C75	C	0.489633	-0.015161	-0.039867
C76	C	0.462546	0.051191	-0.000174
C77	C	0.435452	0.073305	0.039506
C78	C	0.408354	0.051178	0.079171
C79	C	0.408345	0.006945	0.079150
C80	C	0.516732	0.006965	-0.079532
C81	C	0.516738	0.051199	-0.079509
C82	C	0.489645	0.073312	-0.039830
C83	C	0.011772	0.408515	0.039507
C84	C	-0.165213	0.408504	0.039522
O85	O	-0.165041	0.362397	0.073330
N86	N	-0.214455	0.462718	-0.000200
C87	C	-0.219450	0.516938	-0.039924
O88	O	-0.265395	0.563049	-0.073702
C89	C	-0.042466	0.516947	-0.039934
C90	C	0.006776	0.462730	-0.000216
C91	C	0.061011	0.354302	0.079222
C92	C	0.105255	0.354305	0.079215
C93	C	0.100259	0.408521	0.039492
C94	C	0.051019	0.462733	-0.000223
C95	C	-0.047461	0.571167	-0.079653
C96	C	-0.003210	0.571164	-0.079650
C97	C	0.046032	0.516947	-0.039932
C98	C	0.090267	0.516952	-0.039954
N99	N	0.139509	0.462739	-0.000232
C100	C	0.144505	0.408523	0.039491
C101	C	-0.312368	0.516929	-0.039917
C102	C	-0.356614	0.516926	-0.039915
C103	C	-0.302373	0.408493	0.039531
C104	C	-0.258127	0.408496	0.039525
C105	C	-0.263126	0.462715	-0.000195
C106	C	0.237417	0.408534	0.039471
C107	C	0.281662	0.408542	0.039458
C108	C	0.227418	0.516975	-0.039986
C109	C	0.183177	0.516967	-0.039976
C110	C	0.188180	0.462742	-0.000241
O111	O	0.090134	0.563035	-0.073737
O112	O	0.190453	0.362418	0.073278
C113	C	-0.032471	0.408511	0.039514
C114	C	-0.081711	0.462724	-0.000201
C115	C	-0.086707	0.516940	-0.039924
C116	C	-0.125957	0.462722	-0.000200
C117	C	-0.120961	0.408506	0.039523
C118	C	-0.071719	0.354293	0.079245
C119	C	-0.027475	0.354296	0.079237
C120	C	-0.135949	0.571153	-0.079645
C121	C	-0.180190	0.571146	-0.079635
C122	C	-0.175194	0.516930	-0.039912
C123	C	0.601287	0.462717	-0.000202
C124	C	0.648382	0.462711	-0.000193
C125	C	0.462517	0.462740	-0.203423
C126	C	0.462515	0.462742	-0.272386
C127	C	0.462486	0.601540	-0.000325
C128	C	0.462473	0.648650	-0.000357
C129	C	0.435402	0.516956	-0.344505
C130	C	0.435406	0.516954	-0.409300
C131	C	0.462521	0.462738	-0.401974
C132	C	0.489637	0.408520	-0.329847
C133	C	0.489635	0.408523	-0.265054
C134	C	0.489645	0.408510	-0.591150
C135	C	0.489643	0.408512	-0.655951
C136	C	0.435416	0.516941	-0.735396
C137	C	0.435415	0.516944	-0.670603
C138	C	0.462533	0.462726	-0.598482
C139	C	0.462528	0.462729	-0.528225
C140	C	0.462522	0.462735	-0.472230
C141	C	0.462531	0.462728	0.202966
C142	C	0.462533	0.462726	0.271928
C143	C	0.601325	0.323910	-0.000106
C144	C	0.648433	0.276795	-0.000064
C145	C	0.462569	0.323922	0.203061
C146	C	0.462584	0.276810	0.272056
C147	C	0.601332	0.323905	0.203089
C148	C	0.648442	0.276787	0.272093
C149	C	0.323716	0.601564	-0.203546
C150	C	0.276606	0.648681	-0.272550
C151	C	0.323723	0.601558	-0.000352
C152	C	0.276615	0.648673	-0.000393
C153	C	0.462479	0.601546	-0.203519
C154	C	0.462464	0.648658	-0.272514
C155	C	0.643457	0.254674	-0.039735
C156	C	0.687716	0.210410	-0.039711
C157	C	0.736949	0.188265	-0.000012
C158	C	0.741924	0.210391	0.039660
C159	C	0.697666	0.254657	0.039631
C160	C	0.489689	0.254682	0.344147
C161	C	0.489701	0.210422	0.408981
C162	C	0.462611	0.188288	0.401723
C163	C	0.435503	0.210421	0.329625
C164	C	0.435488	0.254683	0.264792
C165	C	0.697665	0.254658	0.264825
C166	C	0.741935	0.210392	0.329656
C167	C	0.736980	0.188253	0.401753
C168	C	0.687751	0.210387	0.409019
C169	C	0.643483	0.254655	0.344189
C170	C	0.227383	0.670816	-0.265283
C171	C	0.183113	0.715095	-0.330113
C172	C	0.188068	0.737236	-0.402211
C173	C	0.237296	0.715100	-0.409477
C174	C	0.281565	0.670824	-0.344647
C175	C	0.281590	0.670799	0.039270
C176	C	0.237332	0.715075	0.039228
C177	C	0.188099	0.737222	-0.000473
C178	C	0.183124	0.715094	-0.040142
C179	C	0.227382	0.670822	-0.040104
C180	C	0.489559	0.670777	-0.265232
C181	C	0.489555	0.715038	-0.330054
C182	C	0.462452	0.737181	-0.402157
C183	C	0.435356	0.715057	-0.409438
C184	C	0.435364	0.670794	-0.344617
H185	H	0.413306	-0.347244	0.071619
H186	H	0.511619	0.733047	-0.324111
H187	H	0.782015	0.192354	0.071981
F188	F	0.130722	0.738668	-0.082390
F189	F	0.545585	0.074739	-0.121730
F190	F	0.591098	0.278199	0.351935
F191	F	0.518496	0.350820	-0.322052
F192	F	0.140999	0.784340	-0.000506
F193	F	0.140949	0.784359	-0.471202
H194	H	0.511713	0.364377	-0.206331
H195	H	0.143034	0.733111	-0.324182
H196	H	0.511732	0.272719	-0.072085
F197	F	0.242562	0.738669	-0.486214
H198	H	0.511777	0.192406	0.467680
F199	F	0.518408	0.647219	-0.188500
H200	H	-0.007286	0.615317	-0.111986
F201	F	0.406617	0.186917	0.081761
F202	F	0.130768	0.574671	-0.082261
H203	H	0.321643	0.652803	-0.350573
H204	H	0.223324	0.652808	-0.072400
H205	H	0.782014	0.192376	0.323726
H206	H	0.321675	0.652771	0.071605
H207	H	0.462628	0.152247	0.454520
F208	F	0.406638	0.278235	0.081796
H209	H	0.241392	0.733084	0.071534
H210	H	0.145346	0.310156	0.111554
F211	F	0.702969	0.278192	0.081861
F212	F	0.784099	0.141138	0.470745
H213	H	0.413319	0.561104	-0.350479
H214	H	0.386248	-0.143764	0.111388
H215	H	0.511725	0.364360	-0.649978
H216	H	0.701709	0.272677	0.206126
H217	H	0.538795	-0.011037	-0.111843
F218	F	-0.205723	0.350791	0.081799
H219	H	0.683725	0.192355	0.467729
H220	H	0.413290	0.733093	-0.468153
F221	F	0.591064	0.278235	-0.081993
H222	H	0.413447	0.192393	0.323727
F223	F	0.462448	0.784291	-0.471139
F224	F	0.518525	0.278228	0.351889
H225	H	0.223338	0.652791	-0.206584
F226	F	-0.409017	0.574632	-0.082199
H227	H	0.413330	0.561100	-0.468020
F228	F	0.406550	-0.261478	0.081591
F229	F	0.379490	-0.057996	0.121347
F230	F	0.518500	0.186940	-0.082036
F231	F	0.222110	0.574672	-0.082251
F232	F	0.545575	-0.057983	-0.121780
F233	F	0.545565	-0.149296	-0.121802
F234	F	0.518425	-0.261441	-0.082217
H235	H	0.511634	-0.347232	-0.072330
F236	F	0.379496	-0.016592	0.121364
F237	F	0.406520	0.647262	-0.352379
F238	F	0.379517	0.074722	0.121397
H239	H	0.321756	0.364390	0.071803
H240	H	0.413333	0.561092	-0.676575
H241	H	0.241498	0.364378	0.071827
H242	H	-0.316446	0.561083	-0.072267
H243	H	-0.140025	0.615303	-0.111994
H244	H	0.413418	0.272695	0.206095
H245	H	0.065088	0.310151	0.111573
H246	H	-0.087549	0.615316	-0.111994
F247	F	-0.297063	0.350792	0.081807
H248	H	-0.067658	0.310148	0.111584
F249	F	0.024928	0.296590	0.121511
F250	F	0.406556	0.574645	-0.812159
H251	H	0.683656	0.192400	-0.072016
F252	F	0.518489	0.350807	-0.514402
F253	F	0.784049	0.141152	0.000013
F254	F	-0.232596	0.628855	-0.121914
