data_functionalizedCrystal
_audit_creation_method	'MofGen! by Chris Wilmer'
_symmetry_space_group_name_H-M	'P1'
_symmetry_Int_Tables_number	1
_symmetry_cell_setting	triclinic
loop_
_symmetry_equiv_pos_as_xyz
  x,y,z
_cell_length_a	34.408637
_cell_length_b	34.407814
_cell_length_c	34.404193
_cell_angle_alpha	60.004510
_cell_angle_beta	60.009006
_cell_angle_gamma	59.994604
loop_
_atom_site_label
_atom_site_type_symbol
_atom_site_fract_x
_atom_site_fract_y
_atom_site_fract_z
O1	O	0.053973	-0.567860	0.474801
O2	O	0.020377	-0.442124	0.382567
O3	O	0.100004	-0.521670	0.382483
O4	O	-0.025653	-0.488314	0.474886
O5	O	0.126426	-0.495253	0.408816
O6	O	0.046800	-0.415707	0.408900
O7	O	0.080396	-0.541443	0.501134
Zn8	Zn	0.067793	-0.474381	0.459198
Zn9	Zn	0.032980	-0.509186	0.424503
O10	O	0.000769	-0.461897	0.501219
N11	N	0.091552	-0.450631	0.482879
N12	N	0.009225	-0.532940	0.400823
C13	C	0.142848	-0.268847	0.534081
C14	C	0.142979	-0.399386	0.664559
C15	C	0.142862	-0.399365	0.534081
C16	C	0.273409	-0.399338	0.533986
C17	C	0.157225	-0.311914	0.548422
C18	C	0.157300	-0.385019	0.621491
C19	C	0.230339	-0.384991	0.548370
C20	C	0.157235	-0.385007	0.548422
C21	C	0.124548	-0.214028	0.515827
C22	C	0.124571	-0.417639	0.515827
C23	C	0.175526	-0.366733	0.566676
C24	C	0.353121	-0.385580	0.491988
C25	C	0.402952	-0.402180	0.475348
C26	C	0.402981	-0.482812	0.506096
C27	C	0.353151	-0.466211	0.522737
C28	C	0.136544	-0.189099	0.466839
C29	C	0.119905	-0.139265	0.450247
C30	C	0.079280	-0.139291	0.531632
C31	C	0.095918	-0.189125	0.548224
C32	C	0.075577	-0.405615	0.527900
C33	C	0.058953	-0.422228	0.511301
C34	C	0.140315	-0.462889	0.470566
C35	C	0.156941	-0.446276	0.487159
C36	C	0.075772	-0.405653	0.744326
C37	C	0.059206	-0.422280	0.794159
C38	C	0.140607	-0.462951	0.794094
C39	C	0.157172	-0.446325	0.744260
C40	C	0.124753	-0.417674	0.719377
C41	C	0.328223	-0.417595	0.515681
C42	C	-0.172390	-0.583988	0.349141
C43	C	-0.041751	-0.584138	0.218783
C44	C	-0.041941	-0.584130	0.349402
C45	C	-0.041957	-0.714607	0.349338
C46	C	-0.129326	-0.598388	0.334853
C47	C	-0.056165	-0.598473	0.261852
C48	C	-0.056282	-0.671535	0.334962
C49	C	-0.056272	-0.598469	0.334999
C50	C	-0.227205	-0.565659	0.367327
C51	C	-0.023703	-0.565882	0.367734
C52	C	-0.074511	-0.616717	0.316667
C53	C	-0.055754	-0.794298	0.391257
C54	C	-0.039181	-0.844132	0.407888
C55	C	0.041447	-0.844215	0.377269
C56	C	0.024873	-0.794381	0.360637
C57	C	-0.252183	-0.577666	0.416302
C58	C	-0.302014	-0.561001	0.432833
C59	C	-0.301886	-0.520329	0.351410
C60	C	-0.252055	-0.536994	0.334880
C61	C	-0.035709	-0.516892	0.355682
C62	C	-0.019129	-0.500308	0.372353
C63	C	0.021465	-0.581700	0.413115
C64	C	0.004884	-0.598286	0.396450
C65	C	-0.035389	-0.516907	0.139026
C66	C	-0.018707	-0.500324	0.089193
C67	C	0.021949	-0.581721	0.089240
C68	C	0.005268	-0.598303	0.139074
C69	C	-0.023402	-0.565894	0.163965
C70	C	-0.023728	-0.769425	0.367633
N71	N	0.427173	-0.450553	0.482630
O72	O	0.589997	-0.458460	0.365361
O73	O	0.590185	-0.550997	0.490963
O74	O	0.590104	-0.550786	0.411309
O75	O	0.590077	-0.458671	0.445016
O76	O	0.510940	-0.524462	0.437777
O77	O	0.511020	-0.524674	0.517432
O78	O	0.510832	-0.432136	0.391830
Zn79	Zn	0.498357	-0.474225	0.458833
Zn80	Zn	0.602660	-0.508908	0.423960
O81	O	0.510913	-0.432348	0.471484
N82	N	0.673844	-0.532580	0.400158
N83	N	0.091520	-0.115070	0.482873
O84	O	-0.025663	0.047841	0.474857
O85	O	0.099940	0.047877	0.382299
O86	O	0.020247	0.047844	0.382560
O87	O	0.054030	0.047874	0.474596
O88	O	0.046674	-0.031326	0.408942
O89	O	0.126367	-0.031293	0.408680
O90	O	0.000764	-0.031329	0.501238
Zn91	Zn	0.067761	-0.043881	0.459148
Zn92	Zn	0.032943	0.060429	0.424389
O93	O	0.080457	-0.031296	0.500977
N94	N	0.009178	0.131618	0.400665
N95	N	0.091852	-0.450680	0.818332
O96	O	0.083862	-0.567845	0.981235
O97	O	-0.008657	-0.442198	0.981276
O98	O	-0.008441	-0.521875	0.981252
O99	O	0.083646	-0.488168	0.981258
O100	O	0.017919	-0.495468	0.902085
O101	O	0.017703	-0.415791	0.902109
O102	O	0.110222	-0.541438	0.902067
Zn103	Zn	0.068148	-0.474422	0.889518
Zn104	Zn	0.033417	-0.509214	0.993825
O105	O	0.110006	-0.461761	0.902091
N106	N	0.009712	-0.532961	1.065011
C107	C	0.030439	-0.413071	0.383027
C108	C	0.129046	-0.511580	0.382922
C109	C	0.070334	-0.570496	0.500675
C110	C	-0.028274	-0.471987	0.500780
C111	C	0.550625	-0.550579	0.520021
C112	C	0.550527	-0.550317	0.421379
C113	C	0.550389	-0.432554	0.362773
C114	C	0.550491	-0.432816	0.461414
C115	C	0.128944	0.008394	0.382712
C116	C	0.030287	0.008256	0.383068
C117	C	-0.028273	0.008252	0.500793
C118	C	0.070417	0.008292	0.500470
C119	C	-0.008218	-0.413165	0.941698
C120	C	-0.007945	-0.511830	0.941653
C121	C	0.109783	-0.570471	0.941646
C122	C	0.109516	-0.471800	0.941673
H123	H	0.019320	-0.412483	0.814467
C124	C	0.148602	-0.462056	0.941667
N125	N	0.178041	-0.454716	0.941662
H126	H	0.077653	0.008301	0.529384
C127	C	0.148996	-0.619249	0.941714
N128	N	0.178521	-0.655999	0.941798
H129	H	0.049370	-0.382321	0.724071
H130	H	-0.036863	-0.519031	0.941619
C131	C	-0.066928	-0.481252	0.166401
N132	N	-0.090681	-0.454397	0.187021
C133	C	0.176271	-0.494459	0.821463
N134	N	0.203133	-0.518195	0.842078
C135	C	0.550242	-0.393280	0.314065
N136	N	0.550107	-0.363692	0.277386
C137	C	0.020517	0.008235	0.344008
N138	N	0.013160	0.008215	0.314589
H139	H	0.550674	-0.579628	0.556096
H140	H	-0.037264	-0.377079	0.941710
C141	C	0.550543	-0.589411	0.411635
N142	N	0.550554	-0.618857	0.404297
H143	H	0.164941	0.008624	0.353583
H144	H	0.197059	-0.456117	0.723950
C145	C	0.039967	-0.374107	0.559426
N146	N	0.013144	-0.350373	0.583170
H147	H	-0.028907	-0.460416	0.362542
C148	C	0.080030	-0.619292	0.539811
N149	N	0.087334	-0.656046	0.569289
C150	C	0.177803	-0.521181	0.343722
N151	N	0.214527	-0.528412	0.314196
C152	C	-0.077030	-0.462387	0.539979
N153	N	-0.113754	-0.455155	0.569505
H154	H	0.550485	-0.403881	0.468626
H155	H	-0.064344	0.008241	0.529850
H156	H	0.019058	-0.412426	0.521121
H157	H	0.166679	-0.486211	0.447227
H158	H	0.196836	-0.456064	0.477324
H159	H	0.332881	-0.492283	0.542031
H160	H	0.423275	-0.522397	0.511838
H161	H	0.332825	-0.345993	0.486242
C162	C	0.430342	-0.366960	0.449282
N163	N	0.450973	-0.340432	0.429645
C164	C	-0.031905	-0.446433	0.061765
N165	N	-0.041846	-0.405842	0.041107
C166	C	0.168036	-0.216489	0.431198
N167	N	0.191756	-0.237120	0.404353
H168	H	0.055974	-0.119015	0.558014
C169	C	0.082722	-0.216543	0.602113
N170	N	0.072782	-0.237195	0.642704
C171	C	0.053477	-0.617374	0.061862
N172	N	0.077227	-0.644228	0.041240
C173	C	0.133099	-0.111842	0.396357
N174	N	0.143037	-0.091189	0.355766
H175	H	-0.058984	-0.490504	0.332300
C176	C	0.018456	-0.652195	0.166505
N177	N	0.028388	-0.692786	0.187164
H178	H	0.014660	-0.638178	0.406265
C179	C	0.060106	-0.767024	0.334661
N180	N	0.086645	-0.746420	0.315102
C181	C	0.094910	-0.871666	0.369574
N182	N	0.135179	-0.892343	0.363778
C183	C	0.052922	-0.617351	0.444693
N184	N	0.076616	-0.644202	0.468477
H185	H	-0.095331	-0.773979	0.396956
C186	C	-0.224852	-0.609195	0.451998
N187	N	-0.204265	-0.632942	0.478884
C188	C	-0.074414	-0.871495	0.433883
N189	N	-0.100952	-0.892106	0.453467
H190	H	-0.322118	-0.496994	0.324987
C191	C	-0.224583	-0.523784	0.281004
N192	N	-0.203890	-0.513832	0.240423
C193	C	-0.329491	-0.574208	0.486710
N194	N	-0.350186	-0.584157	0.527291
H195	H	0.023260	-0.376951	0.354059
