data_functionalizedCrystal
_audit_creation_method	'MofGen! by Chris Wilmer'
_symmetry_space_group_name_H-M	'P1'
_symmetry_Int_Tables_number	1
_symmetry_cell_setting	triclinic
loop_
_symmetry_equiv_pos_as_xyz
  x,y,z
_cell_length_a	29.839134
_cell_length_b	29.839131
_cell_length_c	29.839126
_cell_angle_alpha	90.021998
_cell_angle_beta	90.035740
_cell_angle_gamma	90.036281
loop_
_atom_site_label
_atom_site_type_symbol
_atom_site_fract_x
_atom_site_fract_y
_atom_site_fract_z
Zn1	Zn	0.686781	-0.178959	0.254125
Zn2	Zn	1.186781	0.321041	0.754125
Zn3	Zn	0.686695	-0.254076	0.178995
Zn4	Zn	1.186695	0.245924	0.678995
Zn5	Zn	0.611645	-0.178955	0.178995
Zn6	Zn	1.111645	0.321045	0.678995
Zn7	Zn	0.611611	-0.254056	0.254083
Zn8	Zn	1.111611	0.245944	0.754083
O9	O	0.649183	-0.216511	0.216550
O10	O	1.149183	0.283489	0.716550
O11	O	0.749636	-0.188934	0.244176
O12	O	1.249636	0.311066	0.744176
O13	O	0.676718	-0.244118	0.116128
O14	O	1.176718	0.255882	0.616128
O15	O	0.621662	-0.116088	0.188978
O16	O	1.121662	0.383912	0.688978
O17	O	0.749573	-0.244122	0.188979
O18	O	1.249573	0.255878	0.688979
O19	O	0.676864	-0.116091	0.244176
O20	O	1.176864	0.383909	0.744176
O21	O	0.621579	-0.188927	0.116128
O22	O	1.121579	0.311073	0.616128
O23	O	0.548774	-0.188906	0.188938
O24	O	1.048774	0.311094	0.688938
O25	O	0.621604	-0.244087	0.316956
O26	O	1.121604	0.255913	0.816956
O27	O	0.548749	-0.244083	0.244105
O28	O	1.048749	0.255917	0.744105
O29	O	0.676831	-0.188914	0.316987
O30	O	1.176831	0.311086	0.816987
O31	O	0.676684	-0.316941	0.188938
O32	O	1.176684	0.183059	0.688938
O33	O	0.621521	-0.316926	0.244105
O34	O	1.121521	0.183074	0.744105
C35	C	0.532460	-0.216492	0.216517
C36	C	1.032460	0.283508	0.716517
C37	C	0.482526	-0.216495	0.216514
C38	C	0.982526	0.283505	0.716514
C39	C	0.172879	-0.245284	0.245240
C40	C	0.672879	0.254716	0.745240
C41	C	-0.014794	-0.245297	0.245260
C42	C	0.485206	0.254703	0.745260
O43	O	-0.039062	-0.269754	0.269665
O44	O	0.460938	0.230246	0.769665
N45	N	-0.038259	-0.216528	0.216583
N46	N	0.461741	0.283472	0.716583
C47	C	-0.014803	-0.187752	0.187902
C48	C	0.485197	0.312248	0.687902
O49	O	-0.039068	-0.163279	0.163514
O50	O	0.460932	0.336721	0.663514
C51	C	0.172869	-0.187737	0.187884
C52	C	0.672869	0.312263	0.687884
C53	C	0.196332	-0.216511	0.216560
C54	C	0.696332	0.283489	0.716560
C55	C	0.196342	-0.274056	0.273913
C56	C	0.696342	0.225944	0.773913
C57	C	0.243257	-0.274054	0.273906
C58	C	0.743257	0.225946	0.773906
C59	C	0.266710	-0.245281	0.245226
C60	C	0.766710	0.254719	0.745226
C61	C	0.243247	-0.216509	0.216553
C62	C	0.743247	0.283491	0.716553
C63	C	0.196325	-0.158959	0.159205
C64	C	0.696325	0.341041	0.659205
C65	C	0.243246	-0.158957	0.159204
C66	C	0.743246	0.341043	0.659204
C67	C	0.266708	-0.187731	0.187880
C68	C	0.766708	0.312269	0.687880
C69	C	0.313616	-0.187734	0.187865
C70	C	0.813616	0.312266	0.687865
N71	N	0.337081	-0.216504	0.216542
N72	N	0.837081	0.283496	0.716542
C73	C	0.313628	-0.245277	0.245222
C74	C	0.813628	0.254723	0.745222
C75	C	-0.113334	-0.187762	0.187912
C76	C	0.386666	0.312238	0.687912
C77	C	-0.160251	-0.187766	0.187916
C78	C	0.339749	0.312234	0.687916
C79	C	-0.160239	-0.245311	0.245275
C80	C	0.339761	0.254689	0.745275
C81	C	-0.113321	-0.245309	0.245269
C82	C	0.386679	0.254691	0.745269
C83	C	-0.089869	-0.216531	0.216589
C84	C	0.410131	0.283469	0.716589
C85	C	0.412154	-0.245271	0.245205
C86	C	0.912154	0.254729	0.745205
C87	C	0.459073	-0.245268	0.245194
C88	C	0.959073	0.254732	0.745194
C89	C	0.459057	-0.187722	0.187837
C90	C	0.959057	0.312278	0.687837
C91	C	0.412141	-0.187726	0.187846
C92	C	0.912141	0.312274	0.687846
C93	C	0.388691	-0.216502	0.216534
C94	C	0.888691	0.283498	0.716534
O95	O	0.337912	-0.163287	0.163477
O96	O	0.837912	0.336713	0.663477
O97	O	0.337900	-0.269739	0.269613
O98	O	0.837900	0.230261	0.769613
C99	C	0.125964	-0.245286	0.245247
C100	C	0.625964	0.254714	0.745247
C101	C	0.102501	-0.216515	0.216574
C102	C	0.602501	0.283485	0.716574
C103	C	0.125954	-0.187741	0.187893
C104	C	0.625954	0.312259	0.687893
C105	C	0.055583	-0.216519	0.216577
C106	C	0.555583	0.283481	0.716577
C107	C	0.032130	-0.245292	0.245258
C108	C	0.532130	0.254708	0.745258
C109	C	0.055595	-0.274061	0.273934
C110	C	0.555595	0.225939	0.773934
C111	C	0.102511	-0.274059	0.273927
C112	C	0.602511	0.225941	0.773927
C113	C	0.102489	-0.158972	0.159217
C114	C	0.602489	0.341028	0.659217
C115	C	0.055573	-0.158977	0.159226
C116	C	0.555573	0.341023	0.659226
C117	C	0.032120	-0.187750	0.187906
C118	C	0.532120	0.312250	0.687906
C119	C	0.649102	-0.333234	0.216527
C120	C	1.149102	0.166766	0.716527
C121	C	0.649108	-0.383168	0.216533
C122	C	1.149108	0.116832	0.716533
C123	C	0.677959	-0.692807	0.187866
C124	C	1.177959	-0.192807	0.687866
C125	C	0.678014	-0.880480	0.187883
C126	C	1.178014	-0.380480	0.687883
O127	O	0.702480	-0.904741	0.163493
O128	O	1.202480	-0.404741	0.663493
N129	N	0.649276	-0.903953	0.216583
N130	N	1.149276	-0.403953	0.716583
C131	C	0.620524	-0.880506	0.245283
C132	C	1.120524	-0.380506	0.745283
O133	O	0.596085	-0.904777	0.269698
O134	O	1.096085	-0.404777	0.769698
C135	C	0.620471	-0.692833	0.245268
C136	C	1.120471	-0.192833	0.745268
C137	C	0.649208	-0.669363	0.216563
C138	C	1.149208	-0.169363	0.716563
C139	C	0.706694	-0.669336	0.159164
C140	C	1.206694	-0.169336	0.659164
C141	C	0.706678	-0.622421	0.159158
C142	C	1.206678	-0.122421	0.659158
C143	C	0.677927	-0.598976	0.187854
C144	C	1.177927	-0.098976	0.687854
C145	C	0.649192	-0.622447	0.216557
C146	C	1.149192	-0.122447	0.716557
C147	C	0.591722	-0.669387	0.273969
C148	C	1.091722	-0.169387	0.773969
C149	C	0.591712	-0.622466	0.273964
C150	C	1.091712	-0.122466	0.773964
C151	C	0.620449	-0.598995	0.245259
C152	C	1.120449	-0.098995	0.745259
C153	C	0.620426	-0.552087	0.245248
C154	C	1.120426	-0.052087	0.745248
N155	N	0.649164	-0.528614	0.216548
N156	N	1.149164	-0.028614	0.716548
C157	C	0.677915	-0.552058	0.187851
C158	C	1.177915	-0.052058	0.687851
C159	C	0.620553	-0.979036	0.245289
C160	C	1.120553	-0.479036	0.745289
C161	C	0.620566	-1.025954	0.245292
C162	C	1.120566	-0.525954	0.745292
C163	C	0.678057	-1.025925	0.187893
C164	C	1.178057	-0.525925	0.687893
C165	C	0.678042	-0.979007	0.187887
C166	C	1.178042	-0.479007	0.687887
C167	C	0.649291	-0.955563	0.216589
C168	C	1.149291	-0.455563	0.716589
C169	C	0.677879	-0.453533	0.187841
C170	C	1.177879	0.046467	0.687841
C171	C	0.677859	-0.406613	0.187836
C172	C	1.177859	0.093387	0.687836
C173	C	0.620370	-0.406646	0.245237
C174	C	1.120370	0.093354	0.745237
C175	C	0.620388	-0.453561	0.245240
C176	C	1.120388	0.046439	0.745240
C177	C	0.649146	-0.477004	0.216540
C178	C	1.149146	0.022996	0.716540
O179	O	0.595976	-0.527797	0.269629
O180	O	1.095976	-0.027797	0.769629
O181	O	0.702357	-0.527778	0.163447
O182	O	1.202357	-0.027778	0.663447
C183	C	0.677975	-0.739723	0.187872
C184	C	1.177975	-0.239723	0.687872
C185	C	0.649240	-0.763193	0.216574
C186	C	1.149240	-0.263193	0.716574
C187	C	0.620489	-0.739749	0.245271
C188	C	1.120489	-0.239749	0.745271
C189	C	0.649252	-0.810111	0.216578
C190	C	1.149252	-0.310111	0.716578
C191	C	0.678003	-0.833556	0.187881
C192	C	1.178003	-0.333556	0.687881
C193	C	0.706741	-0.810082	0.159181
C194	C	1.206741	-0.310082	0.659181
C195	C	0.706726	-0.763167	0.159175
C196	C	1.206726	-0.263167	0.659175
C197	C	0.591751	-0.763222	0.273971
C198	C	1.091751	-0.263222	0.773971
C199	C	0.591769	-0.810138	0.273974
C200	C	1.091769	-0.310138	0.773974
C201	C	0.620520	-0.833582	0.245277
C202	C	1.120520	-0.333582	0.745277
C203	C	0.766361	-0.216531	0.216582
C204	C	1.266361	0.283469	0.716582
C205	C	0.816296	-0.216539	0.216596
C206	C	1.316296	0.283461	0.716596
C207	C	0.649223	-0.216499	0.333728
C208	C	1.149223	0.283501	0.833728
C209	C	0.649240	-0.216493	0.383662
C210	C	1.149240	0.283507	0.883662
C211	C	0.649277	-0.099333	0.216582
C212	C	1.149277	0.400667	0.716582
C213	C	0.649317	-0.049399	0.216595
C214	C	1.149317	0.450601	0.716595
C215	C	0.649169	-0.216492	0.099827
C216	C	1.149169	0.283508	0.599827
C217	C	0.649239	-0.216371	0.049893
C218	C	1.149239	0.283629	0.549893
C219	C	0.677945	-0.245172	0.740253
C220	C	1.177945	0.254828	1.240253
C221	C	0.677946	-0.245203	0.552580
C222	C	1.177946	0.254797	1.052580
O223	O	0.702347	-0.269657	0.528318
O224	O	1.202347	0.230343	1.028318
N225	N	0.649238	-0.216471	0.529108
N226	N	1.149238	0.283529	1.029108
C227	C	0.620527	-0.187732	0.552557
C228	C	1.120527	0.312268	1.052557
O229	O	0.596106	-0.163298	0.528286
O230	O	1.096106	0.336702	1.028286
C231	C	0.620524	-0.187704	0.740229
C232	C	1.120524	0.312296	1.240229
C233	C	0.649237	-0.216434	0.763699
C234	C	1.149237	0.283566	1.263699
C235	C	0.706655	-0.273900	0.763723
C236	C	1.206655	0.226100	1.263723
C237	C	0.706656	-0.273890	0.810638
C238	C	1.206656	0.226110	1.310638
C239	C	0.677947	-0.245152	0.834084
C240	C	1.177947	0.254848	1.334084
C241	C	0.649238	-0.216424	0.810614
C242	C	1.149238	0.283576	1.310614
C243	C	0.591811	-0.158967	0.763677
C244	C	1.091811	0.341033	1.263677
C245	C	0.591812	-0.158963	0.810598
C246	C	1.091812	0.341037	1.310598
C247	C	0.620524	-0.187693	0.834068
C248	C	1.120524	0.312307	1.334068
C249	C	0.620531	-0.187676	0.880975
C250	C	1.120531	0.312324	1.380975
N251	N	0.649238	-0.216407	0.904447
N252	N	1.149238	0.283593	1.404447
C253	C	0.677946	-0.245145	0.881002
C254	C	1.177946	0.254855	1.381002
C255	C	0.620531	-0.187749	0.454026
C256	C	1.120531	0.312251	0.954026
C257	C	0.620532	-0.187755	0.407108
C258	C	1.120532	0.312245	0.907108
C259	C	0.677950	-0.245227	0.407134
C260	C	1.177950	0.254773	0.907134
C261	C	0.677951	-0.245217	0.454053
C262	C	1.177951	0.254783	0.954053
C263	C	0.649238	-0.216480	0.477498
C264	C	1.149238	0.283520	0.977498
C265	C	0.677947	-0.245122	0.979527
C266	C	1.177947	0.254878	1.479527
C267	C	0.677947	-0.245109	1.026447
C268	C	1.177947	0.254891	1.526447
C269	C	0.620527	-0.187639	1.026417
C270	C	1.120527	0.312361	1.526417
C271	C	0.620529	-0.187651	0.979501
C272	C	1.120529	0.312349	1.479501
C273	C	0.649240	-0.216396	0.956058
C274	C	1.149240	0.283604	1.456058
O275	O	0.596139	-0.163238	0.905266
O276	O	1.096139	0.336762	1.405266
O277	O	0.702356	-0.269583	0.905280
O278	O	1.202356	0.230417	1.405280
C279	C	0.677944	-0.245181	0.693337
C280	C	1.177944	0.254819	1.193337
C281	C	0.649234	-0.216453	0.669868
C282	C	1.149234	0.283547	1.169868
C283	C	0.620526	-0.187715	0.693313
C284	C	1.120526	0.312285	1.193313
C285	C	0.649235	-0.216460	0.622950
C286	C	1.149235	0.283540	1.122950
C287	C	0.677944	-0.245198	0.599504
C288	C	1.177944	0.254802	1.099504
C289	C	0.706651	-0.273929	0.622976
C290	C	1.206651	0.226071	1.122976
C291	C	0.706652	-0.273919	0.669892
C292	C	1.206652	0.226081	1.169892
C293	C	0.591818	-0.158984	0.669841
C294	C	1.091818	0.341016	1.169841
C295	C	0.591820	-0.158996	0.622926
C296	C	1.091820	0.341004	1.122926
C297	C	0.620528	-0.187734	0.599480
C298	C	1.120528	0.312266	1.099480
H299	H	0.478174	-0.268701	0.268545
H300	H	0.978174	0.231299	0.768545
H301	H	0.701330	-0.268504	1.045554
H302	H	1.201330	0.231496	1.545554
H303	H	0.597155	-0.164240	1.045515
H304	H	1.097155	0.335760	1.545515
H305	H	0.597148	-0.164346	0.473111
H306	H	1.097148	0.335654	0.973111
H307	H	0.701260	-0.387504	0.164459
H308	H	1.201260	0.112496	0.664459
H309	H	0.393037	-0.164297	0.164496
H310	H	0.893037	0.335703	0.664496
H311	H	0.478161	-0.164297	0.164485
H312	H	0.978161	0.335703	0.664485
H313	H	0.701331	-0.268612	0.473159
H314	H	1.201331	0.231388	0.973159
O315	O	0.032878	-0.302052	0.301812
O316	O	0.532878	0.197948	0.801812
C317	C	0.037826	-0.359102	0.358730
C318	C	0.537826	0.140898	0.858730
C319	C	0.063612	-0.327439	0.327174
C320	C	0.563612	0.172561	0.827174
H321	H	0.062663	-0.379630	0.379250
H322	H	0.562663	0.120370	0.879250
H323	H	0.015841	-0.382594	0.338088
H324	H	0.515841	0.117406	0.838088
H325	H	0.015879	-0.338497	0.382237
H326	H	0.515879	0.161503	0.882237
H327	H	0.085582	-0.348009	0.303660
H328	H	0.585582	0.151991	0.803660
H329	H	0.085568	-0.303947	0.347844
H330	H	0.585568	0.196053	0.847844
O331	O	0.734621	-0.740420	0.131230
O332	O	1.234621	-0.240420	0.631230
C333	C	0.756446	-0.726073	0.054832
C334	C	1.256446	-0.226073	0.554832
C335	C	0.724831	-0.751865	0.086430
C336	C	1.224831	-0.251865	0.586430
H337	H	0.748537	-0.735309	0.018604
H338	H	1.248537	-0.235309	0.518604
H339	H	0.792676	-0.735273	0.062727
H340	H	1.292676	-0.235273	0.562727
H341	H	0.751511	-0.688513	0.059776
H342	H	1.251511	-0.188513	0.559776
H343	H	0.729727	-0.789431	0.081504
H344	H	1.229727	-0.289431	0.581504
H345	H	0.688613	-0.742627	0.078527
H346	H	1.188613	-0.242627	0.578527
H347	H	0.121610	-0.297490	0.297278
H348	H	0.621610	0.202510	0.797278
O349	O	0.705879	-0.273059	0.956828
O350	O	1.205879	0.226941	1.456828
C351	C	0.762813	-0.330078	0.961819
C352	C	1.262813	0.169922	1.461819
C353	C	0.731209	-0.298458	0.987581
C354	C	1.231209	0.201542	1.487581
H355	H	0.783293	-0.350628	0.986671
H356	H	1.283293	0.149372	1.486671
H357	H	0.786351	-0.309484	0.939883
H358	H	1.286351	0.190516	1.439883
H359	H	0.742164	-0.353554	0.939824
H360	H	1.242164	0.146446	1.439824
H361	H	0.751821	-0.274975	1.009599
H362	H	1.251821	0.225025	1.509599
H363	H	0.707669	-0.319080	1.009488
H364	H	1.207669	0.180920	1.509488
O365	O	0.734579	-0.301862	0.600266
O366	O	1.234579	0.198138	1.100266
C367	C	0.791506	-0.358890	0.605228
C368	C	1.291506	0.141110	1.105228
C369	C	0.759913	-0.327271	0.631006
C370	C	1.259913	0.172729	1.131006
H371	H	0.811990	-0.379448	0.630070
H372	H	1.311990	0.120552	1.130070
H373	H	0.815041	-0.338294	0.583291
H374	H	1.315041	0.161706	1.083291
H375	H	0.770848	-0.382359	0.583234
H376	H	1.270848	0.117641	1.083234
H377	H	0.780535	-0.303796	0.653024
H378	H	1.280535	0.196204	1.153024
H379	H	0.736377	-0.347895	0.652914
H380	H	1.236377	0.152105	1.152914
H381	H	0.036474	-0.135546	0.135871
H382	H	0.536474	0.364454	0.635871
H383	H	-0.094220	-0.268739	0.268619
H384	H	0.405780	0.231261	0.768619
H385	H	0.701327	-0.268625	0.388037
H386	H	1.201327	0.231375	0.888037
O387	O	0.125198	-0.131007	0.131312
O388	O	0.625198	0.368993	0.631312
C389	C	0.120223	-0.073914	0.074438
C390	C	0.620223	0.426086	0.574438
C391	C	0.094452	-0.105570	0.106014
C392	C	0.594452	0.394430	0.606014
H393	H	0.095376	-0.053333	0.053983
H394	H	0.595376	0.446667	0.553983
H395	H	0.142145	-0.094483	0.050875
H396	H	0.642145	0.405517	0.550875
H397	H	0.142231	-0.050469	0.095107
H398	H	0.642231	0.449531	0.595107
H399	H	0.072419	-0.129022	0.085382
H400	H	0.572419	0.370978	0.585382
H401	H	0.072558	-0.084973	0.129579
H402	H	0.572558	0.415027	0.629579
O403	O	0.563857	-0.131068	0.833322
O404	O	1.063857	0.368932	1.333322
C405	C	0.487452	-0.109269	0.847650
C406	C	0.987452	0.390731	1.347650
C407	C	0.519058	-0.140881	0.821881
C408	C	1.019058	0.359119	1.321881
H409	H	0.451225	-0.117198	0.838417
H410	H	0.951225	0.382802	1.338417
H411	H	0.495330	-0.073039	0.838427
H412	H	0.995330	0.426961	1.338427
H413	H	0.492405	-0.114187	0.885214
H414	H	0.992405	0.385813	1.385214
H415	H	0.514123	-0.136003	0.784312
H416	H	1.014123	0.363997	1.284312
H417	H	0.511172	-0.177099	0.831142
H418	H	1.011172	0.322901	1.331142
O419	O	-0.183006	-0.273324	0.273090
O420	O	0.316994	0.226676	0.773090
C421	C	-0.197380	-0.349768	0.294789
C422	C	0.302620	0.150232	0.794789
C423	C	-0.171575	-0.318101	0.263253
C424	C	0.328425	0.181899	0.763253
H425	H	-0.188140	-0.385976	0.286855
H426	H	0.311860	0.114024	0.786855
H427	H	-0.234948	-0.344864	0.289862
H428	H	0.265052	0.155136	0.789862
H429	H	-0.188131	-0.341902	0.331025
H430	H	0.311869	0.158098	0.831025
H431	H	-0.180785	-0.325947	0.227006
H432	H	0.319215	0.174053	0.727006
H433	H	-0.134013	-0.323011	0.268220
H434	H	0.365987	0.176989	0.768220
O435	O	0.705827	-0.476231	0.159918
O436	O	1.205827	0.023769	0.659918
C437	C	0.762861	-0.471238	0.103000
C438	C	1.262861	0.028762	0.603000
C439	C	0.731229	-0.445477	0.134594
C440	C	1.231229	0.054523	0.634594
H441	H	0.783414	-0.446385	0.082524
H442	H	1.283414	0.053615	0.582524
H443	H	0.742276	-0.493221	0.079458
H444	H	1.242276	0.006779	0.579458
H445	H	0.786334	-0.493183	0.123657
H446	H	1.286334	0.006817	0.623657
H447	H	0.707750	-0.423507	0.113974
H448	H	1.207750	0.076493	0.613974
H449	H	0.751843	-0.423522	0.158138
H450	H	1.251843	0.076478	0.658138
H451	H	0.597157	-0.164355	0.388003
H452	H	1.097157	0.335645	0.888003
H453	H	0.730079	-0.603313	0.135785
H454	H	1.230079	-0.103313	0.635785
H455	H	0.730109	-0.688420	0.135795
H456	H	1.230109	-0.188420	0.635795
H457	H	-0.179351	-0.164340	0.164561
H458	H	0.320649	0.335660	0.664561
O459	O	0.563893	-0.131123	0.740838
O460	O	1.063893	0.368877	1.240838
C461	C	0.503212	-0.125086	0.687865
C462	C	1.003212	0.374914	1.187865
C463	C	0.534811	-0.156670	0.713693
C464	C	1.034811	0.343330	1.213693
H465	H	0.479684	-0.145728	0.665920
H466	H	0.979684	0.354272	1.165920
H467	H	0.523821	-0.101602	0.665886
H468	H	1.023821	0.398398	1.165886
H469	H	0.482715	-0.104542	0.712699
H470	H	0.982715	0.395458	1.212699
H471	H	0.555314	-0.177243	0.688891
H472	H	1.055314	0.322757	1.188891
H473	H	0.514176	-0.180125	0.735679
H474	H	1.014176	0.319875	1.235679
H475	H	-0.094243	-0.164327	0.164556
H476	H	0.405757	0.335673	0.664556
H477	H	0.393066	-0.268703	0.268566
H478	H	0.893066	0.231297	0.768566
O479	O	0.705894	-0.956189	0.159958
O480	O	1.205894	-0.456189	0.659958
C481	C	0.711958	-0.903222	0.099322
C482	C	1.211958	-0.403222	0.599322
C483	C	0.680362	-0.929040	0.130917
C484	C	1.180362	-0.429040	0.630917
H485	H	0.691329	-0.881259	0.075841
H486	H	1.191329	-0.381259	0.575841
H487	H	0.732499	-0.928022	0.078780
H488	H	1.232499	-0.428022	0.578780
H489	H	0.735445	-0.881247	0.119980
H490	H	1.235445	-0.381247	0.619980
H491	H	0.656849	-0.951016	0.110294
H492	H	1.156849	-0.451016	0.610294
H493	H	0.659853	-0.904216	0.151461
H494	H	1.159853	-0.404216	0.651461
O495	O	0.705999	-1.048773	0.160086
O496	O	1.205999	-0.548773	0.660086
C497	C	0.731536	-1.121046	0.134706
C498	C	1.231536	-0.621046	0.634706
C499	C	0.699859	-1.095225	0.166205
C500	C	1.199859	-0.595225	0.666205
H501	H	0.726577	-1.158607	0.139636
H502	H	1.226577	-0.658607	0.639636
H503	H	0.767752	-1.111801	0.142674
H504	H	1.267752	-0.611801	0.642674
H505	H	0.723708	-1.111842	0.098461
H506	H	1.223708	-0.611842	0.598461
H507	H	0.707647	-1.104416	0.202460
H508	H	1.207647	-0.604416	0.702460
H509	H	0.663653	-1.104473	0.158198
H510	H	1.163653	-0.604473	0.658198
O511	O	0.592633	-1.048682	0.273215
O512	O	1.092633	-0.548682	0.773215
C513	C	0.535592	-1.043745	0.330129
C514	C	1.035592	-0.543745	0.830129
C515	C	0.567209	-1.017953	0.298534
C516	C	1.067209	-0.517953	0.798534
H517	H	0.515022	-1.018913	0.350601
H518	H	1.015022	-0.518913	0.850601
H519	H	0.556190	-1.065668	0.353676
H520	H	1.056190	-0.565668	0.853676
H521	H	0.512134	-1.065754	0.309475
H522	H	1.012134	-0.565754	0.809475
H523	H	0.590673	-0.995920	0.319152
H524	H	1.090673	-0.495920	0.819152
H525	H	0.546583	-0.996059	0.274986
H526	H	1.046583	-0.496059	0.774986
O527	O	0.592685	-0.956247	0.273217
O528	O	1.092685	-0.456247	0.773217
C529	C	0.586583	-0.903242	0.333849
C530	C	1.086583	-0.403242	0.833849
C531	C	0.618197	-0.929027	0.302258
C532	C	1.118197	-0.429027	0.802258
H533	H	0.607197	-0.881221	0.357331
H534	H	1.107197	-0.381221	0.857331
H535	H	0.566055	-0.928063	0.354391
H536	H	1.066055	-0.428063	0.854391
H537	H	0.563085	-0.881328	0.313187
H538	H	1.063085	-0.381328	0.813187
H539	H	0.641722	-0.950942	0.322885
H540	H	1.141722	-0.450942	0.822885
H541	H	0.638693	-0.904181	0.281715
H542	H	1.138693	-0.404181	0.781715
H543	H	0.262356	-0.297484	0.297258
H544	H	0.762356	0.202516	0.797258
H545	H	0.568301	-0.603380	0.297337
H546	H	1.068301	-0.103380	0.797337
H547	H	0.568319	-0.688489	0.297342
H548	H	1.068319	-0.188489	0.797342
H549	H	0.177229	-0.135529	0.135854
H550	H	0.677229	0.364471	0.635854
H551	H	0.596989	-0.472672	0.268615
H552	H	1.096989	0.027328	0.768615
O553	O	0.563862	-0.131133	0.600150
O554	O	1.063862	0.368867	1.100150
C555	C	0.487456	-0.109308	0.585786
C556	C	0.987456	0.390692	1.085786
C557	C	0.519069	-0.140893	0.611596
C558	C	1.019069	0.359107	1.111596
H559	H	0.451235	-0.117181	0.595038
H560	H	0.951235	0.382819	1.095038
H561	H	0.492342	-0.114250	0.548219
H562	H	0.992342	0.385750	1.048219
H563	H	0.495394	-0.073085	0.595018
H564	H	0.995394	0.426915	1.095018
H565	H	0.511151	-0.177128	0.602402
H566	H	1.011151	0.322872	1.102402
H567	H	0.514177	-0.135912	0.649157
H568	H	1.014177	0.364088	1.149157
H569	H	0.597155	-0.164251	0.960391
H570	H	1.097155	0.335749	1.460391
H571	H	0.596960	-0.387550	0.268600
H572	H	1.096960	0.112450	0.768600
H573	H	0.568339	-0.744137	0.297340
H574	H	1.068339	-0.244137	0.797340
H575	H	0.730150	-0.829179	0.135814
H576	H	1.230150	-0.329179	0.635814
H577	H	0.568364	-0.829244	0.297349
H578	H	1.068364	-0.329244	0.797349
H579	H	0.262338	-0.135519	0.135852
H580	H	0.762338	0.364481	0.635852
O581	O	0.734558	-0.301845	0.833364
O582	O	1.234558	0.198155	1.333364
C583	C	0.791523	-0.358834	0.828420
C584	C	1.291523	0.141166	1.328420
C585	C	0.759940	-0.327202	0.802632
C586	C	1.259940	0.172798	1.302632
H587	H	0.812059	-0.379337	0.803585
H588	H	1.312059	0.120663	1.303585
H589	H	0.770900	-0.382350	0.850354
H590	H	1.270900	0.117650	1.350354
H591	H	0.815014	-0.338206	0.850419
H592	H	1.315014	0.161794	1.350419
H593	H	0.736442	-0.347793	0.780609
H594	H	1.236442	0.152207	1.280609
H595	H	0.780590	-0.303684	0.780727
H596	H	1.280590	0.196316	1.280727
H597	H	0.730033	-0.297314	0.688996
H598	H	1.230033	0.202686	1.188996
H599	H	0.730033	-0.297304	0.744638
H600	H	1.230033	0.202696	1.244638
O601	O	0.563991	-0.131047	0.692664
O602	O	1.063991	0.368953	1.192664
C603	C	0.557990	-0.070361	0.745620
C604	C	1.057990	0.429639	1.245620
C605	C	0.589555	-0.101981	0.719811
C606	C	1.089555	0.398019	1.219811
H607	H	0.578646	-0.046848	0.767567
H608	H	1.078646	0.453152	1.267567
H609	H	0.534490	-0.090955	0.767597
H610	H	1.034490	0.409045	1.267597
H611	H	0.537462	-0.049851	0.720775
H612	H	1.037462	0.450149	1.220775
H613	H	0.610113	-0.122498	0.744624
H614	H	1.110113	0.377502	1.244624
H615	H	0.613025	-0.081362	0.697827
H616	H	1.113025	0.418638	1.197827
H617	H	0.177251	-0.297487	0.297271
H618	H	0.677251	0.202513	0.797271
