data_functionalizedCrystal
_audit_creation_method	'MofGen! by Chris Wilmer'
_symmetry_space_group_name_H-M	'P1'
_symmetry_Int_Tables_number	1
_symmetry_cell_setting	triclinic
loop_
_symmetry_equiv_pos_as_xyz
  x,y,z
_cell_length_a	14.971496
_cell_length_b	14.971486
_cell_length_c	13.448316
_cell_angle_alpha	89.999879
_cell_angle_beta	89.995435
_cell_angle_gamma	83.616127
loop_
_atom_site_label
_atom_site_type_symbol
_atom_site_fract_x
_atom_site_fract_y
_atom_site_fract_z
O1	O	-0.116561	-1.186950	0.082580
O2	O	0.383439	-0.686950	0.582580
O3	O	-0.130519	-0.926550	0.082607
O4	O	0.369481	-0.426550	0.582607
O5	O	0.006659	-1.063725	0.082584
O6	O	0.506659	-0.563725	0.582584
O7	O	-0.253739	-1.049775	0.082603
O8	O	0.246261	-0.549775	0.582603
O9	O	0.006661	-1.063711	-0.082800
O10	O	0.506661	-0.563711	0.417200
O11	O	-0.130518	-0.926536	-0.082777
O12	O	0.369482	-0.426536	0.417223
O13	O	-0.116559	-1.186936	-0.082804
O14	O	0.383441	-0.686936	0.417196
Cu15	Cu	-0.123539	-1.056735	-0.097891
Cu16	Cu	0.376461	-0.556735	0.402109
Cu17	Cu	-0.123540	-1.056751	0.097694
Cu18	Cu	0.376460	-0.556751	0.597694
O19	O	-0.253738	-1.049761	-0.082781
O20	O	0.246262	-0.549761	0.417219
C21	C	-0.129895	-0.893218	-0.000082
C22	C	0.370105	-0.393218	0.499918
C23	C	-0.128024	-0.793921	-0.000071
C24	C	0.371976	-0.293921	0.499929
C25	C	0.039985	-1.063092	-0.000108
C26	C	0.539985	-0.563092	0.499892
C27	C	0.139281	-1.061218	-0.000109
C28	C	0.639281	-0.561218	0.499891
C29	C	-0.117184	-1.220268	-0.000114
C30	C	0.382816	-0.720268	0.499886
C31	C	-0.119055	-1.319565	-0.000117
C32	C	0.380945	-0.819565	0.499883
C33	C	-0.287063	-1.050394	-0.000087
C34	C	0.212937	-0.550394	0.499913
C35	C	-0.386360	-1.052268	-0.000080
C36	C	0.113640	-0.552268	0.499920
C37	C	0.566985	-1.053158	0.090069
C38	C	1.066985	-0.553158	0.590069
C39	C	0.473685	-1.054924	0.090064
C40	C	0.973685	-0.554924	0.590064
C41	C	0.427043	-1.055793	-0.000090
C42	C	0.927043	-0.555793	0.499910
C43	C	0.473705	-1.054906	-0.090246
C44	C	0.973705	-0.554906	0.409754
C45	C	0.567003	-1.053146	-0.090241
C46	C	1.067003	-0.553146	0.409759
C47	C	0.279242	-1.058570	-0.090252
C48	C	0.779242	-0.558570	0.409748
C49	C	0.185937	-1.060328	-0.090258
C50	C	0.685937	-0.560328	0.409742
C51	C	0.185924	-1.060348	0.090053
C52	C	0.685924	-0.560348	0.590053
C53	C	0.279222	-1.058588	0.090059
C54	C	0.779222	-0.558588	0.590059
C55	C	0.325878	-1.057700	-0.000097
C56	C	0.825878	-0.557700	0.499903
N57	N	-0.123537	-1.056730	-0.235456
N58	N	0.376463	-0.556730	0.264544
C59	C	-0.208613	-0.736699	-0.000067
C60	C	0.291387	-0.236699	0.499933
C61	C	-0.206850	-0.643399	-0.000082
C62	C	0.293150	-0.143399	0.499918
C63	C	-0.124497	-0.607324	-0.000094
C64	C	0.375503	-0.107324	0.499906
C65	C	-0.043902	-0.664554	-0.000102
C66	C	0.456098	-0.164554	0.499898
C67	C	-0.045666	-0.757852	-0.000094
C68	C	0.454334	-0.257852	0.499906
C69	C	-0.040231	-0.470091	-0.000116
C70	C	0.459769	0.029909	0.499884
C71	C	-0.038466	-0.376787	-0.000122
C72	C	0.461534	0.123213	0.499878
C73	C	-0.201414	-0.355639	-0.000104
C74	C	0.298586	0.144361	0.499896
C75	C	-0.203179	-0.448937	-0.000096
C76	C	0.296821	0.051063	0.499904
C77	C	-0.122583	-0.506160	-0.000101
C78	C	0.377417	-0.006160	0.499899
C79	C	-0.177878	-1.111034	-0.287494
C80	C	0.322122	-0.611034	0.212506
C81	C	-0.177874	-1.111045	-0.391597
C82	C	0.322126	-0.611045	0.108403
C83	C	-0.123533	-1.056747	-0.443660
C84	C	0.376467	-0.556747	0.056340
C85	C	-0.069186	-1.002441	-0.391615
C86	C	0.430814	-0.502441	0.108385
C87	C	-0.069186	-1.002435	-0.287514
C88	C	0.430814	-0.502435	0.212486
C89	C	-0.069192	-1.002455	-0.608595
C90	C	0.430808	-0.502455	-0.108595
C91	C	-0.069194	-1.002459	-0.712704
C92	C	0.430806	-0.502459	-0.212704
C93	C	-0.177880	-1.111065	-0.712678
C94	C	0.322120	-0.611065	-0.212678
C95	C	-0.177880	-1.111060	-0.608577
C96	C	0.322120	-0.611060	-0.108577
C97	C	-0.123534	-1.056752	-0.556539
C98	C	0.376466	-0.556752	-0.056539
N99	N	-0.123535	-1.056763	0.235258
N100	N	0.376465	-0.556763	0.735258
H101	H	0.604953	-1.052442	0.163483
H102	H	1.104953	-0.552442	0.663483
Cl103	Cl	-0.312148	-0.782041	-0.000045
Cl104	Cl	0.187852	-0.282041	0.499955
Cl105	Cl	0.059629	-0.619202	-0.000124
Cl106	Cl	0.559629	-0.119202	0.499876
Cl107	Cl	0.065065	-0.331437	-0.000171
Cl108	Cl	0.565065	0.168563	0.499829
Cl109	Cl	0.061091	-0.542028	-0.000125
Cl110	Cl	0.561091	-0.042028	0.499875
H111	H	0.019958	-0.804442	-0.000097
H112	H	0.519958	-0.304442	0.499903
H113	H	-0.024936	-0.958214	-0.245146
H114	H	0.475064	-0.458214	0.254854
Cl115	Cl	-0.246216	-1.179300	-0.543127
Cl116	Cl	0.253784	-0.679300	-0.043127
Cl117	Cl	-0.246197	-1.179342	-0.778096
Cl118	Cl	0.253803	-0.679342	-0.278096
H119	H	-0.024937	-0.958233	-0.566229
H120	H	0.475063	-0.458233	-0.066229
Cl121	Cl	-0.302735	-0.283702	-0.000099
Cl122	Cl	0.197265	0.216298	0.499901
Cl123	Cl	-0.246197	-1.179298	-0.222053
Cl124	Cl	0.253803	-0.679298	0.277947
Cl125	Cl	0.337857	-1.057489	0.203398
Cl126	Cl	0.837857	-0.557489	0.703398
Cl127	Cl	-0.000870	-0.934180	-0.457067
Cl128	Cl	0.499130	-0.434180	0.042933
H129	H	-0.222122	-1.155267	-0.433961
H130	H	0.277878	-0.655267	0.066039
Cl131	Cl	0.415069	-1.056004	-0.203584
Cl132	Cl	0.915069	-0.556004	0.296416
H133	H	0.604989	-1.052421	-0.163649
H134	H	1.104989	-0.552421	0.336351
Cl135	Cl	-0.000873	-0.934202	-0.778154
Cl136	Cl	0.499127	-0.434202	-0.278154
H137	H	0.435703	-1.055650	0.163473
H138	H	0.935703	-0.555650	0.663473
Cl139	Cl	0.127266	-1.061420	0.203393
Cl140	Cl	0.627266	-0.561420	0.703393
H141	H	0.147959	-1.061008	-0.163669
H142	H	0.647959	-0.561008	0.336331
H143	H	0.317226	-1.057848	-0.163666
H144	H	0.817226	-0.557848	0.336334
Cl145	Cl	-0.308166	-0.571466	-0.000070
Cl146	Cl	0.191834	-0.071466	0.499930
H147	H	-0.270237	-0.478306	-0.000076
H148	H	0.229763	0.021694	0.499924
