data_functionalizedCrystal
_audit_creation_method	'MofGen! by Chris Wilmer'
_symmetry_space_group_name_H-M	'P1'
_symmetry_Int_Tables_number	1
_symmetry_cell_setting	triclinic
loop_
_symmetry_equiv_pos_as_xyz
  x,y,z
_cell_length_a	10.540539
_cell_length_b	9.016244
_cell_length_c	10.540539
_cell_angle_alpha	90.000067
_cell_angle_beta	95.474508
_cell_angle_gamma	89.994699
loop_
_atom_site_label
_atom_site_type_symbol
_atom_site_fract_x
_atom_site_fract_y
_atom_site_fract_z
O1	O	1.685893	-0.123263	-0.178895
O2	O	1.316480	-0.123280	-0.195751
O3	O	1.509614	-0.123269	-0.002617
O4	O	1.492759	-0.123274	-0.372030
O5	O	1.509586	0.123411	-0.002621
O6	O	1.316452	0.123400	-0.195755
O7	O	1.685865	0.123418	-0.178900
Cu8	Cu	1.501156	0.145933	-0.187328
Cu9	Cu	1.501189	-0.145795	-0.187323
O10	O	1.492730	0.123407	-0.372034
C11	C	1.269163	0.000058	-0.194489
C12	C	1.128215	0.000051	-0.190707
N13	N	1.501141	0.351119	-0.187331
N14	N	1.501213	-0.350982	-0.187310
C15	C	0.944788	0.000628	-0.045790
C16	C	1.091406	0.000057	-0.049624
C17	C	1.066558	-0.140811	-0.258600
C18	C	0.920014	-0.140914	-0.253785
C19	C	0.919493	0.139608	-0.256660
C20	C	1.066475	0.141455	-0.257960
C21	C	1.733182	0.000077	-0.180161
C22	C	1.874130	0.000074	-0.183943
C23	C	1.508336	0.000068	0.044684
C24	C	1.504554	0.000060	0.185632
C25	C	1.397510	0.586146	-0.290298
C26	C	1.397739	0.414255	-0.290684
C27	C	1.633864	0.413464	-0.217464
C28	C	1.633298	0.585409	-0.218193
C29	C	1.473367	0.585663	-0.053892
C30	C	1.470322	0.413709	-0.054757
C31	C	1.494008	0.000066	-0.419335
C32	C	1.497790	0.000064	-0.560283
C33	C	1.359637	-0.000500	0.369059
C34	C	1.363471	0.000055	0.222441
C35	C	1.572434	0.140930	0.247287
C36	C	1.567619	0.141049	0.393832
C37	C	1.570520	-0.139473	0.394355
C38	C	1.571820	-0.141336	0.247373
H39	H	1.134008	0.101034	0.003797
H40	H	1.540849	0.370737	0.025564
H41	H	1.299123	0.372106	-0.272553
H42	H	1.669083	0.147444	0.441800
Br43	Br	1.743263	-0.155522	0.206996
H44	H	1.133163	-0.101092	0.004177
H45	H	1.676041	0.146173	0.224933
Br46	Br	1.273776	0.168631	0.152829
H47	H	1.415177	0.629339	-0.388722
Br48	Br	1.489747	-0.315060	0.178452
Br49	Br	1.266759	-0.168879	0.416723
Br50	Br	1.266833	0.166409	0.420010
H51	H	1.107425	0.245664	-0.208362
Br52	Br	1.103852	-0.149590	-0.431275
Br53	Br	1.740366	-0.141048	0.473066
Br54	Br	1.675371	0.341668	-0.377865
H55	H	1.548979	0.626319	0.022762
H56	H	1.298584	0.627535	-0.272446
H57	H	1.525258	0.245756	0.204686
H58	H	1.524871	-0.246244	0.425910
Br59	Br	1.137556	-0.315544	-0.179992
H60	H	1.657653	0.625498	-0.315531
H61	H	1.415639	0.373108	-0.389668
H62	H	1.310059	-0.100926	0.179839
Br63	Br	0.873007	-0.316412	-0.170146
Br64	Br	0.897120	0.169006	0.047107
Br65	Br	0.894453	-0.166792	0.046731
Br66	Br	0.840056	-0.151572	-0.422894
H67	H	0.887935	0.246381	-0.211004
Br68	Br	1.765751	0.654733	-0.097889
Br69	Br	1.307583	0.345802	-0.016682
Br70	Br	1.106840	0.155630	-0.429406
Br71	Br	1.315439	0.658018	-0.006115
Br72	Br	0.840784	0.141193	-0.426506
H73	H	1.712919	0.372564	-0.144501
Br74	Br	1.483961	0.316549	0.440837
