data_functionalizedCrystal
_audit_creation_method	'MofGen! by Chris Wilmer'
_symmetry_space_group_name_H-M	'P1'
_symmetry_Int_Tables_number	1
_symmetry_cell_setting	triclinic
loop_
_symmetry_equiv_pos_as_xyz
  x,y,z
_cell_length_a	13.635800
_cell_length_b	19.453172
_cell_length_c	17.982968
_cell_angle_alpha	83.873360
_cell_angle_beta	102.451960
_cell_angle_gamma	78.289512
loop_
_atom_site_label
_atom_site_type_symbol
_atom_site_fract_x
_atom_site_fract_y
_atom_site_fract_z
V1	V	2.003131	-0.097841	0.237907
O2	O	2.001592	0.004025	0.233012
O3	O	1.974622	-0.193350	0.236632
O4	O	1.976439	-0.096633	0.341506
O5	O	1.999763	-0.093363	0.127412
V6	V	2.245826	-0.085621	0.224648
O7	O	2.131712	-0.124645	0.266991
O8	O	2.342344	-0.058817	0.195564
O9	O	2.162731	0.009888	0.225923
O10	O	2.306063	-0.187486	0.229543
O11	O	2.307892	-0.090099	0.335143
O12	O	2.160915	-0.086829	0.121049
V13	V	2.503131	-0.097841	0.237907
O14	O	2.501592	0.004025	0.233012
O15	O	2.474622	-0.193350	0.236632
O16	O	2.476439	-0.096633	0.341506
O17	O	2.499763	-0.093363	0.127412
V18	V	2.745826	-0.085621	0.224648
O19	O	2.631712	-0.124645	0.266991
O20	O	2.842344	-0.058817	0.195564
O21	O	2.662731	0.009888	0.225923
O22	O	2.806063	-0.187486	0.229543
O23	O	2.807892	-0.090099	0.335143
O24	O	2.660915	-0.086829	0.121049
C25	C	1.896155	-0.216624	0.232970
C26	C	1.913473	-0.294706	0.232618
C27	C	2.128022	-0.855780	0.234648
C28	C	2.111758	-0.782413	0.234973
C29	C	2.012643	-0.742030	0.230605
C30	C	1.929781	-0.775018	0.225893
C31	C	1.946045	-0.848383	0.225560
N32	N	1.930006	-0.630451	0.271316
N33	N	1.914562	-0.560758	0.271634
C34	C	1.963635	-0.520986	0.231607
N35	N	2.028752	-0.553542	0.191260
N36	N	2.044200	-0.623242	0.190945
C37	C	1.994997	-0.662478	0.230965
C38	C	2.028857	-0.408453	0.236667
C39	C	2.012588	-0.335084	0.236987
C40	C	1.830611	-0.327692	0.227914
C41	C	1.846880	-0.401059	0.227586
C42	C	1.946006	-0.441436	0.231966
C43	C	1.898472	-0.093250	0.366745
C44	C	1.917262	-0.092895	0.451440
C45	C	2.072870	0.033159	0.229583
C46	C	2.045171	0.111240	0.229940
C47	C	2.070553	-0.090214	0.095805
C48	C	2.041382	-0.090566	0.011110
C49	C	2.396155	-0.216624	0.232970
C50	C	2.413473	-0.294706	0.232618
C51	C	2.398472	-0.093250	0.366745
C52	C	2.417262	-0.092895	0.451440
C53	C	2.016891	-0.096247	0.495124
C54	C	2.034540	-0.095913	0.574704
C55	C	1.952560	-0.092231	0.610598
C56	C	1.852922	-0.088875	0.566908
C57	C	1.835273	-0.089205	0.487329
C58	C	1.924096	-0.087545	0.887840
C59	C	1.941754	-0.087218	0.967425
C60	C	2.123362	-0.094253	0.975215
C61	C	2.105713	-0.094583	0.895636
C62	C	2.006077	-0.091224	0.851952
C63	C	1.986941	-0.091585	0.765663
C64	C	1.971696	-0.091874	0.696887
C65	C	2.572870	0.033159	0.229583
C66	C	2.545171	0.111240	0.229940
C67	C	2.570553	-0.090214	0.095805
C68	C	2.541382	-0.090566	0.011110
C69	C	2.512416	-0.334967	0.236273
C70	C	2.528705	-0.408336	0.235954
C71	C	2.446048	-0.441442	0.231975
C72	C	2.347097	-0.401177	0.228323
C73	C	2.330811	-0.327810	0.228647
C74	C	2.516896	-0.096241	0.495110
C75	C	2.534562	-0.095897	0.574689
C76	C	2.452595	-0.092213	0.610597
C77	C	2.352952	-0.088865	0.566921
C78	C	2.335286	-0.089203	0.487343
C79	C	2.618721	0.151500	0.226287
C80	C	2.592704	0.224868	0.226610
C81	C	2.493138	0.257975	0.230590
C82	C	2.419582	0.217710	0.234241
C83	C	2.445598	0.144344	0.233913
C84	C	2.441119	-0.094242	-0.024779
C85	C	2.413694	-0.094564	-0.104360
C86	C	2.486534	-0.091216	-0.148050
C87	C	2.586805	-0.087537	-0.112157
C88	C	2.614227	-0.087210	-0.032578
H89	H	2.208735	-0.888650	0.238212
H90	H	2.279803	-0.428143	0.225083
N91	N	1.727816	-0.085594	0.440213
H92	H	1.729073	-0.086358	0.384353
H93	H	1.679737	-0.040233	0.444865
H94	H	2.332044	-0.097560	-0.133573
N95	N	2.601577	-0.299269	0.240565
H96	H	2.666724	-0.335916	0.242836
H97	H	2.610980	-0.275937	0.288344
H98	H	2.464196	-0.091492	-0.212847
H99	H	2.204492	-0.096985	1.010791
H100	H	2.695874	-0.084220	-0.003363
H101	H	2.250238	-0.295034	0.225667
H102	H	2.471968	0.317715	0.230856
H103	H	2.646104	-0.084809	-0.147742
N104	N	2.605313	-0.100215	0.456391
H105	H	2.671104	-0.102279	0.496140
H106	H	2.590423	-0.056742	0.415981
N107	N	2.135720	-0.451979	0.241200
H108	H	2.133440	-0.503452	0.240222
H109	H	2.184339	-0.447758	0.290633
H110	H	1.874989	-0.084218	0.996648
H111	H	2.179226	-0.755554	0.238802
N112	N	2.726166	0.115646	0.222257
H113	H	2.722193	0.092205	0.174559
H114	H	2.759257	0.078513	0.269560
H115	H	2.080058	-0.308233	0.240817
H116	H	2.466995	-0.091938	0.675395
H117	H	2.286220	-0.085866	0.596169
H118	H	1.849080	-0.742134	0.222335
N119	N	1.816635	-0.083935	0.840742
H120	H	1.816776	-0.127679	0.815109
H121	H	1.793797	-0.040122	0.800035
H122	H	1.749909	-0.294813	0.224355
H123	H	2.615703	-0.098627	0.610240
N124	N	2.227819	-0.085596	0.440246
H125	H	2.178583	-0.083213	0.475075
H126	H	2.228047	-0.129351	0.414625
H127	H	1.779414	-0.427911	0.223756
H128	H	1.878575	-0.875234	0.221728
N129	N	2.194134	-0.098546	0.856922
H130	H	2.167835	-0.098245	0.799880
H131	H	2.248391	-0.143788	0.880089
N132	N	2.105320	-0.100215	0.456419
H133	H	2.090530	-0.056743	0.416019
H134	H	2.113526	-0.144299	0.431179
N135	N	2.141993	-0.099516	0.621819
H136	H	2.191248	-0.101899	0.587004
H137	H	2.164794	-0.143294	0.662570
H138	H	1.786173	-0.085873	0.596139
H139	H	2.609281	-0.441110	0.238926
N140	N	2.463621	-0.520573	0.231625
H141	H	2.538847	-0.541049	0.234542
H142	H	2.419633	-0.529833	0.182569
H143	H	2.338514	0.244676	0.237481
N144	N	2.672051	0.268286	0.222685
H145	H	2.739074	0.236175	0.220126
H146	H	2.683840	0.291926	0.270134
N147	N	2.366263	0.100923	0.237855
H148	H	2.299246	0.133034	0.240428
H149	H	2.392105	0.063377	0.285363
H150	H	2.381795	-0.096969	0.010784
