data_functionalizedCrystal
_audit_creation_method	'MofGen! by Chris Wilmer'
_symmetry_space_group_name_H-M	'P1'
_symmetry_Int_Tables_number	1
_symmetry_cell_setting	triclinic
loop_
_symmetry_equiv_pos_as_xyz
  x,y,z
_cell_length_a	6.817900
_cell_length_b	12.200722
_cell_length_c	10.992743
_cell_angle_alpha	92.437030
_cell_angle_beta	108.770538
_cell_angle_gamma	107.140920
loop_
_atom_site_label
_atom_site_type_symbol
_atom_site_fract_x
_atom_site_fract_y
_atom_site_fract_z
V1	V	-4.105889	-0.158678	-0.400725
O2	O	-4.072828	0.007661	-0.392957
O3	O	-4.075203	-0.314666	-0.398120
O4	O	-4.083631	-0.156221	-0.575434
O5	O	-4.064341	-0.151881	-0.214415
V6	V	-4.583834	-0.138784	-0.378425
O7	O	-4.379383	-0.202317	-0.449644
O8	O	-4.760537	-0.095144	-0.329507
O9	O	-4.391312	0.017205	-0.381030
O10	O	-4.734291	-0.305123	-0.386193
O11	O	-4.742778	-0.145581	-0.564735
O12	O	-4.382884	-0.141240	-0.203716
C13	C	-3.923668	-0.352693	-0.391833
C14	C	-3.980040	-0.480216	-0.390867
C15	C	-4.025812	-0.583776	-0.390071
C16	C	-4.083257	-0.713699	-0.389078
C17	C	-3.934417	-0.150579	-0.618013
C18	C	-3.997620	-0.149603	-0.760839
C19	C	-4.309742	-0.155578	-0.971938
C20	C	-4.243927	-0.156153	-0.823306
C21	C	-3.853318	-0.035754	-0.791516
C22	C	-3.920436	-0.034700	-0.940157
C23	C	-4.031178	-0.253709	-0.978617
C24	C	-3.970366	-0.256299	-0.830405
C25	C	-4.206190	0.055226	-0.387314
C26	C	-4.129057	0.182747	-0.388288
C27	C	-4.195440	-0.146886	-0.161130
C28	C	-4.111475	-0.147856	-0.018303
H29	H	-4.355815	-0.237981	-0.803779
H30	H	-4.454228	-0.236967	-1.024645
Cl31	Cl	-3.879672	0.086618	-0.716088
H32	H	-4.078005	-0.340456	-0.812320
Cl33	Cl	-3.803224	-0.246631	-1.024110
H34	H	-4.273729	-0.080085	-0.776994
H35	H	-4.371736	-0.079550	-0.998603
H36	H	-4.162697	-0.339079	-1.033280
H37	H	-3.970901	0.045354	-0.963178
Cl38	Cl	-3.689373	-0.018758	-0.985356
Cl39	Cl	-3.700144	-0.259162	-0.765957
Cl40	Cl	-3.573645	-0.021942	-0.726867
