data_functionalizedCrystal
_audit_creation_method	'MofGen! by Chris Wilmer'
_symmetry_space_group_name_H-M	'P1'
_symmetry_Int_Tables_number	1
_symmetry_cell_setting	triclinic
loop_
_symmetry_equiv_pos_as_xyz
  x,y,z
_cell_length_a	12.645331
_cell_length_b	25.639239
_cell_length_c	12.645323
_cell_angle_alpha	89.966151
_cell_angle_beta	89.978061
_cell_angle_gamma	90.038900
loop_
_atom_site_label
_atom_site_type_symbol
_atom_site_fract_x
_atom_site_fract_y
_atom_site_fract_z
Zn1	Zn	1.620567	-0.208133	-0.599399
Zn2	Zn	2.120567	0.291867	-0.099399
Zn3	Zn	1.620387	-0.295575	-0.422117
Zn4	Zn	2.120387	0.204425	0.077883
Zn5	Zn	1.443285	-0.208156	-0.422143
Zn6	Zn	1.943285	0.291844	0.077857
Zn7	Zn	1.443199	-0.295540	-0.599332
Zn8	Zn	1.943199	0.204460	-0.099332
O9	O	1.531859	-0.251851	-0.510748
O10	O	2.031859	0.248149	-0.010748
O11	O	1.768891	-0.219738	-0.575899
O12	O	2.268891	0.280262	-0.075899
O13	O	1.596854	-0.284003	-0.273773
O14	O	2.096854	0.215997	0.226227
O15	O	1.466913	-0.134988	-0.445695
O16	O	1.966913	0.365012	0.054305
O17	O	1.768758	-0.283981	-0.445651
O18	O	2.268758	0.216019	0.054349
O19	O	1.597162	-0.134971	-0.575924
O20	O	2.097162	0.365029	-0.075924
O21	O	1.466738	-0.219777	-0.273792
O22	O	1.966738	0.280223	0.226208
O23	O	1.294926	-0.219742	-0.445630
O24	O	1.794926	0.280258	0.054370
O25	O	1.466767	-0.283921	-0.747688
O26	O	1.966767	0.216079	-0.247688
O27	O	1.294863	-0.283943	-0.575810
O28	O	1.794863	0.216057	-0.075810
O29	O	1.597079	-0.219704	-0.747737
O30	O	2.097079	0.280296	-0.247737
O31	O	1.596771	-0.368736	-0.445587
O32	O	2.096771	0.131264	0.054413
O33	O	1.466592	-0.368710	-0.575786
O34	O	1.966592	0.131290	-0.075786
C35	C	1.256430	-0.251842	-0.510716
C36	C	1.756430	0.248158	-0.010716
C37	C	1.138600	-0.251850	-0.510728
C38	C	1.638600	0.248150	-0.010728
C39	C	1.093722	-0.211399	-0.428965
C40	C	1.593722	0.288601	0.071035
C41	C	0.971162	-0.211249	-0.429245
C42	C	1.471162	0.288751	0.070755
C43	C	0.970780	-0.237155	-0.622639
C44	C	1.470780	0.262845	-0.122639
C45	C	1.093378	-0.236852	-0.622129
C46	C	1.593378	0.263148	-0.122129
C47	C	1.093344	-0.307118	-0.481636
C48	C	1.593344	0.192882	0.018364
C49	C	0.970736	-0.306829	-0.479210
C50	C	1.470736	0.193171	0.020790
C51	C	1.531681	-0.387694	-0.510699
C52	C	2.031681	0.112306	-0.010699
C53	C	1.531702	-0.445808	-0.510714
C54	C	2.031702	0.054192	-0.010714
C55	C	1.599821	-0.806172	-0.443069
C56	C	2.099821	-0.306172	0.056931
C57	C	1.599862	-0.860776	-0.443083
C58	C	2.099862	-0.360776	0.056917
O59	O	1.657594	-0.889014	-0.385515
O60	O	2.157594	-0.389014	0.114485
N61	N	1.532046	-0.888090	-0.510818
N62	N	2.032046	-0.388090	-0.010818
C63	C	1.464192	-0.860797	-0.578551
C64	C	1.964192	-0.360797	-0.078551
O65	O	1.406513	-0.889044	-0.636167
O66	O	1.906513	-0.389044	-0.136167
C67	C	1.464157	-0.806194	-0.578541
C68	C	1.964157	-0.306194	-0.078541
C69	C	1.531970	-0.778883	-0.510794
C70	C	2.031970	-0.278883	-0.010794
C71	C	1.667629	-0.778860	-0.375328
C72	C	2.167629	-0.278860	0.124672
C73	C	1.667586	-0.724260	-0.375312
C74	C	2.167586	-0.224260	0.124688
C75	C	1.599735	-0.696971	-0.443038
C76	C	2.099735	-0.196971	0.056962
C77	C	1.531927	-0.724282	-0.510779
C78	C	2.031927	-0.224282	-0.010779
C79	C	1.396309	-0.778902	-0.646279
C80	C	1.896309	-0.278902	-0.146279
C81	C	1.396281	-0.724295	-0.646264
C82	C	1.896281	-0.224295	-0.146264
C83	C	1.464093	-0.696984	-0.578517
C84	C	1.964093	-0.196984	-0.078517
C85	C	1.464033	-0.642392	-0.578489
C86	C	1.964033	-0.142392	-0.078489
N87	N	1.531849	-0.615078	-0.510754
N88	N	2.031849	-0.115078	-0.010754
C89	C	1.599700	-0.642367	-0.443028
C90	C	2.099700	-0.142367	0.056972
C91	C	1.464272	-0.975468	-0.578567
C92	C	1.964272	-0.475468	-0.078567
C93	C	1.464300	-1.030070	-0.578572
C94	C	1.964300	-0.530070	-0.078572
C95	C	1.599972	-1.030045	-0.443105
C96	C	2.099972	-0.530045	0.056895
C97	C	1.599937	-0.975442	-0.443096
C98	C	2.099937	-0.475442	0.056904
C99	C	1.532088	-0.948154	-0.510832
C100	C	2.032088	-0.448154	-0.010832
C101	C	1.599605	-0.527702	-0.443001
C102	C	2.099605	-0.027702	0.056999
C103	C	1.599553	-0.473097	-0.442988
C104	C	2.099553	0.026903	0.057012
C105	C	1.463886	-0.473127	-0.578459
C106	C	1.963886	0.026873	-0.078459
C107	C	1.463933	-0.527727	-0.578468
C108	C	1.963933	-0.027727	-0.078468
C109	C	1.531801	-0.555014	-0.510735
C110	C	2.031801	-0.055014	-0.010735
O111	O	1.406334	-0.614120	-0.636030
O112	O	1.906334	-0.114120	-0.136030
O113	O	1.657379	-0.614114	-0.385432
O114	O	2.157379	-0.114114	0.114568
C115	C	1.808365	-0.251861	-0.510780
C116	C	2.308365	0.248139	-0.010780
C117	C	1.926195	-0.251865	-0.510793
C118	C	2.426195	0.248135	-0.010793
C119	C	1.531933	-0.251806	-0.787253
C120	C	2.031933	0.248194	-0.287253
C121	C	1.531965	-0.251787	-0.905083
C122	C	2.031965	0.248213	-0.405083
C123	C	1.532067	-0.115478	-0.510820
C124	C	2.032067	0.384522	-0.010820
C125	C	1.532156	-0.057364	-0.510850
C126	C	2.032156	0.442636	-0.010850
C127	C	1.449990	-0.292178	-0.949934
C128	C	1.949990	0.207822	-0.449934
C129	C	1.449702	-0.292026	-1.072494
C130	C	1.949702	0.207974	-0.572494
C131	C	1.502137	-0.196598	-1.072999
C132	C	2.002137	0.303402	-0.572999
C133	C	1.501509	-0.196865	-0.950401
C134	C	2.001509	0.303135	-0.450401
C135	C	1.644043	-0.266034	-0.950271
C136	C	2.144043	0.233966	-0.450271
C137	C	1.643473	-0.267217	-1.072877
C138	C	2.143473	0.232783	-0.572877
C139	C	1.531847	-0.251858	-0.235318
C140	C	2.031847	0.248142	0.264682
C141	C	1.532021	-0.251730	-0.117488
C142	C	2.032021	0.248270	0.382512
H143	H	0.940114	-0.338568	-0.534386
H144	H	1.440114	0.161432	-0.034386
H145	H	1.419597	-0.184809	-0.921805
H146	H	1.919597	0.315191	-0.421805
Cl147	Cl	1.478418	-0.355512	-0.904411
Cl148	Cl	1.978418	0.144488	-0.404411
Cl149	Cl	1.378660	-0.562063	-0.663615
Cl150	Cl	1.878660	-0.062063	-0.163615
Cl151	Cl	1.589716	-0.148801	-0.904588
Cl152	Cl	2.089716	0.351199	-0.404588
H153	H	1.655224	-1.052274	-0.387963
H154	H	2.155224	-0.552274	0.112037
H155	H	1.671309	-0.305571	-0.919346
H156	H	2.171309	0.194429	-0.419346
H157	H	1.409070	-1.052303	-0.633729
H158	H	1.909070	-0.552303	-0.133729
Cl159	Cl	1.591517	-0.148836	-1.117994
Cl160	Cl	2.091517	0.351164	-0.617994
Cl161	Cl	0.925950	-0.148028	-0.459080
Cl162	Cl	1.425950	0.351972	0.040920
H163	H	1.654774	-0.450862	-0.387817
H164	H	2.154774	0.049138	0.112183
Cl165	Cl	1.378957	-0.941168	-0.663722
Cl166	Cl	1.878957	-0.441168	-0.163722
Cl167	Cl	1.322495	-0.277773	-0.902380
Cl168	Cl	1.822495	0.222227	-0.402380
H169	H	0.941658	-0.265721	-0.685252
H170	H	1.441658	0.234279	-0.185252
H171	H	1.666013	-0.307792	-1.101951
H172	H	2.166013	0.192208	-0.601951
Cl173	Cl	1.738335	-0.220619	-0.905484
Cl174	Cl	2.238335	0.279381	-0.405484
H175	H	1.654872	-0.549913	-0.387849
H176	H	2.154872	-0.049913	0.112151
Cl177	Cl	1.685192	-0.941113	-0.357926
Cl178	Cl	2.185192	-0.441113	0.142074
H179	H	1.707802	-0.239944	-1.103509
H180	H	2.207802	0.260056	-0.603509
H181	H	1.341083	-0.801130	-0.701441
H182	H	1.841083	-0.301130	-0.201441
H183	H	1.122360	-0.337254	-0.541188
H184	H	1.622360	0.162746	-0.041188
Cl185	Cl	1.752858	-0.689934	-0.290156
Cl186	Cl	2.252858	-0.189934	0.209844
H187	H	1.722887	-0.801073	-0.320177
H188	H	2.222887	-0.301073	0.179823
Cl189	Cl	1.310980	-0.689993	-0.731426
Cl190	Cl	1.810980	-0.189993	-0.231426
H191	H	1.122025	-0.196460	-0.646719
H192	H	1.622025	0.303540	-0.146719
Cl193	Cl	1.140977	-0.327854	-0.357805
Cl194	Cl	1.640977	0.172146	0.142195
H195	H	0.941013	-0.220427	-0.346327
H196	H	1.441013	0.279573	0.153673
Cl197	Cl	1.378597	-0.438810	-0.663601
Cl198	Cl	1.878597	0.061190	-0.163601
Cl199	Cl	1.478491	-0.355136	-1.118940
Cl200	Cl	1.978491	0.144864	-0.618940
Cl201	Cl	0.925735	-0.323965	-0.352125
Cl202	Cl	1.425735	0.176035	0.147875
Cl203	Cl	1.141356	-0.148528	-0.458401
Cl204	Cl	1.641356	0.351472	0.041599
Cl205	Cl	1.139150	-0.225388	-0.300514
Cl206	Cl	1.639150	0.274612	0.199486
H207	H	1.366669	-0.282566	-1.101823
H208	H	1.866669	0.217434	-0.601823
H209	H	1.421140	-0.184319	-1.103704
H210	H	1.921140	0.315681	-0.603704
H211	H	1.123070	-0.265047	-0.685159
H212	H	1.623070	0.234953	-0.185159
Cl213	Cl	0.923460	-0.175484	-0.661288
Cl214	Cl	1.423460	0.324516	-0.161288
