data_functionalizedCrystal
_audit_creation_method	'MofGen! by Chris Wilmer'
_symmetry_space_group_name_H-M	'P1'
_symmetry_Int_Tables_number	1
_symmetry_cell_setting	triclinic
loop_
_symmetry_equiv_pos_as_xyz
  x,y,z
_cell_length_a	12.759401
_cell_length_b	18.101395
_cell_length_c	12.759393
_cell_angle_alpha	89.967630
_cell_angle_beta	89.979062
_cell_angle_gamma	90.032629
loop_
_atom_site_label
_atom_site_type_symbol
_atom_site_fract_x
_atom_site_fract_y
_atom_site_fract_z
Zn1	Zn	1.606147	-0.294764	-0.594006
Zn2	Zn	2.106147	0.205236	-0.094006
Zn3	Zn	1.605987	-0.418623	-0.418321
Zn4	Zn	2.105987	0.081377	0.081679
Zn5	Zn	1.430445	-0.294803	-0.418342
Zn6	Zn	1.930445	0.205197	0.081658
Zn7	Zn	1.430387	-0.418571	-0.593958
Zn8	Zn	1.930387	0.081429	-0.093958
O9	O	1.518242	-0.356690	-0.506157
O10	O	2.018242	0.143310	-0.006157
O11	O	1.753147	-0.311199	-0.570713
O12	O	2.253147	0.188801	-0.070713
O13	O	1.582659	-0.402236	-0.271302
O14	O	2.082659	0.097764	0.228698
O15	O	1.453844	-0.191165	-0.441673
O16	O	1.953844	0.308835	0.058327
O17	O	1.753030	-0.402198	-0.441637
O18	O	2.253030	0.097802	0.058363
O19	O	1.582931	-0.191136	-0.570733
O20	O	2.082931	0.308864	-0.070733
O21	O	1.453689	-0.311266	-0.271318
O22	O	1.953689	0.188734	0.228682
O23	O	1.283417	-0.311216	-0.441626
O24	O	1.783417	0.188784	0.058374
O25	O	1.453744	-0.402110	-0.740986
O26	O	1.953744	0.097890	-0.240986
O27	O	1.283374	-0.402148	-0.570651
O28	O	1.783374	0.097852	-0.070651
O29	O	1.582874	-0.311149	-0.741021
O30	O	2.082874	0.188851	-0.241021
O31	O	1.582603	-0.522249	-0.441590
O32	O	2.082603	-0.022249	0.058410
O33	O	1.453590	-0.522211	-0.570630
O34	O	1.953590	-0.022211	-0.070630
C35	C	1.245274	-0.356681	-0.506136
C36	C	1.745274	0.143319	-0.006136
C37	C	1.128498	-0.356695	-0.506152
C38	C	1.628498	0.143305	-0.006152
C39	C	1.073641	-0.404115	-0.573229
C40	C	1.573641	0.095885	-0.073229
C41	C	0.963917	-0.404118	-0.573250
C42	C	1.463917	0.095882	-0.073250
C43	C	0.963916	-0.309278	-0.439107
C44	C	1.463916	0.190722	0.060893
C45	C	1.073638	-0.309272	-0.439092
C46	C	1.573638	0.190728	0.060908
C47	C	1.518101	-0.549101	-0.506126
C48	C	2.018101	-0.049101	-0.006126
C49	C	1.518137	-0.631415	-0.506148
C50	C	2.018137	-0.131415	-0.006148
C51	C	1.518368	-0.930506	-0.506204
C52	C	2.018368	-0.430506	-0.006204
C53	C	1.437384	-0.899187	-0.587594
C54	C	1.937384	-0.399187	-0.087594
C55	C	1.436999	-0.813570	-0.587340
C56	C	1.936999	-0.313570	-0.087340
C57	C	1.518253	-0.782123	-0.506177
C58	C	2.018253	-0.282123	-0.006177
C59	C	1.488271	-0.813282	-0.395451
C60	C	1.988271	-0.313282	0.104549
C61	C	1.487748	-0.898927	-0.395938
C62	C	1.987748	-0.398927	0.104062
C63	C	1.629511	-0.898846	-0.534565
C64	C	2.129511	-0.398846	-0.034565
C65	C	1.628857	-0.813194	-0.536994
C66	C	2.128857	-0.313194	-0.036994
C67	C	1.518190	-0.698264	-0.506155
C68	C	2.018190	-0.198264	-0.006155
C69	C	1.518428	-1.014365	-0.506219
C70	C	2.018428	-0.514365	-0.006219
C71	C	1.792275	-0.356700	-0.506178
C72	C	2.292275	0.143300	-0.006178
C73	C	1.909051	-0.356704	-0.506187
C74	C	2.409051	0.143296	-0.006187
C75	C	1.518320	-0.356619	-0.780190
C76	C	2.018320	0.143381	-0.280190
C77	C	1.518354	-0.356589	-0.896967
C78	C	2.018354	0.143411	-0.396967
C79	C	1.518411	-0.163528	-0.506211
C80	C	2.018411	0.336472	-0.006211
C81	C	1.518484	-0.081214	-0.506234
C82	C	2.018484	0.418786	-0.006234
C83	C	1.585597	-0.309218	-0.951849
C84	C	2.085597	0.190782	-0.451849
C85	C	1.585614	-0.309186	-1.061573
C86	C	2.085614	0.190814	-0.561573
C87	C	1.451143	-0.403902	-1.061523
C88	C	1.951143	0.096098	-0.561523
C89	C	1.451121	-0.403930	-0.951801
C90	C	1.951121	0.096070	-0.451801
C91	C	1.518224	-0.356708	-0.233189
C92	C	2.018224	0.143292	0.266811
C93	C	1.518394	-0.356529	-0.116413
C94	C	2.018394	0.143471	0.383587
H95	H	1.455759	-0.792500	-0.669442
H96	H	1.955759	-0.292500	-0.169442
Cl97	Cl	1.366574	-0.463483	-0.882801
Cl98	Cl	1.866574	0.036517	-0.382801
H99	H	0.919257	-0.442732	-0.627873
H100	H	1.419257	0.057268	-0.127873
H101	H	0.919236	-0.270670	-0.384508
H102	H	1.419236	0.229330	0.115492
H103	H	1.455958	-0.919730	-0.669962
H104	H	1.955958	-0.419730	-0.169962
Cl105	Cl	1.142606	-0.249649	-0.354766
Cl106	Cl	1.642606	0.250351	0.145234
Cl107	Cl	1.310969	-0.932535	-0.558979
Cl108	Cl	1.810969	-0.432535	-0.058979
H109	H	1.545399	-0.792915	-0.333156
H110	H	2.045399	-0.292915	0.166844
Cl111	Cl	1.670162	-0.249638	-1.130563
Cl112	Cl	2.170162	0.250362	-0.630563
H113	H	1.118304	-0.442728	-0.627836
H114	H	1.618304	0.057272	-0.127836
Cl115	Cl	1.670113	-0.249701	-0.882918
Cl116	Cl	2.170113	0.250299	-0.382918
Cl117	Cl	1.309807	-0.782036	-0.558340
Cl118	Cl	1.809807	-0.282036	-0.058340
H119	H	1.544174	-0.919647	-0.333229
H120	H	2.044174	-0.419647	0.166771
Cl121	Cl	1.362313	-0.929880	-0.358848
Cl122	Cl	1.862313	-0.429880	0.141152
Cl123	Cl	1.364160	-0.780277	-0.357692
Cl124	Cl	1.864160	-0.280277	0.142308
Cl125	Cl	1.671713	-0.932103	-0.657100
Cl126	Cl	2.171713	-0.432103	-0.157100
H127	H	1.651467	-0.792826	-0.618482
H128	H	2.151467	-0.292826	-0.118482
Cl129	Cl	1.726948	-0.780134	-0.452147
Cl130	Cl	2.226948	-0.280134	0.047853
Cl131	Cl	1.366633	-0.463417	-1.130465
Cl132	Cl	1.866633	0.036583	-0.630465
Cl133	Cl	1.722669	-0.930129	-0.443061
Cl134	Cl	2.222669	-0.430129	0.056939
