data_functionalizedCrystal
_audit_creation_method	'MofGen! by Chris Wilmer'
_symmetry_space_group_name_H-M	'P1'
_symmetry_Int_Tables_number	1
_symmetry_cell_setting	triclinic
loop_
_symmetry_equiv_pos_as_xyz
  x,y,z
_cell_length_a	17.038278
_cell_length_b	14.044220
_cell_length_c	13.101039
_cell_angle_alpha	86.332523
_cell_angle_beta	86.398827
_cell_angle_gamma	87.850311
loop_
_atom_site_label
_atom_site_type_symbol
_atom_site_fract_x
_atom_site_fract_y
_atom_site_fract_z
O1	O	1.055806	-0.202075	-0.085228
O2	O	1.555806	0.297925	0.414772
O3	O	0.827946	-0.198791	-0.085228
O4	O	1.327946	0.301209	0.414772
O5	O	0.938456	-0.062173	-0.085218
O6	O	1.438456	0.437827	0.414782
O7	O	0.945297	-0.338693	-0.085238
O8	O	1.445297	0.161307	0.414762
O9	O	0.930528	-0.071993	0.085212
O10	O	1.430528	0.428007	0.585212
O11	O	0.820018	-0.208610	0.085201
O12	O	1.320018	0.291390	0.585201
O13	O	1.047879	-0.211894	0.085202
O14	O	1.547879	0.288106	0.585202
Zn15	Zn	0.932690	-0.211811	0.112261
Zn16	Zn	1.432690	0.288189	0.612261
Zn17	Zn	0.943135	-0.198874	-0.112287
Zn18	Zn	1.443135	0.301126	0.387713
O19	O	0.937369	-0.348512	0.085191
O20	O	1.437369	0.151488	0.585191
C21	C	0.794645	-0.200711	-0.000013
C22	C	1.294645	0.299289	0.499987
C23	C	0.707228	-0.191793	-0.000013
C24	C	1.207228	0.308207	0.499987
C25	C	0.212983	-0.137004	-0.000013
C26	C	0.712983	0.362996	0.499987
C27	C	0.295120	-0.145392	-0.000007
C28	C	0.795120	0.354608	0.499993
C29	C	0.332870	-0.235667	-0.000018
C30	C	0.832870	0.264333	0.499982
C31	C	0.288477	-0.317560	-0.000025
C32	C	0.788477	0.182440	0.499975
C33	C	0.206342	-0.309172	-0.000023
C34	C	0.706342	0.190828	0.499977
C35	C	0.580700	-0.265299	-0.000018
C36	C	1.080700	0.234701	0.499982
C37	C	0.662842	-0.273680	-0.000022
C38	C	1.162842	0.226320	0.499978
C39	C	0.669479	-0.101511	-0.000003
C40	C	1.169479	0.398489	0.499997
C41	C	0.587342	-0.093131	-0.000007
C42	C	1.087342	0.406869	0.499993
C43	C	0.542956	-0.175025	-0.000008
C44	C	1.042956	0.324975	0.499992
C45	C	0.416827	-0.244242	-0.000016
C46	C	0.916827	0.255758	0.499984
C47	C	0.459000	-0.166449	-0.000003
C48	C	0.959000	0.333551	0.499997
C49	C	0.931497	-0.031527	-0.000003
C50	C	1.431497	0.468473	0.499997
C51	C	0.922566	0.074419	-0.000001
C52	C	1.422566	0.574419	0.499999
C53	C	1.081180	-0.209974	-0.000015
C54	C	1.581180	0.290026	0.499985
C55	C	1.168597	-0.218892	-0.000022
C56	C	1.668597	0.281108	0.499978
C57	C	0.944327	-0.379158	-0.000026
C58	C	1.444327	0.120842	0.499974
C59	C	0.953259	-0.485103	-0.000034
C60	C	1.453259	0.014897	0.499966
N61	N	0.925567	-0.220641	0.265509
N62	N	1.425567	0.279359	0.765509
C63	C	0.906238	0.268398	-0.000016
C64	C	1.406238	0.768398	0.499984
C65	C	0.969583	0.320924	-0.000019
C66	C	1.469583	0.820924	0.499981
C67	C	0.960498	0.428860	-0.000027
C68	C	1.460498	0.928860	0.499973
C69	C	0.915322	0.160451	-0.000008
C70	C	1.415322	0.660451	0.499992
N71	N	0.950263	-0.190037	-0.265535
N72	N	1.450263	0.309963	0.234465
C73	C	0.915877	-0.232662	0.474550
C74	C	1.415877	0.267338	0.974550
C75	C	0.959951	-0.178019	0.525430
C76	C	1.459951	0.321981	1.025430
C77	C	0.954560	-0.184707	0.641748
C78	C	1.454560	0.315293	1.141748
C79	C	0.921267	-0.225975	0.358222
C80	C	1.421267	0.274025	0.858222
H81	H	0.331256	-0.078710	0.000005
H82	H	0.831256	0.421290	0.500005
H83	H	1.001735	-0.126214	0.481632
H84	H	1.501735	0.373786	0.981632
N85	N	0.863466	-0.297643	0.529501
N86	N	1.363466	0.202357	1.029501
N87	N	0.859108	-0.303050	0.625283
N88	N	1.359108	0.196950	1.125283
H89	H	0.822095	-0.348944	0.664104
H90	H	1.322095	0.151056	1.164104
H91	H	1.030641	0.284834	-0.000088
H92	H	1.530641	0.784834	0.499912
N93	N	0.829649	0.313670	0.000015
N94	N	1.329649	0.813670	0.500015
N95	N	0.779802	0.294774	0.071870
N96	N	1.279802	0.794774	0.571870
H97	H	0.725711	0.326757	0.071900
H98	H	1.225711	0.826757	0.571900
N99	N	0.548801	-0.000907	0.000020
N100	N	1.048801	0.499093	0.500020
N101	N	0.556863	0.051649	0.071869
N102	N	1.056863	0.551649	0.571869
H103	H	0.529646	0.116786	0.071886
H104	H	1.029646	0.616786	0.571886
N105	N	0.174440	-0.044781	-0.000012
N106	N	0.674440	0.455219	0.499988
N107	N	0.214084	0.028324	-0.000002
N108	N	0.714084	0.528324	0.499998
H109	H	0.186865	0.093460	0.000001
H110	H	0.686865	0.593460	0.500001
H111	H	0.705626	-0.034838	-0.000001
H112	H	1.205626	0.465162	0.499999
H113	H	0.693574	-0.347197	-0.000017
H114	H	1.193574	0.152803	0.499983
H115	H	0.544571	-0.331983	-0.000024
H116	H	1.044571	0.168017	0.499976
N117	N	0.327047	-0.409768	-0.000025
N118	N	0.827047	0.090232	0.499975
N119	N	0.400382	-0.417247	-0.000027
N120	N	0.900382	0.082753	0.499973
H121	H	0.427621	-0.482370	-0.000029
H122	H	0.927621	0.017630	0.499971
H123	H	0.428262	-0.092947	-0.000006
H124	H	0.928262	0.407053	0.499994
N125	N	0.160998	-0.392819	-0.000013
N126	N	0.660998	0.107181	0.499987
N127	N	0.164607	-0.455532	0.071824
N128	N	0.664607	0.044468	0.571824
H129	H	0.132583	-0.514611	0.071838
H130	H	0.632583	-0.014611	0.571838
N131	N	0.455390	-0.336453	-0.000015
N132	N	0.955390	0.163547	0.499985
N133	N	0.497139	-0.364479	0.071825
N134	N	0.997139	0.135521	0.571825
H135	H	0.524377	-0.429604	0.071830
H136	H	1.024377	0.070396	0.571830
