data_functionalizedCrystal
_audit_creation_method	'MofGen! by Chris Wilmer'
_symmetry_space_group_name_H-M	'P1'
_symmetry_Int_Tables_number	1
_symmetry_cell_setting	triclinic
loop_
_symmetry_equiv_pos_as_xyz
  x,y,z
_cell_length_a	16.120530
_cell_length_b	16.120484
_cell_length_c	16.120256
_cell_angle_alpha	84.383827
_cell_angle_beta	89.871735
_cell_angle_gamma	90.167327
loop_
_atom_site_label
_atom_site_type_symbol
_atom_site_fract_x
_atom_site_fract_y
_atom_site_fract_z
Zn1	Zn	1.224986	-0.422281	0.554816
Zn2	Zn	1.474986	-0.172281	0.804816
Zn3	Zn	1.724986	0.077719	1.054816
Zn4	Zn	1.974986	0.327719	1.304816
Zn5	Zn	1.224882	-0.554961	0.422121
Zn6	Zn	1.474882	-0.304961	0.672121
Zn7	Zn	1.724882	-0.054961	0.922121
Zn8	Zn	1.974882	0.195039	1.172121
Zn9	Zn	1.093725	-0.408193	0.408058
Zn10	Zn	1.343725	-0.158193	0.658058
Zn11	Zn	1.593725	0.091807	0.908058
Zn12	Zn	1.843725	0.341807	1.158058
Zn13	Zn	1.078879	-0.554198	0.554054
Zn14	Zn	1.328879	-0.304198	0.804054
Zn15	Zn	1.578879	-0.054198	1.054054
Zn16	Zn	1.828879	0.195802	1.304054
O17	O	1.155618	-0.484908	0.484762
O18	O	1.405618	-0.234908	0.734762
O19	O	1.655618	0.015092	0.984762
O20	O	1.905618	0.265092	1.234762
O21	O	1.341008	-0.446097	0.543418
O22	O	1.591008	-0.196097	0.793418
O23	O	1.841008	0.053903	1.043418
O24	O	2.091008	0.303903	1.293418
O25	O	1.213653	-0.529915	0.303622
O26	O	1.463653	-0.279915	0.553622
O27	O	1.713653	-0.029915	0.803622
O28	O	1.963653	0.220085	1.053622
O29	O	1.117394	-0.293431	0.421960
O30	O	1.367394	-0.043431	0.671960
O31	O	1.617394	0.206569	0.921960
O32	O	1.867394	0.456569	1.171960
O33	O	1.340931	-0.543577	0.445927
O34	O	1.590931	-0.293577	0.695927
O35	O	1.840931	-0.043577	0.945927
O36	O	2.090931	0.206423	1.195927
O37	O	1.213831	-0.303782	0.529783
O38	O	1.463831	-0.053782	0.779783
O39	O	1.713831	0.196218	1.029783
O40	O	1.963831	0.446218	1.279783
O41	O	1.117293	-0.422085	0.293290
O42	O	1.367293	-0.172085	0.543290
O43	O	1.617293	0.077915	0.793290
O44	O	1.867293	0.327915	1.043290
O45	O	0.975720	-0.421345	0.421221
O46	O	1.225720	-0.171345	0.671221
O47	O	1.475720	0.078655	0.921221
O48	O	1.725720	0.328655	1.171221
O49	O	1.092090	-0.542275	0.670788
O50	O	1.342090	-0.292275	0.920788
O51	O	1.592090	-0.042275	1.170788
O52	O	1.842090	0.207725	1.420788
O53	O	0.964812	-0.528614	0.528483
O54	O	1.214812	-0.278614	0.778483
O55	O	1.464812	-0.028614	1.028483
O56	O	1.714812	0.221386	1.278483
O57	O	1.199435	-0.445357	0.671349
O58	O	1.449435	-0.195357	0.921349
O59	O	1.699435	0.054643	1.171349
O60	O	1.949435	0.304643	1.421349
O61	O	1.199257	-0.671491	0.445188
O62	O	1.449257	-0.421491	0.695188
O63	O	1.699257	-0.171491	0.945188
O64	O	1.949257	0.078509	1.195188
O65	O	1.091989	-0.670930	0.542119
O66	O	1.341989	-0.420930	0.792119
O67	O	1.591989	-0.170930	1.042119
O68	O	1.841989	0.079070	1.292119
C69	C	0.940179	-0.473368	0.473243
C70	C	1.190179	-0.223368	0.723243
C71	C	1.440179	0.026632	0.973243
C72	C	1.690179	0.276632	1.223243
C73	C	0.848012	-0.468453	0.468336
C74	C	1.098012	-0.218453	0.718336
C75	C	1.348012	0.031547	0.968336
C76	C	1.598012	0.281547	1.218336
C77	C	1.144022	-0.701453	0.495116
C78	C	1.394022	-0.451453	0.745116
C79	C	1.644022	-0.201453	0.995116
C80	C	1.894022	0.048547	1.245116
C81	C	1.139136	-0.794098	0.499577
C82	C	1.389136	-0.544098	0.749577
C83	C	1.639136	-0.294098	0.999577
C84	C	1.889136	-0.044098	1.249577
C85	C	0.679260	-0.459459	0.459384
C86	C	0.929260	-0.209459	0.709384
C87	C	1.179260	0.040541	0.959384
C88	C	1.429260	0.290541	1.209384
C89	C	0.632809	-0.510422	0.510204
C90	C	0.882809	-0.260422	0.760204
C91	C	1.132809	-0.010422	1.010204
C92	C	1.382809	0.239578	1.260204
C93	C	0.538910	-0.505418	0.505223
C94	C	0.788910	-0.255418	0.755223
C95	C	1.038910	-0.005418	1.005223
C96	C	1.288910	0.244582	1.255223
C97	C	0.773168	-0.464462	0.464364
C98	C	1.023168	-0.214462	0.714364
C99	C	1.273168	0.035538	0.964364
C100	C	1.523168	0.285538	1.214364
C101	C	1.130219	-0.963721	0.507739
C102	C	1.380219	-0.713721	0.757739
C103	C	1.630219	-0.463721	1.007739
C104	C	1.880219	-0.213721	1.257739
C105	C	1.181165	-1.005263	0.461807
C106	C	1.431165	-0.755263	0.711807
C107	C	1.681165	-0.505263	0.961807
C108	C	1.931165	-0.255263	1.211807
C109	C	1.176203	-1.099648	0.466348
C110	C	1.426203	-0.849648	0.716348
C111	C	1.676203	-0.599648	0.966348
C112	C	1.926203	-0.349648	1.216348
C113	C	1.135179	-0.869328	0.503199
C114	C	1.385179	-0.619328	0.753199
C115	C	1.635179	-0.369328	1.003199
C116	C	1.885179	-0.119328	1.253199
C117	C	1.371898	-0.496494	0.496326
C118	C	1.621898	-0.246494	0.746326
C119	C	1.871898	0.003506	0.996326
C120	C	2.121898	0.253506	1.246326
C121	C	1.464063	-0.501431	0.501254
C122	C	1.714063	-0.251431	0.751254
C123	C	1.964063	-0.001431	1.001254
C124	C	2.214063	0.248569	1.251254
C125	C	1.144118	-0.495303	0.702156
C126	C	1.394118	-0.245303	0.952156
C127	C	1.644118	0.004697	1.202156
C128	C	1.894118	0.254697	1.452156
C129	C	1.139217	-0.499732	0.794796
C130	C	1.389217	-0.249732	1.044796
C131	C	1.639217	0.000268	1.294796
C132	C	1.889217	0.250268	1.544796
C133	C	1.167280	-0.267520	0.474388
C134	C	1.417280	-0.017520	0.724388
C135	C	1.667280	0.232480	0.974388
C136	C	1.917280	0.482480	1.224388
C137	C	1.172250	-0.174881	0.469967
C138	C	1.422250	0.075119	0.719967
C139	C	1.672250	0.325119	0.969967
C140	C	1.922250	0.575119	1.219967
C141	C	1.167124	-0.474497	0.268214
C142	C	1.417124	-0.224497	0.518214
C143	C	1.667124	0.025503	0.768214
C144	C	1.917124	0.275503	1.018214
C145	C	1.172198	-0.469841	0.175572
C146	C	1.422198	-0.219841	0.425572
C147	C	1.672198	0.030159	0.675572
C148	C	1.922198	0.280159	0.925572
C149	C	1.181174	-0.461788	1.005960
C150	C	1.431174	-0.211788	1.255960
C151	C	1.681174	0.038212	1.505960
C152	C	1.931174	0.288212	1.755960
C153	C	1.130244	-0.507783	0.964402
C154	C	1.380244	-0.257783	1.214402
C155	C	1.630244	-0.007783	1.464402
C156	C	1.880244	0.242217	1.714402
C157	C	1.135238	-0.503302	0.870024
C158	C	1.385238	-0.253302	1.120024
C159	C	1.635238	-0.003302	1.370024
C160	C	1.885238	0.246698	1.620024
C161	C	1.176181	-0.466268	1.100346
C162	C	1.426181	-0.216268	1.350346
C163	C	1.676181	0.033732	1.600346
C164	C	1.926181	0.283732	1.850346
H165	H	0.648510	-0.412073	0.412137
H166	H	0.898510	-0.162073	0.662137
H167	H	1.148510	0.087927	0.912137
H168	H	1.398510	0.337927	1.162137
H169	H	1.228507	-0.969944	0.419071
H170	H	1.478507	-0.719944	0.669071
H171	H	1.728507	-0.469944	0.919071
H172	H	1.978507	-0.219944	1.169071
C173	C	1.073698	-1.097020	0.558800
C174	C	1.323698	-0.847020	0.808800
C175	C	1.573698	-0.597020	1.058800
C176	C	1.823698	-0.347020	1.308800
C177	C	1.066303	-1.011394	0.565419
C178	C	1.316303	-0.761394	0.815419
C179	C	1.566303	-0.511394	1.065419
C180	C	1.816303	-0.261394	1.315419
H181	H	1.034234	-1.126456	0.594403
H182	H	1.284234	-0.876456	0.844403
H183	H	1.534234	-0.626456	1.094403
H184	H	1.784234	-0.376456	1.344403
H185	H	1.128016	-1.114741	0.574698
H186	H	1.378016	-0.864741	0.824698
H187	H	1.628016	-0.614741	1.074698
H188	H	1.878016	-0.364741	1.324698
H189	H	1.063845	-1.107934	0.502809
H190	H	1.313845	-0.857934	0.752809
H191	H	1.563845	-0.607934	1.002809
H192	H	1.813845	-0.357934	1.252809
H193	H	1.076162	-1.000478	0.621409
H194	H	1.326162	-0.750478	0.871409
H195	H	1.576162	-0.500478	1.121409
H196	H	1.826162	-0.250478	1.371409
H197	H	1.011972	-0.993667	0.549526
H198	H	1.261972	-0.743667	0.799526
H199	H	1.511972	-0.493667	1.049526
H200	H	1.761972	-0.243667	1.299526
C201	C	0.613154	-0.620561	0.620014
C202	C	0.863154	-0.370561	0.870014
C203	C	1.113154	-0.120561	1.120014
C204	C	1.363154	0.129439	1.370014
C205	C	0.674316	-0.574404	0.573988
C206	C	0.924316	-0.324404	0.823988
C207	C	1.174316	-0.074404	1.073988
C208	C	1.424316	0.175596	1.323988
H209	H	0.638783	-0.660056	0.659391
H210	H	0.888783	-0.410056	0.909391
H211	H	1.138783	-0.160056	1.159391
H212	H	1.388783	0.089944	1.409391
H213	H	0.579579	-0.648875	0.583410
H214	H	0.829579	-0.398875	0.833410
H215	H	1.079579	-0.148875	1.083410
H216	H	1.329579	0.101125	1.333410
H217	H	0.579628	-0.584054	0.648468
H218	H	0.829628	-0.334054	0.898468
H219	H	1.079628	-0.084054	1.148468
H220	H	1.329628	0.165946	1.398468
H221	H	0.707838	-0.610911	0.545530
H222	H	0.957838	-0.360911	0.795530
H223	H	1.207838	-0.110911	1.045530
H224	H	1.457838	0.139089	1.295530
H225	H	0.707905	-0.546089	0.610598
H226	H	0.957905	-0.296089	0.860598
H227	H	1.207905	-0.046089	1.110598
H228	H	1.457905	0.203911	1.360598
H229	H	1.082887	-0.550521	0.999702
H230	H	1.332887	-0.300521	1.249702
H231	H	1.582887	-0.050521	1.499702
H232	H	1.832887	0.199479	1.749702
C233	C	1.237740	-0.410781	0.872689
C234	C	1.487740	-0.160781	1.122689
C235	C	1.737740	0.089219	1.372689
C236	C	1.987740	0.339219	1.622689
C237	C	1.245105	-0.404098	0.958313
C238	C	1.495105	-0.154098	1.208313
C239	C	1.745105	0.095902	1.458313
C240	C	1.995105	0.345902	1.708313
H241	H	1.277214	-0.375172	0.843269
H242	H	1.527214	-0.125172	1.093269
H243	H	1.777214	0.124828	1.343269
H244	H	2.027214	0.374828	1.593269
H245	H	1.183428	-0.394928	0.854905
H246	H	1.433428	-0.144928	1.104905
H247	H	1.683428	0.105072	1.354905
H248	H	1.933428	0.355072	1.604905
H249	H	1.247599	-0.466776	0.861823
H250	H	1.497599	-0.216776	1.111823
H251	H	1.747599	0.033224	1.361823
H252	H	1.997599	0.283224	1.611823
H253	H	1.235240	-0.348104	0.969180
H254	H	1.485240	-0.098104	1.219180
H255	H	1.735240	0.151896	1.469180
H256	H	1.985240	0.401896	1.719180
H257	H	1.299429	-0.419947	0.976103
H258	H	1.549429	-0.169947	1.226103
H259	H	1.799429	0.080053	1.476103
H260	H	2.049429	0.330053	1.726103
