data_functionalizedCrystal
_audit_creation_method	'MofGen! by Chris Wilmer'
_symmetry_space_group_name_H-M	'P1'
_symmetry_Int_Tables_number	1
_symmetry_cell_setting	triclinic
loop_
_symmetry_equiv_pos_as_xyz
  x,y,z
_cell_length_a	20.919309
_cell_length_b	20.919467
_cell_length_c	20.919309
_cell_angle_alpha	59.204185
_cell_angle_beta	89.825423
_cell_angle_gamma	59.192966
loop_
_atom_site_label
_atom_site_type_symbol
_atom_site_fract_x
_atom_site_fract_y
_atom_site_fract_z
Zr1	Zr	0.675977	0.616106	-0.024706
O2	O	0.573554	0.757836	-0.127104
O3	O	0.702190	0.485637	0.001486
O4	O	0.704654	0.621737	-0.129592
O5	O	0.575045	0.613368	0.113284
O6	O	0.813965	0.613369	-0.125640
O7	O	0.571090	0.621736	0.003974
O8	O	0.809559	0.369911	0.108835
O9	O	0.579451	0.856826	-0.121191
O10	O	0.801212	0.528885	0.021887
O11	O	0.722585	0.528885	0.100515
O12	O	0.725485	0.689125	-0.053813
O13	O	0.646858	0.689125	0.024815
Zr14	Zr	0.856623	0.589414	0.155933
Zr15	Zr	0.850316	0.602760	-0.018404
Zr16	Zr	0.682284	0.602760	0.149632
Zr17	Zr	0.685383	0.773984	-0.015274
Zr18	Zr	0.847217	0.431537	0.146502
O19	O	0.830409	0.719884	0.129741
O20	O	0.821442	0.738860	-0.118144
O21	O	0.582521	0.738860	0.120781
O22	O	0.959046	0.447685	0.258332
O23	O	0.950078	0.466661	0.010447
O24	O	0.711158	0.466661	0.249372
O25	O	0.957555	0.592152	0.017943
O26	O	0.827946	0.583784	0.260819
O27	O	0.718634	0.592152	0.256868
O28	O	0.961509	0.583784	0.127254
O29	O	0.718028	0.846218	-0.116182
O30	O	0.814572	0.359303	0.247409
O31	O	0.953148	0.348695	0.252418
O32	O	0.948135	0.359303	0.113844
O33	O	0.584464	0.846218	0.017384
O34	O	0.723041	0.835610	0.022393
O35	O	0.807114	0.516395	0.185041
O36	O	0.885741	0.516396	0.106412
O37	O	0.810015	0.676635	0.030713
O38	O	0.731388	0.676635	0.109341
C39	C	0.754534	0.405280	0.053817
C40	C	0.750541	0.338257	0.049813
C41	C	0.807800	0.243011	0.107066
C42	C	0.804013	0.180057	0.103298
C43	C	0.742969	0.212352	0.042274
C44	C	0.685704	0.307608	-0.014982
C45	C	0.689489	0.370559	-0.011211
C46	C	0.728579	0.025471	0.027931
C47	C	0.724799	-0.037490	0.024162
C48	C	0.843108	-0.165036	0.142444
C49	C	0.846890	-0.102078	0.146207
C50	C	0.789623	-0.006828	0.088954
C51	C	0.739097	0.148006	0.038420
C52	C	0.793492	0.057516	0.092811
C53	C	0.548228	0.619454	0.057731
C54	C	0.474216	0.625120	0.055056
C55	C	0.478972	0.544140	0.093309
C56	C	0.409427	0.549469	0.090794
C57	C	0.335128	0.635779	0.050020
C58	C	0.330374	0.716764	0.011766
C59	C	0.399918	0.711434	0.014287
C60	C	0.123174	0.656056	0.040438
C61	C	0.053628	0.661381	0.037918
C62	C	0.132686	0.494085	0.116948
C63	C	0.202227	0.488763	0.119461
C64	C	0.197468	0.569748	0.081210
C65	C	0.264041	0.641228	0.047446
C66	C	0.268554	0.564297	0.083789
C67	C	0.984372	0.586067	0.073496
C68	C	1.058383	0.580401	0.076172
C69	C	0.758411	0.619454	-0.152455
C70	C	0.755733	0.625120	-0.226466
C71	C	0.778065	0.800241	0.077411
C72	C	0.782058	0.867264	0.081415
C73	C	0.794004	0.544140	-0.221724
C74	C	0.791482	0.549470	-0.291268
C75	C	0.750693	0.635779	-0.365553
C76	C	0.712417	0.716765	-0.370293
C77	C	0.714935	0.711435	-0.300750
C78	C	0.741108	0.656057	-0.577504
C79	C	0.738595	0.661380	-0.647048
C80	C	0.817659	0.494084	-0.568018
C81	C	0.820178	0.488762	-0.498478
C82	C	0.781898	0.569748	-0.503224
C83	C	0.748116	0.641228	-0.436638
C84	C	0.784471	0.564298	-0.432139
C85	C	0.774189	0.586066	0.283683
C86	C	0.776866	0.580401	0.357694
C87	C	0.972606	0.388586	0.061699
C88	C	1.042625	0.315898	0.060371
C89	C	0.762423	0.388586	0.271886
C90	C	0.761108	0.315897	0.341893
C91	C	0.980495	0.371892	0.279769
C92	C	1.053191	0.293538	0.352451
C93	C	0.552104	0.833628	-0.148541
C94	C	0.479408	0.911983	-0.221223
C95	C	0.559993	0.816934	0.069528
C96	C	0.489975	0.889623	0.070857
C97	C	0.770176	0.816935	-0.140658
C98	C	0.771492	0.889623	-0.210665
C99	C	1.031382	0.288282	0.015618
C100	C	1.097166	0.219994	0.014354
C101	C	1.174190	0.179317	0.057847
C102	C	1.185431	0.206939	0.102601
C103	C	1.119649	0.275231	0.103861
C104	C	0.804613	0.275242	0.418898
C105	C	0.803375	0.206951	0.484684
C106	C	0.758634	0.179313	0.473463
C107	C	0.715124	0.219976	0.396450
C108	C	0.716358	0.288270	0.330666
C109	C	1.128380	0.256741	0.345540
C110	C	1.196692	0.183128	0.413827
C111	C	1.189814	0.146308	0.489023
C112	C	1.114618	0.183111	0.495932
C113	C	1.046307	0.256728	0.427647
C114	C	0.404220	0.948787	-0.214312
C115	C	0.335909	1.022420	-0.282598
C116	C	0.342787	1.059243	-0.357794
C117	C	0.417983	1.022436	-0.364703
C118	C	0.486293	0.948808	-0.296418
C119	C	0.501217	0.917246	0.115603
C120	C	0.435434	0.985553	0.116849
C121	C	0.358410	1.026232	0.073353
C122	C	0.347169	0.998607	0.028602
C123	C	0.412951	0.930305	0.027352
C124	C	0.816240	0.917239	-0.199419
C125	C	0.817492	0.985528	-0.265191
C126	C	0.773991	1.026204	-0.342209
C127	C	0.729241	0.998583	-0.353453
C128	C	0.727994	0.930290	-0.287682
H129	H	0.889730	-0.242592	0.189057
H130	H	0.838810	0.173851	0.547385
H131	H	0.851665	0.884130	-0.136713
H132	H	0.775012	1.081812	-0.395757
Cl133	Cl	0.860867	0.309969	0.433025
Cl134	Cl	0.395552	0.902510	-0.119788
Cl135	Cl	0.295629	0.380255	0.170721
H136	H	0.563929	0.884129	0.151028
H137	H	0.757636	0.123703	0.527036
H138	H	0.423574	1.052427	-0.425936
H139	H	0.827222	0.473857	-0.161242
H140	H	0.444603	1.008032	0.153294
Cl141	Cl	0.687318	0.769892	-0.740437
H142	H	0.678697	0.197463	0.387326
H143	H	0.680933	0.321363	0.267967
H144	H	0.329051	0.494024	0.116991
H145	H	0.304853	1.081846	0.074378
Cl146	Cl	0.256903	1.151803	-0.443631
H147	H	0.547512	0.918843	-0.302055
Cl148	Cl	0.170633	0.749728	-0.003811
Cl149	Cl	1.137048	0.303020	0.251016
Cl150	Cl	0.648057	0.003117	-0.052564
Cl151	Cl	0.934559	0.339409	-0.039071
H152	H	0.284447	1.031738	-0.006811
Cl153	Cl	0.117181	0.757867	-0.007652
H154	H	0.709942	0.722001	-0.581378
H155	H	1.109030	0.153122	0.557166
H156	H	0.822647	0.483527	-0.287400
Cl157	Cl	1.291214	0.136872	0.405123
H158	H	1.245444	0.086365	0.544619
H159	H	0.691551	0.907814	-0.296850
H160	H	0.985088	0.286679	0.433284
H161	H	1.128814	0.297705	0.140308
Cl162	Cl	0.884549	0.202400	0.183783
Cl163	Cl	0.398803	0.895583	-0.028900
H164	H	0.853932	1.008009	-0.256020
Cl165	Cl	0.875995	0.060318	0.175281
Cl166	Cl	0.674549	1.049737	-0.450281
Cl167	Cl	0.923631	-0.142686	0.222930
Cl168	Cl	0.656584	0.145205	-0.044045
H169	H	0.635998	0.333899	-0.064666
Cl170	Cl	0.393938	0.813241	-0.033802
Cl171	Cl	0.617501	0.490301	-0.083187
Cl172	Cl	0.241387	1.068674	-0.273893
Cl173	Cl	1.083016	0.185281	-0.041909
H174	H	1.227747	0.123710	0.056815
H175	H	0.843191	0.031225	0.142500
Cl176	Cl	1.282268	0.155789	0.157279
Cl177	Cl	0.871422	0.380257	-0.405095
Cl178	Cl	0.572372	0.435631	0.144566
Cl179	Cl	0.662358	0.188597	-0.038294
Cl180	Cl	0.661131	0.825270	-0.463680
Cl181	Cl	0.138662	0.392282	0.165036
Cl182	Cl	-0.039780	0.769893	-0.013353
Cl183	Cl	0.415411	0.447660	0.138895
Cl184	Cl	0.666823	0.813243	-0.306713
H185	H	0.269874	0.787039	-0.021428
H186	H	0.817677	0.494026	-0.371654
Cl187	Cl	0.865774	0.392280	-0.562059
H188	H	0.714908	0.711502	-0.497128
