data_functionalizedCrystal
_audit_creation_method	'MofGen! by Chris Wilmer'
_symmetry_space_group_name_H-M	'P1'
_symmetry_Int_Tables_number	1
_symmetry_cell_setting	triclinic
loop_
_symmetry_equiv_pos_as_xyz
  x,y,z
_cell_length_a	12.827893
_cell_length_b	14.908520
_cell_length_c	12.827885
_cell_angle_alpha	93.263527
_cell_angle_beta	89.980538
_cell_angle_gamma	93.320575
loop_
_atom_site_label
_atom_site_type_symbol
_atom_site_fract_x
_atom_site_fract_y
_atom_site_fract_z
Zn1	Zn	1.573617	-0.359115	-0.614817
Zn2	Zn	1.563403	-0.509998	-0.450147
Zn3	Zn	1.398854	-0.359159	-0.440093
Zn4	Zn	1.388741	-0.509931	-0.624843
O5	O	1.481154	-0.434551	-0.532475
O6	O	1.718497	-0.379139	-0.592984
O7	O	1.541534	-0.490036	-0.302580
O8	O	1.430544	-0.232908	-0.454867
O9	O	1.710994	-0.489993	-0.472002
O10	O	1.558941	-0.232876	-0.583236
O11	O	1.420640	-0.379214	-0.295194
O12	O	1.251278	-0.379149	-0.464589
O13	O	1.413307	-0.489879	-0.769746
O14	O	1.243847	-0.489921	-0.600323
O15	O	1.549134	-0.379074	-0.762380
O16	O	1.531727	-0.636234	-0.481724
O17	O	1.403403	-0.636184	-0.610072
C18	C	1.209645	-0.434533	-0.532454
C19	C	1.093491	-0.434548	-0.532471
C20	C	1.038051	-0.489447	-0.599545
C21	C	0.918000	-0.489463	-0.599564
C22	C	1.465388	-0.668943	-0.548100
C23	C	1.458739	-0.769217	-0.554820
C24	C	1.580005	-0.957632	-0.433905
C25	C	1.573761	-1.051849	-0.440215
C26	C	1.440013	-1.051867	-0.573755
C27	C	1.446257	-0.957651	-0.567444
C28	C	1.516254	-0.910537	-0.497516
C29	C	1.522492	-0.816319	-0.491201
C30	C	1.388750	-0.816339	-0.624745
C31	C	1.382506	-0.910555	-0.631056
C32	C	1.753723	-0.434569	-0.532497
C33	C	1.869875	-0.434576	-0.532506
C34	C	1.481232	-0.434464	-0.805039
C35	C	1.481265	-0.434427	-0.921190
C36	C	1.497010	-0.199243	-0.516811
C37	C	1.503767	-0.098969	-0.510137
C38	C	1.421464	-0.379578	-0.969319
C39	C	1.421497	-0.379539	-1.089367
C40	C	1.481141	-0.434572	-0.260966
C41	C	1.481327	-0.434355	-0.144799
H42	H	1.579485	-0.777959	-0.434260
C43	C	0.853626	-0.552939	-0.677169
H44	H	0.899393	-0.587368	-0.719241
H45	H	0.813397	-0.518427	-0.720424
H46	H	0.808383	-0.592191	-0.639722
H47	H	1.532486	-0.481357	-0.968860
C48	C	1.037560	-0.371063	-0.454912
H49	H	1.087911	-0.336613	-0.412833
H50	H	0.992640	-0.405563	-0.411660
H51	H	0.997639	-0.331831	-0.492400
C52	C	1.352267	-0.316178	-0.904931
H53	H	1.361328	-0.324517	-0.832692
H54	H	1.281153	-0.329352	-0.923638
H55	H	1.371645	-0.255541	-0.918731
C56	C	1.093982	-0.552928	-0.677106
H57	H	1.043633	-0.587369	-0.719195
H58	H	1.133912	-0.592155	-0.639630
H59	H	1.138896	-0.518419	-0.720364
C60	C	1.656993	-0.905804	-0.356987
H61	H	1.694070	-0.947347	-0.320007
H62	H	1.619475	-0.869107	-0.308963
H63	H	1.704947	-0.868993	-0.394544
H64	H	0.917531	-0.387576	-0.475075
C65	C	1.305511	-0.962386	-0.707965
H66	H	1.310916	-1.025243	-0.702609
H67	H	1.321780	-0.946890	-0.777157
H68	H	1.236324	-0.947008	-0.691560
C69	C	1.352320	-0.316109	-1.145292
H70	H	1.361407	-0.324412	-1.218641
H71	H	1.371665	-0.255484	-1.123425
H72	H	1.281195	-0.329315	-1.128325
C73	C	1.643882	-1.103651	-0.370238
H74	H	1.686456	-1.062094	-0.327685
H75	H	1.686958	-1.140348	-0.412710
H76	H	1.601486	-1.140460	-0.327129
H77	H	1.532532	-0.481312	-1.103402
C78	C	1.318624	-0.764533	-0.694724
H79	H	1.332370	-0.701672	-0.680957
H80	H	1.247393	-0.780038	-0.680405
H81	H	1.332864	-0.779916	-0.765986
H82	H	1.383032	-1.090244	-0.630693
