data_functionalizedCrystal
_audit_creation_method	'MofGen! by Chris Wilmer'
_symmetry_space_group_name_H-M	'P1'
_symmetry_Int_Tables_number	1
_symmetry_cell_setting	triclinic
loop_
_symmetry_equiv_pos_as_xyz
  x,y,z
_cell_length_a	14.044220
_cell_length_b	14.044220
_cell_length_c	14.750779
_cell_angle_alpha	76.182253
_cell_angle_beta	103.820493
_cell_angle_gamma	93.188878
loop_
_atom_site_label
_atom_site_type_symbol
_atom_site_fract_x
_atom_site_fract_y
_atom_site_fract_z
O1	O	1.258218	0.249106	-0.079730
O2	O	1.758218	0.749106	0.420270
O3	O	0.981541	0.240806	-0.079754
O4	O	1.481541	0.740806	0.420246
O5	O	1.115729	0.106618	-0.079733
O6	O	1.615729	0.606618	0.420267
O7	O	1.124030	0.383294	-0.079751
O8	O	1.624030	0.883294	0.420249
O9	O	1.153662	0.068689	0.079924
O10	O	1.653662	0.568689	0.579924
O11	O	1.019474	0.202877	0.079902
O12	O	1.519474	0.702877	0.579902
O13	O	1.296152	0.211177	0.079926
O14	O	1.796152	0.711177	0.579926
Zn15	Zn	1.163836	0.201005	0.105263
Zn16	Zn	1.663836	0.701005	0.605263
Zn17	Zn	1.113857	0.250978	-0.105091
Zn18	Zn	1.613857	0.750978	0.394909
O19	O	1.161964	0.345365	0.079905
O20	O	1.661964	0.845365	0.579905
C21	C	0.964885	0.218206	0.000071
C22	C	1.464885	0.718206	0.500071
C23	C	0.858740	0.207364	0.000062
C24	C	1.358740	0.707364	0.500062
C25	C	1.131060	0.052032	0.000095
C26	C	1.631060	0.552032	0.500095
C27	C	1.120215	-0.054111	0.000096
C28	C	1.620215	0.445889	0.500096
C29	C	0.664407	0.187533	0.000083
C30	C	1.164407	0.687533	0.500083
C31	C	0.613277	0.264448	0.000082
C32	C	1.113277	0.764448	0.500082
C33	C	0.505144	0.253413	0.000093
C34	C	1.005144	0.753413	0.500093
C35	C	0.772551	0.198566	0.000071
C36	C	1.272551	0.698566	0.500071
C37	C	1.100385	-0.248445	0.000080
C38	C	1.600385	0.251555	0.500080
C39	C	1.177301	-0.299576	0.000084
C40	C	1.677301	0.200424	0.500084
C41	C	1.166267	-0.407710	0.000075
C42	C	1.666267	0.092290	0.500075
C43	C	1.111418	-0.140301	0.000089
C44	C	1.611418	0.359699	0.500089
C45	C	1.312807	0.233777	0.000099
C46	C	1.812807	0.733777	0.500099
C47	C	1.418950	0.244621	0.000102
C48	C	1.918950	0.744621	0.500102
C49	C	1.146632	0.399952	0.000075
C50	C	1.646632	0.899952	0.500075
C51	C	1.157475	0.506096	0.000068
C52	C	1.657475	1.006096	0.500068
N53	N	1.197952	0.166900	0.248824
N54	N	1.697952	0.666900	0.748824
N55	N	1.079747	0.285076	-0.248652
N56	N	1.579747	0.785076	0.251348
C57	C	0.984461	0.380284	0.600609
C58	C	1.484461	0.880284	1.100609
C59	C	1.008375	0.356393	0.701112
C60	C	1.508375	0.856393	1.201112
C61	C	1.127229	0.237619	0.701093
C62	C	1.627229	0.737619	1.201093
C63	C	1.103322	0.261498	0.600588
C64	C	1.603322	0.761498	1.100588
C65	C	1.031938	0.332832	0.550354
C66	C	1.531938	0.832832	1.050354
C67	C	1.150798	0.214045	0.550333
C68	C	1.650798	0.714045	1.050333
C69	C	1.126896	0.237926	0.449837
C70	C	1.626896	0.737926	0.949837
C71	C	1.055517	0.309259	0.399596
C72	C	1.555517	0.809259	0.899596
C73	C	1.008035	0.356712	0.449858
C74	C	1.508035	0.856712	0.949858
C75	C	1.222187	0.142716	0.600570
C76	C	1.722187	0.642716	1.100570
C77	C	1.269664	0.095264	0.550315
C78	C	1.769664	0.595264	1.050315
C79	C	1.245757	0.119139	0.449817
C80	C	1.745757	0.619139	0.949817
C81	C	1.174378	0.190472	0.399575
C82	C	1.674378	0.690472	0.899575
C83	C	1.293239	0.071685	0.399555
C84	C	1.793239	0.571685	0.899555
C85	C	1.269336	0.095566	0.299059
C86	C	1.769336	0.595566	0.799059
C87	C	1.150476	0.214352	0.299079
C88	C	1.650476	0.714352	0.799079
H89	H	0.650714	0.338583	0.000072
H90	H	1.150714	0.838583	0.500072
H91	H	1.092340	0.272433	0.258177
H92	H	1.592340	0.772433	0.758177
Cl93	Cl	1.252237	0.112703	0.726909
Cl94	Cl	1.752237	0.612703	1.226909
Cl95	Cl	0.985932	-0.306242	0.000065
Cl96	Cl	1.485932	0.193758	0.500065
Cl97	Cl	1.025472	0.339285	0.273256
Cl98	Cl	1.525472	0.839285	0.773256
Cl99	Cl	0.918282	0.446381	0.386702
Cl100	Cl	1.418282	0.946381	0.886702
Cl101	Cl	0.606609	0.073081	0.000092
Cl102	Cl	1.106609	0.573081	0.500092
Cl103	Cl	1.291763	-0.241782	0.000104
Cl104	Cl	1.791763	0.258218	0.500104
Cl105	Cl	0.894708	0.469953	0.537453
Cl106	Cl	1.394708	0.969953	1.037453
Cl107	Cl	0.948681	0.416061	0.764282
Cl108	Cl	1.448681	0.916061	1.264282
Cl109	Cl	1.216969	0.147947	0.764252
Cl110	Cl	1.716969	0.647947	1.264252
H111	H	1.327788	0.037185	0.591227
H112	H	1.827788	0.537185	1.091227
H113	H	1.351367	0.013611	0.440469
H114	H	1.851367	0.513611	0.940469
Cl115	Cl	1.329027	0.035912	0.235879
Cl116	Cl	1.829027	0.535912	0.735879
