data_functionalizedCrystal
_audit_creation_method	'MofGen! by Chris Wilmer'
_symmetry_space_group_name_H-M	'P1'
_symmetry_Int_Tables_number	1
_symmetry_cell_setting	triclinic
loop_
_symmetry_equiv_pos_as_xyz
  x,y,z
_cell_length_a	12.827892
_cell_length_b	19.805407
_cell_length_c	19.805399
_cell_angle_alpha	90.017803
_cell_angle_beta	90.022529
_cell_angle_gamma	90.012708
loop_
_atom_site_label
_atom_site_type_symbol
_atom_site_fract_x
_atom_site_fract_y
_atom_site_fract_z
Zn1	Zn	-0.416132	1.034787	0.382711
Zn2	Zn	-0.590887	1.034724	0.269533
Zn3	Zn	-0.416153	0.921602	0.269540
Zn4	Zn	-0.590824	0.921587	0.382683
O5	O	-0.503499	0.978175	0.326117
O6	O	-0.439332	1.129496	0.367707
O7	O	-0.567744	1.019698	0.174817
O8	O	-0.269914	0.936649	0.284566
O9	O	-0.567724	1.129449	0.284556
O10	O	-0.269899	1.019806	0.367713
O11	O	-0.439367	0.936588	0.174822
O12	O	-0.439305	0.826884	0.284539
O13	O	-0.567615	0.936624	0.477404
O14	O	-0.567635	0.826873	0.367666
O15	O	-0.439270	1.019792	0.477424
O16	O	-0.737115	1.019684	0.284528
O17	O	-0.737068	0.936563	0.367659
C18	C	-0.503466	0.802319	0.326100
C19	C	-0.503477	0.727087	0.326109
C20	C	-0.436742	0.691768	0.369472
C21	C	-0.436747	0.621080	0.369475
C22	C	-0.503494	0.585712	0.326118
C23	C	-0.570233	0.621036	0.282750
C24	C	-0.570221	0.691723	0.282744
C25	C	-0.570280	0.335963	0.282771
C26	C	-0.570288	0.265271	0.282781
C27	C	-0.436806	0.265319	0.369501
C28	C	-0.436794	0.336006	0.369496
C29	C	-0.503528	0.371324	0.326126
C30	C	-0.503520	0.447973	0.326123
C31	C	-0.503509	0.509065	0.326124
C32	C	-0.775009	0.978133	0.326105
C33	C	-0.891162	0.978177	0.326122
C34	C	-0.942935	1.019356	0.285032
C35	C	-1.062986	1.019403	0.285049
C36	C	-0.230929	0.978236	0.326144
C37	C	-0.114776	0.978262	0.326155
C38	C	-0.503433	0.978213	0.502660
C39	C	-0.503405	0.978229	0.577892
C40	C	-0.503533	1.154718	0.326134
C41	C	-0.503547	1.229950	0.326141
C42	C	-0.503489	0.978176	0.150261
C43	C	-0.503223	0.978291	0.075029
C44	C	-0.436572	1.021536	0.613248
C45	C	-0.436542	1.021543	0.683936
C46	C	-0.503350	0.978246	0.719267
C47	C	-0.570186	0.934935	0.683906
C48	C	-0.570210	0.934925	0.613219
C49	C	-0.570089	0.934973	0.968980
C50	C	-0.570061	0.934988	1.039672
C51	C	-0.436420	1.021591	1.039697
C52	C	-0.436445	1.021581	0.969010
C53	C	-0.503276	0.978268	0.933655
C54	C	-0.503307	0.978260	0.857006
C55	C	-0.503326	0.978257	0.795915
H56	H	-0.382446	0.364799	0.404804
O57	O	-0.372116	0.230935	0.411660
C58	C	-0.431708	0.190071	0.455324
H59	H	-0.510853	0.179463	0.431363
H60	H	-0.443294	0.217332	0.505467
C61	C	-0.277036	0.135965	0.497080
C62	C	-0.374239	0.122932	0.467648
H63	H	-0.241585	0.094552	0.504685
H64	H	-0.236886	0.163498	0.467665
H65	H	-0.286704	0.158685	0.538863
H66	H	-0.364570	0.100220	0.425862
H67	H	-0.414386	0.095393	0.497056
H68	H	-1.107509	1.054656	0.249869
O69	O	-0.944416	0.936250	0.368142
C70	C	-1.007440	0.974822	0.411877
H71	H	-1.023641	1.026147	0.388045
H72	H	-0.965381	0.982188	0.462062
C73	C	-1.091315	0.874639	0.453325
C74	C	-1.111221	0.937675	0.424052
H75	H	-1.155330	0.851724	0.460838
H76	H	-1.048852	0.848652	0.423862
H77	H	-1.056263	0.880786	0.495142
H78	H	-1.146260	0.931527	0.382232
H79	H	-1.153692	0.963660	0.453508
O80	O	-0.371474	1.063580	0.718201
C81	C	-0.267326	1.048799	0.700941
H82	H	-0.265183	1.022770	0.649615
H83	H	-0.232097	1.014018	0.740721
C84	C	-0.206676	1.146769	0.760722
C85	C	-0.204044	1.114804	0.697679
H86	H	-0.167639	1.187483	0.758713
H87	H	-0.276842	1.156726	0.772353
H88	H	-0.177320	1.117777	0.793866
H89	H	-0.233411	1.143792	0.664539
H90	H	-0.133881	1.104853	0.686043
H91	H	-0.624644	0.236476	0.247472
O92	O	-1.061723	0.936103	0.368057
C93	C	-1.088437	0.868647	0.353237
H94	H	-1.118563	0.865253	0.299184
H95	H	-1.151700	0.850922	0.389556
C96	C	-0.954463	0.827657	0.427396
C97	C	-0.991457	0.823488	0.361004
H98	H	-0.894644	0.799800	0.432189
H99	H	-0.936468	0.873103	0.437382
H100	H	-1.007192	0.812888	0.457654
H101	H	-0.938734	0.838265	0.330748
H102	H	-1.009442	0.778043	0.351012
O103	O	-0.371957	0.726048	0.411685
C104	C	-0.394952	0.708811	0.479121
H105	H	-0.435134	0.657484	0.480483
H106	H	-0.448719	0.748598	0.501857
C107	C	-0.243807	0.768608	0.518562
C108	C	-0.293152	0.705565	0.520234
H109	H	-0.181014	0.766609	0.543923
H110	H	-0.228316	0.780223	0.473129
H111	H	-0.288624	0.801758	0.537506
H112	H	-0.248341	0.672419	0.501282
H113	H	-0.308633	0.693944	0.565665
H114	H	-0.382172	1.056795	0.584486
O115	O	-0.635119	0.892813	0.718120
C116	C	-0.694131	0.854599	0.671754
H117	H	-0.651342	0.852256	0.621371
H118	H	-0.773504	0.879367	0.664229
C119	C	-0.761727	0.785441	0.761210
C120	C	-0.709169	0.782559	0.699331
H121	H	-0.771008	0.741004	0.778221
H122	H	-0.721973	0.811188	0.792449
H123	H	-0.827866	0.806085	0.754931
H124	H	-0.643027	0.761924	0.705612
H125	H	-0.748912	0.756807	0.668093
O126	O	-0.635204	0.370160	0.240623
C127	C	-0.694099	0.323783	0.202348
H128	H	-0.697782	0.273408	0.230076
H129	H	-0.655724	0.316243	0.150987
C130	C	-0.800770	0.413228	0.158405
C131	C	-0.805302	0.351358	0.192464
H132	H	-0.869364	0.430238	0.152305
H133	H	-0.761089	0.444474	0.184189
H134	H	-0.768787	0.406936	0.115608
H135	H	-0.837273	0.357652	0.235263
H136	H	-0.844991	0.320114	0.166686
O137	O	-0.372070	0.586699	0.411636
C138	C	-0.431667	0.545836	0.455298
H139	H	-0.510809	0.535225	0.431334
H140	H	-0.443258	0.573099	0.505440
C141	C	-0.276997	0.491734	0.497064
C142	C	-0.374197	0.478698	0.467629
H143	H	-0.241546	0.450321	0.504673
H144	H	-0.236845	0.519266	0.467650
H145	H	-0.286670	0.514455	0.538846
H146	H	-0.364522	0.455985	0.425844
H147	H	-0.414347	0.451160	0.497036
H148	H	-0.382046	1.056840	0.940246
O149	O	-0.635217	0.586755	0.240666
C150	C	-0.739397	0.604015	0.255354
H151	H	-0.741605	0.655350	0.281364
H152	H	-0.774672	0.564245	0.290119
C153	C	-0.799854	0.544199	0.157353
C154	C	-0.802566	0.607251	0.189295
H155	H	-0.838821	0.546192	0.116606
H156	H	-0.729666	0.532568	0.147459
H157	H	-0.829247	0.511063	0.186331
H158	H	-0.773161	0.640384	0.160320
H159	H	-0.872751	0.618888	0.199183
O160	O	-0.371522	1.063597	1.074146
C161	C	-0.385835	1.054335	1.144113
H162	H	-0.420044	1.002093	1.153757
H163	H	-0.441485	1.094472	1.164176
C164	C	-0.238070	1.124732	1.168568
C165	C	-0.280077	1.060566	1.180413
H166	H	-0.172835	1.128578	1.190960
H167	H	-0.228428	1.130974	1.121430
H168	H	-0.284455	1.158172	1.185287
H169	H	-0.233699	1.027127	1.163686
H170	H	-0.289708	1.054318	1.227549
H171	H	-0.624563	0.720479	0.247433
O172	O	-0.889747	1.061280	0.242975
C173	C	-0.826680	1.022709	0.199265
H174	H	-0.859710	0.969435	0.195021
H175	H	-0.743985	1.020284	0.220229
C176	C	-0.784310	1.121247	0.134145
C177	C	-0.824883	1.055817	0.128928
H178	H	-0.783197	1.141670	0.090758
H179	H	-0.826796	1.147234	0.163594
H180	H	-0.715401	1.119217	0.151617
H181	H	-0.893795	1.057848	0.111463
H182	H	-0.782408	1.029831	0.099473
O183	O	-0.634991	0.892860	1.073889
C184	C	-0.694001	0.854639	1.027528
H185	H	-0.651217	0.852296	0.977143
H186	H	-0.773379	0.879400	1.020005
C187	C	-0.761575	0.785481	1.116991
C188	C	-0.709022	0.782599	1.055110
H189	H	-0.770845	0.741044	1.134006
H190	H	-0.721822	0.811233	1.148227
H191	H	-0.827718	0.806118	1.110714
H192	H	-0.642876	0.761969	1.061389
H193	H	-0.748764	0.756841	1.023876
O194	O	-0.635186	0.892956	0.578794
C195	C	-0.702714	0.931476	0.537917
H196	H	-0.665868	0.982777	0.527346
H197	H	-0.780151	0.938897	0.565149
C198	C	-0.766898	0.831218	0.483742
C199	C	-0.721640	0.894225	0.470754
H200	H	-0.778578	0.808240	0.442314
H201	H	-0.721407	0.805266	0.511283
H202	H	-0.831425	0.837412	0.506437
H203	H	-0.657109	0.888030	0.448068
H204	H	-0.767121	0.920175	0.443208
H205	H	-0.624522	0.899715	0.940203
