data_functionalizedCrystal
_audit_creation_method	'MofGen! by Chris Wilmer'
_symmetry_space_group_name_H-M	'P1'
_symmetry_Int_Tables_number	1
_symmetry_cell_setting	triclinic
loop_
_symmetry_equiv_pos_as_xyz
  x,y,z
_cell_length_a	11.792241
_cell_length_b	16.109301
_cell_length_c	14.586319
_cell_angle_alpha	90.005214
_cell_angle_beta	89.999304
_cell_angle_gamma	83.827448
loop_
_atom_site_label
_atom_site_type_symbol
_atom_site_fract_x
_atom_site_fract_y
_atom_site_fract_z
O1	O	-1.505908	-0.113953	-0.076154
O2	O	-1.005908	0.386047	0.423846
O3	O	-1.175464	-0.125697	-0.076176
O4	O	-0.675464	0.374303	0.423824
O5	O	-1.349763	0.001163	-0.076155
O6	O	-0.849763	0.501163	0.423845
O7	O	-1.331608	-0.240814	-0.076175
O8	O	-0.831608	0.259186	0.423825
O9	O	-1.349751	0.001165	0.076325
O10	O	-0.849751	0.501165	0.576325
O11	O	-1.175452	-0.125695	0.076305
O12	O	-0.675452	0.374305	0.576305
O13	O	-1.505896	-0.113951	0.076326
O14	O	-1.005896	0.386049	0.576326
Cu15	Cu	-1.340673	-0.119823	0.090238
Cu16	Cu	-0.840673	0.380177	0.590238
Cu17	Cu	-1.340687	-0.119825	-0.090088
Cu18	Cu	-0.840687	0.380175	0.409912
O19	O	-1.331596	-0.240812	0.076306
O20	O	-0.831596	0.259188	0.576306
C21	C	-1.349022	0.032142	0.000085
C22	C	-0.849022	0.532142	0.500085
C23	C	-1.346817	0.124448	0.000087
C24	C	-0.846817	0.624448	0.500087
C25	C	-1.133173	-0.124959	0.000062
C26	C	-0.633173	0.375041	0.500062
C27	C	-1.007179	-0.122751	0.000054
C28	C	-0.507179	0.377249	0.500054
C29	C	-1.548186	-0.114690	0.000087
C30	C	-1.048186	0.385310	0.500087
C31	C	-1.674181	-0.116898	0.000088
C32	C	-1.174181	0.383102	0.500088
C33	C	-0.776502	-0.118690	0.000080
C34	C	-0.276502	0.381310	0.500080
C35	C	-0.904868	-0.120946	0.000066
C36	C	-0.404868	0.379054	0.500066
C37	C	-1.332338	-0.271791	0.000063
C38	C	-0.832338	0.228209	0.500063
C39	C	-1.334542	-0.364097	0.000055
C40	C	-0.834542	0.135903	0.500055
N41	N	-1.340671	-0.119821	0.217070
N42	N	-0.840671	0.380179	0.717070
C43	C	-1.445116	0.346258	0.000078
C44	C	-0.945116	0.846258	0.500078
C45	C	-1.443036	0.432988	0.000071
C46	C	-0.943036	0.932988	0.500071
C47	C	-1.236235	0.414087	0.000061
C48	C	-0.736235	0.914087	0.500061
C49	C	-1.238317	0.327358	0.000062
C50	C	-0.738317	0.827358	0.500062
C51	C	-1.342761	0.293446	0.000075
C52	C	-0.842761	0.793446	0.500075
C53	C	-1.338599	0.466905	0.000067
C54	C	-0.838599	0.966905	0.500067
C55	C	-1.336342	0.560942	0.000058
C56	C	-0.836342	1.060942	0.500058
C57	C	-1.345018	0.199404	0.000082
C58	C	-0.845018	0.699404	0.500082
N59	N	-1.340698	-0.119821	-0.216920
N60	N	-0.840698	0.380179	0.283080
C61	C	-1.417876	-0.063666	0.452086
C62	C	-0.917876	0.436334	0.952086
C63	C	-1.417879	-0.063664	0.548067
C64	C	-0.917879	0.436336	1.048067
C65	C	-1.263484	-0.175978	0.548058
C66	C	-0.763484	0.324022	1.048058
C67	C	-1.263476	-0.175976	0.452078
C68	C	-0.763476	0.324024	0.952078
C69	C	-1.340679	-0.119821	0.404095
C70	C	-0.840679	0.380179	0.904095
C71	C	-1.340690	-0.119821	0.596055
C72	C	-0.840690	0.380179	1.096055
C73	C	-1.340693	-0.119820	0.700123
C74	C	-0.840693	0.380180	1.200123
C75	C	-1.340675	-0.119821	0.300021
C76	C	-0.840675	0.380179	0.800021
H77	H	-1.530161	0.318650	0.000088
H78	H	-1.030161	0.818650	0.500088
H79	H	-1.200629	-0.221700	0.587136
H80	H	-0.700629	0.278300	1.087136
H81	H	-1.151201	0.441709	0.000052
H82	H	-0.651201	0.941709	0.500052
O83	O	-1.492716	-0.009035	0.594726
O84	O	-0.992716	0.490965	1.094726
C85	C	-1.431964	0.042546	0.650268
C86	C	-0.931964	0.542546	1.150268
H87	H	-1.342460	0.044391	0.621347
H88	H	-0.842460	0.544391	1.121347
H89	H	-1.478298	0.108401	0.651361
H90	H	-0.978298	0.608401	1.151361
H91	H	-1.426010	0.016556	0.723007
H92	H	-0.926010	0.516556	1.223007
O93	O	-1.492682	-0.009046	0.405393
O94	O	-0.992682	0.490954	0.905393
C95	C	-1.431874	0.042556	0.349931
C96	C	-0.931874	0.542556	0.849931
H97	H	-1.343076	0.009846	0.335530
H98	H	-0.843076	0.509846	0.835530
H99	H	-1.479244	0.055533	0.282447
H100	H	-0.979244	0.555533	0.782447
H101	H	-1.424132	0.104014	0.386967
H102	H	-0.924132	0.604014	0.886967
O103	O	-1.542569	0.484170	0.000117
O104	O	-1.042569	0.984170	0.500117
C105	C	-1.635193	0.435636	0.000105
C106	C	-1.135193	0.935636	0.500105
H107	H	-1.606360	0.371046	0.028974
H108	H	-1.106360	0.871046	0.528974
H109	H	-1.706906	0.467308	0.044377
H110	H	-1.206906	0.967308	0.544377
H111	H	-1.667213	0.429308	-0.073046
H112	H	-1.167213	0.929308	0.426954
O113	O	-1.138777	0.276170	0.000100
O114	O	-0.638777	0.776170	0.500100
C115	C	-1.046146	0.324697	0.000073
C116	C	-0.546146	0.824697	0.500073
H117	H	-1.074967	0.389294	0.028944
H118	H	-0.574967	0.889294	0.528944
H119	H	-0.974431	0.293029	0.044337
H120	H	-0.474431	0.793029	0.544337
H121	H	-1.014136	0.331009	-0.073082
H122	H	-0.514136	0.831009	0.426918
H123	H	-1.200607	-0.221704	0.413002
H124	H	-0.700607	0.278296	0.913002
