data_functionalizedCrystal
_audit_creation_method	'MofGen! by Chris Wilmer'
_symmetry_space_group_name_H-M	'P1'
_symmetry_Int_Tables_number	1
_symmetry_cell_setting	triclinic
loop_
_symmetry_equiv_pos_as_xyz
  x,y,z
_cell_length_a	6.817900
_cell_length_b	11.102269
_cell_length_c	12.908943
_cell_angle_alpha	94.413588
_cell_angle_beta	100.860631
_cell_angle_gamma	108.605385
loop_
_atom_site_label
_atom_site_type_symbol
_atom_site_fract_x
_atom_site_fract_y
_atom_site_fract_z
V1	V	-4.022089	-0.174253	-0.328685
O2	O	-3.982824	0.010006	-0.322425
O3	O	-3.999477	-0.347085	-0.326440
O4	O	-3.959861	-0.170857	-0.472034
O5	O	-4.022714	-0.167442	-0.175823
V6	V	-4.504167	-0.152298	-0.310401
O7	O	-4.286517	-0.222413	-0.368792
O8	O	-4.689936	-0.104138	-0.270294
O9	O	-4.303572	0.020533	-0.312646
O10	O	-4.660828	-0.336558	-0.316661
O11	O	-4.620938	-0.159109	-0.463263
O12	O	-4.343188	-0.155695	-0.167052
C13	C	-3.851199	-0.389240	-0.321256
C14	C	-3.913906	-0.530527	-0.320376
C15	C	-4.036172	-0.747347	-0.415669
C16	C	-3.977270	-0.614594	-0.416501
C17	C	-3.909465	-0.579220	-0.223414
C18	C	-3.968381	-0.711972	-0.222584
C19	C	-4.054837	-0.458563	-0.537000
C20	C	-4.059250	-0.409874	-0.633959
C21	C	-3.990933	-0.464430	-0.715545
C22	C	-3.918155	-0.567673	-0.700175
C23	C	-3.913720	-0.616355	-0.603214
C24	C	-3.982086	-0.561803	-0.521633
C25	C	-3.890801	-0.868006	-0.102091
C26	C	-3.886352	-0.916689	-0.005128
C27	C	-3.954655	-0.862134	0.076468
C28	C	-4.027397	-0.758884	0.061109
C29	C	-4.031846	-0.710200	-0.035853
C30	C	-3.963551	-0.764765	-0.117450
C31	C	-3.800664	-0.164442	-0.506974
C32	C	-3.831240	-0.162808	-0.624163
C33	C	-4.253829	-0.172351	-0.855110
C34	C	-4.282568	-0.170816	-0.965220
C35	C	-3.917455	-0.158196	-0.954494
C36	C	-3.888716	-0.159730	-0.844384
C37	C	-4.056912	-0.166810	-0.794696
C38	C	-4.028175	-0.168353	-0.684586
C39	C	-3.663060	-0.155724	-0.673860
C40	C	-3.691799	-0.154190	-0.783970
C41	C	-4.115193	0.062682	-0.317827
C42	C	-4.031724	0.203968	-0.318714
C43	C	-4.165728	-0.162114	-0.132106
C44	C	-4.114390	-0.163741	-0.014916
H45	H	-3.862500	-0.612075	-0.766610
H46	H	-3.554864	-0.148421	-0.824440
H47	H	-4.091143	-0.626152	-0.048366
C48	C	-3.996193	-0.411695	-0.820876
C49	C	-4.205202	-0.423060	-0.867640
C50	C	-4.210149	-0.374511	-0.964677
H51	H	-3.908794	-0.323781	-0.808546
H52	H	-3.945198	-0.458988	-0.867321
H53	H	-4.256170	-0.375766	-0.821206
H54	H	-4.292640	-0.510961	-0.879997
H55	H	-4.159154	-0.421804	-1.011121
H56	H	-4.122741	-0.286599	-0.952336
H57	H	-4.351961	-0.382226	-0.996423
H58	H	-3.780523	-0.152424	-0.994968
H59	H	-3.502715	-0.151217	-0.624660
H60	H	-3.827086	-1.000750	0.007378
C61	C	-3.840507	-0.487739	-0.119157
C62	C	-3.789802	-0.361057	-0.140630
C63	C	-3.726235	-0.276752	-0.044612
H64	H	-3.952905	-0.506181	-0.082637
H65	H	-3.719346	-0.498031	-0.075980
H66	H	-3.910949	-0.350771	-0.183789
H67	H	-3.677389	-0.342576	-0.177135
H68	H	-3.605074	-0.287044	-0.001436
H69	H	-3.838643	-0.295205	-0.008100
H70	H	-3.691806	-0.190789	-0.059169
C71	C	-4.105367	-0.838569	-0.520081
C72	C	-4.283852	-0.823054	-0.583474
C73	C	-4.347679	-0.907075	-0.679662
H74	H	-3.993051	-0.820040	-0.556655
H75	H	-4.139948	-0.924629	-0.505751
H76	H	-4.249263	-0.737013	-0.597806
H77	H	-4.396209	-0.841593	-0.546933
H78	H	-4.382259	-0.993135	-0.665331
H79	H	-4.235349	-0.888538	-0.716226
H80	H	-4.468797	-0.896567	-0.722681
C81	C	-4.138710	-0.297961	-0.650671
C82	C	-4.349313	-0.332659	-0.639867
C83	C	-4.422577	-0.229604	-0.655271
H84	H	-4.052604	-0.225712	-0.599022
H85	H	-4.131688	-0.276781	-0.720113
H86	H	-4.356319	-0.353822	-0.570434
H87	H	-4.435470	-0.404892	-0.691512
H88	H	-4.415555	-0.208423	-0.724714
H89	H	-4.336456	-0.157361	-0.603621
H90	H	-4.565482	-0.253136	-0.647953
C91	C	-3.835113	-0.728615	-0.586660
C92	C	-3.962757	-0.834808	-0.662923
C93	C	-3.890440	-0.938257	-0.647703
H94	H	-3.692276	-0.705500	-0.594002
H95	H	-3.842349	-0.749885	-0.517259
H96	H	-3.955501	-0.813540	-0.732307
H97	H	-4.105598	-0.857961	-0.655595
H98	H	-3.897675	-0.959527	-0.578302
H99	H	-3.747602	-0.915130	-0.655045
H100	H	-3.977046	-1.010325	-0.699438
H101	H	-4.110499	-0.414144	-0.470577
H102	H	-4.082986	-0.714449	0.127557
H103	H	-4.390788	-0.178128	-0.814656
C104	C	-4.496198	-0.176573	-1.030831
C105	C	-4.470453	-0.066269	-1.080126
C106	C	-4.667215	-0.071519	-1.140563
H107	H	-4.551055	-0.250568	-1.083721
H108	H	-4.592274	-0.180942	-0.985489
H109	H	-4.374411	-0.061913	-1.125466
H110	H	-4.415629	0.007742	-1.027262
H111	H	-4.763290	-0.075888	-1.095220
H112	H	-4.722056	-0.145518	-1.193446
H113	H	-4.649777	0.003325	-1.174009
H114	H	-3.950993	-0.901770	0.155426
H115	H	-3.835183	-0.912439	-0.168530
H116	H	-4.165133	-0.174123	-0.644133
