data_functionalizedCrystal
_audit_creation_method	'MofGen! by Chris Wilmer'
_symmetry_space_group_name_H-M	'P1'
_symmetry_Int_Tables_number	1
_symmetry_cell_setting	triclinic
loop_
_symmetry_equiv_pos_as_xyz
  x,y,z
_cell_length_a	12.759401
_cell_length_b	13.031981
_cell_length_c	13.034296
_cell_angle_alpha	103.356786
_cell_angle_beta	97.201562
_cell_angle_gamma	97.193318
loop_
_atom_site_label
_atom_site_type_symbol
_atom_site_fract_x
_atom_site_fract_y
_atom_site_fract_z
Zn1	Zn	1.631871	-0.346552	0.546805
Zn2	Zn	2.131871	0.153448	1.046805
Zn3	Zn	1.580627	-0.546802	0.346600
Zn4	Zn	2.080627	-0.046802	0.846600
Zn5	Zn	1.430596	-0.369173	0.369198
Zn6	Zn	1.930596	0.130827	0.869198
Zn7	Zn	1.430598	-0.524167	0.524182
Zn8	Zn	1.930598	-0.024167	1.024182
O9	O	1.518423	-0.446674	0.446696
O10	O	2.018423	0.053326	0.946696
O11	O	1.772095	-0.373122	0.520258
O12	O	2.272095	0.126878	1.020258
O13	O	1.539278	-0.542179	0.200949
O14	O	2.039278	-0.042179	0.700949
O15	O	1.478740	-0.217502	0.411683
O16	O	1.978740	0.282498	0.911683
O17	O	1.734446	-0.520244	0.373168
O18	O	2.234446	-0.020244	0.873168
O19	O	1.626616	-0.200883	0.542171
O20	O	2.126616	0.299117	1.042171
O21	O	1.429051	-0.411676	0.217552
O22	O	1.929051	0.088324	0.717552
O23	O	1.283575	-0.389728	0.389746
O24	O	1.783575	0.110272	0.889746
O25	O	1.478744	-0.481666	0.675831
O26	O	1.978744	0.018334	1.175831
O27	O	1.283576	-0.503601	0.503612
O28	O	1.783576	-0.003601	1.003612
O29	O	1.626618	-0.351174	0.692452
O30	O	2.126618	0.148826	1.192452
O31	O	1.539280	-0.692470	0.351231
O32	O	2.039280	-0.192470	0.851231
O33	O	1.429055	-0.675840	0.481700
O34	O	1.929055	-0.175840	0.981700
C35	C	1.245454	-0.446663	0.446677
C36	C	1.745454	0.053337	0.946677
C37	C	1.128677	-0.446681	0.446690
C38	C	1.628677	0.053319	0.946690
C39	C	1.478639	-0.722700	0.411581
C40	C	1.978639	-0.222700	0.911581
C41	C	1.461721	-0.840781	0.396595
C42	C	1.961721	-0.340781	0.896595
C43	C	1.073813	-0.506092	0.505860
C44	C	1.573813	-0.006092	1.005860
C45	C	0.964092	-0.506093	0.505881
C46	C	1.464092	-0.006093	1.005881
C47	C	0.964107	-0.387272	0.387553
C48	C	1.464107	0.112728	0.887553
C49	C	1.073828	-0.387265	0.387539
C50	C	1.573828	0.112735	0.887539
C51	C	1.527312	-0.885111	0.454539
C52	C	2.027312	-0.385111	0.954539
C53	C	1.509827	-1.007153	0.439051
C54	C	2.009827	-0.507153	0.939051
C55	C	1.792457	-0.446685	0.446716
C56	C	2.292457	0.053315	0.946716
C57	C	1.909234	-0.446689	0.446725
C58	C	2.409234	0.053311	0.946725
C59	C	1.558398	-0.411372	0.723762
C60	C	2.058398	0.088628	1.223762
C61	C	1.575432	-0.396328	0.841831
C62	C	2.075432	0.103672	1.341831
C63	C	1.558394	-0.169566	0.481971
C64	C	2.058394	0.330434	0.981971
C65	C	1.575427	-0.051479	0.497003
C66	C	2.075427	0.448521	0.997003
C67	C	1.478675	-0.481762	0.170718
C68	C	1.978675	0.018238	0.670718
C69	C	1.461887	-0.496506	0.052687
C70	C	1.961887	0.003494	0.552687
C71	C	1.509862	-0.454186	0.886246
C72	C	2.009862	0.045814	1.386246
C73	C	1.527467	-0.438639	1.008276
C74	C	2.027467	0.061361	1.508276
H75	H	1.118469	-0.554470	0.554028
H76	H	1.618469	-0.054470	1.054028
F77	F	1.419451	-0.533980	0.817868
F78	F	1.919451	-0.033980	1.317868
H79	H	0.919427	-0.554470	0.554065
H80	H	1.419427	-0.054470	1.054065
F81	F	0.905722	-0.324042	0.324601
F82	F	1.405722	0.175958	0.824601
H83	H	1.596645	-0.377595	1.060590
H84	H	2.096645	0.122405	1.560590
H85	H	1.118500	-0.338879	0.339356
H86	H	1.618500	0.161121	0.839356
F87	F	1.617623	-0.816625	0.534380
F88	F	2.117623	-0.316625	1.034380
F89	F	1.371475	-0.576310	0.984315
F90	F	1.871475	-0.076310	1.484315
F91	F	1.665850	-0.316542	0.910208
F92	F	2.165850	0.183458	1.410208
H93	H	1.440719	-1.059549	0.377977
H94	H	1.940719	-0.559549	0.877977
F95	F	1.665752	-0.983000	0.576841
F96	F	2.165752	-0.483000	1.076841
H97	H	1.392618	-0.893180	0.335525
H98	H	1.892618	-0.393180	0.835525
