data_functionalizedCrystal
_audit_creation_method	'MofGen! by Chris Wilmer'
_symmetry_space_group_name_H-M	'P1'
_symmetry_Int_Tables_number	1
_symmetry_cell_setting	triclinic
loop_
_symmetry_equiv_pos_as_xyz
  x,y,z
_cell_length_a	17.077404
_cell_length_b	18.215405
_cell_length_c	18.215398
_cell_angle_alpha	90.028025
_cell_angle_beta	90.019224
_cell_angle_gamma	90.025110
loop_
_atom_site_label
_atom_site_type_symbol
_atom_site_fract_x
_atom_site_fract_y
_atom_site_fract_z
Zn1	Zn	1.200042	-0.293006	0.416098
Zn2	Zn	1.199945	-0.416072	0.293026
Zn3	Zn	1.068774	-0.293024	0.293046
Zn4	Zn	1.068737	-0.416036	0.416051
O5	O	1.134374	-0.354534	0.354555
O6	O	1.309876	-0.309338	0.399783
O7	O	1.182520	-0.399772	0.190044
O8	O	1.086243	-0.190037	0.309397
O9	O	1.309804	-0.399754	0.309363
O10	O	1.182685	-0.190024	0.399802
O11	O	1.086149	-0.309369	0.190059
O12	O	0.958922	-0.309334	0.309352
O13	O	1.086180	-0.399693	0.519042
O14	O	0.958895	-0.399710	0.399723
O15	O	1.182649	-0.309303	0.519076
O16	O	1.182484	-0.519051	0.309318
O17	O	1.086086	-0.519025	0.399704
C18	C	0.930426	-0.354521	0.354535
C19	C	0.843177	-0.354533	0.354544
C20	C	0.802193	-0.401663	0.401525
C21	C	0.720212	-0.401664	0.401537
C22	C	0.679217	-0.354539	0.354563
C23	C	0.720207	-0.307404	0.307580
C24	C	0.802186	-0.307399	0.307572
C25	C	0.549337	-0.307419	0.307598
C26	C	0.467352	-0.307424	0.307604
C27	C	0.467363	-0.401684	0.401562
C28	C	0.549342	-0.401679	0.401554
C29	C	0.590326	-0.354545	0.354570
C30	C	1.134291	-0.545741	0.354520
C31	C	1.134328	-0.627539	0.354529
C32	C	1.184640	-0.815723	0.307552
C33	C	1.184675	-0.892581	0.307570
C34	C	1.084209	-0.892594	0.401612
C35	C	1.084178	-0.815736	0.401597
C36	C	1.134393	-0.777303	0.354563
C37	C	1.134458	-0.931019	0.354595
C38	C	1.134496	-1.014353	0.354615
C39	C	1.134356	-0.693964	0.354544
C40	C	1.339118	-0.354548	0.354576
C41	C	1.426368	-0.354554	0.354585
C42	C	1.134421	-0.354492	0.546508
C43	C	1.134441	-0.354474	0.628307
C44	C	1.134479	-0.162581	0.354607
C45	C	1.134523	-0.080782	0.354629
C46	C	1.134373	-0.354523	0.163349
C47	C	1.134505	-0.354334	0.081551
C48	C	1.184657	-0.401456	0.893362
C49	C	1.184645	-0.401481	0.816503
C50	C	1.084284	-0.307350	0.816501
C51	C	1.084292	-0.307329	0.893359
C52	C	1.134483	-0.354381	0.931787
C53	C	1.134463	-0.354427	0.778071
C54	C	1.134449	-0.354455	0.694737
C55	C	1.134496	-0.354354	1.015126
H56	H	0.686847	-0.440043	0.439793
H57	H	1.043261	-0.784453	0.439882
H58	H	1.043421	-0.269041	0.785204
H59	H	1.043325	-0.923896	0.439904
C60	C	0.341704	-0.443540	0.443309
C61	C	0.422317	-0.453490	0.453214
H62	H	0.313894	-0.475520	0.475197
H63	H	0.328243	-0.454245	0.393850
H64	H	0.328305	-0.394106	0.454174
H65	H	0.435717	-0.502923	0.442343
H66	H	0.435784	-0.442790	0.502684
H67	H	0.835554	-0.269018	0.269319
C68	C	0.978710	-0.297087	0.979762
C69	C	1.029131	-0.255583	0.935598
H70	H	0.944651	-0.265144	1.005834
H71	H	1.008599	-0.325098	1.013646
H72	H	0.948674	-0.329158	0.949755
H73	H	1.059171	-0.223515	0.965606
H74	H	0.999238	-0.227559	0.901710
H75	H	1.225529	-0.784432	0.269255
H76	H	1.225593	-0.923859	0.269290
H77	H	1.225524	-0.439769	0.924648
C78	C	0.541123	-0.494848	0.494432
C79	C	0.594406	-0.453479	0.453188
H80	H	0.568946	-0.526823	0.526312
H81	H	0.509125	-0.522959	0.462321
H82	H	0.509172	-0.462818	0.522644
H83	H	0.626354	-0.485510	0.424972
H84	H	0.626418	-0.425367	0.485303
C85	C	0.341677	-0.265546	0.265942
C86	C	0.422287	-0.255593	0.256002
H87	H	0.313858	-0.233542	0.234089
H88	H	0.328291	-0.254874	0.315414
H89	H	0.328214	-0.314972	0.255049
H90	H	0.435751	-0.206169	0.266900
H91	H	0.435679	-0.266260	0.206518
H92	H	0.582703	-0.269030	0.269344
H93	H	1.225501	-0.439814	0.785221
H94	H	0.835565	-0.440040	0.439774
H95	H	0.686822	-0.269031	0.269336
