data_functionalizedCrystal
_audit_creation_method	'MofGen! by Chris Wilmer'
_symmetry_space_group_name_H-M	'P1'
_symmetry_Int_Tables_number	1
_symmetry_cell_setting	triclinic
loop_
_symmetry_equiv_pos_as_xyz
  x,y,z
_cell_length_a	10.654562
_cell_length_b	15.944545
_cell_length_c	9.130313
_cell_angle_alpha	89.996649
_cell_angle_beta	89.996930
_cell_angle_gamma	83.993138
loop_
_atom_site_label
_atom_site_type_symbol
_atom_site_fract_x
_atom_site_fract_y
_atom_site_fract_z
O1	O	1.666294	0.118024	-0.121903
O2	O	1.300672	0.129253	-0.121886
O3	O	1.493471	0.001421	-0.121878
O4	O	1.473494	0.245855	-0.121912
O5	O	1.493469	0.001425	0.121721
O6	O	1.300669	0.129256	0.121713
O7	O	1.666291	0.118027	0.121696
Cu8	Cu	1.483480	0.123642	0.143947
Cu9	Cu	1.483483	0.123638	-0.144137
O10	O	1.473492	0.245859	0.121687
C11	C	1.253883	0.128428	-0.000084
C12	C	1.114473	0.125954	-0.000077
C13	C	1.048956	0.124802	0.132698
C14	C	0.917964	0.122485	0.132674
C15	C	0.918017	0.122475	-0.132911
C16	C	1.049008	0.124786	-0.132885
C17	C	1.114421	0.125970	0.265507
C18	C	1.048904	0.124820	0.398292
C19	C	0.917912	0.122502	0.398268
C20	C	0.852437	0.121336	0.265458
C21	C	1.492642	-0.029876	-0.000077
C22	C	1.490160	-0.123137	-0.000073
C23	C	1.363237	-0.394508	-0.000096
C24	C	1.424430	-0.343568	-0.120207
C25	C	1.481308	-0.458832	-0.000114
C26	C	1.424459	-0.343592	0.119963
C27	C	1.485651	-0.293893	-0.000091
C28	C	1.542470	-0.409121	-0.120323
C29	C	1.542482	-0.409148	0.119954
C30	C	1.603761	-0.358240	-0.000186
C31	C	1.478803	-0.553849	-0.000128
C32	C	1.488165	-0.198879	-0.000087
C33	C	1.713080	0.118852	-0.000110
C34	C	1.852490	0.121326	-0.000126
C35	C	1.474321	0.277156	-0.000117
C36	C	1.476803	0.370417	-0.000131
N37	N	1.483487	0.123644	0.346569
N38	N	1.483486	0.123629	-0.346760
C39	C	1.568881	0.067060	0.423225
C40	C	1.568877	0.067050	0.576562
C41	C	1.398083	0.180216	0.576574
C42	C	1.398082	0.180221	0.423240
C43	C	1.654286	0.010483	0.346555
C44	C	1.739687	-0.046105	0.423210
C45	C	1.739684	-0.046115	0.576547
C46	C	1.654280	0.010463	0.653228
H47	H	1.102352	0.125728	-0.241002
Cl48	Cl	1.847032	-0.117259	0.672913
Cl49	Cl	1.206249	-0.419593	-0.000265
Cl50	Cl	1.619401	-0.453144	-0.277276
Cl51	Cl	1.347443	-0.299395	0.276733
H52	H	1.374567	-0.314925	-0.221747
Cl53	Cl	1.760872	-0.333402	-0.000295
Cl54	Cl	0.835552	0.121050	0.565194
H55	H	1.809214	-0.092174	0.360769
H56	H	1.654276	0.010444	0.778085
H57	H	1.592301	-0.437806	0.221498
H58	H	1.328551	0.226281	0.639018
Cl59	Cl	1.654299	0.010496	0.153789
Cl60	Cl	1.290722	0.251356	0.326870
Cl61	Cl	1.131215	0.126277	0.565242
Cl62	Cl	1.279096	0.128890	0.265546
H63	H	0.745775	0.119447	0.265449
Cl64	Cl	0.835705	0.121003	-0.299859
