data_functionalizedCrystal
_audit_creation_method	'MofGen! by Chris Wilmer'
_symmetry_space_group_name_H-M	'P1'
_symmetry_Int_Tables_number	1
_symmetry_cell_setting	triclinic
loop_
_symmetry_equiv_pos_as_xyz
  x,y,z
_cell_length_a	16.992694
_cell_length_b	16.992695
_cell_length_c	15.455313
_cell_angle_alpha	92.847427
_cell_angle_beta	87.142206
_cell_angle_gamma	90.668223
loop_
_atom_site_label
_atom_site_type_symbol
_atom_site_fract_x
_atom_site_fract_y
_atom_site_fract_z
O1	O	1.054080	0.163694	-0.072023
O2	O	1.554080	0.663694	0.427977
O3	O	0.825681	0.161862	-0.072048
O4	O	1.325681	0.661862	0.427952
O5	O	0.938965	0.048579	-0.072029
O6	O	1.438965	0.548579	0.427971
O7	O	0.940797	0.276978	-0.072042
O8	O	1.440797	0.776978	0.427958
O9	O	0.932485	0.055028	0.072232
O10	O	1.432485	0.555028	0.572232
O11	O	0.819202	0.168312	0.072213
O12	O	1.319202	0.668312	0.572213
O13	O	1.047601	0.170144	0.072238
O14	O	1.547601	0.670144	0.572238
Cu15	Cu	0.932809	0.169817	0.085398
Cu16	Cu	1.432809	0.669817	0.585398
Cu17	Cu	0.940473	0.162189	-0.085207
Cu18	Cu	1.440473	0.662189	0.414793
O19	O	0.934317	0.283428	0.072219
O20	O	1.434317	0.783428	0.572219
C21	C	0.793081	0.162731	0.000079
C22	C	1.293081	0.662731	0.500079
C23	C	0.705597	0.155702	0.000070
C24	C	1.205597	0.655702	0.500070
C25	C	0.659607	0.223520	0.000066
C26	C	1.159607	0.723520	0.500066
C27	C	0.577405	0.216911	0.000079
C28	C	1.077405	0.716911	0.500079
C29	C	0.541197	0.142484	0.000088
C30	C	1.041197	0.642484	0.500088
C31	C	0.587193	0.074661	0.000094
C32	C	1.087193	0.574661	0.500094
C33	C	0.669393	0.081271	0.000088
C34	C	1.169393	0.581271	0.500088
C35	C	0.295881	0.115091	0.000113
C36	C	0.795881	0.615091	0.500113
C37	C	0.213676	0.108486	0.000116
C38	C	0.713676	0.608486	0.500116
C39	C	0.203893	0.250737	0.000103
C40	C	0.703893	0.750737	0.500103
C41	C	0.286095	0.257340	0.000091
C42	C	0.786095	0.757340	0.500091
C43	C	0.332084	0.189517	0.000102
C44	C	0.832084	0.689517	0.500102
N45	N	0.457174	0.135727	0.000098
N46	N	0.957174	0.635727	0.500098
N47	N	0.416105	0.196275	0.000098
N48	N	0.916105	0.696275	0.500098
C49	C	0.933369	0.022443	0.000102
C50	C	1.433369	0.522443	0.500102
C51	C	0.926341	-0.065041	0.000101
C52	C	1.426341	0.434959	0.500101
C53	C	0.994158	-0.111032	0.000109
C54	C	1.494158	0.388968	0.500109
C55	C	0.987550	-0.193233	0.000100
C56	C	1.487550	0.306767	0.500100
C57	C	0.913123	-0.229442	0.000089
C58	C	1.413123	0.270558	0.500089
C59	C	0.845300	-0.183445	0.000078
C60	C	1.345300	0.316555	0.500078
C61	C	0.851910	-0.101246	0.000081
C62	C	1.351910	0.398754	0.500081
C63	C	0.885729	-0.474757	0.000074
C64	C	1.385729	0.025243	0.500074
C65	C	0.879124	-0.556962	0.000074
C66	C	1.379124	-0.056962	0.500074
C67	C	1.021375	-0.566744	0.000094
C68	C	1.521375	-0.066744	0.500094
C69	C	1.027977	-0.484543	0.000102
C70	C	1.527977	0.015457	0.500102
C71	C	0.960155	-0.438554	0.000087
C72	C	1.460155	0.061446	0.500087
N73	N	0.906366	-0.313464	0.000082
N74	N	1.406366	0.186536	0.500082
N75	N	0.966913	-0.354533	0.000087
N76	N	1.466913	0.145467	0.500087
C77	C	1.080201	0.169275	0.000109
C78	C	1.580201	0.669275	0.500109
C79	C	1.167685	0.176304	0.000113
C80	C	1.667685	0.676304	0.500113
C81	C	0.939913	0.309563	0.000087
C82	C	1.439913	0.809563	0.500087
C83	C	0.946942	0.397047	0.000082
C84	C	1.446942	0.897047	0.500082
N85	N	0.927425	0.175181	0.205392
N86	N	1.427425	0.675181	0.705392
N87	N	0.945863	0.156819	-0.205202
N88	N	1.445863	0.656819	0.294798
C89	C	0.975571	0.127074	0.250795
C90	C	1.475571	0.627074	0.750795
C91	C	0.971507	0.131139	0.341602
C92	C	1.471507	0.631139	0.841602
C93	C	0.919301	0.183315	0.387005
C94	C	1.419301	0.683315	0.887005
C95	C	0.871149	0.231424	0.341596
C96	C	1.371149	0.731424	0.841596
C97	C	0.875210	0.227355	0.250791
C98	C	1.375210	0.727355	0.750791
C99	C	0.901772	0.200858	0.658584
C100	C	1.401772	0.700858	1.158584
C101	C	0.897717	0.204926	0.749395
C102	C	1.397717	0.704926	1.249395
C103	C	0.998074	0.104639	0.749395
C104	C	1.498074	0.604639	1.249395
C105	C	1.002133	0.100578	0.658588
C106	C	1.502133	0.600578	1.158588
C107	C	0.953979	0.148684	0.613187
C108	C	1.453979	0.648684	1.113187
N109	N	0.915147	0.187473	0.479825
N110	N	1.415147	0.687473	0.979825
N111	N	0.958129	0.144522	0.520369
N112	N	1.458129	0.644522	1.020369
H113	H	0.315570	0.317946	0.000074
H114	H	0.815570	0.817946	0.500074
C115	C	0.840287	0.262319	0.799342
C116	C	1.340287	0.762319	1.299342
H117	H	0.844775	0.257858	0.859924
H118	H	1.344775	0.757858	1.359924
H119	H	0.787880	0.249780	0.784476
H120	H	1.287880	0.749780	1.284476
H121	H	0.852793	0.314734	0.784448
H122	H	1.352793	0.814734	1.284448
C123	C	0.526819	0.291511	0.000072
C124	C	1.026819	0.791511	0.500072
H125	H	0.560157	0.336783	0.000055
H126	H	1.060157	0.836783	0.500055
H127	H	0.492298	0.294144	0.050382
H128	H	0.992298	0.794144	0.550382
H129	H	0.496802	0.289637	-0.050238
H130	H	0.996802	0.789637	0.449762
H131	H	0.689081	0.284126	0.000058
H132	H	1.189081	0.784126	0.500058
H133	H	0.184198	0.047876	0.000123
H134	H	0.684198	0.547876	0.500123
C135	C	1.024475	0.078229	0.391541
C136	C	1.524475	0.578229	0.891541
H137	H	1.056158	0.046582	0.351495
H138	H	1.556158	0.546582	0.851495
H139	H	0.992531	0.045252	0.426977
H140	H	1.492531	0.545252	0.926977
H141	H	1.057432	0.110218	0.426951
H142	H	1.557432	0.610218	0.926951
C143	C	1.062147	-0.243823	0.000101
C144	C	1.562147	0.256177	0.500101
H145	H	1.047555	-0.297965	0.000083
H146	H	1.547555	0.202035	0.500083
H147	H	1.090199	-0.230123	0.050410
H148	H	1.590199	0.269877	0.550410
H149	H	1.094708	-0.234601	-0.050211
H150	H	1.594708	0.265399	0.449789
H151	H	0.166440	0.305954	0.000096
H152	H	0.666440	0.805954	0.500096
C153	C	1.059555	0.043180	0.608650
C154	C	1.559555	0.543180	1.108650
H155	H	1.087643	0.015105	0.648697
H156	H	1.587643	0.515105	1.148697
H157	H	1.095680	0.071980	0.573215
H158	H	1.595680	0.571980	1.073215
H159	H	1.030763	0.007031	0.573240
H160	H	1.530763	0.507031	1.073240
C161	C	1.033004	0.069688	0.200855
C162	C	1.533004	0.569688	0.700855
H163	H	1.028535	0.074159	0.140271
H164	H	1.528535	0.574159	0.640271
H165	H	1.020506	0.017275	0.215745
H166	H	1.520506	0.517275	0.715745
H167	H	1.085410	0.082237	0.215733
H168	H	1.585410	0.582237	0.715733
H169	H	1.037278	0.065473	0.786369
H170	H	1.537278	0.565473	1.286369
H171	H	0.862564	0.240030	0.621625
H172	H	1.362564	0.740030	1.121625
C173	C	0.763430	-0.223269	0.000059
C174	C	1.263430	0.276731	0.500059
H175	H	0.723988	-0.184104	0.000044
H176	H	1.223988	0.315896	0.500044
H177	H	0.755630	-0.252888	0.050363
H178	H	1.255630	0.247112	0.550363
H179	H	0.760161	-0.257376	-0.050258
H180	H	1.260161	0.242624	0.449742
C181	C	0.346459	0.040488	0.000118
C182	C	0.846459	0.540488	0.500118
H183	H	0.313120	-0.004783	0.000116
H184	H	0.813120	0.495217	0.500116
H185	H	0.376475	0.042357	0.050424
H186	H	0.876475	0.542357	0.550424
H187	H	0.380982	0.037858	-0.050196
H188	H	0.880982	0.537858	0.449804
H189	H	1.054764	-0.081557	0.000124
H190	H	1.554764	0.418443	0.500124
H191	H	0.557705	0.014061	0.000114
H192	H	1.057705	0.514061	0.500114
C193	C	0.813725	0.288818	0.391537
C194	C	1.313725	0.788818	0.891537
H195	H	0.818207	0.284359	0.452121
H196	H	1.318207	0.784359	0.952121
H197	H	0.761318	0.276282	0.376667
H198	H	1.261318	0.776282	0.876667
H199	H	0.826236	0.341231	0.376642
H200	H	1.326236	0.841231	0.876642
H201	H	0.706838	0.026046	0.000090
H202	H	1.206838	0.526046	0.500090
C203	C	1.109848	-0.444719	0.000103
C204	C	1.609848	0.055281	0.500103
H205	H	1.149293	-0.483884	0.000098
H206	H	1.649293	0.016116	0.500098
H207	H	1.113127	-0.410608	0.050409
H208	H	1.613127	0.089392	0.550409
H209	H	1.117637	-0.415106	-0.050211
H210	H	1.617637	0.084894	0.449789
H211	H	0.836004	0.266527	0.213825
H212	H	1.336004	0.766527	0.713825
H213	H	1.076591	-0.604197	0.000106
H214	H	1.576591	-0.104197	0.500106
H215	H	0.818513	-0.586440	0.000079
H216	H	1.318513	-0.086440	0.500079
H217	H	0.830503	-0.437322	0.000061
H218	H	1.330503	0.062678	0.500061
H219	H	0.796685	-0.063801	0.000073
H220	H	1.296685	0.436199	0.500073
