data_functionalizedCrystal
_audit_creation_method	'MofGen! by Chris Wilmer'
_symmetry_space_group_name_H-M	'P1'
_symmetry_Int_Tables_number	1
_symmetry_cell_setting	triclinic
loop_
_symmetry_equiv_pos_as_xyz
  x,y,z
_cell_length_a	10.654550
_cell_length_b	15.944493
_cell_length_c	9.130313
_cell_angle_alpha	90.001356
_cell_angle_beta	89.999724
_cell_angle_gamma	83.979987
loop_
_atom_site_label
_atom_site_type_symbol
_atom_site_fract_x
_atom_site_fract_y
_atom_site_fract_z
O1	O	1.666276	0.117980	-0.121669
O2	O	2.166276	0.617980	0.378331
O3	O	1.300649	0.129220	-0.121694
O4	O	1.800649	0.629220	0.378306
O5	O	1.493485	0.001380	-0.121693
O6	O	1.993485	0.501380	0.378307
O7	O	1.473440	0.245820	-0.121670
O8	O	1.973440	0.745820	0.378330
O9	O	1.493472	0.001376	0.121906
O10	O	1.993472	0.501376	0.621906
O11	O	1.300636	0.129216	0.121905
O12	O	1.800636	0.629216	0.621905
O13	O	1.666263	0.117976	0.121930
O14	O	2.166263	0.617976	0.621930
Cu15	Cu	1.483448	0.123596	0.144160
Cu16	Cu	1.983448	0.623596	0.644160
Cu17	Cu	1.483464	0.123600	-0.143924
Cu18	Cu	1.983464	0.623600	0.356076
O19	O	1.473427	0.245816	0.121929
O20	O	1.973427	0.745816	0.621929
C21	C	1.253855	0.128393	0.000102
C22	C	1.753855	0.628393	0.500102
C23	C	1.114445	0.125923	0.000091
C24	C	1.614445	0.625923	0.500091
C25	C	1.492659	-0.029922	0.000100
C26	C	1.992659	0.470078	0.500100
C27	C	1.490203	-0.123185	0.000081
C28	C	1.990203	0.376815	0.500081
C29	C	1.033962	0.201194	0.000103
C30	C	1.533962	0.701194	0.500103
C31	C	0.902972	0.198869	0.000128
C32	C	1.402972	0.698869	0.500128
C33	C	0.932960	0.045996	0.000125
C34	C	1.432960	0.545996	0.500125
C35	C	1.063948	0.048322	0.000110
C36	C	1.563948	0.548322	0.500110
C37	C	1.603711	-0.358288	0.000117
C38	C	2.103711	0.141712	0.500117
C39	C	1.542507	-0.409208	-0.119993
C40	C	2.042507	0.090792	0.380007
C41	C	1.485652	-0.293932	0.000099
C42	C	1.985652	0.206068	0.500099
C43	C	1.542466	-0.409188	0.120176
C44	C	2.042466	0.090812	0.620176
C45	C	1.481264	-0.458867	0.000122
C46	C	1.981264	0.041133	0.500122
C47	C	1.424480	-0.343624	-0.120111
C48	C	1.924480	0.156376	0.379889
C49	C	1.424456	-0.343601	0.120167
C50	C	1.924456	0.156399	0.620167
C51	C	1.363166	-0.394489	0.000027
C52	C	1.863166	0.105511	0.500027
C53	C	1.488183	-0.198918	0.000084
C54	C	1.988183	0.301082	0.500084
C55	C	1.478724	-0.553879	0.000127
C56	C	1.978724	-0.053879	0.500127
C57	C	1.713057	0.118803	0.000131
C58	C	2.213057	0.618803	0.500131
C59	C	1.852467	0.121272	0.000132
C60	C	2.352467	0.621272	0.500132
C61	C	1.474253	0.277117	0.000133
C62	C	1.974253	0.777117	0.500133
C63	C	1.476709	0.370380	0.000142
C64	C	1.976709	0.870380	0.500142
N65	N	1.483446	0.123592	0.346783
N66	N	1.983446	0.623592	0.846783
N67	N	1.483475	0.123597	-0.346547
N68	N	1.983475	0.623597	0.153453
C69	C	1.568863	0.067008	0.423435
C70	C	2.068863	0.567008	0.923435
C71	C	1.568875	0.067008	0.576772
C72	C	2.068875	0.567008	1.076772
C73	C	1.398050	0.180183	0.576790
C74	C	1.898050	0.680183	1.076790
C75	C	1.398033	0.180178	0.423456
C76	C	1.898033	0.680178	0.923456
H77	H	0.837447	0.260161	0.000140
H78	H	1.337447	0.760161	0.500140
O79	O	1.738404	-0.336789	-0.000042
O80	O	2.238404	0.163211	0.499958
H81	H	1.803603	-0.395840	-0.001149
H82	H	2.303603	0.104160	0.498851
O83	O	1.358471	-0.305606	0.254665
O84	O	1.858471	0.194394	0.754665
H85	H	1.324532	-0.356506	0.322267
H86	H	1.824532	0.143494	0.822267
O87	O	0.878497	-0.037700	0.000141
O88	O	1.378497	0.462300	0.500141
H89	H	0.819538	-0.042423	-0.099145
H90	H	1.319538	0.457577	0.400855
H91	H	1.592343	-0.437832	0.221713
H92	H	2.092343	0.062168	0.721713
H93	H	1.374656	-0.315091	-0.221763
H94	H	1.874656	0.184909	0.278237
O95	O	1.660968	0.005970	0.340729
O96	O	2.160968	0.505970	0.840729
H97	H	1.720355	-0.033382	0.419798
H98	H	2.220355	0.466618	0.919798
O99	O	1.608561	-0.447182	-0.254477
O100	O	2.108561	0.052818	0.245523
H101	H	1.644127	-0.396398	-0.320949
H102	H	2.144127	0.103602	0.179051
O103	O	1.228351	-0.415740	-0.000029
O104	O	1.728351	0.084260	0.499971
H105	H	1.179651	-0.389233	-0.099816
H106	H	1.679651	0.110767	0.400184
H107	H	1.638427	0.020932	0.639178
H108	H	2.138427	0.520932	1.139178
O109	O	1.088431	0.284888	0.000095
O110	O	1.588431	0.784888	0.500095
H111	H	1.147408	0.289598	0.099371
H112	H	1.647408	0.789598	0.599371
H113	H	1.328510	0.226256	0.639234
H114	H	1.828510	0.726256	1.139234
O115	O	1.150770	-0.032865	0.000101
O116	O	1.650770	0.467135	0.500101
H117	H	1.093653	-0.087217	0.000096
H118	H	1.593653	0.412783	0.500096
O119	O	1.305906	0.241213	0.340764
O120	O	1.805906	0.741213	0.840764
H121	H	1.246529	0.280571	0.419837
H122	H	1.746529	0.780571	0.919837
