data_functionalizedCrystal
_audit_creation_method	'MofGen! by Chris Wilmer'
_symmetry_space_group_name_H-M	'P1'
_symmetry_Int_Tables_number	1
_symmetry_cell_setting	triclinic
loop_
_symmetry_equiv_pos_as_xyz
  x,y,z
_cell_length_a	12.837943
_cell_length_b	23.532407
_cell_length_c	22.010155
_cell_angle_alpha	90.002880
_cell_angle_beta	90.013946
_cell_angle_gamma	88.838809
loop_
_atom_site_label
_atom_site_type_symbol
_atom_site_fract_x
_atom_site_fract_y
_atom_site_fract_z
O1	O	1.373946	0.147962	0.050527
O2	O	1.072216	0.140653	0.050530
O3	O	1.232180	0.061898	0.050518
O4	O	1.213983	0.226717	0.050540
O5	O	1.232134	0.061906	-0.050533
O6	O	1.072170	0.140660	-0.050520
O7	O	1.373900	0.147970	-0.050523
Cu8	Cu	1.223031	0.144316	-0.059748
Cu9	Cu	1.223086	0.144307	0.059755
O10	O	1.213936	0.226725	-0.050510
C11	C	1.033598	0.138187	0.000005
C12	C	0.918597	0.130823	0.000006
C13	C	1.231693	0.040659	-0.000009
C14	C	1.230300	-0.022638	-0.000014
C15	C	0.676727	0.219356	0.000009
C16	C	0.568672	0.212439	0.000009
C17	C	0.594431	0.110073	0.000002
C18	C	0.702485	0.116990	0.000002
C19	C	0.743629	0.171633	0.000006
C20	C	0.851686	0.178550	0.000011
C21	C	0.877442	0.076184	-0.000001
C22	C	0.769388	0.069267	-0.000001
C23	C	1.316225	-0.416811	0.000019
C24	C	1.314931	-0.476285	0.000023
O25	O	1.394584	-0.508460	0.000045
N26	N	1.219832	-0.504368	0.000024
C27	C	1.126022	-0.472973	0.000026
O28	O	1.045014	-0.502321	0.000027
C29	C	1.127317	-0.413500	0.000026
C30	C	1.222422	-0.385420	0.000019
C31	C	1.411322	-0.388731	0.000013
C32	C	1.412616	-0.329261	0.000007
C33	C	1.318813	-0.297870	0.000007
C34	C	1.223716	-0.325950	0.000013
C35	C	1.033508	-0.382106	0.000032
C36	C	1.034812	-0.322628	0.000032
C37	C	1.129916	-0.294549	0.000025
C38	C	1.131206	-0.235089	0.000008
N39	N	1.226305	-0.207006	0.000007
C40	C	1.320108	-0.238397	0.000007
C41	C	1.123309	-0.597871	0.000027
C42	C	1.122012	-0.657344	0.000023
C43	C	1.310922	-0.660652	0.000022
C44	C	1.312217	-0.601178	0.000022
C45	C	1.218407	-0.569789	0.000027
C46	C	1.322818	-0.113504	-0.000006
C47	C	1.324103	-0.054029	-0.000014
C48	C	1.135195	-0.050726	-0.000009
C49	C	1.133909	-0.110196	-0.000004
C50	C	1.227729	-0.141584	-0.000000
O51	O	1.051595	-0.202877	-0.000012
O52	O	1.401102	-0.209042	0.000013
C53	C	1.412518	0.150435	0.000003
C54	C	1.527520	0.157800	0.000007
C55	C	1.214423	0.247964	0.000018
C56	C	1.215816	0.311261	0.000026
N57	N	1.223000	0.144322	-0.143801
C58	C	1.160586	0.106350	-0.436410
C59	C	1.160577	0.106352	-0.372802
O60	O	1.107471	0.074065	-0.339909
N61	N	1.223041	0.144307	-0.340985
C62	C	1.285526	0.182259	-0.372778
O63	O	1.338656	0.214542	-0.339874
C64	C	1.285540	0.182253	-0.436385
C65	C	1.223064	0.144300	-0.468199
C66	C	1.098116	0.068398	-0.468224
C67	C	1.098124	0.068397	-0.531827
C68	C	1.160602	0.106347	-0.563616
C69	C	1.223072	0.144298	-0.531802
C70	C	1.348030	0.220202	-0.468177
C71	C	1.348039	0.220193	-0.531788
C72	C	1.285563	0.182239	-0.563602
C73	C	1.285558	0.182247	-0.627194
N74	N	1.223094	0.144292	-0.659012
C75	C	1.160616	0.106342	-0.627223
C76	C	1.285493	0.182266	-0.239201
C77	C	1.285474	0.182275	-0.175595
C78	C	1.160526	0.106367	-0.175624
C79	C	1.160540	0.106361	-0.239230
C80	C	1.223029	0.144311	-0.271018
C81	C	1.160636	0.106343	-0.760794
C82	C	1.160647	0.106346	-0.824403
C83	C	1.285598	0.182252	-0.824369
C84	C	1.285584	0.182250	-0.760766
C85	C	1.223101	0.144291	-0.728980
O86	O	1.338640	0.214516	-0.660129
O87	O	1.107505	0.074059	-0.660135
N88	N	1.223125	0.144296	0.143808
H89	H	0.885183	0.223043	0.000013
C90	C	0.549159	0.049972	-0.000009
H91	H	0.475224	0.052690	-0.000008
H92	H	0.572147	0.030078	-0.035250
H93	H	0.572165	0.030072	0.035232
H94	H	1.399215	-0.139054	-0.000000
C95	C	1.029356	0.026666	-0.433263
H96	H	1.038279	0.032099	-0.390823
H97	H	0.958376	0.033387	-0.443717
H98	H	1.048995	-0.011236	-0.443678
H99	H	1.109667	0.075456	-0.265129
C100	C	1.517229	-0.298378	0.000003
H101	H	1.504580	-0.258461	-0.000003
H102	H	1.555840	-0.308806	0.035241
H103	H	1.555803	-0.308812	-0.035240
C104	C	1.414107	-0.695187	0.000026
H105	H	1.470937	-0.669949	0.000020
H106	H	1.417537	-0.718453	0.035266
H107	H	1.417508	-0.718458	-0.035216
H108	H	0.931927	0.037324	0.000001
C109	C	1.091781	0.064632	-0.140648
H110	H	1.100726	0.070073	-0.098210
H111	H	1.020794	0.071346	-0.151090
H112	H	1.111424	0.026730	-0.151058
C113	C	0.724123	0.009164	-0.000003
H114	H	0.650187	0.011879	0.000001
H115	H	0.747109	-0.010735	-0.035240
H116	H	0.747137	-0.010729	0.035241
H117	H	1.398928	0.251096	-0.557666
C118	C	1.354325	0.223990	-0.859345
H119	H	1.345387	0.218545	-0.901782
H120	H	1.334684	0.261888	-0.848930
H121	H	1.425320	0.217276	-0.848908
C122	C	1.514515	-0.423252	0.000008
H123	H	1.571327	-0.398003	-0.000001
H124	H	1.517971	-0.446523	0.035243
H125	H	1.517920	-0.446519	-0.035238
C126	C	1.354309	0.223996	-0.725769
H127	H	1.391524	0.246595	-0.753814
H128	H	1.311594	0.247876	-0.700956
H129	H	1.402233	0.203265	-0.700955
C130	C	1.354191	0.224027	-0.140607
H131	H	1.391404	0.246623	-0.168654
H132	H	1.311469	0.247907	-0.115800
H133	H	1.402117	0.203303	-0.115788
H134	H	1.056467	-0.133060	-0.000016
C135	C	1.428722	-0.023144	-0.000018
H136	H	1.484400	-0.050361	-0.000010
H137	H	1.433144	-0.000016	-0.035258
H138	H	1.433170	-0.000010	0.035224
C139	C	1.354219	0.224021	-0.274162
H140	H	1.391406	0.246628	-0.246099
H141	H	1.402152	0.203304	-0.298966
H142	H	1.311489	0.247900	-0.298981
C143	C	0.721989	0.279460	0.000020
H144	H	0.666667	0.306892	0.000020
H145	H	0.763622	0.284281	0.035258
H146	H	0.763588	0.284289	-0.035223
H147	H	1.044569	-0.680201	0.000018
C148	C	0.495078	0.264933	0.000015
H149	H	0.424831	0.252989	0.000010
H150	H	0.507511	0.287097	0.035254
H151	H	0.507480	0.287095	-0.035227
C152	C	1.020111	-0.563347	0.000022
H153	H	0.963296	-0.588594	0.000016
H154	H	1.016693	-0.540074	0.035258
H155	H	1.016674	-0.540083	-0.035223
C156	C	1.416830	-0.570296	0.000020
H157	H	1.472505	-0.597514	0.000023
H158	H	1.421253	-0.547164	-0.035217
H159	H	1.421282	-0.547166	0.035265
H160	H	0.956064	-0.404958	0.000041
H161	H	1.398907	0.251107	-0.442285
C162	C	1.091922	0.064595	-0.859395
H163	H	1.054720	0.041991	-0.831349
H164	H	1.044002	0.085315	-0.884216
H165	H	1.134656	0.040713	-0.884200
H166	H	0.958418	-0.297074	0.000037
H167	H	1.047253	0.037489	-0.557725
C168	C	1.032017	-0.016191	-0.000005
H169	H	0.975187	-0.041429	-0.000004
H170	H	1.028625	0.007081	0.035233
H171	H	1.028577	0.007076	-0.035248
H172	H	1.109756	0.075433	-0.734922
