data_functionalizedCrystal
_audit_creation_method	'MofGen! by Chris Wilmer'
_symmetry_space_group_name_H-M	'P1'
_symmetry_Int_Tables_number	1
_symmetry_cell_setting	triclinic
loop_
_symmetry_equiv_pos_as_xyz
  x,y,z
_cell_length_a	10.654550
_cell_length_b	10.489741
_cell_length_c	9.730223
_cell_angle_alpha	89.998920
_cell_angle_beta	89.996251
_cell_angle_gamma	84.512038
loop_
_atom_site_label
_atom_site_type_symbol
_atom_site_fract_x
_atom_site_fract_y
_atom_site_fract_z
O1	O	1.667918	0.179156	-0.114402
O2	O	1.302447	0.196226	-0.114380
O3	O	1.493499	0.002089	-0.114383
O4	O	1.476867	0.373293	-0.114399
O5	O	1.493497	0.002094	0.114196
O6	O	1.302445	0.196231	0.114200
O7	O	1.667916	0.179161	0.114178
Zn8	Zn	1.485180	0.187697	0.150481
Zn9	Zn	1.485183	0.187690	-0.150683
O10	O	1.476864	0.373298	0.114181
C11	C	1.255648	0.194975	-0.000087
C12	C	1.116203	0.191225	-0.000079
C13	C	1.036771	0.305530	-0.000103
C14	C	0.905748	0.301999	-0.000127
C15	C	0.933603	0.069849	-0.000107
C16	C	1.064623	0.073381	-0.000073
C17	C	1.088351	0.423374	-0.000109
C18	C	1.008917	0.537688	-0.000135
C19	C	0.877895	0.534157	-0.000159
C20	C	0.826306	0.416312	-0.000156
C21	C	1.492241	-0.045439	-0.000094
C22	C	1.488483	-0.187067	-0.000096
C23	C	1.366923	-0.255148	-0.000099
C24	C	1.424346	-0.347296	0.112599
C25	C	1.424377	-0.347276	-0.112763
C26	C	1.545956	-0.277350	0.112695
C27	C	1.545970	-0.277319	-0.112768
C28	C	1.603481	-0.369440	-0.000043
C29	C	1.714715	0.180412	-0.000118
C30	C	1.854160	0.184162	-0.000136
C31	C	1.478122	0.420826	-0.000111
C32	C	1.481880	0.562454	-0.000118
N33	N	1.485187	0.187700	0.356017
N34	N	1.485186	0.187677	-0.356220
C35	C	1.569807	0.101766	0.427942
C36	C	1.569803	0.101751	0.571825
C37	C	1.400557	0.273615	0.571846
C38	C	1.400555	0.273623	0.427966
C39	C	1.654439	0.015843	0.355993
C40	C	1.739066	-0.070097	0.427918
C41	C	1.739063	-0.070113	0.571801
C42	C	1.654432	0.015812	0.643759
H43	H	0.813223	0.627237	-0.000166
H44	H	0.891588	-0.026095	-0.000127
N45	N	0.684989	0.412499	-0.000162
H46	H	0.642493	0.502793	-0.000171
H47	H	0.659019	0.366017	-0.084903
H48	H	1.129299	-0.019696	-0.000057
N49	N	1.654411	0.015802	0.798948
H50	H	1.635362	-0.071042	0.833600
H51	H	1.739918	0.035218	0.833499
H52	H	1.597345	-0.246540	0.208079
H53	H	1.372927	-0.378217	-0.208049
H54	H	1.372910	-0.378281	0.207883
H55	H	1.807963	-0.140062	0.369322
N56	N	1.614056	-0.236231	-0.238982
H57	H	1.568062	-0.261393	-0.324072
H58	H	1.616795	-0.140267	-0.237433
H59	H	1.266977	-0.205449	0.000020
N60	N	1.654433	0.015867	0.200808
H61	H	1.739924	0.035242	0.166146
H62	H	1.635339	-0.070989	0.166249
N63	N	1.064564	0.664779	-0.000139
H64	H	1.035691	0.714905	-0.084882
H65	H	1.035644	0.714815	0.084644
H66	H	1.703518	-0.418912	0.000014
N67	N	1.830343	-0.162788	0.649381
H68	H	1.883959	-0.217208	0.581965
H69	H	1.886289	-0.113407	0.709067
N70	N	1.309282	0.366286	0.649451
H71	H	1.322126	0.353242	0.751512
H72	H	1.324600	0.456918	0.624305
H73	H	1.195034	0.426262	-0.000096
N74	N	1.309286	0.366303	0.350377
H75	H	1.255678	0.420740	0.417786
H76	H	1.357869	0.423153	0.290676
