data_functionalizedCrystal
_audit_creation_method	'MofGen! by Chris Wilmer'
_symmetry_space_group_name_H-M	'P1'
_symmetry_Int_Tables_number	1
_symmetry_cell_setting	triclinic
loop_
_symmetry_equiv_pos_as_xyz
  x,y,z
_cell_length_a	16.109301
_cell_length_b	15.186229
_cell_length_c	16.109301
_cell_angle_alpha	90.005167
_cell_angle_beta	83.461481
_cell_angle_gamma	90.000638
loop_
_atom_site_label
_atom_site_type_symbol
_atom_site_fract_x
_atom_site_fract_y
_atom_site_fract_z
O1	O	1.103131	0.073176	0.106866
O2	O	1.603131	0.573176	0.606866
O3	O	0.861069	0.073190	0.120165
O4	O	1.361069	0.573190	0.620165
O5	O	0.988749	0.073174	-0.007515
O6	O	1.488749	0.573174	0.492485
O7	O	0.975450	0.073192	0.234547
O8	O	1.475450	0.573192	0.734547
O9	O	0.988741	-0.073284	-0.007517
O10	O	1.488741	0.426716	0.492483
O11	O	0.861060	-0.073267	0.120164
O12	O	1.361060	0.426733	0.620164
O13	O	1.103122	-0.073282	0.106864
O14	O	1.603122	0.426718	0.606864
Zn15	Zn	0.982090	-0.096528	0.113514
Zn16	Zn	1.482090	0.403472	0.613514
Zn17	Zn	0.982101	0.096436	0.113516
Zn18	Zn	1.482101	0.596436	0.613516
O19	O	0.975441	-0.073265	0.234545
O20	O	1.475441	0.426735	0.734545
C21	C	0.830090	-0.000037	0.119626
C22	C	1.330090	0.499963	0.619626
C23	C	0.737794	-0.000032	0.118011
C24	C	1.237794	0.499968	0.618011
N25	N	0.982088	-0.228220	0.113511
N26	N	1.482088	0.271780	0.613511
C27	C	0.515522	-0.000036	0.190018
C28	C	1.015522	0.499964	0.690018
C29	C	0.428801	-0.000042	0.188494
C30	C	0.928801	0.499958	0.688494
C31	C	0.448676	-0.000050	0.037006
C32	C	0.948676	0.499950	0.537006
C33	C	0.535394	-0.000051	0.038530
C34	C	1.035394	0.499949	0.538530
C35	C	0.568815	-0.000039	0.115039
C36	C	1.068815	0.499961	0.615039
C37	C	0.395376	-0.000045	0.111990
C38	C	0.895376	0.499955	0.611990
C39	C	0.301350	-0.000051	0.110337
C40	C	0.801350	0.499949	0.610337
C41	C	0.662847	-0.000035	0.116693
C42	C	1.162847	0.499965	0.616693
C43	C	1.038644	-0.453950	0.056994
C44	C	1.538644	0.046050	0.556994
C45	C	1.038647	-0.546140	0.056992
C46	C	1.538647	-0.046140	0.556992
C47	C	0.925547	-0.546135	0.170032
C48	C	1.425547	-0.046135	0.670032
C49	C	0.925541	-0.453947	0.170030
C50	C	1.425541	0.046053	0.670030
C51	C	0.982094	-0.407857	0.113511
C52	C	1.482094	0.092143	0.613511
C53	C	0.982103	-0.592235	0.113512
C54	C	1.482103	-0.092235	0.613512
C55	C	0.982105	-0.692191	0.113510
C56	C	1.482105	-0.192191	0.613510
C57	C	0.982091	-0.307894	0.113512
C58	C	1.482091	0.192106	0.613512
C59	C	1.134101	-0.000053	0.107404
C60	C	1.634101	0.499947	0.607404
C61	C	1.226397	-0.000052	0.109019
C62	C	1.726397	0.499948	0.609019
C63	C	0.988206	-0.000056	-0.038491
C64	C	1.488206	0.499944	0.461509
C65	C	0.986591	-0.000057	-0.130786
C66	C	1.486591	0.499943	0.369214
N67	N	0.982109	0.228129	0.113512
N68	N	1.482109	0.728129	0.613512
C69	C	1.058599	-0.000047	-0.353059
C70	C	1.558599	0.499953	0.146941
C71	C	1.057075	-0.000040	-0.439779
C72	C	1.557075	0.499960	0.060221
C73	C	0.905586	-0.000034	-0.419905
C74	C	1.405586	0.499966	0.080095
C75	C	0.907111	-0.000035	-0.333186
C76	C	1.407111	0.499965	0.166814
C77	C	0.983620	-0.000046	-0.299766
C78	C	1.483620	0.499954	0.200234
C79	C	0.980571	-0.000038	-0.473205
C80	C	1.480571	0.499962	0.026795
C81	C	0.978918	-0.000030	-0.567231
C82	C	1.478918	0.499970	-0.067231
C83	C	0.985273	-0.000052	-0.205734
C84	C	1.485273	0.499948	0.294266
C85	C	0.975984	-0.000034	0.265521
C86	C	1.475984	0.499966	0.765521
C87	C	0.977600	-0.000027	0.357816
C88	C	1.477600	0.499973	0.857816
H89	H	0.385413	-0.000041	0.249550
H90	H	0.885413	0.499959	0.749550
H91	H	0.843295	-0.000027	-0.447127
H92	H	1.343295	0.499973	0.052873
H93	H	0.421454	-0.000065	-0.025285
H94	H	0.921454	0.499935	0.474715
H95	H	0.542730	-0.000034	0.252317
H96	H	1.042730	0.499966	0.752317
C97	C	1.141602	0.000089	-0.316657
C98	C	1.641602	0.500089	0.183343
C99	C	1.146892	0.075426	-0.267428
C100	C	1.646892	0.575426	0.232572
C101	C	1.223340	0.075579	-0.233875
C102	C	1.723340	0.575579	0.266125
H103	H	1.186111	0.000137	-0.360733
H104	H	1.686111	0.500137	0.139267
H105	H	1.145356	-0.050958	-0.283199
H106	H	1.645356	0.449042	0.216801
H107	H	1.143147	0.126460	-0.300884
H108	H	1.643147	0.626460	0.199116
H109	H	1.102402	0.075394	-0.223339
H110	H	1.602402	0.575394	0.276661
H111	H	1.227093	0.024533	-0.200417
H112	H	1.727093	0.524533	0.299583
H113	H	1.267842	0.075625	-0.277956
H114	H	1.767842	0.575625	0.222044
H115	H	1.226936	0.126690	-0.200463
H116	H	1.726936	0.626690	0.299537
C117	C	0.825725	0.000148	-0.275278
C118	C	1.325725	0.500148	0.224722
C119	C	0.822172	0.075510	-0.224923
C120	C	1.322172	0.575510	0.275077
C121	C	0.747212	0.075719	-0.171577
C122	C	1.247212	0.575719	0.328423
H123	H	0.823090	-0.050864	-0.240960
H124	H	1.323090	0.449136	0.259040
H125	H	0.779918	0.000197	-0.307572
H126	H	1.279918	0.500197	0.192428
H127	H	0.867967	0.075453	-0.192632
H128	H	1.367967	0.575453	0.307368
H129	H	0.824794	0.126534	-0.259219
H130	H	1.324794	0.626534	0.240781
H131	H	0.701404	0.075768	-0.203871
H132	H	1.201404	0.575768	0.296129
H133	H	0.744583	0.024704	-0.137264
H134	H	1.244583	0.524704	0.362736
H135	H	0.744788	0.126855	-0.137410
H136	H	1.244788	0.626855	0.362590
C137	C	1.138546	0.000094	-0.497541
C138	C	1.638546	0.500094	0.002459
C139	C	1.184627	0.075427	-0.482415
C140	C	1.684627	0.575427	0.017585
C141	C	1.259691	0.075575	-0.535601
C142	C	1.759691	0.575575	-0.035601
H143	H	1.126804	0.000144	-0.554004
H144	H	1.626804	0.500144	-0.054004
H145	H	1.169960	-0.050956	-0.487405
H146	H	1.669960	0.449044	0.012595
H147	H	1.153220	0.126463	-0.492557
H148	H	1.653220	0.626463	0.007443
H149	H	1.196392	0.075392	-0.425962
H150	H	1.696392	0.575392	0.074038
H151	H	1.291105	0.024525	-0.525465
H152	H	1.791105	0.524525	-0.025465
H153	H	1.247940	0.075623	-0.592060
H154	H	1.747940	0.575623	-0.092060
H155	H	1.290969	0.126683	-0.525339
H156	H	1.790969	0.626683	-0.025339
C157	C	1.100074	-0.404068	-0.004467
C158	C	1.600074	0.095932	0.495533
C159	C	1.149583	-0.464172	-0.053978
C160	C	1.649583	0.035828	0.446022
C161	C	1.206173	-0.418256	-0.110614
C162	C	1.706173	0.081744	0.389386
H163	H	1.134752	-0.368095	0.025350
H164	H	1.634752	0.131905	0.525350
H165	H	1.070195	-0.368133	-0.039131
H166	H	1.570195	0.131867	0.460869
H167	H	1.179460	-0.500093	-0.019318
H168	H	1.679460	-0.000093	0.480682
H169	H	1.114927	-0.500147	-0.083813
H170	H	1.614927	-0.000147	0.416187
H171	H	1.176293	-0.382320	-0.145279
H172	H	1.676293	0.117680	0.354721
H173	H	1.240845	-0.382285	-0.080790
H174	H	1.740845	0.117715	0.419210
H175	H	1.239765	-0.459029	-0.144220
H176	H	1.739765	0.040971	0.355780
C177	C	0.593125	-0.000008	-0.042971
C178	C	1.093125	0.499992	0.457029
C179	C	0.545298	0.000013	-0.110300
C180	C	1.045298	0.500013	0.389700
C181	C	0.598450	0.000060	-0.185387
C182	C	1.098450	0.500060	0.314613
H183	H	0.627384	-0.051068	-0.045643
H184	H	1.127384	0.448932	0.454357
H185	H	0.627356	0.051084	-0.045566
H186	H	1.127356	0.551084	0.454434
H187	H	0.511081	-0.051074	-0.107706
H188	H	1.011081	0.448926	0.392294
H189	H	0.511040	0.051069	-0.107655
H190	H	1.011040	0.551069	0.392345
H191	H	0.632681	0.051153	-0.187982
H192	H	1.132681	0.551153	0.312018
H193	H	0.632706	-0.051001	-0.188051
H194	H	1.132706	0.448999	0.311949
H195	H	0.566007	0.000083	-0.231079
H196	H	1.066007	0.500083	0.268921
C197	C	1.099914	-0.596231	-0.004465
C198	C	1.599914	-0.096231	0.495535
C199	C	1.055648	-0.649146	-0.055391
C200	C	1.555648	-0.149146	0.444609
C201	C	1.112060	-0.695292	-0.112025
C202	C	1.612060	-0.195292	0.387975
H203	H	1.134535	-0.632261	0.025355
H204	H	1.634535	-0.132261	0.525355
H205	H	1.133579	-0.555603	-0.038172
H206	H	1.633579	-0.055603	0.461828
H207	H	1.021997	-0.689769	-0.021688
H208	H	1.521997	-0.189769	0.478312
H209	H	1.021029	-0.613138	-0.085229
H210	H	1.521029	-0.113138	0.414771
H211	H	1.145725	-0.654665	-0.145731
H212	H	1.645725	-0.154665	0.354269
H213	H	1.146678	-0.731317	-0.082197
H214	H	1.646678	-0.231317	0.417803
H215	H	1.082034	-0.731194	-0.146589
H216	H	1.582034	-0.231194	0.353411
H217	H	0.879503	-0.583670	0.216049
H218	H	1.379503	-0.083670	0.716049
H219	H	0.879487	-0.416415	0.216053
H220	H	1.379487	0.083585	0.716053
