data_functionalizedCrystal
_audit_creation_method	'MofGen! by Chris Wilmer'
_symmetry_space_group_name_H-M	'P1'
_symmetry_Int_Tables_number	1
_symmetry_cell_setting	triclinic
loop_
_symmetry_equiv_pos_as_xyz
  x,y,z
_cell_length_a	31.640172
_cell_length_b	16.704494
_cell_length_c	16.704494
_cell_angle_alpha	60.174809
_cell_angle_beta	90.004933
_cell_angle_gamma	63.425212
loop_
_atom_site_label
_atom_site_type_symbol
_atom_site_fract_x
_atom_site_fract_y
_atom_site_fract_z
Zr1	Zr	0.434456	0.863808	-0.142349
O2	O	0.374653	1.017947	-0.271797
O3	O	0.449504	0.701021	-0.097013
O4	O	0.458093	0.851318	-0.263622
O5	O	0.363025	0.880517	0.019804
O6	O	0.527649	0.851303	-0.263604
O7	O	0.366064	0.867649	-0.105188
O8	O	0.512285	0.582448	0.034428
O9	O	0.378390	1.149372	-0.278228
O10	O	0.511800	0.771169	-0.084495
O11	O	0.457623	0.780783	0.008772
O12	O	0.467736	0.957739	-0.187388
O13	O	0.413560	0.967353	-0.094121
Zr14	Zr	0.540544	0.884306	0.057027
Zr15	Zr	0.545390	0.863784	-0.142322
Zr16	Zr	0.429610	0.884330	0.056999
Zr17	Zr	0.440416	1.073415	-0.152607
Zr18	Zr	0.534584	0.674699	0.067285
O19	O	0.525497	1.047093	0.011691
O20	O	0.532387	1.017913	-0.271757
O21	O	0.367763	1.047127	0.011651
O22	O	0.600348	0.730167	0.186475
O23	O	0.607238	0.700987	-0.096973
O24	O	0.442614	0.730200	0.186435
O25	O	0.611975	0.867597	-0.105126
O26	O	0.516908	0.896796	0.178300
O27	O	0.447351	0.896810	0.178282
O28	O	0.608937	0.880464	0.019866
O29	O	0.466568	1.149353	-0.278206
O30	O	0.508433	0.598761	0.192884
O31	O	0.596611	0.598742	0.192906
O32	O	0.600462	0.582430	0.034451
O33	O	0.374538	1.165684	-0.119773
O34	O	0.462716	1.165665	-0.119751
O35	O	0.507265	0.790375	0.102066
O36	O	0.561441	0.780761	0.008798
O37	O	0.517378	0.967331	-0.094094
O38	O	0.463201	0.976945	-0.000827
C39	C	0.480045	0.611870	-0.029831
C40	C	0.477515	0.522886	-0.025476
C41	C	0.529333	0.345623	-0.114659
C42	C	0.526957	0.262015	-0.110570
C43	C	0.470390	0.272053	-0.013204
C44	C	0.472766	0.355662	-0.017293
C45	C	0.502238	0.392445	-0.068024
C46	C	0.504611	0.476060	-0.072118
C47	C	0.448047	0.486092	0.025253
C48	C	0.445671	0.402484	0.029342
C49	C	0.348739	0.874087	-0.042696
C50	C	0.301644	0.874097	-0.042708
C51	C	0.032636	0.776661	0.011067
C52	C	-0.144350	0.776643	0.011087
O53	O	-0.147675	0.693821	0.056798
N54	N	-0.189481	0.874030	-0.042624
C55	C	-0.190364	0.971428	-0.096337
O56	O	-0.232811	1.054262	-0.142013
C57	C	-0.013378	0.971445	-0.096351
C58	C	0.031752	0.874051	-0.042645
C59	C	0.077764	0.679275	0.064770
C60	C	0.122008	0.679280	0.064760
C61	C	0.121124	0.776671	0.011048
C62	C	0.075995	0.874056	-0.042654
C63	C	-0.014262	1.068843	-0.150059
C64	C	0.029989	1.068839	-0.150055
C65	C	0.075119	0.971445	-0.096349
C66	C	0.119355	0.971452	-0.096376
N67	N	0.164485	0.874066	-0.042666
C68	C	0.165370	0.776675	0.011046
C69	C	-0.283282	0.971412	-0.096328
C70	C	-0.327528	0.971408	-0.096326
C71	C	-0.281511	0.776622	0.011099
C72	C	-0.237264	0.776627	0.011092
C73	C	-0.238151	0.874025	-0.042618
C74	C	0.258283	0.776692	0.011022
C75	C	0.302529	0.776706	0.011004
C76	C	0.256508	0.971491	-0.096417
C77	C	0.212266	0.971478	-0.096404
C78	C	0.213157	0.874070	-0.042677
O79	O	0.122718	1.054231	-0.142055
O80	O	0.207821	0.693855	0.056732
C81	C	-0.011608	0.776656	0.011077
C82	C	-0.056736	0.874041	-0.042626
C83	C	-0.057620	0.971432	-0.096338
C84	C	-0.100982	0.874037	-0.042624
C85	C	-0.100098	0.776646	0.011088
C86	C	-0.054967	0.679260	0.064798
C87	C	-0.010723	0.679265	0.064789
C88	C	-0.102750	1.068819	-0.150048
C89	C	-0.146992	1.068806	-0.150035
C90	C	-0.146108	0.971415	-0.096323
C91	C	0.626262	0.874027	-0.042626
C92	C	0.673356	0.874017	-0.042614
C93	C	0.493562	0.848387	-0.292016
C94	C	0.495619	0.839675	-0.376645
C95	C	0.494956	1.136244	-0.055491
C96	C	0.497486	1.225228	-0.059846
C97	C	0.453486	1.018100	-0.643103
C98	C	0.455418	1.009919	-0.722622
C99	C	0.501417	0.815133	-0.615204
C100	C	0.499485	0.823314	-0.535685
C101	C	0.475518	0.924801	-0.549639
C102	C	0.473584	0.932981	-0.470118
C103	C	0.519586	0.738196	-0.362703
C104	C	0.521518	0.730015	-0.442222
C105	C	0.481439	0.899727	0.206694
C106	C	0.479382	0.908439	0.291323
C107	C	0.618807	0.611840	-0.029796
C108	C	0.663371	0.522846	-0.025430
C109	C	0.473984	0.637540	0.219524
C110	C	0.469396	0.557268	0.308507
C111	C	0.612745	0.637510	0.219559
C112	C	0.655252	0.557229	0.308554
C113	C	0.362255	1.110603	-0.304881
C114	C	0.319748	1.190885	-0.393876
C115	C	0.356194	1.136274	-0.055526
C116	C	0.311630	1.225267	-0.059892
C117	C	0.501017	1.110574	-0.304846
C118	C	0.505604	1.190845	-0.393830
C119	C	0.658387	0.476046	-0.072086
C120	C	0.700256	0.392437	-0.068002
C121	C	0.747109	0.355624	-0.017257
C122	C	0.752092	0.402432	0.029401
C123	C	0.710224	0.486045	0.025311
C124	C	0.493154	0.524580	0.399002
C125	C	0.488842	0.449168	0.482618
C126	C	0.460775	0.406441	0.475738
C127	C	0.437014	0.439137	0.385234
C128	C	0.441323	0.514553	0.301620
C129	C	0.703498	0.514509	0.301662
C130	C	0.743443	0.439087	0.385275
C131	C	0.735140	0.406380	0.475778
C132	C	0.686889	0.449107	0.482667
C133	C	0.646946	0.524534	0.399056
C134	C	0.271503	1.233615	-0.386985
C135	C	0.231559	1.309063	-0.470598
C136	C	0.239862	1.341775	-0.561102
C137	C	0.288112	1.299042	-0.567991
C138	C	0.328055	1.223601	-0.484379
C139	C	0.316615	1.272076	-0.013245
C140	C	0.274747	1.355706	-0.017351
C141	C	0.227894	1.392522	-0.068100
C142	C	0.222910	1.345709	-0.114754
C143	C	0.264778	1.262086	-0.110652
C144	C	0.533676	1.233549	-0.386919
C145	C	0.537996	1.308962	-0.470520
C146	C	0.514241	1.341677	-0.561031
C147	C	0.486169	1.298965	-0.567940
C148	C	0.481852	1.223547	-0.484339
H149	H	0.528606	0.506011	-0.113428
H150	H	0.367338	1.188810	-0.490001
F151	F	0.558961	1.198746	-0.290598
H152	H	-0.280798	0.697322	0.054828
H153	H	0.175519	1.050783	-0.140148
F154	F	0.715536	0.535840	0.074979
H155	H	0.516009	0.559360	0.404622
H156	H	-0.364271	1.050715	-0.140071
H157	H	0.790245	0.372447	0.070716
H158	H	0.421978	0.541157	0.227939
H159	H	0.207333	1.403204	-0.629177
H160	H	0.193806	1.460614	-0.071432
H161	H	0.508193	0.422557	0.556302
F162	F	0.448076	1.040990	-0.484970
H163	H	0.537523	0.662224	-0.286592
F164	F	0.547024	0.622011	-0.427383
F165	F	0.173042	1.384901	-0.168759
F166	F	0.712346	0.549309	0.205350
H167	H	0.517760	1.403088	-0.629096
H168	H	0.782727	0.404305	0.379648
F169	F	-0.284234	1.075084	-0.153499
F170	F	0.414312	0.363318	0.083341
H171	H	-0.051002	1.148152	-0.193791
H172	H	0.437477	1.085893	-0.798722
F173	F	0.460886	1.333800	-0.664277
F174	F	0.296941	1.333864	-0.664320
F175	F	0.777657	0.326101	0.564758
F176	F	0.567872	1.354411	-0.463147
F177	F	0.456193	0.326176	0.564738
F178	F	0.407144	0.393653	0.377927
H179	H	0.458992	1.188786	-0.489980
H180	H	0.192275	1.343844	-0.464970
H181	H	0.696188	0.354335	-0.105997
F182	F	0.366475	1.232912	0.040769
F183	F	0.280061	1.405509	0.032310
H184	H	-0.200521	0.697321	0.054832
F185	F	0.259465	1.212272	-0.160299
F186	F	0.560693	0.384781	-0.168659
F187	F	-0.195021	1.172473	-0.207204
F188	F	0.037303	0.575604	0.121952
H189	H	0.549020	0.223893	-0.148544
H190	H	0.680136	0.422466	0.556366
H191	H	0.620241	0.506017	-0.113420
H192	H	0.446402	0.242079	0.028110
H193	H	0.607663	0.559307	0.404681
H194	H	0.339275	0.697393	0.054741
F195	F	0.419205	0.535936	0.074882
F196	F	0.791665	0.266632	-0.012911
H197	H	0.259015	0.697374	0.054772
H198	H	0.264733	1.206985	-0.313300
F199	F	0.170034	0.575619	0.121928
H200	H	0.433966	1.100735	-0.654466
H201	H	0.078492	0.599963	0.108514
H202	H	0.255797	1.050784	-0.140151
F203	F	0.029041	1.172507	-0.207220
H204	H	-0.054254	0.599960	0.108527
F205	F	-0.103700	1.172482	-0.207218
H206	H	0.520936	0.732508	-0.603860
