data_functionalizedCrystal
_audit_creation_method	'MofGen! by Chris Wilmer'
_symmetry_space_group_name_H-M	'P1'
_symmetry_Int_Tables_number	1
_symmetry_cell_setting	triclinic
loop_
_symmetry_equiv_pos_as_xyz
  x,y,z
_cell_length_a	18.215407
_cell_length_b	18.215405
_cell_length_c	18.215399
_cell_angle_alpha	90.027541
_cell_angle_beta	90.019833
_cell_angle_gamma	90.023180
loop_
_atom_site_label
_atom_site_type_symbol
_atom_site_fract_x
_atom_site_fract_y
_atom_site_fract_z
Zn1	Zn	1.125083	-0.292983	0.416118
Zn2	Zn	1.458416	0.040350	0.749451
Zn3	Zn	1.791750	0.373684	1.082785
Zn4	Zn	1.124996	-0.416054	0.293053
Zn5	Zn	1.458329	-0.082721	0.626386
Zn6	Zn	1.791663	0.250612	0.959719
Zn7	Zn	1.002016	-0.293007	0.293065
Zn8	Zn	1.335349	0.040326	0.626399
Zn9	Zn	1.668682	0.373660	0.959732
Zn10	Zn	1.001986	-0.416013	0.416077
Zn11	Zn	1.335319	-0.082680	0.749411
Zn12	Zn	1.668653	0.250653	1.082744
O13	O	1.063520	-0.354514	0.354578
O14	O	1.396853	-0.021181	0.687912
O15	O	1.730187	0.312152	1.021245
O16	O	1.228056	-0.309316	0.399805
O17	O	1.561389	0.024018	0.733138
O18	O	1.894722	0.357351	1.066471
O19	O	1.108658	-0.399759	0.190070
O20	O	1.441992	-0.066426	0.523403
O21	O	1.775325	0.266908	0.856737
O22	O	1.018389	-0.190020	0.309411
O23	O	1.351723	0.143314	0.642744
O24	O	1.685056	0.476647	0.976077
O25	O	1.227992	-0.399736	0.309389
O26	O	1.561325	-0.066402	0.642722
O27	O	1.894658	0.266931	0.976056
O28	O	1.108807	-0.190002	0.399817
O29	O	1.442140	0.143331	0.733150
O30	O	1.775473	0.476665	1.066484
O31	O	1.018305	-0.309357	0.190079
O32	O	1.351638	0.023977	0.523413
O33	O	1.684972	0.357310	0.856746
O34	O	0.899027	-0.309317	0.309372
O35	O	1.232361	0.024016	0.642705
O36	O	1.565694	0.357350	0.976038
O37	O	1.018339	-0.399666	0.519067
O38	O	1.351672	-0.066333	0.852400
O39	O	1.685006	0.267001	1.185734
O40	O	0.899006	-0.399689	0.399748
O41	O	1.232339	-0.066356	0.733081
O42	O	1.565672	0.266977	1.066415
O43	O	1.108778	-0.309276	0.519097
O44	O	1.442111	0.024057	0.852430
O45	O	1.775445	0.357391	1.185764
O46	O	1.108630	-0.519033	0.309350
O47	O	1.441963	-0.185700	0.642683
O48	O	1.775296	0.147634	0.976016
O49	O	1.018255	-0.519003	0.399736
O50	O	1.351588	-0.185670	0.733069
O51	O	1.684921	0.147664	1.066402
C52	C	0.872314	-0.354502	0.354557
C53	C	1.205647	-0.021168	0.687891
C54	C	1.538981	0.312165	1.021224
C55	C	0.790515	-0.354514	0.354566
C56	C	1.123848	-0.021181	0.687899
C57	C	1.457182	0.312152	1.021232
C58	C	0.602329	-0.401645	0.401566
C59	C	0.935662	-0.068312	0.734899
C60	C	1.268996	0.265022	1.068232
C61	C	0.525470	-0.401647	0.401575
C62	C	0.858804	-0.068314	0.734908
C63	C	1.192137	0.265019	1.068241
C64	C	0.525463	-0.307397	0.307607
C65	C	0.858797	0.025936	0.640940
C66	C	1.192130	0.359269	0.974274
C67	C	0.602321	-0.307392	0.307602
C68	C	0.935654	0.025942	0.640936
C69	C	1.268987	0.359275	0.974269
C70	C	0.640751	-0.354520	0.354580
C71	C	0.974085	-0.021186	0.687914
C72	C	1.307418	0.312147	1.021247
C73	C	0.487035	-0.354528	0.354594
C74	C	0.820369	-0.021194	0.687928
C75	C	1.153702	0.312139	1.021261
C76	C	0.403702	-0.354530	0.354604
C77	C	0.737035	-0.021196	0.687937
C78	C	1.070368	0.312137	1.021271
C79	C	0.724090	-0.354517	0.354572
C80	C	1.057424	-0.021184	0.687905
C81	C	1.390757	0.312150	1.021239
C82	C	1.063450	-0.545721	0.354553
C83	C	1.396783	-0.212387	0.687886
C84	C	1.730116	0.120946	1.021220
C85	C	1.063487	-0.627520	0.354567
C86	C	1.396820	-0.294186	0.687900
C87	C	1.730153	0.039147	1.021233
C88	C	1.110589	-0.815643	0.401705
C89	C	1.443923	-0.482310	0.735038
C90	C	1.777256	-0.148977	1.068372
C91	C	1.110616	-0.892502	0.401719
C92	C	1.443949	-0.559169	0.735052
C93	C	1.777283	-0.225835	1.068385
C94	C	1.016542	-0.892634	0.307497
C95	C	1.349875	-0.559300	0.640831
C96	C	1.683209	-0.225967	0.974164
C97	C	1.016512	-0.815776	0.307488
C98	C	1.349845	-0.482443	0.640821
C99	C	1.683179	-0.149110	0.974154
C100	C	1.063540	-0.777283	0.354590
C101	C	1.396873	-0.443950	0.687924
C102	C	1.730207	-0.110616	1.021257
C103	C	1.063597	-0.930999	0.354614
C104	C	1.396930	-0.597666	0.687947
C105	C	1.730263	-0.264332	1.021281
C106	C	1.063625	-1.014333	0.354628
C107	C	1.396958	-0.680999	0.687962
C108	C	1.730292	-0.347666	1.021295
C109	C	1.063511	-0.693944	0.354577
C110	C	1.396844	-0.360611	0.687910
C111	C	1.730177	-0.027277	1.021244
C112	C	1.255473	-0.354528	0.354600
C113	C	1.588806	-0.021194	0.687933
C114	C	1.922140	0.312139	1.021267
C115	C	1.337272	-0.354533	0.354609
C116	C	1.670605	-0.021200	0.687942
C117	C	2.003939	0.312133	1.021276
C118	C	1.063565	-0.354464	0.546531
C119	C	1.396898	-0.021130	0.879865
C120	C	1.730232	0.312203	1.213198
C121	C	1.063584	-0.354442	0.628330
C122	C	1.396917	-0.021109	0.961664
C123	C	1.730251	0.312225	1.294997
C124	C	1.063611	-0.162561	0.354620
C125	C	1.396944	0.170772	0.687953
C126	C	1.730278	0.504105	1.021287
C127	C	1.063650	-0.080763	0.354638
C128	C	1.396983	0.252571	0.687971
C129	C	1.730316	0.585904	1.021304
C130	C	1.063518	-0.354512	0.163372
C131	C	1.396851	-0.021179	0.496705
C132	C	1.730184	0.312155	0.830039
C133	C	1.063641	-0.354326	0.081574
C134	C	1.396975	-0.020993	0.414907
C135	C	1.730308	0.312341	0.748240
C136	C	1.110692	-0.307332	0.816541
C137	C	1.444026	0.026001	1.149874
C138	C	1.777359	0.359335	1.483208
C139	C	1.110701	-0.307311	0.893400
C140	C	1.444035	0.026023	1.226733
C141	C	1.777368	0.359356	1.560066
C142	C	1.016528	-0.401438	0.893358
C143	C	1.349861	-0.068105	1.226691
C144	C	1.683194	0.265228	1.560024
C145	C	1.016516	-0.401455	0.816500
C146	C	1.349849	-0.068122	1.149833
C147	C	1.683182	0.265211	1.483167
C148	C	1.063602	-0.354403	0.778094
C149	C	1.396936	-0.021070	1.111427
C150	C	1.730269	0.312263	1.444761
C151	C	1.063623	-0.354365	0.931810
C152	C	1.396956	-0.021031	1.265143
C153	C	1.730290	0.312302	1.598477
C154	C	1.063632	-0.354342	1.015144
C155	C	1.396966	-0.021009	1.348477
C156	C	1.730299	0.312325	1.681810
C157	C	1.063592	-0.354425	0.694755
C158	C	1.396926	-0.021092	1.028088
C159	C	1.730259	0.312242	1.361421
H160	H	0.633617	-0.440018	0.439820
H161	H	0.966951	-0.106684	0.773153
H162	H	1.300284	0.226649	1.106487
H163	H	0.494190	-0.440020	0.439836
H164	H	0.827523	-0.106687	0.773169
H165	H	1.160857	0.226646	1.106503
H166	H	1.148881	-0.784304	0.440060
H167	H	1.482215	-0.450971	0.773393
H168	H	1.815548	-0.117637	1.106727
Cl169	Cl	1.169884	-0.248178	0.768261
Cl170	Cl	1.503217	0.085155	1.101595
Cl171	Cl	1.836551	0.418488	1.434928
Cl172	Cl	1.169763	-0.940723	0.460955
Cl173	Cl	1.503096	-0.607390	0.794288
Cl174	Cl	1.836430	-0.274056	1.127622
Cl175	Cl	0.957354	-0.767548	0.248259
Cl176	Cl	1.290687	-0.434215	0.581592
Cl177	Cl	1.624020	-0.100881	0.914925
H178	H	0.978193	-0.439748	0.924637
H179	H	1.311526	-0.106415	1.257971
H180	H	1.644860	0.226919	1.591304
Cl181	Cl	0.957308	-0.460632	0.768163
Cl182	Cl	1.290641	-0.127298	1.101496
Cl183	Cl	1.623974	0.206035	1.434829
Cl184	Cl	0.477145	-0.248156	0.248550
Cl185	Cl	0.810478	0.085178	0.581884
Cl186	Cl	1.143812	0.418511	0.915217
Cl187	Cl	0.650627	-0.248139	0.248535
Cl188	Cl	0.983960	0.085194	0.581868
Cl189	Cl	1.317294	0.418528	0.915201
Cl190	Cl	0.957424	-0.941030	0.248286
Cl191	Cl	1.290757	-0.607697	0.581620
Cl192	Cl	1.624091	-0.274363	0.914953
H193	H	1.149046	-0.268979	0.924700
H194	H	1.482379	0.064354	1.258033
H195	H	1.815712	0.397687	1.591367
