data_functionalizedCrystal
_audit_creation_method	'MofGen! by Chris Wilmer'
_symmetry_space_group_name_H-M	'P1'
_symmetry_Int_Tables_number	1
_symmetry_cell_setting	triclinic
loop_
_symmetry_equiv_pos_as_xyz
  x,y,z
_cell_length_a	14.908571
_cell_length_b	25.639239
_cell_length_c	25.639233
_cell_angle_alpha	89.981253
_cell_angle_beta	86.694652
_cell_angle_gamma	86.734636
loop_
_atom_site_label
_atom_site_type_symbol
_atom_site_fract_x
_atom_site_fract_y
_atom_site_fract_z
Zn1	Zn	1.379014	-0.254413	-0.341651
Zn2	Zn	1.879014	0.245587	0.158349
Zn3	Zn	1.378882	-0.341828	-0.254211
Zn4	Zn	1.878882	0.158172	0.245789
Zn5	Zn	1.228170	-0.249359	-0.249193
Zn6	Zn	1.728170	0.250641	0.250807
Zn7	Zn	1.228075	-0.336763	-0.336580
Zn8	Zn	1.728075	0.163237	0.163420
O9	O	1.303535	-0.295591	-0.295409
O10	O	1.803535	0.204409	0.204591
O11	O	1.505239	-0.270244	-0.334274
O12	O	2.005239	0.229756	0.165726
O13	O	1.358874	-0.329566	-0.180380
O14	O	1.858874	0.170434	0.319620
O15	O	1.248275	-0.176868	-0.261480
O16	O	1.748275	0.323132	0.238520
O17	O	1.505142	-0.334467	-0.270032
O18	O	2.005142	0.165533	0.229968
O19	O	1.359099	-0.180581	-0.329409
O20	O	1.859099	0.319419	0.170591
O21	O	1.248147	-0.261630	-0.176693
O22	O	1.748147	0.238370	0.323307
O23	O	1.101915	-0.256719	-0.256563
O24	O	1.601915	0.243281	0.243437
O25	O	1.248113	-0.325835	-0.410419
O26	O	1.748113	0.174165	0.089581
O27	O	1.101846	-0.320934	-0.320766
O28	O	1.601846	0.179066	0.179234
O29	O	1.359008	-0.265333	-0.414144
O30	O	1.859008	0.234667	0.085856
O31	O	1.358783	-0.414318	-0.265115
O32	O	1.858783	0.085682	0.234885
O33	O	1.247985	-0.410597	-0.325632
O34	O	1.747985	0.089403	0.174368
C35	C	1.069147	-0.287729	-0.287571
C36	C	1.569147	0.212271	0.212429
C37	C	0.968875	-0.284378	-0.284230
C38	C	1.468875	0.215622	0.215770
C39	C	0.780429	-0.345052	-0.344716
C40	C	1.280429	0.154948	0.155284
C41	C	0.686214	-0.341905	-0.341579
C42	C	1.186214	0.158095	0.158421
C43	C	0.686229	-0.274935	-0.274821
C44	C	1.186229	0.225065	0.225179
C45	C	0.780444	-0.278081	-0.277958
C46	C	1.280444	0.221919	0.222042
C47	C	0.827540	-0.313142	-0.312906
C48	C	1.327540	0.186858	0.187094
C49	C	0.921757	-0.316291	-0.316041
C50	C	1.421757	0.183709	0.183959
C51	C	0.921770	-0.249318	-0.249285
C52	C	1.421770	0.250682	0.250715
C53	C	0.827556	-0.246171	-0.246148
C54	C	1.327556	0.253829	0.253852
C55	C	1.303384	-0.431428	-0.295380
C56	C	1.803384	0.068572	0.204620
C57	C	1.303401	-0.489543	-0.295388
C58	C	1.803401	0.010457	0.204612
C59	C	1.361378	-0.851841	-0.263960
C60	C	1.861378	-0.351841	0.236040
C61	C	1.361413	-0.906446	-0.263968
C62	C	1.861413	-0.406446	0.236032
O63	O	1.410550	-0.936322	-0.237216
O64	O	1.910550	-0.436322	0.262784
N65	N	1.303694	-0.931835	-0.295449
N66	N	1.803694	-0.431835	0.204551
C67	C	1.245943	-0.902616	-0.326927
C68	C	1.745943	-0.402616	0.173073
O69	O	1.196852	-0.929226	-0.353705
O70	O	1.696852	-0.429226	0.146295
C71	C	1.245913	-0.848012	-0.326922
C72	C	1.745913	-0.348012	0.173078
C73	C	1.303629	-0.822625	-0.295435
C74	C	1.803629	-0.322625	0.204565
C75	C	1.419091	-0.826454	-0.232476
C76	C	1.919091	-0.326454	0.267524
C77	C	1.419054	-0.771852	-0.232468
C78	C	1.919054	-0.271852	0.267532
C79	C	1.361305	-0.742637	-0.263943
C80	C	1.861305	-0.242637	0.236057
C81	C	1.303593	-0.768024	-0.295426
C82	C	1.803593	-0.268024	0.204574
C83	C	1.188167	-0.818794	-0.358403
C84	C	1.688167	-0.318794	0.141597
C85	C	1.188143	-0.764186	-0.358395
C86	C	1.688143	-0.264186	0.141605
C87	C	1.245859	-0.738800	-0.326908
C88	C	1.745859	-0.238800	0.173092
C89	C	1.245808	-0.684207	-0.326892
C90	C	1.745808	-0.184207	0.173108
N91	N	1.303527	-0.658818	-0.295412
N92	N	1.803527	-0.158818	0.204588
C93	C	1.361276	-0.688033	-0.263937
C94	C	1.861276	-0.188033	0.236063
C95	C	1.246011	-1.017289	-0.326938
C96	C	1.746011	-0.517289	0.173062
C97	C	1.246035	-1.071892	-0.326941
C98	C	1.746035	-0.571892	0.173059
C99	C	1.361507	-1.075718	-0.263982
C100	C	1.861507	-0.575718	0.236018
C101	C	1.361477	-1.021114	-0.263977
C102	C	1.861477	-0.521114	0.236023
C103	C	1.303730	-0.991900	-0.295457
C104	C	1.803730	-0.491900	0.204543
C105	C	1.361194	-0.573365	-0.263920
C106	C	1.861194	-0.073365	0.236080
C107	C	1.361150	-0.518758	-0.263913
C108	C	1.861150	-0.018758	0.236087
C109	C	1.245682	-0.514937	-0.326873
C110	C	1.745682	-0.014937	0.173127
C111	C	1.245723	-0.569539	-0.326879
C112	C	1.745723	-0.069539	0.173121
C113	C	1.303486	-0.598752	-0.295401
C114	C	1.803486	-0.098752	0.204599
O115	O	1.196699	-0.654297	-0.353633
O116	O	1.696699	-0.154297	0.146367
O117	O	1.410366	-0.661417	-0.237169
O118	O	1.910366	-0.161417	0.262831
C119	C	1.538839	-0.303484	-0.303278
C120	C	2.038839	0.196516	0.196722
C121	C	1.639111	-0.306848	-0.306632
C122	C	2.139111	0.193152	0.193368
C123	C	1.303565	-0.295583	-0.431783
C124	C	1.803565	0.204417	0.068217
C125	C	1.303577	-0.295579	-0.489897
C126	C	1.803577	0.204421	0.010103
C127	C	1.303712	-0.159224	-0.295450
C128	C	1.803712	0.340776	0.204550
C129	C	1.303788	-0.101112	-0.295468
C130	C	1.803788	0.398888	0.204532
C131	C	1.361393	-0.263979	-0.852209
C132	C	1.861393	0.236021	-0.352209
C133	C	1.361404	-0.263965	-0.906813
C134	C	1.861404	0.236035	-0.406813
O135	O	1.410488	-0.237156	-0.936704
O136	O	1.910488	0.262844	-0.436704
N137	N	1.303676	-0.295460	-0.932183
N138	N	1.803676	0.204540	-0.432183
C139	C	1.245928	-0.326967	-0.902946
C140	C	1.745928	0.173033	-0.402946
O141	O	1.196826	-0.353754	-0.929539
O142	O	1.696826	0.146246	-0.429539
C143	C	1.245913	-0.326978	-0.848342
C144	C	1.745913	0.173022	-0.348342
C145	C	1.303650	-0.295485	-0.822975
C146	C	1.803650	0.204515	-0.322975
C147	C	1.419125	-0.232488	-0.826841
C148	C	1.919125	0.267512	-0.326841
C149	C	1.419115	-0.232503	-0.772240
C150	C	1.919115	0.267497	-0.272240
C151	C	1.361372	-0.264009	-0.743007
C152	C	1.861372	0.235991	-0.243007
C153	C	1.303640	-0.295500	-0.768374
C154	C	1.803640	0.204500	-0.268374
C155	C	1.188160	-0.358482	-0.819105
C156	C	1.688160	0.141518	-0.319105
C157	C	1.188149	-0.358490	-0.764498
C158	C	1.688149	0.141510	-0.264498
C159	C	1.245887	-0.326997	-0.739131
C160	C	1.745887	0.173003	-0.239131
C161	C	1.245887	-0.327021	-0.684539
C162	C	1.745887	0.172979	-0.184539
N163	N	1.303615	-0.295526	-0.659169
N164	N	1.803615	0.204474	-0.159169
C165	C	1.361357	-0.264020	-0.688403
C166	C	1.861357	0.235980	-0.188403
C167	C	1.245962	-0.326941	-1.017618
C168	C	1.745962	0.173059	-0.517618
C169	C	1.245981	-0.326933	-1.072221
C170	C	1.745981	0.173067	-0.572221
C171	C	1.361457	-0.263930	-1.076084
C172	C	1.861457	0.236070	-0.576084
C173	C	1.361442	-0.263941	-1.021480
C174	C	1.861442	0.236059	-0.521480
C175	C	1.303690	-0.295446	-0.992247
C176	C	1.803690	0.204554	-0.492247
C177	C	1.361332	-0.264054	-0.573737
C178	C	1.861332	0.235946	-0.073737
C179	C	1.361320	-0.264073	-0.519131
C180	C	1.861320	0.235927	-0.019131
C181	C	1.245841	-0.327074	-0.515272
C182	C	1.745841	0.172926	-0.015272
C183	C	1.245857	-0.327057	-0.569873
C184	C	1.745857	0.172943	-0.069873
C185	C	1.303605	-0.295543	-0.599104
C186	C	1.803605	0.204457	-0.099104
O187	O	1.196826	-0.353814	-0.654615
O188	O	1.696826	0.146186	-0.154615
O189	O	1.410442	-0.237232	-0.661802
O190	O	1.910442	0.262768	-0.161802
C191	C	1.303558	-0.295563	-0.159567
C192	C	1.803558	0.204437	0.340433
C193	C	1.303721	-0.295425	-0.101459
C194	C	1.803721	0.204575	0.398541
H195	H	1.408150	-0.498090	-0.238271
H196	H	1.908150	0.001910	0.261729
N197	N	1.423738	-0.993734	-0.230024
N198	N	1.923738	-0.493734	0.269976
H199	H	1.387099	-0.969881	-0.204548
H200	H	1.887099	-0.469881	0.295452
H201	H	1.460311	-1.020564	-0.210122
H202	H	1.960311	-0.520564	0.289878
N203	N	1.423601	-0.230106	-0.491773
N204	N	1.923601	0.269894	0.008227
H205	H	1.409641	-0.192278	-0.500810
H206	H	1.909641	0.307722	-0.000810
H207	H	1.414809	-0.234939	-0.452754
H208	H	1.914809	0.265061	0.047246
N209	N	1.423795	-1.107234	-0.230033
N210	N	1.923795	-0.607234	0.269967
H211	H	1.415053	-1.145677	-0.234818
H212	H	1.915053	-0.645677	0.265182
H213	H	1.488210	-1.099809	-0.240354
H214	H	1.988210	-0.599809	0.259646
N215	N	1.423715	-0.229974	-0.994122
N216	N	1.923715	0.270026	-0.494122
H217	H	1.460296	-0.210017	-1.020932
H218	H	1.960296	0.289983	-0.520932
H219	H	1.387022	-0.204549	-0.970244
H220	H	1.887022	0.295451	-0.470244
N221	N	0.635399	-0.376323	-0.375887
N222	N	1.135399	0.123677	0.124113
H223	H	0.679534	-0.399010	-0.398500
H224	H	1.179534	0.100990	0.101500
H225	H	0.596276	-0.399181	-0.353257
H226	H	1.096276	0.100819	0.146743
N227	N	1.183769	-1.099270	-0.360892
N228	N	1.683769	-0.599270	0.139108
H229	H	1.147182	-1.072471	-0.380827
H230	H	1.647182	-0.572471	0.119173
H231	H	1.220469	-1.123122	-0.386339
H232	H	1.720469	-0.623122	0.113661
N233	N	1.183715	-0.985781	-0.360889
N234	N	1.683715	-0.485781	0.139111
H235	H	1.147157	-1.010154	-0.380829
H236	H	1.647157	-0.510154	0.119171
H237	H	1.141977	-0.961762	-0.338189
H238	H	1.641977	-0.461762	0.161811
N239	N	1.125910	-0.846166	-0.392361
N240	N	1.625910	-0.346166	0.107639
H241	H	1.089331	-0.819365	-0.412297
H242	H	1.589331	-0.319365	0.087703
H243	H	1.162613	-0.870019	-0.417806
H244	H	1.662613	-0.370019	0.082194
N245	N	1.481322	-0.744477	-0.198516
N246	N	1.981322	-0.244477	0.301484
H247	H	1.444691	-0.720625	-0.173036
H248	H	1.944691	-0.220625	0.326964
H249	H	1.517896	-0.771310	-0.178619
H250	H	2.017896	-0.271310	0.321381
H251	H	1.198831	-0.352727	-0.491460
H252	H	1.698831	0.147273	0.008540
N253	N	1.481383	-0.857960	-0.198526
N254	N	1.981383	-0.357960	0.301474
H255	H	1.517933	-0.833583	-0.178584
H256	H	2.017933	-0.333583	0.321416
H257	H	1.444703	-0.879415	-0.173086
H258	H	1.944703	-0.379415	0.326914
H259	H	1.141119	-0.740402	-0.384031
H260	H	1.641119	-0.240402	0.115969
N261	N	1.423495	-0.604868	-0.229971
N262	N	1.923495	-0.104868	0.270029
H263	H	1.460044	-0.580494	-0.210026
H264	H	1.960044	-0.080494	0.289974
H265	H	1.386818	-0.626328	-0.204532
H266	H	1.886818	-0.126328	0.295468
H267	H	1.198728	-0.590210	-0.352520
H268	H	1.698728	-0.090210	0.147480
H269	H	1.198661	-0.491141	-0.352498
H270	H	1.698661	0.008859	0.147502
N271	N	0.776749	-0.208367	-0.208451
N272	N	1.276749	0.291633	0.291549
H273	H	0.793173	-0.171567	-0.217176
H274	H	1.293173	0.328433	0.282824
H275	H	0.709933	-0.211265	-0.211309
H276	H	1.209933	0.288735	0.288691
N277	N	1.183718	-0.360904	-1.099582
N278	N	1.683718	0.139096	-0.599582
H279	H	1.197678	-0.398731	-1.090543
H280	H	1.697678	0.101269	-0.590543
H281	H	1.119295	-0.350580	-1.087913
H282	H	1.619295	0.149420	-0.587913
H283	H	1.408354	-0.238390	-0.597531
H284	H	1.908354	0.261610	-0.097531
H285	H	1.466129	-0.206857	-0.751592
H286	H	1.966129	0.293143	-0.251592
N287	N	1.481400	-0.198498	-0.858367
N288	N	1.981400	0.301502	-0.358367
H289	H	1.517962	-0.178551	-0.834003
H290	H	2.017962	0.321449	-0.334003
H291	H	1.523135	-0.221170	-0.882415
H292	H	2.023135	0.278830	-0.382415
H293	H	1.408472	-0.238275	-1.099896
H294	H	1.908472	0.261725	-0.599896
N295	N	1.183663	-0.360920	-0.986089
N296	N	1.683663	0.139080	-0.486089
H297	H	1.147097	-0.380866	-1.010450
H298	H	1.647097	0.119134	-0.510450
H299	H	1.220334	-0.386355	-0.964654
H300	H	1.720334	0.113645	-0.464654
H301	H	1.198850	-0.352706	-0.590528
H302	H	1.698850	0.147294	-0.090528
H303	H	0.647867	-0.246387	-0.246371
H304	H	1.147867	0.253613	0.253629
N305	N	1.125884	-0.392450	-0.846456
N306	N	1.625884	0.107550	-0.346456
H307	H	1.089304	-0.412404	-0.819644
H308	H	1.589304	0.087596	-0.319644
H309	H	1.084166	-0.369761	-0.867717
H310	H	1.584166	0.130239	-0.367717
N311	N	0.972558	-0.354106	-0.353730
N312	N	1.472558	0.145894	0.146270
H313	H	0.928413	-0.373842	-0.373406
H314	H	1.428413	0.126158	0.126594
H315	H	1.011684	-0.334165	-0.379266
H316	H	1.511684	0.165835	0.120734
N317	N	1.125850	-0.392466	-0.732968
N318	N	1.625850	0.107534	-0.232968
H319	H	1.089278	-0.412411	-0.757327
H320	H	1.589278	0.087589	-0.257327
H321	H	1.162526	-0.417902	-0.711536
H322	H	1.662526	0.082098	-0.211536
N323	N	0.972582	-0.214902	-0.214970
N324	N	1.472582	0.285098	0.285030
H325	H	1.039414	-0.222215	-0.222257
H326	H	1.539414	0.277785	0.277743
H327	H	0.956156	-0.177023	-0.222624
H328	H	1.456156	0.322977	0.277376
H329	H	0.818776	-0.373602	-0.373170
H330	H	1.318776	0.126398	0.126830
