data_functionalizedCrystal
_audit_creation_method	'MofGen! by Chris Wilmer'
_symmetry_space_group_name_H-M	'P1'
_symmetry_Int_Tables_number	1
_symmetry_cell_setting	triclinic
loop_
_symmetry_equiv_pos_as_xyz
  x,y,z
_cell_length_a	16.109301
_cell_length_b	16.109301
_cell_length_c	15.186229
_cell_angle_alpha	89.994833
_cell_angle_beta	89.999362
_cell_angle_gamma	83.461481
loop_
_atom_site_label
_atom_site_type_symbol
_atom_site_fract_x
_atom_site_fract_y
_atom_site_fract_z
O1	O	1.103131	0.106866	-0.073176
O2	O	1.603131	0.606866	0.426824
O3	O	0.861069	0.120165	-0.073190
O4	O	1.361069	0.620165	0.426810
O5	O	0.988749	-0.007515	-0.073174
O6	O	1.488749	0.492485	0.426826
O7	O	0.975450	0.234547	-0.073192
O8	O	1.475450	0.734547	0.426808
O9	O	0.988741	-0.007517	0.073284
O10	O	1.488741	0.492483	0.573284
O11	O	0.861060	0.120164	0.073267
O12	O	1.361060	0.620164	0.573267
O13	O	1.103122	0.106864	0.073282
O14	O	1.603122	0.606864	0.573282
Zn15	Zn	0.982090	0.113514	0.096528
Zn16	Zn	1.482090	0.613514	0.596528
Zn17	Zn	0.982101	0.113516	-0.096436
Zn18	Zn	1.482101	0.613516	0.403564
O19	O	0.975441	0.234545	0.073265
O20	O	1.475441	0.734545	0.573265
C21	C	0.830090	0.119626	0.000037
C22	C	1.330090	0.619626	0.500037
C23	C	0.737794	0.118011	0.000032
C24	C	1.237794	0.618011	0.500032
C25	C	0.515522	0.190018	0.000036
C26	C	1.015522	0.690018	0.500036
C27	C	0.428801	0.188494	0.000042
C28	C	0.928801	0.688494	0.500042
C29	C	0.448676	0.037006	0.000050
C30	C	0.948676	0.537006	0.500050
C31	C	0.535394	0.038530	0.000051
C32	C	1.035394	0.538530	0.500051
C33	C	0.568815	0.115039	0.000039
C34	C	1.068815	0.615039	0.500039
C35	C	0.395376	0.111990	0.000045
C36	C	0.895376	0.611990	0.500045
C37	C	0.301350	0.110337	0.000051
C38	C	0.801350	0.610337	0.500051
C39	C	0.662847	0.116693	0.000035
C40	C	1.162847	0.616693	0.500035
C41	C	0.988206	-0.038491	0.000056
C42	C	1.488206	0.461509	0.500056
C43	C	0.986591	-0.130786	0.000057
C44	C	1.486591	0.369214	0.500057
C45	C	1.058599	-0.353059	0.000047
C46	C	1.558599	0.146941	0.500047
C47	C	1.057075	-0.439779	0.000040
C48	C	1.557075	0.060221	0.500040
C49	C	0.905586	-0.419905	0.000034
C50	C	1.405586	0.080095	0.500034
C51	C	0.907111	-0.333186	0.000035
C52	C	1.407111	0.166814	0.500035
C53	C	0.983620	-0.299766	0.000046
C54	C	1.483620	0.200234	0.500046
C55	C	0.980571	-0.473205	0.000038
C56	C	1.480571	0.026795	0.500038
C57	C	0.978918	-0.567231	0.000030
C58	C	1.478918	-0.067231	0.500030
C59	C	0.985273	-0.205734	0.000052
C60	C	1.485273	0.294266	0.500052
C61	C	1.134101	0.107404	0.000053
C62	C	1.634101	0.607404	0.500053
C63	C	1.226397	0.109019	0.000052
C64	C	1.726397	0.609019	0.500052
C65	C	0.975984	0.265521	0.000034
C66	C	1.475984	0.765521	0.500034
C67	C	0.977600	0.357816	0.000027
C68	C	1.477600	0.857816	0.500027
N69	N	0.982088	0.113511	0.228220
N70	N	1.482088	0.613511	0.728220
N71	N	0.982109	0.113512	-0.228129
N72	N	1.482109	0.613512	0.271871
C73	C	1.038644	0.056994	0.453950
C74	C	1.538644	0.556994	0.953950
C75	C	1.038647	0.056992	0.546140
C76	C	1.538647	0.556992	1.046140
C77	C	0.925547	0.170032	0.546135
C78	C	1.425547	0.670032	1.046135
C79	C	0.925541	0.170030	0.453947
C80	C	1.425541	0.670030	0.953947
C81	C	0.982094	0.113511	0.407857
C82	C	1.482094	0.613511	0.907857
C83	C	0.982103	0.113512	0.592235
C84	C	1.482103	0.613512	1.092235
C85	C	0.982105	0.113510	0.692191
C86	C	1.482105	0.613510	1.192191
C87	C	0.982091	0.113512	0.307894
C88	C	1.482091	0.613512	0.807894
H89	H	0.578788	-0.022530	0.000056
H90	H	1.078788	0.477470	0.500056
C91	C	1.139558	-0.498398	0.000048
C92	C	1.639558	0.001602	0.500048
N93	N	1.201688	-0.542550	0.000057
N94	N	1.701688	-0.042550	0.500057
H95	H	0.843295	-0.447127	0.000027
H96	H	1.343295	0.052873	0.500027
H97	H	0.385413	0.249550	0.000041
H98	H	0.885413	0.749550	0.500041
H99	H	0.846050	-0.289792	0.000032
H100	H	1.346050	0.210208	0.500032
C101	C	1.100848	-0.005185	0.403255
C102	C	1.600848	0.494815	0.903255
N103	N	1.147699	-0.052022	0.365074
N104	N	1.647699	0.447978	0.865074
H105	H	0.879503	0.216049	0.583670
H106	H	1.379503	0.716049	1.083670
C107	C	0.411905	-0.047150	0.000054
C108	C	0.911905	0.452850	0.500054
N109	N	0.384210	-0.110538	0.000054
N110	N	0.884210	0.389462	0.500054
C111	C	0.552281	0.274180	0.000035
C112	C	1.052281	0.774180	0.500035
N113	N	0.579965	0.337573	0.000038
N114	N	1.079965	0.837573	0.500038
C115	C	1.142761	-0.316300	0.000049
C116	C	1.642761	0.183700	0.500049
N117	N	1.206154	-0.288615	0.000047
N118	N	1.706154	0.211385	0.500047
H119	H	1.084694	0.010969	0.583667
H120	H	1.584694	0.510969	1.083667
C121	C	0.863366	0.232244	0.403241
C122	C	1.363366	0.732244	0.903241
N123	N	0.816550	0.279115	0.365049
N124	N	1.316550	0.779115	0.865049
