data_functionalizedCrystal
_audit_creation_method	'MofGen! by Chris Wilmer'
_symmetry_space_group_name_H-M	'P1'
_symmetry_Int_Tables_number	1
_symmetry_cell_setting	triclinic
loop_
_symmetry_equiv_pos_as_xyz
  x,y,z
_cell_length_a	14.044220
_cell_length_b	17.038275
_cell_length_c	13.101039
_cell_angle_alpha	93.601678
_cell_angle_beta	93.667477
_cell_angle_gamma	87.850425
loop_
_atom_site_label
_atom_site_type_symbol
_atom_site_fract_x
_atom_site_fract_y
_atom_site_fract_z
O1	O	0.202072	-1.055807	-0.085240
O2	O	0.702072	-0.555807	0.414760
O3	O	0.198788	-0.827946	-0.085237
O4	O	0.698788	-0.327946	0.414763
O5	O	0.062170	-0.938456	-0.085228
O6	O	0.562170	-0.438456	0.414772
O7	O	0.338690	-0.945297	-0.085249
O8	O	0.838690	-0.445297	0.414751
O9	O	0.071990	-0.930528	0.085201
O10	O	0.571990	-0.430528	0.585201
O11	O	0.208608	-0.820019	0.085192
O12	O	0.708608	-0.320019	0.585192
O13	O	0.211891	-1.047879	0.085189
O14	O	0.711891	-0.547879	0.585189
Zn15	Zn	0.211808	-0.932690	0.112250
Zn16	Zn	0.711808	-0.432690	0.612250
Zn17	Zn	0.198871	-0.943135	-0.112298
Zn18	Zn	0.698871	-0.443135	0.387702
O19	O	0.348509	-0.937370	0.085180
O20	O	0.848509	-0.437370	0.585180
C21	C	0.200709	-0.794645	-0.000022
C22	C	0.700709	-0.294645	0.499978
C23	C	0.191791	-0.707228	-0.000021
C24	C	0.691791	-0.207228	0.499979
C25	C	0.031524	-0.931498	-0.000013
C26	C	0.531524	-0.431498	0.499987
C27	C	-0.074422	-0.922567	-0.000012
C28	C	0.425578	-0.422567	0.499988
C29	C	-0.268400	-0.906239	-0.000027
C30	C	0.231600	-0.406239	0.499973
C31	C	-0.320927	-0.969584	-0.000030
C32	C	0.179073	-0.469584	0.499970
C33	C	-0.428863	-0.960499	-0.000039
C34	C	0.071137	-0.460499	0.499961
C35	C	-0.160454	-0.915323	-0.000019
C36	C	0.339546	-0.415323	0.499981
C37	C	0.137004	-0.212983	-0.000015
C38	C	0.637004	0.287017	0.499985
C39	C	0.145391	-0.295120	-0.000011
C40	C	0.645391	0.204880	0.499989
C41	C	0.235665	-0.332870	-0.000022
C42	C	0.735665	0.167130	0.499978
C43	C	0.317559	-0.288478	-0.000028
C44	C	0.817559	0.211522	0.499972
C45	C	0.309172	-0.206342	-0.000026
C46	C	0.809172	0.293658	0.499974
C47	C	0.265297	-0.580700	-0.000024
C48	C	0.765297	-0.080700	0.499976
C49	C	0.273678	-0.662842	-0.000030
C50	C	0.773678	-0.162842	0.499970
C51	C	0.101509	-0.669479	-0.000011
C52	C	0.601509	-0.169479	0.499989
C53	C	0.093129	-0.587342	-0.000014
C54	C	0.593129	-0.087342	0.499986
C55	C	0.175023	-0.542957	-0.000015
C56	C	0.675023	-0.042957	0.499985
C57	C	0.244240	-0.416827	-0.000021
C58	C	0.744240	0.083173	0.499979
C59	C	0.166448	-0.459001	-0.000009
C60	C	0.666448	0.040999	0.499991
C61	C	0.379155	-0.944328	-0.000037
C62	C	0.879155	-0.444328	0.499963
C63	C	0.485101	-0.953260	-0.000045
C64	C	0.985101	-0.453260	0.499955
N65	N	0.220638	-0.925568	0.265498
N66	N	0.720638	-0.425568	0.765498
C67	C	0.209971	-0.081181	-0.000025
C68	C	0.709971	0.418819	0.499975
C69	C	0.218891	-0.168597	-0.000024
C70	C	0.718891	0.331403	0.499976
N71	N	0.190034	-0.950264	-0.265546
N72	N	0.690034	-0.450264	0.234454
C73	C	0.232660	-0.915877	0.474540
C74	C	0.732660	-0.415877	0.974540
C75	C	0.178016	-0.959952	0.525419
C76	C	0.678016	-0.459952	1.025419
C77	C	0.184705	-0.954560	0.641737
C78	C	0.684705	-0.454560	1.141737
C79	C	0.225972	-0.921268	0.358211
C80	C	0.725972	-0.421268	0.858211
H81	H	-0.284837	-1.030642	-0.000100
H82	H	0.215163	-0.530642	0.499900
H83	H	0.126211	-1.001735	0.481620
H84	H	0.626211	-0.501735	0.981620
C85	C	0.302621	-0.859417	0.533695
C86	C	0.802621	-0.359417	1.033695
H87	H	0.336019	-0.832461	0.486479
H88	H	0.836019	-0.332461	0.986479
H89	H	0.346912	-0.888601	0.575557
H90	H	0.846912	-0.388601	1.075557
H91	H	0.268079	-0.822341	0.575543
H92	H	0.768079	-0.322341	1.075543
C93	C	-0.317153	-0.823764	-0.000017
C94	C	0.182847	-0.323764	0.499983
H95	H	-0.384353	-0.828401	-0.000012
H96	H	0.115647	-0.328401	0.499988
H97	H	-0.302019	-0.798763	-0.059443
H98	H	0.197981	-0.298763	0.440557
H99	H	-0.295180	-0.793250	0.059430
H100	H	0.204820	-0.293250	0.559430
H101	H	0.375854	-0.170203	-0.000029
H102	H	0.875854	0.329797	0.499971
H103	H	0.092946	-0.428262	-0.000011
H104	H	0.592946	0.071738	0.499989
H105	H	0.317742	-0.447572	-0.000033
H106	H	0.817742	0.052428	0.499967
C107	C	0.355377	-0.531887	-0.000034
C108	C	0.855377	-0.031887	0.499966
H109	H	0.410339	-0.566136	-0.000053
H110	H	0.910339	-0.066136	0.499947
H111	H	0.359116	-0.496944	0.059400
H112	H	0.859116	0.003056	0.559400
H113	H	0.352257	-0.502473	-0.059473
H114	H	0.852257	-0.002473	0.440527
C115	C	0.037701	-0.171466	-0.000002
C116	C	0.537701	0.328534	0.499998
H117	H	-0.009866	-0.209667	0.000014
H118	H	0.490134	0.290333	0.500014
H119	H	0.027419	-0.142326	-0.059432
H120	H	0.527419	0.357674	0.440568
H121	H	0.034280	-0.136800	0.059441
H122	H	0.534280	0.363200	0.559441
C123	C	0.055314	-0.343942	-0.000002
C124	C	0.555314	0.156058	0.499998
H125	H	0.000348	-0.309697	-0.000007
H126	H	0.500348	0.190303	0.499993
H127	H	0.058431	-0.373355	0.059431
H128	H	0.558431	0.126645	0.559431
H129	H	0.051582	-0.378887	-0.059441
H130	H	0.551582	0.121113	0.440559
H131	H	0.034836	-0.705626	-0.000009
H132	H	0.534836	-0.205626	0.499991
C133	C	-0.006173	-0.545822	0.000011
C134	C	0.493827	-0.045822	0.500011
H135	H	-0.053741	-0.584021	0.000027
H136	H	0.446259	-0.084021	0.500027
H137	H	-0.016455	-0.516681	-0.059417
H138	H	0.483545	-0.016681	0.440583
H139	H	-0.009588	-0.511158	0.059455
H140	H	0.490412	-0.011158	0.559455
C141	C	0.416861	-0.329996	-0.000044
C142	C	0.916861	0.170004	0.499956
H143	H	0.464430	-0.291795	-0.000041
H144	H	0.964430	0.208205	0.499959
H145	H	0.420283	-0.364662	-0.059480
H146	H	0.920283	0.135338	0.440520
H147	H	0.427141	-0.359136	0.059393
H148	H	0.927141	0.140864	0.559393
H149	H	0.347195	-0.693574	-0.000025
H150	H	0.847195	-0.193574	0.499975
