data_functionalizedCrystal
_audit_creation_method	'MofGen! by Chris Wilmer'
_symmetry_space_group_name_H-M	'P1'
_symmetry_Int_Tables_number	1
_symmetry_cell_setting	triclinic
loop_
_symmetry_equiv_pos_as_xyz
  x,y,z
_cell_length_a	10.654562
_cell_length_b	9.130313
_cell_length_c	17.699083
_cell_angle_alpha	90.005213
_cell_angle_beta	96.113441
_cell_angle_gamma	90.003070
loop_
_atom_site_label
_atom_site_type_symbol
_atom_site_fract_x
_atom_site_fract_y
_atom_site_fract_z
O1	O	1.665963	0.121872	-0.106345
O2	O	1.300310	0.121852	-0.116463
O3	O	1.493467	0.121877	-0.001281
O4	O	1.472806	0.121847	-0.221527
O5	O	1.493465	-0.121722	-0.001284
O6	O	1.300307	-0.121747	-0.116466
O7	O	1.665961	-0.121726	-0.106348
Cu8	Cu	1.483134	-0.143979	-0.111407
Cu9	Cu	1.483137	0.144105	-0.111404
O10	O	1.472804	-0.121752	-0.221530
C11	C	1.253524	0.000050	-0.115719
C12	C	1.114120	0.000044	-0.113491
C13	C	1.048607	-0.132730	-0.112453
C14	C	0.917621	-0.132706	-0.110365
C15	C	0.917674	0.132879	-0.110356
C16	C	1.048658	0.132853	-0.112438
C17	C	1.114069	-0.265540	-0.113505
C18	C	1.048555	-0.398325	-0.112468
C19	C	0.917569	-0.398300	-0.110380
C20	C	0.852097	-0.265490	-0.109329
N21	N	1.483141	-0.346602	-0.111409
C22	C	1.568693	-0.423243	-0.060424
C23	C	1.568689	-0.576579	-0.060415
C24	C	1.397579	-0.576621	-0.162383
C25	C	1.397577	-0.423287	-0.162388
C26	C	1.654257	-0.346557	-0.009446
C27	C	1.739816	-0.423198	0.041543
C28	C	1.739813	-0.576535	0.041552
C29	C	1.654250	-0.653231	-0.009428
C30	C	1.712747	0.000078	-0.107091
C31	C	1.852150	0.000095	-0.109320
N32	N	1.483140	0.346727	-0.111395
C33	C	1.473545	0.000044	-0.249730
C34	C	1.475766	0.000034	-0.333763
C35	C	1.362387	0.000027	-0.381660
C36	C	1.364481	0.000045	-0.460616
C37	C	1.479956	0.000058	-0.491674
C38	C	1.593344	0.000069	-0.443771
C39	C	1.591248	0.000062	-0.364816
C40	C	1.601798	0.000098	-0.762188
C41	C	1.603885	0.000101	-0.841150
C42	C	1.375031	0.000081	-0.857988
C43	C	1.372935	0.000074	-0.779033
C44	C	1.486323	0.000093	-0.731137
C45	C	1.484050	0.000077	-0.645523
C46	C	1.482230	0.000063	-0.577287
C47	C	1.492726	0.000085	0.026920
C48	C	1.490505	0.000105	0.110952
H49	H	0.864356	0.241006	-0.109502
H50	H	1.327912	-0.360885	-0.203904
Cl51	Cl	1.847364	-0.326785	0.105635
Cl52	Cl	1.217209	-0.000000	-0.342624
H53	H	1.809471	-0.638935	0.083074
H54	H	1.697924	0.000113	-0.866433
Cl55	Cl	1.221940	0.000050	-0.520827
Cl56	Cl	1.227761	0.000053	-0.739994
H57	H	1.687366	0.000077	-0.469065
Cl58	Cl	1.733789	0.000079	-0.304602
H59	H	1.282706	0.000072	-0.896996
Cl60	Cl	1.744343	0.000106	-0.701986
H61	H	1.102000	0.240969	-0.113287
H62	H	1.220723	-0.265575	-0.115208
Cl63	Cl	1.130861	-0.565275	-0.113781
Cl64	Cl	0.687433	-0.265464	-0.106683
Cl65	Cl	1.654270	-0.153792	-0.009457
Cl66	Cl	0.835213	-0.565225	-0.109071
Cl67	Cl	1.654242	-0.845999	-0.009406
H68	H	1.327918	-0.639077	-0.203889
