data_functionalizedCrystal
_audit_creation_method	'MofGen! by Chris Wilmer'
_symmetry_space_group_name_H-M	'P1'
_symmetry_Int_Tables_number	1
_symmetry_cell_setting	triclinic
loop_
_symmetry_equiv_pos_as_xyz
  x,y,z
_cell_length_a	19.805407
_cell_length_b	18.215405
_cell_length_c	18.215399
_cell_angle_alpha	90.030551
_cell_angle_beta	89.979366
_cell_angle_gamma	89.975115
loop_
_atom_site_label
_atom_site_type_symbol
_atom_site_fract_x
_atom_site_fract_y
_atom_site_fract_z
Zn1	Zn	1.034750	0.292992	-0.416118
Zn2	Zn	1.368083	0.626325	-0.082785
Zn3	Zn	1.701417	0.959658	0.250548
Zn4	Zn	1.034666	0.416063	-0.293046
Zn5	Zn	1.367999	0.749396	0.040287
Zn6	Zn	1.701332	1.082730	0.373620
Zn7	Zn	0.921562	0.293015	-0.293064
Zn8	Zn	1.254896	0.626348	0.040269
Zn9	Zn	1.588229	0.959682	0.373603
Zn10	Zn	0.921531	0.416021	-0.416070
Zn11	Zn	1.254864	0.749354	-0.082736
Zn12	Zn	1.588198	1.082688	0.250597
O13	O	0.978127	0.354523	-0.354575
O14	O	1.311461	0.687856	-0.021241
O15	O	1.644794	1.021189	0.312092
O16	O	1.129455	0.309325	-0.399806
O17	O	1.462789	0.642659	-0.066472
O18	O	1.796122	0.975992	0.266861
O19	O	1.019640	0.399768	-0.190064
O20	O	1.352974	0.733101	0.143269
O21	O	1.686307	1.066434	0.476602
O22	O	0.936625	0.190028	-0.309415
O23	O	1.269959	0.523361	0.023918
O24	O	1.603292	0.856694	0.357252
O25	O	1.129393	0.399745	-0.309385
O26	O	1.462727	0.733079	0.023948
O27	O	1.796060	1.066412	0.357281
O28	O	1.019784	0.190011	-0.399823
O29	O	1.353117	0.523344	-0.066489
O30	O	1.686450	0.856677	0.266844
O31	O	0.936544	0.309365	-0.190077
O32	O	1.269877	0.642698	0.143256
O33	O	1.603210	0.976031	0.476589
O34	O	0.826842	0.309324	-0.309368
O35	O	1.160175	0.642657	0.023965
O36	O	1.493508	0.975991	0.357299
O37	O	0.936572	0.399674	-0.519060
O38	O	1.269905	0.733007	-0.185727
O39	O	1.603239	1.066340	0.147606
O40	O	0.826819	0.399696	-0.399740
O41	O	1.160152	0.733030	-0.066406
O42	O	1.493485	1.066363	0.266927
O43	O	1.019753	0.309285	-0.519096
O44	O	1.353087	0.642618	-0.185763
O45	O	1.686420	0.975951	0.147571
O46	O	1.019610	0.519042	-0.309338
O47	O	1.352943	0.852375	0.023995
O48	O	1.686276	1.185708	0.357329
O49	O	0.936490	0.519011	-0.399723
O50	O	1.269824	0.852344	-0.066389
O51	O	1.603157	1.185678	0.266944
C52	C	0.978056	0.545729	-0.354539
C53	C	1.311389	0.879062	-0.021206
C54	C	1.644722	1.212396	0.312128
C55	C	0.978087	0.627528	-0.354549
C56	C	1.311421	0.960861	-0.021215
C57	C	1.644754	1.294195	0.312118
C58	C	0.802271	0.354509	-0.354551
C59	C	1.135605	0.687842	-0.021217
C60	C	1.468938	1.021175	0.312116
C61	C	0.727039	0.354520	-0.354558
C62	C	1.060373	0.687854	-0.021225
C63	C	1.393706	1.021187	0.312109
C64	C	0.978169	0.354472	-0.546528
C65	C	1.311502	0.687805	-0.213194
C66	C	1.644835	1.021139	0.120139
C67	C	0.978186	0.354450	-0.628327
C68	C	1.311519	0.687784	-0.294993
C69	C	1.644853	1.021117	0.038340
C70	C	0.691701	0.401648	-0.401538
C71	C	1.025034	0.734981	-0.068205
C72	C	1.358368	1.068315	0.265128
C73	C	0.621012	0.401649	-0.401549
C74	C	0.954346	0.734983	-0.068215
C75	C	1.287679	1.068316	0.265118
C76	C	0.585664	0.354526	-0.354575
C77	C	0.918997	0.687859	-0.021241
C78	C	1.252330	1.021193	0.312092
C79	C	0.621007	0.307393	-0.307592
C80	C	0.954340	0.640727	0.025741
C81	C	1.287674	0.974060	0.359075
C82	C	0.691694	0.307389	-0.307586
C83	C	1.025028	0.640722	0.025747
C84	C	1.358361	0.974056	0.359081
C85	C	0.335934	0.307410	-0.307616
C86	C	0.669267	0.640743	0.025717
C87	C	1.002600	0.974076	0.359050
C88	C	0.265242	0.307419	-0.307625
C89	C	0.598575	0.640753	0.025709
C90	C	0.931908	0.974086	0.359042
C91	C	0.265252	0.401670	-0.401579
C92	C	0.598585	0.735003	-0.068246
C93	C	0.931919	1.068337	0.265087
C94	C	0.335939	0.401666	-0.401573
C95	C	0.669272	0.734999	-0.068240
C96	C	1.002606	1.068332	0.265094
C97	C	0.371276	0.354530	-0.354594
C98	C	0.704610	0.687864	-0.021260
C99	C	1.037943	1.021197	0.312073
C100	C	0.447925	0.354529	-0.354584
C101	C	0.781258	0.687862	-0.021251
C102	C	1.114591	1.021195	0.312083
C103	C	0.509017	0.354531	-0.354580
C104	C	0.842350	0.687864	-0.021247
C105	C	1.175683	1.021198	0.312087
C106	C	1.154670	0.354537	-0.354599
C107	C	1.488003	0.687871	-0.021266
C108	C	1.821337	1.021204	0.312068
C109	C	1.229902	0.354544	-0.354609
C110	C	1.563235	0.687877	-0.021276
C111	C	1.896569	1.021210	0.312057
C112	C	0.978217	0.162570	-0.354626
C113	C	1.311551	0.495903	-0.021293
C114	C	1.644884	0.829236	0.312040
C115	C	0.978256	0.080771	-0.354648
C116	C	1.311589	0.414104	-0.021315
C117	C	1.644923	0.747438	0.312018
C118	C	1.021469	0.815713	-0.307572
C119	C	1.354802	1.149047	0.025761
C120	C	1.688136	1.482380	0.359095
C121	C	1.021499	0.892572	-0.307590
C122	C	1.354833	1.225905	0.025744
C123	C	1.688166	1.559239	0.359077
C124	C	0.934872	0.892580	-0.401630
C125	C	1.268205	1.225913	-0.068297
C126	C	1.601539	1.559247	0.265037
C127	C	0.934846	0.815723	-0.401615
C128	C	1.268179	1.149056	-0.068282
C129	C	1.601512	1.482389	0.265051
C130	C	0.978143	0.777291	-0.354582
C131	C	1.311477	1.110625	-0.021249
C132	C	1.644810	1.443958	0.312084
C133	C	0.978200	0.931007	-0.354615
C134	C	1.311533	1.264341	-0.021281
C135	C	1.644867	1.597674	0.312052
C136	C	0.978232	1.014341	-0.354634
C137	C	1.311566	1.347674	-0.021301
C138	C	1.644899	1.681008	0.312032
C139	C	0.978112	0.693952	-0.354563
C140	C	1.311445	1.027286	-0.021230
C141	C	1.644778	1.360619	0.312103
C142	C	1.021514	0.307341	-0.816540
C143	C	1.354848	0.640674	-0.483207
C144	C	1.688181	0.974007	-0.149874
C145	C	1.021522	0.307319	-0.893399
C146	C	1.354856	0.640653	-0.560066
C147	C	1.688189	0.973986	-0.226732
C148	C	0.934906	0.401446	-0.893351
C149	C	1.268239	0.734780	-0.560017
C150	C	1.601573	1.068113	-0.226684
C151	C	0.934895	0.401463	-0.816493
C152	C	1.268228	0.734797	-0.483160
C153	C	1.601562	1.068130	-0.149827
C154	C	0.978203	0.354412	-0.778090
C155	C	1.311536	0.687745	-0.444757
C156	C	1.644870	1.021078	-0.111423
C157	C	0.978222	0.354373	-0.931806
C158	C	1.311555	0.687706	-0.598473
C159	C	1.644889	1.021040	-0.265140
C160	C	0.978230	0.354350	-1.015140
C161	C	1.311564	0.687684	-0.681807
C162	C	1.644897	1.021017	-0.348473
C163	C	0.978194	0.354433	-0.694751
C164	C	1.311527	0.687767	-0.361418
C165	C	1.644860	1.021100	-0.028084
C166	C	0.978125	0.354520	-0.163368
C167	C	1.311459	0.687854	0.169965
C168	C	1.644792	1.021187	0.503298
C169	C	0.978239	0.354334	-0.081570
C170	C	1.311572	0.687668	0.251763
C171	C	1.644905	1.021001	0.585097
H172	H	0.720477	0.440024	-0.439788
H173	H	1.053810	0.773357	-0.106455
H174	H	1.387143	1.106690	0.226879
O175	O	0.888102	0.774281	-0.452315
O176	O	1.221435	1.107614	-0.118981
O177	O	1.554768	1.440948	0.214352
H178	H	0.899672	0.788983	-0.510090
H179	H	1.233006	1.122317	-0.176757
H180	H	1.566339	1.455650	0.156576
H181	H	0.899621	0.439794	-0.785186
H182	H	1.232954	0.773127	-0.451853
H183	H	1.566287	1.106460	-0.118520
H184	H	1.056726	0.784424	-0.269276
H185	H	1.390059	1.117758	0.064058
H186	H	1.723392	1.451091	0.397391
H187	H	0.899620	0.923880	-0.439922
H188	H	1.232953	1.257213	-0.106588
H189	H	1.566286	1.590547	0.226745
H190	H	0.364697	0.269035	-0.269357
H191	H	0.698030	0.602368	0.063976
H192	H	1.031364	0.935701	0.397309
H193	H	1.056790	0.268988	-0.924702
H194	H	1.390123	0.602322	-0.591369
H195	H	1.723456	0.935655	-0.258035
O196	O	1.068217	0.256590	-0.775116
O197	O	1.401550	0.589923	-0.441783
O198	O	1.734884	0.923256	-0.108449
H199	H	1.098331	0.223850	-0.814769
H200	H	1.431664	0.557183	-0.481435
H201	H	1.764997	0.890517	-0.148102
O202	O	1.068238	0.934010	-0.256891
O203	O	1.401571	1.267343	0.076442
O204	O	1.734905	1.600677	0.409775
H205	H	1.060993	0.993911	-0.264810
H206	H	1.394326	1.327244	0.068524
H207	H	1.727660	1.660577	0.401857
O208	O	0.888197	0.452195	-0.934770
O209	O	1.221530	0.785528	-0.601437
O210	O	1.554864	1.118862	-0.268103
H211	H	0.895484	0.444280	-0.994674
H212	H	1.228817	0.777613	-0.661341
H213	H	1.562150	1.110947	-0.328007
H214	H	0.364717	0.440041	-0.439822
H215	H	0.698050	0.773374	-0.106489
H216	H	1.031383	1.106707	0.226845
O217	O	0.582895	0.452620	-0.452079
O218	O	0.916228	0.785953	-0.118745
O219	O	1.249561	1.119287	0.214588
H220	H	0.619350	0.485444	-0.484683
H221	H	0.952684	0.818777	-0.151350
H222	H	1.286017	1.152111	0.181983
O223	O	0.227164	0.452530	-0.452257
O224	O	0.560498	0.785863	-0.118924
O225	O	0.893831	1.119196	0.214409
H226	H	0.194987	0.419671	-0.489789
H227	H	0.528321	0.753004	-0.156456
H228	H	0.861654	1.086338	0.176877
O229	O	0.227111	0.256585	-0.256964
O230	O	0.560444	0.589918	0.076369
O231	O	0.893778	0.923252	0.409702
H232	H	0.263558	0.223802	-0.224301
H233	H	0.596892	0.557135	0.109032
H234	H	0.930225	0.890468	0.442366
H235	H	0.720466	0.269009	-0.269334
H236	H	1.053799	0.602342	0.064000
H237	H	1.387133	0.935675	0.397333
H238	H	0.592221	0.269022	-0.269348
H239	H	0.925554	0.602355	0.063985
H240	H	1.258887	0.935688	0.397319
