data_functionalizedCrystal
_audit_creation_method	'MofGen! by Chris Wilmer'
_symmetry_space_group_name_H-M	'P1'
_symmetry_Int_Tables_number	1
_symmetry_cell_setting	triclinic
loop_
_symmetry_equiv_pos_as_xyz
  x,y,z
_cell_length_a	27.731994
_cell_length_b	27.732048
_cell_length_c	9.130313
_cell_angle_alpha	89.990549
_cell_angle_beta	90.002567
_cell_angle_gamma	82.631595
loop_
_atom_site_label
_atom_site_type_symbol
_atom_site_fract_x
_atom_site_fract_y
_atom_site_fract_z
O1	O	0.640944	0.057392	-0.121606
O2	O	0.500146	0.066165	-0.121657
O3	O	0.574918	-0.008619	-0.121602
O4	O	0.566172	0.132176	-0.121661
O5	O	0.574913	-0.008621	0.121997
O6	O	0.500141	0.066163	0.121942
O7	O	0.640939	0.057390	0.121993
Cu8	Cu	0.570540	0.061776	0.144210
Cu9	Cu	0.570546	0.061779	-0.143874
O10	O	0.566167	0.132174	0.121938
C11	C	0.482137	0.065984	0.000136
C12	C	0.428480	0.065442	0.000118
C13	C	0.095759	0.062025	0.132962
C14	C	-0.105899	0.059963	0.132979
O15	O	-0.131974	0.059675	0.245908
N16	N	-0.131111	0.059708	0.000194
C17	C	-0.105905	0.059966	-0.132606
O18	O	-0.131976	0.059696	-0.245547
C19	C	0.095752	0.062024	-0.132622
C20	C	0.120961	0.062283	0.000173
C21	C	0.120968	0.062284	0.265745
C22	C	0.171379	0.062802	0.265739
C23	C	0.196581	0.063061	0.132950
C24	C	0.171372	0.062801	0.000167
C25	C	0.120958	0.062278	-0.265419
C26	C	0.171376	0.062791	-0.265412
C27	C	0.196585	0.063051	-0.132617
C28	C	0.246986	0.063578	-0.132628
N29	N	0.272198	0.063833	0.000158
C30	C	0.246996	0.063574	0.132947
C31	C	-0.211779	0.058886	-0.132588
C32	C	-0.262193	0.058372	-0.132584
C33	C	-0.262183	0.058369	0.133001
C34	C	-0.211768	0.058886	0.132996
C35	C	-0.186566	0.059141	0.000198
C36	C	0.352863	0.064663	0.132925
C37	C	0.403278	0.065183	0.132907
C38	C	0.403264	0.065184	-0.132677
C39	C	0.352853	0.064666	-0.132661
C40	C	0.327654	0.064404	0.000152
O41	O	0.273093	0.063861	-0.245498
O42	O	0.273077	0.063833	0.245872
C43	C	0.045348	0.061507	0.132967
C44	C	0.020139	0.061247	0.000184
C45	C	0.045341	0.061506	-0.132605
C46	C	-0.030275	0.060734	0.000188
C47	C	-0.055478	0.060475	0.132977
C48	C	-0.030266	0.060730	0.265762
C49	C	0.020146	0.061248	0.265757
C50	C	0.020129	0.061251	-0.265390
C51	C	-0.030282	0.060734	-0.265374
C52	C	-0.055484	0.060475	-0.132585
C53	C	0.574732	-0.026627	0.000201
C54	C	0.574179	-0.080282	0.000213
C55	C	0.614884	-0.419105	0.000153
C56	C	0.612833	-0.620764	0.000132
O57	O	0.650055	-0.652027	0.000081
N58	N	0.568496	-0.639879	0.000117
C59	C	0.524670	-0.608576	0.000098
O60	O	0.486912	-0.629462	0.000070
C61	C	0.526721	-0.406918	0.000109
C62	C	0.571061	-0.387805	0.000138
C63	C	0.659220	-0.399992	0.000181
C64	C	0.659732	-0.349580	0.000194
C65	C	0.615908	-0.318281	0.000179
C66	C	0.571573	-0.337394	0.000151
C67	C	0.482895	-0.375615	0.000079
C68	C	0.483412	-0.325198	0.000078
C69	C	0.527751	-0.306086	0.000108
C70	C	0.528262	-0.255683	0.000150
N71	N	0.572598	-0.236567	0.000165
C72	C	0.616421	-0.267867	0.000179
C73	C	0.523596	-0.714450	0.000095
C74	C	0.523083	-0.764864	0.000095
C75	C	0.611246	-0.777049	0.000126
C76	C	0.611759	-0.726633	0.000137
C77	C	0.567932	-0.695335	0.000110
C78	C	0.617494	-0.161998	0.000208
C79	C	0.618002	-0.111581	0.000228
C80	C	0.529839	-0.099401	0.000189
C81	C	0.529331	-0.149813	0.000178
C82	C	0.573162	-0.181111	0.000182
O83	O	0.491060	-0.224391	0.000184
O84	O	0.654174	-0.246971	0.000175
C85	C	0.614372	-0.469517	0.000139
C86	C	0.570036	-0.488629	0.000112
C87	C	0.526213	-0.457330	0.000097
C88	C	0.569523	-0.539043	0.000111
C89	C	0.613346	-0.570343	0.000126
C90	C	0.657683	-0.551228	0.000141
C91	C	0.658195	-0.500816	0.000154
C92	C	0.481876	-0.476445	0.000082
C93	C	0.481367	-0.526857	0.000071
C94	C	0.525191	-0.558157	0.000085
C95	C	0.658949	0.057571	0.000196
C96	C	0.712605	0.058114	0.000205
C97	C	0.566353	0.150182	0.000131
C98	C	0.566906	0.203837	0.000110
N99	N	0.570539	0.061774	0.346832
N100	N	0.570550	0.061777	-0.346497
C101	C	0.603659	0.028674	0.423509
C102	C	0.603663	0.028674	0.576845
C103	C	0.537427	0.094879	0.576816
C104	C	0.537420	0.094877	0.423482
H105	H	0.191900	0.063011	0.373874
F106	F	0.198195	0.063061	-0.406758
H107	H	0.630632	0.001719	0.639271
F108	F	0.502166	0.130107	0.341871
F109	F	0.706924	-0.329246	0.000194
F110	F	-0.184944	0.059162	0.274332
F111	F	0.430095	0.065458	-0.273994
H112	H	-0.282712	0.058159	0.241123
F113	F	0.436764	-0.291890	0.000046
F114	F	0.502182	0.130109	0.658403
H115	H	0.694301	-0.485260	0.000178
F116	F	0.326051	0.064383	0.274279
F117	F	0.658950	-0.706298	0.000168
F118	F	-0.057097	0.060457	0.407086
H119	H	0.423800	0.065396	0.241049
H120	H	0.693365	-0.576720	0.000159
H121	H	0.100454	0.062072	0.373884
F122	F	0.435702	-0.395945	0.000041
H123	H	0.646929	-0.802541	0.000139
F124	F	0.705867	-0.433296	0.000195
H125	H	-0.282715	0.058169	-0.240719
H126	H	0.486977	-0.780420	0.000096
F127	F	-0.184963	0.059158	-0.273940
H128	H	0.100442	0.062065	-0.373555
F129	F	0.326022	0.064397	-0.273994
F130	F	-0.057106	0.060461	-0.406722
F131	F	0.476946	-0.681145	0.000066
F132	F	0.046968	0.061524	0.407096
F133	F	0.638905	-0.006558	0.341938
H134	H	0.040644	0.061461	-0.373526
H135	H	0.654110	-0.096023	0.000256
F136	F	0.664144	-0.195300	0.000213
H137	H	0.493226	-0.165375	0.000194
H138	H	0.494160	-0.073908	0.000182
H139	H	0.445258	-0.542413	0.000059
H140	H	0.446189	-0.450966	0.000067
