data_functionalizedCrystal
_audit_creation_method	'MofGen! by Chris Wilmer'
_symmetry_space_group_name_H-M	'P1'
_symmetry_Int_Tables_number	1
_symmetry_cell_setting	triclinic
loop_
_symmetry_equiv_pos_as_xyz
  x,y,z
_cell_length_a	12.759395
_cell_length_b	16.959454
_cell_length_c	12.759387
_cell_angle_alpha	90.030080
_cell_angle_beta	90.020509
_cell_angle_gamma	90.021612
loop_
_atom_site_label
_atom_site_type_symbol
_atom_site_fract_x
_atom_site_fract_y
_atom_site_fract_z
Zn1	Zn	1.606229	-0.314607	0.594010
Zn2	Zn	1.606104	-0.446808	0.418333
Zn3	Zn	1.430528	-0.314651	0.418347
Zn4	Zn	1.430504	-0.446751	0.593972
O5	O	1.518341	-0.380704	0.506166
O6	O	1.753234	-0.332150	0.570716
O7	O	1.582770	-0.429318	0.271314
O8	O	1.453898	-0.204034	0.441671
O9	O	1.753141	-0.429276	0.441647
O10	O	1.582985	-0.204002	0.570730
O11	O	1.453776	-0.332223	0.271324
O12	O	1.283503	-0.332169	0.441634
O13	O	1.453857	-0.429181	0.740998
O14	O	1.283486	-0.429222	0.570665
O15	O	1.582962	-0.332095	0.741026
O16	O	1.582747	-0.557411	0.441610
O17	O	1.453734	-0.557370	0.570651
C18	C	1.245374	-0.380695	0.506148
C19	C	1.128597	-0.380710	0.506165
C20	C	1.128617	-0.481935	0.640307
C21	C	1.073766	-0.532554	0.707381
C22	C	0.964045	-0.532564	0.707394
C23	C	0.909171	-0.481947	0.640328
C24	C	0.964022	-0.431328	0.573254
C25	C	1.073746	-0.431326	0.573246
C26	C	0.964002	-0.330100	0.439118
C27	C	1.073723	-0.330093	0.439098
C28	C	0.909128	-0.279483	0.372052
C29	C	0.963979	-0.228867	0.304971
C30	C	1.073707	-0.228860	0.304960
C31	C	1.128574	-0.279474	0.372024
C32	C	1.518253	-0.586071	0.506148
C33	C	1.518311	-0.673927	0.506175
C34	C	1.451262	-1.045411	0.573350
C35	C	1.585713	-1.045394	0.439088
C36	C	1.585676	-0.962848	0.439078
C37	C	1.518430	-0.921580	0.506205
C38	C	1.451221	-0.962858	0.573340
C39	C	1.652877	-0.921565	0.371936
C40	C	1.652842	-0.839014	0.371923
C41	C	1.585601	-0.797744	0.439055
C42	C	1.518389	-0.839026	0.506195
C43	C	1.451143	-0.797758	0.573321
C44	C	1.383936	-0.839039	0.640466
C45	C	1.383979	-0.921588	0.640473
C46	C	1.585558	-0.715195	0.439049
C47	C	1.451102	-0.715205	0.573311
C48	C	1.792374	-0.380714	0.506184
C49	C	1.909151	-0.380719	0.506192
C50	C	1.518420	-0.380627	0.780199
C51	C	1.518454	-0.380594	0.896976
C52	C	1.518458	-0.174536	0.506207
C53	C	1.518508	-0.086679	0.506224
C54	C	1.518322	-0.380724	0.233198
C55	C	1.518492	-0.380535	0.116422
C56	C	1.652900	-0.279505	0.897025
C57	C	1.720138	-0.228949	0.951910
C58	C	1.720164	-0.228920	1.061632
C59	C	1.652942	-0.279451	1.116471
C60	C	1.585704	-0.330007	1.061586
C61	C	1.585688	-0.330032	0.951861
C62	C	1.451254	-0.431091	1.061537
C63	C	1.451233	-0.431125	0.951815
C64	C	1.384033	-0.481622	1.116375
C65	C	1.316799	-0.532183	1.061490
C66	C	1.316777	-0.532211	0.951762
C67	C	1.383995	-0.481681	0.896930
H68	H	1.118456	-0.573764	0.761987
C69	C	1.309971	-0.793639	0.714301
H70	H	1.319579	-0.738565	0.704676
H71	H	1.239393	-0.807214	0.698873
H72	H	1.325327	-0.807119	0.784913
H73	H	1.384054	-0.481592	1.205717
H74	H	1.217915	-0.279475	0.372019
H75	H	1.640272	-0.681588	0.384375
H76	H	1.329262	-0.955206	0.695138
H77	H	1.217958	-0.481938	0.640296
C78	C	0.903707	-0.588208	0.781219
H79	H	0.952097	-0.618345	0.821170
H80	H	0.860958	-0.557985	0.827053
H81	H	0.860851	-0.622626	0.740985
C82	C	1.726748	-0.793608	0.298055
H83	H	1.717086	-0.738534	0.307652
H84	H	1.797343	-0.807085	0.313474
H85	H	1.711389	-0.807184	0.227455
C86	C	0.788481	-0.481955	0.640348
H87	H	0.763673	-0.519352	0.689897
H88	H	0.763688	-0.430966	0.658636
H89	H	0.763623	-0.495568	0.572516
H90	H	1.396546	-1.079026	0.628021
C91	C	0.788438	-0.279488	0.372063
H92	H	0.763616	-0.242091	0.322522
H93	H	0.763586	-0.330479	0.353774
H94	H	0.763653	-0.265882	0.439901
H95	H	1.396346	-0.681609	0.627978
C96	C	0.903619	-0.173196	0.231209
H97	H	0.830418	-0.180452	0.240823
H98	H	0.921632	-0.120101	0.246704
H99	H	0.921556	-0.184703	0.160584
H100	H	1.640456	-1.079000	0.384431
C101	C	1.652880	-0.279538	0.776335
H102	H	1.702538	-0.242202	0.751536
H103	H	1.671003	-0.330555	0.751503
H104	H	1.585083	-0.265860	0.751506
C105	C	1.134035	-0.173176	0.231180
H106	H	1.085637	-0.143038	0.191240
H107	H	1.176872	-0.138773	0.271447
H108	H	1.176802	-0.203367	0.185316
C109	C	1.726854	-0.966959	0.298119
H110	H	1.717265	-1.022034	0.307756
H111	H	1.711523	-0.953483	0.227507
H112	H	1.797429	-0.953377	0.313574
H113	H	1.774867	-0.187806	0.907249
H114	H	1.774908	-0.187748	1.106320
C115	C	1.652966	-0.279415	1.237162
H116	H	1.702638	-0.242070	1.261995
H117	H	1.585181	-0.265735	1.261974
H118	H	1.671112	-0.330420	1.261974
H119	H	1.262067	-0.573317	1.106149
C120	C	1.383968	-0.481710	0.776239
H121	H	1.334301	-0.519058	0.751402
H122	H	1.365835	-0.430705	0.751432
H123	H	1.451755	-0.495399	0.751425
H124	H	1.262012	-0.573371	0.907081
