data_functionalizedCrystal
_audit_creation_method	'MofGen! by Chris Wilmer'
_symmetry_space_group_name_H-M	'P1'
_symmetry_Int_Tables_number	1
_symmetry_cell_setting	triclinic
loop_
_symmetry_equiv_pos_as_xyz
  x,y,z
_cell_length_a	14.853567
_cell_length_b	8.559649
_cell_length_c	13.330367
_cell_angle_alpha	89.998834
_cell_angle_beta	89.995281
_cell_angle_gamma	76.706797
loop_
_atom_site_label
_atom_site_type_symbol
_atom_site_fract_x
_atom_site_fract_y
_atom_site_fract_z
O1	O	-1.181781	-0.208575	0.083350
O2	O	-0.917583	-0.233423	0.083367
O3	O	-1.072958	0.011551	0.083356
O4	O	-1.026406	-0.453549	0.083361
O5	O	-1.072937	0.011546	-0.083491
O6	O	-0.917562	-0.233428	-0.083480
O7	O	-1.181759	-0.208581	-0.083497
Cu8	Cu	-1.049659	-0.221005	-0.098723
Cu9	Cu	-1.049684	-0.220999	0.098593
O10	O	-1.026385	-0.453554	-0.083486
C11	C	-0.884063	-0.232299	-0.000054
C12	C	-0.784215	-0.228926	-0.000048
C13	C	-1.076475	0.071071	-0.000066
C14	C	-1.086976	0.248428	-0.000061
C15	C	-1.215280	-0.209704	-0.000073
C16	C	-1.315128	-0.213078	-0.000073
C17	C	-0.382857	-0.069144	-0.000072
C18	C	-0.341220	-0.360179	-0.000068
C19	C	-0.435032	-0.363351	-0.000065
C20	C	-0.502761	-0.219418	-0.000064
C21	C	-0.476678	-0.072312	-0.000066
C22	C	-0.461122	-0.510454	-0.000052
C23	C	-0.554939	-0.513632	-0.000048
C24	C	-0.622670	-0.369697	-0.000054
C25	C	-0.596582	-0.222586	-0.000057
C26	C	-0.664311	-0.078652	-0.000056
C27	C	-0.638225	0.068461	-0.000067
C28	C	-0.544409	0.071623	-0.000072
C29	C	-0.716486	-0.372859	-0.000049
C30	C	-0.758132	-0.081820	-0.000050
C31	C	-1.022868	-0.513074	-0.000062
C32	C	-1.012367	-0.690431	-0.000060
N33	N	-1.049648	-0.221008	-0.237504
C34	C	-1.001697	-0.123934	-0.290027
C35	C	-1.097610	-0.318074	-0.290010
C36	C	-1.097621	-0.318073	-0.395028
C37	C	-1.049670	-0.220999	-0.447551
C38	C	-1.001708	-0.123926	-0.395055
C39	C	-1.145589	-0.415132	-0.447532
C40	C	-1.145602	-0.415133	-0.552557
C41	C	-1.097645	-0.318067	-0.605081
C42	C	-1.049681	-0.220991	-0.552579
C43	C	-1.001730	-0.123917	-0.605102
C44	C	-0.953760	-0.026849	-0.552601
C45	C	-0.953751	-0.026860	-0.447580
C46	C	-1.097654	-0.318057	-0.710103
C47	C	-1.001742	-0.123910	-0.710130
N48	N	-1.049703	-0.220983	0.237375
H49	H	-0.813273	0.035390	-0.000053
C50	C	-0.354355	0.090411	-0.000031
C51	C	-0.257699	0.062392	-0.000016
C52	C	-0.231410	0.209336	0.000035
H53	H	-0.378196	0.149801	-0.058198
H54	H	-0.378235	0.149698	0.058176
H55	H	-0.233829	0.003130	-0.058218
H56	H	-0.233835	0.003027	0.058146
H57	H	-0.255290	0.268623	0.058242
H58	H	-0.255257	0.268715	-0.058133
H59	H	-0.165828	0.190346	0.000054
C60	C	-0.901718	0.078375	-0.609811
C61	C	-0.911907	0.057457	-0.713020
C62	C	-0.863971	0.154344	-0.765755
H63	H	-0.926016	0.187702	-0.592766
H64	H	-0.837979	0.048935	-0.592628
H65	H	-0.975633	0.086907	-0.730196
H66	H	-0.887604	-0.051850	-0.730095
H67	H	-0.800232	0.124904	-0.748572
H68	H	-0.888274	0.263665	-0.748702
H69	H	-0.870871	0.140154	-0.835788
H70	H	-0.914698	0.052171	-0.404824
C71	C	-1.197690	-0.520702	-0.609371
C72	C	-1.239661	-0.605744	-0.540894
C73	C	-1.287639	-0.703029	-0.593196
H74	H	-1.243769	-0.455541	-0.650340
H75	H	-1.155677	-0.594196	-0.650322
H76	H	-1.281671	-0.532259	-0.499960
H77	H	-1.193603	-0.670935	-0.499923
H78	H	-1.245625	-0.776524	-0.634147
H79	H	-1.333713	-0.637856	-0.634162
H80	H	-1.316115	-0.760753	-0.546742
H81	H	-0.693382	0.185651	-0.000059
H82	H	-1.136715	-0.397082	-0.752844
H83	H	-0.523160	0.191395	-0.000104
H84	H	-0.576169	-0.633420	-0.000039
H85	H	-0.940456	0.226232	-0.000059
C86	C	-0.949446	-0.018761	-0.233086
C87	C	-0.855573	-0.062572	-0.258640
C88	C	-0.807409	0.034263	-0.206195
H89	H	-0.973647	0.090545	-0.250248
H90	H	-0.956239	-0.032687	-0.163006
H91	H	-0.848785	-0.048633	-0.328704
H92	H	-0.831345	-0.171863	-0.241476
H93	H	-0.814202	0.020338	-0.136115
H94	H	-0.831618	0.143564	-0.223361
H95	H	-0.743710	0.004541	-0.223519
C96	C	-1.149589	-0.423726	-0.233115
C97	C	-1.113597	-0.584635	-0.258681
C98	C	-1.161465	-0.682012	-0.206295
H99	H	-1.142750	-0.410035	-0.163034
H100	H	-1.213320	-0.394335	-0.250335
H101	H	-1.049881	-0.614017	-0.241454
H102	H	-1.120436	-0.598376	-0.328753
H103	H	-1.225196	-0.652620	-0.223515
H104	H	-1.154623	-0.668307	-0.136216
H105	H	-1.137057	-0.791197	-0.223641
H106	H	-0.737721	-0.492636	-0.000042
H107	H	-0.286070	-0.477363	-0.000060
H108	H	-0.405971	-0.627636	-0.000043
H109	H	-1.158891	0.331774	-0.000073
H110	H	-1.184635	-0.494153	-0.404761
H111	H	-0.962689	-0.044866	-0.752886
