data_functionalizedCrystal
_audit_creation_method	'MofGen! by Chris Wilmer'
_symmetry_space_group_name_H-M	'P1'
_symmetry_Int_Tables_number	1
_symmetry_cell_setting	triclinic
loop_
_symmetry_equiv_pos_as_xyz
  x,y,z
_cell_length_a	14.853567
_cell_length_b	15.995350
_cell_length_c	13.330367
_cell_angle_alpha	89.997588
_cell_angle_beta	89.995418
_cell_angle_gamma	83.563653
loop_
_atom_site_label
_atom_site_type_symbol
_atom_site_fract_x
_atom_site_fract_y
_atom_site_fract_z
O1	O	1.196221	0.109317	-0.083349
O2	O	0.933744	0.122339	-0.083366
O3	O	1.072158	-0.006051	-0.083356
O4	O	1.057808	0.237707	-0.083359
O5	O	1.072138	-0.006054	0.083491
O6	O	0.933724	0.122336	0.083481
O7	O	1.196201	0.109314	0.083498
Cu8	Cu	1.064961	0.115825	0.098724
Cu9	Cu	1.064985	0.115828	-0.098592
O10	O	1.057788	0.237704	0.083488
C11	C	0.900146	0.121748	0.000056
C12	C	0.800065	0.119980	0.000049
C13	C	1.071555	-0.037248	0.000065
C14	C	1.069776	-0.130201	0.000060
C15	C	0.387644	0.036238	0.000072
C16	C	0.366158	0.188769	0.000070
C17	C	0.460189	0.190432	0.000067
C18	C	0.517953	0.114996	0.000065
C19	C	0.481685	0.037899	0.000066
C20	C	0.496464	0.267528	0.000055
C21	C	0.590501	0.269194	0.000051
C22	C	0.648266	0.193758	0.000056
C23	C	0.611993	0.116657	0.000059
C24	C	0.669757	0.041221	0.000057
C25	C	0.633485	-0.035880	0.000067
C26	C	0.539450	-0.037538	0.000072
C27	C	0.742302	0.195415	0.000051
C28	C	0.763797	0.042882	0.000051
C29	C	1.063389	-0.467956	0.000063
C30	C	0.964813	-0.420636	-0.000318
C31	C	0.966592	-0.323944	0.000058
C32	C	1.066557	-0.300391	0.000061
C33	C	1.115167	-0.341414	0.095340
C34	C	1.112690	-0.438053	0.095419
C35	C	1.114749	-0.438405	-0.094317
C36	C	1.114726	-0.341460	-0.095576
C37	C	1.068353	-0.205692	0.000063
C38	C	1.061596	-0.562655	0.000067
C39	C	1.229799	0.109906	0.000074
C40	C	1.329881	0.111674	0.000074
C41	C	1.058391	0.268901	0.000064
C42	C	1.060170	0.361854	0.000064
N43	N	1.064951	0.115822	0.237506
N44	N	1.065002	0.115825	-0.237374
C45	C	1.003693	0.172657	0.710124
C46	C	1.126301	0.058993	0.710101
C47	C	1.126291	0.058990	0.605082
C48	C	1.064982	0.115823	0.552580
C49	C	1.003682	0.172658	0.605096
C50	C	1.187595	0.002162	0.552559
C51	C	1.187588	0.002158	0.447534
C52	C	1.126274	0.058987	0.395030
C53	C	1.064971	0.115824	0.447552
C54	C	1.003662	0.172656	0.395050
C55	C	0.942354	0.229490	0.447570
C56	C	0.942368	0.229487	0.552592
C57	C	1.126260	0.058989	0.290008
C58	C	1.003652	0.172657	0.290022
H59	H	0.810823	-0.018548	0.000053
N60	N	0.348521	-0.046914	0.000092
H61	H	0.309982	-0.051006	-0.061751
H62	H	0.399432	-0.094401	0.000130
N63	N	1.192414	-0.002309	0.766726
H64	H	1.231242	-0.038316	0.717519
H65	H	1.232274	0.029809	0.810291
N66	N	0.303862	0.270128	0.000061
H67	H	0.238787	0.257377	0.000062
H68	H	0.315601	0.303721	0.061913
H69	H	0.509909	-0.100310	0.000103
N70	N	1.067705	-0.305354	-0.188941
H71	H	1.070257	-0.242540	-0.190845
H72	H	1.099009	-0.332063	-0.250155
N73	N	1.192355	-0.002310	0.233346
H74	H	1.232261	0.029750	0.189751
H75	H	1.231139	-0.038305	0.282594
N76	N	1.072078	-0.465659	-0.189979
H77	H	1.019016	-0.497444	-0.173102
H78	H	1.050367	-0.414428	-0.231324
N79	N	1.211292	-0.321006	-0.103202
H80	H	1.225247	-0.284668	-0.044506
H81	H	1.253816	-0.374895	-0.102383
H82	H	0.771830	0.258190	0.000045
N83	N	1.065706	-0.462350	0.189753
H84	H	1.010338	-0.490345	0.171287
H85	H	1.108565	-0.502643	0.230243
H86	H	1.081388	-0.313073	0.166242
N87	N	0.629620	0.352348	0.000033
H88	H	0.578757	0.399883	0.000032
H89	H	0.668166	0.356363	0.061883
H90	H	0.928381	-0.295565	-0.068242
N91	N	0.695790	-0.117241	0.000057
H92	H	0.760863	-0.104484	0.000047
H93	H	0.684053	-0.150836	0.061914
N94	N	0.434156	0.348879	0.000040
H95	H	0.394665	0.351570	-0.061809
H96	H	0.394717	0.351539	0.061933
H97	H	1.237516	-0.044106	0.595309
N98	N	1.253704	-0.059148	0.390899
H99	H	1.219249	-0.096280	0.347339
H100	H	1.293599	-0.027028	0.347369
H101	H	0.925422	-0.439212	-0.068644
N102	N	1.211022	-0.480358	-0.095170
H103	H	1.221356	-0.518324	-0.034753
H104	H	1.221797	-0.514788	-0.158419
N105	N	0.912837	-0.446644	0.089675
H106	H	0.952867	-0.488945	0.130690
H107	H	0.893174	-0.395558	0.132143
N108	N	1.212453	-0.322604	0.100009
H109	H	1.214331	-0.259731	0.103037
H110	H	1.242336	-0.349632	0.161828
H111	H	0.928108	-0.296125	0.068470
H112	H	1.185062	-0.470217	0.099744
H113	H	0.953723	0.218935	0.247280
N114	N	0.876234	0.290791	0.390939
H115	H	0.885537	0.282166	0.316440
H116	H	0.812282	0.281008	0.409300
N117	N	0.876248	0.290781	0.609237
H118	H	0.885562	0.282158	0.683734
H119	H	0.886656	0.350199	0.590873
N120	N	0.937565	0.233949	0.766762
H121	H	0.946868	0.225327	0.841260
H122	H	0.947972	0.293368	0.748401
