data_functionalizedCrystal
_audit_creation_method	'MofGen! by Chris Wilmer'
_symmetry_space_group_name_H-M	'P1'
_symmetry_Int_Tables_number	1
_symmetry_cell_setting	triclinic
loop_
_symmetry_equiv_pos_as_xyz
  x,y,z
_cell_length_a	12.594517
_cell_length_b	18.050590
_cell_length_c	12.594509
_cell_angle_alpha	89.967171
_cell_angle_beta	89.978673
_cell_angle_gamma	90.018352
loop_
_atom_site_label
_atom_site_type_symbol
_atom_site_fract_x
_atom_site_fract_y
_atom_site_fract_z
Zn1	Zn	1.627248	-0.295641	-0.601826
Zn2	Zn	2.127248	0.204359	-0.101826
Zn3	Zn	1.627132	-0.419845	-0.423833
Zn4	Zn	2.127132	0.080155	0.076167
Zn5	Zn	1.449252	-0.295673	-0.423855
Zn6	Zn	1.949252	0.204327	0.076145
Zn7	Zn	1.449227	-0.419793	-0.601763
Zn8	Zn	1.949227	0.080207	-0.101763
O9	O	1.538215	-0.357738	-0.512819
O10	O	2.038215	0.142262	-0.012819
O11	O	1.776179	-0.312125	-0.578232
O12	O	2.276179	0.187875	-0.078232
O13	O	1.603497	-0.403408	-0.274890
O14	O	2.103497	0.096592	0.225110
O15	O	1.472924	-0.191744	-0.447498
O16	O	1.972924	0.308256	0.052502
O17	O	1.776093	-0.403377	-0.447462
O18	O	2.276093	0.096623	0.052538
O19	O	1.603697	-0.191721	-0.578253
O20	O	2.103697	0.308279	-0.078253
O21	O	1.472810	-0.312179	-0.274906
O22	O	1.972810	0.187821	0.225094
O23	O	1.300303	-0.312129	-0.447438
O24	O	1.800303	0.187871	0.052562
O25	O	1.472880	-0.403289	-0.750717
O26	O	1.972880	0.096711	-0.250717
O27	O	1.300284	-0.403320	-0.578146
O28	O	1.800284	0.096680	-0.078146
O29	O	1.603672	-0.312075	-0.750764
O30	O	2.103672	0.187925	-0.250764
O31	O	1.603472	-0.523763	-0.447401
O32	O	2.103472	-0.023763	0.052599
O33	O	1.472767	-0.523725	-0.578125
O34	O	1.972767	-0.023725	-0.078125
C35	C	1.261674	-0.357723	-0.512788
C36	C	1.761674	0.142277	-0.012788
C37	C	1.143368	-0.357735	-0.512800
C38	C	1.643368	0.142265	-0.012800
C39	C	1.074095	-0.308068	-0.441843
C40	C	1.574095	0.191932	0.058157
C41	C	1.003279	-0.375810	-0.415655
C42	C	1.503279	0.124190	0.084345
C43	C	1.003385	-0.290026	-0.539006
C44	C	1.503385	0.209974	-0.039006
C45	C	1.074111	-0.425512	-0.486561
C46	C	1.574111	0.074488	0.013439
C47	C	1.074223	-0.339682	-0.609957
C48	C	1.574223	0.160318	-0.109957
C49	C	1.003440	-0.407471	-0.583806
C50	C	1.503440	0.092529	-0.083806
C51	C	1.538133	-0.550690	-0.512777
C52	C	2.038133	-0.050690	-0.012777
C53	C	1.538195	-0.633236	-0.512794
C54	C	2.038195	-0.133236	-0.012794
C55	C	1.609421	-0.832680	-0.441806
C56	C	2.109421	-0.332680	0.058194
C57	C	1.635423	-0.882008	-0.538949
C58	C	2.135423	-0.382008	-0.038949
C59	C	1.538256	-0.784366	-0.512837
C60	C	2.038256	-0.284366	-0.012837
C61	C	1.512362	-0.882120	-0.415737
C62	C	2.012362	-0.382120	0.084263
C63	C	1.538316	-0.930351	-0.512869
C64	C	2.038316	-0.430351	-0.012869
C65	C	1.564308	-0.832606	-0.610031
C66	C	2.064308	-0.332606	-0.110031
C67	C	1.441201	-0.832715	-0.486754
C68	C	1.941201	-0.332715	0.013246
C69	C	1.467167	-0.882020	-0.583964
C70	C	1.967167	-0.382020	-0.083964
C71	C	1.538224	-0.700268	-0.512817
C72	C	2.038224	-0.200268	-0.012817
C73	C	1.538348	-1.014448	-0.512900
C74	C	2.038348	-0.514448	-0.012900
C75	C	1.815836	-0.357753	-0.512851
C76	C	2.315836	0.142247	-0.012851
C77	C	1.934141	-0.357760	-0.512865
C78	C	2.434141	0.142240	-0.012865
C79	C	1.538286	-0.357673	-0.790440
C80	C	2.038286	0.142327	-0.290440
C81	C	1.538316	-0.357645	-0.908746
C82	C	2.038316	0.142355	-0.408746
C83	C	1.538326	-0.164032	-0.512885
C84	C	2.038326	0.335968	-0.012885
C85	C	1.538373	-0.081487	-0.512913
C86	C	2.038373	0.418513	-0.012913
C87	C	1.467201	-0.407228	-0.977974
C88	C	1.967201	0.092772	-0.477974
C89	C	1.564321	-0.425374	-1.048762
C90	C	2.064321	0.074626	-0.548762
C91	C	1.441273	-0.339455	-1.048757
C92	C	1.941273	0.160545	-0.548757
C93	C	1.635487	-0.375826	-0.977976
C94	C	2.135487	0.124174	-0.477976
C95	C	1.512373	-0.289876	-0.977964
C96	C	2.012373	0.210124	-0.477964
C97	C	1.609560	-0.307996	-1.048721
C98	C	2.109560	0.192004	-0.548721
C99	C	1.538205	-0.357749	-0.236278
C100	C	2.038205	0.142251	0.263722
C101	C	1.538381	-0.357568	-0.117973
C102	C	2.038381	0.142432	0.382027
H103	H	0.972261	-0.232762	-0.561107
H104	H	1.472261	0.267238	-0.061107
H105	H	1.105408	-0.324376	-0.692068
H106	H	1.605408	0.175624	-0.192068
Cl107	Cl	1.478508	-0.915700	-0.288938
Cl108	Cl	1.978508	-0.415700	0.211062
H109	H	1.359177	-0.324101	-1.079849
H110	H	1.859177	0.175899	-0.579849
H111	H	1.490367	-0.232614	-0.946842
H112	H	1.990367	0.267386	-0.446842
Cl113	Cl	1.702363	-0.799228	-0.349159
Cl114	Cl	2.202363	-0.299228	0.150841
H115	H	1.407108	-0.449224	-0.946912
H116	H	1.907108	0.050776	-0.446912
H117	H	1.105118	-0.266108	-0.381763
H118	H	1.605118	0.233892	0.118237
Cl119	Cl	1.762271	-0.399640	-0.930182
Cl120	Cl	2.262271	0.100360	-0.430182
H121	H	1.407010	-0.903548	-0.644116
H122	H	1.907010	-0.403548	-0.144116
H123	H	0.972119	-0.391095	-0.333519
H124	H	1.472119	0.108905	0.166481
H125	H	1.717526	-0.903662	-0.561031
H126	H	2.217526	-0.403662	-0.061031
Cl127	Cl	1.598324	-0.799175	-0.736867
Cl128	Cl	2.098324	-0.299175	-0.236867
H129	H	1.105049	-0.482801	-0.464332
H130	H	1.605049	0.017199	0.035668
Cl131	Cl	0.955837	-0.472406	-0.676495
Cl132	Cl	1.455837	0.027594	-0.176495
H133	H	1.669797	-0.266032	-1.079588
H134	H	2.169797	0.233968	-0.579588
Cl135	Cl	1.314472	-0.799260	-0.452620
Cl136	Cl	1.814472	-0.299260	0.047380
H137	H	1.586299	-0.482652	-1.079861
H138	H	2.086299	0.017348	-0.579861
