data_functionalizedCrystal
_audit_creation_method	'MofGen! by Chris Wilmer'
_symmetry_space_group_name_H-M	'P1'
_symmetry_Int_Tables_number	1
_symmetry_cell_setting	triclinic
loop_
_symmetry_equiv_pos_as_xyz
  x,y,z
_cell_length_a	19.188930
_cell_length_b	19.188930
_cell_length_c	17.666332
_cell_angle_alpha	90.011603
_cell_angle_beta	89.976766
_cell_angle_gamma	96.855221
loop_
_atom_site_label
_atom_site_type_symbol
_atom_site_fract_x
_atom_site_fract_y
_atom_site_fract_z
O1	O	0.926150	-0.087169	-0.063200
O2	O	0.722838	-0.098903	-0.063149
O3	O	0.830361	0.008620	-0.063161
O4	O	0.818627	-0.194692	-0.063188
O5	O	0.830342	0.008625	0.062735
O6	O	0.722820	-0.098897	0.062747
O7	O	0.926131	-0.087163	0.062697
Cu8	Cu	0.824473	-0.093030	0.074217
Cu9	Cu	0.824496	-0.093036	-0.074670
O10	O	0.818608	-0.194686	0.062709
C11	C	0.696818	-0.098520	-0.000194
C12	C	0.619313	-0.097380	-0.000174
C13	C	0.574389	-0.160470	-0.000194
C14	C	0.501566	-0.159399	-0.000203
C15	C	0.473669	-0.095233	-0.000206
C16	C	0.518603	-0.032133	-0.000181
C17	C	0.591425	-0.033207	-0.000166
N18	N	0.365695	-0.046188	-0.043078
N19	N	0.296517	-0.045172	-0.043095
C20	C	0.254260	-0.091994	-0.000252
N21	N	0.283795	-0.139881	0.042599
N22	N	0.352979	-0.140899	0.042612
C23	C	0.394707	-0.094062	-0.000222
C24	C	0.130372	-0.153928	-0.000280
C25	C	0.057547	-0.152853	-0.000283
C26	C	0.074586	-0.025586	-0.000270
C27	C	0.147409	-0.026662	-0.000258
C28	C	0.175298	-0.090835	-0.000267
C29	C	0.829972	0.034634	-0.000211
C30	C	0.828831	0.112138	-0.000204
C31	C	0.952151	-0.087546	-0.000260
C32	C	1.029656	-0.088687	-0.000285
C33	C	0.818997	-0.220700	-0.000244
C34	C	0.820138	-0.298204	-0.000255
N35	N	0.824463	-0.093025	0.178937
C36	C	0.891922	0.157062	-0.000216
C37	C	0.890850	0.229886	-0.000228
C38	C	0.826684	0.257782	-0.000212
C39	C	0.763585	0.212849	-0.000205
C40	C	0.764658	0.140026	-0.000200
N41	N	0.777630	0.365789	0.042645
N42	N	0.776615	0.434968	0.042642
C43	C	0.823446	0.477191	-0.000227
N44	N	0.871341	0.447624	-0.043084
N45	N	0.872359	0.378439	-0.043079
C46	C	0.825513	0.336745	-0.000218
C47	C	0.885379	0.601079	-0.000253
C48	C	0.884305	0.673904	-0.000270
C49	C	0.757038	0.656865	-0.000239
C50	C	0.758114	0.584042	-0.000230
C51	C	0.822287	0.556154	-0.000233
N52	N	0.824512	-0.093036	-0.179390
C53	C	0.872089	-0.045437	0.218541
C54	C	0.872093	-0.045433	0.297789
C55	C	0.824478	-0.093030	0.337429
C56	C	0.776842	-0.140621	0.297815
C57	C	0.776835	-0.140619	0.218569
N58	N	0.815401	-0.154837	0.461841
N59	N	0.815413	-0.154837	0.537121
C60	C	0.824496	-0.093040	0.576193
N61	N	0.833582	-0.031239	0.537140
N62	N	0.833574	-0.031240	0.461853
C63	C	0.824480	-0.093038	0.423358
C64	C	0.872130	-0.045444	0.701727
C65	C	0.872129	-0.045440	0.780976
C66	C	0.776881	-0.140634	0.781000
C67	C	0.776878	-0.140632	0.701753
C68	C	0.824506	-0.093038	0.662121
H69	H	0.464982	-0.210776	-0.000217
H70	H	0.738051	-0.179371	0.186322
O71	O	0.725518	-0.191967	0.659028
H72	H	0.692411	-0.225069	0.699904
O73	O	0.961133	0.126980	-0.000241
H74	H	1.004825	0.170458	-0.000263
O75	O	0.923487	0.005894	0.658971
H76	H	0.956598	0.038996	0.699828
H77	H	0.597091	-0.212725	-0.000203
O78	O	0.488521	0.037077	-0.000185
H79	H	0.430335	0.027225	-0.000207
O80	O	0.009093	-0.220908	-0.000299
H81	H	-0.046231	-0.209382	-0.000298
O82	O	0.725487	-0.191963	0.340563
H83	H	0.733499	-0.183977	0.402322
O84	O	0.958900	0.278354	-0.000231
H85	H	1.003702	0.246727	-0.000227
H86	H	0.051874	0.026659	-0.000319
H87	H	0.153080	-0.206181	-0.000276
O88	O	0.923507	0.005882	0.823698
H89	H	0.956629	0.038968	0.782823
O90	O	0.725523	-0.191974	0.823742
H91	H	0.733531	-0.183985	0.885501
O92	O	0.696604	0.091572	-0.000177
H93	H	0.694052	0.057975	-0.051488
O94	O	0.694376	0.242932	-0.000188
H95	H	0.664060	0.224874	0.051130
O96	O	0.195871	0.041386	-0.000243
H97	H	0.164240	0.086186	-0.000251
H98	H	0.937632	0.578372	-0.000259
H99	H	0.910869	-0.006681	0.186275
H100	H	0.704792	0.679578	-0.000230
O101	O	0.639886	0.034843	-0.000144
H102	H	0.630027	0.065560	-0.051457
H103	H	0.935683	0.710481	-0.000284
O104	O	0.690063	0.535586	-0.000197
H105	H	0.659345	0.545468	-0.051499
O106	O	0.923470	0.005888	0.340520
H107	H	0.956591	0.038979	0.299648
