data_functionalizedCrystal
_audit_creation_method	'MofGen! by Chris Wilmer'
_symmetry_space_group_name_H-M	'P1'
_symmetry_Int_Tables_number	1
_symmetry_cell_setting	triclinic
loop_
_symmetry_equiv_pos_as_xyz
  x,y,z
_cell_length_a	14.971482
_cell_length_b	15.995292
_cell_length_c	13.448316
_cell_angle_alpha	89.996588
_cell_angle_beta	89.993798
_cell_angle_gamma	83.540612
loop_
_atom_site_label
_atom_site_type_symbol
_atom_site_fract_x
_atom_site_fract_y
_atom_site_fract_z
O1	O	1.186800	0.109105	-0.082672
O2	O	0.926382	0.122175	-0.082676
O3	O	1.063737	-0.006244	-0.082675
O4	O	1.049445	0.237524	-0.082672
O5	O	1.063720	-0.006252	0.082709
O6	O	0.926365	0.122167	0.082708
O7	O	1.186783	0.109097	0.082712
Cu8	Cu	1.056572	0.115631	0.097811
Cu9	Cu	1.056593	0.115641	-0.097775
O10	O	1.049428	0.237516	0.082711
C11	C	0.893049	0.121587	0.000016
C12	C	0.793755	0.119837	0.000014
C13	C	0.747102	0.119009	0.090166
C14	C	0.653805	0.117351	0.090167
C15	C	0.607163	0.116528	0.000015
C16	C	0.653823	0.117354	-0.090144
C17	C	0.747118	0.119006	-0.090144
C18	C	0.459366	0.113913	-0.090138
C19	C	0.366064	0.112263	-0.090138
C20	C	0.366053	0.112259	0.090173
C21	C	0.459348	0.113910	0.090173
C22	C	0.506001	0.114738	0.000014
C23	C	1.063147	-0.037444	0.000014
C24	C	1.061403	-0.130399	0.000007
C25	C	1.054992	-0.468144	0.000016
C26	C	1.154131	-0.444733	0.000387
C27	C	1.156016	-0.348056	0.000010
C28	C	1.058173	-0.300585	0.000012
C29	C	1.008618	-0.329730	-0.094428
C30	C	1.007425	-0.426522	-0.094504
C31	C	1.005381	-0.426390	0.093569
C32	C	1.009054	-0.329894	0.094813
C33	C	1.059966	-0.205887	0.000006
C34	C	1.053197	-0.562841	0.000015
C35	C	1.220116	0.109685	0.000019
C36	C	1.319411	0.111435	0.000014
C37	C	1.050018	0.268716	0.000020
C38	C	1.051762	0.361671	0.000021
N39	N	1.056565	0.115624	0.235375
N40	N	1.056608	0.115641	-0.235339
C41	C	1.117404	0.058784	0.287416
C42	C	1.117410	0.058783	0.391519
C43	C	1.056579	0.115627	0.443580
C44	C	0.995733	0.172471	0.391532
C45	C	0.995724	0.172467	0.287431
C46	C	0.995758	0.172476	0.608512
C47	C	0.995768	0.172482	0.712620
C48	C	1.117444	0.058792	0.712600
C49	C	1.117435	0.058788	0.608499
C50	C	1.056589	0.115633	0.556458
H51	H	0.328090	0.111594	-0.163547
H52	H	1.045138	-0.311296	0.164679
H53	H	0.497348	0.114588	-0.163555
H54	H	0.615840	0.116678	-0.163547
H55	H	1.194826	-0.328996	0.067707
H56	H	1.192139	-0.473710	-0.066959
H57	H	0.946233	0.218770	0.755003
H58	H	0.946199	0.218752	0.433926
H59	H	0.615827	0.116662	0.163577
H60	H	0.328063	0.111585	0.163584
H61	H	0.785102	0.119682	-0.163555
H62	H	1.192337	-0.472696	0.068114
H63	H	0.946181	0.218751	0.245060
H64	H	1.036594	-0.454451	0.165154
H65	H	0.934735	-0.441144	-0.098781
H66	H	1.166949	0.012498	0.433890
H67	H	1.195069	-0.329609	-0.067805
H68	H	0.785070	0.119686	0.163578
H69	H	1.166972	0.012506	0.566111
H70	H	1.041759	-0.453301	-0.165100
H71	H	0.936619	-0.297933	-0.097938
H72	H	0.937639	-0.296995	0.100518
H73	H	1.043045	-0.309632	-0.164711
H74	H	1.166986	0.012508	0.754978
H75	H	0.497321	0.114586	0.163583
H76	H	0.932407	-0.440453	0.094206
H77	H	1.166943	0.012498	0.245035
H78	H	0.946208	0.218763	0.566144
