data_functionalizedCrystal
_audit_creation_method	'MofGen! by Chris Wilmer'
_symmetry_space_group_name_H-M	'P1'
_symmetry_Int_Tables_number	1
_symmetry_cell_setting	triclinic
loop_
_symmetry_equiv_pos_as_xyz
  x,y,z
_cell_length_a	18.215407
_cell_length_b	12.645330
_cell_length_c	18.215399
_cell_angle_alpha	89.972426
_cell_angle_beta	89.985195
_cell_angle_gamma	90.007159
loop_
_atom_site_label
_atom_site_type_symbol
_atom_site_fract_x
_atom_site_fract_y
_atom_site_fract_z
Zn1	Zn	1.125113	-0.422180	-0.416090
Zn2	Zn	1.625113	0.077820	0.083910
Zn3	Zn	1.125054	-0.599470	-0.293030
Zn4	Zn	1.625054	-0.099470	0.206970
Zn5	Zn	1.002052	-0.422204	-0.293042
Zn6	Zn	1.502052	0.077796	0.206958
Zn7	Zn	1.002037	-0.599385	-0.416059
Zn8	Zn	1.502037	-0.099385	0.083941
O9	O	1.063564	-0.510810	-0.354556
O10	O	1.563564	-0.010810	0.145444
O11	O	1.228089	-0.445724	-0.399774
O12	O	1.728089	0.054276	0.100226
O13	O	1.108719	-0.576001	-0.190047
O14	O	1.608719	-0.076001	0.309953
O15	O	1.018407	-0.273854	-0.309383
O16	O	1.518407	0.226146	0.190617
O17	O	1.228046	-0.575978	-0.309362
O18	O	1.728046	-0.075978	0.190638
O19	O	1.108819	-0.273836	-0.399786
O20	O	1.608819	0.226164	0.100214
O21	O	1.018350	-0.445764	-0.190056
O22	O	1.518350	0.054236	0.309944
O23	O	0.899066	-0.445682	-0.309353
O24	O	1.399066	0.054318	0.190647
O25	O	1.018382	-0.575833	-0.519048
O26	O	1.518382	-0.075833	-0.019048
O27	O	0.899055	-0.575856	-0.399733
O28	O	1.399055	-0.075856	0.100267
O29	O	1.108805	-0.445641	-0.519071
O30	O	1.608805	0.054359	-0.019071
O31	O	1.108705	-0.747806	-0.309332
O32	O	1.608705	-0.247806	0.190668
O33	O	1.018325	-0.747744	-0.399721
O34	O	1.518325	-0.247744	0.100279
C35	C	0.872358	-0.510763	-0.354541
C36	C	1.372358	-0.010763	0.145459
C37	C	0.790559	-0.510769	-0.354552
C38	C	1.290559	-0.010769	0.145448
C39	C	0.525518	-0.443117	-0.401708
C40	C	1.025518	0.056883	0.098292
C41	C	0.602377	-0.443100	-0.401706
C42	C	1.102377	0.056900	0.098294
C43	C	0.602351	-0.578537	-0.307419
C44	C	1.102351	-0.078537	0.192581
C45	C	0.525494	-0.578558	-0.307426
C46	C	1.025494	-0.078558	0.192574
C47	C	0.487079	-0.510843	-0.354569
C48	C	0.987079	-0.010843	0.145431
C49	C	0.640795	-0.510804	-0.354560
C50	C	1.140795	-0.010804	0.145440
C51	C	0.724129	-0.510786	-0.354557
C52	C	1.224129	-0.010786	0.145443
C53	C	0.403740	-0.510862	-0.354573
C54	C	0.903740	-0.010862	0.145427
C55	C	1.063527	-0.786240	-0.354538
C56	C	1.563527	-0.286240	0.145462
C57	C	1.063579	-0.904070	-0.354555
C58	C	1.563579	-0.404070	0.145445
C59	C	1.120345	-1.071629	-0.297576
C60	C	1.620345	-0.571629	0.202424
C61	C	1.120530	-0.949068	-0.297716
C62	C	1.620530	-0.449068	0.202284
C63	C	1.084605	-0.948454	-0.432129
C64	C	1.584605	-0.448454	0.067871
C65	C	1.085056	-1.071052	-0.431827
C66	C	1.585056	-0.571052	0.068173
C67	C	0.985763	-1.071387	-0.334725
C68	C	1.485763	-0.571387	0.165275
C69	C	0.986136	-0.948782	-0.332986
C70	C	1.486136	-0.448782	0.167014
C71	C	1.255517	-0.510857	-0.354570
C72	C	1.755517	-0.010857	0.145430
C73	C	1.337316	-0.510878	-0.354577
C74	C	1.837316	-0.010878	0.145423
C75	C	1.063599	-0.510725	-0.546509
C76	C	1.563599	-0.010725	-0.046509
C77	C	1.063613	-0.510689	-0.628307
C78	C	1.563613	-0.010689	-0.128307
C79	C	1.063621	-0.234305	-0.354589
C80	C	1.563621	0.265695	0.145411
C81	C	1.063645	-0.116475	-0.354603
C82	C	1.563645	0.383525	0.145397
C83	C	1.016598	-0.442829	-0.816507
C84	C	1.516598	0.057171	-0.316507
C85	C	1.016611	-0.442808	-0.893366
C86	C	1.516611	0.057192	-0.393366
C87	C	1.110717	-0.578423	-0.893346
C88	C	1.610717	-0.078423	-0.393346
C89	C	1.110700	-0.578448	-0.816488
C90	C	1.610700	-0.078448	-0.316488
C91	C	1.063642	-0.510646	-0.778071
C92	C	1.563642	-0.010646	-0.278071
C93	C	1.063671	-0.510598	-0.931787
C94	C	1.563671	-0.010598	-0.431787
C95	C	1.063686	-0.510576	-1.015121
C96	C	1.563686	-0.010576	-0.515121
C97	C	1.063626	-0.510670	-0.694732
C98	C	1.563626	-0.010670	-0.194732
C99	C	1.063572	-0.510818	-0.163349
C100	C	1.563572	-0.010818	0.336651
C101	C	1.063699	-0.510555	-0.081551
C102	C	1.563699	-0.010555	0.418449
H103	H	0.633670	-0.387952	-0.440092
H104	H	1.133670	0.112048	0.059908
N105	N	0.484086	-0.370098	-0.452564
N106	N	0.984086	0.129902	0.047436
H107	H	0.429564	-0.380384	-0.445416
H108	H	0.929564	0.119616	0.054584
H109	H	0.497514	-0.294363	-0.441199
H110	H	0.997514	0.205637	0.058801
N111	N	0.643784	-0.651564	-0.256569
N112	N	1.143784	-0.151564	0.243431
H113	H	0.698306	-0.641271	-0.263714
H114	H	1.198306	-0.141271	0.236286
H115	H	0.630327	-0.634974	-0.204031
H116	H	1.130327	-0.134974	0.295969
N117	N	0.965873	-0.369657	-0.934820
N118	N	1.465873	0.130343	-0.434820
H119	H	0.973020	-0.379929	-0.989339
H120	H	1.473020	0.120071	-0.489339
H121	H	0.913309	-0.386151	-0.921376
H122	H	1.413309	0.113849	-0.421376
H123	H	1.177721	-1.102367	-0.310577
H124	H	1.677721	-0.602367	0.189423
N125	N	1.160465	-1.108841	-0.454113
N126	N	1.660465	-0.608841	0.045887
H127	H	1.193102	-1.045860	-0.464041
H128	H	1.693102	-0.545860	0.035959
H129	H	1.182231	-1.152707	-0.413202
H130	H	1.682231	-0.652707	0.086798
N131	N	0.484028	-0.651612	-0.256583
N132	N	0.984028	-0.151612	0.243417
H133	H	0.520024	-0.694501	-0.226713
H134	H	1.020024	-0.194501	0.273287
H135	H	0.452124	-0.608410	-0.222580
H136	H	0.952124	-0.108410	0.277420
H137	H	1.107375	-0.919064	-0.240196
H138	H	1.607375	-0.419064	0.259804
H139	H	1.107355	-1.101180	-0.239888
H140	H	1.607355	-0.601180	0.260112
N141	N	1.032732	-1.110353	-0.490028
N142	N	1.532732	-0.610353	0.009972
H143	H	1.009479	-1.048034	-0.515768
H144	H	1.509479	-0.548034	-0.015768
H145	H	1.060531	-1.154563	-0.526888
H146	H	1.560531	-0.654563	-0.026888
H147	H	1.149031	-0.633624	-0.924635
H148	H	1.649031	-0.133624	-0.424635
H149	H	0.970282	-0.919784	-0.275898
H150	H	1.470282	-0.419784	0.224102
H151	H	1.140890	-0.917673	-0.449248
H152	H	1.640890	-0.417673	0.050752
H153	H	1.044565	-0.919302	-0.475757
H154	H	1.544565	-0.419302	0.024243
N155	N	0.960438	-1.112435	-0.261094
N156	N	1.460438	-0.612435	0.238906
H157	H	0.910372	-1.082518	-0.249420
H158	H	1.410372	-0.582518	0.250580
H159	H	0.957585	-1.192163	-0.262690
H160	H	1.457585	-0.692163	0.237310
H161	H	1.178215	-0.919668	-0.310863
H162	H	1.678215	-0.419668	0.189137
N163	N	0.927149	-0.908203	-0.383953
N164	N	1.427149	-0.408203	0.116047
H165	H	0.949894	-0.860051	-0.421921
H166	H	1.449894	-0.360051	0.078079
H167	H	0.902665	-0.969869	-0.409271
H168	H	1.402665	-0.469869	0.090729
H169	H	0.943517	-1.100388	-0.376261
H170	H	1.443517	-0.600388	0.123739
H171	H	1.149010	-0.633677	-0.785193
H172	H	1.649010	-0.133677	-0.285193
H173	H	0.978280	-0.387620	-0.785230
H174	H	1.478280	0.112380	-0.285230
