data_functionalizedCrystal
_audit_creation_method	'MofGen! by Chris Wilmer'
_symmetry_space_group_name_H-M	'P1'
_symmetry_Int_Tables_number	1
_symmetry_cell_setting	triclinic
loop_
_symmetry_equiv_pos_as_xyz
  x,y,z
_cell_length_a	12.759401
_cell_length_b	15.299447
_cell_length_c	12.759399
_cell_angle_alpha	99.702154
_cell_angle_beta	89.985798
_cell_angle_gamma	80.305808
loop_
_atom_site_label
_atom_site_type_symbol
_atom_site_fract_x
_atom_site_fract_y
_atom_site_fract_z
Zn1	Zn	1.709070	-0.510060	0.315465
Zn2	Zn	1.678553	-0.359201	0.521579
Zn3	Zn	1.502966	-0.359218	0.345908
Zn4	Zn	1.533353	-0.510025	0.491107
O5	O	1.605985	-0.434626	0.418515
O6	O	1.852045	-0.490055	0.342819
O7	O	1.629773	-0.232955	0.523768
O8	O	1.530360	-0.379249	0.194844
O9	O	1.829624	-0.379220	0.494249
O10	O	1.681784	-0.490072	0.172478
O11	O	1.500769	-0.232968	0.394704
O12	O	1.359974	-0.379215	0.365157
O13	O	1.582151	-0.636278	0.442315
O14	O	1.382299	-0.490013	0.471834
O15	O	1.711250	-0.636303	0.313272
O16	O	1.659238	-0.379187	0.664562
O17	O	1.552559	-0.489996	0.642175
C18	C	1.333015	-0.434613	0.418493
C19	C	1.216242	-0.434628	0.418505
C20	C	1.063337	-0.492436	0.339781
C21	C	1.173060	-0.492430	0.339762
C22	C	1.149696	-0.376836	0.497278
C23	C	1.039976	-0.376847	0.497301
C24	C	1.653494	-0.669941	0.370999
C25	C	1.673739	-0.770218	0.350750
C26	C	1.461949	-1.052829	0.562420
C27	C	1.442918	-0.958614	0.581439
C28	C	1.500621	-0.911510	0.523769
C29	C	1.577360	-0.958631	0.447075
C30	C	1.596388	-1.052856	0.428049
C31	C	1.635060	-0.911537	0.389398
C32	C	1.711798	-0.958658	0.312704
C33	C	1.730823	-1.052873	0.293682
C34	C	1.673119	-1.099977	0.351352
C35	C	1.616032	-0.817312	0.408424
C36	C	1.750471	-0.817339	0.274053
C37	C	1.769502	-0.911554	0.255034
C38	C	1.880021	-0.434640	0.418537
C39	C	1.996799	-0.434646	0.418547
C40	C	1.605917	-0.434605	0.691486
C41	C	1.605990	-0.434627	0.808259
C42	C	1.558722	-0.200227	0.465770
C43	C	1.538681	-0.099950	0.485723
C44	C	1.606087	-0.434666	0.144473
C45	C	1.606130	-0.434684	0.027693
C46	C	1.661627	-0.376994	0.874730
C47	C	1.661701	-0.377024	0.984447
C48	C	1.550491	-0.492323	0.961213
C49	C	1.550424	-0.492297	0.851497
H50	H	1.227232	-0.539489	0.275624
H51	H	1.184864	-0.329777	0.561395
H52	H	1.414971	-1.091190	0.609363
H53	H	0.985798	-0.329787	0.561447
H54	H	1.793302	-1.091236	0.231226
F55	F	1.851171	-0.961714	0.173414
H56	H	1.797455	-0.778987	0.227090
F57	F	1.720766	-0.315618	0.828716
H58	H	1.485122	-0.834796	0.539260
H59	H	1.553544	-0.778956	0.470862
F60	F	1.720920	-0.315685	1.055186
F61	F	1.693376	-1.200253	0.331119
H62	H	1.505250	-0.539274	0.996432
H63	H	1.505119	-0.539233	0.797371
F64	F	1.017389	-0.553952	0.255966
F65	F	1.361247	-0.908471	0.663054
