data_functionalizedCrystal
_audit_creation_method	'MofGen! by Chris Wilmer'
_symmetry_space_group_name_H-M	'P1'
_symmetry_Int_Tables_number	1
_symmetry_cell_setting	triclinic
loop_
_symmetry_equiv_pos_as_xyz
  x,y,z
_cell_length_a	6.817900
_cell_length_b	10.943867
_cell_length_c	16.255661
_cell_angle_alpha	93.786122
_cell_angle_beta	103.488922
_cell_angle_gamma	108.843261
loop_
_atom_site_label
_atom_site_type_symbol
_atom_site_fract_x
_atom_site_fract_y
_atom_site_fract_z
V1	V	-4.054194	-0.179676	-0.263862
O2	O	-4.013034	0.007561	-0.258848
O3	O	-4.032599	-0.355235	-0.262048
O4	O	-4.005405	-0.177383	-0.378945
O5	O	-4.040415	-0.171522	-0.141142
V6	V	-4.534399	-0.157225	-0.249184
O7	O	-4.322731	-0.228925	-0.296057
O8	O	-4.716060	-0.107976	-0.216989
O9	O	-4.332788	0.018334	-0.250998
O10	O	-4.692956	-0.344462	-0.254197
O11	O	-4.665575	-0.165378	-0.371904
O12	O	-4.359981	-0.159518	-0.134101
C13	C	-3.884133	-0.398018	-0.257883
C14	C	-3.947760	-0.541543	-0.257167
C15	C	-4.176276	-0.632442	-0.261152
C16	C	-4.157696	-0.731825	-0.328618
C17	C	-4.079701	-0.697899	-0.188441
C18	C	-3.928373	-0.639050	-0.324701
C19	C	-3.850367	-0.605102	-0.184460
C20	C	-3.831640	-0.704445	-0.251941
C21	C	-3.849444	-0.171148	-0.406996
C22	C	-3.891015	-0.170435	-0.501077
C23	C	-3.800268	-0.161918	-0.723896
C24	C	-3.973499	-0.271848	-0.793366
C25	C	-3.967195	-0.169099	-0.673326
C26	C	-3.868062	-0.057911	-0.771493
C27	C	-4.040764	-0.167801	-0.839709
C28	C	-4.139922	-0.279126	-0.741566
C29	C	-4.034409	-0.065092	-0.719677
C30	C	-4.207780	-0.175053	-0.789128
C31	C	-3.924808	-0.169847	-0.577476
C32	C	-4.083169	-0.167063	-0.935558
C33	C	-4.144597	0.061111	-0.255161
C34	C	-4.060208	0.204634	-0.255883
C35	C	-4.179286	-0.165757	-0.106046
C36	C	-4.116952	-0.166463	-0.011964
H37	H	-3.863923	-0.612924	-0.382355
H38	H	-3.686374	-0.736050	-0.248060
Cl39	Cl	-3.934439	-0.406804	-0.842900
H40	H	-4.321365	-0.600622	-0.265140
Cl41	Cl	-4.359219	-0.816736	-0.422705
Cl42	Cl	-4.474451	-0.183666	-0.832895
H43	H	-3.627687	-0.156507	-0.695416
H44	H	-4.254453	-0.372717	-0.728094
Cl45	Cl	-4.073348	0.069873	-0.670105
Cl46	Cl	-3.648927	-0.520153	-0.090369
Cl47	Cl	-3.691237	0.086431	-0.792468
H48	H	-4.144351	-0.724204	-0.130854
