data_functionalizedCrystal
_audit_creation_method	'MofGen! by Chris Wilmer'
_symmetry_space_group_name_H-M	'P1'
_symmetry_Int_Tables_number	1
_symmetry_cell_setting	triclinic
loop_
_symmetry_equiv_pos_as_xyz
  x,y,z
_cell_length_a	12.759401
_cell_length_b	16.625546
_cell_length_c	12.759393
_cell_angle_alpha	89.964325
_cell_angle_beta	89.979527
_cell_angle_gamma	90.023993
loop_
_atom_site_label
_atom_site_type_symbol
_atom_site_fract_x
_atom_site_fract_y
_atom_site_fract_z
Zn1	Zn	1.606205	-0.320925	-0.593986
Zn2	Zn	2.106205	0.179075	-0.093986
Zn3	Zn	1.606074	-0.455781	-0.418292
Zn4	Zn	2.106074	0.044219	0.081708
Zn5	Zn	1.430505	-0.320970	-0.418322
Zn6	Zn	1.930505	0.179030	0.081678
Zn7	Zn	1.430472	-0.455723	-0.593930
Zn8	Zn	1.930472	0.044277	-0.093930
O9	O	1.518314	-0.388350	-0.506132
O10	O	2.018314	0.111650	-0.006132
O11	O	1.753208	-0.338820	-0.570692
O12	O	2.253208	0.161180	-0.070692
O13	O	1.582743	-0.437941	-0.271275
O14	O	2.082743	0.062059	0.228725
O15	O	1.453881	-0.208131	-0.441660
O16	O	1.953881	0.291869	0.058340
O17	O	1.753112	-0.437898	-0.441610
O18	O	2.253112	0.062102	0.058390
O19	O	1.582967	-0.208099	-0.570720
O20	O	2.082967	0.291901	-0.070720
O21	O	1.453754	-0.338895	-0.271297
O22	O	1.953754	0.161105	0.228703
O23	O	1.283480	-0.338839	-0.441605
O24	O	1.783480	0.161161	0.058395
O25	O	1.453824	-0.437799	-0.740958
O26	O	1.953824	0.062201	-0.240958
O27	O	1.283455	-0.437842	-0.570623
O28	O	1.783455	0.062158	-0.070623
O29	O	1.582934	-0.338764	-0.741000
O30	O	2.082934	0.161236	-0.241000
O31	O	1.582711	-0.568606	-0.441555
O32	O	2.082711	-0.068606	0.058445
O33	O	1.453697	-0.568563	-0.570595
O34	O	1.953697	-0.068563	-0.070595
C35	C	1.245346	-0.388340	-0.506112
C36	C	1.745346	0.111660	-0.006112
C37	C	1.128570	-0.388355	-0.506128
C38	C	1.628570	0.111645	-0.006128
C39	C	1.073723	-0.439984	-0.573202
C40	C	1.573723	0.060016	-0.073202
C41	C	0.963998	-0.439988	-0.573223
C42	C	1.463998	0.060012	-0.073223
C43	C	0.963979	-0.336730	-0.439086
C44	C	1.463979	0.163270	0.060914
C45	C	1.073701	-0.336723	-0.439071
C46	C	1.573701	0.163277	0.060929
C47	C	1.518214	-0.597841	-0.506088
C48	C	2.018214	-0.097841	-0.006088
C49	C	1.518268	-0.687462	-0.506105
C50	C	2.018268	-0.187462	-0.006105
C51	C	1.518451	-1.015637	-0.506214
C52	C	2.018451	-0.515637	-0.006214
C53	C	1.518397	-0.924329	-0.506187
C54	C	2.018397	-0.424329	-0.006187
C55	C	1.518359	-0.851552	-0.506159
C56	C	2.018359	-0.351552	-0.006159
C57	C	1.518306	-0.760238	-0.506132
C58	C	2.018306	-0.260238	-0.006132
C59	C	1.792347	-0.388360	-0.506154
C60	C	2.292347	0.111640	-0.006154
C61	C	1.909124	-0.388365	-0.506163
C62	C	2.409124	0.111635	-0.006163
C63	C	1.518390	-0.388270	-0.780166
C64	C	2.018390	0.111730	-0.280166
C65	C	1.518423	-0.388237	-0.896943
C66	C	2.018423	0.111763	-0.396943
C67	C	1.518442	-0.178041	-0.506200
C68	C	2.018442	0.321959	-0.006200
C69	C	1.518497	-0.088420	-0.506228
C70	C	2.018497	0.411580	-0.006228
C71	C	1.585677	-0.336630	-1.061559
C72	C	2.085677	0.163370	-0.561559
C73	C	1.585657	-0.336661	-0.951835
C74	C	2.085657	0.163339	-0.451835
C75	C	1.451212	-0.439790	-0.951780
C76	C	1.951212	0.060210	-0.451780
C77	C	1.451238	-0.439762	-1.061502
C78	C	1.951238	0.060238	-0.561502
C79	C	1.518298	-0.388371	-0.233165
C80	C	2.018298	0.111629	0.266835
C81	C	1.518469	-0.388177	-0.116389
C82	C	2.018469	0.111823	0.383611
H83	H	0.919347	-0.482028	-0.627843
H84	H	1.419347	0.017972	-0.127843
H85	H	1.118358	-0.294675	-0.384451
H86	H	1.618358	0.205325	0.115549
C87	C	0.904534	-0.280727	-0.366109
C88	C	1.404534	0.219273	0.133891
C89	C	0.931185	-0.298172	-0.262115
C90	C	1.431185	0.201828	0.237885
C91	C	0.876458	-0.246593	-0.194858
C92	C	1.376458	0.253407	0.305142
H93	H	0.831317	-0.288076	-0.375581
H94	H	1.331317	0.211924	0.124419
H95	H	0.922568	-0.226551	-0.381548
H96	H	1.422568	0.273449	0.118452
H97	H	0.913145	-0.352336	-0.246681
H98	H	1.413145	0.147664	0.253319
H99	H	1.004393	-0.290819	-0.252611
H100	H	1.504393	0.209181	0.247389
H101	H	0.894491	-0.192417	-0.210298
H102	H	1.394491	0.307583	0.289702
H103	H	0.803243	-0.253946	-0.204339
H104	H	1.303243	0.246054	0.295661
H105	H	0.894540	-0.258418	-0.124292
H106	H	1.394540	0.241582	0.375708
C107	C	1.378192	-0.495890	-0.892375
C108	C	1.878192	0.004110	-0.392375
C109	C	1.319369	-0.541050	-0.963882
C110	C	1.819369	-0.041050	-0.463882
C111	C	1.252107	-0.592751	-0.909200
C112	C	1.752107	-0.092751	-0.409200
H113	H	1.332324	-0.465158	-0.849566
H114	H	1.832324	0.034842	-0.349566
H115	H	1.418344	-0.531073	-0.849595
H116	H	1.918344	-0.031073	-0.349595
H117	H	1.279220	-0.505872	-1.006643
H118	H	1.779220	-0.005872	-0.506643
H119	H	1.365209	-0.571798	-1.006693
H120	H	1.865209	-0.071798	-0.506693
H121	H	1.292259	-0.627934	-0.866420
H122	H	1.792259	-0.127934	-0.366420
H123	H	1.206246	-0.562013	-0.866392
H124	H	1.706246	-0.062013	-0.366392
H125	H	1.212195	-0.623404	-0.957708
H126	H	1.712195	-0.123404	-0.457708
C127	C	1.658616	-0.280501	-1.121017
C128	C	2.158616	0.219499	-0.621017
C129	C	1.635803	-0.200731	-1.094331
C130	C	2.135803	0.299269	-0.594331
C131	C	1.702986	-0.149003	-1.149069
C132	C	2.202986	0.350997	-0.649069
H133	H	1.649075	-0.287754	-1.194233
H134	H	2.149075	0.212246	-0.694233
H135	H	1.729212	-0.292263	-1.103015
H136	H	2.229212	0.207737	-0.603015
H137	H	1.565224	-0.188972	-1.112340
H138	H	2.065224	0.311028	-0.612340
H139	H	1.645351	-0.193452	-1.021125
H140	H	2.145351	0.306548	-0.521125
H141	H	1.773582	-0.160766	-1.131067
H142	H	2.273582	0.339234	-0.631067
H143	H	1.693439	-0.156263	-1.222282
H144	H	2.193439	0.343737	-0.722282
H145	H	1.687523	-0.094874	-1.130963
H146	H	2.187523	0.405126	-0.630963
H147	H	1.118394	-0.482024	-0.627806
H148	H	1.618394	0.017976	-0.127806
C149	C	1.378211	-0.495604	-1.121179
C150	C	1.878211	0.004396	-0.621179
C151	C	1.310935	-0.449936	-1.184208
C152	C	1.810935	0.050064	-0.684208
C153	C	1.243669	-0.501351	-1.239209
C154	C	1.743669	-0.001351	-0.739209
H155	H	1.338061	-0.526347	-1.072902
H156	H	1.838061	-0.026347	-0.572902
H157	H	1.418372	-0.530709	-1.164029
H158	H	1.918372	-0.030709	-0.664029
H159	H	1.270778	-0.414845	-1.141361
H160	H	1.770778	0.085155	-0.641361
H161	H	1.351056	-0.419194	-1.232504
H162	H	1.851056	0.080806	-0.732504
H163	H	1.283831	-0.536456	-1.282059
H164	H	1.783831	-0.036456	-0.782059
H165	H	1.203527	-0.532092	-1.190925
H166	H	1.703527	-0.032092	-0.690925
H167	H	1.198021	-0.470373	-1.281988
H168	H	1.698021	0.029627	-0.781988
H169	H	1.640386	-0.294687	-0.907198
H170	H	2.140386	0.205313	-0.407198
