data_functionalizedCrystal
_audit_creation_method	'MofGen! by Chris Wilmer'
_symmetry_space_group_name_H-M	'P1'
_symmetry_Int_Tables_number	1
_symmetry_cell_setting	triclinic
loop_
_symmetry_equiv_pos_as_xyz
  x,y,z
_cell_length_a	6.817900
_cell_length_b	10.773890
_cell_length_c	14.858340
_cell_angle_alpha	96.152117
_cell_angle_beta	104.519754
_cell_angle_gamma	96.645716
loop_
_atom_site_label
_atom_site_type_symbol
_atom_site_fract_x
_atom_site_fract_y
_atom_site_fract_z
V1	V	-4.003605	-0.173386	-0.288438
V2	V	-3.753605	0.076614	-0.038438
V3	V	-3.503605	0.326614	0.211562
V4	V	-3.253605	0.576614	0.461562
O5	O	-4.027072	0.007513	-0.284507
O6	O	-3.777072	0.257513	-0.034507
O7	O	-3.527072	0.507513	0.215493
O8	O	-3.277072	0.757513	0.465493
O9	O	-3.921125	-0.343008	-0.284966
O10	O	-3.671125	-0.093008	-0.034966
O11	O	-3.421125	0.156992	0.215034
O12	O	-3.171125	0.406992	0.465034
O13	O	-3.960687	-0.171078	-0.414920
O14	O	-3.710687	0.078922	-0.164920
O15	O	-3.460687	0.328922	0.085080
O16	O	-3.210687	0.578922	0.335080
O17	O	-3.987236	-0.165607	-0.153653
O18	O	-3.737236	0.084393	0.096347
O19	O	-3.487236	0.334393	0.346347
O20	O	-3.237236	0.584393	0.596347
V21	V	-4.490938	-0.151706	-0.272499
V22	V	-4.240938	0.098294	-0.022499
V23	V	-3.990938	0.348294	0.227501
V24	V	-3.740938	0.598294	0.477501
O25	O	-4.256504	-0.220943	-0.323403
O26	O	-4.006504	0.029057	-0.073403
O27	O	-3.756504	0.279057	0.176597
O28	O	-3.506504	0.529057	0.426597
O29	O	-4.688236	-0.104149	-0.237535
O30	O	-4.438236	0.145851	0.012465
O31	O	-4.188236	0.395851	0.262465
O32	O	-3.938236	0.645851	0.512465
O33	O	-4.350211	0.017916	-0.275971
O34	O	-4.100211	0.267916	-0.025971
O35	O	-3.850211	0.517916	0.224029
O36	O	-3.600211	0.767916	0.474029
O37	O	-4.584868	-0.332605	-0.276431
O38	O	-4.334868	-0.082605	-0.026431
O39	O	-4.084868	0.167395	0.223569
O40	O	-3.834868	0.417395	0.473569
O41	O	-4.624704	-0.159485	-0.407285
O42	O	-4.374704	0.090515	-0.157285
O43	O	-4.124704	0.340515	0.092715
O44	O	-3.874704	0.590515	0.342715
O45	O	-4.310649	-0.154014	-0.146017
O46	O	-4.060649	0.095986	0.103983
O47	O	-3.810649	0.345986	0.353983
O48	O	-3.560649	0.595986	0.603983
C49	C	-3.757658	-0.384347	-0.280029
C50	C	-3.507658	-0.134347	-0.030029
C51	C	-3.257658	0.115653	0.219971
C52	C	-3.007658	0.365653	0.469971
C53	C	-3.771544	-0.523017	-0.278034
C54	C	-3.521544	-0.273017	-0.028034
C55	C	-3.271544	-0.023017	0.221966
C56	C	-3.021544	0.226983	0.471966
C57	C	-3.949769	-0.590889	-0.281501
C58	C	-3.699769	-0.340889	-0.031501
C59	C	-3.449769	-0.090889	0.218499
C60	C	-3.199769	0.159111	0.468499
C61	C	-3.964126	-0.734213	-0.279439
C62	C	-3.714126	-0.484213	-0.029439
C63	C	-3.464126	-0.234213	0.220561
C64	C	-3.214126	0.015787	0.470561
C65	C	-3.808122	-0.165032	-0.445797
C66	C	-3.558122	0.084968	-0.195797
C67	C	-3.308122	0.334968	0.054203
C68	C	-3.058122	0.584968	0.304203
C69	C	-3.854090	-0.164267	-0.549187
C70	C	-3.604090	0.085733	-0.299187
C71	C	-3.354090	0.335733	-0.049187
C72	C	-3.104090	0.585733	0.200813
C73	C	-3.891420	-0.163645	-0.633151
C74	C	-3.641420	0.086355	-0.383151
C75	C	-3.391420	0.336355	-0.133151
C76	C	-3.141420	0.586355	0.116849
C77	C	-3.938267	-0.162859	-0.738487
C78	C	-3.688267	0.087141	-0.488487
C79	C	-3.438267	0.337141	-0.238487
C80	C	-3.188267	0.587141	0.011513
C81	C	-3.975621	-0.162232	-0.822444
C82	C	-3.725621	0.087768	-0.572444
C83	C	-3.475621	0.337768	-0.322444
C84	C	-3.225621	0.587768	-0.072444
C85	C	-4.022473	-0.161449	-0.927787
C86	C	-3.772473	0.088551	-0.677787
C87	C	-3.522473	0.338551	-0.427787
C88	C	-3.272473	0.588551	-0.177787
C89	C	-4.177019	0.059248	-0.280906
C90	C	-3.927019	0.309248	-0.030906
C91	C	-3.677019	0.559248	0.219094
C92	C	-3.427019	0.809248	0.469094
C93	C	-4.142371	0.197918	-0.282907
C94	C	-3.892371	0.447918	-0.032907
C95	C	-3.642371	0.697918	0.217093
C96	C	-3.392371	0.947918	0.467093
C97	C	-4.126555	-0.160064	-0.115135
C98	C	-3.876555	0.089936	0.134865
C99	C	-3.626555	0.339936	0.384865
C100	C	-3.376555	0.589936	0.634865
C101	C	-4.059827	-0.160822	-0.011745
C102	C	-3.809827	0.089178	0.238255
C103	C	-3.559827	0.339178	0.488255
C104	C	-3.309827	0.589178	0.738255
H105	H	-3.629590	-0.571016	-0.273543
H106	H	-3.379590	-0.321016	-0.023543
H107	H	-3.129590	-0.071016	0.226457
H108	H	-2.879590	0.178984	0.476457
H109	H	-4.091728	-0.542892	-0.286003
H110	H	-3.841728	-0.292892	-0.036003
H111	H	-3.591728	-0.042892	0.213997
H112	H	-3.341728	0.207108	0.463997
H113	H	-4.284344	-0.754092	-0.287407
H114	H	-4.034344	-0.504092	-0.037407
H115	H	-3.784344	-0.254092	0.212593
H116	H	-3.534344	-0.004092	0.462593
F117	F	-3.778560	-0.796939	-0.273569
F118	F	-3.528560	-0.546939	-0.023569
F119	F	-3.278560	-0.296939	0.226431
F120	F	-3.028560	-0.046939	0.476431
