data_functionalizedCrystal
_audit_creation_method	'MofGen! by Chris Wilmer'
_symmetry_space_group_name_H-M	'P1'
_symmetry_Int_Tables_number	1
_symmetry_cell_setting	triclinic
loop_
_symmetry_equiv_pos_as_xyz
  x,y,z
_cell_length_a	19.377372
_cell_length_b	20.875641
_cell_length_c	20.875641
_cell_angle_alpha	60.089808
_cell_angle_beta	89.257912
_cell_angle_gamma	74.261708
loop_
_atom_site_label
_atom_site_type_symbol
_atom_site_fract_x
_atom_site_fract_y
_atom_site_fract_z
Zr1	Zr	0.618518	0.890095	-0.210831
O2	O	0.528696	0.987909	-0.298838
O3	O	0.642693	0.766491	-0.180005
O4	O	0.651719	0.893371	-0.315011
O5	O	0.516373	0.867439	-0.061713
O6	O	0.752585	0.925293	-0.332143
O7	O	0.519670	0.861029	-0.163832
O8	O	0.736439	0.698328	-0.090644
O9	O	0.532519	1.094404	-0.303213
O10	O	0.732339	0.850706	-0.184292
O11	O	0.654603	0.831667	-0.095295
O12	O	0.665230	0.981052	-0.254247
O13	O	0.587495	0.962013	-0.165250
Zr14	Zr	0.774129	0.951230	-0.075287
Zr15	Zr	0.779388	0.941007	-0.238155
Zr16	Zr	0.613260	0.900318	-0.047962
Zr17	Zr	0.624616	1.059943	-0.217809
Zr18	Zr	0.768032	0.781383	-0.068309
O19	O	0.749954	1.074835	-0.106112
O20	O	0.757432	1.060299	-0.337690
O21	O	0.521219	1.002445	-0.067260
O22	O	0.863951	0.853417	0.012720
O23	O	0.871428	0.838881	-0.218858
O24	O	0.635216	0.781027	0.051573
O25	O	0.876275	0.973887	-0.224404
O26	O	0.740928	0.947955	0.028893
O27	O	0.640062	0.916033	0.046026
O28	O	0.872978	0.980297	-0.122285
O29	O	0.660389	1.134872	-0.324933
O30	O	0.732259	0.706454	0.038815
O31	O	0.860128	0.746922	0.017095
O32	O	0.864308	0.738796	-0.112363
O33	O	0.528339	1.102530	-0.173754
O34	O	0.656209	1.142998	-0.195474
O35	O	0.727417	0.860274	-0.031871
O36	O	0.805153	0.879313	-0.120867
O37	O	0.738045	1.009659	-0.190822
O38	O	0.660309	0.990619	-0.101826
C39	C	0.688697	0.708210	-0.134330
C40	C	0.686109	0.636105	-0.131368
C41	C	0.725468	0.612168	-0.176431
C42	C	0.723037	0.544414	-0.173640
C43	C	0.681243	0.500602	-0.125790
C44	C	0.641883	0.524542	-0.080722
C45	C	0.644318	0.592291	-0.083509
C46	C	0.669613	0.296910	-0.112469
C47	C	0.667180	0.229158	-0.109687
C48	C	0.748336	0.249034	-0.202605
C49	C	0.750763	0.316787	-0.205391
C50	C	0.711406	0.340719	-0.160320
N51	N	0.678756	0.431348	-0.122938
N52	N	0.713898	0.409969	-0.163168
C53	C	0.495101	0.856980	-0.108880
C54	C	0.426808	0.835367	-0.097279
C55	C	0.027055	1.104469	-0.241708
C56	C	-0.037108	1.084142	-0.230797
C57	C	0.032958	0.948072	-0.157770
C58	C	0.097128	0.968387	-0.168671
C59	C	0.094170	1.046588	-0.210641
C60	C	0.164242	0.910506	-0.137605
C61	C	0.228407	0.930820	-0.148508
C62	C	0.225456	1.009016	-0.190479
C63	C	0.158334	1.066902	-0.221545
C64	C	0.167199	0.832306	-0.095639
C65	C	0.234313	0.774424	-0.064572
C66	C	0.298479	0.794738	-0.075472
C67	C	0.295529	0.872934	-0.117442
C68	C	0.365601	0.736852	-0.044405
C69	C	0.429765	0.757166	-0.055309
C70	C	0.359693	0.893248	-0.128346
C71	C	0.897547	0.984346	-0.177238
C72	C	0.965840	1.005959	-0.188838
C73	C	0.702902	0.907875	-0.346782
C74	C	0.705134	0.903535	-0.415924
C75	C	0.703950	1.133116	-0.151787
C76	C	0.706539	1.205221	-0.154750
C77	C	0.671154	0.969534	-0.484923
C78	C	0.673261	0.965454	-0.549888
C79	C	0.709344	0.895373	-0.545852
C80	C	0.743328	0.829370	-0.476846
C81	C	0.741225	0.833453	-0.411883
C82	C	0.719395	0.875870	-0.736225
C83	C	0.721493	0.871792	-0.801195
C84	C	0.651427	1.007876	-0.874233
C85	C	0.649323	1.011951	-0.809265
C86	C	0.683311	0.945949	-0.740265
N87	N	0.711497	0.891200	-0.612255
N88	N	0.681162	0.950124	-0.673864
C89	C	0.689746	0.933450	0.060665
C90	C	0.687513	0.937790	0.129807
C91	C	0.889920	0.771893	-0.168509
C92	C	0.955625	0.721401	-0.177147
C93	C	0.682119	0.720997	0.069393
C94	C	0.677298	0.653233	0.141498
C95	C	0.883342	0.784680	0.035214
C96	C	0.946815	0.738529	0.095718
C97	C	0.509305	1.056645	-0.321332
C98	C	0.445833	1.102797	-0.381836
C99	C	0.502727	1.069433	-0.117608
C100	C	0.437023	1.119924	-0.108971
C101	C	0.710528	1.120328	-0.355511
C102	C	0.715349	1.188093	-0.427615
C103	C	0.948472	0.682757	-0.214317
C104	C	1.010204	0.635322	-0.222448
C105	C	1.079087	0.626527	-0.193403
C106	C	1.086238	0.665178	-0.156232
C107	C	1.024507	0.712616	-0.148106
C108	C	0.713042	0.636342	0.208472
C109	C	0.708510	0.572679	0.276228
C110	C	0.668237	0.525904	0.277007
C111	C	0.632489	0.542799	0.210026
C112	C	0.637017	0.606464	0.142272
C113	C	1.017206	0.726796	0.077675
C114	C	1.076852	0.683443	0.134518
C115	C	1.066104	0.651819	0.209403
C116	C	0.995706	0.663556	0.227445
C117	C	0.936062	0.706913	0.170603
C118	C	0.375442	1.114538	-0.363793
C119	C	0.315797	1.157912	-0.420637
C120	C	0.326544	1.189540	-0.495522
C121	C	0.396943	1.177798	-0.513564
C122	C	0.456586	1.134430	-0.456722
C123	C	0.444175	1.158575	-0.071808
C124	C	0.382445	1.206028	-0.063696
C125	C	0.313563	1.214825	-0.092743
C126	C	0.306411	1.176171	-0.129911
C127	C	0.368141	1.128724	-0.138027
C128	C	0.755628	1.234851	-0.428370
C129	C	0.760172	1.298519	-0.496116
C130	C	0.724432	1.315431	-0.563105
C131	C	0.684152	1.268667	-0.562348
C132	C	0.679613	1.204997	-0.494604
H133	H	0.633142	0.193487	-0.070721
H134	H	0.792971	1.336590	-0.496718
C135	C	1.032387	0.755113	-0.107206
N136	N	1.038327	0.787120	-0.076398
C137	C	0.747847	0.554103	0.349898
N138	N	0.777478	0.540111	0.405385
C139	C	0.663271	0.455867	0.351544
N140	N	0.659536	0.403112	0.407687
H141	H	0.612265	0.611781	-0.046816
C142	C	0.237557	0.688406	-0.018405
N143	N	0.240002	0.623617	0.016372
C144	C	0.230633	1.185844	-0.161846
N145	N	0.173554	1.193124	-0.185891
C146	C	0.390328	1.248533	-0.022801
N147	N	0.396267	1.280544	0.008002
H148	H	0.599699	0.504706	0.210671
H149	H	1.129345	0.587897	-0.200024
C150	C	0.503595	0.693494	-0.021131
N151	N	0.559205	0.645533	0.004611
C152	C	0.260926	1.237237	-0.558042
N153	N	0.211500	1.273159	-0.605129
C154	C	0.368843	0.650835	0.001756
N155	N	0.371286	0.586046	0.036525
H156	H	0.513900	1.124871	-0.471421
C157	C	0.635290	1.153577	-0.493784
N158	N	0.601901	1.114851	-0.493171
H159	H	0.784732	1.221092	-0.373831
H160	H	0.641767	1.026600	-0.488218
C161	C	0.729431	1.385474	-0.637620
N162	N	0.733198	1.438233	-0.693742
C163	C	0.635848	1.038047	-0.625781
N164	N	0.607656	1.092725	-0.682944
C165	C	0.644871	1.287258	-0.636048
N166	N	0.615294	1.301257	-0.691562
C167	C	0.783018	0.752280	-0.472407
N168	N	0.812910	0.694213	-0.469062
H169	H	1.142330	0.658010	-0.132586
H170	H	0.750875	0.814720	-0.797900
H171	H	0.619943	1.069019	-0.812560
C172	C	0.519941	1.148914	-0.039853
N173	N	0.577007	1.141645	-0.015788
C174	C	0.771446	0.660356	-0.229070
N175	N	0.806080	0.696648	-0.268718
H176	H	0.357282	0.956928	-0.162500
H177	H	0.263304	1.253462	-0.086129
C178	C	0.766317	0.518101	-0.223232
N179	N	0.798911	0.498288	-0.260593
H180	H	0.784796	0.352458	-0.244354
H181	H	0.768895	0.779710	-0.355701
H182	H	0.024644	1.168149	-0.275862
C183	C	0.360260	1.086201	-0.178900
N184	N	0.354318	1.054173	-0.209685
H185	H	0.405685	1.203555	-0.574542
H186	H	0.637569	0.316385	-0.075766
C187	C	0.791632	0.222699	-0.252174
N188	N	0.824247	0.202861	-0.289508
C189	C	1.131722	0.604120	0.271923
N190	N	1.181148	0.568190	0.319010
C191	C	0.595908	0.476346	-0.028086
N192	N	0.561277	0.440047	0.011558
C193	C	0.756775	0.803263	-0.660331
N194	N	0.784929	0.748571	-0.603164
H195	H	0.878748	0.716457	0.185305
H196	H	-0.091756	1.131282	-0.256100
C197	C	0.155082	1.152927	-0.267709
N198	N	0.152635	1.217717	-0.302479
C199	C	1.002321	0.592806	-0.263330
N200	N	0.996381	0.560782	-0.294121
C201	C	0.757343	0.687789	0.207634
N202	N	0.790708	0.726539	0.207009
H203	H	0.607912	0.620207	0.087741
C204	C	0.238365	1.170816	-0.400774
N205	N	0.180045	1.180535	-0.385811
C206	C	1.154283	0.670534	0.114655
N207	N	1.212603	0.660809	0.099693
C208	C	0.983895	0.628756	0.309825
N209	N	0.975002	0.602538	0.371875
H210	H	0.277704	1.025554	-0.199357
H211	H	0.114950	0.815768	-0.086768
H212	H	0.366677	1.088785	-0.302822
H213	H	0.035356	0.884401	-0.123599
H214	H	0.623757	1.061611	-0.930417
H215	H	0.892391	0.689917	-0.237980
H216	H	1.025970	0.752540	0.016704
