data_functionalizedCrystal
_audit_creation_method	'MofGen! by Chris Wilmer'
_symmetry_space_group_name_H-M	'P1'
_symmetry_Int_Tables_number	1
_symmetry_cell_setting	triclinic
loop_
_symmetry_equiv_pos_as_xyz
  x,y,z
_cell_length_a	12.594517
_cell_length_b	25.639239
_cell_length_c	12.594509
_cell_angle_alpha	90.034682
_cell_angle_beta	90.021327
_cell_angle_gamma	90.039084
loop_
_atom_site_label
_atom_site_type_symbol
_atom_site_fract_x
_atom_site_fract_y
_atom_site_fract_z
Zn1	Zn	1.627095	-0.208138	0.601812
Zn2	Zn	1.626914	-0.295580	0.423814
Zn3	Zn	1.449099	-0.208160	0.423841
Zn4	Zn	1.449009	-0.295544	0.601744
O5	O	1.538029	-0.251855	0.512803
O6	O	1.776017	-0.219743	0.578218
O7	O	1.603288	-0.284008	0.274871
O8	O	1.472824	-0.134992	0.447490
O9	O	1.775884	-0.283987	0.447443
O10	O	1.603597	-0.134976	0.578244
O11	O	1.472648	-0.219781	0.274892
O12	O	1.300141	-0.219746	0.447423
O13	O	1.472671	-0.283925	0.750699
O14	O	1.300075	-0.283946	0.578127
O15	O	1.603510	-0.219708	0.750749
O16	O	1.603201	-0.368741	0.447376
O17	O	1.472495	-0.368714	0.578101
C18	C	1.261488	-0.251845	0.512771
C19	C	1.143183	-0.251853	0.512783
C20	C	1.073935	-0.216887	0.441829
C21	C	1.003084	-0.264579	0.415638
C22	C	1.003234	-0.204184	0.538992
C23	C	1.073891	-0.299570	0.486541
C24	C	1.074047	-0.239144	0.609941
C25	C	1.003228	-0.286869	0.583787
C26	C	1.537847	-0.387698	0.512751
C27	C	1.537867	-0.445812	0.512765
C28	C	1.469958	-0.697004	0.580849
C29	C	1.469918	-0.642400	0.580837
O30	O	1.412005	-0.614162	0.638689
N31	N	1.538001	-0.615086	0.512821
C32	C	1.606135	-0.642379	0.444820
O33	O	1.664041	-0.614133	0.386966
C34	C	1.606179	-0.696983	0.444838
C35	C	1.538084	-0.724294	0.512851
C36	C	1.401870	-0.724315	0.648858
C37	C	1.401908	-0.778916	0.648868
C38	C	1.470034	-0.806205	0.580871
C39	C	1.538123	-0.778894	0.512862
C40	C	1.674317	-0.724275	0.376844
C41	C	1.674356	-0.778882	0.376869
C42	C	1.606261	-0.806193	0.444882
C43	C	1.606287	-0.860784	0.444875
N44	N	1.538205	-0.888098	0.512891
C45	C	1.470078	-0.860808	0.580889
C46	C	1.606038	-0.527709	0.444787
C47	C	1.605990	-0.473106	0.444763
C48	C	1.469775	-0.473131	0.580781
C49	C	1.469819	-0.527734	0.580800
C50	C	1.537956	-0.555022	0.512804
C51	C	1.470163	-0.975473	0.580906
C52	C	1.470205	-1.030079	0.580907
C53	C	1.606423	-1.030050	0.444893
C54	C	1.606379	-0.975449	0.444887
C55	C	1.538245	-0.948162	0.512902
O56	O	1.664174	-0.889057	0.387055
O57	O	1.412192	-0.889062	0.638743
C58	C	1.815650	-0.251866	0.512835
C59	C	1.933955	-0.251871	0.512848
C60	C	1.538101	-0.251810	0.790424
C61	C	1.538131	-0.251790	0.908729
C62	C	1.538241	-0.115482	0.512878
C63	C	1.538331	-0.057368	0.512910
C64	C	1.538019	-0.251863	0.236262
C65	C	1.538195	-0.251736	0.117957
C66	C	1.466990	-0.286698	0.977955
C67	C	1.564100	-0.299473	1.048743
C68	C	1.441097	-0.238984	1.048741
C69	C	1.635292	-0.264590	0.977959
C70	C	1.512223	-0.204079	0.977951
C71	C	1.609400	-0.216836	1.048706
H72	H	0.971917	-0.275340	0.333501
N73	N	0.964495	-0.324006	0.659098
N74	N	0.907808	-0.309281	0.734829
H75	H	0.880448	-0.335510	0.788013
N76	N	1.743852	-0.696386	0.307346
N77	N	1.706414	-0.665971	0.239461
H78	H	1.755521	-0.646277	0.190364
N79	N	1.112672	-0.350164	0.458650
N80	N	1.210403	-0.358317	0.454085
H81	H	1.237796	-0.394048	0.434385
N82	N	0.964296	-0.153602	0.566756
N83	N	0.986970	-0.115059	0.510406
H84	H	0.959473	-0.079334	0.530004
N85	N	1.484646	-0.153505	0.938920
N86	N	1.396555	-0.134027	0.961558
H87	H	1.377067	-0.098309	0.933992
H88	H	1.105240	-0.228368	0.692053
N89	N	1.400632	-1.057967	0.650385
N90	N	1.339811	-1.033591	0.711091
H91	H	1.290676	-1.053285	0.760160
H92	H	1.406875	-0.316264	0.946891
H93	H	1.414684	-0.953263	0.636291
N94	N	1.338128	-0.225408	1.087743
N95	N	1.326583	-0.185809	1.144505
H96	H	1.253859	-0.176223	1.172047
N97	N	1.675632	-0.555589	0.375327
N98	N	1.743467	-0.586009	0.412836
H99	H	1.792617	-0.605698	0.363781
N100	N	1.400179	-0.445256	0.650249
N101	N	1.301970	-0.451401	0.643111
H102	H	1.252820	-0.431714	0.692170
N103	N	1.332288	-0.696438	0.718325
N104	N	1.369664	-0.665926	0.786185
H105	H	1.320515	-0.646241	0.835249
N106	N	1.332346	-0.806801	0.718352
N107	N	1.271532	-0.782420	0.779057
H108	H	1.222402	-0.802110	0.828137
N109	N	1.112874	-0.179822	0.366472
N110	N	1.049160	-0.153655	0.312184
H111	H	1.076660	-0.127479	0.258963
H112	H	1.669659	-0.187292	1.079575
N113	N	1.400252	-0.555621	0.650277
N114	N	1.339428	-0.531242	0.710975
H115	H	1.290293	-0.550934	0.760047
H116	H	1.586048	-0.339798	1.079838
H117	H	1.661427	-0.450874	0.389368
H118	H	1.729846	-0.801097	0.321500
H119	H	1.717403	-0.275445	0.946997
N120	N	1.675925	-0.947557	0.375393
N121	N	1.736740	-0.971932	0.314679
H122	H	1.785864	-0.952236	0.265602
H123	H	1.661886	-1.052279	0.389527
