data_functionalizedCrystal
_audit_creation_method	'MofGen! by Chris Wilmer'
_symmetry_space_group_name_H-M	'P1'
_symmetry_Int_Tables_number	1
_symmetry_cell_setting	triclinic
loop_
_symmetry_equiv_pos_as_xyz
  x,y,z
_cell_length_a	16.625539
_cell_length_b	19.805407
_cell_length_c	16.625545
_cell_angle_alpha	89.972502
_cell_angle_beta	90.028107
_cell_angle_gamma	89.977631
loop_
_atom_site_label
_atom_site_type_symbol
_atom_site_fract_x
_atom_site_fract_y
_atom_site_fract_z
Zn1	Zn	-0.455949	1.034753	0.320958
Zn2	Zn	0.044051	1.534753	0.820958
Zn3	Zn	-0.321117	1.034665	0.455802
Zn4	Zn	0.178883	1.534665	0.955802
Zn5	Zn	-0.321125	0.921564	0.320991
Zn6	Zn	0.178875	1.421564	0.820991
Zn7	Zn	-0.455903	0.921533	0.455757
Zn8	Zn	0.044097	1.421533	0.955757
O9	O	-0.388524	0.978129	0.388377
O10	O	0.111476	1.478129	0.888377
O11	O	-0.438079	1.129458	0.338850
O12	O	0.061921	1.629458	0.838850
O13	O	-0.208286	1.019639	0.437951
O14	O	0.291714	1.519639	0.937951
O15	O	-0.339033	0.936628	0.208154
O16	O	0.160967	1.436628	0.708154
O17	O	-0.339019	1.129394	0.437919
O18	O	0.160981	1.629394	0.937919
O19	O	-0.438088	1.019788	0.208130
O20	O	0.061912	1.519788	0.708130
O21	O	-0.208292	0.936543	0.338906
O22	O	0.291708	1.436543	0.838906
O23	O	-0.338988	0.826843	0.338863
O24	O	0.161012	1.326843	0.838863
O25	O	-0.568741	0.936575	0.437844
O26	O	-0.068741	1.436575	0.937844
O27	O	-0.438008	0.826820	0.437875
O28	O	0.061992	1.326820	0.937875
O29	O	-0.568775	1.019758	0.338808
O30	O	-0.068775	1.519758	0.838808
O31	O	-0.338973	1.019609	0.568628
O32	O	0.161027	1.519609	1.068628
O33	O	-0.438000	0.936490	0.568596
O34	O	0.062000	1.436490	1.068596
C35	C	-0.388494	0.802273	0.388369
C36	C	0.111506	1.302273	0.888369
C37	C	-0.388501	0.727041	0.388385
C38	C	0.111499	1.227041	0.888385
C39	C	-0.440215	0.265286	0.336889
C40	C	0.059785	0.765286	0.836889
C41	C	-0.440209	0.335975	0.336890
C42	C	0.059791	0.835975	0.836890
C43	C	-0.388550	0.371279	0.388389
C44	C	0.111450	0.871279	0.888389
C45	C	-0.336899	0.335891	0.439896
C46	C	0.163101	0.835891	0.939896
C47	C	-0.336909	0.265204	0.439898
C48	C	0.163091	0.765204	0.939898
C49	C	-0.336856	0.620964	0.439890
C50	C	0.163144	1.120964	0.939890
C51	C	-0.336848	0.691656	0.439883
C52	C	0.163152	1.191656	0.939883
C53	C	-0.440156	0.691735	0.336882
C54	C	0.059844	1.191735	0.836882
C55	C	-0.440166	0.621048	0.336884
C56	C	0.059834	1.121048	0.836884
C57	C	-0.388518	0.585666	0.388393
C58	C	0.111482	1.085666	0.888393
C59	C	-0.388526	0.509018	0.388392
C60	C	0.111474	1.009018	0.888392
C61	C	-0.388537	0.447926	0.388387
C62	C	0.111463	0.947926	0.888387
C63	C	-0.598833	0.978173	0.388317
C64	C	-0.098833	1.478173	0.888317
C65	C	-0.688454	0.978191	0.388291
C66	C	-0.188454	1.478191	0.888291
C67	C	-1.016630	0.978223	0.388201
C68	C	-0.516630	1.478223	0.888201
C69	C	-0.925321	0.978212	0.388229
C70	C	-0.425321	1.478212	0.888229
C71	C	-0.852545	0.978207	0.388247
C72	C	-0.352545	1.478207	0.888247
C73	C	-0.761230	0.978196	0.388273
C74	C	-0.261230	1.478196	0.888273
C75	C	-0.179033	0.978124	0.388379
C76	C	0.320967	1.478124	0.888379
C77	C	-0.089412	0.978236	0.388177
C78	C	0.410588	1.478236	0.888177
C79	C	-0.388498	0.978055	0.597868
C80	C	0.111502	1.478055	1.097868
C81	C	-0.388514	0.978086	0.687489
C82	C	0.111486	1.478086	1.187489
C83	C	-0.388553	1.154671	0.388386
C84	C	0.111447	1.654671	0.888386
C85	C	-0.388566	1.229903	0.388390
C86	C	0.111434	1.729903	0.888390
C87	C	-0.388567	0.978221	0.178068
C88	C	0.111433	1.478221	0.678068
C89	C	-0.388585	0.978260	0.088447
C90	C	0.111415	1.478260	0.588447
C91	C	-0.388530	0.978112	0.760272
C92	C	0.111470	1.478112	1.260272
C93	C	-0.388548	0.978151	0.851580
C94	C	0.111452	1.478151	1.351580
C95	C	-0.388558	0.978186	0.924356
C96	C	0.111442	1.478186	1.424356
C97	C	-0.388575	0.978225	1.015671
C98	C	0.111425	1.478225	1.515671
H99	H	-0.482269	0.364781	0.294955
H100	H	0.017731	0.864781	0.794955
C101	C	-0.280089	0.226282	0.496552
C102	C	0.219911	0.726282	0.996552
N103	N	-0.237292	0.196968	0.539226
N104	N	0.262708	0.696968	1.039226
H105	H	-0.482229	0.592307	0.294945
H106	H	0.017771	1.092307	0.794945
C107	C	-0.280028	0.582053	0.496539
C108	C	0.219972	1.082053	0.996539
N109	N	-0.237219	0.552743	0.539205
N110	N	0.262781	1.052743	1.039205
C111	C	-0.280069	0.374728	0.496543
C112	C	0.219931	0.874728	0.996543
N113	N	-0.237261	0.403979	0.539207
N114	N	0.262739	0.903979	1.039207
C115	C	-0.497045	0.226459	0.280234
C116	C	0.002955	0.726459	0.780234
N117	N	-0.539854	0.197215	0.237563
N118	N	-0.039854	0.697215	0.737563
C119	C	-0.496975	0.730662	0.280225
C120	C	0.003025	1.230662	0.780225
N121	N	-0.539769	0.759980	0.237551
N122	N	-0.039769	1.259980	0.737551
C123	C	-0.280020	0.730489	0.496543
C124	C	0.219980	1.230489	0.996543
N125	N	-0.237220	0.759738	0.539218
N126	N	0.262780	1.259738	1.039218
