data_functionalizedCrystal
_audit_creation_method	'MofGen! by Chris Wilmer'
_symmetry_space_group_name_H-M	'P1'
_symmetry_Int_Tables_number	1
_symmetry_cell_setting	triclinic
loop_
_symmetry_equiv_pos_as_xyz
  x,y,z
_cell_length_a	16.109301
_cell_length_b	14.750779
_cell_length_c	16.109301
_cell_angle_alpha	77.359896
_cell_angle_beta	96.538519
_cell_angle_gamma	77.359167
loop_
_atom_site_label
_atom_site_type_symbol
_atom_site_fract_x
_atom_site_fract_y
_atom_site_fract_z
O1	O	1.085092	0.079770	-0.124898
O2	O	0.843026	0.079786	-0.138200
O3	O	0.970711	0.079768	-0.010516
O4	O	0.957407	0.079788	-0.252582
O5	O	1.006806	-0.079888	0.025575
O6	O	0.879121	-0.079870	-0.102109
O7	O	1.121187	-0.079885	-0.088807
Zn8	Zn	1.005885	-0.105226	-0.089728
Zn9	Zn	0.958328	0.105127	-0.137279
O10	O	0.993502	-0.079867	-0.216491
C11	C	0.830099	-0.000040	-0.119617
C12	C	0.737802	-0.000035	-0.118003
N13	N	1.038347	-0.248787	-0.057275
C14	C	0.515531	-0.000040	-0.190009
C15	C	0.428812	-0.000046	-0.188484
C16	C	0.448688	-0.000055	-0.036993
C17	C	0.535407	-0.000055	-0.038518
C18	C	0.568825	-0.000043	-0.115030
C19	C	0.395387	-0.000049	-0.111979
C20	C	0.301362	-0.000055	-0.110325
C21	C	0.662855	-0.000038	-0.116684
C22	C	0.835210	-0.600576	-0.260326
C23	C	0.857964	-0.701078	-0.237590
C24	C	0.971052	-0.701057	-0.124567
C25	C	0.948305	-0.600553	-0.147290
C26	C	0.880384	-0.550320	-0.215171
C27	C	0.993479	-0.550297	-0.102136
C28	C	0.970737	-0.449801	-0.124861
C29	C	0.902821	-0.399562	-0.192740
C30	C	0.857642	-0.449825	-0.237896
C31	C	1.061404	-0.600531	-0.034259
C32	C	1.106578	-0.550275	0.010895
C33	C	1.083832	-0.449778	-0.011825
C34	C	1.015915	-0.399538	-0.079705
C35	C	1.129010	-0.399515	0.033331
C36	C	1.106268	-0.299019	0.010606
C37	C	0.993173	-0.299043	-0.102429
C38	C	1.134114	-0.000057	-0.107391
C39	C	1.226409	-0.000057	-0.109006
C40	C	0.988220	-0.000061	0.038505
C41	C	0.986605	-0.000062	0.130800
N42	N	0.925873	0.248687	-0.169726
C43	C	0.975993	-0.000037	-0.265512
C44	C	0.977606	-0.000030	-0.357809
C45	C	1.058610	-0.000051	0.353070
C46	C	1.057085	-0.000043	0.439789
C47	C	0.905595	-0.000037	0.419913
C48	C	0.907120	-0.000038	0.333195
C49	C	0.983631	-0.000050	0.299777
C50	C	0.980580	-0.000041	0.473214
C51	C	0.978925	-0.000032	0.567238
C52	C	0.985286	-0.000057	0.205747
H53	H	0.542738	-0.000037	-0.252308
H54	H	0.578802	-0.000061	0.022544
C55	C	0.821442	-0.000038	0.456679
H56	H	0.831273	-0.000048	0.515961
H57	H	0.777978	0.055636	0.425797
H58	H	0.803166	-0.055721	0.450974
H59	H	1.143054	-0.258100	0.047375
C60	C	0.877800	-0.289018	-0.217743
H61	H	0.830884	-0.266302	-0.264641
H62	H	0.861294	-0.266283	-0.169743
H63	H	0.925787	-0.266273	-0.234289
H64	H	0.821172	-0.741992	-0.274368
C65	C	0.760497	-0.545314	-0.334992
H66	H	0.736848	-0.589636	-0.358635
H67	H	0.717032	-0.506115	-0.313936
H68	H	0.781527	-0.506107	-0.378480
C69	C	1.203720	-0.454773	0.107993
H70	H	1.227370	-0.410448	0.131629
H71	H	1.182700	-0.493989	0.151476
H72	H	1.247191	-0.493962	0.086929
C73	C	1.045757	-0.756318	-0.049900
H74	H	1.052829	-0.823368	-0.042829
H75	H	1.097510	-0.739835	-0.062666
H76	H	1.033007	-0.739851	0.001869
C77	C	1.142765	-0.000057	0.316307
H78	H	1.132940	-0.000067	0.257030
H79	H	1.161049	0.055618	0.322012
H80	H	1.186225	-0.055740	0.347195
C81	C	1.181283	-0.605536	0.085562
H82	H	1.188355	-0.672586	0.092634
H83	H	1.233036	-0.589053	0.072796
H84	H	1.168533	-0.589069	0.137331
H85	H	1.079920	-0.682361	-0.015762
C86	C	0.824640	-0.000032	0.274564
H87	H	0.836505	-0.000023	0.218129
H88	H	0.805850	-0.055704	0.297276
H89	H	0.780682	0.055654	0.272102
C90	C	0.370190	-0.000035	-0.270963
H91	H	0.402514	-0.000021	-0.316747
H92	H	0.348537	-0.055710	-0.260935
H93	H	0.323358	0.055648	-0.286103
H94	H	1.118140	-0.000042	0.483177
C95	C	0.782928	-0.394562	-0.312562
H96	H	0.759280	-0.438884	-0.336205
H97	H	0.739464	-0.355364	-0.291506
H98	H	0.803958	-0.355355	-0.356050
H99	H	0.421470	-0.000071	0.025301
H100	H	0.937859	-0.258141	-0.157699
