data_functionalizedCrystal
_audit_creation_method	'MofGen! by Chris Wilmer'
_symmetry_space_group_name_H-M	'P1'
_symmetry_Int_Tables_number	1
_symmetry_cell_setting	triclinic
loop_
_symmetry_equiv_pos_as_xyz
  x,y,z
_cell_length_a	19.077212
_cell_length_b	13.031981
_cell_length_c	13.034356
_cell_angle_alpha	76.643358
_cell_angle_beta	80.808006
_cell_angle_gamma	99.167303
loop_
_atom_site_label
_atom_site_type_symbol
_atom_site_fract_x
_atom_site_fract_y
_atom_site_fract_z
Zn1	Zn	1.106165	-0.271123	-0.622605
Zn2	Zn	1.606165	0.228877	-0.122605
Zn3	Zn	1.071431	-0.473740	-0.420020
Zn4	Zn	1.571431	0.026260	0.079980
Zn5	Zn	0.969732	-0.303046	-0.435649
Zn6	Zn	1.469732	0.196954	0.064351
Zn7	Zn	0.969732	-0.458040	-0.590632
Zn8	Zn	1.469732	0.041960	-0.090632
O9	O	1.029265	-0.376487	-0.517226
O10	O	1.529265	0.123513	-0.017226
O11	O	1.201217	-0.291210	-0.602572
O12	O	1.701217	0.208790	-0.102572
O13	O	1.043403	-0.471027	-0.272450
O14	O	1.543403	0.028973	0.227550
O15	O	1.002366	-0.149150	-0.480370
O16	O	1.502366	0.350850	0.019630
O17	O	1.175698	-0.440072	-0.453734
O18	O	1.675698	0.059928	0.046266
O19	O	1.102604	-0.125696	-0.617726
O20	O	1.602604	0.374304	-0.117726
O21	O	0.968686	-0.345620	-0.283932
O22	O	1.468686	0.154380	0.216068
O23	O	0.870073	-0.330397	-0.449368
O24	O	1.370073	0.169603	0.050632
O25	O	1.002367	-0.413315	-0.744516
O26	O	1.502367	0.086685	-0.244516
O27	O	0.870073	-0.444270	-0.563233
O28	O	1.370073	0.055730	-0.063233
O29	O	1.102604	-0.275987	-0.768007
O30	O	1.602604	0.224013	-0.268007
O31	O	1.043404	-0.621319	-0.422731
O32	O	1.543404	-0.121319	0.077269
O33	O	0.968687	-0.609785	-0.548078
O34	O	1.468687	-0.109785	-0.048078
C35	C	0.844233	-0.389095	-0.504527
C36	C	1.344233	0.110905	-0.004527
C37	C	0.765075	-0.394511	-0.499116
C38	C	1.265075	0.105489	0.000884
C39	C	0.318077	-0.433303	-0.460364
C40	C	0.818077	0.066697	0.039636
C41	C	0.392454	-0.428209	-0.465441
C42	C	0.892454	0.071791	0.034559
C43	C	0.442931	-0.348255	-0.545568
C44	C	0.942931	0.151745	-0.045568
C45	C	0.419028	-0.273383	-0.620616
C46	C	0.919028	0.226617	-0.120616
C47	C	0.344652	-0.278472	-0.615534
C48	C	0.844652	0.221528	-0.115534
C49	C	0.666796	-0.324728	-0.569083
C50	C	1.166796	0.175272	-0.069083
C51	C	0.741176	-0.319646	-0.574161
C52	C	1.241176	0.180354	-0.074161
C53	C	0.714597	-0.474472	-0.418984
C54	C	1.214597	0.025528	0.081016
C55	C	0.640221	-0.479558	-0.413913
C56	C	1.140221	0.020442	0.086087
C57	C	0.616324	-0.404683	-0.488958
C58	C	1.116324	0.095317	0.011042
N59	N	0.518956	-0.343049	-0.550761
N60	N	1.018956	0.156951	-0.050761
N61	N	0.540300	-0.409885	-0.483759
N62	N	1.040300	0.090115	0.016241
C63	C	1.002298	-0.654353	-0.480264
C64	C	1.502298	-0.154353	0.019736
C65	C	0.990830	-0.773216	-0.464491
C66	C	1.490830	-0.273216	0.035509
C67	C	1.035290	-0.814514	-0.525482
C68	C	1.535290	-0.314514	-0.025482
C69	C	1.023439	-0.937364	-0.509182
C70	C	1.523439	-0.437364	-0.009182
C71	C	1.215020	-0.363831	-0.529976
C72	C	1.715020	0.136169	-0.029976
C73	C	1.294178	-0.358438	-0.535409
C74	C	1.794178	0.141562	-0.035409
C75	C	1.056360	-0.339339	-0.796147
C76	C	1.556360	0.160661	-0.296147
C77	C	1.067907	-0.323508	-0.915007
C78	C	1.567907	0.176492	-0.415007
C79	C	1.056359	-0.097532	-0.554358
C80	C	1.556359	0.402468	-0.054358
C81	C	1.067905	0.021342	-0.570181
C82	C	1.567905	0.521342	-0.070181
C83	C	1.035390	-0.368043	-1.079222
C84	C	1.535390	0.131957	-0.579222
C85	C	1.023455	-0.384405	-0.956375
C86	C	1.523455	0.115595	-0.456375
C87	C	1.002324	-0.413411	-0.239404
C88	C	1.502324	0.086589	0.260596
C89	C	0.990945	-0.428931	-0.120594
C90	C	1.490945	0.071069	0.379406
H91	H	0.599126	-0.544665	-0.348664
H92	H	1.099126	-0.044665	0.151336
F93	F	1.129131	-0.906005	-0.654214
F94	F	1.629131	-0.406005	-0.154214
F95	F	1.129201	-0.239537	-0.987575
F96	F	1.629201	0.260463	-0.487575
F97	F	0.740035	-0.554152	-0.339119
F98	F	1.240035	-0.054152	0.160881
F99	F	0.641374	-0.245044	-0.648959
F100	F	1.141374	0.254956	-0.148959
F101	F	0.264361	-0.518408	-0.375088
F102	F	0.764361	-0.018408	0.124912
F103	F	0.417884	-0.507872	-0.385549
F104	F	0.917884	-0.007872	0.114451
H105	H	0.325196	-0.217506	-0.676641
H106	H	0.825196	0.282494	-0.176641
H107	H	0.782275	-0.254531	-0.639410
H108	H	1.282275	0.245469	-0.139410
F109	F	0.962209	-1.010020	-0.425157
F110	F	1.462209	-0.510020	0.074843
H111	H	0.460132	-0.208278	-0.685853
H112	H	0.960132	0.291722	-0.185853
H113	H	1.082127	-0.758923	-0.589771
H114	H	1.582127	-0.258923	-0.089771
H115	H	0.943988	-0.828808	-0.400212
H116	H	1.443988	-0.328808	0.099788
H117	H	1.082281	-0.303805	-1.134750
H118	H	1.582281	0.196195	-0.634750
H119	H	0.976566	-0.448655	-0.900850
H120	H	1.476566	0.051345	-0.400850
H121	H	0.944059	-0.493176	-1.065066
H122	H	1.444059	0.006824	-0.565066
