data_functionalizedCrystal
_audit_creation_method	'MofGen! by Chris Wilmer'
_symmetry_space_group_name_H-M	'P1'
_symmetry_Int_Tables_number	1
_symmetry_cell_setting	triclinic
loop_
_symmetry_equiv_pos_as_xyz
  x,y,z
_cell_length_a	13.635800
_cell_length_b	19.452420
_cell_length_c	17.110486
_cell_angle_alpha	83.299071
_cell_angle_beta	99.060439
_cell_angle_gamma	78.303285
loop_
_atom_site_label
_atom_site_type_symbol
_atom_site_fract_x
_atom_site_fract_y
_atom_site_fract_z
V1	V	1.984024	-0.096973	0.247106
O2	O	1.982909	0.004875	0.242004
O3	O	1.955588	-0.192489	0.245800
O4	O	1.949025	-0.095387	0.354703
O5	O	1.989518	-0.092899	0.132347
V6	V	2.227786	-0.084802	0.233334
O7	O	2.110265	-0.123672	0.277318
O8	O	2.326644	-0.058104	0.203122
O9	O	2.144619	0.010713	0.234641
O10	O	2.287599	-0.186651	0.238436
O11	O	2.280991	-0.088877	0.348094
O12	O	2.151181	-0.086388	0.125737
V13	V	2.484024	-0.096973	0.247106
O14	O	2.482909	0.004875	0.242004
O15	O	2.455588	-0.192489	0.245800
O16	O	2.449025	-0.095387	0.354703
O17	O	2.489518	-0.092899	0.132347
V18	V	2.727786	-0.084802	0.233334
O19	O	2.610265	-0.123672	0.277318
O20	O	2.826644	-0.058104	0.203122
O21	O	2.644619	0.010713	0.234641
O22	O	2.787599	-0.186651	0.238436
O23	O	2.780991	-0.088877	0.348094
O24	O	2.651181	-0.086388	0.125737
C25	C	1.877407	-0.215777	0.242000
C26	C	1.894729	-0.293861	0.241649
C27	C	1.890523	-0.320552	0.168969
C28	C	1.906837	-0.393919	0.168615
C29	C	1.927337	-0.440592	0.240943
C30	C	1.931548	-0.413894	0.313633
C31	C	1.915245	-0.340529	0.313985
N32	N	1.905623	-0.560998	0.291883
N33	N	1.921108	-0.630691	0.291543
C34	C	1.976462	-0.661639	0.239885
N35	N	2.015731	-0.620258	0.188567
N36	N	2.000240	-0.550558	0.188905
C37	C	1.945017	-0.520146	0.240569
C38	C	1.989946	-0.767882	0.166816
C39	C	2.006266	-0.841251	0.166465
C40	C	2.030968	-0.861224	0.311484
C41	C	2.014657	-0.787857	0.311834
C42	C	1.994142	-0.741189	0.239497
C43	C	1.869035	-0.091913	0.380917
C44	C	1.881034	-0.091248	0.468880
C45	C	2.054470	0.033997	0.238438
C46	C	2.026767	0.112081	0.238794
C47	C	2.062843	-0.089865	0.099519
C48	C	2.040464	-0.090526	0.011555
C49	C	2.377407	-0.215777	0.242000
C50	C	2.394729	-0.293861	0.241649
C51	C	2.369035	-0.091913	0.380917
C52	C	2.381034	-0.091248	0.468880
C53	C	1.977159	-0.094441	0.514251
C54	C	1.988426	-0.093816	0.596902
C55	C	1.903569	-0.090003	0.634181
C56	C	1.807436	-0.086807	0.588804
C57	C	1.796168	-0.087427	0.506154
C58	C	1.933063	-0.087951	0.883528
C59	C	1.944339	-0.087333	0.966184
C60	C	2.125328	-0.094341	0.974276
C61	C	2.114053	-0.094965	0.891625
C62	C	2.017920	-0.091765	0.846254
C63	C	1.915085	-0.089366	0.718664
C64	C	2.006405	-0.092397	0.761772
C65	C	2.554470	0.033997	0.238438
C66	C	2.526767	0.112081	0.238794
C67	C	2.562843	-0.089865	0.099519
C68	C	2.540464	-0.090526	0.011555
C69	C	2.493367	-0.334109	0.245452
C70	C	2.509659	-0.407480	0.245134
C71	C	2.427310	-0.440601	0.241007
C72	C	2.328665	-0.400348	0.237206
C73	C	2.312375	-0.326980	0.237530
C74	C	2.477165	-0.094435	0.514236
C75	C	2.488451	-0.093801	0.596886
C76	C	2.403605	-0.089985	0.634179
C77	C	2.307465	-0.086797	0.588817
C78	C	2.296180	-0.087425	0.506168
C79	C	2.600623	0.152328	0.234994
C80	C	2.574602	0.225699	0.235315
C81	C	2.474727	0.258820	0.239444
C82	C	2.400866	0.218568	0.243242
C83	C	2.426885	0.145199	0.242915
C84	C	2.443077	-0.094334	-0.025718
C85	C	2.422033	-0.094947	-0.108371
C86	C	2.498378	-0.091757	-0.153748
C87	C	2.595772	-0.087948	-0.116470
C88	C	2.616813	-0.087330	-0.033820
H89	H	1.903409	-0.415655	0.109429
C90	C	2.655863	0.269964	0.231146
C91	C	2.752121	0.253315	0.296912
C92	C	2.833383	0.297576	0.292745
C93	C	2.818386	0.358487	0.222811
C94	C	2.722123	0.375140	0.157040
C95	C	2.640861	0.330878	0.161207
H96	H	2.763227	0.208222	0.348686
H97	H	2.904643	0.285249	0.341433
H98	H	2.878540	0.391253	0.219726
H99	H	2.711017	0.420232	0.105266
H100	H	2.569601	0.343205	0.112519
H101	H	2.412808	-0.089474	0.701479
H102	H	1.845997	-0.086264	0.749026
H103	H	1.873826	-0.282559	0.110067
H104	H	2.319546	0.245546	0.246603
H105	H	2.481235	-0.092270	-0.221045
H106	H	1.948242	-0.451900	0.372523
H107	H	1.717890	-0.084810	0.469211
H108	H	2.566740	-0.096400	0.633810
H109	H	1.918674	-0.318799	0.373172
H110	H	2.238389	-0.083691	0.619194
H111	H	2.681951	0.125371	0.231633
H112	H	1.973240	-0.729883	0.107915
C113	C	1.827320	-0.084439	0.833633
C114	C	1.738954	-0.020200	0.830665
C115	C	1.633204	-0.016688	0.780769
C116	C	1.615819	-0.077417	0.733841
C117	C	1.704188	-0.141661	0.736808
C118	C	1.809938	-0.145172	0.786704
H119	H	1.751820	0.024759	0.865405
H120	H	1.567788	0.030870	0.778573
H121	H	1.537537	-0.074818	0.696905
H122	H	1.691321	-0.186620	0.702067
H123	H	1.875354	-0.192730	0.788900
H124	H	2.002846	-0.862980	0.107279
H125	H	2.047660	-0.899225	0.370376
H126	H	1.738344	-0.083698	0.619163
H127	H	2.183154	-0.098069	0.861278
H128	H	2.018076	-0.766126	0.371017
H129	H	2.046262	-0.097551	0.483905
H130	H	2.066699	-0.096413	0.633838
H131	H	2.203596	-0.096945	1.011225
H132	H	2.217898	-0.084832	0.469245
H133	H	1.875232	-0.084226	0.996534
H134	H	2.075493	-0.095500	0.731415
H135	H	2.560431	-0.307151	0.248807
H136	H	2.589987	-0.440243	0.248227
H137	H	2.440589	-0.500343	0.240744
H138	H	2.261622	-0.427327	0.233847
H139	H	2.232052	-0.294215	0.234429
H140	H	2.546262	-0.097543	0.483884
H141	H	2.453554	0.318562	0.239709
H142	H	2.342725	-0.098049	-0.138710
H143	H	2.366739	0.112434	0.246017
H144	H	2.380900	-0.096930	0.011218
H145	H	2.657925	-0.085349	-0.153429
H146	H	2.696117	-0.084234	-0.003478
