data_functionalizedCrystal
_audit_creation_method	'MofGen! by Chris Wilmer'
_symmetry_space_group_name_H-M	'P1'
_symmetry_Int_Tables_number	1
_symmetry_cell_setting	triclinic
loop_
_symmetry_equiv_pos_as_xyz
  x,y,z
_cell_length_a	19.188930
_cell_length_b	18.266242
_cell_length_c	15.995350
_cell_angle_alpha	89.997106
_cell_angle_beta	96.681422
_cell_angle_gamma	90.022820
loop_
_atom_site_label
_atom_site_type_symbol
_atom_site_fract_x
_atom_site_fract_y
_atom_site_fract_z
O1	O	0.926416	0.061113	-0.104533
O2	O	0.723140	0.061062	-0.118605
O3	O	0.830335	0.061088	0.010339
O4	O	0.819221	0.061087	-0.233477
O5	O	0.830316	-0.060674	0.010342
O6	O	0.723122	-0.060700	-0.118602
O7	O	0.926397	-0.060649	-0.104530
Zn8	Zn	0.824757	-0.080007	-0.111565
Zn9	Zn	0.824781	0.080420	-0.111570
O10	O	0.819203	-0.060675	-0.233474
C11	C	0.697119	0.000175	-0.118148
C12	C	0.619611	0.000156	-0.116780
N13	N	0.824745	-0.189494	-0.111561
C14	C	0.574880	0.000167	-0.192440
C15	C	0.502052	0.000175	-0.191155
C16	C	0.473960	0.000186	-0.114205
C17	C	0.518701	0.000171	-0.038535
C18	C	0.591526	0.000156	-0.039823
N19	N	0.365836	0.041657	-0.055388
N20	N	0.296654	0.041673	-0.054170
C21	C	0.254541	0.000231	-0.110322
N22	N	0.284222	-0.041219	-0.167750
N23	N	0.353410	-0.041232	-0.168970
C24	C	0.394994	0.000203	-0.112801
C25	C	0.130842	0.000250	-0.184594
C26	C	0.058014	0.000253	-0.183306
C27	C	0.074664	0.000257	-0.030684
C28	C	0.147491	0.000246	-0.031974
C29	C	0.175575	0.000246	-0.108932
C30	C	0.867084	-0.227786	-0.162223
C31	C	0.867095	-0.304431	-0.162221
C32	C	0.824755	-0.342781	-0.111566
C33	C	0.782415	-0.304480	-0.060894
C34	C	0.782410	-0.227836	-0.060892
N35	N	0.763602	-0.463148	-0.109504
N36	N	0.763609	-0.535956	-0.109511
C37	C	0.824769	-0.573703	-0.111570
N38	N	0.885923	-0.535891	-0.113637
N39	N	0.885916	-0.463076	-0.113634
C40	C	0.824757	-0.425888	-0.111563
C41	C	0.867124	-0.695102	-0.162231
C42	C	0.867137	-0.771748	-0.162223
C43	C	0.782450	-0.771796	-0.060901
C44	C	0.782443	-0.695151	-0.060905
C45	C	0.824779	-0.656809	-0.111575
C46	C	0.952419	0.000240	-0.104987
C47	C	1.029927	0.000264	-0.106355
C48	C	0.829866	0.000208	0.041533
C49	C	0.828489	0.000212	0.134479
N50	N	0.824798	0.189907	-0.111567
C51	C	0.819671	0.000206	-0.264669
C52	C	0.821049	0.000207	-0.357614
C53	C	0.823542	0.000209	0.472208
C54	C	0.747200	0.000463	0.424495
C55	C	0.748578	0.000189	0.327809
C56	C	0.825996	0.000211	0.304657
C57	C	0.863640	-0.069311	0.345874
C58	C	0.861722	-0.069369	0.442503
C59	C	0.863320	0.069097	0.442863
C60	C	0.863302	0.070016	0.345917
C61	C	0.827386	0.000210	0.209964
C62	C	0.822153	0.000205	0.566901
H63	H	0.597741	0.000168	-0.255105
C64	C	0.640733	0.000148	0.043413
N65	N	0.677797	0.000145	0.106108
H66	H	0.747942	-0.335709	-0.019650
C67	C	0.913672	-0.346560	-0.217955
N68	N	0.948754	-0.378290	-0.259935
C69	C	0.708595	0.067510	0.289261
N70	N	0.678475	0.118217	0.260230
H71	H	0.465625	0.000182	-0.252768
C72	C	0.735877	-0.813977	-0.005179
N73	N	0.700798	-0.845751	0.036794
H74	H	0.901618	-0.802924	-0.203476
H75	H	0.834256	-0.121354	0.460705
H76	H	0.716694	0.050317	0.442913
C77	C	0.939358	0.069754	0.486053
N78	N	0.996628	0.070244	0.518590
C79	C	0.706158	-0.066549	0.450790
N80	N	0.675250	-0.117028	0.470589
H81	H	0.183912	0.000241	0.029637
H82	H	0.718772	-0.049746	0.299837
C83	C	0.008809	0.000255	-0.266542
N84	N	-0.028254	0.000254	-0.329238
C85	C	0.043767	0.000269	0.053962
N86	N	0.020491	0.000277	0.117720
C87	C	0.937439	-0.073621	0.486348
N88	N	0.994468	-0.076828	0.519368
C89	C	0.735828	-0.185714	-0.005163
N90	N	0.700740	-0.153986	0.036811
C91	C	0.735860	-0.653028	-0.005181
N92	N	0.700771	-0.621302	0.036793
C93	C	0.828294	-0.139225	0.307412
N94	N	0.801668	-0.191883	0.278444
H95	H	0.153710	0.000239	-0.247257
H96	H	0.919759	0.074231	0.330762
C97	C	0.913701	-0.652923	-0.217960
N98	N	0.948784	-0.621156	-0.259934
H99	H	0.495823	0.000191	0.024118
C100	C	0.940473	-0.072794	0.327056
N101	N	0.998342	-0.075419	0.312875
H102	H	0.901559	-0.196572	-0.203479
C103	C	0.829608	0.140285	0.470481
N104	N	0.804209	0.193900	0.491281
C105	C	0.826155	0.139499	0.308919
N106	N	0.798169	0.191832	0.281055
