data_functionalizedCrystal
_audit_creation_method	'MofGen! by Chris Wilmer'
_symmetry_space_group_name_H-M	'P1'
_symmetry_Int_Tables_number	1
_symmetry_cell_setting	triclinic
loop_
_symmetry_equiv_pos_as_xyz
  x,y,z
_cell_length_a	10.654550
_cell_length_b	10.540539
_cell_length_c	9.130313
_cell_angle_alpha	90.000859
_cell_angle_beta	89.996220
_cell_angle_gamma	84.505197
loop_
_atom_site_label
_atom_site_type_symbol
_atom_site_fract_x
_atom_site_fract_y
_atom_site_fract_z
O1	O	1.667897	0.178295	-0.121912
O2	O	1.302424	0.195282	-0.121888
O3	O	1.493499	0.002079	-0.121899
O4	O	1.476823	0.371498	-0.121902
O5	O	1.493496	0.002084	0.121700
O6	O	1.302422	0.195287	0.121711
O7	O	1.667894	0.178300	0.121686
Cu8	Cu	1.485158	0.186794	0.143941
Cu9	Cu	1.485161	0.186788	-0.144143
O10	O	1.476820	0.371503	0.121697
C11	C	1.255625	0.194038	-0.000086
C12	C	1.116180	0.190306	-0.000077
C13	C	1.036734	0.304061	-0.000099
C14	C	0.905712	0.300547	-0.000124
C15	C	0.933595	0.069513	-0.000111
C16	C	1.064614	0.073028	-0.000075
C17	C	1.020636	0.437446	-0.000113
C18	C	0.889614	0.433932	-0.000138
C19	C	1.492247	-0.045221	-0.000102
C20	C	1.488505	-0.186168	-0.000110
C21	C	1.345134	-0.369543	-0.000647
C22	C	1.348927	-0.222926	-0.000099
C23	C	1.555675	-0.247846	0.138993
C24	C	1.550912	-0.394389	0.139110
C25	C	1.553753	-0.394914	-0.137907
C26	C	1.555039	-0.247933	-0.139747
C27	C	1.714694	0.179545	-0.000119
C28	C	1.854139	0.183276	-0.000138
C29	C	1.478072	0.418803	-0.000103
C30	C	1.481813	0.559750	-0.000105
N31	N	1.485165	0.186798	0.346564
N32	N	1.485163	0.186774	-0.346765
C33	C	1.569795	0.101277	0.423211
C34	C	1.569791	0.101262	0.576548
C35	C	1.400525	0.272300	0.576577
C36	C	1.400523	0.272308	0.423243
C37	C	1.667523	0.002533	0.423195
C38	C	1.667520	0.002518	0.576532
H39	H	1.289998	-0.398125	-0.100399
O40	O	1.639136	-0.126729	0.368059
H41	H	1.639191	-0.126650	0.246492
O42	O	1.278914	-0.166465	-0.132177
H43	H	1.281561	-0.061453	-0.131922
O44	O	1.059485	0.506469	0.135002
H45	H	1.012781	0.605225	0.134984
H46	H	1.290221	-0.399728	0.098554
O47	O	1.067895	0.493700	-0.139422
H48	H	1.171904	0.494211	-0.133658
O49	O	1.278431	-0.167581	0.132217
H50	H	1.280885	-0.062547	0.133063
O51	O	1.788325	0.043458	0.360168
H52	H	1.852373	0.065146	0.450756
O53	O	1.627120	-0.119636	0.639540
H54	H	1.605702	-0.184387	0.548942
O55	O	0.877973	-0.056974	-0.000104
H56	H	0.909833	-0.111706	-0.099374
H57	H	1.501268	-0.422569	0.243099
O58	O	1.490036	-0.193682	-0.276064
H59	H	1.453321	-0.271833	-0.339803
H60	H	1.651295	-0.442394	0.145414
O61	O	0.829115	0.487332	0.139157
H62	H	0.902996	0.518492	0.213026
H63	H	1.764039	0.024268	0.618142
O64	O	1.691449	-0.218279	0.145865
H65	H	1.712542	-0.159164	0.049982
O66	O	1.493919	-0.436674	-0.277573
H67	H	1.412228	-0.490213	-0.250322
O68	O	0.834339	0.500504	-0.135174
H69	H	0.911188	0.535868	-0.201273
H70	H	1.509013	-0.205228	0.242515
H71	H	1.656802	-0.223748	-0.148154
O72	O	1.150298	-0.049669	-0.000028
H73	H	1.250069	-0.027526	0.000013
H74	H	1.331600	0.341934	0.360838
O75	O	1.687294	-0.457521	-0.139180
H76	H	1.702416	-0.520628	-0.042199
H77	H	1.331611	0.341919	0.639025
