data_functionalizedCrystal
_audit_creation_method	'MofGen! by Chris Wilmer'
_symmetry_space_group_name_H-M	'P1'
_symmetry_Int_Tables_number	1
_symmetry_cell_setting	triclinic
loop_
_symmetry_equiv_pos_as_xyz
  x,y,z
_cell_length_a	16.120490
_cell_length_b	13.032721
_cell_length_c	13.032268
_cell_angle_alpha	103.289627
_cell_angle_beta	94.644414
_cell_angle_gamma	94.673435
loop_
_atom_site_label
_atom_site_type_symbol
_atom_site_fract_x
_atom_site_fract_y
_atom_site_fract_z
Zn1	Zn	1.140844	-0.582304	-0.737171
Zn2	Zn	1.640844	-0.082304	-0.237171
Zn3	Zn	1.140754	-0.737382	-0.582112
Zn4	Zn	1.640754	-0.237382	-0.082112
Zn5	Zn	1.023440	-0.551234	-0.551052
Zn6	Zn	1.523440	-0.051234	-0.051052
Zn7	Zn	0.983450	-0.748380	-0.748214
Zn8	Zn	1.483450	-0.248380	-0.248214
O9	O	1.072122	-0.654825	-0.654637
O10	O	1.572122	-0.154825	-0.154637
O11	O	1.255798	-0.611275	-0.724979
O12	O	1.755798	-0.111275	-0.224979
O13	O	1.141891	-0.695083	-0.430586
O14	O	1.641891	-0.195083	0.069414
O15	O	1.055788	-0.407949	-0.558121
O16	O	1.555788	0.092051	-0.058121
O17	O	1.255732	-0.725210	-0.611058
O18	O	1.755732	-0.225210	-0.111058
O19	O	1.142044	-0.430776	-0.694862
O20	O	1.642044	0.069224	-0.194862
O21	O	1.055701	-0.558322	-0.407767
O22	O	1.555701	-0.058322	0.092233
O23	O	0.903169	-0.568987	-0.568829
O24	O	1.403169	-0.068987	-0.068829
O25	O	0.987630	-0.743956	-0.894155
O26	O	1.487630	-0.243956	-0.394155
O27	O	0.873789	-0.713829	-0.713683
O28	O	1.373789	-0.213829	-0.213683
O29	O	1.103267	-0.621940	-0.886041
O30	O	1.603267	-0.121940	-0.386041
O31	O	1.103114	-0.886248	-0.621766
O32	O	1.603114	-0.386248	-0.121766
O33	O	0.987543	-0.894328	-0.743800
O34	O	1.487543	-0.394328	-0.243800
C35	C	1.040999	-0.928513	-0.687377
C36	C	1.540999	-0.428513	-0.187377
C37	C	1.027756	-1.045608	-0.701423
C38	C	1.527756	-0.545608	-0.201423
C39	C	0.858669	-0.639231	-0.639085
C40	C	1.358669	-0.139231	-0.139085
C41	C	0.767347	-0.632588	-0.632459
C42	C	1.267347	-0.132588	-0.132459
C43	C	1.079072	-1.093789	-0.647357
C44	C	1.579072	-0.593789	-0.147357
C45	C	1.065386	-1.214812	-0.661873
C46	C	1.565386	-0.714812	-0.161873
C47	C	0.544932	-0.689275	-0.689005
C48	C	1.044932	-0.189275	-0.189005
C49	C	0.600144	-0.620469	-0.620362
C50	C	1.100144	-0.120469	-0.120362
C51	C	0.693184	-0.627214	-0.627095
C52	C	1.193184	-0.127214	-0.127095
C53	C	0.451883	-0.682532	-0.682274
C54	C	0.951883	-0.182532	-0.182274
C55	C	1.286408	-0.670481	-0.670251
C56	C	1.786408	-0.170481	-0.170251
C57	C	1.377724	-0.677153	-0.676905
C58	C	1.877724	-0.177153	-0.176905
C59	C	1.040998	-0.687641	-0.929387
C60	C	1.540998	-0.187641	-0.429387
C61	C	1.027734	-0.701624	-1.046469
C62	C	1.527734	-0.201624	-0.546469
C63	C	1.103386	-0.380073	-0.621795
C64	C	1.603386	0.119927	-0.121795
C65	C	1.116709	-0.262989	-0.607799
C66	C	1.616709	0.237011	-0.107799
C67	C	1.079036	-0.647488	-1.094654
C68	C	1.579036	-0.147488	-0.594654
C69	C	1.065329	-0.661940	-1.215664
C70	C	1.565329	-0.161940	-0.715664
C71	C	1.103181	-0.622065	-0.380951
C72	C	1.603181	-0.122065	0.119049
C73	C	1.116637	-0.607796	-0.263845
C74	C	1.616637	-0.107796	0.236155
H75	H	1.133142	-1.045444	-0.590325
H76	H	1.633142	-0.545444	-0.090325
H77	H	0.567538	-0.753244	-0.752823
H78	H	1.067538	-0.253244	-0.252823
O79	O	1.143448	-0.579358	-1.036869
O80	O	1.643448	-0.079358	-0.536869
C81	C	1.111575	-0.500343	-0.961707
C82	C	1.611575	-0.000343	-0.461707
H83	H	1.046926	-0.530999	-0.945241
H84	H	1.546926	-0.030999	-0.445241
H85	H	1.155350	-0.479498	-0.885051
H86	H	1.655350	0.020502	-0.385051
H87	H	1.106675	-0.426638	-0.994049
H88	H	1.606675	0.073362	-0.494049
H89	H	1.170783	-1.214647	-0.550764
H90	H	1.670783	-0.714647	-0.050764
H91	H	0.973692	-1.093957	-0.758463
H92	H	1.473692	-0.593957	-0.258463
H93	H	1.011252	-0.718984	-1.263994
H94	H	1.511252	-0.218984	-0.763994
O95	O	1.181237	-0.539803	-1.206318
O96	O	1.681237	-0.039803	-0.706318
C97	C	1.257493	-0.571990	-1.241808
C98	C	1.757493	-0.071990	-0.741808
H99	H	1.245613	-0.622080	-1.326679
H100	H	1.745613	-0.122080	-0.826679
H101	H	1.302570	-0.499086	-1.239044
H102	H	1.802570	0.000914	-0.739044
H103	H	1.285959	-0.620829	-1.188401
H104	H	1.785959	-0.120829	-0.688401
O105	O	1.000899	-1.272630	-0.729846
O106	O	1.500899	-0.772630	-0.229846
C107	C	1.001599	-1.380596	-0.729224
C108	C	1.501599	-0.880596	-0.229224
H109	H	1.036087	-1.387779	-0.651701
H110	H	1.536087	-0.887779	-0.151701
H111	H	0.934543	-1.418908	-0.736820
H112	H	1.434543	-0.918908	-0.236820
H113	H	1.034730	-1.422404	-0.798645
H114	H	1.534730	-0.922404	-0.298645
O115	O	0.963329	-0.769814	-1.104190
O116	O	1.463329	-0.269814	-0.604190
C117	C	0.995206	-0.848796	-1.179385
C118	C	1.495206	-0.348796	-0.679385
H119	H	1.062908	-0.856085	-1.151657
H120	H	1.562908	-0.356085	-0.651657
H121	H	0.956118	-0.927854	-1.188265
H122	H	1.456118	-0.427854	-0.688265
H123	H	0.992366	-0.826317	-1.259034
H124	H	1.492366	-0.326317	-0.759034
H125	H	0.577537	-0.556496	-0.556539
H126	H	1.077537	-0.056496	-0.056539
