data_functionalizedCrystal
_audit_creation_method	'MofGen! by Chris Wilmer'
_symmetry_space_group_name_H-M	'P1'
_symmetry_Int_Tables_number	1
_symmetry_cell_setting	triclinic
loop_
_symmetry_equiv_pos_as_xyz
  x,y,z
_cell_length_a	16.109301
_cell_length_b	16.109304
_cell_length_c	15.186229
_cell_angle_alpha	90.000934
_cell_angle_beta	90.000638
_cell_angle_gamma	83.462059
loop_
_atom_site_label
_atom_site_type_symbol
_atom_site_fract_x
_atom_site_fract_y
_atom_site_fract_z
O1	O	1.103132	0.106866	0.073167
O2	O	0.861070	0.120165	0.073181
O3	O	0.988749	-0.007515	0.073174
O4	O	0.975452	0.234546	0.073174
O5	O	0.988741	-0.007517	-0.073283
O6	O	0.861061	0.120163	-0.073277
O7	O	1.103123	0.106864	-0.073290
Zn8	Zn	0.982091	0.113513	-0.096537
Zn9	Zn	0.982102	0.113516	0.096427
O10	O	0.975444	0.234545	-0.073283
C11	C	0.830091	0.119626	-0.000046
C12	C	0.737795	0.118010	-0.000041
C13	C	0.988206	-0.038491	-0.000052
C14	C	0.986590	-0.130786	-0.000046
C15	C	0.515524	0.190018	-0.000051
C16	C	0.428803	0.188494	-0.000057
C17	C	0.448676	0.037005	-0.000053
C18	C	0.535395	0.038530	-0.000054
C19	C	0.568816	0.115039	-0.000048
C20	C	0.395377	0.111990	-0.000053
C21	C	0.301351	0.110337	-0.000059
C22	C	0.662848	0.116693	-0.000044
C23	C	1.134102	0.107404	-0.000061
C24	C	1.226398	0.109019	-0.000061
C25	C	0.982861	-0.343123	0.079784
C26	C	0.981335	-0.429843	0.079784
C27	C	0.981330	-0.429842	-0.079892
C28	C	0.982850	-0.343122	-0.079890
C29	C	0.983620	-0.299766	-0.000050
C30	C	0.980573	-0.473205	-0.000052
C31	C	0.978919	-0.567231	-0.000053
C32	C	0.985273	-0.205734	-0.000048
C33	C	0.975987	0.265520	-0.000055
C34	C	0.977603	0.357816	-0.000055
N35	N	0.982089	0.113511	-0.228229
C36	C	1.038645	0.056993	-0.453955
C37	C	1.038648	0.056991	-0.546145
C38	C	0.925549	0.170032	-0.546148
C39	C	0.925543	0.170029	-0.453960
C40	C	0.982096	0.113511	-0.407866
C41	C	0.982104	0.113512	-0.592243
C42	C	0.982107	0.113510	-0.692200
C43	C	0.982092	0.113511	-0.307903
N44	N	0.982110	0.113511	0.228120
H45	H	0.542732	0.252316	-0.000053
O46	O	1.093622	0.002186	-0.409119
C47	C	1.144889	0.046690	-0.355742
H48	H	1.146333	0.112252	-0.383518
H49	H	1.118831	0.051058	-0.285890
C50	C	1.232366	-0.079686	-0.320157
C51	C	1.234145	0.000837	-0.354277
H52	H	1.287422	-0.107971	-0.319249
H53	H	1.197825	-0.109670	-0.356116
H54	H	1.210647	-0.076035	-0.261951
H55	H	1.255853	-0.002816	-0.412486
H56	H	1.268692	0.030819	-0.318328
H57	H	1.084694	0.010969	-0.583668
O58	O	0.870642	0.224857	-0.409047
C59	C	0.882779	0.212747	-0.317796
H60	H	0.913866	0.146653	-0.305210
H61	H	0.924465	0.259814	-0.291629
C62	C	0.759548	0.306399	-0.285925
C63	C	0.797724	0.225218	-0.270466
H64	H	0.707083	0.314095	-0.256729
H65	H	0.751372	0.314561	-0.347402
H66	H	0.794295	0.345612	-0.264120
H67	H	0.762982	0.186007	-0.292281
H68	H	0.805892	0.217050	-0.208991
H69	H	0.983463	-0.307820	-0.144905
H70	H	0.879506	0.216049	-0.583687
O71	O	0.376917	0.261252	-0.000092
C72	C	0.293209	0.243505	-0.000072
H73	H	0.289902	0.178204	-0.027803
H74	H	0.268129	0.246660	0.070191
C75	C	0.244177	0.388273	-0.023443
C76	C	0.240115	0.308071	-0.057510
H77	H	0.211424	0.428102	-0.058870
H78	H	0.300572	0.400231	-0.023453
H79	H	0.223279	0.390891	0.035109
H80	H	0.261022	0.305452	-0.116057
H81	H	0.183721	0.296115	-0.057511
H82	H	0.421454	-0.025285	-0.000063
H83	H	0.578788	-0.022530	-0.000054
O84	O	0.983562	-0.301128	0.157417
C85	C	0.982584	-0.357999	0.227879
H86	H	0.955195	-0.416365	0.204471
H87	H	1.049083	-0.375963	0.252429
C88	C	0.962326	-0.245324	0.332058
C89	C	0.928680	-0.317008	0.303309
H90	H	0.929079	-0.220038	0.378589
H91	H	0.962988	-0.207008	0.284587
H92	H	1.017741	-0.260304	0.352510
H93	H	0.873271	-0.302025	0.282848
H94	H	0.928007	-0.355320	0.350779
O95	O	0.980562	-0.472083	0.157256
C96	C	0.979074	-0.557924	0.140139
H97	H	0.952555	-0.566319	0.071528
H98	H	1.045302	-0.591277	0.143919
C99	C	0.956377	-0.584988	0.293287
C100	C	0.923799	-0.595298	0.209021
H101	H	0.922284	-0.608044	0.335778
H102	H	0.957382	-0.527156	0.304820
H103	H	1.011566	-0.612782	0.296425
H104	H	0.868615	-0.567495	0.205881
H105	H	0.922783	-0.653126	0.197489
O106	O	0.980628	-0.472095	-0.157367
C107	C	0.979108	-0.557931	-0.140251
H108	H	1.005203	-0.573223	-0.071637
H109	H	0.912018	-0.573804	-0.144041
C110	C	1.000774	-0.590814	-0.293397
C111	C	1.032831	-0.609597	-0.209126
H112	H	1.033909	-0.622686	-0.335883
H113	H	1.001795	-0.532985	-0.304929
H114	H	0.944866	-0.604042	-0.296542
H115	H	1.088734	-0.596360	-0.205978
H116	H	1.031820	-0.667427	-0.197595
