data_functionalizedCrystal
_audit_creation_method	'MofGen! by Chris Wilmer'
_symmetry_space_group_name_H-M	'P1'
_symmetry_Int_Tables_number	1
_symmetry_cell_setting	triclinic
loop_
_symmetry_equiv_pos_as_xyz
  x,y,z
_cell_length_a	14.044220
_cell_length_b	14.519709
_cell_length_c	13.101018
_cell_angle_alpha	93.379581
_cell_angle_beta	93.666689
_cell_angle_gamma	91.565489
loop_
_atom_site_label
_atom_site_type_symbol
_atom_site_fract_x
_atom_site_fract_y
_atom_site_fract_z
O1	O	1.252875	-0.227025	-0.085111
O2	O	1.586209	0.106308	0.248222
O3	O	1.919542	0.439641	0.581555
O4	O	0.976891	-0.219003	-0.085137
O5	O	1.310224	0.114331	0.248196
O6	O	1.643557	0.447664	0.581530
O7	O	1.122201	-0.089365	-0.085114
O8	O	1.455534	0.243968	0.248219
O9	O	1.788868	0.577301	0.581552
O10	O	1.107565	-0.356663	-0.085134
O11	O	1.440898	-0.023329	0.248199
O12	O	1.774232	0.310004	0.581533
O13	O	1.132618	-0.080034	0.085318
O14	O	1.465951	0.253299	0.418651
O15	O	1.799285	0.586633	0.751984
O16	O	0.987308	-0.209671	0.085295
O17	O	1.320641	0.123662	0.418628
O18	O	1.653975	0.456995	0.751962
O19	O	1.263292	-0.217694	0.085321
O20	O	1.596626	0.115639	0.418654
O21	O	1.929959	0.448972	0.751987
Zn22	Zn	1.126954	-0.212201	0.112368
Zn23	Zn	1.460287	0.121132	0.445701
Zn24	Zn	1.793621	0.454465	0.779034
Zn25	Zn	1.113229	-0.224496	-0.112184
Zn26	Zn	1.446562	0.108838	0.221149
Zn27	Zn	1.779896	0.442171	0.554483
O28	O	1.117982	-0.347332	0.085298
O29	O	1.451315	-0.013998	0.418631
O30	O	1.784649	0.319335	0.751965
C31	C	0.946779	-0.210825	0.000076
C32	C	1.280112	0.122509	0.333409
C33	C	1.613445	0.455842	0.666742
C34	C	0.841535	-0.200348	0.000066
C35	C	1.174868	0.132985	0.333400
C36	C	1.508201	0.466319	0.666733
C37	C	0.648842	-0.181193	0.000088
C38	C	0.982175	0.152141	0.333421
C39	C	1.315509	0.485474	0.666755
C40	C	0.591335	-0.255501	0.000087
C41	C	0.924668	0.077833	0.333420
C42	C	1.258001	0.411166	0.666753
C43	C	0.484114	-0.244842	0.000099
C44	C	0.817447	0.088491	0.333432
C45	C	1.150781	0.421824	0.666765
C46	C	0.756073	-0.191850	0.000076
C47	C	1.089406	0.141484	0.333409
C48	C	1.422740	0.474817	0.666742
C49	C	1.126727	-0.050285	0.000102
C50	C	1.460061	0.283048	0.333435
C51	C	1.793394	0.616382	0.666769
C52	C	1.124684	0.052261	0.000102
C53	C	1.458017	0.385595	0.333436
C54	C	1.791350	0.718928	0.666769
C55	C	1.293404	-0.225872	0.000106
C56	C	1.626737	0.107461	0.333439
C57	C	1.960071	0.440794	0.666772
C58	C	1.398648	-0.236349	0.000108
C59	C	1.731981	0.096984	0.333442
C60	C	2.065315	0.430317	0.666775
C61	C	1.113456	-0.386412	0.000080
C62	C	1.446789	-0.053079	0.333413
C63	C	1.780122	0.280255	0.666746
C64	C	1.115499	-0.488959	0.000072
C65	C	1.448832	-0.155625	0.333406
C66	C	1.782166	0.177708	0.666739
N67	N	1.103863	-0.232879	-0.265434
N68	N	1.437196	0.100454	0.067899
N69	N	1.770530	0.433787	0.401232
C70	C	1.117158	0.427762	0.000075
C71	C	1.450491	0.761096	0.333408
C72	C	1.783825	1.094429	0.666742
C73	C	1.119248	0.323286	0.000083
C74	C	1.452581	0.656620	0.333416
C75	C	1.785914	0.989953	0.666749
C76	C	1.120921	0.240015	0.000090
C77	C	1.454254	0.573349	0.333423
C78	C	1.787587	0.906682	0.666756
C79	C	1.123011	0.135532	0.000096
C80	C	1.456344	0.468866	0.333429
C81	C	1.789677	0.802199	0.666762
C82	C	1.149075	-0.192409	-0.525337
C83	C	1.482408	0.140924	-0.192003
C84	C	1.815741	0.474257	0.141330
C85	C	1.091119	-0.244278	-0.474473
C86	C	1.424452	0.089055	-0.141140
C87	C	1.757786	0.422389	0.192194
C88	C	1.098212	-0.237934	-0.358153
C89	C	1.431545	0.095399	-0.024820
C90	C	1.764878	0.428733	0.308514
C91	C	1.141983	-0.198752	-0.641667
C92	C	1.475317	0.134581	-0.308334
C93	C	1.808650	0.467914	0.024999
N94	N	1.136328	-0.203811	0.265618
N95	N	1.469661	0.129522	0.598951
N96	N	1.802994	0.462856	0.932285
H97	H	0.622627	-0.327123	0.000076
H98	H	0.955960	0.006211	0.333410
H99	H	1.289293	0.339544	0.666743
C100	C	0.606575	-0.084445	0.000089
C101	C	0.939908	0.248889	0.333422
C102	C	1.273242	0.582222	0.666755
H103	H	0.539009	-0.089885	0.000085
H104	H	0.872342	0.243449	0.333418
H105	H	1.205676	0.576782	0.666751
H106	H	0.630951	-0.048621	0.059517
H107	H	0.964284	0.284713	0.392851
H108	H	1.297617	0.618046	0.726184
H109	H	0.623669	-0.055148	-0.059357
H110	H	0.957002	0.278186	0.273976
H111	H	1.290336	0.611519	0.607310
H112	H	1.036175	-0.293448	-0.518287
H113	H	1.369508	0.039886	-0.184953
H114	H	1.702841	0.373219	0.148380
C115	C	1.223286	-0.125980	-0.466156
C116	C	1.556619	0.207353	-0.132823
C117	C	1.889953	0.540686	0.200510
H118	H	1.218367	-0.130372	-0.394608
H119	H	1.551701	0.202962	-0.061274
H120	H	1.885034	0.536295	0.272059
H121	H	1.285557	-0.142048	-0.483665
H122	H	1.618890	0.191286	-0.150332
H123	H	1.952224	0.524619	0.183002
H124	H	1.211700	-0.064529	-0.483666
H125	H	1.545033	0.268804	-0.150333
H126	H	1.878366	0.602137	0.183000
