data_functionalizedCrystal
_audit_creation_method	'MofGen! by Chris Wilmer'
_symmetry_space_group_name_H-M	'P1'
_symmetry_Int_Tables_number	1
_symmetry_cell_setting	triclinic
loop_
_symmetry_equiv_pos_as_xyz
  x,y,z
_cell_length_a	10.723024
_cell_length_b	10.489741
_cell_length_c	9.798715
_cell_angle_alpha	89.997135
_cell_angle_beta	89.996609
_cell_angle_gamma	84.503522
loop_
_atom_site_label
_atom_site_type_symbol
_atom_site_fract_x
_atom_site_fract_y
_atom_site_fract_z
O1	O	1.657297	0.178906	-0.113481
O2	O	1.294155	0.196031	-0.113486
O3	O	1.483989	0.001865	-0.113475
O4	O	1.467463	0.373072	-0.113492
O5	O	1.483975	0.001865	0.113507
O6	O	1.294141	0.196030	0.113496
O7	O	1.657283	0.178906	0.113501
Zn8	Zn	1.475709	0.187468	0.149537
Zn9	Zn	1.475728	0.187469	-0.149522
O10	O	1.467448	0.373071	0.113490
C11	C	1.247647	0.194785	0.000005
C12	C	1.109091	0.191056	0.000003
C13	C	1.034175	0.299701	-0.000003
C14	C	0.890969	0.295850	-0.000004
C15	C	1.482734	-0.045666	0.000015
C16	C	1.478999	-0.187293	0.000012
C17	C	1.358213	-0.255356	0.000001
C18	C	1.415265	-0.347515	0.111915
C19	C	1.415307	-0.347489	-0.111871
C20	C	1.536100	-0.277587	0.112019
C21	C	1.536126	-0.277551	-0.111868
C22	C	1.593265	-0.369683	0.000074
C23	C	1.703790	0.180152	0.000007
C24	C	1.842347	0.183881	-0.000000
C25	C	1.468704	0.420602	-0.000003
C26	C	1.472438	0.562229	-0.000009
N27	N	1.475706	0.187467	0.353637
N28	N	1.475742	0.187460	-0.353622
C29	C	1.555412	0.105583	0.421418
C30	C	1.555432	0.105578	0.578581
H31	H	0.826593	0.388858	-0.000015
O32	O	1.596870	-0.240578	-0.224883
C33	C	1.532892	-0.275839	-0.342653
H34	H	1.431058	-0.286998	-0.315841
H35	H	1.579245	-0.370555	-0.383487
C36	C	1.663026	-0.157632	-0.485289
C37	C	1.537948	-0.171327	-0.452360
H38	H	1.666148	-0.093168	-0.552964
H39	H	1.706133	-0.133880	-0.405946
H40	H	1.701639	-0.236570	-0.519309
H41	H	1.499342	-0.092396	-0.418325
H42	H	1.494835	-0.195064	-0.531700
H43	H	0.906715	0.090867	-0.000004
H44	H	1.076055	0.395567	0.000001
O45	O	1.354161	-0.384236	-0.224710
C46	C	1.230265	-0.325491	-0.224262
H47	H	1.225085	-0.235340	-0.158741
H48	H	1.164926	-0.394774	-0.180586
C49	C	1.196550	-0.400239	-0.451756
C50	C	1.190190	-0.289507	-0.371291
H51	H	1.171826	-0.378046	-0.542450
H52	H	1.280019	-0.439820	-0.452057
H53	H	1.142101	-0.457964	-0.415344
H54	H	1.244650	-0.231791	-0.407694
H55	H	1.106728	-0.249914	-0.371000
H56	H	1.067210	0.095190	-0.000028
H57	H	1.623632	0.035476	0.363099
O58	O	1.637016	0.022063	0.648045
C59	C	1.760849	0.043536	0.613175
H60	H	1.762687	0.145605	0.573805
H61	H	1.796741	-0.026981	0.530334
C62	C	1.842891	-0.100994	0.788527
C63	C	1.845150	0.024373	0.740184
H64	H	1.894895	-0.112820	0.866869
H65	H	1.759464	-0.115465	0.812018
H66	H	1.872799	-0.159744	0.719481
H67	H	1.815228	0.083119	0.809223
H68	H	1.928575	0.038853	0.716708
O69	O	1.239720	-0.196095	0.000367
C70	C	1.176488	-0.231567	0.118570
H71	H	1.247822	-0.264340	0.200635
H72	H	1.117445	-0.313153	0.093033
C73	C	1.003199	-0.075584	0.070538
C74	C	1.090812	-0.115826	0.171335
H75	H	0.950345	-0.004192	0.103084
H76	H	1.045797	-0.051688	-0.009101
H77	H	0.954009	-0.143582	0.049266
H78	H	1.140010	-0.047834	0.192593
H79	H	1.048220	-0.139708	0.250979
O80	O	1.711929	-0.428512	0.000218
C81	C	1.798287	-0.335264	0.001363
H82	H	1.751311	-0.241929	0.044869
H83	H	1.831130	-0.318383	-0.107238
C84	C	1.969406	-0.496922	0.037114
C85	C	1.911713	-0.382290	0.090560
H86	H	2.039376	-0.525931	0.092129
H87	H	1.911227	-0.559747	0.036337
H88	H	1.996764	-0.482840	-0.053386
H89	H	1.884342	-0.396377	0.181052
H90	H	1.969890	-0.319469	0.091354
H91	H	1.407503	0.257572	0.588098
H92	H	1.407476	0.257563	0.411957
H93	H	1.364151	-0.378494	0.206530
H94	H	1.587157	-0.246787	0.206741
