data_functionalizedCrystal
_audit_creation_method	'MofGen! by Chris Wilmer'
_symmetry_space_group_name_H-M	'P1'
_symmetry_Int_Tables_number	1
_symmetry_cell_setting	triclinic
loop_
_symmetry_equiv_pos_as_xyz
  x,y,z
_cell_length_a	21.395364
_cell_length_b	18.101397
_cell_length_c	21.395355
_cell_angle_alpha	89.980066
_cell_angle_beta	89.975484
_cell_angle_gamma	90.016230
loop_
_atom_site_label
_atom_site_type_symbol
_atom_site_fract_x
_atom_site_fract_y
_atom_site_fract_z
Zn1	Zn	0.957904	-0.294999	-0.354255
Zn2	Zn	1.291237	0.038334	-0.020921
Zn3	Zn	1.624570	0.371668	0.312412
Zn4	Zn	0.957825	-0.418822	-0.249475
Zn5	Zn	1.291158	-0.085489	0.083859
Zn6	Zn	1.624491	0.247844	0.417192
Zn7	Zn	0.853119	-0.294990	-0.249491
Zn8	Zn	1.186452	0.038343	0.083842
Zn9	Zn	1.519785	0.371677	0.417175
Zn10	Zn	0.853107	-0.418794	-0.354215
Zn11	Zn	1.186440	-0.085461	-0.020881
Zn12	Zn	1.519773	0.247873	0.312452
O13	O	0.905488	-0.356901	-0.301859
O14	O	1.238822	-0.023568	0.031474
O15	O	1.572155	0.309765	0.364808
O16	O	1.045571	-0.311440	-0.340365
O17	O	1.378904	0.021893	-0.007032
O18	O	1.712238	0.355227	0.326302
O19	O	0.943907	-0.402404	-0.161799
O20	O	1.277241	-0.069070	0.171534
O21	O	1.610574	0.264263	0.504868
O22	O	0.867057	-0.191358	-0.263412
O23	O	1.200390	0.141975	0.069921
O24	O	1.533723	0.475308	0.403254
O25	O	1.045513	-0.402412	-0.263383
O26	O	1.378846	-0.069079	0.069950
O27	O	1.712180	0.264254	0.403283
O28	O	0.944042	-0.191365	-0.340381
O29	O	1.277375	0.141968	-0.007048
O30	O	1.610708	0.475302	0.326285
O31	O	0.866980	-0.311425	-0.161811
O32	O	1.200314	0.021909	0.171522
O33	O	1.533647	0.355242	0.504855
O34	O	0.765439	-0.311397	-0.263374
O35	O	1.098772	0.021936	0.069960
O36	O	1.432106	0.355269	0.403293
O37	O	0.867036	-0.402364	-0.441898
O38	O	1.200369	-0.069031	-0.108565
O39	O	1.533703	0.264302	0.224769
O40	O	0.765430	-0.402356	-0.340313
O41	O	1.098764	-0.069022	-0.006980
O42	O	1.432097	0.264311	0.326353
O43	O	0.944030	-0.311413	-0.441927
O44	O	1.277363	0.021921	-0.108594
O45	O	1.610697	0.355254	0.224739
O46	O	0.943896	-0.522451	-0.263345
O47	O	1.277229	-0.189118	0.069988
O48	O	1.610562	0.144215	0.403322
O49	O	0.866960	-0.522431	-0.340297
O50	O	1.200293	-0.189097	-0.006964
O51	O	1.533626	0.144236	0.326370
C52	C	0.742701	-0.356873	-0.301841
C53	C	1.076034	-0.023540	0.031492
C54	C	1.409367	0.309794	0.364825
C55	C	0.673060	-0.356879	-0.301849
C56	C	1.006393	-0.023545	0.031485
C57	C	1.339726	0.309788	0.364818
C58	C	0.171293	-0.309644	-0.342017
C59	C	0.504626	0.023690	-0.008684
C60	C	0.837960	0.357023	0.324649
C61	C	0.236728	-0.309638	-0.342017
C62	C	0.570062	0.023695	-0.008684
C63	C	0.903395	0.357028	0.324650
C64	C	0.269421	-0.356924	-0.301873
C65	C	0.602755	-0.023591	0.031460
C66	C	0.936088	0.309743	0.364794
C67	C	0.236673	-0.404232	-0.261737
C68	C	0.570007	-0.070899	0.071596
C69	C	0.903340	0.262434	0.404929
C70	C	0.171239	-0.404242	-0.261743
C71	C	0.504573	-0.070908	0.071590
C72	C	0.837906	0.262425	0.404924
C73	C	0.373059	-0.362659	-0.245406
C74	C	0.706392	-0.029325	0.087928
C75	C	1.039725	0.304008	0.421261
C76	C	0.438492	-0.362644	-0.245399
C77	C	0.771825	-0.029311	0.087935
C78	C	1.105158	0.304023	0.421268
C79	C	0.471242	-0.356899	-0.301856
C80	C	0.804575	-0.023566	0.031478
C81	C	1.137909	0.309767	0.364811
C82	C	0.438551	-0.351154	-0.358321
C83	C	0.771885	-0.017820	-0.024988
C84	C	1.105218	0.315513	0.308346
C85	C	0.373117	-0.351163	-0.358327
C86	C	0.706451	-0.017830	-0.024993
C87	C	1.039784	0.315504	0.308340
C88	C	0.340374	-0.356919	-0.301863
C89	C	0.673707	-0.023586	0.031471
C90	C	1.007040	0.309747	0.364804
C91	C	0.574935	-0.309592	-0.341992
C92	C	0.908268	0.023741	-0.008658
C93	C	1.241601	0.357075	0.324675
C94	C	0.640371	-0.309592	-0.341993
C95	C	0.973704	0.023742	-0.008659
C96	C	1.307038	0.357075	0.324674
C97	C	0.640315	-0.404182	-0.261707
C98	C	0.973648	-0.070848	0.071626
C99	C	1.306982	0.262485	0.404960
C100	C	0.574880	-0.404186	-0.261712
C101	C	0.908213	-0.070852	0.071621
C102	C	1.241546	0.262481	0.404955
C103	C	0.542193	-0.356887	-0.301853
C104	C	0.875527	-0.023554	0.031480
C105	C	1.208860	0.309780	0.364813
C106	C	0.905435	-0.549312	-0.301828
C107	C	1.238768	-0.215979	0.031505
C108	C	1.572101	0.117355	0.364838
C109	C	0.905469	-0.631626	-0.301836
C110	C	1.238803	-0.298293	0.031497
C111	C	1.572136	0.035041	0.364830
C112	C	0.905549	-0.930717	-0.301894
C113	C	1.238882	-0.597384	0.031440
C114	C	1.572216	-0.264050	0.364773
C115	C	0.953820	-0.899374	-0.253348
C116	C	1.287154	-0.566041	0.079986
C117	C	1.620487	-0.232707	0.413319
C118	C	0.953987	-0.813755	-0.253473
C119	C	1.287321	-0.480422	0.079860
C120	C	1.620654	-0.147089	0.413193
C121	C	0.905510	-0.782334	-0.301865
C122	C	1.238843	-0.449001	0.031469
C123	C	1.572176	-0.115668	0.364802
C124	C	0.923415	-0.813358	-0.367907
C125	C	1.256748	-0.480024	-0.034574
C126	C	1.590081	-0.146691	0.298759
C127	C	0.923788	-0.899003	-0.367643
C128	C	1.257122	-0.565669	-0.034310
C129	C	1.590455	-0.232336	0.299024
C130	C	0.839244	-0.899216	-0.284968
C131	C	1.172577	-0.565883	0.048365
C132	C	1.505911	-0.232550	0.381698
C133	C	0.839571	-0.813567	-0.283494
C134	C	1.172905	-0.480233	0.049839
C135	C	1.506238	-0.146900	0.383172
C136	C	0.905486	-0.698475	-0.301852
C137	C	1.238819	-0.365142	0.031481
C138	C	1.572153	-0.031808	0.364814
C139	C	0.905574	-1.014576	-0.301910
C140	C	1.238908	-0.681243	0.031423
C141	C	1.572241	-0.347910	0.364756
C142	C	1.068912	-0.356930	-0.301877
C143	C	1.402245	-0.023597	0.031457
C144	C	1.735578	0.309736	0.364790
C145	C	1.138553	-0.356943	-0.301884
C146	C	1.471886	-0.023609	0.031449
C147	C	1.805220	0.309724	0.364782
C148	C	0.905540	-0.356886	-0.465282
C149	C	1.238874	-0.023553	-0.131949
C150	C	1.572207	0.309780	0.201384
C151	C	0.905563	-0.356880	-0.534923
C152	C	1.238896	-0.023547	-0.201590
C153	C	1.572229	0.309787	0.131743
C154	C	0.905559	-0.163739	-0.301903
C155	C	1.238893	0.169594	0.031430
C156	C	1.572226	0.502927	0.364764
C157	C	0.905589	-0.081425	-0.301922
C158	C	1.238923	0.251908	0.031411
C159	C	1.572256	0.585241	0.364745
C160	C	0.945652	-0.309519	-0.567653
C161	C	1.278985	0.023814	-0.234320
C162	C	1.612318	0.357147	0.099014
C163	C	0.945651	-0.309488	-0.633088
C164	C	1.278984	0.023846	-0.299755
C165	C	1.612317	0.357179	0.033578
C166	C	0.905567	-0.356830	-0.665792
C167	C	1.238901	-0.023496	-0.332459
C168	C	1.572234	0.309837	0.000875
C169	C	0.865471	-0.404193	-0.633055
C170	C	1.198804	-0.070860	-0.299721
C171	C	1.532137	0.262473	0.033612
C172	C	0.865468	-0.404219	-0.567620
C173	C	1.198802	-0.070885	-0.234287
C174	C	1.532135	0.262448	0.099046
C175	C	0.900602	-0.423510	-0.769456
C176	C	1.233935	-0.090177	-0.436123
C177	C	1.567268	0.243156	-0.102789
C178	C	0.900608	-0.423487	-0.834889
C179	C	1.233942	-0.090153	-0.501556
C180	C	1.567275	0.243180	-0.168222
C181	C	0.905571	-0.356751	-0.867613
C182	C	1.238905	-0.023418	-0.534279
C183	C	1.572238	0.309915	-0.200946
C184	C	0.910541	-0.290038	-0.834895
C185	C	1.243874	0.043295	-0.501562
C186	C	1.577207	0.376629	-0.168229
C187	C	0.910538	-0.290063	-0.769461
C188	C	1.243871	0.043270	-0.436128
C189	C	1.577205	0.376603	-0.102795
C190	C	0.905565	-0.356807	-0.736744
C191	C	1.238899	-0.023474	-0.403411
C192	C	1.572232	0.309860	-0.070078
C193	C	0.945662	-0.309352	-0.971295
C194	C	1.278995	0.023981	-0.637961
C195	C	1.612328	0.357314	-0.304628
C196	C	0.945656	-0.309319	-1.036731
C197	C	1.278990	0.024014	-0.703398
C198	C	1.612323	0.357348	-0.370065
C199	C	0.865479	-0.404032	-1.036696
C200	C	1.198813	-0.070698	-0.703363
C201	C	1.532146	0.262635	-0.370030
C202	C	0.865481	-0.404058	-0.971261
C203	C	1.198815	-0.070725	-0.637928
C204	C	1.532148	0.262609	-0.304594
C205	C	0.905576	-0.356719	-0.938564
C206	C	1.238909	-0.023386	-0.605231
C207	C	1.572242	0.309947	-0.271897
C208	C	0.905473	-0.356863	-0.139071
C209	C	1.238806	-0.023530	0.194262
C210	C	1.572139	0.309804	0.527595
C211	C	0.905572	-0.356661	-0.069430
C212	C	1.238905	-0.023327	0.263903
C213	C	1.572239	0.310006	0.597236
H214	H	0.346503	-0.346487	-0.404303
H215	H	0.679837	-0.013153	-0.070969
H216	H	1.013170	0.320180	0.262364
F217	F	0.675215	-0.259252	-0.384714
F218	F	1.008549	0.074081	-0.051381
F219	F	1.341882	0.407415	0.281952
F220	F	1.018184	-0.786909	-0.268113
F221	F	1.351517	-0.453576	0.065220
F222	F	1.684850	-0.120242	0.398553
F223	F	0.915823	-0.219064	-0.734643
F224	F	1.249157	0.114269	-0.401310
F225	F	1.582490	0.447602	-0.067977
H226	H	1.002667	-0.920849	-0.264417
H227	H	1.336000	-0.587515	0.068916
H228	H	1.669333	-0.254182	0.402249
F229	F	0.822809	-0.454576	-0.667861
F230	F	1.156143	-0.121242	-0.334528
F231	F	1.489476	0.212091	-0.001194
F232	F	0.987137	-0.925050	-0.386381
F233	F	1.320470	-0.591717	-0.053048
F234	F	1.653804	-0.258383	0.280286
F235	F	0.988334	-0.258917	-1.071564
F236	F	1.321668	0.074416	-0.738231
F237	F	1.655001	0.407749	-0.404898
F238	F	0.790031	-0.785620	-0.326325
F239	F	1.123364	-0.452287	0.007008
F240	F	1.456697	-0.118954	0.340341
F241	F	0.792234	-0.925712	-0.331182
F242	F	1.125567	-0.592379	0.002151
F243	F	1.458900	-0.259046	0.335484
F244	F	0.675105	-0.454512	-0.218987
F245	F	1.008438	-0.121179	0.114347
F246	F	1.341771	0.212155	0.447680
F247	F	0.817954	-0.927513	-0.223114
F248	F	1.151287	-0.594180	0.110219
F249	F	1.484620	-0.260846	0.443553
F250	F	0.988321	-0.259134	-0.532858
F251	F	1.321655	0.074199	-0.199525
F252	F	1.654988	0.407533	0.133809
H253	H	0.465215	-0.346472	-0.404293
H254	H	0.798549	-0.013139	-0.070960
H255	H	1.131882	0.320195	0.262373
H256	H	0.346399	-0.367340	-0.199429
H257	H	0.679732	-0.034006	0.133905
H258	H	1.013065	0.299327	0.467238
F259	F	0.271468	-0.454559	-0.219015
F260	F	0.604802	-0.121226	0.114318
F261	F	0.938135	0.212107	0.447652
F262	F	0.271580	-0.259293	-0.384733
F263	F	0.604913	0.074040	-0.051399
F264	F	0.938246	0.407374	0.281934
H265	H	0.548320	-0.271078	-0.374677
H266	H	0.881653	0.062255	-0.041344
H267	H	1.214987	0.395588	0.291990
H268	H	0.826071	-0.793296	-0.234892
H269	H	1.159404	-0.459963	0.098441
H270	H	1.492737	-0.126630	0.431774
H271	H	0.465103	-0.367318	-0.199421
H272	H	0.798437	-0.033985	0.133912
H273	H	1.131770	0.299349	0.467245
F274	F	0.136509	-0.259309	-0.384743
F275	F	0.469843	0.074025	-0.051410
F276	F	0.803176	0.407358	0.281923
F277	F	0.540034	-0.454519	-0.218988
F278	F	0.873367	-0.121186	0.114345
F279	F	1.206701	0.212147	0.447678
H280	H	0.978295	-0.270917	-0.659742
H281	H	1.311628	0.062416	-0.326408
H282	H	1.644961	0.395750	0.006925
F283	F	0.136394	-0.454584	-0.219024
F284	F	0.469727	-0.121250	0.114309
F285	F	0.803061	0.212083	0.447643
H286	H	0.896566	-0.477809	-0.861522
H287	H	1.229899	-0.144475	-0.528189
H288	H	1.563233	0.188858	-0.194856
F289	F	0.879824	-0.926103	-0.416528
F290	F	1.213158	-0.592770	-0.083194
F291	F	1.546491	-0.259437	0.250139
F292	F	0.878863	-0.786762	-0.416457
F293	F	1.212196	-0.453429	-0.083124
F294	F	1.545529	-0.120095	0.250210
H295	H	0.942785	-0.792782	-0.204504
H296	H	1.276118	-0.459449	0.128830
H297	H	1.609451	-0.126115	0.462163
H298	H	0.914583	-0.235696	-0.861538
H299	H	1.247916	0.097637	-0.528204
H300	H	1.581249	0.430971	-0.194871
F301	F	0.822798	-0.454628	-0.532786
F302	F	1.156131	-0.121295	-0.199453
F303	F	1.489465	0.212038	0.133880
F304	F	0.939359	-0.926344	-0.189148
F305	F	1.272692	-0.593011	0.144186
F306	F	1.606025	-0.259677	0.477519
F307	F	0.986055	-0.785258	-0.386965
F308	F	1.319388	-0.451925	-0.053632
F309	F	1.652721	-0.118591	0.279702
F310	F	0.988330	-0.258968	-0.936494
F311	F	1.321664	0.074365	-0.603161
F312	F	1.654997	0.407698	-0.269827
H313	H	0.832836	-0.442571	-1.063323
H314	H	1.166170	-0.109237	-0.729990
H315	H	1.499503	0.224096	-0.396656
F316	F	0.822815	-0.454469	-0.936427
F317	F	1.156148	-0.121136	-0.603093
F318	F	1.489481	0.212198	-0.269760
H319	H	0.896393	-0.477840	-0.742818
H320	H	1.229726	-0.144507	-0.409485
H321	H	1.563059	0.188826	-0.076151
