data_functionalizedCrystal
_audit_creation_method	'MofGen! by Chris Wilmer'
_symmetry_space_group_name_H-M	'P1'
_symmetry_Int_Tables_number	1
_symmetry_cell_setting	triclinic
loop_
_symmetry_equiv_pos_as_xyz
  x,y,z
_cell_length_a	12.645331
_cell_length_b	25.639239
_cell_length_c	12.645323
_cell_angle_alpha	90.031874
_cell_angle_beta	90.022676
_cell_angle_gamma	90.037665
loop_
_atom_site_label
_atom_site_type_symbol
_atom_site_fract_x
_atom_site_fract_y
_atom_site_fract_z
Zn1	Zn	1.620577	-0.208161	0.599395
Zn2	Zn	2.120577	0.291839	1.099395
Zn3	Zn	1.620393	-0.295600	0.422113
Zn4	Zn	2.120393	0.204400	0.922113
Zn5	Zn	1.443291	-0.208179	0.422139
Zn6	Zn	1.943291	0.291821	0.922139
Zn7	Zn	1.443208	-0.295566	0.599328
Zn8	Zn	1.943208	0.204434	1.099328
O9	O	1.531867	-0.251876	0.510744
O10	O	2.031867	0.248124	1.010744
O11	O	1.768900	-0.219767	0.575895
O12	O	2.268900	0.280233	1.075895
O13	O	1.596858	-0.284025	0.273769
O14	O	2.096858	0.215975	0.773769
O15	O	1.466920	-0.135011	0.445691
O16	O	1.966920	0.364989	0.945691
O17	O	1.768765	-0.284008	0.445647
O18	O	2.268765	0.215992	0.945647
O19	O	1.597171	-0.134998	0.575920
O20	O	2.097171	0.365002	1.075920
O21	O	1.466742	-0.219797	0.273788
O22	O	1.966742	0.280203	0.773788
O23	O	1.294933	-0.219764	0.445627
O24	O	1.794933	0.280236	0.945627
O25	O	1.466778	-0.283949	0.747685
O26	O	1.966778	0.216051	1.247685
O27	O	1.294872	-0.283967	0.575807
O28	O	1.794872	0.216033	1.075807
O29	O	1.597090	-0.219734	0.747733
O30	O	2.097090	0.280266	1.247733
O31	O	1.596778	-0.368760	0.445582
O32	O	2.096778	0.131240	0.945582
O33	O	1.466600	-0.368735	0.575782
O34	O	1.966600	0.131265	1.075782
C35	C	1.256438	-0.251864	0.510713
C36	C	1.756438	0.248136	1.010713
C37	C	1.138607	-0.251871	0.510725
C38	C	1.638607	0.248129	1.010725
C39	C	0.971047	-0.211295	0.429281
C40	C	1.471047	0.288705	0.929281
C41	C	1.093606	-0.211400	0.428922
C42	C	1.593606	0.288600	0.928922
C43	C	1.094046	-0.306949	0.480197
C44	C	1.594046	0.193051	0.980197
C45	C	0.971448	-0.306727	0.479641
C46	C	1.471448	0.193273	0.979641
C47	C	0.971468	-0.237893	0.623013
C48	C	1.471468	0.262107	1.123013
C49	C	1.094075	-0.236663	0.622389
C50	C	1.594075	0.263337	1.122389
C51	C	1.531689	-0.387719	0.510695
C52	C	2.031689	0.112281	1.010695
C53	C	1.531710	-0.445833	0.510710
C54	C	2.031710	0.054167	1.010710
C55	C	1.599827	-0.806196	0.443064
C56	C	2.099827	-0.306196	0.943064
C57	C	1.599869	-0.860801	0.443079
C58	C	2.099869	-0.360801	0.943079
O59	O	1.657600	-0.889038	0.385511
O60	O	2.157600	-0.389038	0.885511
N61	N	1.532054	-0.888115	0.510814
N62	N	2.032054	-0.388115	1.010814
C63	C	1.464201	-0.860823	0.578547
C64	C	1.964201	-0.360823	1.078547
O65	O	1.406523	-0.889070	0.636163
O66	O	1.906523	-0.389070	1.136163
C67	C	1.464166	-0.806219	0.578538
C68	C	1.964166	-0.306219	1.078538
C69	C	1.531978	-0.778908	0.510790
C70	C	2.031978	-0.278908	1.010790
C71	C	1.667635	-0.778884	0.375323
C72	C	2.167635	-0.278884	0.875323
C73	C	1.667592	-0.724284	0.375308
C74	C	2.167592	-0.224284	0.875308
C75	C	1.599742	-0.696995	0.443034
C76	C	2.099742	-0.196995	0.943034
C77	C	1.531935	-0.724307	0.510775
C78	C	2.031935	-0.224307	1.010775
C79	C	1.396319	-0.778928	0.646275
C80	C	1.896319	-0.278928	1.146275
C81	C	1.396290	-0.724321	0.646260
C82	C	1.896290	-0.224321	1.146260
C83	C	1.464102	-0.697009	0.578513
C84	C	1.964102	-0.197009	1.078513
C85	C	1.464042	-0.642418	0.578485
C86	C	1.964042	-0.142418	1.078485
N87	N	1.531857	-0.615103	0.510750
N88	N	2.031857	-0.115103	1.010750
C89	C	1.599707	-0.642392	0.443024
C90	C	2.099707	-0.142392	0.943024
C91	C	1.464281	-0.975493	0.578564
C92	C	1.964281	-0.475493	1.078564
C93	C	1.464309	-1.030096	0.578569
C94	C	1.964309	-0.530096	1.078569
C95	C	1.599979	-1.030070	0.443101
C96	C	2.099979	-0.530070	0.943101
C97	C	1.599944	-0.975466	0.443092
C98	C	2.099944	-0.475466	0.943092
C99	C	1.532096	-0.948179	0.510828
C100	C	2.032096	-0.448179	1.010828
C101	C	1.599611	-0.527727	0.442997
C102	C	2.099611	-0.027727	0.942997
C103	C	1.599560	-0.473122	0.442984
C104	C	2.099560	0.026878	0.942984
C105	C	1.463894	-0.473152	0.578455
C106	C	1.963894	0.026848	1.078455
C107	C	1.463942	-0.527753	0.578464
C108	C	1.963942	-0.027753	1.078464
C109	C	1.531809	-0.555039	0.510731
C110	C	2.031809	-0.055039	1.010731
O111	O	1.406343	-0.614146	0.636027
O112	O	1.906343	-0.114146	1.136027
O113	O	1.657385	-0.614138	0.385428
O114	O	2.157385	-0.114138	0.885428
C115	C	1.808372	-0.251889	0.510775
C116	C	2.308372	0.248111	1.010775
C117	C	1.926203	-0.251895	0.510788
C118	C	2.426203	0.248105	1.010788
C119	C	1.531945	-0.251836	0.787249
C120	C	2.031945	0.248164	1.287249
C121	C	1.531979	-0.251819	0.905079
C122	C	2.031979	0.248181	1.405079
C123	C	1.532075	-0.115503	0.510816
C124	C	2.032075	0.384497	1.010816
C125	C	1.532164	-0.057389	0.510846
C126	C	2.032164	0.442611	1.010846
C127	C	1.531850	-0.251879	0.235314
C128	C	2.031850	0.248121	0.735314
C129	C	1.532023	-0.251749	0.117485
C130	C	2.032023	0.248251	0.617485
C131	C	1.449747	-0.292026	1.072613
C132	C	1.949747	0.207974	1.572613
C133	C	1.449962	-0.292225	0.950053
C134	C	1.949962	0.207775	1.450053
C135	C	1.643667	-0.266773	0.949595
C136	C	2.143667	0.233227	1.449595
C137	C	1.643216	-0.267025	1.072194
C138	C	2.143216	0.232975	1.572194
C139	C	1.503578	-0.196432	1.072291
C140	C	2.003578	0.303568	1.572291
C141	C	1.501086	-0.196764	0.949684
C142	C	2.001086	0.303236	1.449684
H143	H	1.122877	-0.220654	0.345759
H144	H	1.622877	0.279346	0.845759
Br145	Br	1.759643	-0.687226	0.283376
Br146	Br	2.259643	-0.187226	0.783376
Br147	Br	1.370199	-0.173712	1.123801
Br148	Br	1.870199	0.326288	1.623801
H149	H	1.341094	-0.801156	0.701438
H150	H	1.841094	-0.301156	1.201438
Br151	Br	1.311921	-0.276624	0.899878
Br152	Br	1.811921	0.223376	1.399878
H153	H	1.408727	-0.549991	0.633633
H154	H	1.908727	-0.049991	1.133633
H155	H	1.654780	-0.450886	0.387812
H156	H	2.154780	0.049114	0.887812
Br157	Br	0.920026	-0.172120	0.669283
Br158	Br	1.420026	0.327880	1.169283
H159	H	0.940192	-0.220447	0.346607
H160	H	1.440192	0.279553	0.846607
Br161	Br	1.145120	-0.327082	0.344922
Br162	Br	1.645120	0.172918	0.844922
Br163	Br	1.364084	-0.177968	0.901208
Br164	Br	1.864084	0.322032	1.401208
Br165	Br	1.371821	-0.436107	0.670368
Br166	Br	1.871821	0.063893	1.170368
Br167	Br	0.923682	-0.326517	0.342900
Br168	Br	1.423682	0.173483	0.842900
Br169	Br	1.748785	-0.220219	1.121678
Br170	Br	2.248785	0.279781	1.621678
H171	H	1.366679	-0.282758	1.102089
H172	H	1.866679	0.217242	1.602089
Br173	Br	0.923134	-0.287179	0.724235
Br174	Br	1.423134	0.212821	1.224235
Br175	Br	1.691976	-0.938406	0.351145
Br176	Br	2.191976	-0.438406	0.851145
H177	H	1.468338	-0.332779	1.103422
H178	H	1.968338	0.167221	1.603422
Br179	Br	1.593686	-0.144100	0.898678
Br180	Br	2.093686	0.355900	1.398678
Br181	Br	1.142605	-0.358716	0.576046
Br182	Br	1.642605	0.141284	1.076046
H183	H	1.123209	-0.196132	0.645409
H184	H	1.623209	0.303868	1.145409
H185	H	1.468736	-0.333234	0.920729
H186	H	1.968736	0.166766	1.420729
Br187	Br	1.304209	-0.687291	0.738198
Br188	Br	1.804209	-0.187291	1.238198
H189	H	1.668196	-0.306787	0.918897
H190	H	2.168196	0.193213	1.418897
Br191	Br	1.683409	-0.334423	1.119870
Br192	Br	2.183409	0.165577	1.619870
H193	H	1.706611	-0.238364	0.920467
H194	H	2.206611	0.261636	1.420467
H195	H	1.655230	-1.052298	0.387959
H196	H	2.155230	-0.552298	0.887959
H197	H	1.409080	-1.052328	0.633725
H198	H	1.909080	-0.552328	1.133725
Br199	Br	1.603459	-0.146416	1.120656
Br200	Br	2.103459	0.353584	1.620656
H201	H	1.654878	-0.549937	0.387844
H202	H	2.154878	-0.049937	0.887844
Br203	Br	0.921993	-0.143013	0.460830
Br204	Br	1.421993	0.356987	0.960830
Br205	Br	1.143833	-0.143327	0.460816
Br206	Br	1.643833	0.356673	0.960816
Br207	Br	1.759732	-0.815909	0.283399
Br208	Br	2.259732	-0.315909	0.783399
H209	H	1.124713	-0.264076	0.686368
H210	H	1.624713	0.235924	1.186368
H211	H	0.941780	-0.338001	0.536418
H212	H	1.441780	0.161999	1.036418
Br213	Br	1.372185	-0.938465	0.670494
Br214	Br	1.872185	-0.438465	1.170494
