data_functionalizedCrystal
_audit_creation_method	'MofGen! by Chris Wilmer'
_symmetry_space_group_name_H-M	'P1'
_symmetry_Int_Tables_number	1
_symmetry_cell_setting	triclinic
loop_
_symmetry_equiv_pos_as_xyz
  x,y,z
_cell_length_a	10.489741
_cell_length_b	15.995350
_cell_length_c	15.072220
_cell_angle_alpha	89.998899
_cell_angle_beta	90.009840
_cell_angle_gamma	84.015774
loop_
_atom_site_label
_atom_site_type_symbol
_atom_site_fract_x
_atom_site_fract_y
_atom_site_fract_z
O1	O	-1.692416	-0.118125	-0.073723
O2	O	-1.321066	-0.129214	-0.073736
O3	O	-1.516892	-0.001843	-0.073728
O4	O	-1.496590	-0.245496	-0.073731
O5	O	-1.516844	-0.001850	0.073837
O6	O	-1.321017	-0.129221	0.073829
O7	O	-1.692368	-0.118132	0.073842
Zn8	Zn	-1.506685	-0.123678	0.097265
Zn9	Zn	-1.506749	-0.123669	-0.097159
O10	O	-1.496541	-0.245503	0.073834
C11	C	-1.516029	0.029353	0.000053
C12	C	-1.513512	0.122319	0.000047
C13	C	-1.273521	-0.128380	0.000045
C14	C	-1.131927	-0.125874	0.000039
C15	C	-1.739912	-0.118966	0.000060
C16	C	-1.881507	-0.121472	0.000059
C17	C	-1.064921	-0.044832	0.000048
C18	C	-0.972282	-0.083112	-0.072707
C19	C	-0.972268	-0.083138	0.072780
C20	C	-1.041153	-0.164188	-0.072777
C21	C	-1.041149	-0.164203	0.072776
C22	C	-0.948537	-0.202542	0.000003
C23	C	-1.497405	-0.276699	0.000052
C24	C	-1.499921	-0.369665	0.000051
N25	N	-1.506651	-0.123683	0.229954
C26	C	-1.504476	0.460121	0.000050
C27	C	-1.365012	0.413528	-0.000286
C28	C	-1.367528	0.316822	0.000047
C29	C	-1.508958	0.292533	0.000048
C30	C	-1.577719	0.333192	0.084316
C31	C	-1.574216	0.429849	0.084387
C32	C	-1.577152	0.430197	-0.083423
C33	C	-1.577119	0.333252	-0.084536
C34	C	-1.511499	0.197820	0.000050
C35	C	-1.501939	0.554834	0.000054
N36	N	-1.506793	-0.123656	-0.229847
C37	C	-1.506746	-0.123665	0.589155
C38	C	-1.401611	-0.191586	0.551544
C39	C	-1.401852	-0.191838	0.448718
C40	C	-1.506698	-0.123674	0.410951
C41	C	-1.639783	-0.143558	0.448247
C42	C	-1.639194	-0.144042	0.551105
C43	C	-1.479982	-0.035664	0.551255
C44	C	-1.476928	-0.036232	0.448391
C45	C	-1.506679	-0.123678	0.310238
C46	C	-1.506774	-0.123664	0.689868
H47	H	-1.115543	0.021790	-0.000042
F48	F	-0.932399	-0.038291	-0.153107
H49	H	-1.071695	-0.198468	0.134290
H50	H	-1.071522	-0.198449	-0.134355
F51	F	-1.271883	-0.176179	0.583887
H52	H	-1.676607	0.461479	0.088211
H53	H	-0.898180	-0.269234	-0.000037
F54	F	-1.508620	0.454164	0.166717
H55	H	-0.941750	-0.048836	0.134290
H56	H	-1.662779	-0.208245	0.575087
F57	F	-1.348966	-0.016530	0.416533
H58	H	-1.313476	0.288729	-0.060360
H59	H	-1.681623	0.318440	0.087451
H60	H	-1.309289	0.432398	-0.060716
F61	F	-1.292262	0.439854	0.078040
H62	H	-1.313073	0.289283	0.060553
F63	F	-1.515246	0.296471	0.166282
H64	H	-1.302927	-0.179872	0.423504
H65	H	-1.418466	-0.256505	0.577382
H66	H	-1.663931	-0.207035	0.422478
H67	H	-1.548529	0.016742	0.422686
H68	H	-1.531575	0.451015	-0.147292
F69	F	-1.511914	0.297645	-0.166030
F70	F	-1.355869	-0.010946	0.585196
H71	H	-1.680257	0.317269	-0.089623
H72	H	-1.679978	0.461338	-0.083988
F73	F	-1.424149	-0.277181	0.416542
H74	H	-1.719872	-0.096565	0.575983
F75	F	-1.744487	-0.080661	0.416273
F76	F	-1.580193	0.030414	0.583045
