data_functionalizedCrystal
_audit_creation_method	'MofGen! by Chris Wilmer'
_symmetry_space_group_name_H-M	'P1'
_symmetry_Int_Tables_number	1
_symmetry_cell_setting	triclinic
loop_
_symmetry_equiv_pos_as_xyz
  x,y,z
_cell_length_a	18.215407
_cell_length_b	12.827892
_cell_length_c	18.215399
_cell_angle_alpha	89.973753
_cell_angle_beta	89.983176
_cell_angle_gamma	90.015840
loop_
_atom_site_label
_atom_site_type_symbol
_atom_site_fract_x
_atom_site_fract_y
_atom_site_fract_z
Zn1	Zn	1.125099	-0.416006	-0.416137
Zn2	Zn	1.125034	-0.590773	-0.293079
Zn3	Zn	1.002038	-0.416048	-0.293084
Zn4	Zn	1.002017	-0.590707	-0.416104
O5	O	1.063547	-0.503384	-0.354601
O6	O	1.228074	-0.439200	-0.399825
O7	O	1.108700	-0.567640	-0.190096
O8	O	1.018398	-0.269806	-0.309423
O9	O	1.228027	-0.567600	-0.309415
O10	O	1.108810	-0.269776	-0.399829
O11	O	1.018335	-0.439270	-0.190099
O12	O	0.899051	-0.439207	-0.309392
O13	O	1.018363	-0.567488	-0.519093
O14	O	0.899036	-0.567528	-0.399774
O15	O	1.108790	-0.439136	-0.519117
O16	O	1.108680	-0.737000	-0.309383
O17	O	1.018300	-0.736952	-0.399769
C18	C	0.872341	-0.503366	-0.354580
C19	C	0.790542	-0.503383	-0.354589
C20	C	0.602359	-0.570305	-0.401592
C21	C	0.525501	-0.570309	-0.401601
C22	C	0.525486	-0.436481	-0.307627
C23	C	0.602344	-0.436473	-0.307622
C24	C	0.640778	-0.503391	-0.354603
C25	C	0.487062	-0.503402	-0.354617
C26	C	0.403729	-0.503405	-0.354627
C27	C	0.724117	-0.503387	-0.354595
C28	C	1.063501	-0.774894	-0.354588
C29	C	1.063549	-0.891047	-0.354607
C30	C	1.108324	-0.942821	-0.309931
C31	C	1.108375	-1.062871	-0.309950
C32	C	1.255500	-0.503402	-0.354623
C33	C	1.337299	-0.503410	-0.354632
C34	C	1.063582	-0.503300	-0.546554
C35	C	1.063596	-0.503265	-0.628353
C36	C	1.063613	-0.230814	-0.354630
C37	C	1.063641	-0.114660	-0.354643
C38	C	1.016583	-0.436377	-0.816550
C39	C	1.016596	-0.436356	-0.893409
C40	C	1.110698	-0.570027	-0.893394
C41	C	1.110681	-0.570053	-0.816537
C42	C	1.063625	-0.503222	-0.778117
C43	C	1.063654	-0.503175	-0.931833
C44	C	1.063669	-0.503153	-1.015167
C45	C	1.063609	-0.503245	-0.694778
C46	C	1.063555	-0.503391	-0.163395
C47	C	1.063682	-0.503133	-0.081597
H48	H	0.494184	-0.382000	-0.269375
C49	C	1.162446	-0.643572	-0.774258
N50	N	1.201438	-0.698938	-0.742413
H51	H	0.633650	-0.624792	-0.439849
C52	C	0.483243	-0.643929	-0.453285
N53	N	0.451416	-0.699387	-0.492214
H54	H	1.149010	-0.624438	-0.924685
C55	C	0.644607	-0.362859	-0.255928
N56	N	0.676440	-0.307413	-0.216995
H57	H	1.146707	-1.107395	-0.271699
C58	C	1.160063	-0.882639	-0.258237
N59	N	1.199033	-0.837312	-0.219299
C60	C	1.011850	-1.054520	-0.406320
N61	N	0.972841	-1.009214	-0.445244
H62	H	0.978267	-0.381960	-0.785270
H63	H	1.025255	-0.935598	-0.392873
C64	C	0.964851	-0.362816	-0.935682
N65	N	0.925875	-0.307421	-0.967521
