data_functionalizedCrystal
_audit_creation_method	'MofGen! by Chris Wilmer'
_symmetry_space_group_name_H-M	'P1'
_symmetry_Int_Tables_number	1
_symmetry_cell_setting	triclinic
loop_
_symmetry_equiv_pos_as_xyz
  x,y,z
_cell_length_a	16.120530
_cell_length_b	12.594516
_cell_length_c	16.120256
_cell_angle_alpha	92.875008
_cell_angle_beta	90.128265
_cell_angle_gamma	87.109090
loop_
_atom_site_label
_atom_site_type_symbol
_atom_site_fract_x
_atom_site_fract_y
_atom_site_fract_z
Zn1	Zn	1.247513	-0.539269	-0.534572
Zn2	Zn	1.254487	-0.708706	-0.395515
Zn3	Zn	1.115501	-0.521277	-0.388489
Zn4	Zn	1.108443	-0.707731	-0.527485
O5	O	1.181486	-0.619246	-0.461515
O6	O	1.364806	-0.569683	-0.522032
O7	O	1.241923	-0.676722	-0.278217
O8	O	1.133048	-0.374722	-0.407893
O9	O	1.369929	-0.694168	-0.419868
O10	O	1.230037	-0.387941	-0.515219
O11	O	1.139810	-0.539019	-0.273055
O12	O	0.998198	-0.538073	-0.401021
O13	O	1.121019	-0.692506	-0.644791
O14	O	0.993012	-0.675060	-0.503140
O15	O	1.223193	-0.568738	-0.649998
O16	O	1.235079	-0.857519	-0.412996
O17	O	1.127781	-0.856803	-0.509953
C18	C	0.965432	-0.604509	-0.450550
C19	C	0.873002	-0.598232	-0.445878
C20	C	0.703771	-0.586746	-0.437357
C21	C	0.660039	-0.651828	-0.485734
C22	C	0.565873	-0.645438	-0.480993
C23	C	0.797946	-0.593135	-0.442097
C24	C	1.181443	-0.895782	-0.461487
C25	C	1.181499	-1.014093	-0.461507
C26	C	1.239955	-1.154473	-0.408873
C27	C	1.165106	-1.077361	-0.384594
C28	C	1.256340	-1.089630	-0.485748
C29	C	1.106693	-1.147772	-0.437263
C30	C	1.197977	-1.160052	-0.538455
C31	C	1.123074	-1.082970	-0.514201
C32	C	1.398384	-0.634041	-0.472524
C33	C	1.490813	-0.640346	-0.477215
C34	C	1.170541	-0.632520	-0.678410
C35	C	1.165876	-0.638177	-0.770838
C36	C	1.181552	-0.341633	-0.461563
C37	C	1.181580	-0.223330	-0.461583
C38	C	1.205809	-0.589720	-0.983822
C39	C	1.157333	-0.648458	-0.940058
C40	C	1.162088	-0.642736	-0.845895
C41	C	1.201055	-0.595441	-1.077993
C42	C	1.192437	-0.605950	-0.245466
C43	C	1.197262	-0.600005	-0.153047
H44	H	0.670493	-0.526233	-0.392382
H45	H	1.073620	-1.051782	-0.558741
O46	O	0.699823	-0.723895	-0.539438
C47	C	0.747363	-0.670047	-0.595728
H48	H	0.761751	-0.588395	-0.567153
H49	H	0.807923	-0.718172	-0.609826
H50	H	0.710858	-0.660031	-0.655720
O51	O	1.214741	-1.203144	-0.616011
C52	C	1.293693	-1.173770	-0.641305
H53	H	1.332584	-1.152748	-0.584224
H54	H	1.325992	-1.243010	-0.678799
H55	H	1.286345	-1.101803	-0.681344
O56	O	1.298732	-1.191852	-0.355575
C57	C	1.281091	-1.149471	-0.274557
H58	H	1.212191	-1.124883	-0.269424
H59	H	1.297417	-1.212284	-0.227860
H60	H	1.319400	-1.076977	-0.260874
O61	O	1.148536	-1.034431	-0.306945
C62	C	1.137663	-1.116677	-0.252377
H63	H	1.170440	-1.193356	-0.278638
H64	H	1.165200	-1.093909	-0.189150
H65	H	1.068560	-1.129273	-0.245216
H66	H	1.112255	-0.703036	-0.973310
H67	H	1.043421	-1.173386	-0.416719
H68	H	1.319598	-1.063878	-0.506218
O69	O	1.259564	-0.524703	-0.944031
C70	C	1.252393	-0.533390	-0.857511
H71	H	1.225711	-0.612968	-0.844371
H72	H	1.316321	-0.528467	-0.827597
H73	H	1.209353	-0.465763	-0.830601
