data_functionalizedCrystal
_audit_creation_method	'MofGen! by Chris Wilmer'
_symmetry_space_group_name_H-M	'P1'
_symmetry_Int_Tables_number	1
_symmetry_cell_setting	triclinic
loop_
_symmetry_equiv_pos_as_xyz
  x,y,z
_cell_length_a	12.759401
_cell_length_b	19.076808
_cell_length_c	12.759393
_cell_angle_alpha	92.334138
_cell_angle_beta	90.020938
_cell_angle_gamma	92.325019
loop_
_atom_site_label
_atom_site_type_symbol
_atom_site_fract_x
_atom_site_fract_y
_atom_site_fract_z
Zn1	Zn	1.589386	-0.280155	0.577177
Zn2	Zn	1.922719	0.053178	0.910511
Zn3	Zn	2.256053	0.386511	1.243844
Zn4	Zn	1.582184	-0.397876	0.394420
Zn5	Zn	1.915517	-0.064543	0.727753
Zn6	Zn	2.248851	0.268790	1.061087
Zn7	Zn	1.413683	-0.280193	0.401510
Zn8	Zn	1.747016	0.053140	0.734844
Zn9	Zn	2.080349	0.386474	1.068177
Zn10	Zn	1.406587	-0.397827	0.570060
Zn11	Zn	1.739920	-0.064494	0.903394
Zn12	Zn	2.073253	0.268839	1.236727
O13	O	1.497960	-0.339013	0.485792
O14	O	1.831293	-0.005680	0.819125
O15	O	2.164626	0.327654	1.152459
O16	O	1.735451	-0.295776	0.552945
O17	O	2.068785	0.037557	0.886279
O18	O	2.402118	0.370890	1.219612
O19	O	1.559788	-0.382302	0.248337
O20	O	1.893121	-0.048968	0.581671
O21	O	2.226454	0.284365	0.915004
O22	O	1.442974	-0.181691	0.430759
O23	O	1.776307	0.151642	0.764092
O24	O	2.109640	0.484976	1.097425
O25	O	1.730160	-0.382265	0.418675
O26	O	2.063493	-0.048932	0.752008
O27	O	2.396827	0.284401	1.085341
O28	O	1.572062	-0.181663	0.559820
O29	O	1.905396	0.151670	0.893154
O30	O	2.238729	0.485003	1.226487
O31	O	1.435990	-0.295840	0.253546
O32	O	1.769324	0.037493	0.586880
O33	O	2.102657	0.370826	0.920213
O34	O	1.265721	-0.295792	0.423858
O35	O	1.599054	0.037541	0.757191
O36	O	1.932387	0.370874	1.090524
O37	O	1.430880	-0.382182	0.718028
O38	O	1.764213	-0.048848	1.051361
O39	O	2.097546	0.284485	1.384694
O40	O	1.260507	-0.382218	0.547691
O41	O	1.593840	-0.048885	0.881024
O42	O	1.927174	0.284449	1.214357
O43	O	1.565182	-0.295729	0.723257
O44	O	1.898515	0.037605	1.056590
O45	O	2.231848	0.370938	1.389923
O46	O	1.552907	-0.496367	0.411773
O47	O	1.886240	-0.163034	0.745107
O48	O	2.219574	0.170300	1.078440
O49	O	1.423896	-0.496331	0.540816
O50	O	1.757230	-0.162997	0.874149
O51	O	2.090563	0.170336	1.207482
C52	C	1.224993	-0.339004	0.485772
C53	C	1.558326	-0.005671	0.819105
C54	C	1.891660	0.327662	1.152438
C55	C	1.108216	-0.339018	0.485787
C56	C	1.441549	-0.005684	0.819120
C57	C	1.774882	0.327649	1.152454
C58	C	1.050662	-0.384088	0.550157
C59	C	1.383996	-0.050755	0.883490
C60	C	1.717329	0.282579	1.216824
C61	C	0.940938	-0.384091	0.550178
C62	C	1.274271	-0.050757	0.883511
C63	C	1.607605	0.282576	1.216844
C64	C	0.946330	-0.293951	0.421449
C65	C	1.279663	0.039382	0.754783
C66	C	1.612997	0.372716	1.088116
C67	C	1.056052	-0.293945	0.421435
C68	C	1.389386	0.039388	0.754768
C69	C	1.722719	0.372721	1.088102
C70	C	1.486879	-0.521888	0.474776
C71	C	1.820212	-0.188555	0.808109
C72	C	2.153545	0.144779	1.141442
C73	C	1.482234	-0.600123	0.470098
C74	C	1.815567	-0.266789	0.803431
C75	C	2.148901	0.066544	1.136765
C76	C	1.547211	-0.636803	0.535150
C77	C	1.880545	-0.303469	0.868484
C78	C	2.213878	0.029864	1.201817
C79	C	1.542843	-0.710312	0.530757
C80	C	1.876176	-0.376979	0.864090
C81	C	2.209510	-0.043646	1.197424
C82	C	1.473502	-0.747141	0.461305
C83	C	1.806835	-0.413808	0.794639
C84	C	2.140169	-0.080474	1.127972
C85	C	1.408518	-0.710456	0.396250
C86	C	1.741851	-0.377122	0.729584
C87	C	2.075184	-0.043789	1.062917
C88	C	1.412881	-0.636947	0.400650
C89	C	1.746215	-0.303614	0.733983
C90	C	2.079548	0.029719	1.067316
C91	C	1.453245	-0.966996	0.440941
C92	C	1.786578	-0.633662	0.774275
C93	C	2.119912	-0.300329	1.107608
C94	C	1.448889	-1.040509	0.436545
C95	C	1.782222	-0.707176	0.769878
C96	C	2.115555	-0.373843	1.103211
C97	C	1.583213	-1.040361	0.571053
C98	C	1.916546	-0.707027	0.904387
C99	C	2.249880	-0.373694	1.237720
C100	C	1.587575	-0.966851	0.575442
C101	C	1.920908	-0.633518	0.908775
C102	C	2.254242	-0.300184	1.242109
C103	C	1.522587	-0.930172	0.510391
C104	C	1.855920	-0.596839	0.843724
C105	C	2.189253	-0.263506	1.177058
N106	N	1.469038	-0.822280	0.456811
N107	N	1.802371	-0.488946	0.790144
N108	N	2.135704	-0.155613	1.123477
N109	N	1.527047	-0.855035	0.514892
N110	N	1.860380	-0.521701	0.848225
N111	N	2.193713	-0.188368	1.181558
C112	C	1.771992	-0.339022	0.485813
C113	C	2.105326	-0.005689	0.819146
C114	C	2.438659	0.327644	1.152480
C115	C	1.888769	-0.339026	0.485822
C116	C	2.222102	-0.005693	0.819155
C117	C	2.555436	0.327641	1.152489
C118	C	1.498042	-0.338945	0.759830
C119	C	1.831376	-0.005612	1.093163
C120	C	2.164709	0.327721	1.426496
C121	C	1.498078	-0.338917	0.876608
C122	C	1.831411	-0.005583	1.209941
C123	C	2.164744	0.327750	1.543275
C124	C	1.509113	-0.155424	0.496874
C125	C	1.842446	0.177909	0.830208
C126	C	2.175780	0.511243	1.163541
C127	C	1.513866	-0.077189	0.501597
C128	C	1.847199	0.256144	0.834930
C129	C	2.180532	0.589477	1.168264
C130	C	1.497941	-0.339030	0.212824
C131	C	1.831274	-0.005696	0.546157
C132	C	2.164608	0.327637	0.879490
C133	C	1.498121	-0.338860	0.096058
C134	C	1.831455	-0.005527	0.429391
C135	C	2.164788	0.327807	0.762724
C136	C	1.568014	-0.293893	0.934195
C137	C	1.901348	0.039440	1.267528
C138	C	2.234681	0.372773	1.600861
C139	C	1.568034	-0.293863	1.043921
C140	C	1.901367	0.039470	1.377254
C141	C	2.234700	0.372804	1.710587
C142	C	1.428177	-0.383885	1.038463
C143	C	1.761510	-0.050552	1.371796
C144	C	2.094844	0.282781	1.705130
C145	C	1.428153	-0.383912	0.928739
C146	C	1.761487	-0.050578	1.262073
C147	C	2.094820	0.282755	1.595406
H148	H	1.603681	-0.606822	0.591701
H149	H	1.937014	-0.273488	0.925034
H150	H	2.270347	0.059845	1.258367
H151	H	1.371249	-0.420520	1.080922
H152	H	1.704583	-0.087187	1.414255
H153	H	2.037916	0.246147	1.747589
H154	H	1.359969	-0.607083	0.347679
H155	H	1.693302	-0.273750	0.681012
H156	H	2.026635	0.059583	1.014345
H157	H	1.644038	-0.936867	0.631995
H158	H	1.977371	-0.603533	0.965328
H159	H	2.310704	-0.270200	1.298662
F160	F	1.117309	-0.245969	0.352926
F161	F	1.450642	0.087364	0.686259
F162	F	1.783975	0.420698	1.019592
H163	H	1.595763	-0.740174	0.583722
H164	H	1.929096	-0.406841	0.917055
H165	H	2.262429	-0.073507	1.250388
F166	F	1.652370	-1.079402	0.640283
F167	F	1.985703	-0.746069	0.973616
F168	F	2.319037	-0.412735	1.306950
F169	F	1.642431	-0.246004	0.878716
F170	F	1.975765	0.087329	1.212050
F171	F	2.309098	0.420663	1.545383
H172	H	1.371195	-0.420574	0.881851
H173	H	1.704528	-0.087241	1.215184
H174	H	2.037862	0.246092	1.548517
H175	H	1.093130	-0.420787	0.602559
H176	H	1.426464	-0.087454	0.935892
H177	H	1.759797	0.245880	1.269226
F178	F	1.375086	-1.079704	0.362618
F179	F	1.708420	-0.746370	0.695951
F180	F	2.041753	-0.413037	1.029285
H181	H	1.400331	-0.937138	0.387972
H182	H	1.733664	-0.603804	0.721305
H183	H	2.066998	-0.270471	1.054639
H184	H	0.894083	-0.420790	0.602596
H185	H	1.227416	-0.087457	0.935929
H186	H	1.560750	0.245876	1.269262
F187	F	1.334710	-0.749653	0.322343
F188	F	1.668044	-0.416320	0.655677
F189	F	2.001377	-0.082987	0.989010
H190	H	0.903845	-0.257256	0.369055
H191	H	1.237179	0.076078	0.702388
H192	H	1.570512	0.409411	1.035721
F193	F	1.642477	-0.245948	1.105204
F194	F	1.975810	0.087386	1.438537
F195	F	2.309143	0.420719	1.771871
