data_functionalizedCrystal
_audit_creation_method	'MofGen! by Chris Wilmer'
_symmetry_space_group_name_H-M	'P1'
_symmetry_Int_Tables_number	1
_symmetry_cell_setting	triclinic
loop_
_symmetry_equiv_pos_as_xyz
  x,y,z
_cell_length_a	12.759401
_cell_length_b	12.594516
_cell_length_c	12.759393
_cell_angle_alpha	89.971788
_cell_angle_beta	89.982824
_cell_angle_gamma	90.016214
loop_
_atom_site_label
_atom_site_type_symbol
_atom_site_fract_x
_atom_site_fract_y
_atom_site_fract_z
Zn1	Zn	1.606232	-0.423684	-0.593999
Zn2	Zn	2.106232	0.076316	-0.093999
Zn3	Zn	1.606126	-0.601701	-0.418327
Zn4	Zn	2.106126	-0.101701	0.081673
Zn5	Zn	1.430538	-0.423737	-0.418339
Zn6	Zn	1.930538	0.076263	0.081661
Zn7	Zn	1.430518	-0.601622	-0.593968
Zn8	Zn	1.930518	-0.101622	-0.093968
O9	O	1.518354	-0.512686	-0.506158
O10	O	2.018354	-0.012686	-0.006158
O11	O	1.753239	-0.447310	-0.570704
O12	O	2.253239	0.052690	-0.070704
O13	O	1.582798	-0.578149	-0.271307
O14	O	2.082798	-0.078149	0.228693
O15	O	1.453896	-0.274784	-0.441658
O16	O	1.953896	0.225216	0.058342
O17	O	1.753161	-0.578098	-0.441638
O18	O	2.253161	-0.078098	0.058362
O19	O	1.582978	-0.274746	-0.570715
O20	O	2.082978	0.225254	-0.070715
O21	O	1.453794	-0.447400	-0.271316
O22	O	1.953794	0.052600	0.228684
O23	O	1.283514	-0.447323	-0.441628
O24	O	1.783514	0.052677	0.058372
O25	O	1.453863	-0.577963	-0.740993
O26	O	1.953863	-0.077963	-0.240993
O27	O	1.283500	-0.578014	-0.570663
O28	O	1.783500	-0.078014	-0.070663
O29	O	1.582959	-0.447233	-0.741016
O30	O	2.082959	0.052767	-0.241016
O31	O	1.582779	-0.750636	-0.441608
O32	O	2.082779	-0.250636	0.058392
O33	O	1.453761	-0.750578	-0.570651
O34	O	1.953761	-0.250578	-0.070651
C35	C	1.245386	-0.512666	-0.506144
C36	C	1.745386	-0.012666	-0.006144
C37	C	1.128610	-0.512684	-0.506163
C38	C	1.628610	-0.012684	-0.006163
C39	C	1.073768	-0.580843	-0.573240
C40	C	1.573768	-0.080843	-0.073240
C41	C	0.964043	-0.580857	-0.573251
C42	C	1.464043	-0.080857	-0.073251
C43	C	0.964013	-0.444548	-0.439099
C44	C	1.464013	0.055452	0.060901
C45	C	1.073735	-0.444530	-0.439094
C46	C	1.573735	0.055470	0.060906
C47	C	1.128642	-0.648997	-0.640308
C48	C	1.628642	-0.148997	-0.140308
C49	C	1.073800	-0.717163	-0.707390
C50	C	1.573800	-0.217163	-0.207390
C51	C	0.964076	-0.717177	-0.707402
C52	C	1.464076	-0.217177	-0.207402
C53	C	0.909194	-0.649024	-0.640331
C54	C	1.409194	-0.149024	-0.140331
C55	C	1.518285	-0.789227	-0.506148
C56	C	2.018285	-0.289227	-0.006148
C57	C	1.518351	-0.907532	-0.506179
C58	C	2.018351	-0.407532	-0.006179
C59	C	1.448171	-0.976793	-0.576316
C60	C	1.948171	-0.476793	-0.076316
C61	C	1.422574	-1.047661	-0.480449
C62	C	1.922574	-0.547661	0.019551
C63	C	1.544044	-1.047463	-0.602062
C64	C	2.044044	-0.547463	-0.102062
C65	C	1.492703	-0.976843	-0.410261
C66	C	1.992703	-0.476843	0.089739
C67	C	1.614218	-0.976638	-0.531938
C68	C	2.114218	-0.476638	-0.031938
C69	C	1.588657	-1.047475	-0.436006
C70	C	2.088657	-0.547475	0.063994
C71	C	1.792387	-0.512706	-0.506173
C72	C	2.292387	-0.012706	-0.006173
C73	C	1.909163	-0.512715	-0.506179
C74	C	2.409163	-0.012715	-0.006179
C75	C	1.518421	-0.512583	-0.780192
C76	C	2.018421	-0.012583	-0.280192
C77	C	1.518449	-0.512539	-0.896968
C78	C	2.018449	-0.012539	-0.396968
C79	C	1.518451	-0.235065	-0.506192
C80	C	2.018451	0.264935	-0.006192
C81	C	1.518493	-0.116760	-0.506206
C82	C	2.018493	0.383240	-0.006206
C83	C	1.451252	-0.580578	-0.951820
C84	C	1.951252	-0.080578	-0.451820
C85	C	1.451290	-0.580540	-1.061544
C86	C	1.951290	-0.080540	-0.561544
C87	C	1.585727	-0.444414	-1.061555
C88	C	2.085727	0.055586	-0.561555
C89	C	1.585693	-0.444459	-0.951833
C90	C	2.085693	0.055541	-0.451833
C91	C	1.384008	-0.648659	-0.896956
C92	C	1.884008	-0.148659	-0.396956
C93	C	1.316804	-0.716702	-0.951808
C94	C	1.816804	-0.216702	-0.451808
C95	C	1.316842	-0.716664	-1.061532
C96	C	1.816842	-0.216664	-0.561532
C97	C	1.384085	-0.648582	-1.116404
C98	C	1.884085	-0.148582	-0.616404
C99	C	1.518347	-0.512712	-0.233191
C100	C	2.018347	-0.012712	0.266809
C101	C	1.518522	-0.512456	-0.116415
C102	C	2.018522	-0.012456	0.383585
H103	H	0.919426	-0.772673	-0.762030
H104	H	1.419426	-0.272673	-0.262030
Cl105	Cl	1.670176	-0.358926	-0.882871
Cl106	Cl	2.170176	0.141074	-0.382871
H107	H	1.118389	-0.389020	-0.384482
H108	H	1.618389	0.110980	0.115518
H109	H	1.648067	-1.078315	-0.376636
H110	H	2.148067	-0.578315	0.123364
H111	H	1.388717	-0.945756	-0.635542
H112	H	1.888717	-0.445756	-0.135542
H113	H	1.262129	-0.772075	-1.106189
H114	H	1.762129	-0.272075	-0.606189
Cl115	Cl	1.739259	-0.928435	-0.565614
Cl116	Cl	2.239259	-0.428435	-0.065614
H117	H	1.565718	-1.078483	-0.683138
H118	H	2.065718	-0.578483	-0.183138
H119	H	1.262063	-0.772138	-0.907124
H120	H	1.762063	-0.272138	-0.407124
Cl121	Cl	0.895018	-0.358880	-0.354786
Cl122	Cl	1.395018	0.141120	0.145214
Cl123	Cl	1.383948	-0.648705	-0.759017
Cl124	Cl	1.883948	-0.148705	-0.259017
Cl125	Cl	0.771253	-0.649035	-0.640357
Cl126	Cl	1.271253	-0.149035	-0.140357
Cl127	Cl	1.384139	-0.648544	-1.254344
Cl128	Cl	1.884139	-0.148544	-0.754344
H129	H	1.640472	-0.388983	-1.106241
H130	H	2.140472	0.111017	-0.606241
H131	H	1.217985	-0.648996	-0.640305
H132	H	1.717985	-0.148996	-0.140305
H133	H	1.118492	-0.772644	-0.762003
H134	H	1.618492	-0.272644	-0.262003
Cl135	Cl	1.297501	-1.095825	-0.446816
Cl136	Cl	1.797501	-0.595825	0.053184
H137	H	1.470936	-0.945951	-0.329163
H138	H	1.970936	-0.445951	0.170837
