data_functionalizedCrystal
_audit_creation_method	'MofGen! by Chris Wilmer'
_symmetry_space_group_name_H-M	'P1'
_symmetry_Int_Tables_number	1
_symmetry_cell_setting	triclinic
loop_
_symmetry_equiv_pos_as_xyz
  x,y,z
_cell_length_a	17.699083
_cell_length_b	17.699083
_cell_length_c	16.176319
_cell_angle_alpha	90.001389
_cell_angle_beta	89.992304
_cell_angle_gamma	96.716985
loop_
_atom_site_label
_atom_site_type_symbol
_atom_site_fract_x
_atom_site_fract_y
_atom_site_fract_z
O1	O	0.095713	-1.004079	-0.068632
O2	O	0.108166	-0.783700	-0.068660
O3	O	-0.008250	-0.900116	-0.068638
O4	O	0.212129	-0.887663	-0.068654
O5	O	-0.008257	-0.900100	0.068855
O6	O	0.108158	-0.783684	0.068834
O7	O	0.095706	-1.004063	0.068861
Cu8	Cu	0.101931	-0.893872	0.081401
Cu9	Cu	0.101940	-0.893891	-0.081200
O10	O	0.212121	-0.887647	0.068839
C11	C	-0.036451	-0.899662	0.000109
C12	C	-0.120469	-0.898323	0.000109
C13	C	0.107716	-0.755495	0.000084
C14	C	0.106377	-0.671477	0.000073
C15	C	0.096156	-1.032268	0.000116
C16	C	0.097494	-1.116286	0.000121
C17	C	-0.169090	-0.966656	0.000119
C18	C	-0.248033	-0.965394	0.000111
C19	C	-0.278354	-0.895798	0.000100
C20	C	-0.229727	-0.827459	0.000088
C21	C	-0.150785	-0.828722	0.000089
C22	C	-0.548090	-0.822364	0.000080
C23	C	-0.627038	-0.821106	0.000081
C24	C	-0.645338	-0.959036	0.000102
C25	C	-0.566396	-0.960299	0.000104
C26	C	-0.517776	-0.891961	0.000087
C27	C	-0.432177	-0.893330	0.000094
C28	C	-0.363951	-0.894427	0.000099
C29	C	0.240322	-0.888102	0.000091
C30	C	0.324340	-0.889440	0.000085
N31	N	0.101925	-0.893864	0.195767
C32	C	0.174710	-0.622856	0.000069
C33	C	0.173448	-0.543913	0.000079
C34	C	0.103852	-0.513592	0.000089
C35	C	0.035513	-0.562219	0.000096
C36	C	0.036776	-0.641161	0.000091
C37	C	0.030418	-0.243856	0.000117
C38	C	0.029160	-0.164908	0.000120
C39	C	0.167090	-0.146608	0.000105
C40	C	0.168353	-0.225550	0.000100
C41	C	0.100015	-0.274170	0.000112
C42	C	0.101384	-0.359769	0.000102
C43	C	0.102481	-0.427995	0.000093
N44	N	0.101941	-0.893905	-0.195565
C45	C	0.050397	-0.945429	0.239040
C46	C	0.050396	-0.945432	0.325588
C47	C	0.101927	-0.893875	0.368859
C48	C	0.153457	-0.842305	0.325579
C49	C	0.153454	-0.842299	0.239034
C50	C	0.153472	-0.842331	0.674608
C51	C	0.153473	-0.842344	0.761159
C52	C	0.050414	-0.945465	0.761161
C53	C	0.050410	-0.945458	0.674616
C54	C	0.101937	-0.893886	0.631344
C55	C	0.101937	-0.893882	0.537499
C56	C	0.101932	-0.893883	0.462702
H57	H	-0.287618	-1.021038	0.000121
H58	H	0.008451	-0.987444	0.639387
O59	O	-0.533700	-1.035368	0.000110
H60	H	-0.498183	-1.039244	0.056153
H61	H	0.225025	-0.250232	0.000089
O62	O	-0.005173	-1.001086	0.807832
H63	H	0.003477	-0.992426	0.875282
H64	H	-0.027517	-0.140225	0.000128
O65	O	-0.495652	-0.748661	0.000067
H66	H	-0.459249	-0.745935	0.056103
O67	O	-0.043286	-0.296293	0.000129
H68	H	-0.091890	-0.261944	0.000130
H69	H	0.195428	-0.800341	0.639382
O70	O	-0.005166	-1.001061	0.372265
H71	H	-0.040988	-1.036922	0.327636
H72	H	-0.018868	-0.680748	0.000095
H73	H	-0.144409	-1.023330	0.000133
O74	O	-0.697783	-1.032745	0.000116
H75	H	-0.663435	-1.081350	0.000136
H76	H	-0.651721	-0.764429	0.000074
O77	O	0.209066	-0.786745	0.807836
H78	H	0.244897	-0.750882	0.763208
H79	H	-0.254420	-0.770792	0.000073
O80	O	-0.005186	-1.001034	0.192369
H81	H	-0.041022	-1.036884	0.237004
O82	O	-0.098338	-0.755021	0.000088
H83	H	-0.132682	-0.706413	0.000090
O84	O	-0.039555	-0.529522	0.000110
H85	H	-0.028955	-0.466461	0.000105
H86	H	0.195413	-0.800323	0.360816
H87	H	0.231384	-0.647537	0.000060
H88	H	0.195412	-0.800309	0.203801
O89	O	0.247150	-0.491469	0.000075
H90	H	0.295756	-0.525815	0.000057
O91	O	0.240803	-0.094169	0.000111
H92	H	0.228237	-0.034181	0.000128
