data_functionalizedCrystal
_audit_creation_method	'MofGen! by Chris Wilmer'
_symmetry_space_group_name_H-M	'P1'
_symmetry_Int_Tables_number	1
_symmetry_cell_setting	triclinic
loop_
_symmetry_equiv_pos_as_xyz
  x,y,z
_cell_length_a	14.519709
_cell_length_b	27.732048
_cell_length_c	13.596369
_cell_angle_alpha	89.989067
_cell_angle_beta	90.000291
_cell_angle_gamma	83.161400
loop_
_atom_site_label
_atom_site_type_symbol
_atom_site_fract_x
_atom_site_fract_y
_atom_site_fract_z
O1	O	1.222766	0.063362	-0.081675
O2	O	1.556099	0.396695	0.251659
O3	O	1.889433	0.730029	0.584992
O4	O	0.954159	0.070824	-0.081706
O5	O	1.287493	0.404157	0.251627
O6	O	1.620826	0.737490	0.584961
O7	O	1.096805	-0.003264	-0.081671
O8	O	1.430138	0.330069	0.251663
O9	O	1.763472	0.663403	0.584996
O10	O	1.080120	0.137450	-0.081710
O11	O	1.413454	0.470783	0.251623
O12	O	1.746787	0.804116	0.584957
O13	O	1.096791	-0.003268	0.081912
O14	O	1.430124	0.330065	0.415246
O15	O	1.763458	0.663399	0.748579
O16	O	0.954145	0.070820	0.081877
O17	O	1.287479	0.404153	0.415210
O18	O	1.620812	0.737487	0.748544
O19	O	1.222752	0.063358	0.081908
O20	O	1.556085	0.396692	0.415242
O21	O	1.889419	0.730025	0.748575
Zn22	Zn	1.088446	0.067088	0.107865
Zn23	Zn	1.421780	0.400422	0.441198
Zn24	Zn	1.755113	0.733755	0.774532
Zn25	Zn	1.088465	0.067094	-0.107663
Zn26	Zn	1.421798	0.400427	0.225671
Zn27	Zn	1.755132	0.733760	0.559004
O28	O	1.080106	0.137446	0.081873
O29	O	1.413440	0.470779	0.415206
O30	O	1.746773	0.804113	0.748540
C31	C	0.919799	0.070474	0.000082
C32	C	1.253132	0.403807	0.333415
C33	C	1.586465	0.737141	0.666748
C34	C	0.817435	0.069432	0.000071
C35	C	1.150769	0.402765	0.333404
C36	C	1.484102	0.736099	0.666737
C37	C	0.442606	0.065596	0.000116
C38	C	0.775940	0.398929	0.333450
C39	C	1.109273	0.732262	0.666783
C40	C	0.546896	0.066661	0.000103
C41	C	0.880229	0.399994	0.333437
C42	C	1.213562	0.733328	0.666770
C43	C	0.630018	0.067514	0.000093
C44	C	0.963351	0.400847	0.333426
C45	C	1.296684	0.734180	0.666759
C46	C	0.734314	0.068579	0.000081
C47	C	1.067647	0.401913	0.333415
C48	C	1.400980	0.735246	0.666748
C49	C	1.096448	-0.021274	0.000124
C50	C	1.429781	0.312059	0.333457
C51	C	1.763114	0.645392	0.666790
C52	C	1.095393	-0.074934	0.000132
C53	C	1.428727	0.258399	0.333465
C54	C	1.762060	0.591732	0.666798
C55	C	1.173048	-0.413378	0.000090
C56	C	1.506381	-0.080045	0.333423
C57	C	1.839715	0.253288	0.666757
C58	C	1.169135	-0.615057	0.000076
C59	C	1.502469	-0.281723	0.333409
C60	C	1.835802	0.051610	0.666743
O61	O	1.240145	-0.645973	0.000041
O62	O	1.573478	-0.312640	0.333375
O63	O	1.906812	0.020694	0.666708
N64	N	1.084552	-0.634585	0.000067
N65	N	1.417886	-0.301251	0.333400
N66	N	1.751219	0.032082	0.666734
C67	C	1.000941	-0.603690	0.000055
C68	C	1.334275	-0.270356	0.333388
C69	C	1.667608	0.062977	0.666722
O70	O	0.928909	-0.624927	0.000037
O71	O	1.262242	-0.291594	0.333370
O72	O	1.595575	0.041740	0.666704
C73	C	1.004855	-0.402012	0.000062
C74	C	1.338189	-0.068679	0.333396
C75	C	1.671522	0.264654	0.666729
C76	C	1.089444	-0.382487	0.000081
C77	C	1.422777	-0.049154	0.333415
C78	C	1.756110	0.284179	0.666748
C79	C	1.257630	-0.393853	0.000108
C80	C	1.590963	-0.060519	0.333441
C81	C	1.924296	0.272814	0.666775
C82	C	1.258607	-0.343436	0.000117
C83	C	1.591940	-0.010103	0.333450
C84	C	1.925274	0.323231	0.666784
C85	C	1.175003	-0.312545	0.000108
C86	C	1.508336	0.020788	0.333441
C87	C	1.841669	0.354122	0.666775
C88	C	1.090421	-0.332071	0.000090
C89	C	1.423754	0.001263	0.333423
C90	C	1.757088	0.334596	0.666757
C91	C	0.921246	-0.371118	0.000043
C92	C	1.254579	-0.037785	0.333377
C93	C	1.587912	0.295548	0.666710
C94	C	0.922232	-0.320696	0.000043
C95	C	1.255565	0.012637	0.333376
C96	C	1.588898	0.345970	0.666709
C97	C	1.006820	-0.301171	0.000062
C98	C	1.340153	0.032162	0.333395
C99	C	1.673487	0.365496	0.666728
C100	C	1.007794	-0.250763	0.000090
C101	C	1.341128	0.082570	0.333423
C102	C	1.674461	0.415904	0.666757
N103	N	1.092377	-0.231235	0.000099
N104	N	1.425711	0.102098	0.333432
N105	N	1.759044	0.435432	0.666766
C106	C	1.175981	-0.262126	0.000108
C107	C	1.509315	0.071207	0.333441
C108	C	1.842648	0.404541	0.666775
C109	C	0.998893	-0.709574	0.000053
C110	C	1.332226	-0.376240	0.333387
C111	C	1.665559	-0.042907	0.666720
C112	C	0.997914	-0.759993	0.000053
C113	C	1.331247	-0.426659	0.333387
C114	C	1.664581	-0.093326	0.666720
C115	C	1.166108	-0.771356	0.000072
C116	C	1.499441	-0.438023	0.333406
C117	C	1.832775	-0.104689	0.666739
C118	C	1.167086	-0.720936	0.000079
C119	C	1.500419	-0.387603	0.333413
C120	C	1.833752	-0.054269	0.666746
C121	C	1.083476	-0.690045	0.000062
C122	C	1.416809	-0.356712	0.333396
C123	C	1.750142	-0.023379	0.666729
C124	C	1.178028	-0.156247	0.000128
C125	C	1.511361	0.177086	0.333461
C126	C	1.844694	0.510420	0.666794
C127	C	1.178998	-0.105825	0.000141
C128	C	1.512331	0.227508	0.333474
C129	C	1.845664	0.560841	0.666807
C130	C	1.010804	-0.094466	0.000116
C131	C	1.344137	0.238867	0.333450
C132	C	1.677471	0.572200	0.666783
C133	C	1.009833	-0.144883	0.000109
C134	C	1.343167	0.188450	0.333442
C135	C	1.676500	0.521783	0.666775
C136	C	1.093453	-0.175773	0.000111
C137	C	1.426786	0.157560	0.333444
C138	C	1.760119	0.490894	0.666777
O139	O	0.936822	-0.219818	0.000114
O140	O	1.270156	0.113515	0.333447
O141	O	1.603489	0.446849	0.666780
O142	O	1.248004	-0.240879	0.000104
O143	O	1.581337	0.092454	0.333438
O144	O	1.914670	0.425787	0.666771
C145	C	1.172071	-0.463795	0.000081
C146	C	1.505404	-0.130462	0.333415
C147	C	1.838737	0.202872	0.666748
C148	C	1.087489	-0.483320	0.000063
C149	C	1.420823	-0.149987	0.333397
C150	C	1.754156	0.183346	0.666730
C151	C	1.003885	-0.452429	0.000054
C152	C	1.337218	-0.119096	0.333388
C153	C	1.670552	0.214237	0.666721
C154	C	1.086510	-0.533740	0.000063
C155	C	1.419844	-0.200406	0.333397
C156	C	1.753177	0.132927	0.666730
C157	C	1.170115	-0.564631	0.000072
C158	C	1.503448	-0.231297	0.333406
C159	C	1.836781	0.102036	0.666739
C160	C	1.254698	-0.545103	0.000081
C161	C	1.588031	-0.211769	0.333415
C162	C	1.921364	0.121564	0.666748
C163	C	1.255675	-0.494686	0.000090
C164	C	1.589008	-0.161353	0.333424
C165	C	1.922342	0.171981	0.666757
C166	C	0.919302	-0.471957	0.000046
C167	C	1.252635	-0.138624	0.333379
C168	C	1.585969	0.194709	0.666712
C169	C	0.918331	-0.522375	0.000038
C170	C	1.251665	-0.189041	0.333371
C171	C	1.584998	0.144292	0.666704
C172	C	1.001936	-0.553266	0.000047
C173	C	1.335269	-0.219932	0.333380
C174	C	1.668602	0.113401	0.666713
C175	C	1.257113	0.063708	0.000119
C176	C	1.590446	0.397041	0.333452
C177	C	1.923779	0.730375	0.666785
C178	C	1.359476	0.064750	0.000123
C179	C	1.692809	0.398083	0.333457
C180	C	2.026143	0.731417	0.666790
C181	C	1.080464	0.155456	0.000077
C182	C	1.413797	0.488790	0.333410
C183	C	1.747130	0.822123	0.666743
C184	C	1.081518	0.209116	0.000062
C185	C	1.414851	0.542450	0.333396
C186	C	1.748185	0.875783	0.666729
N187	N	1.088441	0.067085	0.254957
N188	N	1.421774	0.400418	0.588290
N189	N	1.755107	0.733751	0.921624
N190	N	1.088478	0.067094	-0.254754
N191	N	1.421812	0.400427	0.078579
N192	N	1.755145	0.733760	0.411912
C193	C	1.088464	0.067094	0.656248
C194	C	1.421797	0.400427	0.989581
C195	C	1.755130	0.733761	1.322914
C196	C	1.088454	0.067093	0.544596
C197	C	1.421788	0.400426	0.877930
C198	C	1.755121	0.733760	1.211263
C199	C	1.088453	0.067090	0.455606
C200	C	1.421786	0.400423	0.788939
C201	C	1.755119	0.733756	1.122273
C202	C	1.088442	0.067088	0.343947
C203	C	1.421776	0.400421	0.677281
C204	C	1.755109	0.733755	1.010614
H205	H	1.246119	-0.181392	0.000126
H206	H	1.579452	0.151941	0.333459
H207	H	1.912785	0.485275	0.666792
H208	H	1.327488	-0.327544	0.000128
H209	H	1.660821	0.005789	0.333462
H210	H	1.994154	0.339123	0.666795
N211	N	1.343046	-0.425396	0.000110
N212	N	1.676379	-0.092062	0.333444
N213	N	2.009713	0.241271	0.666777
N214	N	1.418551	-0.407946	0.000123
N215	N	1.751885	-0.074612	0.333456
N216	N	2.085218	0.258721	0.666790
H217	H	1.478883	-0.430220	0.000130
H218	H	1.812216	-0.096886	0.333464
H219	H	2.145550	0.236447	0.666797
H220	H	0.942736	-0.069306	0.000113
H221	H	1.276069	0.264027	0.333446
H222	H	1.609402	0.597361	0.666779
H223	H	0.854144	-0.295547	0.000027
H224	H	1.187478	0.037786	0.333361
H225	H	1.520811	0.371120	0.666694
N226	N	0.923442	-0.164842	0.000109
N227	N	1.256775	0.168492	0.333442
N228	N	1.590108	0.501825	0.666775
N229	N	0.904132	-0.191721	0.069052
N230	N	1.237465	0.141612	0.402385
N231	N	1.570798	0.474946	0.735719
H232	H	0.843118	-0.205815	0.069046
H233	H	1.176451	0.127518	0.402379
H234	H	1.509784	0.460851	0.735713
H235	H	1.247882	-0.089931	0.000158
H236	H	1.581216	0.243402	0.333492
H237	H	1.914549	0.576735	0.666825
H238	H	0.849444	-0.538266	0.000031
H239	H	1.182778	-0.204933	0.333364
H240	H	1.516111	0.128400	0.666698
H241	H	1.322771	-0.570263	0.000093
H242	H	1.656105	-0.236930	0.333426
H243	H	1.989438	0.096404	0.666760
N244	N	1.253491	-0.700995	0.000071
N245	N	1.586824	-0.367661	0.333404
N246	N	1.920157	-0.034328	0.666737
N247	N	1.272813	-0.674127	-0.068887
N248	N	1.606146	-0.340794	0.264447
N249	N	1.939480	-0.007460	0.597780
H250	H	1.333840	-0.660045	-0.068897
H251	H	1.667174	-0.326712	0.264437
H252	H	2.000507	0.006621	0.597770
H253	H	0.851220	-0.446810	0.000036
H254	H	1.184553	-0.113477	0.333369
H255	H	1.517886	0.219856	0.666703
N256	N	1.251501	-0.802923	0.000089
N257	N	1.584834	-0.469589	0.333423
N258	N	1.918167	-0.136256	0.666756
N259	N	1.250604	-0.847938	0.000090
N260	N	1.583937	-0.514604	0.333423
N261	N	1.917270	-0.181271	0.666756
H262	H	1.310908	-0.870234	0.000098
H263	H	1.644242	-0.536901	0.333431
H264	H	1.977575	-0.203567	0.666764
N265	N	0.911501	-0.779926	0.000057
N266	N	1.244834	-0.446592	0.333390
N267	N	1.578167	-0.113259	0.666724
N268	N	0.836865	-0.752333	0.000050
N269	N	1.170198	-0.419000	0.333383
N270	N	1.503531	-0.085666	0.666717
H271	H	0.775831	-0.766408	0.000049
H272	H	1.109165	-0.433075	0.333382
H273	H	1.442498	-0.099742	0.666716
N274	N	1.342081	-0.474746	0.000124
N275	N	1.675414	-0.141412	0.333457
N276	N	2.008748	0.191921	0.666790
N277	N	1.398270	-0.484194	0.069087
N278	N	1.731603	-0.150861	0.402420
N279	N	2.064936	0.182473	0.735754
H280	H	1.459299	-0.470114	0.069111
H281	H	1.792632	-0.136781	0.402445
H282	H	2.125965	0.196552	0.735778
N283	N	0.913472	-0.678030	0.000036
N284	N	1.246805	-0.344696	0.333369
N285	N	1.580139	-0.011363	0.666703
N286	N	0.837965	-0.695478	0.000030
N287	N	1.171298	-0.362145	0.333364
N288	N	1.504631	-0.028811	0.666697
H289	H	0.777635	-0.673203	0.000022
H290	H	1.110968	-0.339869	0.333355
H291	H	1.444301	-0.006536	0.666689
N292	N	0.834840	-0.391055	-0.000005
N293	N	1.168173	-0.057722	0.333329
N294	N	1.501507	0.275612	0.666662
N295	N	0.815539	-0.417909	-0.068974
N296	N	1.148872	-0.084576	0.264360
N297	N	1.482205	0.248758	0.597693
H298	H	0.754510	-0.431989	-0.069012
H299	H	1.087843	-0.098656	0.264322
H300	H	1.421176	0.234678	0.597655
