data_functionalizedCrystal
_audit_creation_method	'MofGen! by Chris Wilmer'
_symmetry_space_group_name_H-M	'P1'
_symmetry_Int_Tables_number	1
_symmetry_cell_setting	triclinic
loop_
_symmetry_equiv_pos_as_xyz
  x,y,z
_cell_length_a	16.992694
_cell_length_b	16.098538
_cell_length_c	16.992695
_cell_angle_alpha	92.915697
_cell_angle_beta	89.331778
_cell_angle_gamma	92.919142
loop_
_atom_site_label
_atom_site_type_symbol
_atom_site_fract_x
_atom_site_fract_y
_atom_site_fract_z
O1	O	1.054149	0.069132	-0.163625
O2	O	0.825750	0.069157	-0.161793
O3	O	0.939034	0.069152	-0.048509
O4	O	0.940865	0.069137	-0.276910
O5	O	0.932415	-0.069360	-0.055099
O6	O	0.819131	-0.069356	-0.168383
O7	O	1.047530	-0.069380	-0.170215
Zn8	Zn	0.932279	-0.091360	-0.170345
Zn9	Zn	0.941001	0.091137	-0.161663
O10	O	0.934246	-0.069375	-0.283499
C11	C	0.793080	-0.000096	-0.162732
C12	C	0.705596	-0.000086	-0.155703
N13	N	0.926333	-0.215909	-0.176271
C14	C	0.659605	-0.000091	-0.223521
C15	C	0.577404	-0.000102	-0.216913
C16	C	0.541196	-0.000102	-0.142485
C17	C	0.587193	-0.000099	-0.074662
C18	C	0.669392	-0.000094	-0.081271
C19	C	0.295880	-0.000122	-0.115091
C20	C	0.213675	-0.000125	-0.108487
C21	C	0.203892	-0.000129	-0.250738
C22	C	0.286093	-0.000119	-0.257341
C23	C	0.332083	-0.000121	-0.189518
N24	N	0.457173	-0.000111	-0.135728
N25	N	0.416104	-0.000118	-0.196276
C26	C	0.974435	-0.259496	-0.128208
C27	C	0.970283	-0.346685	-0.132361
C28	C	0.918033	-0.390285	-0.184581
C29	C	0.869925	-0.346691	-0.232646
C30	C	0.874074	-0.259504	-0.228489
C31	C	0.902993	-0.653534	-0.199639
C32	C	0.898850	-0.740727	-0.203795
C33	C	0.999208	-0.740715	-0.103508
C34	C	1.003355	-0.653526	-0.099358
C35	C	0.955245	-0.609940	-0.147420
C36	C	0.913789	-0.479406	-0.188829
C37	C	0.959485	-0.520821	-0.143168
C38	C	1.080199	-0.000125	-0.169276
C39	C	1.167684	-0.000130	-0.176305
N40	N	0.946953	0.215686	-0.155732
C41	C	0.939911	-0.000121	-0.309565
C42	C	0.946939	-0.000127	-0.397050
C43	C	0.879122	-0.000119	-0.443040
C44	C	0.885731	-0.000110	-0.525240
C45	C	0.960159	-0.000114	-0.561449
C46	C	1.027981	-0.000119	-0.515452
C47	C	1.021371	-0.000123	-0.433253
C48	C	0.987554	-0.000098	-0.806762
C49	C	0.994158	-0.000096	-0.888968
C50	C	0.851908	-0.000086	-0.898750
C51	C	0.845304	-0.000094	-0.816549
C52	C	0.913127	-0.000095	-0.770560
N53	N	0.966916	-0.000106	-0.645471
N54	N	0.906369	-0.000097	-0.686539
C55	C	0.933369	-0.000100	-0.022443
C56	C	0.926341	-0.000089	0.065042
H57	H	0.539961	-0.000105	-0.272138
O58	O	1.017100	-0.388896	-0.085651
C59	C	1.117066	-0.379682	0.014271
C60	C	1.064098	-0.331775	-0.038595
H61	H	1.155066	-0.333521	0.052341
H62	H	1.156623	-0.420468	-0.024122
H63	H	1.078674	-0.420534	0.053771
H64	H	1.102429	-0.290878	-0.078104
H65	H	1.024536	-0.291043	-0.000156
O66	O	1.053882	-0.610952	-0.048552
C67	C	1.164456	-0.511863	-0.033261
C68	C	1.107503	-0.560162	-0.091008
H69	H	1.207812	-0.470774	-0.067562
H70	H	1.198204	-0.557739	0.000612
H71	H	1.129471	-0.471275	0.009932
H72	H	1.142427	-0.600751	-0.134248
H73	H	1.073753	-0.514241	-0.124823
H74	H	0.689080	-0.000090	-0.284128
O75	O	0.552053	-0.000245	-0.002351
C76	C	0.531890	-0.071969	0.117859
C77	C	0.571713	-0.071922	0.035978
H78	H	0.547783	-0.129904	0.148879
H79	H	0.465231	-0.072023	0.110982
H80	H	0.553220	-0.013972	0.154359
H81	H	0.550446	-0.129908	-0.000565
H82	H	0.638367	-0.071824	0.042914
H83	H	1.076596	-0.000125	-0.395808
O84	O	0.772993	0.000059	-0.781412
C85	C	0.652796	0.071799	-0.761250
C86	C	0.734677	0.071743	-0.801071
H87	H	0.621787	0.129740	-0.777142
H88	H	0.659671	0.071846	-0.694590
H89	H	0.616286	0.013808	-0.782582
H90	H	0.771231	0.129724	-0.779802
H91	H	0.727743	0.071653	-0.867724
H92	H	0.184197	-0.000124	-0.047876
H93	H	0.333316	-0.000125	-0.059865
O94	O	0.159257	0.000014	-0.316633
C95	C	0.129194	0.071736	-0.432805
C96	C	0.179781	0.071692	-0.358193
H97	H	0.145781	0.129673	-0.466436
H98	H	0.064215	0.071785	-0.415342
H99	H	0.140175	0.013741	-0.471903
H100	H	0.168869	0.129677	-0.319062
H101	H	0.244744	0.071599	-0.375712
O102	O	0.848014	-0.782953	-0.254535
C103	C	0.748925	-0.773770	-0.353582
C104	C	0.806446	-0.725846	-0.296148
H105	H	0.715313	-0.727620	-0.387253
H106	H	0.705489	-0.814572	-0.319079
H107	H	0.783435	-0.814607	-0.396974
H108	H	0.772001	-0.684964	-0.252742
H109	H	0.849882	-0.685097	-0.330702
O110	O	1.045895	-0.782965	-0.056702
C111	C	1.082131	-0.809681	0.075994
C112	C	1.029228	-0.761765	0.023071
H113	H	1.068663	-0.792572	0.140501
H114	H	1.146654	-0.792518	0.062639
H115	H	1.070203	-0.879480	0.064014
H116	H	1.041087	-0.691955	0.035021
H117	H	0.964722	-0.778998	0.036437
H118	H	0.863821	-0.618053	-0.238775
O119	O	0.819236	-0.389171	-0.283355
C120	C	0.768338	-0.523490	-0.334177
C121	C	0.825789	-0.475489	-0.276724
H122	H	0.773605	-0.593286	-0.328824
H123	H	0.783356	-0.506402	-0.397078
H124	H	0.705473	-0.506308	-0.319120
H125	H	0.888674	-0.492645	-0.291709
H126	H	0.810703	-0.492581	-0.213839
O127	O	1.100319	-0.000230	-0.550536
C128	C	1.220479	-0.072018	-0.570775
C129	C	1.138582	-0.071985	-0.530986
H130	H	1.251432	-0.130035	-0.554997
H131	H	1.257070	-0.014092	-0.549417
H132	H	1.213541	-0.071975	-0.637421
H133	H	1.145447	-0.072058	-0.464336
H134	H	1.102021	-0.129906	-0.552407
H135	H	1.016987	-0.224002	-0.085688
H136	H	0.834903	-0.224016	-0.267626
O137	O	1.066524	-0.000051	-0.924013
C138	C	1.206920	-0.000086	-0.905642
C139	C	1.125022	-0.000120	-0.865850
H140	H	1.254236	-0.000159	-0.858637
H141	H	1.216379	0.057897	-0.941091
H142	H	1.210768	-0.058037	-0.946669
H143	H	1.121116	0.057792	-0.824786
H144	H	1.115598	-0.058142	-0.830450
O145	O	0.806763	-0.000078	-0.407995
C146	C	0.666367	-0.000106	-0.426386
C147	C	0.748266	-0.000139	-0.466171
H148	H	0.619049	-0.000174	-0.473403
H149	H	0.662436	0.057874	-0.385408
H150	H	0.656985	-0.058061	-0.390885
H151	H	0.757702	0.057776	-0.501712
H152	H	0.752159	-0.058157	-0.507103
H153	H	0.706838	-0.000090	-0.026046
O154	O	1.053421	0.000046	-0.762058
C155	C	1.131932	0.071776	-0.660134
C156	C	1.057315	0.071726	-0.710725
H157	H	1.135096	0.129715	-0.618607
H158	H	1.186287	0.071825	-0.700100
H159	H	1.129623	0.013783	-0.624203
H160	H	1.059547	0.129710	-0.746663
H161	H	1.002991	0.071634	-0.670716
O162	O	0.819881	0.000044	-0.569939
C163	C	0.748227	0.071792	-0.665028
C164	C	0.822834	0.071729	-0.614437
H165	H	0.750597	0.129735	-0.701030
H166	H	0.693873	0.071844	-0.625061
H167	H	0.745001	0.013803	-0.706489
H168	H	0.826136	0.129709	-0.572971
H169	H	0.877152	0.071635	-0.654452
H170	H	0.315569	-0.000109	-0.317947
H171	H	1.002024	-0.485319	-0.100646
H172	H	0.871247	-0.514912	-0.231350
H173	H	0.796690	-0.000084	-0.936204
