data_functionalizedCrystal
_audit_creation_method	'MofGen! by Chris Wilmer'
_symmetry_space_group_name_H-M	'P1'
_symmetry_Int_Tables_number	1
_symmetry_cell_setting	triclinic
loop_
_symmetry_equiv_pos_as_xyz
  x,y,z
_cell_length_a	15.944551
_cell_length_b	15.944551
_cell_length_c	15.021413
_cell_angle_alpha	90.003065
_cell_angle_beta	89.997174
_cell_angle_gamma	83.498738
loop_
_atom_site_label
_atom_site_type_symbol
_atom_site_fract_x
_atom_site_fract_y
_atom_site_fract_z
O1	O	1.114529	0.108321	-0.073941
O2	O	0.869979	0.121677	-0.073964
O3	O	0.998932	-0.007276	-0.073944
O4	O	0.985576	0.237274	-0.073961
O5	O	0.998912	-0.007257	0.074121
O6	O	0.869959	0.121695	0.074101
O7	O	1.114508	0.108339	0.074123
Zn8	Zn	0.992230	0.115020	0.097620
Zn9	Zn	0.992257	0.114996	-0.097461
O10	O	0.985555	0.237292	0.074103
C11	C	0.838675	0.121132	0.000066
C12	C	0.745429	0.119470	0.000057
C13	C	0.530572	0.035565	0.000081
C14	C	0.469562	0.074518	-0.072926
C15	C	0.574703	0.116462	0.000068
C16	C	0.469564	0.074556	0.073054
C17	C	0.409790	0.113551	0.000083
C18	C	0.514921	0.155438	-0.072998
C19	C	0.514930	0.155464	0.073047
C20	C	0.453937	0.194476	0.000023
C21	C	0.669705	0.118137	0.000059
C22	C	0.314789	0.111883	0.000085
C23	C	0.998367	-0.038561	0.000089
C24	C	0.996705	-0.131807	0.000089
C25	C	0.912801	-0.346663	0.000069
C26	C	0.951753	-0.407672	0.073077
C27	C	0.993698	-0.302533	0.000082
C28	C	0.951792	-0.407673	-0.072903
C29	C	0.990787	-0.467445	0.000071
C30	C	1.032672	-0.362313	0.073150
C31	C	1.032700	-0.362308	-0.072895
C32	C	1.071711	-0.423298	0.000131
C33	C	0.995372	-0.207530	0.000089
C34	C	0.989119	-0.562446	0.000070
C35	C	1.145813	0.108885	0.000092
C36	C	1.239059	0.110547	0.000094
C37	C	0.986120	0.268577	0.000069
C38	C	0.987782	0.361823	0.000063
N39	N	0.992218	0.115036	0.230758
N40	N	0.992276	0.114973	-0.230598
C41	C	0.932581	0.174636	0.470432
C42	C	1.008481	0.190943	0.529772
C43	C	0.992239	0.115015	0.412365
C44	C	0.916360	0.098727	0.529766
C45	C	0.992253	0.114997	0.587789
C46	C	1.068178	0.131360	0.470398
C47	C	0.976006	0.039111	0.470387
C48	C	1.051962	0.055386	0.529701
C49	C	0.992230	0.115028	0.311307
C50	C	0.992271	0.114984	0.688844
H51	H	0.845652	-0.313356	0.000136
H52	H	1.132368	0.145206	0.444430
O53	O	0.911088	-0.431762	-0.146564
C54	C	0.966758	-0.487644	-0.197496
H55	H	1.019229	-0.518609	-0.152873
H56	H	0.930648	-0.538360	-0.227916
H57	H	0.995411	-0.451153	-0.252884
H58	H	1.102474	0.004956	0.555561
O59	O	0.445672	0.033773	-0.146647
C60	C	0.469896	0.075731	-0.223496
H61	H	0.524246	0.113608	-0.206478
H62	H	0.491005	0.027330	-0.277154
H63	H	0.414029	0.120183	-0.248999
H64	H	1.066851	-0.342314	0.134941
H65	H	0.962240	-0.025051	0.444283
H66	H	0.535052	0.189659	0.134767
O67	O	0.839730	0.082394	0.560769
C68	C	0.777025	0.145431	0.530587
H69	H	0.800214	0.176207	0.468103
H70	H	0.716987	0.115807	0.514593
H71	H	0.763167	0.195251	0.584658
O72	O	0.414276	0.274611	-0.000145
C73	C	0.362908	0.286919	-0.076482
H74	H	0.346550	0.223295	-0.101615
H75	H	0.302388	0.328746	-0.058938
H76	H	0.398248	0.318669	-0.130619
O77	O	0.570282	-0.044551	-0.000157
C78	C	0.547295	-0.086906	-0.077263
H79	H	0.525302	-0.038693	-0.130794
H80	H	0.604087	-0.130107	-0.102742
H81	H	0.493910	-0.126167	-0.060603
H82	H	0.534918	0.189621	-0.134787
H83	H	0.917528	-0.427772	0.134794
O84	O	0.445703	0.033619	0.146660
C85	C	0.485096	-0.050134	0.146372
H86	H	0.544502	-0.054166	0.103637
H87	H	0.502793	-0.070263	0.217371
H88	H	0.439848	-0.093699	0.117877
O89	O	1.151900	-0.462827	0.000341
C90	C	1.194220	-0.439686	0.077405
H91	H	1.145990	-0.417774	0.130955
H92	H	1.237558	-0.496373	0.102889
H93	H	1.233333	-0.386201	0.060687
O94	O	1.073383	-0.338177	-0.146547
C95	C	1.018142	-0.281086	-0.196583
H96	H	0.966330	-0.249822	-0.151336
H97	H	1.054874	-0.230711	-0.226718
H98	H	0.988553	-0.316557	-0.252154
O99	O	0.872545	0.234940	0.439417
C100	C	0.889983	0.314854	0.469696
H101	H	0.959967	0.312487	0.486336
H102	H	0.873137	0.363850	0.415425
H103	H	0.850946	0.332844	0.531808
H104	H	1.022224	0.255126	0.555856
