data_functionalizedCrystal
_audit_creation_method	'MofGen! by Chris Wilmer'
_symmetry_space_group_name_H-M	'P1'
_symmetry_Int_Tables_number	1
_symmetry_cell_setting	triclinic
loop_
_symmetry_equiv_pos_as_xyz
  x,y,z
_cell_length_a	18.215405
_cell_length_b	12.759401
_cell_length_c	12.759393
_cell_angle_alpha	90.017176
_cell_angle_beta	89.963343
_cell_angle_gamma	89.974954
loop_
_atom_site_label
_atom_site_type_symbol
_atom_site_fract_x
_atom_site_fract_y
_atom_site_fract_z
Zn1	Zn	-0.292944	-1.606167	-0.593937
Zn2	Zn	0.207056	-1.106167	-0.093937
Zn3	Zn	-0.416029	-1.606034	-0.418239
Zn4	Zn	0.083971	-1.106034	0.081761
Zn5	Zn	-0.292981	-1.430473	-0.418277
Zn6	Zn	0.207019	-0.930473	0.081723
Zn7	Zn	-0.415974	-1.430427	-0.593881
Zn8	Zn	0.084026	-0.930427	-0.093881
O9	O	-0.354482	-1.518275	-0.506084
O10	O	0.145518	-1.018275	-0.006084
O11	O	-0.309279	-1.753171	-0.570639
O12	O	0.190721	-1.253171	-0.070639
O13	O	-0.399744	-1.582710	-0.271223
O14	O	0.100256	-1.082710	0.228777
O15	O	-0.189992	-1.453855	-0.441618
O16	O	0.310008	-0.953855	0.058382
O17	O	-0.399709	-1.753073	-0.441554
O18	O	0.100291	-1.253073	0.058446
O19	O	-0.189965	-1.582936	-0.570675
O20	O	0.310035	-1.082936	-0.070675
O21	O	-0.309342	-1.453726	-0.271251
O22	O	0.190658	-0.953726	0.228749
O23	O	-0.309289	-1.283446	-0.441563
O24	O	0.190711	-0.783446	0.058437
O25	O	-0.399616	-1.453775	-0.740909
O26	O	0.100384	-0.953775	-0.240909
O27	O	-0.399651	-1.283412	-0.570578
O28	O	0.100349	-0.783412	-0.070578
O29	O	-0.309226	-1.582891	-0.740951
O30	O	0.190774	-1.082891	-0.240951
O31	O	-0.519006	-1.582665	-0.441499
O32	O	-0.019006	-1.082665	0.058501
O33	O	-0.518966	-1.453646	-0.570542
O34	O	-0.018966	-0.953646	-0.070542
C35	C	-0.354468	-1.245308	-0.506069
C36	C	0.145532	-0.745308	-0.006069
C37	C	-0.354480	-1.128531	-0.506088
C38	C	0.145520	-0.628531	-0.006088
C39	C	-0.545688	-1.518165	-0.506033
C40	C	-0.045688	-1.018165	-0.006033
C41	C	-0.627487	-1.518213	-0.506047
C42	C	-0.127487	-1.018213	-0.006047
C43	C	-0.354411	-1.518343	-0.780117
C44	C	0.145589	-1.018343	-0.280117
C45	C	-0.354380	-1.518371	-0.896894
C46	C	0.145620	-1.018371	-0.396894
C47	C	-0.815678	-1.585551	-0.438977
C48	C	-0.315678	-1.085551	0.061023
C49	C	-0.892536	-1.585598	-0.439003
C50	C	-0.392536	-1.085598	0.060997
C51	C	-0.892534	-1.451135	-0.573265
C52	C	-0.392534	-0.951135	-0.073265
C53	C	-0.815677	-1.451094	-0.573244
C54	C	-0.315677	-0.951094	-0.073244
C55	C	-0.777251	-1.518300	-0.506094
C56	C	-0.277251	-1.018300	-0.006094
C57	C	-0.930967	-1.518388	-0.506141
C58	C	-0.430967	-1.018388	-0.006141
C59	C	-1.014300	-1.518439	-0.506169
C60	C	-0.514300	-1.018439	-0.006169
C61	C	-0.693912	-1.518251	-0.506067
C62	C	-0.193912	-1.018251	-0.006067
C63	C	-0.162529	-1.518415	-0.506157
C64	C	0.337471	-1.018415	-0.006157
C65	C	-0.080730	-1.518475	-0.506189
C66	C	0.419270	-1.018475	-0.006189
C67	C	-0.354496	-1.792309	-0.506098
C68	C	0.145504	-1.292309	-0.006098
C69	C	-0.354502	-1.909085	-0.506105
C70	C	0.145498	-1.409085	-0.006105
C71	C	-0.401607	-1.073679	-0.573155
C72	C	0.098393	-0.573679	-0.073155
C73	C	-0.401617	-0.963955	-0.573167
C74	C	0.098383	-0.463955	-0.073167
C75	C	-0.307370	-0.963945	-0.439035
C76	C	0.192630	-0.463945	0.060965
C77	C	-0.307357	-1.073667	-0.439029
C78	C	0.192643	-0.573667	0.060971
C79	C	-0.456023	-1.073684	-0.650592
C80	C	0.043977	-0.573684	-0.150592
C81	C	-0.456032	-0.963960	-0.650604
C82	C	0.043968	-0.463960	-0.150604
C83	C	-0.401424	-1.451163	-0.951736
C84	C	0.098576	-0.951163	-0.451736
C85	C	-0.401397	-1.451202	-1.061460
C86	C	0.098603	-0.951202	-0.561460
C87	C	-0.307277	-1.585659	-1.061490
C88	C	0.192723	-1.085659	-0.561490
C89	C	-0.307308	-1.585625	-0.951768
C90	C	0.192692	-1.085625	-0.451768
C91	C	-0.455761	-1.373532	-0.951719
C92	C	0.044239	-0.873532	-0.451719
C93	C	-0.455735	-1.373570	-1.061443
C94	C	0.044265	-0.873570	-0.561443
C95	C	-0.354500	-1.518269	-0.233116
C96	C	0.145500	-1.018269	0.266884
C97	C	-0.354323	-1.518444	-0.116340
C98	C	0.145677	-1.018444	0.383660
H99	H	-0.923820	-1.640361	-0.384351
H100	H	-0.423820	-1.140361	0.115649
N101	N	-0.435890	-1.113177	-0.758423
N102	N	0.064110	-0.613177	-0.258423
H103	H	-0.389899	-1.157182	-0.753881
H104	H	0.110101	-0.657182	-0.253881
H105	H	-0.477414	-1.157102	-0.787025
H106	H	0.022586	-0.657102	-0.287025
H107	H	-0.784388	-1.396330	-0.627904
H108	H	-0.284388	-0.896330	-0.127904
N109	N	-0.933986	-1.378643	-0.645674
N110	N	-0.433986	-0.878643	-0.145674
H111	H	-0.920660	-1.303581	-0.629282
H112	H	-0.420660	-0.803581	-0.129282
H113	H	-0.920545	-1.394994	-0.720725
H114	H	-0.420545	-0.894994	-0.220725
H115	H	-0.268977	-1.118324	-0.384424
H116	H	0.231023	-0.618324	0.115576
H117	H	-0.784393	-1.640276	-0.384302
H118	H	-0.284393	-1.140276	0.115698
N119	N	-0.435473	-1.265852	-1.100971
N120	N	0.064527	-0.765852	-0.600971
H121	H	-0.472408	-1.212967	-1.074630
H122	H	0.027592	-0.712967	-0.574630
H123	H	-0.384964	-1.246627	-1.074646
H124	H	0.115036	-0.746627	-0.574646
H125	H	-0.510135	-1.107685	-0.621300
H126	H	-0.010135	-0.607685	-0.121300
H127	H	-0.268953	-1.640416	-1.106183
H128	H	0.231047	-1.140416	-0.606183
H129	H	-0.269003	-0.919262	-0.384439
H130	H	0.230997	-0.419262	0.115561
H131	H	-0.509873	-1.402683	-1.095454
H132	H	-0.009873	-0.902683	-0.595454
H133	H	-0.435688	-0.929965	-0.727959
H134	H	0.064312	-0.429965	-0.227959
H135	H	-0.513015	-0.934150	-0.628663
H136	H	-0.013015	-0.434150	-0.128663
N137	N	-0.256579	-1.658128	-0.892615
N138	N	0.243421	-1.158128	-0.392615
H139	H	-0.226756	-1.700736	-0.944029
H140	H	0.273244	-1.200736	-0.444029
H141	H	-0.222528	-1.615383	-0.847100
H142	H	0.277472	-1.115383	-0.347100
N143	N	-0.531274	-1.402302	-0.912238
N144	N	-0.031274	-0.902302	-0.412238
H145	H	-0.564949	-1.415175	-0.973762
H146	H	-0.064949	-0.915175	-0.473762
H147	H	-0.527972	-1.467911	-0.868228
H148	H	-0.027972	-0.967911	-0.368228
H149	H	-0.435350	-1.296244	-0.917694
H150	H	0.064650	-0.796244	-0.417694
