data_functionalizedCrystal
_audit_creation_method	'MofGen! by Chris Wilmer'
_symmetry_space_group_name_H-M	'P1'
_symmetry_Int_Tables_number	1
_symmetry_cell_setting	triclinic
loop_
_symmetry_equiv_pos_as_xyz
  x,y,z
_cell_length_a	23.204084
_cell_length_b	23.204045
_cell_length_c	23.204116
_cell_angle_alpha	90.001464
_cell_angle_beta	59.997552
_cell_angle_gamma	120.000096
loop_
_atom_site_label
_atom_site_type_symbol
_atom_site_fract_x
_atom_site_fract_y
_atom_site_fract_z
O1	O	-0.412491	0.491192	0.017145
O2	O	-0.294478	0.407389	-0.017063
O3	O	-0.412489	0.407384	0.100949
O4	O	-0.294479	0.491196	-0.100867
O5	O	-0.508340	0.311533	0.100949
O6	O	-0.390328	0.311537	-0.017063
O7	O	-0.508342	0.395340	0.017145
Cu8	Cu	-0.458087	0.344687	0.000041
Cu9	Cu	-0.344732	0.458042	0.000041
O10	O	-0.390330	0.395345	-0.100867
C11	C	-0.590052	0.658534	0.035873
C12	C	-0.549597	0.734552	0.030981
C13	C	-0.659898	0.623531	0.036363
C14	C	-0.590049	0.554176	0.035868
C15	C	-0.549590	0.518615	0.030970
C16	C	-0.659895	0.519332	0.036357
C17	C	-0.694412	0.554174	0.035873
C18	C	-0.765537	0.518611	0.030981
C19	C	-0.555694	0.623533	0.036357
C20	C	-0.822999	0.489881	0.027027
C21	C	-0.516912	0.795968	0.027027
C22	C	-0.516902	0.489886	0.027011
C23	C	-0.895088	0.453836	0.022067
C24	C	-0.475908	0.873017	0.022068
C25	C	-0.475895	0.453843	0.022046
C26	C	-0.212781	0.554184	-0.445767
C27	C	-0.253238	0.518621	-0.481328
C28	C	-0.142935	0.623542	-0.480611
C29	C	-0.212780	0.554185	-0.341408
C30	C	-0.253236	0.518622	-0.265388
C31	C	-0.142934	0.623543	-0.376411
C32	C	-0.108420	0.658545	-0.445769
C33	C	-0.037295	0.734565	-0.481333
C34	C	-0.247136	0.519341	-0.376409
C35	C	0.020166	0.795981	-0.510064
C36	C	-0.285925	0.489889	-0.510057
C37	C	-0.285922	0.489892	-0.203972
C38	C	0.092254	0.873031	-0.546109
C39	C	-0.326931	0.453844	-0.546099
C40	C	-0.326927	0.453848	-0.126922
O41	O	-1.083841	0.311535	-0.017050
O42	O	-0.916241	0.395334	0.017165
O43	O	-0.916221	0.395346	-0.100850
O44	O	-1.083861	0.311523	0.100965
O45	O	-0.916225	0.491195	-0.100844
O46	O	-0.916245	0.491183	0.017171
O47	O	-1.083845	0.407384	-0.017045
Cu48	Cu	-1.000045	0.458035	0.000064
Cu49	Cu	-1.000041	0.344683	0.000057
O50	O	-1.083865	0.407372	0.100970
C51	C	-0.181459	0.310650	-0.024833
C52	C	-0.110336	0.346212	-0.019937
C53	C	-0.215975	0.241292	-0.025318
C54	C	-0.285814	0.310652	-0.024840
C55	C	-0.326268	0.346215	-0.019950
C56	C	-0.320171	0.241293	-0.025325
C57	C	-0.285818	0.206290	-0.024833
C58	C	-0.326277	0.130270	-0.019936
C59	C	-0.215970	0.345495	-0.025325
O60	O	-0.390336	1.100889	-0.017051
O61	O	-0.508353	0.899072	0.017163
O62	O	-0.390334	1.017071	-0.100851
O63	O	-0.508355	0.982890	0.100963
O64	O	-0.294489	1.017069	-0.100841
O65	O	-0.412509	0.899070	0.017174
O66	O	-0.294491	1.100886	-0.017041
Cu67	Cu	-0.344748	0.999978	0.000068
Cu68	Cu	-0.458096	0.999981	0.000055
O69	O	-0.412510	0.982888	0.100974
O70	O	0.281026	1.100901	-0.592575
O71	O	0.113410	0.899087	-0.508762
O72	O	0.113406	1.017090	-0.508759
O73	O	0.281030	0.982898	-0.592578
O74	O	0.113403	1.017088	-0.604608
O75	O	0.113407	0.899085	-0.604612
O76	O	0.281023	1.100899	-0.688424
Cu77	Cu	0.197215	0.999992	-0.655270
Cu78	Cu	0.197218	0.999994	-0.541917
O79	O	0.281028	0.982896	-0.688428
O80	O	-0.412489	0.407384	-0.688408
O81	O	-0.294483	0.491193	-0.604602
O82	O	-0.412492	0.491190	-0.604596
O83	O	-0.294479	0.407387	-0.688414
O84	O	-0.508344	0.395338	-0.508744
O85	O	-0.390335	0.395341	-0.508750
O86	O	-0.508341	0.311532	-0.592556
Cu87	Cu	-0.458090	0.344684	-0.541901
Cu88	Cu	-0.344734	0.458041	-0.655257
O89	O	-0.390331	0.311535	-0.592562
C90	C	-0.621367	0.206288	0.310712
C91	C	-0.692493	0.130268	0.346275
C92	C	-0.586853	0.241290	0.345555
C93	C	-0.517007	0.310648	0.206351
C94	C	-0.476550	0.346211	0.130332
C95	C	-0.482652	0.345492	0.241353
C96	C	-0.517008	0.310648	0.310710
C97	C	-0.476551	0.346211	0.346272
C98	C	-0.586853	0.241290	0.241354
C99	C	-1.285881	0.310615	0.310724
C100	C	-1.326344	0.346174	0.346287
C101	C	-1.320243	0.241254	0.345562
C102	C	-1.181502	0.310626	0.206366
C103	C	-1.110362	0.346197	0.130349
C104	C	-1.216022	0.241265	0.241362
C105	C	-1.285880	0.206256	0.310717
C106	C	-1.326342	0.130234	0.346273
C107	C	-1.216023	0.345465	0.241370
C108	C	-0.517040	0.975123	0.310734
C109	C	-0.476589	0.980019	0.346301
C110	C	-0.586884	0.974639	0.345572
C111	C	-0.517031	0.975115	0.206370
C112	C	-0.476570	0.980003	0.130351
C113	C	-0.586875	0.974632	0.241367
C114	C	-0.621393	0.975125	0.310724
C115	C	-0.692516	0.980024	0.346280
C116	C	-0.482680	0.974629	0.241377
C117	C	-0.589973	0.658581	-0.445731
C118	C	-0.549515	0.734602	-0.481288
C119	C	-0.555607	0.623585	-0.480575
C120	C	-0.694348	0.554212	-0.341379
C121	C	-0.765487	0.518641	-0.265362
C122	C	-0.659823	0.519375	-0.376382
C123	C	-0.589965	0.554226	-0.445736
C124	C	-0.549499	0.518669	-0.481298
C125	C	-0.659831	0.623572	-0.376377
C126	C	-0.516805	0.489944	-0.510029
C127	C	-0.516828	0.796019	-0.510014
C128	C	-0.822960	0.489904	-0.203948
C129	C	-0.475789	0.453906	-0.546073
C130	C	-0.475821	0.873070	-0.546053
C131	C	-0.895063	0.453851	-0.126902
O132	O	-1.412572	-0.100966	0.395370
O133	O	-1.294545	0.100856	0.311592
O134	O	-1.412533	-0.017129	0.311555
O135	O	-1.294583	0.017019	0.395407
O136	O	-1.508403	-0.017140	0.407405
O137	O	-1.390414	0.100845	0.407442
O138	O	-1.508441	-0.100977	0.491220
Cu139	Cu	-1.458181	-0.000067	0.458083
Cu140	Cu	-1.344805	-0.000054	0.344729
O141	O	-1.390452	0.017008	0.491257
C142	C	-0.108413	1.035750	-0.445739
C143	C	-0.037289	1.030852	-0.481296
C144	C	-0.142922	1.036236	-0.480587
C145	C	-0.212774	1.035760	-0.341385
C146	C	-0.253235	1.030873	-0.265366
C147	C	-0.247125	1.036246	-0.376391
C148	C	-0.212766	1.035752	-0.445748
C149	C	-0.253218	1.030856	-0.481314
C150	C	-0.142930	1.036244	-0.376382
C151	C	-0.285900	1.026899	-0.510048
C152	C	0.020170	1.026893	-0.510022
C153	C	-0.285924	1.026922	-0.203950
C154	C	-0.326901	1.021936	-0.546096
C155	C	0.092257	1.021927	-0.546061
C156	C	-0.326933	1.021968	-0.126901
H157	H	-0.688783	0.651635	0.037149
H158	H	-0.499398	0.651694	-0.537562
Br159	Br	-0.462014	0.670370	0.037655
Br160	Br	-0.634999	0.194458	0.194518
Br161	Br	-0.340763	1.037609	-0.329580
Br162	Br	-0.094771	1.037542	-0.575569
Br163	Br	-0.707981	0.424385	-0.329560
H164	H	-1.187132	0.213168	0.213255
Br165	Br	-1.167879	0.440446	0.194533
Br166	Br	-0.635011	0.973328	0.194524
H167	H	-0.688711	0.651677	-0.348272
Br168	Br	-1.413888	0.194427	0.440560
Br169	Br	-0.340818	0.424363	-0.329564
Br170	Br	-0.094801	0.670388	-0.575586
H171	H	-0.376374	0.213194	-0.026110
Br172	Br	-0.094803	1.037542	-0.329533
H173	H	-0.187084	0.213194	-0.026105
Br174	Br	-0.708037	0.424354	0.037657
Br175	Br	-0.094782	0.670381	-0.329581
Br176	Br	-0.635041	0.973333	0.440554
Br177	Br	-0.167830	0.440475	-0.026631
H178	H	-0.426477	0.973843	0.213282
H179	H	-0.426441	0.402476	0.213244
Br180	Br	-0.635006	0.194461	0.440541
