data_functionalizedCrystal
_audit_creation_method	'MofGen! by Chris Wilmer'
_symmetry_space_group_name_H-M	'P1'
_symmetry_Int_Tables_number	1
_symmetry_cell_setting	triclinic
loop_
_symmetry_equiv_pos_as_xyz
  x,y,z
_cell_length_a	16.992694
_cell_length_b	14.421503
_cell_length_c	16.992695
_cell_angle_alpha	89.995710
_cell_angle_beta	90.668223
_cell_angle_gamma	90.002529
loop_
_atom_site_label
_atom_site_type_symbol
_atom_site_fract_x
_atom_site_fract_y
_atom_site_fract_z
O1	O	1.050855	0.076996	0.166906
O2	O	1.384188	0.410330	0.500239
O3	O	1.717521	0.743663	0.833573
O4	O	0.822455	0.077024	0.165075
O5	O	1.155788	0.410357	0.498408
O6	O	1.489121	0.743690	0.831741
O7	O	0.935739	0.077003	0.051790
O8	O	1.269072	0.410336	0.385124
O9	O	1.602406	0.743669	0.718457
O10	O	0.937570	0.077017	0.280190
O11	O	1.270904	0.410351	0.613524
O12	O	1.604237	0.743684	0.946857
O13	O	0.935720	-0.077221	0.051807
O14	O	1.269053	0.256113	0.385140
O15	O	1.602387	0.589446	0.718474
O16	O	0.822436	-0.077200	0.165092
O17	O	1.155769	0.256134	0.498425
O18	O	1.489102	0.589467	0.831758
O19	O	1.050836	-0.077227	0.166923
O20	O	1.384169	0.256106	0.500256
O21	O	1.717502	0.589440	0.833589
Cu22	Cu	0.936634	-0.091295	0.166009
Cu23	Cu	1.269967	0.242038	0.499342
Cu24	Cu	1.603301	0.575371	0.832675
Cu25	Cu	0.936656	0.091092	0.165989
Cu26	Cu	1.269990	0.424425	0.499322
Cu27	Cu	1.603323	0.757758	0.832656
O28	O	0.937551	-0.077206	0.280207
O29	O	1.270885	0.256127	0.613541
O30	O	1.604218	0.589460	0.946874
C31	C	0.793085	-0.000085	0.162727
C32	C	1.126418	0.333249	0.496061
C33	C	1.459752	0.666582	0.829394
C34	C	0.705600	-0.000074	0.155699
C35	C	1.038934	0.333259	0.489032
C36	C	1.372267	0.666592	0.822365
N37	N	0.936624	-0.219577	0.166022
N38	N	1.269957	0.113757	0.499356
N39	N	1.603291	0.447090	0.832689
C40	C	0.659610	-0.000071	0.223517
C41	C	0.992943	0.333262	0.556850
C42	C	1.326276	0.666596	0.890183
C43	C	0.577409	-0.000084	0.216908
C44	C	0.910742	0.333249	0.550241
C45	C	1.244075	0.666583	0.883574
C46	C	0.541201	-0.000094	0.142480
C47	C	0.874534	0.333239	0.475813
C48	C	1.207867	0.666572	0.809147
C49	C	0.587198	-0.000101	0.074657
C50	C	0.920531	0.333233	0.407990
C51	C	1.253864	0.666566	0.741324
C52	C	0.669397	-0.000094	0.081267
C53	C	1.002730	0.333239	0.414600
C54	C	1.336063	0.666573	0.747933
C55	C	0.295886	-0.000121	0.115086
C56	C	0.629220	0.333213	0.448419
C57	C	0.962553	0.666546	0.781752
C58	C	0.213681	-0.000125	0.108481
C59	C	0.547014	0.333209	0.441814
C60	C	0.880348	0.666542	0.775148
C61	C	0.203898	-0.000110	0.250732
C62	C	0.537231	0.333224	0.584066
C63	C	0.870565	0.666557	0.917399
C64	C	0.286099	-0.000098	0.257336
C65	C	0.619432	0.333236	0.590669
C66	C	0.952766	0.666569	0.924002
C67	C	0.332089	-0.000109	0.189512
C68	C	0.665422	0.333224	0.522846
C69	C	0.998756	0.666558	0.856179
N70	N	0.457178	-0.000105	0.135723
N71	N	0.790512	0.333229	0.469056
N72	N	1.123845	0.666562	0.802390
N73	N	0.416110	-0.000105	0.196270
N74	N	0.749443	0.333228	0.529604
N75	N	1.082776	0.666562	0.862937
C76	C	0.884230	-0.469221	0.218379
C77	C	1.217563	-0.135887	0.551713
C78	C	1.550897	0.197446	0.885046
C79	C	0.956318	-0.531031	0.238115
C80	C	1.289651	-0.197697	0.571449
C81	C	1.622984	0.135636	0.904782
C82	C	0.936642	-0.408738	0.166005
C83	C	1.269975	-0.075405	0.499338
C84	C	1.603309	0.257929	0.832672
C85	C	0.864574	-0.531022	0.146289
C86	C	1.197907	-0.197688	0.479622
C87	C	1.531240	0.135645	0.812955
C88	C	0.936653	-0.591459	0.165989
C89	C	1.269986	-0.258126	0.499323
C90	C	1.603320	0.075207	0.832656
C91	C	1.008768	-0.469187	0.185778
C92	C	1.342101	-0.135854	0.519112
C93	C	1.675435	0.197479	0.852445
C94	C	0.916975	-0.469173	0.093918
C95	C	1.250309	-0.135840	0.427251
C96	C	1.583642	0.197494	0.760584
C97	C	0.989113	-0.530955	0.113627
C98	C	1.322446	-0.197622	0.446960
C99	C	1.655779	0.135712	0.780293
C100	C	0.936635	-0.303477	0.166016
C101	C	1.269968	0.029856	0.499349
C102	C	1.603301	0.363190	0.832683
C103	C	0.936669	-0.696718	0.165978
C104	C	1.270002	-0.363385	0.499312
C105	C	1.603335	-0.030052	0.832645
C106	C	1.080205	-0.000117	0.169270
C107	C	1.413539	0.333217	0.502603
C108	C	1.746872	0.666550	0.835937
C109	C	1.167690	-0.000121	0.176299
C110	C	1.501023	0.333212	0.509632
C111	C	1.834357	0.666546	0.842966
C112	C	0.933374	-0.000109	0.022439
C113	C	1.266707	0.333225	0.355772
C114	C	1.600041	0.666558	0.689105
C115	C	0.926345	-0.000108	-0.065046
C116	C	1.259678	0.333226	0.268287
C117	C	1.593012	0.666559	0.601621
N118	N	0.936672	0.219373	0.165969
N119	N	1.270006	0.552706	0.499303
N120	N	1.603339	0.886040	0.832636
C121	C	0.994163	-0.000117	-0.111037
C122	C	1.327496	0.333217	0.222296
C123	C	1.660830	0.666550	0.555630
C124	C	0.987554	-0.000107	-0.193238
C125	C	1.320887	0.333226	0.140096
C126	C	1.654221	0.666560	0.473429
C127	C	0.913127	-0.000095	-0.229446
C128	C	1.246460	0.333238	0.103887
C129	C	1.579793	0.666572	0.437221
C130	C	0.845303	-0.000083	-0.183449
C131	C	1.178637	0.333250	0.149884
C132	C	1.511970	0.666584	0.483218
C133	C	0.851913	-0.000086	-0.101250
C134	C	1.185246	0.333247	0.232084
C135	C	1.518580	0.666581	0.565417
C136	C	0.885732	-0.000079	-0.474760
C137	C	1.219065	0.333254	-0.141427
C138	C	1.552399	0.666588	0.191906
C139	C	0.879127	-0.000079	-0.556966
C140	C	1.212461	0.333255	-0.223632
C141	C	1.545794	0.666588	0.109701
C142	C	1.021379	-0.000101	-0.566749
C143	C	1.354712	0.333232	-0.233415
C144	C	1.688045	0.666566	0.099918
C145	C	1.027982	-0.000109	-0.484547
C146	C	1.361315	0.333224	-0.151214
C147	C	1.694649	0.666557	0.182119
C148	C	0.960159	-0.000093	-0.438558
C149	C	1.293492	0.333241	-0.105224
C150	C	1.626826	0.666574	0.228109
N151	N	0.906369	-0.000088	-0.313468
N152	N	1.239703	0.333245	0.019865
N153	N	1.573036	0.666579	0.353199
N154	N	0.966917	-0.000093	-0.354537
N155	N	1.300250	0.333240	-0.021204
N156	N	1.633583	0.666574	0.312130
C157	C	0.939917	-0.000093	0.309559
C158	C	1.273250	0.333240	0.642892
C159	C	1.606583	0.666574	0.976226
C160	C	0.946945	-0.000088	0.397044
C161	C	1.280279	0.333245	0.730377
C162	C	1.613612	0.666579	1.063710
H163	H	0.689084	-0.000062	0.284124
H164	H	1.022417	0.333271	0.617457
H165	H	1.355751	0.666605	0.950790
H166	H	0.557710	-0.000122	0.014056
H167	H	0.891044	0.333211	0.347390
H168	H	1.224377	0.666545	0.680723
F169	F	0.154947	-0.000100	0.322909
F170	F	0.488280	0.333233	0.656242
F171	F	0.821613	0.666567	0.989576
H172	H	1.042779	-0.000116	-0.230680
H173	H	1.376112	0.333217	0.102653
H174	H	1.709446	0.666550	0.435986
F175	F	1.047118	-0.566168	0.055727
F176	F	1.380451	-0.232834	0.389060
F177	F	1.713784	0.100499	0.722394
H178	H	0.839957	-0.442115	0.262712
H179	H	1.173291	-0.108781	0.596045
H180	H	1.506624	0.224552	0.929379
H181	H	0.184203	-0.000132	0.047870
H182	H	0.517536	0.333201	0.381203
H183	H	0.850870	0.666535	0.714537
H184	H	0.972962	-0.558201	0.299071
H185	H	1.306296	-0.224868	0.632405
H186	H	1.639629	0.108466	0.965738
F187	F	0.895192	-0.433629	0.014266
F188	F	1.228526	-0.100295	0.347600
F189	F	1.561859	0.233038	0.680933
H190	H	1.088589	-0.000119	-0.455073
H191	H	1.421922	0.333214	-0.121739
H192	H	1.755255	0.666547	0.211594
H193	H	1.076596	-0.000113	-0.604202
H194	H	1.409930	0.333221	-0.270869
H195	H	1.743263	0.666554	0.062465
H196	H	0.803622	-0.558186	0.129620
H197	H	1.136956	-0.224852	0.462954
H198	H	1.470289	0.108481	0.796287
F199	F	0.718344	-0.000101	0.009085
F200	F	1.051677	0.333232	0.342419
F201	F	1.385010	0.666566	0.675752
H202	H	0.315574	-0.000079	0.317942
H203	H	0.648907	0.333255	0.651276
H204	H	0.982240	0.666588	0.984609
F205	F	0.528465	-0.000076	0.289090
F206	F	0.861799	0.333257	0.622423
F207	F	1.195132	0.666590	0.955756
F208	F	0.766091	-0.000060	-0.221987
F209	F	1.099425	0.333273	0.111347
F210	F	1.432758	0.666607	0.444680
F211	F	0.813548	-0.000059	-0.425825
F212	F	1.146881	0.333275	-0.092491
F213	F	1.480214	0.666608	0.240842
H214	H	0.333322	-0.000131	0.059859
H215	H	0.666655	0.333203	0.393192
H216	H	0.999988	0.666536	0.726526
H217	H	1.069737	-0.442140	0.202520
H218	H	1.403070	-0.108807	0.535853
H219	H	1.736404	0.224527	0.869187
H220	H	1.054770	-0.000132	-0.081563
H221	H	1.388103	0.333201	0.251771
H222	H	1.721437	0.666535	0.585104
F223	F	0.799908	-0.000071	-0.595499
F224	F	1.133241	0.333263	-0.262166
F225	F	1.466574	0.666596	0.071168
F226	F	0.779732	-0.000074	-0.052303
F227	F	1.113065	0.333260	0.281030
F228	F	1.446398	0.666593	0.614364
