data_functionalizedCrystal
_audit_creation_method	'MofGen! by Chris Wilmer'
_symmetry_space_group_name_H-M	'P1'
_symmetry_Int_Tables_number	1
_symmetry_cell_setting	triclinic
loop_
_symmetry_equiv_pos_as_xyz
  x,y,z
_cell_length_a	12.837942
_cell_length_b	9.065218
_cell_length_c	8.140239
_cell_angle_alpha	89.997198
_cell_angle_beta	90.003061
_cell_angle_gamma	90.077587
loop_
_atom_site_label
_atom_site_type_symbol
_atom_site_fract_x
_atom_site_fract_y
_atom_site_fract_z
O1	O	0.152196	-1.978903	0.136617
O2	O	0.164680	-1.551136	0.136619
O3	O	0.007446	-1.755534	0.136608
O4	O	0.309430	-1.774505	0.136628
O5	O	0.007444	-1.755521	-0.136619
O6	O	0.164678	-1.551123	-0.136608
O7	O	0.152194	-1.978890	-0.136610
Zn8	Zn	0.158436	-1.765005	-0.179990
Zn9	Zn	0.158439	-1.765021	0.179999
O10	O	0.309428	-1.774492	-0.136599
C11	C	0.163479	-1.495997	0.000006
C12	C	0.159892	-1.331718	0.000007
C13	C	-0.031235	-1.749119	-0.000004
C14	C	-0.146492	-1.730006	-0.000002
N15	N	0.158434	-1.765004	-0.425672
C16	C	-0.385293	-1.959783	0.000031
C17	C	-0.493587	-1.941831	0.000034
C18	C	-0.471377	-1.676152	0.000019
C19	C	-0.363083	-1.694104	0.000016
C20	C	-0.320045	-1.835924	0.000020
C21	C	-0.211748	-1.853874	0.000005
C22	C	-0.189540	-1.588196	0.000001
C23	C	-0.297835	-1.570245	0.000004
C24	C	0.348110	-1.780907	0.000017
C25	C	0.463366	-1.800020	0.000025
C26	C	0.153395	-2.034029	0.000007
C27	C	0.156983	-2.198308	0.000017
N28	N	0.158433	-1.765033	0.425681
H29	H	-0.176709	-1.969351	0.000002
H30	H	-0.546709	-2.042690	0.000049
C31	C	-0.137273	-1.367275	-0.140479
C32	C	-0.117813	-1.452041	-0.000016
H33	H	-0.092985	-1.283228	-0.140497
H34	H	-0.207919	-1.336289	-0.140459
H35	H	-0.124094	-1.424819	-0.235744
H36	H	-0.130999	-1.394501	0.095250
H37	H	-0.047150	-1.483026	-0.000021
C38	C	-0.438559	-1.415338	0.000045
C39	C	-0.518696	-1.520273	0.000045
H40	H	-0.467774	-1.319105	0.000077
H41	H	-0.396797	-1.427844	-0.095242
H42	H	-0.396767	-1.427887	0.095319
H43	H	-0.560484	-1.507730	-0.095237
H44	H	-0.560476	-1.507761	0.095341
C45	C	-0.370861	-2.191761	0.140496
C46	C	-0.337972	-2.115661	0.000037
H47	H	-0.341641	-2.287991	0.140502
H48	H	-0.444686	-2.198802	0.140482
H49	H	-0.348544	-2.140107	0.235763
H50	H	-0.360297	-2.167310	-0.095232
H51	H	-0.264132	-2.108626	0.000035
H52	H	-0.332891	-1.454779	0.000007
