data_functionalizedCrystal
_audit_creation_method	'MofGen! by Chris Wilmer'
_symmetry_space_group_name_H-M	'P1'
_symmetry_Int_Tables_number	1
_symmetry_cell_setting	triclinic
loop_
_symmetry_equiv_pos_as_xyz
  x,y,z
_cell_length_a	17.917559
_cell_length_b	23.196402
_cell_length_c	23.196401
_cell_angle_alpha	60.007332
_cell_angle_beta	90.012927
_cell_angle_gamma	57.014568
loop_
_atom_site_label
_atom_site_type_symbol
_atom_site_fract_x
_atom_site_fract_y
_atom_site_fract_z
Zr1	Zr	0.754983	0.577884	-0.049087
O2	O	0.629843	0.706947	-0.145534
O3	O	0.793334	0.454926	-0.019525
O4	O	0.793312	0.575191	-0.139791
O5	O	0.629897	0.586679	0.069605
O6	O	0.922271	0.566122	-0.135257
O7	O	0.629866	0.586683	-0.025267
O8	O	0.922312	0.350990	0.079878
O9	O	0.629856	0.801811	-0.145530
O10	O	0.905945	0.496472	-0.003529
O11	O	0.809727	0.503237	0.063890
O12	O	0.809701	0.644833	-0.077709
O13	O	0.713482	0.651598	-0.010290
Zr14	Zr	0.960709	0.563415	0.109455
Zr15	Zr	0.960659	0.563421	-0.041856
Zr16	Zr	0.755033	0.577879	0.102223
Zr17	Zr	0.755004	0.729180	-0.049081
Zr18	Zr	0.960688	0.412119	0.109448
O19	O	0.922358	0.686373	0.079892
O20	O	0.922288	0.686382	-0.135252
O21	O	0.629913	0.706939	0.069610
O22	O	1.085849	0.434352	0.205901
O23	O	1.085779	0.434360	-0.009243
O24	O	0.793404	0.454918	0.195620
O25	O	1.085796	0.554620	-0.009238
O26	O	0.922381	0.566109	0.200159
O27	O	0.793421	0.575178	0.195625
O28	O	1.085826	0.554617	0.085635
O29	O	0.793341	0.790314	-0.139782
O30	O	0.922351	0.350986	0.200150
O31	O	1.085836	0.339489	0.205897
O32	O	1.085797	0.339493	0.085626
O33	O	0.629895	0.801806	-0.025258
O34	O	0.793380	0.790309	-0.019510
O35	O	0.905992	0.496466	0.138076
O36	O	1.002210	0.489701	0.070657
O37	O	0.905965	0.638062	-0.003523
O38	O	0.809747	0.644828	0.063896
C39	C	0.857820	0.381402	0.030176
C40	C	0.857811	0.317173	0.030173
C41	C	0.928874	0.229746	0.084932
C42	C	0.928881	0.169385	0.084939
C43	C	0.857832	0.196455	0.030176
C44	C	0.786756	0.283897	-0.024588
C45	C	0.786746	0.344256	-0.024590
C46	C	0.835690	0.142426	-0.034395
C47	C	0.835706	0.082066	-0.034393
C48	C	0.857857	0.010292	0.030180
C49	C	0.880012	-0.001126	0.094756
C50	C	0.880002	0.059233	0.094755
C51	C	0.857834	0.131013	0.030171
C52	C	0.928931	-0.142589	0.084950
C53	C	0.928932	-0.202949	0.084957
C54	C	0.786811	-0.088434	-0.024575
C55	C	0.786807	-0.028077	-0.024577
C56	C	0.857872	-0.055160	0.030186
C57	C	0.600577	0.588742	0.021139
C58	C	0.513262	0.594882	0.018069
C59	C	0.362271	0.535211	0.047903
C60	C	0.353428	0.606084	0.012467
C61	C	0.442369	0.599849	0.015585
C62	C	0.273324	0.541445	0.044785
C63	C	1.115115	0.552558	0.039229
C64	C	1.202430	0.546417	0.042299
C65	C	0.857785	0.570657	-0.159083
C66	C	0.857764	0.570659	-0.223318
C67	C	0.857872	0.759898	0.030192
C68	C	0.857881	0.824127	0.030194
C69	C	0.807530	0.648100	-0.292212
C70	C	0.807554	0.648099	-0.352567
C71	C	0.857799	0.570655	-0.344023
C72	C	0.908044	0.493204	-0.275117
C73	C	0.908027	0.493206	-0.214764
C74	C	0.850655	0.514531	-0.411594
C75	C	0.850666	0.514532	-0.471947
C76	C	0.857860	0.570644	-0.530169
C77	C	0.865023	0.626770	-0.528038
C78	C	0.865006	0.626772	-0.467685
C79	C	0.857825	0.570644	-0.409461
C80	C	0.807650	0.648089	-0.664509
C81	C	0.807681	0.648085	-0.724862
C82	C	0.908165	0.493188	-0.647411
C83	C	0.908141	0.493194	-0.587059
C84	C	0.857878	0.570647	-0.595613
C85	C	0.857908	0.570642	0.219450
C86	C	0.857929	0.570640	0.283686
C87	C	1.115089	0.363310	0.039221
C88	C	1.202395	0.292940	0.042288
C89	C	0.857882	0.381394	0.219442
C90	C	0.857894	0.317163	0.283675
C91	C	1.115151	0.363302	0.228487
C92	C	1.202478	0.292931	0.295790
C93	C	0.600541	0.777997	-0.168120
C94	C	0.513214	0.848369	-0.235422
C95	C	0.600603	0.777990	0.021147
C96	C	0.513297	0.848359	0.018080
C97	C	0.857811	0.759905	-0.159075
C98	C	0.857798	0.824136	-0.223308
C99	C	1.193146	0.263428	0.004998
C100	C	1.275172	0.197318	0.007865
C101	C	1.366445	0.160716	0.048027
C102	C	1.375693	0.190234	0.085319
C103	C	1.293668	0.256348	0.082447
C104	C	0.908148	0.283465	0.352570
C105	C	0.908156	0.223121	0.412929
C106	C	0.857914	0.196472	0.404392
C107	C	0.807653	0.230177	0.335489
C108	C	0.807641	0.290524	0.275132
C109	C	1.293721	0.256351	0.292204
C110	C	1.375782	0.190237	0.355436
C111	C	1.366597	0.160700	0.422254
C112	C	1.275345	0.197286	0.425837
C113	C	1.193286	0.263403	0.362606
C114	C	0.421971	0.884955	-0.231837
C115	C	0.339910	0.951088	-0.295069
C116	C	0.349095	0.980629	-0.361886
C117	C	0.440348	0.944039	-0.365470
C118	C	0.522406	0.877912	-0.302239
C119	C	0.522546	0.877877	0.055363
C120	C	0.440520	0.944004	0.052479
C121	C	0.349247	0.980608	0.012315
C122	C	0.340000	0.951087	-0.024973
C123	C	0.422024	0.884965	-0.022093
C124	C	0.908050	0.850766	-0.214747
C125	C	0.908058	0.911109	-0.275094
C126	C	0.857807	0.944826	-0.344001
C127	C	0.807554	0.918191	-0.352560
C128	C	0.807553	0.857844	-0.292213
H129	H	0.986740	0.207687	0.129525
H130	H	0.949088	0.195686	0.469026
O131	O	0.241494	0.990542	-0.291196
H132	H	0.201697	0.981771	-0.318335
O133	O	0.260585	1.051961	-0.430085
H134	H	0.195598	1.072433	-0.416359
O135	O	0.450249	0.975898	-0.437539
H136	H	0.377854	1.028018	-0.480899
O137	O	0.857810	1.009919	-0.409084
H138	H	0.814430	1.028894	-0.458441
O139	O	1.265456	0.165409	0.497910
H140	H	1.225639	0.218854	0.502671
O141	O	0.753345	0.954569	-0.426883
H142	H	0.761784	1.001013	-0.467401
H143	H	0.766606	0.711168	-0.299183
O144	O	0.260785	1.051923	0.009217
H145	H	0.195757	1.072426	-0.024979
H146	H	0.414475	0.860908	-0.177437
H147	H	0.596698	0.848123	-0.305166
H148	H	0.728960	-0.066391	-0.069164
H149	H	1.433227	0.106882	0.050360
O150	O	0.460769	0.448637	0.091178
H151	H	0.516170	0.457271	0.086854
H152	H	0.898042	-0.059564	0.147337
H153	H	0.766720	0.317953	0.219037
O154	O	0.753362	0.731627	-0.426887
H155	H	0.718403	0.785485	-0.422695
O156	O	0.753336	0.829136	-0.301450
H157	H	0.718389	0.862732	-0.359505
H158	H	0.728945	0.043112	-0.069171
H159	H	0.870841	0.672470	-0.465953
H160	H	1.267624	0.173293	-0.022503
O161	O	0.962340	0.312200	0.361793
H162	H	1.017869	0.296702	0.338028
H163	H	1.301218	0.280390	0.237804
O164	O	0.710097	0.438558	-0.083658
H165	H	0.722025	0.475980	-0.074457
O166	O	0.241552	0.990570	-0.068293
H167	H	0.186078	1.041501	-0.064021
H168	H	0.898038	0.049934	0.147335
H169	H	0.766778	0.711149	-0.780961
O170	O	0.872792	0.687293	-0.590824
H171	H	0.871616	0.677856	-0.633146
O172	O	1.474145	0.150743	0.128637
H173	H	1.482511	0.200804	0.107579
O174	O	1.005538	0.075075	0.143996
H175	H	1.054956	0.066384	0.182071
O176	O	1.303648	0.288165	0.122681
H177	H	1.380899	0.251594	0.151096
H178	H	1.433423	0.106863	0.473735
O179	O	0.962256	0.939832	-0.265851
H180	H	1.017792	0.924330	-0.289610
O181	O	0.254926	0.692665	-0.030833
H182	H	0.199519	0.684037	-0.026527
O183	O	1.474198	0.150774	0.351564
H184	H	1.466790	0.182413	0.294477
H185	H	1.118995	0.293178	0.365535
H186	H	0.857932	0.147333	0.453545
H187	H	0.817671	0.091367	-0.086975
H188	H	0.766724	0.711157	-0.671474
O189	O	0.962359	0.409654	-0.638184
H190	H	0.953929	0.422662	-0.691725
O191	O	0.962307	0.409670	-0.512746
H192	H	0.997244	0.355816	-0.516942
O193	O	0.753498	0.201400	0.326298
H194	H	0.697992	0.216866	0.350087
O195	O	1.005565	-0.171788	0.144018
H196	H	1.054972	-0.242726	0.182105
O197	O	0.620986	0.838416	0.098674
H198	H	0.613622	0.870070	0.124101
O199	O	0.450504	0.975828	0.092709
H200	H	0.527754	0.939250	0.121133
O201	O	0.412044	0.853122	-0.062301
H202	H	0.334793	0.889682	-0.090705
H203	H	0.817642	0.200871	-0.086982
O204	O	1.005590	-0.297253	0.144015
H205	H	1.055009	-0.305940	0.182085
O206	O	0.710130	0.313102	-0.083662
H207	H	0.722084	0.256442	-0.074468
O208	O	1.094709	0.302901	-0.038330
H209	H	1.054928	0.372273	-0.080567
H210	H	0.844828	0.468835	-0.473677
O211	O	0.962264	0.814395	-0.140429
H212	H	0.997216	0.843048	-0.144627
H213	H	0.844790	0.468839	-0.364191
H214	H	0.948956	0.430148	-0.268164
O215	O	0.962200	0.409679	-0.140450
H216	H	0.997140	0.355824	-0.144645
