data_functionalizedCrystal
_audit_creation_method	'MofGen! by Chris Wilmer'
_symmetry_space_group_name_H-M	'P1'
_symmetry_Int_Tables_number	1
_symmetry_cell_setting	triclinic
loop_
_symmetry_equiv_pos_as_xyz
  x,y,z
_cell_length_a	21.295418
_cell_length_b	25.639239
_cell_length_c	21.295411
_cell_angle_alpha	90.019526
_cell_angle_beta	90.043738
_cell_angle_gamma	90.054499
loop_
_atom_site_label
_atom_site_type_symbol
_atom_site_fract_x
_atom_site_fract_y
_atom_site_fract_z
Zn1	Zn	0.962320	-0.207990	0.356243
Zn2	Zn	1.295653	0.125344	0.689576
Zn3	Zn	1.628987	0.458677	1.022910
Zn4	Zn	0.962207	-0.295410	0.250972
Zn5	Zn	1.295541	0.037924	0.584305
Zn6	Zn	1.628874	0.371257	0.917639
Zn7	Zn	0.857043	-0.208014	0.250953
Zn8	Zn	1.190377	0.125319	0.584286
Zn9	Zn	1.523710	0.458652	0.917619
Zn10	Zn	0.856998	-0.295420	0.356169
Zn11	Zn	1.190331	0.037913	0.689502
Zn12	Zn	1.523664	0.371247	1.022835
O13	O	0.909642	-0.251708	0.303584
O14	O	1.242975	0.081625	0.636917
O15	O	1.576309	0.414958	0.970251
O16	O	1.050395	-0.219572	0.342318
O17	O	1.383728	0.113762	0.675651
O18	O	1.717061	0.447095	1.008984
O19	O	0.948229	-0.283822	0.162880
O20	O	1.281562	0.049511	0.496213
O21	O	1.614896	0.382844	0.829547
O22	O	0.871075	-0.134846	0.264943
O23	O	1.204408	0.198488	0.598276
O24	O	1.537741	0.531821	0.931609
O25	O	1.050312	-0.283799	0.264976
O26	O	1.383645	0.049535	0.598309
O27	O	1.716978	0.382868	0.931642
O28	O	0.948421	-0.134828	0.342299
O29	O	1.281754	0.198506	0.675632
O30	O	1.615088	0.531839	1.008965
O31	O	0.870965	-0.219613	0.162866
O32	O	1.204299	0.113720	0.496199
O33	O	1.537632	0.447053	0.829532
O34	O	0.768948	-0.219623	0.264871
O35	O	1.102281	0.113710	0.598204
O36	O	1.435614	0.447043	0.931537
O37	O	0.870997	-0.283816	0.444268
O38	O	1.204330	0.049517	0.777601
O39	O	1.537664	0.382850	1.110935
O40	O	0.768914	-0.283840	0.342172
O41	O	1.102248	0.049493	0.675506
O42	O	1.435581	0.382827	1.008839
O43	O	0.948377	-0.219582	0.444322
O44	O	1.281710	0.113752	0.777656
O45	O	1.615043	0.447085	1.110989
O46	O	0.948185	-0.368576	0.264904
O47	O	1.281518	-0.035243	0.598237
O48	O	1.614852	0.298090	0.931570
O49	O	0.870888	-0.368584	0.342191
O50	O	1.204221	-0.035251	0.675524
O51	O	1.537554	0.298083	1.008858
C52	C	0.746090	-0.251736	0.303512
C53	C	1.079424	0.081597	0.636845
C54	C	1.412757	0.414931	0.970178
C55	C	0.676122	-0.251760	0.303496
C56	C	1.009456	0.081573	0.636829
C57	C	1.342789	0.414906	0.970162
C58	C	0.909536	-0.387551	0.303555
C59	C	1.242870	-0.054218	0.636889
C60	C	1.576203	0.279116	0.970222
C61	C	0.909548	-0.445665	0.303564
C62	C	1.242882	-0.112332	0.636897
C63	C	1.576215	0.221002	0.970231
C64	C	0.643255	-0.285242	0.343686
C65	C	0.976588	0.048091	0.677020
C66	C	1.309921	0.381424	1.010353
C67	C	0.577512	-0.285229	0.343715
C68	C	0.910845	0.048104	0.677048
C69	C	1.244179	0.381437	1.010381
C70	C	0.544640	-0.251740	0.303541
C71	C	0.877973	0.081593	0.636874
C72	C	1.211306	0.414927	0.970207
C73	C	0.577515	-0.218252	0.263347
C74	C	0.910849	0.115082	0.596680
C75	C	1.244182	0.448415	0.930014
C76	C	0.643257	-0.218262	0.263325
C77	C	0.976590	0.115072	0.596658
C78	C	1.309923	0.448405	0.929991
N79	N	0.441365	-0.247648	0.248483
N80	N	0.774698	0.085686	0.581816
N81	N	1.108031	0.419019	0.915150
N82	N	0.378913	-0.247641	0.248506
N83	N	0.712246	0.085692	0.581840
N84	N	1.045580	0.419026	0.915173
C85	C	0.346565	-0.251707	0.303608
C86	C	0.679898	0.081627	0.636941
C87	C	1.013232	0.414960	0.970274
N88	N	0.379028	-0.255789	0.358686
N89	N	0.712361	0.077544	0.692019
N90	N	1.045695	0.410877	1.025353
N91	N	0.441485	-0.255799	0.358662
N92	N	0.774818	0.077535	0.691995
N93	N	1.108152	0.410868	1.025328
C94	C	0.473354	-0.251725	0.303561
C95	C	0.806688	0.081608	0.636894
C96	C	1.140021	0.414942	0.970228
C97	C	0.242412	-0.285176	0.343832
C98	C	0.575745	0.048157	0.677166
C99	C	0.909079	0.381490	1.010499
C100	C	0.176668	-0.285160	0.343862
C101	C	0.510002	0.048173	0.677195
C102	C	0.843335	0.381507	1.010528
C103	C	0.176673	-0.218185	0.263489
C104	C	0.510006	0.115148	0.596822
C105	C	0.843339	0.448482	0.930155
C106	C	0.242415	-0.218199	0.263465
C107	C	0.575749	0.115135	0.596798
C108	C	0.909082	0.448468	0.930132
C109	C	0.275281	-0.251697	0.303636
C110	C	0.608614	0.081636	0.636969
C111	C	0.941948	0.414969	0.970303
C112	C	0.949996	-0.806011	0.263409
C113	C	1.283329	-0.472678	0.596742
C114	C	1.616662	-0.139345	0.930076
C115	C	0.950020	-0.860616	0.263418
C116	C	1.283353	-0.527282	0.596751
C117	C	1.616687	-0.193949	0.930084
O118	O	0.984300	-0.888838	0.229245
O119	O	1.317633	-0.555505	0.562578
O120	O	1.650967	-0.222172	0.895912
N121	N	0.909753	-0.887947	0.303626
N122	N	1.243086	-0.554614	0.636959
N123	N	1.576419	-0.221281	0.970292
C124	C	0.869463	-0.860672	0.343833
C125	C	1.202796	-0.527339	0.677166
C126	C	1.536129	-0.194005	1.010499
O127	O	0.835215	-0.888934	0.378034
O128	O	1.168548	-0.555600	0.711368
O129	O	1.501881	-0.222267	1.044701
C130	C	0.869442	-0.806069	0.343827
C131	C	1.202775	-0.472735	0.677160
C132	C	1.536109	-0.139402	1.010494
C133	C	0.909708	-0.778740	0.303612
C134	C	1.243041	-0.445406	0.636945
C135	C	1.576374	-0.112073	0.970278
C136	C	0.990259	-0.778683	0.223198
C137	C	1.323592	-0.445349	0.556531
C138	C	1.656925	-0.112016	0.889864
C139	C	0.990233	-0.724082	0.223188
C140	C	1.323567	-0.390749	0.556522
C141	C	1.656900	-0.057415	0.889855
C142	C	0.949945	-0.696810	0.263391
C143	C	1.283278	-0.363477	0.596724
C144	C	1.616612	-0.030144	0.930058
C145	C	0.909682	-0.724139	0.303603
C146	C	1.243016	-0.390806	0.636936
C147	C	1.576349	-0.057473	0.970269
C148	C	0.829156	-0.778794	0.384037
C149	C	1.162489	-0.445461	0.717370
C150	C	1.495822	-0.112127	1.050703
C151	C	0.829139	-0.724187	0.384028
C152	C	1.162472	-0.390854	0.717361
C153	C	1.495805	-0.057520	1.050695
C154	C	0.869404	-0.696858	0.343812
C155	C	1.202738	-0.363525	0.677146
C156	C	1.536071	-0.030192	1.010479
C157	C	0.869369	-0.642267	0.343796
C158	C	1.202702	-0.308934	0.677129
C159	C	1.536035	0.024400	1.010463
N160	N	0.909636	-0.614935	0.303588
N161	N	1.242969	-0.281602	0.636921
N162	N	1.576303	0.051731	0.970254
C163	C	0.949924	-0.642207	0.263385
C164	C	1.283258	-0.308874	0.596719
C165	C	1.616591	0.024460	0.930052
C166	C	0.869510	-0.975343	0.343842
C167	C	1.202844	-0.642009	0.677176
C168	C	1.536177	-0.308676	1.010509
C169	C	0.869527	-1.029945	0.343845
C170	C	1.202861	-0.696611	0.677179
C171	C	1.536194	-0.363278	1.010512
C172	C	0.950086	-1.029885	0.263431
C173	C	1.283419	-0.696552	0.596764
C174	C	1.616752	-0.363218	0.930098
C175	C	0.950065	-0.975282	0.263425
C176	C	1.283398	-0.641948	0.596759
C177	C	1.616732	-0.308615	0.930092
C178	C	0.909778	-0.948011	0.303634
C179	C	1.243111	-0.614678	0.636968
C180	C	1.576444	-0.281344	0.970301
C181	C	0.949868	-0.527542	0.263369
C182	C	1.283201	-0.194209	0.596702
C183	C	1.616534	0.139125	0.930035
C184	C	0.949837	-0.472937	0.263361
C185	C	1.283170	-0.139603	0.596695
C186	C	1.616503	0.193730	0.930028
C187	C	0.869281	-0.473001	0.343778
C188	C	1.202614	-0.139668	0.677111
C189	C	1.535948	0.193665	1.010445
C190	C	0.869309	-0.527602	0.343783
C191	C	1.202642	-0.194269	0.677117
C192	C	1.535976	0.139065	1.010450
C193	C	0.909607	-0.554871	0.303577
C194	C	1.242941	-0.221538	0.636910
C195	C	1.576274	0.111796	0.970243
O196	O	0.835108	-0.614010	0.377953
O197	O	1.168441	-0.280676	0.711286
O198	O	1.501775	0.052657	1.044620
O199	O	0.984172	-0.613939	0.229195
O200	O	1.317506	-0.280605	0.562529
O201	O	1.650839	0.052728	0.895862
C202	C	1.073832	-0.251681	0.303657
C203	C	1.407166	0.081652	0.636990
C204	C	1.740499	0.414985	0.970324
C205	C	1.143801	-0.251670	0.303688
C206	C	1.477134	0.081664	0.637022
C207	C	1.810467	0.414997	0.970355
C208	C	0.909694	-0.251697	0.467774
C209	C	1.243028	0.081636	0.801108
C210	C	1.576361	0.414969	1.134441
C211	C	0.909717	-0.251693	0.537743
C212	C	1.243050	0.081641	0.871076
C213	C	1.576383	0.414974	1.204409
C214	C	0.909766	-0.115335	0.303627
C215	C	1.243099	0.217998	0.636960
C216	C	1.576432	0.551331	0.970293
C217	C	0.909818	-0.057221	0.303645
C218	C	1.243151	0.276112	0.636978
C219	C	1.576485	0.609445	0.970312
C220	C	0.909626	-0.251682	0.140032
C221	C	1.242960	0.081652	0.473366
C222	C	1.576293	0.414985	0.806699
C223	C	0.909726	-0.251539	0.070065
C224	C	1.243059	0.081794	0.403398
C225	C	1.576393	0.415128	0.736731
C226	C	0.950007	-0.218244	0.570639
C227	C	1.283340	0.115089	0.903972
C228	C	1.616673	0.448423	1.237305
C229	C	0.950006	-0.218221	0.636381
C230	C	1.283339	0.115112	0.969714
C231	C	1.616672	0.448445	1.303048
C232	C	0.909721	-0.251657	0.669225
C233	C	1.243055	0.081677	1.002558
C234	C	1.576388	0.415010	1.335892
C235	C	0.869424	-0.285108	0.636321
C236	C	1.202757	0.048226	0.969654
C237	C	1.536090	0.381559	1.302988
C238	C	0.869421	-0.285126	0.570580
C239	C	1.202755	0.048208	0.903913
C240	C	1.536088	0.381541	1.237246
N241	N	0.904857	-0.297396	0.772441
N242	N	1.238190	0.035937	1.105774
N243	N	1.571524	0.369271	1.439108
N244	N	0.904863	-0.297377	0.834892
N245	N	1.238196	0.035956	1.168226
N246	N	1.571530	0.369289	1.501559
C247	C	0.909725	-0.251604	0.867300
C248	C	1.243059	0.081730	1.200633
C249	C	1.576392	0.415063	1.533967
N250	N	0.914594	-0.205848	0.834897
N251	N	1.247927	0.127485	1.168230
N252	N	1.581261	0.460818	1.501563
N253	N	0.914591	-0.205867	0.772440
N254	N	1.247925	0.127466	1.105773
N255	N	1.581258	0.460799	1.439106
C256	C	0.909719	-0.251641	0.740511
C257	C	1.243053	0.081693	1.073844
C258	C	1.576386	0.415026	1.407177
C259	C	0.950017	-0.218128	0.971482
C260	C	1.283350	0.115206	1.304815
C261	C	1.616683	0.448539	1.638148
C262	C	0.950011	-0.218104	1.037225
C263	C	1.283345	0.115229	1.370559
C264	C	1.616678	0.448562	1.703892
C265	C	0.869433	-0.284995	1.037164
C266	C	1.202766	0.048338	1.370497
C267	C	1.536099	0.381672	1.703831
C268	C	0.869435	-0.285014	0.971422
C269	C	1.202768	0.048320	1.304755
C270	C	1.536101	0.381653	1.638088
C271	C	0.909730	-0.251581	0.938584
C272	C	1.243063	0.081752	1.271918
C273	C	1.576397	0.415086	1.605251
H274	H	0.550746	-0.312494	0.376445
H275	H	0.884079	0.020839	0.709778
H276	H	1.217413	0.354173	1.043112
N277	N	0.828289	-0.319184	0.937806
N278	N	1.161623	0.014150	1.271139
N279	N	1.494956	0.347483	1.604472
N280	N	0.828292	-0.319195	0.879109
N281	N	1.161625	0.014139	1.212442
N282	N	1.494959	0.347472	1.545775
H283	H	0.799229	-0.343327	0.855366
H284	H	1.132563	-0.009993	1.188699
H285	H	1.465896	0.323340	1.522033
N286	N	0.676815	-0.319462	0.384723
N287	N	1.010148	0.013872	0.718057
N288	N	1.343482	0.347205	1.051390
N289	N	0.647456	-0.349354	0.420607
N290	N	0.980789	-0.016021	0.753940
N291	N	1.314122	0.317313	1.087273
H292	H	0.671158	-0.373521	0.449590
H293	H	1.004492	-0.040188	0.782924
H294	H	1.337825	0.293145	1.116257
N295	N	0.828122	-0.445148	0.384844
N296	N	1.161455	-0.111815	0.718177
N297	N	1.494789	0.221519	1.051511
N298	N	0.770040	-0.451308	0.380604
N299	N	1.103373	-0.117975	0.713937
N300	N	1.436706	0.215359	1.047270
H301	H	0.740972	-0.431637	0.409610
H302	H	1.074305	-0.098303	0.742944
H303	H	1.407639	0.235030	1.076277
N304	N	0.990973	-0.445019	0.222287
N305	N	1.324307	-0.111686	0.555621
N306	N	1.657640	0.221648	0.888954
N307	N	1.031063	-0.414495	0.244476
N308	N	1.364396	-0.081162	0.577809
N309	N	1.697729	0.252172	0.911143
H310	H	1.060114	-0.394779	0.215468
H311	H	1.393447	-0.061445	0.548802
H312	H	1.726780	0.271888	0.882135
N313	N	0.991024	-0.555384	0.222286
N314	N	1.324358	-0.222051	0.555619
N315	N	1.657691	0.111282	0.888953
N316	N	0.986866	-0.549304	0.164196
N317	N	1.320199	-0.215971	0.497529
N318	N	1.653532	0.117362	0.830863
H319	H	1.015929	-0.568968	0.135177
H320	H	1.349262	-0.235634	0.468510
H321	H	1.682595	0.097699	0.801844
H322	H	0.269176	-0.190937	0.230734
H323	H	0.602510	0.142397	0.564067
H324	H	0.935843	0.475730	0.897401
N325	N	0.991205	-0.947368	0.222358
N326	N	1.324539	-0.614034	0.555691
N327	N	1.657872	-0.280701	0.889025
N328	N	1.031300	-0.916851	0.244551
N329	N	1.364634	-0.583518	0.577884
N330	N	1.697967	-0.250185	0.911217
H331	H	1.060358	-0.897138	0.215546
H332	H	1.393692	-0.563805	0.548879
H333	H	1.727025	-0.230472	0.882213
N334	N	0.828391	-1.057865	0.384910
N335	N	1.161724	-0.724532	0.718244
N336	N	1.495057	-0.391198	1.051577
N337	N	0.788300	-1.088386	0.362717
N338	N	1.121634	-0.755053	0.696051
N339	N	1.454967	-0.421719	1.029384
H340	H	0.759248	-1.108104	0.391722
H341	H	1.092581	-0.774770	0.725055
H342	H	1.425914	-0.441437	1.058389
N343	N	0.991176	-0.184062	0.669991
N344	N	1.324509	0.149271	1.003324
N345	N	1.657842	0.482604	1.336658
N346	N	1.031272	-0.202449	0.706700
N347	N	1.364605	0.130884	1.040034
N348	N	1.697939	0.464218	1.373367
H349	H	1.060350	-0.178325	0.730435
H350	H	1.393684	0.155008	1.063769
H351	H	1.727017	0.488342	1.397102
N352	N	0.543931	-0.184043	0.222319
N353	N	0.877264	0.149291	0.555652
N354	N	1.210597	0.482624	0.888985
N355	N	0.485234	-0.184038	0.222344
N356	N	0.818567	0.149295	0.555677
N357	N	1.151900	0.482629	0.889011
H358	H	0.461514	-0.159875	0.193369
H359	H	0.794847	0.173458	0.526702
H360	H	1.128181	0.506792	0.860035
N361	N	0.676824	-0.184054	0.222267
N362	N	1.010157	0.149280	0.555600
N363	N	1.343490	0.482613	0.888934
N364	N	0.647470	-0.154150	0.186404
N365	N	0.980803	0.179183	0.519737
N366	N	1.314137	0.512516	0.853070
H367	H	0.671177	-0.129990	0.157406
H368	H	1.004510	0.203343	0.490739
H369	H	1.337844	0.536676	0.824072
N370	N	0.991177	-0.183942	1.070831
N371	N	1.324511	0.149391	1.404164
N372	N	1.657844	0.482724	1.737497
N373	N	1.031272	-0.202325	1.107545
N374	N	1.364605	0.131009	1.440878
N375	N	1.697938	0.464342	1.774212
H376	H	1.060347	-0.178198	1.131280
H377	H	1.393680	0.155135	1.464613
H378	H	1.727013	0.488469	1.797947
H379	H	0.836622	-0.312329	0.663067
H380	H	1.169955	0.021004	0.996400
H381	H	1.503289	0.354338	1.329734
N382	N	0.275978	-0.319396	0.384867
N383	N	0.609312	0.013938	0.718201
N384	N	0.942645	0.347271	1.051534
N385	N	0.246621	-0.349286	0.420754
N386	N	0.579954	-0.015953	0.754088
N387	N	0.913287	0.317380	1.087421
H388	H	0.270325	-0.373455	0.449736
H389	H	0.603658	-0.040122	0.783069
H390	H	0.936992	0.293212	1.116402
H391	H	0.149909	-0.190915	0.230781
H392	H	0.483242	0.142419	0.564115
H393	H	0.816575	0.475752	0.897448
H394	H	0.149909	-0.312424	0.376594
H395	H	0.483242	0.020909	0.709927
H396	H	0.816575	0.354243	1.043261
N397	N	1.031353	-0.696170	0.182099
N398	N	1.364686	-0.362836	0.515432
N399	N	1.698019	-0.029503	0.848765
N400	N	1.009207	-0.665748	0.141946
N401	N	1.342541	-0.332415	0.475279
N402	N	1.675874	0.000918	0.808613
H403	H	1.038248	-0.646040	0.112920
H404	H	1.371581	-0.312707	0.446253
H405	H	1.704914	0.020627	0.779586
N406	N	0.991245	-1.057739	0.222359
N407	N	1.324578	-0.724406	0.555693
N408	N	1.657912	-0.391072	0.889026
N409	N	0.987101	-1.051670	0.164266
N410	N	1.320435	-0.718337	0.497600
N411	N	1.653768	-0.385004	0.830933
H412	H	1.016169	-1.071343	0.135260
H413	H	1.349502	-0.738009	0.468594
H414	H	1.682835	-0.404676	0.801927
N415	N	1.031423	-0.806526	0.182127
N416	N	1.364756	-0.473193	0.515460
N417	N	1.698090	-0.139860	0.848794
N418	N	1.067367	-0.782109	0.146232
N419	N	1.400700	-0.448775	0.479566
N420	N	1.734033	-0.115442	0.812899
H421	H	1.096440	-0.801769	0.117221
H422	H	1.429773	-0.468436	0.450554
H423	H	1.763106	-0.135103	0.783888
H424	H	0.836698	-0.953141	0.376584
H425	H	1.170032	-0.619808	0.709917
H426	H	1.503365	-0.286475	1.043250
N427	N	0.828258	-0.319296	0.536984
N428	N	1.161591	0.014038	0.870317
N429	N	1.494925	0.347371	1.203650
N430	N	0.792287	-0.349144	0.566312
N431	N	1.125621	-0.015810	0.899645
N432	N	1.458954	0.317523	1.232979
H433	H	0.763215	-0.373277	0.542584
H434	H	1.096548	-0.039944	0.875918
H435	H	1.429882	0.293389	1.209251
H436	H	0.982818	-0.191020	0.543907
H437	H	1.316151	0.142314	0.877240
H438	H	1.649484	0.475647	1.210573
N439	N	0.991176	-0.183973	0.937944
N440	N	1.324510	0.149360	1.271277
N441	N	1.657843	0.482693	1.604611
N442	N	1.027143	-0.154105	0.967327
N443	N	1.360476	0.179228	1.300660
N444	N	1.693809	0.512562	1.633994
H445	H	1.056212	-0.129982	0.943643
H446	H	1.389545	0.203351	1.276977
H447	H	1.722879	0.536684	1.610310
H448	H	0.836626	-0.312213	1.063905
H449	H	1.169959	0.021120	1.397238
H450	H	1.503293	0.354453	1.730572
H451	H	0.796364	-0.801036	0.416781
H452	H	1.129697	-0.467703	0.750115
H453	H	1.463031	-0.134369	1.083448
N454	N	0.787985	-0.696340	0.425110
N455	N	1.121318	-0.363006	0.758443
N456	N	1.454651	-0.029673	1.091776
N457	N	0.752041	-0.720751	0.461011
N458	N	1.085375	-0.387418	0.794344
N459	N	1.418708	-0.054085	1.127678
H460	H	0.722976	-0.701086	0.490025
H461	H	1.056309	-0.367752	0.823358
H462	H	1.389642	-0.034419	1.156692
N463	N	0.828165	-0.555513	0.384854
N464	N	1.161499	-0.222179	0.718188
N465	N	1.494832	0.111154	1.051521
N466	N	0.792192	-0.531154	0.420741
N467	N	1.125525	-0.197820	0.754075
N468	N	1.458859	0.135513	1.087408
H469	H	0.763135	-0.550862	0.449751
H470	H	1.096468	-0.217529	0.783085
H471	H	1.429802	0.115805	1.116418
