data_functionalizedCrystal
_audit_creation_method	'MofGen! by Chris Wilmer'
_symmetry_space_group_name_H-M	'P1'
_symmetry_Int_Tables_number	1
_symmetry_cell_setting	triclinic
loop_
_symmetry_equiv_pos_as_xyz
  x,y,z
_cell_length_a	27.732048
_cell_length_b	15.021413
_cell_length_c	15.944551
_cell_angle_alpha	90.003065
_cell_angle_beta	83.070697
_cell_angle_gamma	89.998251
loop_
_atom_site_label
_atom_site_type_symbol
_atom_site_fract_x
_atom_site_fract_y
_atom_site_fract_z
O1	O	0.641363	-0.073919	0.099933
O2	O	0.500635	-0.073947	0.115130
O3	O	0.574842	-0.073924	-0.014793
O4	O	0.567156	-0.073942	0.229857
O5	O	0.574830	0.074140	-0.014775
O6	O	0.500623	0.074118	0.115149
O7	O	0.641351	0.074145	0.099952
Zn8	Zn	0.570985	0.097640	0.107553
Zn9	Zn	0.571001	-0.097441	0.107529
O10	O	0.567144	0.074122	0.229875
C11	C	0.482621	0.000082	0.114820
C12	C	0.428962	0.000072	0.113860
N13	N	0.570978	0.230777	0.107569
N14	N	0.571012	-0.230579	0.107506
C15	C	0.090453	0.000106	0.184589
C16	C	-0.111222	0.000114	0.181025
O17	O	-0.142198	0.000148	0.245701
N18	N	-0.130679	0.000118	0.103986
C19	C	-0.099715	0.000125	0.027832
O20	O	-0.120892	0.000138	-0.037776
C21	C	0.101959	0.000124	0.031397
C22	C	0.121414	0.000111	0.108441
C23	C	0.109908	0.000094	0.261627
C24	C	0.160324	0.000087	0.262517
C25	C	0.191285	0.000092	0.186369
C26	C	0.171830	0.000104	0.109331
C27	C	0.132923	0.000138	-0.044756
C28	C	0.183345	0.000139	-0.043858
C29	C	0.202799	0.000126	0.033186
C30	C	0.253206	0.000102	0.034073
N31	N	0.272664	0.000098	0.111113
C32	C	0.241703	0.000093	0.187260
C33	C	-0.205597	0.000125	0.025966
C34	C	-0.256015	0.000123	0.025074
C35	C	-0.267519	0.000113	0.178268
C36	C	-0.217100	0.000108	0.179158
C37	C	-0.186139	0.000121	0.103005
C38	C	0.347580	0.000078	0.189124
C39	C	0.398001	0.000067	0.190007
C40	C	0.409500	0.000082	0.036815
C41	C	0.359084	0.000088	0.035931
C42	C	0.328125	0.000089	0.112092
O43	O	0.284210	0.000078	-0.030569
O44	O	0.262890	0.000100	0.252859
C45	C	0.040037	0.000112	0.183699
C46	C	0.020582	0.000124	0.106661
C47	C	0.051543	0.000129	0.030513
C48	C	-0.029836	0.000123	0.105769
C49	C	-0.060797	0.000118	0.181917
C50	C	-0.041339	0.000114	0.258956
C51	C	0.009076	0.000107	0.259846
C52	C	0.032086	0.000133	-0.046526
C53	C	-0.018331	0.000139	-0.047410
C54	C	-0.049291	0.000134	0.028738
C55	C	0.659365	0.000114	0.100262
C56	C	0.713024	0.000118	0.101222
C57	C	0.574517	0.000108	-0.046074
C58	C	0.573560	0.000108	-0.139307
C59	C	0.536660	0.470450	0.167618
C60	C	0.580337	0.529792	0.183354
C61	C	0.570990	0.412384	0.107548
C62	C	0.527325	0.529784	0.091831
C63	C	0.570998	0.587808	0.107530
C64	C	0.614690	0.470419	0.123321
C65	C	0.561649	0.470407	0.031766
C66	C	0.605358	0.529721	0.047469
C67	C	0.570985	0.311327	0.107561
C68	C	0.571009	0.688863	0.107516
C69	C	0.525277	0.000087	-0.353533
C70	C	0.547692	0.073096	-0.414834
C71	C	0.571830	0.000101	-0.310011
C72	C	0.547715	-0.072884	-0.414836
C73	C	0.570155	0.000090	-0.474902
C74	C	0.594258	0.073170	-0.370084
C75	C	0.594274	-0.072875	-0.370079
C76	C	0.616723	0.000152	-0.431364
C77	C	0.572793	0.000108	-0.215021
C78	C	0.569195	0.000090	-0.569890
C79	C	0.567469	0.000088	0.261156
C80	C	0.568426	0.000082	0.354389
H81	H	0.413838	0.000056	0.252749
H82	H	0.588245	0.555876	0.247433
O83	O	0.524291	-0.146546	-0.438618
C84	C	0.556327	-0.197477	-0.494920
H85	H	0.586522	-0.152854	-0.526279
H86	H	0.535547	-0.227898	-0.545364
H87	H	0.572815	-0.252865	-0.458644
H88	H	0.634426	0.555582	-0.003341
O89	O	0.617768	0.146797	-0.346452
C90	C	0.658358	0.120756	-0.306949
H91	H	0.652550	0.050302	-0.281125
H92	H	0.663016	0.168388	-0.252846
H93	H	0.692331	0.122520	-0.354930
O94	O	0.662893	0.000254	-0.471388
C95	C	0.696022	0.001006	-0.410907
H96	H	0.677501	0.029381	-0.348928
H97	H	0.728666	0.044082	-0.434735
H98	H	0.708689	-0.069835	-0.400154
O99	O	0.658786	0.439468	0.139135
C100	C	0.694954	0.470365	0.076118
H101	H	0.677761	0.487389	0.016691
H102	H	0.723538	0.416319	0.060953
H103	H	0.712809	0.532370	0.099751
O104	O	0.524277	0.146785	-0.438575
C105	C	0.556305	0.197682	-0.494912
H106	H	0.595395	0.181378	-0.485204
H107	H	0.549161	0.271519	-0.482409
H108	H	0.550259	0.181307	-0.562675
O109	O	0.317580	0.000033	0.263183
C110	C	0.345572	0.000041	0.331361
H111	H	0.383198	-0.027988	0.309523
H112	H	0.326987	-0.042955	0.384669
H113	H	0.349166	0.071070	0.355021
O114	O	0.502111	0.439434	0.228373
C115	C	0.512146	0.469713	0.308156
H116	H	0.552419	0.486354	0.305263
H117	H	0.502452	0.415443	0.357279
H118	H	0.489682	0.531825	0.326440
H119	H	0.208551	0.000150	-0.105873
H120	H	0.553727	0.444301	-0.032292
O121	O	0.617679	-0.146593	-0.346394
C122	C	0.593022	-0.223420	-0.368936
H123	H	0.553613	-0.205937	-0.375184
H124	H	0.594207	-0.276396	-0.318032
H125	H	0.611306	-0.250052	-0.431819
H126	H	0.434718	0.000082	-0.025183
H127	H	0.117093	0.000149	-0.107494
H128	H	-0.180392	0.000135	-0.036051
H129	H	0.057290	0.000140	-0.108537
H130	H	0.176158	0.000076	0.325254
H131	H	0.490394	0.555863	0.078546
O132	O	0.340263	0.000128	-0.038982
C133	C	0.378404	0.000100	-0.106000
H134	H	0.412659	0.028122	-0.082906
H135	H	0.367864	0.043092	-0.159825
H136	H	0.385533	-0.070935	-0.129462
H137	H	0.486636	0.000152	-0.319720
H138	H	0.084704	0.000093	0.323639
H139	H	-0.201264	0.000103	0.241894
H140	H	-0.292736	0.000110	0.240270
H141	H	-0.271850	0.000120	-0.037663
H142	H	-0.066557	0.000107	0.320958
O143	O	0.027890	0.000140	0.334762
C144	C	-0.010256	0.000115	0.401771
H145	H	-0.044506	0.028149	0.378673
H146	H	0.000281	0.043099	0.455608
H147	H	-0.017388	-0.070920	0.425218
H148	H	-0.034165	0.000143	-0.110154
