data_functionalizedCrystal
_audit_creation_method	'MofGen! by Chris Wilmer'
_symmetry_space_group_name_H-M	'P1'
_symmetry_Int_Tables_number	1
_symmetry_cell_setting	triclinic
loop_
_symmetry_equiv_pos_as_xyz
  x,y,z
_cell_length_a	21.395361
_cell_length_b	21.395362
_cell_length_c	21.395355
_cell_angle_alpha	89.956060
_cell_angle_beta	90.021511
_cell_angle_gamma	89.953415
loop_
_atom_site_label
_atom_site_type_symbol
_atom_site_fract_x
_atom_site_fract_y
_atom_site_fract_z
Zn1	Zn	-0.249246	-0.957859	0.354573
Zn2	Zn	0.084088	-0.624526	0.687906
Zn3	Zn	0.417421	-0.291193	1.021239
Zn4	Zn	-0.354005	-0.957762	0.249790
Zn5	Zn	-0.020672	-0.624429	0.583123
Zn6	Zn	0.312661	-0.291095	0.916456
Zn7	Zn	-0.249275	-0.853074	0.249774
Zn8	Zn	0.084059	-0.519741	0.583107
Zn9	Zn	0.417392	-0.186408	0.916441
Zn10	Zn	-0.354018	-0.853044	0.354494
Zn11	Zn	-0.020685	-0.519710	0.687828
Zn12	Zn	0.312648	-0.186377	1.021161
O13	O	-0.301636	-0.905435	0.302158
O14	O	0.031697	-0.572102	0.635491
O15	O	0.365031	-0.238768	0.968824
O16	O	-0.263125	-1.045524	0.340712
O17	O	0.070209	-0.712191	0.674046
O18	O	0.403542	-0.378858	1.007379
O19	O	-0.340119	-0.943847	0.162110
O20	O	-0.006786	-0.610514	0.495443
O21	O	0.326547	-0.277180	0.828776
O22	O	-0.161593	-0.867028	0.263702
O23	O	0.171740	-0.533695	0.597035
O24	O	0.505074	-0.200361	0.930368
O25	O	-0.340091	-1.045453	0.263729
O26	O	-0.006758	-0.712119	0.597062
O27	O	0.326575	-0.378786	0.930395
O28	O	-0.161572	-0.944013	0.340697
O29	O	0.171762	-0.610680	0.674030
O30	O	0.505095	-0.277347	1.007364
O31	O	-0.263174	-0.866934	0.162098
O32	O	0.070159	-0.533600	0.495431
O33	O	0.403492	-0.200267	0.828765
O34	O	-0.263187	-0.765392	0.263626
O35	O	0.070147	-0.432059	0.596959
O36	O	0.403480	-0.098726	0.930293
O37	O	-0.340113	-0.866976	0.442183
O38	O	-0.006780	-0.533642	0.775516
O39	O	0.326553	-0.200309	1.108849
O40	O	-0.340141	-0.765370	0.340564
O41	O	-0.006808	-0.432036	0.673897
O42	O	0.326525	-0.098703	1.007230
O43	O	-0.263137	-0.943983	0.442240
O44	O	0.070196	-0.610650	0.775573
O45	O	0.403530	-0.277317	1.108907
O46	O	-0.441685	-0.943817	0.263653
O47	O	-0.108352	-0.610484	0.596986
O48	O	0.224982	-0.277150	0.930319
O49	O	-0.441695	-0.866881	0.340579
O50	O	-0.108361	-0.533548	0.673912
O51	O	0.224972	-0.200214	1.007246
C52	C	-0.301669	-0.742647	0.302085
C53	C	0.031664	-0.409314	0.635418
C54	C	0.364998	-0.075981	0.968752
C55	C	-0.301698	-0.673006	0.302069
C56	C	0.031635	-0.339673	0.635402
C57	C	0.364968	-0.006339	0.968735
C58	C	-0.464424	-0.905352	0.302123
C59	C	-0.131090	-0.572019	0.635456
C60	C	0.202243	-0.238685	0.968789
C61	C	-0.534065	-0.905374	0.302129
C62	C	-0.200732	-0.572041	0.635462
C63	C	0.132602	-0.238707	0.968795
C64	C	-0.301623	-0.905487	0.465581
C65	C	0.031710	-0.572154	0.798914
C66	C	0.365043	-0.238820	1.132248
C67	C	-0.301618	-0.905509	0.535222
C68	C	0.031715	-0.572176	0.868556
C69	C	0.365049	-0.238842	1.201889
C70	C	-0.566752	-0.945470	0.262114
C71	C	-0.233419	-0.612137	0.595448
C72	C	0.099914	-0.278804	0.928781
C73	C	-0.632188	-0.945499	0.262128
C74	C	-0.298854	-0.612166	0.595462
C75	C	0.034479	-0.278833	0.928795
C76	C	-0.664933	-0.905421	0.302150
C77	C	-0.331600	-0.572088	0.635484
C78	C	0.001733	-0.238755	0.968817
C79	C	-0.632238	-0.865322	0.342172
C80	C	-0.298905	-0.531989	0.675506
C81	C	0.034429	-0.198656	1.008839
C82	C	-0.566804	-0.865299	0.342162
C83	C	-0.233470	-0.531965	0.675495
C84	C	0.099863	-0.198632	1.008828
C85	C	-0.768664	-0.849006	0.307041
C86	C	-0.435331	-0.515673	0.640374
C87	C	-0.101997	-0.182340	0.973708
C88	C	-0.834097	-0.849029	0.307047
C89	C	-0.500764	-0.515696	0.640381
C90	C	-0.167430	-0.182362	0.973714
C91	C	-0.866754	-0.905494	0.302187
C92	C	-0.533421	-0.572161	0.635520
C93	C	-0.200087	-0.238828	0.968854
C94	C	-0.833970	-0.961939	0.297307
C95	C	-0.500637	-0.628605	0.630640
C96	C	-0.167303	-0.295272	0.963974
C97	C	-0.768536	-0.961915	0.297296
C98	C	-0.435202	-0.628582	0.630630
C99	C	-0.101869	-0.295248	0.963963
C100	C	-0.735886	-0.905443	0.302167
C101	C	-0.402552	-0.572109	0.635500
C102	C	-0.069219	-0.238776	0.968833
C103	C	-0.970394	-0.945625	0.262186
C104	C	-0.637060	-0.612292	0.595519
C105	C	-0.303727	-0.278959	0.928852
C106	C	-1.035830	-0.945655	0.262204
C107	C	-0.702497	-0.612322	0.595537
C108	C	-0.369164	-0.278989	0.928871
C109	C	-1.035879	-0.865473	0.342245
C110	C	-0.702546	-0.532139	0.675578
C111	C	-0.369213	-0.198806	1.008912
C112	C	-0.970444	-0.865448	0.342230
C113	C	-0.637111	-0.532115	0.675563
C114	C	-0.303777	-0.198782	1.008896
C115	C	-0.937705	-0.905524	0.302197
C116	C	-0.604372	-0.572190	0.635530
C117	C	-0.271039	-0.238857	0.968863
C118	C	-0.138213	-0.905535	0.302206
C119	C	0.195121	-0.572202	0.635540
C120	C	0.528454	-0.238868	0.968873
C121	C	-0.068571	-0.905578	0.302227
C122	C	0.264762	-0.572244	0.635560
C123	C	0.598095	-0.238911	0.968894
C124	C	-0.301603	-1.068858	0.302231
C125	C	0.031730	-0.735525	0.635564
C126	C	0.365063	-0.402192	0.968898
C127	C	-0.301589	-1.138499	0.302262
C128	C	0.031744	-0.805166	0.635595
C129	C	0.365077	-0.471833	0.968929
C130	C	-0.341822	-0.640297	0.342070
C131	C	-0.008488	-0.306964	0.675403
C132	C	0.324845	0.026369	1.008737
C133	C	-0.341806	-0.574862	0.342098
C134	C	-0.008473	-0.241529	0.675431
C135	C	0.324860	0.091805	1.008765
C136	C	-0.301674	-0.542138	0.302113
C137	C	0.031659	-0.208804	0.635447
C138	C	0.364992	0.124529	0.968780
C139	C	-0.261543	-0.574854	0.262109
C140	C	0.071790	-0.241521	0.595442
C141	C	0.405124	0.091813	0.928776
C142	C	-0.261555	-0.640288	0.262087
C143	C	0.071778	-0.306955	0.595420
C144	C	0.405111	0.026378	0.928753
C145	C	-0.296627	-0.438413	0.245708
C146	C	0.036707	-0.105080	0.579042
C147	C	0.370040	0.228254	0.912375
C148	C	-0.296619	-0.372980	0.245730
C149	C	0.036714	-0.039647	0.579063
C150	C	0.370048	0.293687	0.912396
C151	C	-0.301633	-0.340317	0.302182
C152	C	0.031700	-0.006984	0.635516
C153	C	0.365033	0.326350	0.968849
C154	C	-0.306668	-0.373095	0.358616
C155	C	0.026665	-0.039762	0.691949
C156	C	0.359998	0.293572	1.025283
C157	C	-0.306681	-0.438529	0.358594
C158	C	0.026653	-0.105196	0.691927
C159	C	0.359986	0.228138	1.025260
C160	C	-0.301656	-0.471185	0.302133
C161	C	0.031677	-0.137852	0.635467
C162	C	0.365010	0.195481	0.968800
C163	C	-0.341742	-0.236656	0.342218
C164	C	-0.008409	0.096677	0.675551
C165	C	0.324924	0.430011	1.008884
C166	C	-0.341723	-0.171219	0.342247
C167	C	-0.008389	0.162114	0.675580
C168	C	0.324944	0.495447	1.008913
C169	C	-0.261462	-0.171213	0.262252
C170	C	0.071871	0.162121	0.595585
C171	C	0.405204	0.495454	0.928919
C172	C	-0.261479	-0.236648	0.262229
C173	C	0.071854	0.096685	0.595562
C174	C	0.405188	0.430019	0.928895
C175	C	-0.301622	-0.269366	0.302211
C176	C	0.031711	0.063968	0.635544
C177	C	0.365044	0.397301	0.968877
C178	C	-0.301603	-0.905419	0.139370
C179	C	0.031730	-0.572086	0.472703
C180	C	0.365063	-0.238752	0.806037
C181	C	-0.301432	-0.905518	0.069729
C182	C	0.031901	-0.572185	0.403062
C183	C	0.365234	-0.238852	0.736396
C184	C	-0.261535	-0.945605	0.567966
C185	C	0.071799	-0.612272	0.901300
C186	C	0.405132	-0.278939	1.234633
C187	C	-0.261508	-0.945604	0.633402
C188	C	0.071826	-0.612271	0.966735
C189	C	0.405159	-0.278938	1.300068
C190	C	-0.301575	-0.905514	0.666091
C191	C	0.031758	-0.572181	0.999424
C192	C	0.365091	-0.238847	1.332757
C193	C	-0.341661	-0.865410	0.633339
C194	C	-0.008328	-0.532077	0.966672
C195	C	0.325006	-0.198743	1.300005
C196	C	-0.341682	-0.865407	0.567904
C197	C	-0.008349	-0.532074	0.901238
C198	C	0.324984	-0.198741	1.234571
C199	C	-0.357992	-0.900538	0.769752
C200	C	-0.024659	-0.567205	1.103085
C201	C	0.308675	-0.233871	1.436418
C202	C	-0.357972	-0.900545	0.835185
C203	C	-0.024638	-0.567211	1.168518
C204	C	0.308695	-0.233878	1.501851
C205	C	-0.301509	-0.905518	0.867911
C206	C	0.031824	-0.572184	1.201245
C207	C	0.365158	-0.238851	1.534578
C208	C	-0.245065	-0.910497	0.835197
C209	C	0.088268	-0.577164	1.168531
C210	C	0.421602	-0.243830	1.501864
C211	C	-0.245086	-0.910495	0.769763
C212	C	0.088247	-0.577161	1.103097
C213	C	0.421580	-0.243828	1.436430
C214	C	-0.301556	-0.905512	0.737043
C215	C	0.031777	-0.572179	1.070376
C216	C	0.365110	-0.238845	1.403710
C217	C	-0.261393	-0.945615	0.971608
C218	C	0.071940	-0.612282	1.304941
C219	C	0.405273	-0.278949	1.638275
C220	C	-0.261365	-0.945610	1.037045
C221	C	0.071968	-0.612277	1.370378
C222	C	0.405301	-0.278943	1.703711
C223	C	-0.341524	-0.865419	1.036980
C224	C	-0.008191	-0.532085	1.370314
C225	C	0.325142	-0.198752	1.703647
C226	C	-0.341547	-0.865421	0.971545
C227	C	-0.008213	-0.532087	1.304878
C228	C	0.325120	-0.198754	1.638212
C229	C	-0.301482	-0.905522	0.938863
C230	C	0.031851	-0.572189	1.272196
C231	C	0.365185	-0.238856	1.605529
H232	H	-0.540098	-0.978103	0.229519
H233	H	-0.206765	-0.644770	0.562852
H234	H	0.126568	-0.311437	0.896185
H235	H	-0.199128	-0.914547	0.743130
H236	H	0.134206	-0.581214	1.076463
H237	H	0.467539	-0.247881	1.409797
C238	C	-0.420110	-0.895079	0.733758
C239	C	-0.086777	-0.561746	1.067092
C240	C	0.246556	-0.228412	1.400425
N241	N	-0.466897	-0.890972	0.706649
N242	N	-0.133564	-0.557639	1.039983
N243	N	0.199770	-0.224305	1.373316
H244	H	-0.292523	-0.346297	0.199778
H245	H	0.040810	-0.012964	0.533111
H246	H	0.374144	0.320369	0.866445
H247	H	-0.540189	-0.832647	0.374747
H248	H	-0.206856	-0.499314	0.708080
H249	H	0.126478	-0.165980	1.041414
H250	H	-0.742081	-0.803022	0.311001
H251	H	-0.408748	-0.469689	0.644335
H252	H	-0.075414	-0.136355	0.977668
C253	C	-0.668259	-0.821234	0.386194
C254	C	-0.334926	-0.487901	0.719528
C255	C	-0.001593	-0.154567	1.052861
N256	N	-0.695391	-0.788026	0.419354
N257	N	-0.362057	-0.454692	0.752687
N258	N	-0.028724	-0.121359	1.086020
H259	H	-0.374509	-0.666932	0.374627
H260	H	-0.041175	-0.333599	0.707961
H261	H	0.292158	-0.000265	1.041294
H262	H	-0.374395	-0.144589	0.374824
H263	H	-0.041061	0.188744	0.708158
H264	H	0.292272	0.522078	1.041491
C265	C	-0.420061	-0.895067	0.871164
C266	C	-0.086727	-0.561734	1.204497
C267	C	0.246606	-0.228400	1.537830
N268	N	-0.466828	-0.890940	0.898262
N269	N	-0.133495	-0.557606	1.231595
N270	N	0.199839	-0.224273	1.564928
H271	H	-0.374322	-0.832753	0.541245
H272	H	-0.040989	-0.499420	0.874578
H273	H	0.292344	-0.166087	1.207911
H274	H	-0.374479	-0.548226	0.374674
H275	H	-0.041146	-0.214892	0.708008
H276	H	0.292187	0.118441	1.041341
C277	C	-0.217398	-0.538856	0.218126
C278	C	0.115936	-0.205523	0.551459
C279	C	0.449269	0.127811	0.884792
N280	N	-0.184144	-0.511742	0.184997
N281	N	0.149189	-0.178409	0.518331
N282	N	0.482522	0.154924	0.851664
H283	H	-0.199088	-0.914548	0.861842
H284	H	0.134246	-0.581214	1.195176
H285	H	0.467579	-0.247881	1.528509
C286	C	-0.385733	-0.821307	0.669298
C287	C	-0.052399	-0.487974	1.002631
C288	C	0.280934	-0.154641	1.335964
N289	N	-0.418926	-0.788086	0.696382
N290	N	-0.085593	-0.454752	1.029715
N291	N	0.247740	-0.121419	1.363049
H292	H	-0.228783	-0.144569	0.229699
H293	H	0.104550	0.188764	0.563032
H294	H	0.437884	0.522098	0.896365
C295	C	-0.869887	-1.024056	0.291965
C296	C	-0.536554	-0.690723	0.625299
C297	C	-0.203221	-0.357389	0.958632
N298	N	-0.896943	-1.070841	0.287943
N299	N	-0.563610	-0.737508	0.621276
N300	N	-0.230277	-0.404175	0.954609
H301	H	-0.658807	-0.978153	0.229544
H302	H	-0.325474	-0.644819	0.562877
H303	H	0.007860	-0.311486	0.896211
C304	C	-0.217267	-0.989720	1.073063
C305	C	0.116066	-0.656387	1.406396
C306	C	0.449400	-0.323054	1.739730
N307	N	-0.184052	-1.022946	1.100193
N308	N	0.149281	-0.689612	1.433526
N309	N	0.482615	-0.356279	1.766859
H310	H	-0.228880	-0.666919	0.229513
H311	H	0.104453	-0.333586	0.562846
H312	H	0.437787	-0.000252	0.896179
H313	H	-0.310751	-0.346502	0.404585
H314	H	0.022583	-0.013169	0.737919
H315	H	0.355916	0.320164	1.071252
C316	C	-0.732476	-1.024002	0.291928
C317	C	-0.399142	-0.690669	0.625262
C318	C	-0.065809	-0.357336	0.958595
N319	N	-0.705315	-1.070768	0.287886
N320	N	-0.371982	-0.737434	0.621219
N321	N	-0.038649	-0.404101	0.954553
H322	H	-0.310778	-0.465214	0.404543
H323	H	0.022555	-0.131881	0.737877
H324	H	0.355888	0.201452	1.071210
C325	C	-0.385893	-0.272648	0.386205
C326	C	-0.052560	0.060686	0.719539
C327	C	0.280774	0.394019	1.052872
N328	N	-0.419146	-0.299755	0.419339
N329	N	-0.085813	0.033578	0.752672
N330	N	0.247520	0.366912	1.086005
H331	H	-0.943737	-0.978259	0.229590
H332	H	-0.610403	-0.644926	0.562924
H333	H	-0.277070	-0.311593	0.896257
H334	H	-0.860785	-0.803068	0.311015
H335	H	-0.527451	-0.469735	0.644348
H336	H	-0.194118	-0.136402	0.977681
C337	C	-1.071786	-0.989766	0.218182
C338	C	-0.738453	-0.656433	0.551515
C339	C	-0.405120	-0.323100	0.884849
N340	N	-1.098869	-1.022990	0.185023
N341	N	-0.765536	-0.689657	0.518356
N342	N	-0.432202	-0.356324	0.851689
C343	C	-0.217345	-0.272629	0.218217
C344	C	0.115988	0.060705	0.551551
C345	C	0.449322	0.394038	0.884884
N346	N	-0.184101	-0.299729	0.185067
N347	N	0.149232	0.033604	0.518400
N348	N	0.482566	0.366937	0.851733
C349	C	-0.934486	-0.821351	0.386262
C350	C	-0.601153	-0.488018	0.719595
C351	C	-0.267820	-0.154685	1.052929
N352	N	-0.907404	-0.788143	0.419437
N353	N	-0.574070	-0.454809	0.752770
N354	N	-0.240737	-0.121476	1.086103
C355	C	-0.291113	-0.474336	0.183601
C356	C	0.042220	-0.141002	0.516935
C357	C	0.375554	0.192331	0.850268
N358	N	-0.286961	-0.501392	0.136824
N359	N	0.046372	-0.168058	0.470157
N360	N	0.379705	0.165275	0.803490
H361	H	-0.228910	-0.978258	0.541360
H362	H	0.104423	-0.644925	0.874694
H363	H	0.437756	-0.311592	1.208027
C364	C	-0.385645	-0.821314	0.935525
C365	C	-0.052311	-0.487980	1.268859
C366	C	0.281022	-0.154647	1.602192
N367	N	-0.418860	-0.788089	0.908395
N368	N	-0.085526	-0.454755	1.241729
N369	N	0.247807	-0.121422	1.575062
H370	H	-1.062540	-0.832843	0.374834
H371	H	-0.729207	-0.499510	0.708168
H372	H	-0.395873	-0.166176	1.041501
C373	C	-0.217316	-0.989722	0.935655
C374	C	0.116017	-0.656388	1.268989
C375	C	0.449350	-0.323055	1.602322
N376	N	-0.184116	-1.022942	0.908578
N377	N	0.149217	-0.689609	1.241911
N378	N	0.482551	-0.356276	1.575244
C379	C	-0.217415	-0.989719	0.669427
C380	C	0.115918	-0.656386	1.002761
C381	C	0.449251	-0.323052	1.336094
N382	N	-0.184206	-1.022948	0.696560
N383	N	0.149127	-0.689614	1.029894
N384	N	0.482460	-0.356281	1.363227
C385	C	-0.385600	-0.821319	1.072934
C386	C	-0.052266	-0.487986	1.406268
C387	C	0.281067	-0.154652	1.739601
N388	N	-0.418798	-0.788102	1.100018
N389	N	-0.085465	-0.454768	1.433352
N390	N	0.247869	-0.121435	1.766685
