data_functionalizedCrystal
_audit_creation_method	'MofGen! by Chris Wilmer'
_symmetry_space_group_name_H-M	'P1'
_symmetry_Int_Tables_number	1
_symmetry_cell_setting	triclinic
loop_
_symmetry_equiv_pos_as_xyz
  x,y,z
_cell_length_a	15.944545
_cell_length_b	23.532407
_cell_length_c	14.421503
_cell_angle_alpha	89.999621
_cell_angle_beta	89.995153
_cell_angle_gamma	83.172425
loop_
_atom_site_label
_atom_site_type_symbol
_atom_site_fract_x
_atom_site_fract_y
_atom_site_fract_z
O1	O	1.113914	0.073425	-0.077061
O2	O	1.447247	0.406758	0.256272
O3	O	1.780581	0.740092	0.589605
O4	O	0.869287	0.082484	-0.077078
O5	O	1.202620	0.415818	0.256256
O6	O	1.535954	0.749151	0.589589
O7	O	0.998977	-0.004949	-0.077052
O8	O	1.332311	0.328385	0.256281
O9	O	1.665644	0.661718	0.589615
O10	O	0.984224	0.160858	-0.077087
O11	O	1.317557	0.494191	0.256246
O12	O	1.650890	0.827525	0.589580
O13	O	0.998956	-0.004936	0.077171
O14	O	1.332289	0.328398	0.410505
O15	O	1.665622	0.661731	0.743838
O16	O	0.869266	0.082497	0.077146
O17	O	1.202599	0.415831	0.410479
O18	O	1.535932	0.749164	0.743812
O19	O	1.113892	0.073438	0.077162
O20	O	1.447226	0.406771	0.410495
O21	O	1.780559	0.740105	0.743829
Cu22	Cu	0.991577	0.077969	0.091236
Cu23	Cu	1.324910	0.411302	0.424569
Cu24	Cu	1.658244	0.744635	0.757902
Cu25	Cu	0.991602	0.077953	-0.091151
Cu26	Cu	1.324936	0.411287	0.242182
Cu27	Cu	1.658269	0.744620	0.575515
O28	O	0.984202	0.160871	0.077136
O29	O	1.317536	0.494204	0.410470
O30	O	1.650869	0.827538	0.743803
C31	C	0.837986	0.082115	0.000032
C32	C	1.171319	0.415449	0.333366
C33	C	1.504652	0.748782	0.666699
C34	C	0.744749	0.080990	0.000027
C35	C	1.078082	0.414323	0.333360
C36	C	1.411415	0.747656	0.666694
C37	C	0.998591	-0.026160	0.000062
C38	C	1.331924	0.307174	0.333395
C39	C	1.665257	0.640507	0.666729
C40	C	0.997461	-0.089381	0.000069
C41	C	1.330795	0.243952	0.333402
C42	C	1.664128	0.577286	0.666736
C43	C	0.474601	0.023431	0.000049
C44	C	0.807934	0.356765	0.333382
C45	C	1.141268	0.690098	0.666715
C46	C	0.524938	0.051188	0.076085
C47	C	0.858271	0.384521	0.409419
C48	C	1.191605	0.717854	0.742752
C49	C	0.409139	0.076975	0.000044
C50	C	0.742472	0.410309	0.333377
C51	C	1.075805	0.743642	0.666710
C52	C	0.524940	0.051189	-0.075967
C53	C	0.858273	0.384523	0.257367
C54	C	1.191606	0.717856	0.590700
C55	C	0.574036	0.078945	0.000034
C56	C	0.907369	0.412278	0.333367
C57	C	1.240702	0.745612	0.666700
C58	C	0.458248	0.104718	0.076143
C59	C	0.791581	0.438051	0.409476
C60	C	1.124914	0.771384	0.742810
C61	C	0.458246	0.104711	-0.075978
C62	C	0.791579	0.438045	0.257356
C63	C	1.124913	0.771378	0.590689
C64	C	0.508550	0.132507	0.000078
C65	C	0.841883	0.465840	0.333411
C66	C	1.175217	0.799174	0.666744
C67	C	0.314146	0.075839	0.000050
C68	C	0.647479	0.409173	0.333383
C69	C	0.980813	0.742506	0.666717
C70	C	0.669025	0.080085	0.000034
C71	C	1.002359	0.413418	0.333367
C72	C	1.335692	0.746752	0.666701
C73	C	1.067124	-0.488215	0.000023
C74	C	1.400458	-0.154882	0.333356
C75	C	1.733791	0.178451	0.666690
C76	C	1.066075	-0.547620	0.000016
C77	C	1.399408	-0.214286	0.333349
C78	C	1.732742	0.119047	0.666682
O79	O	1.130653	-0.584115	-0.000014
O80	O	1.463987	-0.250782	0.333319
O81	O	1.797320	0.082552	0.666653
N82	N	0.988974	-0.570543	0.000011
N83	N	1.322308	-0.237210	0.333345
N84	N	1.655641	0.096123	0.666678
C85	C	0.912918	-0.534059	0.000005
C86	C	1.246251	-0.200726	0.333338
C87	C	1.579585	0.132608	0.666671
O88	O	0.847241	-0.559012	-0.000001
O89	O	1.180575	-0.225679	0.333333
O90	O	1.513908	0.107655	0.666666
C91	C	0.913968	-0.474656	0.000005
C92	C	1.247302	-0.141323	0.333338
C93	C	1.580635	0.192011	0.666672
C94	C	0.991074	-0.451736	0.000019
C95	C	1.324407	-0.118402	0.333352
C96	C	1.657741	0.214931	0.666686
C97	C	1.144224	-0.465295	0.000036
C98	C	1.477557	-0.131961	0.333369
C99	C	1.810890	0.201372	0.666702
C100	C	1.145273	-0.405894	0.000045
C101	C	1.478606	-0.072561	0.333378
C102	C	1.811939	0.260772	0.666711
C103	C	1.069222	-0.369415	0.000041
C104	C	1.402556	-0.036082	0.333374
C105	C	1.735889	0.297252	0.666707
C106	C	0.992123	-0.392336	0.000028
C107	C	1.325456	-0.059002	0.333361
C108	C	1.658789	0.274331	0.666694
C109	C	0.837913	-0.438173	-0.000008
C110	C	1.171246	-0.104840	0.333325
C111	C	1.504579	0.228494	0.666658
C112	C	0.838970	-0.378766	-0.000009
C113	C	1.172303	-0.045433	0.333325
C114	C	1.505636	0.287900	0.666658
C115	C	0.916075	-0.355846	0.000005
C116	C	1.249409	-0.022513	0.333339
C117	C	1.582742	0.310820	0.666672
C118	C	0.917121	-0.296456	0.000033
C119	C	1.250455	0.036877	0.333366
C120	C	1.583788	0.370211	0.666699
N121	N	0.994222	-0.273532	0.000037
N122	N	1.327555	0.059801	0.333370
N123	N	1.660889	0.393134	0.666704
C124	C	1.070272	-0.310012	0.000041
C125	C	1.403606	0.023322	0.333374
C126	C	1.736939	0.356655	0.666708
C127	C	0.910718	-0.658810	0.000002
C128	C	1.244052	-0.325477	0.333335
C129	C	1.577385	0.007857	0.666669
C130	C	0.909667	-0.718212	0.000008
C131	C	1.243001	-0.384879	0.333341
C132	C	1.576334	-0.051545	0.666675
C133	C	1.062825	-0.731768	0.000018
C134	C	1.396158	-0.398435	0.333351
C135	C	1.729491	-0.065102	0.666684
C136	C	1.063875	-0.672365	0.000018
C137	C	1.397208	-0.339032	0.333351
C138	C	1.730542	-0.005699	0.666685
C139	C	0.987819	-0.635886	0.000006
C140	C	1.321152	-0.302553	0.333340
C141	C	1.654486	0.030780	0.666673
C142	C	1.072470	-0.185267	0.000060
C143	C	1.405803	0.148067	0.333394
C144	C	1.739136	0.481400	0.666727
C145	C	1.073512	-0.125860	0.000073
C146	C	1.406845	0.207473	0.333406
C147	C	1.740178	0.540806	0.666740
C148	C	0.920355	-0.112309	0.000059
C149	C	1.253688	0.221024	0.333392
C150	C	1.587021	0.554357	0.666725
C151	C	0.919312	-0.171710	0.000051
C152	C	1.252645	0.161623	0.333384
C153	C	1.585979	0.494957	0.666718
C154	C	0.995376	-0.208188	0.000049
C155	C	1.328710	0.125145	0.333382
C156	C	1.662043	0.458479	0.666715
O157	O	0.852577	-0.259926	0.000059
O158	O	1.185910	0.073408	0.333392
O159	O	1.519243	0.406741	0.666725
O160	O	1.135938	-0.285050	0.000034
O161	O	1.469271	0.048283	0.333367
O162	O	1.802605	0.381616	0.666701
C163	C	1.145194	0.073807	0.000050
C164	C	1.478527	0.407140	0.333383
C165	C	1.811861	0.740474	0.666717
C166	C	1.238431	0.074933	0.000049
C167	C	1.571764	0.408266	0.333383
C168	C	1.905097	0.741599	0.666716
C169	C	0.984589	0.182082	0.000020
C170	C	1.317922	0.515415	0.333354
C171	C	1.651255	0.848749	0.666687
C172	C	0.985718	0.245303	0.000007
C173	C	1.319052	0.578637	0.333341
C174	C	1.652385	0.911970	0.666674
N175	N	0.991565	0.077979	0.219517
N176	N	1.324899	0.411313	0.552850
N177	N	1.658232	0.744646	0.886184
N178	N	0.991621	0.077938	-0.219433
N179	N	1.324954	0.411272	0.113901
N180	N	1.658288	0.744605	0.447234
C181	C	0.931586	0.118390	0.469159
C182	C	1.264920	0.451723	0.802492
C183	C	1.598253	0.785057	1.135826
C184	C	1.007393	0.129445	0.530964
C185	C	1.340727	0.462779	0.864297
C186	C	1.674060	0.796112	1.197630
C187	C	0.991586	0.077966	0.408678
C188	C	1.324919	0.411299	0.742012
C189	C	1.658253	0.744632	1.075345
C190	C	0.915798	0.066924	0.530967
C191	C	1.249132	0.400257	0.864301
C192	C	1.582465	0.733590	1.197634
C193	C	0.991599	0.077954	0.591400
C194	C	1.324932	0.411287	0.924733
C195	C	1.658266	0.744621	1.258067
C196	C	1.067431	0.089047	0.469123
C197	C	1.400764	0.422380	0.802456
C198	C	1.734098	0.755713	1.135789
C199	C	0.975786	0.026503	0.469121
C200	C	1.309120	0.359836	0.802454
C201	C	1.642453	0.693169	1.135787
C202	C	1.051648	0.037536	0.530898
C203	C	1.384982	0.370869	0.864231
C204	C	1.718315	0.704203	1.197564
C205	C	0.991577	0.077974	0.303417
C206	C	1.324910	0.411307	0.636751
C207	C	1.658244	0.744641	0.970084
C208	C	0.991616	0.077945	0.696659
C209	C	1.324950	0.411278	1.029992
C210	C	1.658283	0.744612	1.363325
H211	H	0.459336	-0.022681	0.000132
H212	H	0.792670	0.310652	0.333466
H213	H	1.126003	0.643985	0.666799
H214	H	0.554057	0.028562	-0.140246
H215	H	0.887390	0.361895	0.193087
H216	H	1.220723	0.695228	0.526421
H217	H	0.554051	0.028580	0.140378
H218	H	0.887384	0.361913	0.473711
H219	H	1.220717	0.695247	0.807045
H220	H	0.962387	-0.017000	0.441935
H221	H	1.295720	0.316334	0.775268
H222	H	1.629053	0.649667	1.108602
H223	H	0.880898	0.152603	0.442051
H224	H	1.214231	0.485936	0.775384
H225	H	1.547564	0.819270	1.108718
H226	H	1.020769	0.172961	0.558128
H227	H	1.354102	0.506295	0.891461
H228	H	1.687436	0.839628	1.224795
H229	H	0.856526	-0.190372	0.000065
H230	H	1.189860	0.142961	0.333399
H231	H	1.523193	0.476294	0.666732
H232	H	0.429239	0.127319	0.140495
H233	H	0.762572	0.460653	0.473828
H234	H	1.095906	0.793986	0.807162
H235	H	0.523653	0.178656	0.000112
H236	H	0.856986	0.511989	0.333446
H237	H	1.190320	0.845322	0.666779
H238	H	1.136303	-0.107203	0.000087
H239	H	1.469636	0.226131	0.333420
H240	H	1.802970	0.559464	0.666753
H241	H	1.124749	-0.761481	0.000017
H242	H	1.458082	-0.428148	0.333351
H243	H	1.791416	-0.094815	0.666684
H244	H	1.134408	-0.214960	0.000055
H245	H	1.467742	0.118373	0.333388
H246	H	1.801075	0.451706	0.666722
H247	H	0.851701	0.057590	0.558136
H248	H	1.185034	0.390923	0.891469
H249	H	1.518367	0.724256	1.224802
H250	H	1.131542	0.098433	0.442071
H251	H	1.464876	0.431766	0.775404
H252	H	1.798209	0.765100	1.108738
H253	H	0.846880	-0.736868	0.000013
H254	H	1.180214	-0.403535	0.333346
H255	H	1.513547	-0.070201	0.666680
H256	H	1.208060	-0.387239	0.000052
H257	H	1.541393	-0.053905	0.333385
H258	H	1.874727	0.279428	0.666719
H259	H	0.429118	0.127299	-0.140272
H260	H	0.762452	0.460633	0.193061
H261	H	1.095785	0.793966	0.526394
H262	H	0.848781	-0.629111	0.000000
H263	H	1.182114	-0.295778	0.333334
H264	H	1.515447	0.037555	0.666667
H265	H	1.102449	0.003343	0.557836
H266	H	1.435782	0.336677	0.891169
H267	H	1.769115	0.670010	1.224502
H268	H	1.126661	-0.653708	0.000029
H269	H	1.459994	-0.320375	0.333362
H270	H	1.793328	0.012958	0.666695
H271	H	0.777034	-0.349067	-0.000019
H272	H	1.110367	-0.015734	0.333314
H273	H	1.443701	0.317599	0.666647
H274	H	1.206157	-0.494991	0.000036
H275	H	1.539490	-0.161658	0.333369
H276	H	1.872824	0.171676	0.666702
H277	H	0.858437	-0.082597	0.000059
H278	H	1.191770	0.250736	0.333392
H279	H	1.525103	0.584070	0.666725
H280	H	0.775125	-0.456824	-0.000025
H281	H	1.108458	-0.123490	0.333308
H282	H	1.441792	0.209843	0.666641
