data_functionalizedCrystal
_audit_creation_method	'MofGen! by Chris Wilmer'
_symmetry_space_group_name_H-M	'P1'
_symmetry_Int_Tables_number	1
_symmetry_cell_setting	triclinic
loop_
_symmetry_equiv_pos_as_xyz
  x,y,z
_cell_length_a	18.215407
_cell_length_b	12.594516
_cell_length_c	18.215399
_cell_angle_alpha	90.022106
_cell_angle_beta	90.019833
_cell_angle_gamma	90.016501
loop_
_atom_site_label
_atom_site_type_symbol
_atom_site_fract_x
_atom_site_fract_y
_atom_site_fract_z
Zn1	Zn	1.125117	-0.423740	0.416146
Zn2	Zn	1.625117	0.076260	0.916146
Zn3	Zn	1.125045	-0.601738	0.293092
Zn4	Zn	1.625045	-0.101738	0.793092
Zn5	Zn	1.002050	-0.423775	0.293093
Zn6	Zn	1.502050	0.076225	0.793093
Zn7	Zn	1.002035	-0.601679	0.416117
Zn8	Zn	1.502035	-0.101679	0.916117
O9	O	1.063561	-0.512733	0.354612
O10	O	1.563561	-0.012733	0.854612
O11	O	1.228092	-0.447362	0.399834
O12	O	1.728092	0.052638	0.899834
O13	O	1.108705	-0.578170	0.190108
O14	O	1.608705	-0.078170	0.690108
O15	O	1.018412	-0.274825	0.309429
O16	O	1.518412	0.225175	0.809429
O17	O	1.228038	-0.578136	0.309427
O18	O	1.728038	-0.078136	0.809427
O19	O	1.108829	-0.274799	0.399835
O20	O	1.608829	0.225201	0.899835
O21	O	1.018341	-0.447422	0.190109
O22	O	1.518341	0.052578	0.690109
O23	O	0.899063	-0.447364	0.309401
O24	O	1.399063	0.052636	0.809401
O25	O	1.018386	-0.578035	0.519105
O26	O	1.518386	-0.078035	1.019105
O27	O	0.899052	-0.578069	0.399786
O28	O	1.399052	-0.078069	0.899786
O29	O	1.108814	-0.447305	0.519126
O30	O	1.608814	0.052695	1.019126
O31	O	1.108690	-0.750676	0.309399
O32	O	1.608690	-0.250676	0.809399
O33	O	1.018315	-0.750632	0.399785
O34	O	1.518315	-0.250632	0.899785
C35	C	0.872355	-0.512715	0.354591
C36	C	1.372355	-0.012715	0.854591
C37	C	0.790556	-0.512733	0.354599
C38	C	1.290556	-0.012733	0.854599
C39	C	0.602376	-0.580898	0.401604
C40	C	1.102376	-0.080898	0.901604
C41	C	0.525517	-0.580901	0.401613
C42	C	1.025517	-0.080901	0.901613
C43	C	0.525499	-0.444588	0.307636
C44	C	1.025499	0.055412	0.807636
C45	C	0.602356	-0.444580	0.307631
C46	C	1.102356	0.055420	0.807631
C47	C	0.640793	-0.512741	0.354614
C48	C	1.140793	-0.012741	0.854614
C49	C	0.487077	-0.512752	0.354628
C50	C	0.987077	-0.012752	0.854628
C51	C	0.403743	-0.512755	0.354638
C52	C	0.903743	-0.012755	0.854638
C53	C	0.724132	-0.512737	0.354606
C54	C	1.224132	-0.012737	0.854606
C55	C	1.063513	-0.789274	0.354605
C56	C	1.563513	-0.289274	0.854605
C57	C	1.063560	-0.907579	0.354626
C58	C	1.563560	-0.407579	0.854626
C59	C	1.014400	-0.976847	0.403753
C60	C	1.514400	-0.476847	0.903753
C61	C	0.996471	-1.047706	0.336600
C62	C	1.496471	-0.547706	0.836600
C63	C	1.081556	-1.047520	0.421791
C64	C	1.581556	-0.547520	0.921791
C65	C	1.045595	-0.976880	0.287438
C66	C	1.545595	-0.476880	0.787438
C67	C	1.130712	-0.976687	0.372674
C68	C	1.630712	-0.476687	0.872674
C69	C	1.112808	-1.047514	0.305475
C70	C	1.612808	-0.547514	0.805475
C71	C	1.255514	-0.512752	0.354634
C72	C	1.755514	-0.012752	0.854634
C73	C	1.337313	-0.512760	0.354643
C74	C	1.837313	-0.012760	0.854643
C75	C	1.063606	-0.512660	0.546565
C76	C	1.563606	-0.012660	1.046565
C77	C	1.063625	-0.512628	0.628364
C78	C	1.563625	-0.012628	1.128364
C79	C	1.063630	-0.235112	0.354635
C80	C	1.563630	0.264888	0.854635
C81	C	1.063659	-0.116807	0.354645
C82	C	1.563659	0.383193	0.854645
C83	C	1.063559	-0.512729	0.163406
C84	C	1.563559	-0.012729	0.663406
C85	C	1.063683	-0.512461	0.081607
C86	C	1.563683	-0.012461	0.581607
C87	C	1.110728	-0.444493	0.816570
C88	C	1.610728	0.055507	1.316570
C89	C	1.110737	-0.444462	0.893429
C90	C	1.610737	0.055538	1.393429
C91	C	1.016575	-0.580599	0.893396
C92	C	1.516575	-0.080599	1.393396
C93	C	1.016563	-0.580624	0.816538
C94	C	1.516563	-0.080624	1.316538
C95	C	1.063644	-0.512572	0.778127
C96	C	1.563644	-0.012572	1.278127
C97	C	1.063664	-0.512517	0.931844
C98	C	1.563664	-0.012517	1.431844
C99	C	1.063674	-0.512483	1.015177
C100	C	1.563674	-0.012483	1.515177
C101	C	1.063634	-0.512604	0.694788
C102	C	1.563634	-0.012604	1.194788
H103	H	0.494241	-0.636400	0.439878
H104	H	0.994241	-0.136400	0.939878
O105	O	0.488047	-0.378481	0.262022
O106	O	0.988047	0.121519	0.762022
C107	C	0.411972	-0.393082	0.272115
C108	C	0.911972	0.106918	0.772115
H109	H	0.401471	-0.475270	0.296121
H110	H	0.901471	0.024730	0.796121
H111	H	0.390188	-0.330025	0.311381
H112	H	0.890188	0.169975	0.811381
C113	C	0.385380	-0.282245	0.168182
C114	C	0.885380	0.217755	0.668182
C115	C	0.372482	-0.383193	0.197662
C116	C	0.872482	0.116807	0.697662
H117	H	0.361019	-0.276140	0.122258
H118	H	0.861019	0.223860	0.622258
H119	H	0.436632	-0.272404	0.161384
H120	H	0.936632	0.227596	0.661384
H121	H	0.367226	-0.229708	0.200912
H122	H	0.867226	0.270292	0.700912
H123	H	0.390643	-0.435727	0.164937
H124	H	0.890643	0.064273	0.664937
H125	H	0.321231	-0.393042	0.204453
H126	H	0.821231	0.106958	0.704453
H127	H	1.187442	-0.945472	0.387956
H128	H	1.687442	-0.445472	0.887956
H129	H	0.978244	-0.636006	0.924679
H130	H	1.478244	-0.136006	1.424679
H131	H	0.972753	-0.945818	0.445237
H132	H	1.472753	-0.445818	0.945237
O133	O	0.639566	-0.378335	0.261912
O134	O	1.139566	0.121665	0.761912
C135	C	0.589162	-0.318164	0.220454
C136	C	1.089162	0.181836	0.720454
H137	H	0.534367	-0.361759	0.217856
H138	H	1.034367	0.138241	0.717856
H139	H	0.581011	-0.237376	0.247496
H140	H	1.081011	0.262624	0.747496
C141	C	0.686433	-0.249134	0.145336
C142	C	1.186433	0.250866	0.645336
C143	C	0.619134	-0.302683	0.142141
C144	C	1.119134	0.197317	0.642141
H145	H	0.704922	-0.239580	0.097030
H146	H	1.204922	0.260420	0.597030
H147	H	0.720392	-0.289669	0.173269
H148	H	1.220392	0.210331	0.673269
H149	H	0.679632	-0.181817	0.167875
H150	H	1.179632	0.318183	0.667875
H151	H	0.625938	-0.370003	0.119611
H152	H	1.125938	0.129997	0.619611
H153	H	0.585177	-0.262158	0.114202
H154	H	1.085177	0.237842	0.614202
O155	O	0.928731	-1.084876	0.318512
O156	O	1.428731	-0.584876	0.818512
C157	C	0.877011	-1.048857	0.370421
C158	C	1.377011	-0.548857	0.870421
H159	H	0.906236	-1.028913	0.424033
H160	H	1.406236	-0.528913	0.924033
H161	H	0.848421	-0.974855	0.348501
H162	H	1.348421	-0.474855	0.848501
C163	C	0.783760	-1.160914	0.318464
C164	C	1.283760	-0.660914	0.818464
C165	C	0.819655	-1.136427	0.384314
C166	C	1.319655	-0.636427	0.884314
H167	H	0.748378	-1.214928	0.327033
H168	H	1.248378	-0.714928	0.827033
H169	H	0.818603	-1.185178	0.283490
H170	H	1.318603	-0.685178	0.783490
H171	H	0.759942	-1.099238	0.300205
H172	H	1.259942	-0.599238	0.800205
H173	H	0.843480	-1.198098	0.402568
H174	H	1.343480	-0.698098	0.902568
H175	H	0.784814	-1.112175	0.419292
H176	H	1.284814	-0.612175	0.919292
H177	H	1.149077	-0.389024	0.924726
H178	H	1.649077	0.110976	1.424726
H179	H	1.030348	-0.945979	0.230630
H180	H	1.530348	-0.445979	0.730630
H181	H	0.978215	-0.636061	0.785237
H182	H	1.478215	-0.136061	1.285237
H183	H	1.154423	-1.078347	0.263891
H184	H	1.654423	-0.578347	0.763891
O185	O	1.099715	-1.084360	0.489577
O186	O	1.599715	-0.584360	0.989577
C187	C	1.111700	-0.997886	0.537282
C188	C	1.611700	-0.497886	1.037282
H189	H	1.126288	-0.924403	0.503797
H190	H	1.626288	-0.424403	1.003797
H191	H	1.059737	-0.981931	0.570358
H192	H	1.559737	-0.481931	1.070358
C193	C	1.157363	-1.114496	0.631074
C194	C	1.657363	-0.614496	1.131074
C195	C	1.175286	-1.024245	0.589947
C196	C	1.675286	-0.524245	1.089947
H197	H	1.196583	-1.130755	0.663562
H198	H	1.696583	-0.630755	1.163562
H199	H	1.149285	-1.172756	0.598935
H200	H	1.649285	-0.672756	1.098935
H201	H	1.114059	-1.101188	0.658630
H202	H	1.614059	-0.601188	1.158630
H203	H	1.218583	-1.037558	0.562384
H204	H	1.718583	-0.537558	1.062384
H205	H	1.183372	-0.965987	0.622082
H206	H	1.683372	-0.465987	1.122082
O207	O	0.639600	-0.647132	0.447315
O208	O	1.139600	-0.147132	0.947315
C209	C	0.589207	-0.707306	0.488779
C210	C	1.089207	-0.207306	0.988779
H211	H	0.534428	-0.663719	0.491377
H212	H	1.034428	-0.163719	0.991377
H213	H	0.581010	-0.788098	0.461742
H214	H	1.081010	-0.288098	0.961742
C215	C	0.686510	-0.776314	0.563896
C216	C	1.186510	-0.276314	1.063896
C217	C	0.619232	-0.722775	0.567092
C218	C	1.119232	-0.222775	1.067092
H219	H	0.705032	-0.785861	0.612202
H220	H	1.205032	-0.285861	1.112202
H221	H	0.720462	-0.735777	0.535959
H222	H	1.220462	-0.235777	1.035959
H223	H	0.679670	-0.843635	0.541361
H224	H	1.179670	-0.343635	1.041361
H225	H	0.626075	-0.655451	0.589617
H226	H	1.126075	-0.155451	1.089617
H227	H	0.585282	-0.763301	0.595034
H228	H	1.085282	-0.263301	1.095034
O229	O	1.156479	-0.378284	0.779371
O230	O	1.656479	0.121716	1.279371
C231	C	1.198051	-0.318207	0.829787
C232	C	1.698051	0.181793	1.329787
H233	H	1.167916	-0.314506	0.884568
H234	H	1.667916	0.185494	1.384568
H235	H	1.253937	-0.357181	0.837968
H236	H	1.753937	0.142819	1.337968
C237	C	1.245688	-0.209481	0.732525
C238	C	1.745688	0.290519	1.232525
C239	C	1.208672	-0.204927	0.799806
C240	C	1.708672	0.295073	1.299806
H241	H	1.252244	-0.139606	0.714030
H242	H	1.752244	0.360394	1.214030
H243	H	1.217683	-0.249958	0.698558
H244	H	1.717683	0.250042	1.198558
H245	H	1.292256	-0.241964	0.739351
H246	H	1.792256	0.258036	1.239351
H247	H	1.162102	-0.172457	0.792977
H248	H	1.662102	0.327543	1.292977
H249	H	1.236670	-0.164442	0.833771
H250	H	1.736670	0.335558	1.333771
