data_functionalizedCrystal
_audit_creation_method	'MofGen! by Chris Wilmer'
_symmetry_space_group_name_H-M	'P1'
_symmetry_Int_Tables_number	1
_symmetry_cell_setting	triclinic
loop_
_symmetry_equiv_pos_as_xyz
  x,y,z
_cell_length_a	10.723024
_cell_length_b	14.044220
_cell_length_c	9.798715
_cell_angle_alpha	89.995876
_cell_angle_beta	89.996609
_cell_angle_gamma	88.828373
loop_
_atom_site_label
_atom_site_type_symbol
_atom_site_fract_x
_atom_site_fract_y
_atom_site_fract_z
O1	O	1.670498	0.133040	-0.113486
O2	O	1.308619	0.145774	-0.113491
O3	O	1.484127	0.001387	-0.113476
O4	O	1.494990	0.277427	-0.113502
O5	O	1.484112	0.001387	0.113507
O6	O	1.308605	0.145774	0.113491
O7	O	1.670483	0.133039	0.113496
Zn8	Zn	1.489542	0.139407	0.149532
Zn9	Zn	1.489561	0.139407	-0.149527
O10	O	1.494976	0.277427	0.113480
C11	C	1.262020	0.144847	-0.000001
C12	C	1.123188	0.142075	-0.000002
C13	C	1.056288	0.222866	-0.000011
C14	C	0.912798	0.220002	-0.000013
C15	C	1.479364	-0.033958	0.000016
C16	C	1.465180	-0.139276	0.000018
C17	C	1.439248	-0.332106	-0.000002
C18	C	1.539849	-0.389085	-0.000005
C19	C	1.525420	-0.496383	-0.000016
C20	C	1.453675	-0.224799	0.000009
C21	C	1.717083	0.133966	0.000002
C22	C	1.855914	0.136739	-0.000005
C23	C	1.499738	0.312772	-0.000015
C24	C	1.513923	0.418090	-0.000025
N25	N	1.489538	0.139406	0.353631
N26	N	1.489573	0.139401	-0.353627
C27	C	1.563202	0.078514	0.421415
C28	C	1.563222	0.078511	0.578578
H29	H	0.913420	0.067571	-0.000006
H30	H	1.626250	0.026381	0.363098
O31	O	1.414154	0.201560	0.577001
C32	C	1.288733	0.185556	0.611814
H33	H	1.284612	0.149069	0.715598
H34	H	1.235421	0.256544	0.616564
H35	H	1.244746	0.138115	0.531434
O36	O	1.114737	0.307893	-0.000256
C37	C	1.189927	0.314482	-0.117791
H38	H	1.153525	0.264755	-0.199956
H39	H	1.186887	0.390857	-0.157254
H40	H	1.290166	0.293165	-0.091206
H41	H	1.426481	0.191531	0.411950
O42	O	1.638644	0.016407	0.648045
C43	C	1.764061	0.032374	0.613174
H44	H	1.773430	0.108276	0.573801
H45	H	1.825418	0.021824	0.707192
H46	H	1.794751	-0.020064	0.530334
O47	O	0.844009	0.302430	0.000036
C48	C	0.716057	0.281221	-0.000003
H49	H	0.702885	0.206669	0.042978
H50	H	0.663023	0.335308	0.065887
H51	H	0.678796	0.284536	-0.108900
H52	H	1.636814	-0.357284	-0.000095
O53	O	1.064940	0.056965	-0.000178
C54	C	1.099913	0.005069	-0.117748
H55	H	1.193176	0.031411	-0.156942
H56	H	1.109058	-0.073814	-0.091304
H57	H	1.025787	0.015643	-0.200066
H58	H	1.342291	-0.363906	-0.000007
