data_functionalizedCrystal
_audit_creation_method	'MofGen! by Chris Wilmer'
_symmetry_space_group_name_H-M	'P1'
_symmetry_Int_Tables_number	1
_symmetry_cell_setting	triclinic
loop_
_symmetry_equiv_pos_as_xyz
  x,y,z
_cell_length_a	15.944551
_cell_length_b	10.654550
_cell_length_c	9.130313
_cell_angle_alpha	90.004369
_cell_angle_beta	89.999033
_cell_angle_gamma	83.991834
loop_
_atom_site_label
_atom_site_type_symbol
_atom_site_fract_x
_atom_site_fract_y
_atom_site_fract_z
O1	O	-1.115460	-0.161966	-0.121646
O2	O	-0.615460	0.338034	0.378354
O3	O	-0.871026	-0.181935	-0.121682
O4	O	-0.371026	0.318065	0.378318
O5	O	-0.998863	0.010862	-0.121654
O6	O	-0.498863	0.510862	0.378346
O7	O	-0.987623	-0.354762	-0.121674
O8	O	-0.487623	0.145238	0.378326
O9	O	-0.998855	0.010867	0.121945
O10	O	-0.498855	0.510867	0.621945
O11	O	-0.871018	-0.181929	0.121916
O12	O	-0.371018	0.318071	0.621916
O13	O	-1.115452	-0.161961	0.121953
O14	O	-0.615452	0.338039	0.621953
Cu15	Cu	-0.993234	-0.171944	0.144177
Cu16	Cu	-0.493234	0.328056	0.644177
Cu17	Cu	-0.993244	-0.171951	-0.143907
Cu18	Cu	-0.493244	0.328049	0.356093
O19	O	-0.987615	-0.354757	0.121925
O20	O	-0.487615	0.145243	0.621925
C21	C	-0.839723	-0.181103	0.000112
C22	C	-0.339723	0.318897	0.500112
C23	C	-0.746463	-0.178618	0.000099
C24	C	-0.246463	0.321382	0.500099
C25	C	-0.998034	0.057652	0.000144
C26	C	-0.498034	0.557652	0.500144
C27	C	-0.995565	0.197063	0.000142
C28	C	-0.495565	0.697063	0.500142
C29	C	-1.146755	-0.162792	0.000155
C30	C	-0.646755	0.337208	0.500155
C31	C	-1.240015	-0.165278	0.000159
C32	C	-0.740015	0.334722	0.500159
C33	C	-0.530880	-0.053173	0.000134
C34	C	-0.030880	0.446827	0.500134
C35	C	-0.470201	-0.111428	-0.119976
C36	C	0.029799	0.388572	0.380024
C37	C	-0.575711	-0.174122	0.000116
C38	C	-0.075711	0.325878	0.500116
C39	C	-0.470215	-0.111451	0.120193
C40	C	0.029785	0.388549	0.620193
C41	C	-0.410773	-0.169770	0.000140
C42	C	0.089227	0.330230	0.500140
C43	C	-0.516261	-0.232410	-0.120093
C44	C	-0.016261	0.267590	0.379907
C45	C	-0.516281	-0.232416	0.120184
C46	C	-0.016281	0.267584	0.620184
C47	C	-0.455620	-0.290759	0.000044
C48	C	0.044380	0.209241	0.500044
C49	C	-0.670728	-0.176625	0.000102
C50	C	-0.170728	0.323375	0.500102
C51	C	-0.315757	-0.167276	0.000144
C52	C	0.184243	0.332724	0.500144
C53	C	-0.988444	-0.401547	0.000123
C54	C	-0.488444	0.098453	0.500123
C55	C	-0.990913	-0.540958	0.000116
C56	C	-0.490913	-0.040958	0.500116
N57	N	-0.993233	-0.171939	0.346800
N58	N	-0.493233	0.328061	0.846800
C59	C	-1.070833	0.277522	0.000152
C60	C	-0.570833	0.777522	0.500152
C61	C	-1.068508	0.408513	0.000134
C62	C	-0.568508	0.908513	0.500134
C63	C	-0.915639	0.378572	0.000101
C64	C	-0.415639	0.878572	0.500101
C65	C	-0.917965	0.247584	0.000108
C66	C	-0.417965	0.747584	0.500108
N67	N	-0.993252	-0.171946	-0.346529
N68	N	-0.493252	0.328054	0.153471
C69	C	-1.049858	-0.086604	0.423464
C70	C	-0.549858	0.413396	0.923464
C71	C	-1.049866	-0.086605	0.576801
C72	C	-0.549866	0.413395	1.076801
C73	C	-0.936620	-0.257285	0.576796
C74	C	-0.436620	0.242715	1.076796
C75	C	-0.936609	-0.257278	0.423461
C76	C	-0.436609	0.242722	0.923461
H77	H	-0.563632	0.047204	-0.000009
H78	H	-0.063632	0.547204	0.499991
C79	C	-1.156194	0.221954	0.000173
C80	C	-0.656194	0.721954	0.500173
N81	N	-1.220491	0.180105	0.000181
N82	N	-0.720491	0.680105	0.500181
H83	H	-0.852460	0.419723	0.000077
H84	H	-0.352460	0.919723	0.500077
H85	H	-0.890520	-0.326768	0.639229
H86	H	-0.390520	0.173232	1.139229
H87	H	-0.423043	-0.391240	-0.000028
H88	H	0.076957	0.108760	0.499972
C89	C	-0.835160	0.159072	0.000090
C90	C	-0.335160	0.659072	0.500090
N91	N	-0.772793	0.092406	0.000070
N92	N	-0.272793	0.592406	0.500070
H93	H	-1.129799	0.474019	0.000140
H94	H	-0.629799	0.974019	0.500140
H95	H	-0.449829	-0.060270	0.221733
H96	H	0.050171	0.439730	0.721733
H97	H	-1.095963	-0.017115	0.361050
H98	H	-0.595963	0.482885	0.861050
H99	H	-0.890494	-0.326768	0.361037
H100	H	-0.390494	0.173232	0.861037
H101	H	-0.536548	-0.283530	-0.221748
H102	H	-0.036548	0.216470	0.278252
C103	C	-0.442631	-0.042320	-0.257145
C104	C	0.057369	0.457680	0.242855
N105	N	-0.421867	0.009741	-0.360454
N106	N	0.078133	0.509741	0.139546
C107	C	-0.543881	-0.301460	0.257367
C108	C	-0.043881	0.198540	0.757367
N109	N	-0.564673	-0.353454	0.360705
N110	N	-0.064673	0.146546	0.860705
H111	H	-1.095975	-0.017116	0.639217
H112	H	-0.595975	0.482884	1.139217
