data_functionalizedCrystal
_audit_creation_method	'MofGen! by Chris Wilmer'
_symmetry_space_group_name_H-M	'P1'
_symmetry_Int_Tables_number	1
_symmetry_cell_setting	triclinic
loop_
_symmetry_equiv_pos_as_xyz
  x,y,z
_cell_length_a	18.215407
_cell_length_b	12.645330
_cell_length_c	18.215407
_cell_angle_alpha	90.010564
_cell_angle_beta	90.006572
_cell_angle_gamma	90.010089
loop_
_atom_site_label
_atom_site_type_symbol
_atom_site_fract_x
_atom_site_fract_y
_atom_site_fract_z
Zn1	Zn	1.125056	-0.422275	0.416081
Zn2	Zn	1.625056	0.077725	0.916081
Zn3	Zn	1.125014	-0.599512	0.293021
Zn4	Zn	1.625014	-0.099512	0.793021
Zn5	Zn	1.002012	-0.422256	0.293034
Zn6	Zn	1.502012	0.077744	0.793034
Zn7	Zn	1.001981	-0.599489	0.416051
Zn8	Zn	1.501981	-0.099489	0.916051
O9	O	1.063516	-0.510883	0.354547
O10	O	1.563516	-0.010883	0.854547
O11	O	1.228035	-0.445804	0.399764
O12	O	1.728035	0.054196	0.899764
O13	O	1.108693	-0.576000	0.190039
O14	O	1.608693	-0.076000	0.690039
O15	O	1.018365	-0.273911	0.309375
O16	O	1.518365	0.226089	0.809375
O17	O	1.228004	-0.576019	0.309353
O18	O	1.728004	-0.076019	0.809353
O19	O	1.108765	-0.273925	0.399777
O20	O	1.608765	0.226075	0.899777
O21	O	1.018324	-0.445770	0.190048
O22	O	1.518324	0.054230	0.690048
O23	O	0.899023	-0.445748	0.309346
O24	O	1.399023	0.054252	0.809346
O25	O	1.018312	-0.575980	0.519040
O26	O	1.518312	-0.075980	1.019040
O27	O	0.899001	-0.575961	0.399726
O28	O	1.399001	-0.075961	0.899726
O29	O	1.108735	-0.445782	0.519062
O30	O	1.608735	0.054218	1.019062
O31	O	1.108663	-0.747857	0.309323
O32	O	1.608663	-0.247857	0.809323
O33	O	1.018271	-0.747840	0.399713
O34	O	1.518271	-0.247840	0.899713
C35	C	0.872309	-0.510851	0.354534
C36	C	1.372309	-0.010851	0.854534
C37	C	0.790511	-0.510862	0.354546
C38	C	1.290511	-0.010862	0.854546
C39	C	0.602332	-0.443199	0.401698
C40	C	1.102332	0.056801	0.901698
C41	C	0.525473	-0.443208	0.401700
C42	C	1.025473	0.056792	0.901700
C43	C	0.525452	-0.578597	0.307409
C44	C	1.025452	-0.078597	0.807409
C45	C	0.602309	-0.578582	0.307404
C46	C	1.102309	-0.078582	0.807404
C47	C	0.640747	-0.510884	0.354552
C48	C	1.140747	-0.010884	0.854552
C49	C	0.487031	-0.510909	0.354560
C50	C	0.987031	-0.010909	0.854560
C51	C	0.403697	-0.510919	0.354563
C52	C	0.903697	-0.010919	0.854563
C53	C	0.724086	-0.510872	0.354549
C54	C	1.224086	-0.010872	0.854549
C55	C	1.063479	-0.786313	0.354530
C56	C	1.563479	-0.286313	0.854530
C57	C	1.063530	-0.904143	0.354547
C58	C	1.563530	-0.404143	0.854547
C59	C	1.120305	-1.071673	0.297567
C60	C	1.620305	-0.571673	0.797567
C61	C	1.120490	-0.949113	0.297707
C62	C	1.620490	-0.449113	0.797707
C63	C	1.084547	-0.948558	0.432120
C64	C	1.584547	-0.448558	0.932120
C65	C	1.084997	-1.071156	0.431818
C66	C	1.584997	-0.571156	0.931818
C67	C	0.985717	-1.071457	0.334717
C68	C	1.485717	-0.571457	0.834717
C69	C	0.986091	-0.948852	0.332978
C70	C	1.486091	-0.448852	0.832978
C71	C	1.255469	-0.510917	0.354560
C72	C	1.755469	-0.010917	0.854560
C73	C	1.337267	-0.510931	0.354566
C74	C	1.837267	-0.010931	0.854566
C75	C	1.063524	-0.510881	0.546500
C76	C	1.563524	-0.010881	1.046500
C77	C	1.063528	-0.510879	0.628299
C78	C	1.563528	-0.010879	1.128299
C79	C	1.063573	-0.234378	0.354581
C80	C	1.563573	0.265622	0.854581
C81	C	1.063597	-0.116548	0.354595
C82	C	1.563597	0.383452	0.854595
C83	C	1.110591	-0.443094	0.893369
C84	C	1.610591	0.056906	1.393369
C85	C	1.110596	-0.443093	0.816510
C86	C	1.610596	0.056907	1.316510
C87	C	1.016444	-0.578682	0.816477
C88	C	1.516444	-0.078682	1.316477
C89	C	1.016443	-0.578687	0.893334
C90	C	1.516443	-0.078687	1.393334
C91	C	1.063515	-0.510887	0.931778
C92	C	1.563515	-0.010887	1.431778
C93	C	1.063521	-0.510882	0.778062
C94	C	1.563521	-0.010882	1.278062
C95	C	1.063526	-0.510882	0.694729
C96	C	1.563526	-0.010882	1.194729
C97	C	1.063511	-0.510888	1.015117
C98	C	1.563511	-0.010888	1.515117
C99	C	1.063504	-0.510904	1.163341
C100	C	1.563504	-0.010904	1.663341
C101	C	1.063508	-0.510889	1.081542
C102	C	1.563508	-0.010889	1.581542
H103	H	0.633588	-0.633701	0.269008
H104	H	1.133588	-0.133701	0.769008
H105	H	1.178173	-0.919714	0.310854
H106	H	1.678173	-0.419714	0.810854
N107	N	1.161370	-0.369983	0.934833
N108	N	1.661370	0.130017	1.434833
H109	H	1.154227	-0.380269	0.989350
H110	H	1.654227	0.119731	1.489350
H111	H	1.149931	-0.294269	0.921408
H112	H	1.649931	0.205731	1.421408
H113	H	1.140829	-0.917781	0.449239
H114	H	1.640829	-0.417781	0.949239
N115	N	1.031512	-0.909972	0.489920
N116	N	1.531512	-0.409972	0.989920
H117	H	1.006661	-0.972542	0.513793
H118	H	1.506661	-0.472542	1.013793
H119	H	0.993302	-0.863200	0.466269
H120	H	1.493302	-0.363200	0.966269
N121	N	0.643789	-0.370186	0.452550
N122	N	1.143789	0.129814	0.952550
H123	H	0.698307	-0.380450	0.445399
H124	H	1.198307	0.119550	0.945399
H125	H	0.630357	-0.386814	0.505088
H126	H	1.130357	0.113186	1.005088
H127	H	0.494199	-0.388090	0.440090
H128	H	0.994199	0.111910	0.940090
N129	N	0.483994	-0.651608	0.256556
N130	N	0.983994	-0.151608	0.756556
H131	H	0.429475	-0.641350	0.263713
H132	H	0.929475	-0.141350	0.763713
H133	H	0.497427	-0.727343	0.267918
H134	H	0.997427	-0.227343	0.767918
N135	N	1.161374	-0.369975	0.775086
N136	N	1.661374	0.130025	1.275086
H137	H	1.149955	-0.294231	0.788469
H138	H	1.649955	0.205769	1.288469
H139	H	1.154213	-0.380351	0.720576
H140	H	1.654213	0.119649	1.220576
H141	H	1.107342	-0.919085	0.240187
H142	H	1.607342	-0.419085	0.740187
N143	N	1.103108	-1.110768	0.221148
N144	N	1.603108	-0.610768	0.721148
H145	H	1.058395	-1.157954	0.222749
H146	H	1.558395	-0.657954	0.722749
H147	H	1.146344	-1.152052	0.201575
H148	H	1.646344	-0.652052	0.701575
H149	H	0.978118	-0.633882	0.785167
H150	H	1.478118	-0.133882	1.285167
N151	N	1.196305	-1.112388	0.314778
N152	N	1.696305	-0.612388	0.814778
H153	H	1.194161	-1.159774	0.359355
H154	H	1.694161	-0.659774	0.859355
H155	H	1.230051	-1.050732	0.324978
H156	H	1.730051	-0.550732	0.824978
N157	N	1.160404	-1.108947	0.454103
N158	N	1.660404	-0.608947	0.954103
H159	H	1.172250	-1.081992	0.504941
H160	H	1.672250	-0.581992	1.004941
H161	H	1.197983	-1.081348	0.418122
H162	H	1.697983	-0.581348	0.918122
N163	N	1.032665	-1.110482	0.490020
N164	N	1.532665	-0.610482	0.990020
H165	H	1.048840	-1.083601	0.539671
H166	H	1.548840	-0.583601	1.039671
H167	H	1.032572	-1.190350	0.490213
H168	H	1.532572	-0.690350	0.990213
N169	N	0.960393	-1.112492	0.261094
N170	N	1.460393	-0.612492	0.761094
H171	H	0.999153	-1.160734	0.239879
H172	H	1.499153	-0.660734	0.739879
H173	H	0.951976	-1.051032	0.226709
H174	H	1.451976	-0.551032	0.726709
H175	H	0.970244	-0.919831	0.275890
H176	H	1.470244	-0.419831	0.775890
N177	N	0.927097	-0.908299	0.383946
N178	N	1.427097	-0.408299	0.883946
H179	H	0.949836	-0.860162	0.421914
H180	H	1.449836	-0.360162	0.921914
H181	H	0.902610	-0.969978	0.409264
H182	H	1.402610	-0.469978	0.909264
H183	H	0.943466	-1.100479	0.376253
H184	H	1.443466	-0.600479	0.876253
N185	N	0.965668	-0.651807	0.934774
N186	N	1.465668	-0.151807	1.434774
H187	H	0.977084	-0.727552	0.921390
H188	H	1.477084	-0.227552	1.421390
H189	H	0.913107	-0.635249	0.921383
H190	H	1.413107	-0.135249	1.421383
