data_functionalizedCrystal
_audit_creation_method	'MofGen! by Chris Wilmer'
_symmetry_space_group_name_H-M	'P1'
_symmetry_Int_Tables_number	1
_symmetry_cell_setting	triclinic
loop_
_symmetry_equiv_pos_as_xyz
  x,y,z
_cell_length_a	14.908941
_cell_length_b	14.908579
_cell_length_c	14.908308
_cell_angle_alpha	96.363296
_cell_angle_beta	96.369340
_cell_angle_gamma	96.420196
loop_
_atom_site_label
_atom_site_type_symbol
_atom_site_fract_x
_atom_site_fract_y
_atom_site_fract_z
Zn1	Zn	-1.335351	0.308089	0.450950
Zn2	Zn	-1.335244	0.450741	0.308333
Zn3	Zn	-1.192722	0.308127	0.308326
Zn4	Zn	-1.174079	0.469285	0.469495
O5	O	-1.259349	0.384061	0.384276
O6	O	-1.462476	0.319236	0.424272
O7	O	-1.324096	0.424079	0.181197
O8	O	-1.219490	0.180976	0.319482
O9	O	-1.462397	0.424042	0.319493
O10	O	-1.324278	0.180949	0.424266
O11	O	-1.219386	0.319300	0.181192
O12	O	-1.063110	0.337282	0.337464
O13	O	-1.187714	0.455647	0.594170
O14	O	-1.049413	0.455684	0.455874
O15	O	-1.306200	0.337217	0.580545
O16	O	-1.306018	0.580347	0.337476
O17	O	-1.187610	0.593971	0.455881
C18	C	-1.023296	0.398500	0.398682
C19	C	-0.922308	0.404700	0.404867
C20	C	-0.746755	0.292894	0.293342
C21	C	-0.651869	0.298717	0.299151
C22	C	-0.637648	0.422171	0.422289
C23	C	-0.732534	0.416349	0.416480
C24	C	-0.787085	0.351707	0.352006
C25	C	-0.881972	0.345881	0.346202
C26	C	-0.867750	0.469339	0.469335
C27	C	-0.772864	0.475162	0.475143
C28	C	-1.244803	0.620126	0.398710
C29	C	-1.238661	0.721113	0.404910
C30	C	-1.244889	0.398496	0.621244
C31	C	-1.238727	0.404648	0.722226
C32	C	-0.496325	0.369557	0.369807
C33	C	-0.597312	0.363352	0.363623
C34	C	-1.350532	0.896628	0.293351
C35	C	-1.344764	0.991513	0.299174
C36	C	-1.221364	1.005771	0.422381
C37	C	-1.227131	0.910885	0.416558
C38	C	-1.291717	0.856317	0.352041
C39	C	-1.297479	0.761430	0.346214
C40	C	-1.174083	0.775689	0.469425
C41	C	-1.168316	0.870574	0.475247
C42	C	-1.273969	1.147074	0.369816
C43	C	-1.280182	1.046088	0.363685
C44	C	-1.273809	0.369613	0.148223
C45	C	-1.280162	0.363194	0.047215
C46	C	-1.350527	0.292865	0.897793
C47	C	-1.344741	0.298642	0.992674
C48	C	-1.221364	0.421973	1.006870
C49	C	-1.227151	0.416196	0.911989
C50	C	-1.291735	0.351641	0.857454
C51	C	-1.297525	0.345869	0.762571
C52	C	-1.174145	0.469196	0.776768
C53	C	-1.168359	0.474972	0.871649
H54	H	-0.900597	0.517225	0.517107
H55	H	-0.728437	0.527794	0.527634
C56	C	-1.109450	0.533846	0.732406
C57	C	-1.044520	0.494862	0.669139
C58	C	-0.979821	0.559510	0.624781
C59	C	-0.980051	0.663143	0.643690
C60	C	-1.044983	0.702132	0.706960
C61	C	-1.109682	0.637484	0.751317
H62	H	-1.044347	0.418143	0.655139
H63	H	-0.931754	0.530647	0.577945
H64	H	-0.932157	0.710999	0.610854
H65	H	-1.045156	0.778852	0.720960
H66	H	-1.157750	0.666347	0.798154
H67	H	-1.403114	0.852197	0.240813
C68	C	-1.409460	1.035856	0.234613
C69	C	-1.480498	0.975829	0.163649
C70	C	-1.545197	1.020172	0.099086
C71	C	-1.538858	1.124541	0.105487
C72	C	-1.467817	1.184575	0.176453
C73	C	-1.403118	1.140232	0.241016
H74	H	-1.485193	0.898563	0.158908
H75	H	-1.597786	0.975731	0.046552
H76	H	-1.586753	1.157367	0.057693
H77	H	-1.463122	1.261841	0.181194
H78	H	-1.350529	1.184673	0.293550
C79	C	-1.150341	0.493008	1.066848
C80	C	-1.048304	0.491165	1.059659
C81	C	-0.977289	0.562216	1.119629
C82	C	-1.008311	0.635111	1.186788
C83	C	-1.110354	0.636957	1.193980
C84	C	-1.181369	0.565906	1.134010
H85	H	-1.025334	0.437201	1.009942
H86	H	-0.901750	0.560849	1.114305
H87	H	-0.955742	0.687708	1.231182
H88	H	-1.133324	0.690921	1.243698
H89	H	-1.256908	0.567273	1.139334
H90	H	-1.126189	0.742858	0.517211
H91	H	-0.926386	0.293241	0.293708
H92	H	-1.168787	1.050216	0.474913
H93	H	-1.350065	0.717000	0.293679
C94	C	-0.806769	0.221785	0.222434
C95	C	-0.799617	0.119771	0.224509
C96	C	-0.859632	0.048659	0.153603
C97	C	-0.926799	0.079561	0.080621
C98	C	-0.933954	0.181580	0.078543
C99	C	-0.873939	0.252692	0.149449
H100	H	-0.749894	0.096891	0.278537
H101	H	-0.854335	-0.026863	0.155142
H102	H	-0.971226	0.026919	0.028132
H103	H	-0.983677	0.204460	0.024515
H104	H	-0.879236	0.328214	0.147911
C105	C	-1.368564	0.274860	0.702580
C106	C	-1.441450	0.305886	0.635404
C107	C	-1.512489	0.234872	0.575416
C108	C	-1.510642	0.132832	0.582605
C109	C	-1.437753	0.101800	0.649784
C110	C	-1.366714	0.172814	0.709771
H111	H	-1.442820	0.381427	0.630081
H112	H	-1.566446	0.257845	0.525686
H113	H	-1.563229	0.080263	0.538198
H114	H	-1.436383	0.026259	0.655107
H115	H	-1.312757	0.149842	0.759502
H116	H	-1.115735	0.915017	0.527778
H117	H	-0.593218	0.474807	0.474773
C118	C	-1.421569	0.221863	0.837797
C119	C	-1.419737	0.119819	0.844979
C120	C	-1.490781	0.048816	0.784983
C121	C	-1.563656	0.079857	0.717806
C122	C	-1.565491	0.181906	0.710621
C123	C	-1.494447	0.252909	0.770617
H124	H	-1.365788	0.096836	0.894710
H125	H	-1.489422	-0.026727	0.790302
H126	H	-1.616247	0.027297	0.673393
H127	H	-1.619440	0.204889	0.660890
H128	H	-1.495806	0.328452	0.765298
C129	C	-1.097327	0.545982	0.931649
C130	C	-1.128335	0.618867	0.998830
C131	C	-1.057306	0.689881	1.058831
C132	C	-0.955270	0.688010	1.051651
C133	C	-0.924258	0.615122	0.984467
C134	C	-0.995286	0.544108	0.924466
H135	H	-1.203872	0.620255	1.004148
H136	H	-1.080264	0.743838	1.108565
H137	H	-0.902691	0.740579	1.096067
H138	H	-0.848720	0.613735	0.979149
H139	H	-0.972328	0.490152	0.874732
H140	H	-0.619036	0.250824	0.251382
H141	H	-1.392613	0.250778	1.025514
