data_functionalizedCrystal
_audit_creation_method	'MofGen! by Chris Wilmer'
_symmetry_space_group_name_H-M	'P1'
_symmetry_Int_Tables_number	1
_symmetry_cell_setting	triclinic
loop_
_symmetry_equiv_pos_as_xyz
  x,y,z
_cell_length_a	21.295419
_cell_length_b	25.639240
_cell_length_c	21.295412
_cell_angle_alpha	89.964267
_cell_angle_beta	89.976510
_cell_angle_gamma	90.047559
loop_
_atom_site_label
_atom_site_type_symbol
_atom_site_fract_x
_atom_site_fract_y
_atom_site_fract_z
Zn1	Zn	0.962339	-0.207957	-0.355889
Zn2	Zn	1.295673	0.125376	-0.022556
Zn3	Zn	1.629006	0.458709	0.310778
Zn4	Zn	0.962239	-0.295391	-0.250605
Zn5	Zn	1.295573	0.037942	0.082728
Zn6	Zn	1.628906	0.371276	0.416062
Zn7	Zn	0.857064	-0.207994	-0.250634
Zn8	Zn	1.190398	0.125339	0.082699
Zn9	Zn	1.523731	0.458673	0.416033
Zn10	Zn	0.857028	-0.295386	-0.355837
Zn11	Zn	1.190361	0.037947	-0.022504
Zn12	Zn	1.523694	0.371281	0.310830
O13	O	0.909668	-0.251682	-0.303241
O14	O	1.243001	0.081651	0.030092
O15	O	1.576334	0.414985	0.363425
O16	O	1.050415	-0.219542	-0.341933
O17	O	1.383749	0.113791	-0.008599
O18	O	1.717082	0.447124	0.324734
O19	O	0.948261	-0.283815	-0.162520
O20	O	1.281595	0.049518	0.170814
O21	O	1.614928	0.382852	0.504147
O22	O	0.871086	-0.134824	-0.264630
O23	O	1.204420	0.198509	0.068703
O24	O	1.537753	0.531843	0.402036
O25	O	1.050342	-0.283780	-0.264581
O26	O	1.383675	0.049554	0.068752
O27	O	1.717009	0.382887	0.402086
O28	O	0.948431	-0.134797	-0.341961
O29	O	1.281765	0.198536	-0.008627
O30	O	1.615098	0.531870	0.324706
O31	O	0.870990	-0.219605	-0.162541
O32	O	1.204323	0.113728	0.170793
O33	O	1.537656	0.447062	0.504126
O34	O	0.768970	-0.219600	-0.264580
O35	O	1.102303	0.113733	0.068754
O36	O	1.435637	0.447067	0.402087
O37	O	0.871024	-0.283771	-0.443933
O38	O	1.204357	0.049562	-0.110600
O39	O	1.537691	0.382896	0.222733
O40	O	0.768943	-0.283807	-0.341872
O41	O	1.102276	0.049527	-0.008538
O42	O	1.435610	0.382860	0.324795
O43	O	0.948396	-0.219537	-0.443972
O44	O	1.281729	0.113796	-0.110638
O45	O	1.615062	0.447129	0.222695
O46	O	0.948226	-0.368556	-0.264530
O47	O	1.281559	-0.035222	0.068803
O48	O	1.614892	0.298111	0.402136
O49	O	0.870927	-0.368552	-0.341844
O50	O	1.204260	-0.035219	-0.008510
O51	O	1.537594	0.298115	0.324823
C52	C	0.746116	-0.251707	-0.303224
C53	C	1.079449	0.081626	0.030110
C54	C	1.412783	0.414959	0.363443
C55	C	0.676148	-0.251731	-0.303231
C56	C	1.009481	0.081603	0.030102
C57	C	1.342815	0.414936	0.363436
C58	C	0.643342	-0.218337	-0.343570
C59	C	0.976675	0.114996	-0.010237
C60	C	1.310009	0.448330	0.323096
C61	C	0.577599	-0.218323	-0.343573
C62	C	0.910933	0.115010	-0.010239
C63	C	1.244266	0.448344	0.323094
C64	C	0.544665	-0.251712	-0.303242
C65	C	0.877999	0.081622	0.030091
C66	C	1.211332	0.414955	0.363424
C67	C	0.577479	-0.285108	-0.262895
C68	C	0.910813	0.048226	0.070438
C69	C	1.244146	0.381559	0.403771
C70	C	0.643221	-0.285117	-0.262890
C71	C	0.976554	0.048216	0.070444
C72	C	1.309887	0.381549	0.403777
N73	N	0.441388	-0.297459	-0.298318
N74	N	0.774721	0.035875	0.035016
N75	N	1.108055	0.369208	0.368349
N76	N	0.378936	-0.297448	-0.298327
N77	N	0.712270	0.035885	0.035006
N78	N	1.045603	0.369219	0.368340
C79	C	0.346591	-0.251685	-0.303256
C80	C	0.679924	0.081649	0.030077
C81	C	1.013257	0.414982	0.363410
N82	N	0.379056	-0.205931	-0.308189
N83	N	0.712389	0.127402	0.025145
N84	N	1.045722	0.460735	0.358478
N85	N	0.441513	-0.205942	-0.308183
N86	N	0.774846	0.127391	0.025151
N87	N	1.108179	0.460724	0.358484
C88	C	0.473380	-0.251705	-0.303244
C89	C	0.806713	0.081628	0.030089
C90	C	1.140047	0.414962	0.363423
C91	C	0.242499	-0.218273	-0.343600
C92	C	0.575833	0.115060	-0.010267
C93	C	0.909166	0.448394	0.323066
C94	C	0.176755	-0.218258	-0.343598
C95	C	0.510089	0.115075	-0.010265
C96	C	0.843422	0.448409	0.323068
C97	C	0.176637	-0.285048	-0.262924
C98	C	0.509970	0.048286	0.070409
C99	C	0.843303	0.381619	0.403742
C100	C	0.242379	-0.285058	-0.262923
C101	C	0.575712	0.048275	0.070410
C102	C	0.909046	0.381609	0.403744
C103	C	0.275306	-0.251671	-0.303264
C104	C	0.608640	0.081662	0.030069
C105	C	0.941973	0.414995	0.363402
C106	C	0.909579	-0.387525	-0.303192
C107	C	1.242912	-0.054191	0.030141
C108	C	1.576245	0.279142	0.363475
C109	C	0.909598	-0.445639	-0.303192
C110	C	1.242932	-0.112305	0.030141
C111	C	1.576265	0.221028	0.363475
C112	C	0.949961	-0.805949	-0.343580
C113	C	1.283295	-0.472616	-0.010246
C114	C	1.616628	-0.139283	0.323087
C115	C	0.949980	-0.860554	-0.343593
C116	C	1.283313	-0.527220	-0.010259
C117	C	1.616646	-0.193887	0.323074
O118	O	0.984192	-0.888746	-0.377881
O119	O	1.317525	-0.555412	-0.044548
O120	O	1.650859	-0.222079	0.288786
N121	N	0.909755	-0.887921	-0.303302
N122	N	1.243088	-0.554588	0.030031
N123	N	1.576422	-0.221255	0.363365
C124	C	0.869505	-0.860682	-0.263001
C125	C	1.202838	-0.527348	0.070333
C126	C	1.536171	-0.194015	0.403666
O127	O	0.835292	-0.888974	-0.228732
O128	O	1.168625	-0.555641	0.104601
O129	O	1.501958	-0.222307	0.437935
C130	C	0.869483	-0.806078	-0.262992
C131	C	1.202817	-0.472745	0.070342
C132	C	1.536150	-0.139412	0.403675
C133	C	0.909715	-0.778714	-0.303280
C134	C	1.243048	-0.445380	0.030053
C135	C	1.576382	-0.112047	0.363387
C136	C	0.990189	-0.778584	-0.383866
C137	C	1.323523	-0.445251	-0.050532
C138	C	1.656856	-0.111918	0.282801
C139	C	0.990171	-0.723984	-0.383852
C140	C	1.323505	-0.390651	-0.050519
C141	C	1.656838	-0.057317	0.282815
C142	C	0.949925	-0.696748	-0.343552
C143	C	1.283259	-0.363415	-0.010219
C144	C	1.616592	-0.030082	0.323114
C145	C	0.909697	-0.724113	-0.303266
C146	C	1.243031	-0.390780	0.030067
C147	C	1.576364	-0.057446	0.363400
C148	C	0.829230	-0.778840	-0.222694
C149	C	1.162563	-0.445506	0.110640
C150	C	1.495897	-0.112173	0.443973
C151	C	0.829212	-0.724233	-0.222688
C152	C	1.162545	-0.390899	0.110645
C153	C	1.495879	-0.057566	0.443978
C154	C	0.869444	-0.696868	-0.262977
C155	C	1.202777	-0.363535	0.070356
C156	C	1.536111	-0.030201	0.403690
C157	C	0.869433	-0.642277	-0.262953
C158	C	1.202767	-0.308943	0.070380
C159	C	1.536100	0.024390	0.403714
N160	N	0.909658	-0.614909	-0.303243
N161	N	1.242991	-0.281576	0.030090
N162	N	1.576325	0.051757	0.363423
C163	C	0.949904	-0.642145	-0.343543
C164	C	1.283237	-0.308812	-0.010210
C165	C	1.616571	0.024522	0.323124
C166	C	0.869551	-0.975352	-0.263024
C167	C	1.202885	-0.642019	0.070310
C168	C	1.536218	-0.308686	0.403643
C169	C	0.869575	-1.029955	-0.263029
C170	C	1.202909	-0.696621	0.070304
C171	C	1.536242	-0.363288	0.403637
C172	C	0.950050	-1.029823	-0.343622
C173	C	1.283383	-0.696489	-0.010289
C174	C	1.616717	-0.363156	0.323045
C175	C	0.950029	-0.975219	-0.343613
C176	C	1.283362	-0.641886	-0.010280
C177	C	1.616695	-0.308553	0.323054
C178	C	0.909776	-0.947985	-0.303314
C179	C	1.243110	-0.614651	0.030019
C180	C	1.576443	-0.281318	0.363352
C181	C	0.949864	-0.527480	-0.343511
C182	C	1.283197	-0.194147	-0.010177
C183	C	1.616531	0.139187	0.323156
C184	C	0.949844	-0.472875	-0.343492
C185	C	1.283178	-0.139541	-0.010158
C186	C	1.616511	0.193792	0.323175
C187	C	0.869368	-0.473011	-0.262901
C188	C	1.202701	-0.139678	0.070432
C189	C	1.536034	0.193656	0.403765
C190	C	0.869389	-0.527612	-0.262918
C191	C	1.202723	-0.194278	0.070416
C192	C	1.536056	0.139055	0.403749
C193	C	0.909640	-0.554845	-0.303228
C194	C	1.242973	-0.221511	0.030106
C195	C	1.576306	0.111822	0.363439
O196	O	0.835237	-0.614050	-0.228684
O197	O	1.168570	-0.280717	0.104650
O198	O	1.501903	0.052617	0.437983
O199	O	0.984106	-0.613846	-0.377812
O200	O	1.317439	-0.280513	-0.044478
O201	O	1.650772	0.052821	0.288855
C202	C	1.073858	-0.251657	-0.303259
C203	C	1.407191	0.081676	0.030074
C204	C	1.740525	0.415009	0.363407
C205	C	1.143826	-0.251647	-0.303267
C206	C	1.477159	0.081687	0.030066
C207	C	1.810493	0.415020	0.363400
C208	C	0.909717	-0.251650	-0.467432
C209	C	1.243050	0.081684	-0.134098
C210	C	1.576384	0.415017	0.199235
C211	C	0.909738	-0.251636	-0.537400
C212	C	1.243071	0.081698	-0.204066
C213	C	1.576405	0.415031	0.129267
C214	C	0.909774	-0.115309	-0.303305
C215	C	1.243107	0.218024	0.030029
C216	C	1.576441	0.551358	0.363362
C217	C	0.909819	-0.057195	-0.303332
C218	C	1.243153	0.276138	0.030002
C219	C	1.576486	0.609472	0.363335
C220	C	0.869513	-0.218198	-0.570268
C221	C	1.202847	0.115136	-0.236934
C222	C	1.536180	0.448469	0.096399
C223	C	0.869511	-0.218188	-0.636010
C224	C	1.202844	0.115145	-0.302677
C225	C	1.536178	0.448479	0.030657
C226	C	0.909745	-0.251611	-0.668882
C227	C	1.243078	0.081723	-0.335549
C228	C	1.576411	0.415056	-0.002216
C229	C	0.949972	-0.285055	-0.636007
C230	C	1.283305	0.048278	-0.302673
C231	C	1.616639	0.381611	0.030660
C232	C	0.949969	-0.285068	-0.570265
C233	C	1.283302	0.048265	-0.236932
C234	C	1.616635	0.381599	0.096401
N235	N	0.964849	-0.255592	-0.772120
N236	N	1.298182	0.077741	-0.438787
N237	N	1.631516	0.411075	-0.105453
N238	N	0.964850	-0.255577	-0.834572
N239	N	1.298184	0.077756	-0.501238
N240	N	1.631517	0.411089	-0.167905
C241	C	0.909756	-0.251576	-0.866957
C242	C	1.243090	0.081757	-0.533624
C243	C	1.576423	0.415091	-0.200290
N244	N	0.854659	-0.247580	-0.834532
N245	N	1.187993	0.085753	-0.501199
N246	N	1.521326	0.419087	-0.167865
N247	N	0.854659	-0.247592	-0.772075
N248	N	1.187992	0.085741	-0.438741
N249	N	1.521325	0.419074	-0.105408
C250	C	0.909753	-0.251601	-0.740168
C251	C	1.243086	0.081732	-0.406834
C252	C	1.576419	0.415065	-0.073501
C253	C	0.869526	-0.218126	-0.971111
C254	C	1.202859	0.115208	-0.637777
C255	C	1.536192	0.448541	-0.304444
C256	C	0.869523	-0.218120	-1.036854
C257	C	1.202856	0.115214	-0.703521
C258	C	1.536189	0.448547	-0.370188
C259	C	0.949989	-0.284984	-1.036849
C260	C	1.283323	0.048349	-0.703516
C261	C	1.616656	0.381682	-0.370183
C262	C	0.949987	-0.284993	-0.971107
C263	C	1.283320	0.048340	-0.637774
C264	C	1.616654	0.381674	-0.304440
C265	C	0.909756	-0.251561	-0.938241
C266	C	1.243089	0.081772	-0.604908
C267	C	1.576423	0.415106	-0.271575
C268	C	0.909655	-0.251677	-0.139690
C269	C	1.242988	0.081657	0.193644
C270	C	1.576321	0.414990	0.526977
C271	C	0.909756	-0.251543	-0.069722
C272	C	1.243089	0.081790	0.263611
C273	C	1.576422	0.415123	0.596945
H274	H	0.550884	-0.191127	-0.376421
H275	H	0.884217	0.142206	-0.043087
H276	H	1.217550	0.475540	0.290246
H277	H	0.982608	-0.450596	-0.376299
H278	H	1.315941	-0.117262	-0.042966
H279	H	1.649275	0.216071	0.290367
H280	H	0.550660	-0.312293	-0.230058
H281	H	0.883994	0.021040	0.103276
H282	H	1.217327	0.354374	0.436609
H283	H	0.836756	-0.190956	-0.662776
H284	H	1.170090	0.142377	-0.329443
H285	H	1.503423	0.475711	0.003890
H286	H	0.269090	-0.312253	-0.230077
H287	H	0.602423	0.021080	0.103256
H288	H	0.935757	0.354414	0.436590
H289	H	0.836821	-1.052230	-0.230215
H290	H	1.170155	-0.718897	0.103118
H291	H	1.503488	-0.385564	0.436451
H292	H	0.269310	-0.191084	-0.376445
H293	H	0.602643	0.142249	-0.043111
H294	H	0.935977	0.475582	0.290222
H295	H	0.982750	-0.312197	-1.063613
H296	H	1.316083	0.021137	-0.730280
H297	H	1.649416	0.354470	-0.396947
H298	H	0.982730	-0.312269	-0.662775
H299	H	1.316064	0.021065	-0.329442
H300	H	1.649397	0.354398	0.003891
H301	H	0.982635	-0.549647	-0.376339
H302	H	1.315968	-0.216313	-0.043006
H303	H	1.649302	0.117020	0.290328
H304	H	0.982727	-0.312297	-0.543505
H305	H	1.316061	0.021037	-0.210171
H306	H	1.649394	0.354370	0.123162
H307	H	0.982744	-0.312221	-0.944346
H308	H	1.316077	0.021113	-0.611012
H309	H	1.649410	0.354446	-0.277679
H310	H	0.836602	-0.450827	-0.230088
H311	H	1.169935	-0.117494	0.103246
H312	H	1.503268	0.215839	0.436579
H313	H	0.836762	-0.190892	-1.063614
H314	H	1.170095	0.142441	-0.730281
H315	H	1.503429	0.475775	-0.396948
H316	H	0.670147	-0.191150	-0.376419
H317	H	1.003481	0.142183	-0.043085
H318	H	1.336814	0.475516	0.290248
H319	H	0.669931	-0.312311	-0.230040
H320	H	1.003264	0.021022	0.103294
H321	H	1.336598	0.354355	0.436627
H322	H	1.022930	-0.701707	-0.416660
H323	H	1.356263	-0.368373	-0.083327
H324	H	1.689596	-0.035040	0.250007
H325	H	0.836775	-0.953180	-0.230202
H326	H	1.170108	-0.619847	0.103131
H327	H	1.503442	-0.286514	0.436464
H328	H	0.836634	-0.549893	-0.230107
H329	H	1.169968	-0.216560	0.103227
H330	H	1.503301	0.116773	0.436560
H331	H	0.836752	-0.190977	-0.543512
H332	H	1.170085	0.142357	-0.210179
H333	H	1.503418	0.475690	0.123154
H334	H	0.796469	-0.801111	-0.189886
H335	H	1.129802	-0.467778	0.143447
H336	H	1.463136	-0.134444	0.476781
H337	H	0.150046	-0.191062	-0.376446
H338	H	0.483379	0.142271	-0.043113
H339	H	0.816713	0.475605	0.290220
H340	H	0.982820	-1.052008	-0.376437
H341	H	1.316153	-0.718675	-0.043104
H342	H	1.649486	-0.385341	0.290229
H343	H	0.796431	-0.702061	-0.189873
H344	H	1.129765	-0.368728	0.143460
H345	H	1.463098	-0.035394	0.476794
H346	H	0.149822	-0.312234	-0.230087
H347	H	0.483156	0.021100	0.103247
H348	H	0.816489	0.354433	0.436580
H349	H	0.836767	-0.190904	-0.944350
H350	H	1.170100	0.142430	-0.611017
H351	H	1.503434	0.475763	-0.277683
H352	H	1.022962	-0.800754	-0.416686
H353	H	1.356296	-0.467421	-0.083353
H354	H	1.689629	-0.134087	0.249980
H355	H	0.982789	-0.952942	-0.376420
H356	H	1.316122	-0.619609	-0.043086
H357	H	1.649455	-0.286275	0.290247
