data_functionalizedCrystal
_audit_creation_method	'MofGen! by Chris Wilmer'
_symmetry_space_group_name_H-M	'P1'
_symmetry_Int_Tables_number	1
_symmetry_cell_setting	triclinic
loop_
_symmetry_equiv_pos_as_xyz
  x,y,z
_cell_length_a	16.992694
_cell_length_b	16.956995
_cell_length_c	15.455313
_cell_angle_alpha	92.465639
_cell_angle_beta	87.142206
_cell_angle_gamma	83.361347
loop_
_atom_site_label
_atom_site_type_symbol
_atom_site_fract_x
_atom_site_fract_y
_atom_site_fract_z
O1	O	1.033120	0.165135	-0.072020
O2	O	0.804956	0.163287	-0.072045
O3	O	0.932745	0.049006	-0.072028
O4	O	0.905332	0.279416	-0.072037
O5	O	0.925439	0.055512	0.072233
O6	O	0.797650	0.169793	0.072216
O7	O	1.025815	0.171642	0.072241
Cu8	Cu	0.911066	0.171311	0.085401
Cu9	Cu	0.919705	0.163617	-0.085205
O10	O	0.898026	0.285922	0.072224
C11	C	0.930496	0.022641	0.000102
C12	C	0.934669	-0.065614	0.000100
C13	C	0.772245	0.164163	0.000082
C14	C	0.685661	0.157072	0.000072
C15	C	0.965887	-0.562925	0.000100
C16	C	0.961960	-0.480000	0.000105
C17	C	0.888248	-0.433609	0.000092
C18	C	0.818458	-0.470148	0.000084
C19	C	0.822385	-0.553071	0.000085
C20	C	0.868807	-0.185076	0.000093
C21	C	0.864884	-0.102147	0.000089
C22	C	1.008387	-0.112005	0.000111
C23	C	1.012308	-0.194930	0.000107
C24	C	0.942518	-0.231460	0.000103
N25	N	0.884232	-0.348847	0.000094
N26	N	0.946535	-0.316222	0.000107
C27	C	0.630986	0.225487	0.000070
C28	C	0.549631	0.218820	0.000082
C29	C	0.522952	0.143738	0.000090
C30	C	0.577633	0.075318	0.000095
C31	C	0.658987	0.081986	0.000089
C32	C	0.281145	0.116104	0.000115
C33	C	0.199785	0.109441	0.000118
C34	C	0.171788	0.252944	0.000107
C35	C	0.253144	0.259605	0.000096
C36	C	0.307818	0.191185	0.000105
N37	N	0.439795	0.136922	0.000100
N38	N	0.390974	0.198002	0.000101
C39	C	1.058526	0.170765	0.000112
C40	C	1.145110	0.177856	0.000116
C41	C	0.900275	0.312288	0.000092
C42	C	0.896103	0.400542	0.000089
N43	N	0.904994	0.176723	0.205395
N44	N	0.925783	0.158199	-0.205199
C45	C	0.959300	0.128193	0.250797
C46	C	0.954716	0.132293	0.341604
C47	C	0.895828	0.184929	0.387008
C48	C	0.841517	0.233461	0.341600
C49	C	0.846099	0.229356	0.250795
C50	C	0.876054	0.202626	0.658587
C51	C	0.871477	0.206730	0.749399
C52	C	0.984675	0.105560	0.749397
C53	C	0.989255	0.101463	0.658589
C54	C	0.934941	0.149993	0.613189
N55	N	0.891142	0.189123	0.479828
N56	N	0.939624	0.145794	0.520371
H57	H	1.025912	-0.600691	0.000103
H58	H	0.505118	0.274531	0.000079
H59	H	0.178068	0.048297	0.000124
Br60	Br	1.112350	-0.257883	0.000124
H61	H	0.998935	0.092776	0.378570
H62	H	1.037205	0.058604	0.621623
H63	H	0.801877	0.268873	0.213829
H64	H	0.274860	0.320744	0.000079
Br65	Br	1.058382	0.039701	0.811014
Br66	Br	1.056673	-0.430423	0.000098
H67	H	0.127265	0.308647	0.000101
H68	H	0.758439	-0.432370	0.000079
Br69	Br	1.103096	-0.062423	0.000118
H70	H	0.325651	0.060391	0.000123
Br71	Br	0.791555	0.278173	0.811013
Br72	Br	0.802346	0.268487	0.596977
H73	H	0.793566	0.276315	0.378573
Br74	Br	0.541427	-0.026580	0.000115
Br75	Br	0.733189	-0.010866	0.000100
Br76	Br	0.774092	-0.234643	0.000081
Br77	Br	0.727674	-0.602652	0.000080
H78	H	0.652701	0.286627	0.000063
H79	H	0.804856	-0.064377	0.000081
Br80	Br	1.039228	0.056762	0.189187
