data_functionalizedCrystal
_audit_creation_method	'MofGen! by Chris Wilmer'
_symmetry_space_group_name_H-M	'P1'
_symmetry_Int_Tables_number	1
_symmetry_cell_setting	triclinic
loop_
_symmetry_equiv_pos_as_xyz
  x,y,z
_cell_length_a	6.817900
_cell_length_b	17.982865
_cell_length_c	10.992410
_cell_angle_alpha	94.198346
_cell_angle_beta	108.764651
_cell_angle_gamma	102.450232
loop_
_atom_site_label
_atom_site_type_symbol
_atom_site_fract_x
_atom_site_fract_y
_atom_site_fract_z
V1	V	-4.082291	-0.105414	-0.401144
O2	O	-4.073912	0.005066	-0.392941
O3	O	-4.028462	-0.209018	-0.398946
O4	O	-4.060375	-0.103792	-0.575848
O5	O	-4.041778	-0.100888	-0.214814
V6	V	-4.563191	-0.092199	-0.378792
O7	O	-4.349304	-0.134401	-0.450177
O8	O	-4.746376	-0.063212	-0.329759
O9	O	-4.393814	0.011405	-0.380989
O10	O	-4.688967	-0.202678	-0.386995
O11	O	-4.721101	-0.096725	-0.565122
O12	O	-4.361901	-0.093821	-0.204088
C13	C	-3.871285	-0.234274	-0.392759
C14	C	-3.908736	-0.318972	-0.392126
C15	C	-4.081023	-0.827970	-0.270403
C16	C	-4.045837	-0.748389	-0.271015
C17	C	-4.085763	-0.719486	-0.389039
C18	C	-4.160861	-0.770168	-0.506459
C19	C	-4.196032	-0.849747	-0.505846
C20	C	-4.019021	-0.449235	-0.508935
C21	C	-3.983849	-0.369650	-0.509539
C22	C	-3.868825	-0.347877	-0.274104
C23	C	-3.903996	-0.427456	-0.273491
C24	C	-3.979080	-0.478131	-0.390909
C25	C	-4.017228	-0.564421	-0.390245
C26	C	-4.047630	-0.633197	-0.389706
C27	C	-3.911992	-0.100048	-0.618413
C28	C	-3.975321	-0.099407	-0.761238
C29	C	-3.844212	-0.093574	-0.956331
C30	C	-3.778364	-0.094556	-0.807853
C31	C	-4.150563	-0.174530	-0.838735
C32	C	-4.215078	-0.173866	-0.987298
C33	C	-4.136942	-0.028401	-0.948506
C34	C	-4.066341	-0.028045	-0.799491
C35	C	-4.214332	0.036657	-0.387173
C36	C	-4.156120	0.121354	-0.387814
C37	C	-4.173625	-0.097568	-0.161516
C38	C	-4.089535	-0.098204	-0.018690
H39	H	-3.807675	-0.306606	-0.178495
H40	H	-4.016374	-0.346121	-0.605655
H41	H	-4.080162	-0.490486	-0.604545
H42	H	-4.208721	-0.027163	-0.766975
H43	H	-4.193355	-0.746629	-0.602556
H44	H	-4.048515	-0.851496	-0.174294
H45	H	-4.257176	-0.891008	-0.601454
H46	H	-3.646284	-0.040539	-0.754230
H47	H	-4.299040	-0.180793	-0.809965
H48	H	-3.939934	0.027527	-0.746842
N49	N	-4.372922	-0.032010	-1.002617
H50	H	-4.448822	-0.078607	-1.072248
H51	H	-4.393245	0.016222	-1.041278
N52	N	-4.173253	-0.243874	-1.048968
H53	H	-4.113160	-0.274875	-0.979581
H54	H	-4.066961	-0.226867	-1.093932
N55	N	-4.068681	-0.244714	-0.805187
H56	H	-3.936082	-0.242277	-0.828631
H57	H	-4.182718	-0.292724	-0.855550
N58	N	-3.710777	-0.021538	-0.980900
H59	H	-3.741095	0.025312	-0.941425
H60	H	-3.748000	-0.022037	-1.077672
N61	N	-4.023545	0.047166	-0.975075
H62	H	-3.940287	0.036915	-1.032886
H63	H	-3.922039	0.079583	-0.890215
H64	H	-3.804070	-0.143728	-1.004586
N65	N	-3.964831	-0.693710	-0.144401
H66	H	-3.823296	-0.657574	-0.135060
H67	H	-3.944992	-0.724130	-0.069590
H68	H	-3.705768	-0.145406	-0.783304
N69	N	-4.453527	-0.182513	-1.043826
H70	H	-4.516306	-0.186742	-0.972216
H71	H	-4.522097	-0.230537	-1.110995
N72	N	-3.860937	-0.458629	-0.146193
H73	H	-3.997353	-0.493799	-0.145069
H74	H	-3.807962	-0.414405	-0.071979
