data_functionalizedCrystal
_audit_creation_method	'MofGen! by Chris Wilmer'
_symmetry_space_group_name_H-M	'P1'
_symmetry_Int_Tables_number	1
_symmetry_cell_setting	triclinic
loop_
_symmetry_equiv_pos_as_xyz
  x,y,z
_cell_length_a	16.120484
_cell_length_b	19.077105
_cell_length_c	19.077299
_cell_angle_alpha	85.497841
_cell_angle_beta	84.706111
_cell_angle_gamma	89.261477
loop_
_atom_site_label
_atom_site_type_symbol
_atom_site_fract_x
_atom_site_fract_y
_atom_site_fract_z
Zn1	Zn	-0.405198	-1.076914	0.458494
Zn2	Zn	0.094802	-0.576914	0.958494
Zn3	Zn	-0.538749	-1.066627	0.346099
Zn4	Zn	-0.038749	-0.566627	0.846099
Zn5	Zn	-0.393512	-0.954810	0.335413
Zn6	Zn	0.106488	-0.454810	0.835413
Zn7	Zn	-0.538724	-0.953495	0.459214
Zn8	Zn	-0.038724	-0.453495	0.959214
O9	O	-0.469046	-1.012962	0.399805
O10	O	0.030954	-0.512962	0.899805
O11	O	-0.427815	-1.173997	0.447755
O12	O	0.072185	-0.673997	0.947755
O13	O	-0.514602	-1.048039	0.245832
O14	O	-0.014602	-0.548039	0.745832
O15	O	-0.278399	-0.975862	0.346967
O16	O	0.221601	-0.475862	0.846967
O17	O	-0.525934	-1.166439	0.365179
O18	O	-0.025934	-0.666439	0.865179
O19	O	-0.286985	-1.065572	0.437394
O20	O	0.213015	-0.565572	0.937394
O21	O	-0.407898	-0.965887	0.237982
O22	O	0.092102	-0.465887	0.737982
O23	O	-0.407874	-0.856188	0.347665
O24	O	0.092126	-0.356188	0.847665
O25	O	-0.525892	-0.973622	0.557967
O26	O	-0.025892	-0.473622	1.057967
O27	O	-0.514560	-0.855222	0.438620
O28	O	-0.014560	-0.355222	0.938620
O29	O	-0.427791	-1.064298	0.557438
O30	O	0.072209	-0.564298	1.057438
O31	O	-0.655409	-1.046765	0.365877
O32	O	-0.155409	-0.546765	0.865877
O33	O	-0.655390	-0.963647	0.448982
O34	O	-0.155390	-0.463647	0.948982
C35	C	-0.459947	-0.830179	0.392062
C36	C	0.040053	-0.330179	0.892062
C37	C	-0.456075	-0.751983	0.388767
C38	C	0.043925	-0.251983	0.888767
C39	C	-0.685650	-1.003967	0.408683
C40	C	-0.185650	-0.503967	0.908683
C41	C	-0.778319	-1.000184	0.412507
C42	C	-0.278319	-0.500184	0.912507
C43	C	-0.478142	-1.019961	0.584050
C44	C	0.021858	-0.519961	1.084050
C45	C	-0.482019	-1.022943	0.662564
C46	C	0.017981	-0.522943	1.162564
C47	C	-0.947987	-0.993283	0.419504
C48	C	-0.447987	-0.493283	0.919504
C49	C	-0.989271	-1.032767	0.380122
C50	C	-0.489271	-0.532767	0.880122
C51	C	-1.083680	-1.028927	0.384016
C52	C	-0.583680	-0.528927	0.884016
C53	C	-0.853570	-0.997122	0.415612
C54	C	-0.353570	-0.497122	0.915612
C55	C	-0.251597	-1.022011	0.390908
C56	C	0.248403	-0.522011	0.890908
C57	C	-0.158933	-1.025867	0.387117
C58	C	0.341067	-0.525867	0.887117
C59	C	-0.478181	-1.196458	0.407579
C60	C	0.021819	-0.696458	0.907579
C61	C	-0.482074	-1.274653	0.410892
C62	C	0.017926	-0.774653	0.910892
C63	C	-0.509879	-0.714757	0.434507
C64	C	-0.009879	-0.214757	0.934507
C65	C	-0.506230	-0.641284	0.431414
C66	C	-0.006230	-0.141284	0.931414
C67	C	-0.448781	-0.605040	0.382577
C68	C	0.051219	-0.105040	0.882577
C69	C	-0.394971	-0.642272	0.336835
C70	C	0.105029	-0.142272	0.836835
C71	C	-0.398616	-0.715743	0.339932
C72	C	0.101384	-0.215743	0.839932
C73	C	-0.431910	-0.385357	0.368247
C74	C	0.068090	0.114643	0.868247
C75	C	-0.428270	-0.311880	0.365152
C76	C	0.071730	0.188120	0.865152
C77	C	-0.539528	-0.310898	0.459732
C78	C	-0.039528	0.189102	0.959732
C79	C	-0.543172	-0.384370	0.462822
C80	C	-0.043172	0.115630	0.962822
C81	C	-0.489360	-0.421596	0.417082
C82	C	0.010640	0.078404	0.917082
N83	N	-0.445052	-0.529939	0.379412
N84	N	0.054948	-0.029939	0.879412
N85	N	-0.493085	-0.496696	0.420250
N86	N	0.006915	0.003304	0.920250
C87	C	-0.509847	-1.044362	1.104957
C88	C	-0.009847	-0.544362	1.604957
C89	C	-0.506199	-1.041549	1.031184
C90	C	-0.006199	-0.541549	1.531184
C91	C	-0.448816	-0.997375	0.990218
C92	C	0.051184	-0.497375	1.490218
C93	C	-0.395083	-0.956006	1.023028
C94	C	0.104917	-0.456006	1.523028
C95	C	-0.398736	-0.958815	1.096800
C96	C	0.101264	-0.458815	1.596800
C97	C	-0.431938	-0.984383	0.769146
C98	C	0.068062	-0.484383	1.269146
C99	C	-0.428288	-0.981579	0.695369
C100	C	0.071712	-0.481579	1.195369
C101	C	-0.539406	-1.067122	0.703530
C102	C	-0.039406	-0.567122	1.203530
C103	C	-0.543050	-1.069930	0.777303
C104	C	-0.043050	-0.569930	1.277303
C105	C	-0.489320	-1.028558	0.810107
C106	C	0.010680	-0.528558	1.310107
N107	N	-0.445084	-0.994501	0.914810
N108	N	0.054916	-0.494501	1.414810
N109	N	-0.493057	-1.031429	0.885514
N110	N	0.006943	-0.531429	1.385514
C111	C	-0.460001	-1.005983	1.216277
C112	C	0.039999	-0.505983	1.716277
C113	C	-0.456117	-1.002997	1.137763
C114	C	0.043883	-0.502997	1.637763
H115	H	-0.953711	-1.069454	0.343482
H116	H	-0.453711	-0.569454	0.843482
O117	O	-0.990302	-0.949418	0.463168
O118	O	-0.490302	-0.449418	0.963168
C119	C	-0.964948	-0.879565	0.443833
C120	C	-0.464948	-0.379565	0.943833
H121	H	-0.900298	-0.879620	0.414064
H122	H	-0.400298	-0.379620	0.914064
H123	H	-0.963036	-0.850023	0.493331
H124	H	-0.463036	-0.350023	0.993331
H125	H	-1.011010	-0.852569	0.408472
H126	H	-0.511010	-0.352569	0.908472
H127	H	-0.381554	-0.945608	0.662016
H128	H	0.118446	-0.445608	1.162016
H129	H	-0.388189	-0.950694	0.795846
H130	H	0.111811	-0.450694	1.295846
O131	O	-0.565710	-0.749854	0.482011
O132	O	-0.065710	-0.249854	0.982011
C133	C	-0.612428	-0.701237	0.521708
C134	C	-0.112428	-0.201237	1.021708
H135	H	-0.575809	-0.650377	0.520591
H136	H	-0.075809	-0.150377	1.020591
H137	H	-0.625222	-0.724216	0.578615
H138	H	-0.125222	-0.224216	1.078615
H139	H	-0.674029	-0.689806	0.498018
H140	H	-0.174029	-0.189806	0.998018
H141	H	-0.583151	-1.100804	0.676813
H142	H	-0.083151	-0.600804	1.176813
O143	O	-0.558384	-0.605102	0.475913
O144	O	-0.058384	-0.105102	0.975913
C145	C	-0.511161	-0.566303	0.517866
C146	C	-0.011161	-0.066303	1.017866
H147	H	-0.446825	-0.591335	0.520567
H148	H	0.053175	-0.091335	1.020567
H149	H	-0.544062	-0.566295	0.573389
H150	H	-0.044062	-0.066295	1.073389
H151	H	-0.504410	-0.509905	0.493569
H152	H	-0.004410	-0.009905	0.993569
H153	H	-0.589955	-0.413876	0.502588
H154	H	-0.089955	0.086124	1.002588
O155	O	-0.591708	-0.274630	0.504134
O156	O	-0.091708	0.225370	1.004134
C157	C	-0.576190	-0.202010	0.490920
C158	C	-0.076190	0.297990	0.990920
H159	H	-0.510174	-0.193764	0.464811
H160	H	-0.010174	0.306236	0.964811
H161	H	-0.583167	-0.175870	0.542883
H162	H	-0.083167	0.324130	1.042883
H163	H	-0.622678	-0.177671	0.454382
H164	H	-0.122678	0.322329	0.954382
H165	H	-0.348364	-0.920035	0.989668
H166	H	0.151636	-0.420035	1.489668
H167	H	-0.381479	-0.282372	0.325387
H168	H	0.118521	0.217628	0.825387
O169	O	-0.379603	-0.421402	0.323745
O170	O	0.120397	0.078598	0.823745
C171	C	-0.328104	-0.373654	0.279990
C172	C	0.171896	0.126346	0.779990
H173	H	-0.359533	-0.319773	0.276686
H174	H	0.140467	0.180227	0.776686
H175	H	-0.317404	-0.393131	0.224874
H176	H	0.182596	0.106869	0.724874
H177	H	-0.265732	-0.369451	0.303029
H178	H	0.234268	0.130549	0.803029
O179	O	-0.339234	-0.606955	0.289419
O180	O	0.160766	-0.106955	0.789419
C181	C	-0.347538	-0.534125	0.296504
C182	C	0.152462	-0.034125	0.796504
H183	H	-0.412561	-0.522298	0.321761
H184	H	0.087439	-0.022298	0.821761
H185	H	-0.337782	-0.504420	0.242189
H186	H	0.162218	-0.004420	0.742189
H187	H	-0.298987	-0.516766	0.331291
H188	H	0.201013	-0.016766	0.831291
H189	H	-0.354799	-0.746052	0.302689
H190	H	0.145201	-0.246052	0.802689
O191	O	-0.565664	-1.087289	1.144643
O192	O	-0.065664	-0.587289	1.644643
C193	C	-0.612291	-1.123207	1.099865
C194	C	-0.112291	-0.623207	1.599865
H195	H	-0.611137	-1.092268	1.046178
H196	H	-0.111137	-0.592268	1.546178
H197	H	-0.679406	-1.128786	1.124177
H198	H	-0.179406	-0.628786	1.624177
H199	H	-0.584038	-1.177610	1.093030
H200	H	-0.084038	-0.677610	1.593030
O201	O	-0.558474	-1.081629	0.999288
O202	O	-0.058474	-0.581629	1.499288
C203	C	-0.608205	-1.037714	0.957109
C204	C	-0.108205	-0.537714	1.457109
H205	H	-0.611696	-0.982937	0.977206
H206	H	-0.111696	-0.482937	1.477206
H207	H	-0.673588	-1.060458	0.959972
H208	H	-0.173588	-0.560458	1.459972
H209	H	-0.579546	-1.034237	0.900042
H210	H	-0.079546	-0.534237	1.400042
H211	H	-0.354982	-0.925132	1.123509
H212	H	0.145018	-0.425132	1.623509
H213	H	-0.589778	-1.105901	0.810653
H214	H	-0.089778	-0.605901	1.310653
