data_functionalizedCrystal
_audit_creation_method	'MofGen! by Chris Wilmer'
_symmetry_space_group_name_H-M	'P1'
_symmetry_Int_Tables_number	1
_symmetry_cell_setting	triclinic
loop_
_symmetry_equiv_pos_as_xyz
  x,y,z
_cell_length_a	23.532407
_cell_length_b	23.532407
_cell_length_c	12.996460
_cell_angle_alpha	89.989202
_cell_angle_beta	89.999749
_cell_angle_gamma	82.848678
loop_
_atom_site_label
_atom_site_type_symbol
_atom_site_fract_x
_atom_site_fract_y
_atom_site_fract_z
O1	O	0.755260	0.069136	-0.085449
O2	O	1.088594	0.402469	0.247885
O3	O	1.421927	0.735803	0.581218
O4	O	0.589397	0.079139	-0.085480
O5	O	0.922730	0.412472	0.247853
O6	O	1.256064	0.745806	0.581186
O7	O	0.677330	-0.008794	-0.085445
O8	O	1.010664	0.324539	0.247889
O9	O	1.343997	0.657872	0.581222
O10	O	0.667327	0.157069	-0.085484
O11	O	1.000660	0.490402	0.247849
O12	O	1.333994	0.823736	0.581182
O13	O	0.677321	-0.008799	0.085689
O14	O	1.010654	0.324534	0.419022
O15	O	1.343988	0.657868	0.752356
O16	O	0.589388	0.079134	0.085653
O17	O	0.922721	0.412468	0.418987
O18	O	1.256054	0.745801	0.752320
O19	O	0.755251	0.069131	0.085685
O20	O	1.088585	0.402464	0.419018
O21	O	1.421918	0.735798	0.752352
Cu22	Cu	0.672319	0.074132	0.101295
Cu23	Cu	1.005652	0.407466	0.434628
Cu24	Cu	1.338985	0.740799	0.767962
Cu25	Cu	0.672329	0.074138	-0.101091
Cu26	Cu	1.005663	0.407471	0.232243
Cu27	Cu	1.338996	0.740805	0.565576
O28	O	0.667318	0.157064	0.085649
O29	O	1.000651	0.490398	0.418983
O30	O	1.333985	0.823731	0.752316
C31	C	0.677071	-0.030013	0.000125
C32	C	1.010404	0.303321	0.333458
C33	C	1.343738	0.636654	0.666791
C34	C	0.676305	-0.093230	0.000132
C35	C	1.009638	0.240104	0.333466
C36	C	1.342972	0.573437	0.666799
C37	C	0.568176	0.078882	0.000083
C38	C	0.901510	0.412215	0.333416
C39	C	1.234843	0.745549	0.666749
C40	C	0.504959	0.078116	0.000071
C41	C	0.838293	0.411449	0.333405
C42	C	1.171626	0.744783	0.666738
C43	C	0.723539	-0.492333	0.000085
C44	C	1.056872	-0.158999	0.333418
C45	C	1.390205	0.174334	0.666752
C46	C	0.722827	-0.551733	0.000077
C47	C	1.056160	-0.218400	0.333410
C48	C	1.389494	0.114934	0.666744
O49	O	0.766613	-0.588478	0.000047
O50	O	1.099946	-0.255144	0.333381
O51	O	1.433280	0.078189	0.666714
N52	N	0.670551	-0.574359	0.000068
N53	N	1.003884	-0.241026	0.333401
N54	N	1.337217	0.092307	0.666735
C55	C	0.618983	-0.537582	0.000056
C56	C	0.952316	-0.204248	0.333389
C57	C	1.285649	0.129085	0.666723
O58	O	0.574452	-0.562281	0.000047
O59	O	0.907785	-0.228948	0.333380
O60	O	1.241119	0.104385	0.666713
C61	C	0.619695	-0.478182	0.000057
C62	C	0.953028	-0.144849	0.333390
C63	C	1.286361	0.188484	0.666723
C64	C	0.671974	-0.455560	0.000076
C65	C	1.005308	-0.122227	0.333410
C66	C	1.338641	0.211107	0.666743
C67	C	0.775814	-0.469710	0.000104
C68	C	1.109147	-0.136376	0.333437
C69	C	1.442481	0.196957	0.666770
C70	C	0.776525	-0.410313	0.000113
C71	C	1.109859	-0.076980	0.333447
C72	C	1.443192	0.256353	0.666780
C73	C	0.724961	-0.373540	0.000105
C74	C	1.058294	-0.040207	0.333438
C75	C	1.391628	0.293126	0.666771
C76	C	0.672685	-0.396164	0.000086
C77	C	1.006019	-0.062830	0.333420
C78	C	1.339352	0.270503	0.666753
C79	C	0.568127	-0.441406	0.000038
C80	C	0.901460	-0.108073	0.333371
C81	C	1.234794	0.225261	0.666704
C82	C	0.568844	-0.382004	0.000037
C83	C	0.902177	-0.048670	0.333371
C84	C	1.235510	0.284663	0.666704
C85	C	0.621123	-0.359381	0.000057
C86	C	0.954457	-0.026048	0.333390
C87	C	1.287790	0.307286	0.666724
C88	C	0.621832	-0.299995	0.000087
C89	C	0.955166	0.033339	0.333421
C90	C	1.288499	0.366672	0.666754
N91	N	0.674109	-0.277368	0.000097
N92	N	1.007442	0.055965	0.333430
N93	N	1.340775	0.389298	0.666763
C94	C	0.725673	-0.314141	0.000105
C95	C	1.059006	0.019192	0.333439
C96	C	1.392340	0.352525	0.666772
C97	C	0.617491	-0.662324	0.000053
C98	C	0.950824	-0.328991	0.333386
C99	C	1.284158	0.004343	0.666720
C100	C	0.616778	-0.721722	0.000060
C101	C	0.950112	-0.388389	0.333393
C102	C	1.283445	-0.055055	0.666727
C103	C	0.720623	-0.735869	0.000079
C104	C	1.053957	-0.402536	0.333412
C105	C	1.387290	-0.069203	0.666746
C106	C	0.721335	-0.676470	0.000080
C107	C	1.054669	-0.343137	0.333413
C108	C	1.388002	-0.009804	0.666746
C109	C	0.669767	-0.639698	0.000062
C110	C	1.003101	-0.306365	0.333396
C111	C	1.336434	0.026969	0.666729
C112	C	0.727163	-0.189405	0.000127
C113	C	1.060496	0.143929	0.333460
C114	C	1.393829	0.477262	0.666794
C115	C	0.727869	-0.130003	0.000141
C116	C	1.061203	0.203331	0.333474
C117	C	1.394536	0.536664	0.666808
C118	C	0.624025	-0.115860	0.000117
C119	C	0.957358	0.217473	0.333450
C120	C	1.290692	0.550806	0.666783
C121	C	0.623318	-0.175257	0.000108
C122	C	0.956651	0.158076	0.333441
C123	C	1.289985	0.491409	0.666775
C124	C	0.674891	-0.212029	0.000110
C125	C	1.008225	0.121305	0.333443
C126	C	1.341558	0.454638	0.666776
O127	O	0.578070	-0.263215	0.000113
O128	O	0.911403	0.070118	0.333446
O129	O	1.244736	0.403451	0.666780
O130	O	0.770196	-0.289433	0.000101
O131	O	1.103529	0.043900	0.333435
O132	O	1.436863	0.377233	0.666768
C133	C	0.105856	0.125350	0.000107
C134	C	0.439190	0.458683	0.333440
C135	C	0.772523	0.792016	0.666773
C136	C	0.046456	0.124638	0.000113
C137	C	0.379789	0.457971	0.333447
C138	C	0.713123	0.791305	0.666780
O139	O	0.009711	0.168424	0.000140
O140	O	0.343045	0.501757	0.333473
O141	O	0.676378	0.835091	0.666807
N142	N	0.023830	0.072362	0.000124
N143	N	0.357163	0.405695	0.333457
N144	N	0.690496	0.739028	0.666791
C145	C	0.060607	0.020794	0.000139
C146	C	0.393941	0.354127	0.333472
C147	C	0.727274	0.687460	0.666805
O148	O	0.035908	-0.023737	0.000149
O149	O	0.369241	0.309596	0.333483
O150	O	0.702574	0.642930	0.666816
C151	C	0.120006	0.021506	0.000140
C152	C	0.453340	0.354839	0.333473
C153	C	0.786673	0.688172	0.666806
C154	C	0.142629	0.073785	0.000118
C155	C	0.475962	0.407119	0.333452
C156	C	0.809296	0.740452	0.666785
C157	C	0.128479	0.177625	0.000087
C158	C	0.461813	0.510958	0.333420
C159	C	0.795146	0.844292	0.666753
C160	C	0.187876	0.178336	0.000078
C161	C	0.521209	0.511670	0.333412
C162	C	0.854542	0.845003	0.666745
C163	C	0.224649	0.126772	0.000090
C164	C	0.557982	0.460105	0.333423
C165	C	0.891315	0.793439	0.666757
C166	C	0.202025	0.074496	0.000110
C167	C	0.535359	0.407830	0.333443
C168	C	0.868692	0.741163	0.666777
C169	C	0.156783	-0.030062	0.000162
C170	C	0.490116	0.303271	0.333495
C171	C	0.823450	0.636605	0.666828
C172	C	0.216185	-0.029345	0.000163
C173	C	0.549519	0.303988	0.333497
C174	C	0.882852	0.637321	0.666830
C175	C	0.238808	0.022934	0.000142
C176	C	0.572141	0.356268	0.333476
C177	C	0.905475	0.689601	0.666809
C178	C	0.298194	0.023643	0.000113
C179	C	0.631528	0.356977	0.333447
C180	C	0.964861	0.690310	0.666780
N181	N	0.320820	0.075920	0.000103
N182	N	0.654154	0.409253	0.333436
N183	N	0.987487	0.742586	0.666769
C184	C	0.284048	0.127484	0.000091
C185	C	0.617381	0.460817	0.333424
C186	C	0.950714	0.794151	0.666758
C187	C	-0.064135	0.019302	0.000139
C188	C	0.269198	0.352635	0.333472
C189	C	0.602532	0.685969	0.666805
C190	C	-0.123533	0.018589	0.000130
C191	C	0.209800	0.351923	0.333464
C192	C	0.543134	0.685256	0.666797
C193	C	-0.137680	0.122434	0.000107
C194	C	0.195653	0.455768	0.333440
C195	C	0.528986	0.789101	0.666773
C196	C	-0.078281	0.123146	0.000108
C197	C	0.255052	0.456480	0.333441
C198	C	0.588385	0.789813	0.666774
C199	C	-0.041509	0.071578	0.000128
C200	C	0.291824	0.404912	0.333461
C201	C	0.625158	0.738245	0.666795
C202	C	0.408784	0.128974	0.000072
C203	C	0.742118	0.462307	0.333406
C204	C	1.075451	0.795640	0.666739
C205	C	0.468186	0.129680	0.000060
C206	C	0.801520	0.463014	0.333393
C207	C	1.134853	0.796347	0.666726
C208	C	0.482329	0.025836	0.000089
C209	C	0.815662	0.359169	0.333422
C210	C	1.148995	0.692503	0.666755
C211	C	0.422932	0.025129	0.000096
C212	C	0.756265	0.358462	0.333429
C213	C	1.089598	0.691796	0.666763
C214	C	0.386160	0.076702	0.000091
C215	C	0.719494	0.410036	0.333425
C216	C	1.052827	0.743369	0.666758
O217	O	0.334974	-0.020119	0.000091
O218	O	0.668307	0.313214	0.333424
O219	O	1.001640	0.646547	0.666757
O220	O	0.308755	0.172007	0.000094
O221	O	0.642089	0.505340	0.333427
O222	O	0.975422	0.838674	0.666760
C223	C	0.776472	0.069388	0.000120
C224	C	1.109805	0.402722	0.333453
C225	C	1.443138	0.736055	0.666786
C226	C	0.839689	0.070154	0.000124
C227	C	1.173022	0.403487	0.333457
C228	C	1.506355	0.736821	0.666791
C229	C	0.667577	0.178283	0.000078
C230	C	1.000910	0.511616	0.333411
C231	C	1.334244	0.844949	0.666744
C232	C	0.668343	0.241500	0.000063
C233	C	1.001676	0.574833	0.333396
C234	C	1.335010	0.908167	0.666730
N235	N	0.672315	0.074128	0.243642
N236	N	1.005649	0.407461	0.576975
N237	N	1.338982	0.740795	0.910309
N238	N	0.672337	0.074138	-0.243438
N239	N	1.005671	0.407471	0.089896
N240	N	1.339004	0.740804	0.423229
C241	C	0.672329	0.074138	0.663456
C242	C	1.005662	0.407472	0.996790
C243	C	1.338995	0.740805	1.330123
C244	C	0.672323	0.074137	0.546651
C245	C	1.005657	0.407471	0.879985
C246	C	1.338990	0.740804	1.213318
C247	C	0.672322	0.074134	0.453553
C248	C	1.005656	0.407467	0.786886
C249	C	1.338989	0.740800	1.120220
C250	C	0.672316	0.074132	0.336740
C251	C	1.005650	0.407465	0.670074
C252	C	1.338983	0.740798	1.003407
H253	H	0.769159	-0.219337	0.000124
H254	H	1.102492	0.113996	0.333458
H255	H	1.435826	0.447329	0.666791
H256	H	-0.141947	-0.023982	0.000132
H257	H	0.191387	0.309351	0.333465
H258	H	0.524720	0.642685	0.666798
H259	H	0.246123	-0.071339	0.000181
H260	H	0.579457	0.261994	0.333514
H261	H	0.912790	0.595327	0.666847
H262	H	-0.059867	0.165717	0.000096
H263	H	0.273467	0.499050	0.333430
H264	H	0.606800	0.832384	0.666763
H265	H	0.525555	-0.459814	0.000015
H266	H	0.858889	-0.126481	0.333349
H267	H	1.192222	0.206852	0.666682
H268	H	0.526850	-0.352066	0.000022
H269	H	0.860183	-0.018732	0.333355
H270	H	1.193516	0.314601	0.666689
C271	C	0.246473	0.239384	0.088009
C272	C	0.579807	0.572717	0.421342
C273	C	0.913140	0.906051	0.754675
C274	C	0.212746	0.235800	0.000047
C275	C	0.546079	0.569133	0.333380
C276	C	0.879412	0.902466	0.666713
H277	H	0.261828	0.274859	0.087980
H278	H	0.595162	0.608192	0.421314
H279	H	0.928495	0.941526	0.754647
H280	H	0.223598	0.236954	0.147682
H281	H	0.556931	0.570288	0.481015
H282	H	0.890264	0.903621	0.814348
H283	H	0.276874	0.208773	0.088008
H284	H	0.610207	0.542106	0.421341
H285	H	0.943541	0.875440	0.754674
H286	H	0.182342	0.266408	0.000052
H287	H	0.515676	0.599742	0.333385
H288	H	0.849009	0.933075	0.666718
H289	H	0.235623	0.238235	-0.059642
H290	H	0.568956	0.571568	0.273692
H291	H	0.902289	0.904902	0.607025
C292	C	0.788920	-0.071432	0.088139
C293	C	1.122253	0.261902	0.421472
C294	C	1.455586	0.595235	0.754806
C295	C	0.785339	-0.105138	0.000159
C296	C	1.118673	0.228196	0.333492
C297	C	1.452006	0.561529	0.666825
H298	H	0.824400	-0.056086	0.088149
H299	H	1.157733	0.277247	0.421482
H300	H	1.491067	0.610581	0.754816
H301	H	0.758318	-0.041030	0.088130
H302	H	1.091651	0.292303	0.421464
H303	H	1.424984	0.625637	0.754797
H304	H	0.786479	-0.094324	0.147806
H305	H	1.119812	0.239009	0.481139
H306	H	1.453146	0.572343	0.814473
H307	H	0.787776	-0.082244	-0.059509
H308	H	1.121109	0.251089	0.273825
H309	H	1.454442	0.584423	0.607158
H310	H	0.815950	-0.135544	0.000158
H311	H	1.149283	0.197790	0.333492
H312	H	1.482617	0.531123	0.666825
C313	C	0.558036	-0.587327	0.088022
C314	C	0.891369	-0.253994	0.421355
C315	C	1.224702	0.079339	0.754689
C316	C	0.560803	-0.621904	0.000050
C317	C	0.894137	-0.288571	0.333383
C318	C	1.227470	0.044763	0.666716
H319	H	0.523041	-0.562374	0.088013
H320	H	0.856374	-0.229041	0.421346
H321	H	1.189707	0.104293	0.754680
H322	H	0.559915	-0.610801	0.147688
H323	H	0.893248	-0.277467	0.481021
H324	H	1.226581	0.055866	0.814355
H325	H	0.589271	-0.565350	0.088016
H326	H	0.922604	-0.232017	0.421349
H327	H	1.255937	0.101316	0.754683
H328	H	0.529570	-0.643884	0.000060
H329	H	0.862904	-0.310551	0.333393
H330	H	1.196237	0.022782	0.666726
H331	H	0.558919	-0.598428	-0.059632
H332	H	0.892252	-0.265094	0.273702
H333	H	1.225585	0.068239	0.607035
H334	H	0.580748	-0.193677	0.000120
H335	H	0.914081	0.139656	0.333454
H336	H	1.247414	0.472989	0.666787
H337	H	0.486602	0.172255	0.000042
H338	H	0.819935	0.505588	0.333375
H339	H	1.153269	0.838921	0.666708
H340	H	0.817806	-0.499645	0.000107
H341	H	1.151140	-0.166312	0.333440
H342	H	1.484473	0.167022	0.666774
H343	H	0.763906	-0.658056	0.000095
H344	H	1.097239	-0.324722	0.333428
H345	H	1.430573	0.008611	0.666761
H346	H	0.098544	0.219617	0.000081
H347	H	0.431877	0.552951	0.333414
H348	H	0.765211	0.886284	0.666748
C349	C	0.765634	-0.833210	0.000055
C350	C	1.098967	-0.499877	0.333388
C351	C	1.432301	-0.166544	0.666722
C352	C	0.777305	-0.776299	0.000070
C353	C	1.110639	-0.442965	0.333404
C354	C	1.443972	-0.109632	0.666737
H355	H	0.800625	-0.858169	0.000042
H356	H	1.133959	-0.524836	0.333375
H357	H	1.467292	-0.191502	0.666709
H358	H	0.744188	-0.840042	0.059728
H359	H	1.077522	-0.506709	0.393062
H360	H	1.410855	-0.173376	0.726395
H361	H	0.744180	-0.840018	-0.059628
H362	H	1.077514	-0.506685	0.273705
H363	H	1.410847	-0.173352	0.607038
H364	H	0.798755	-0.769489	0.059758
H365	H	1.132089	-0.436156	0.393091
H366	H	1.465422	-0.102823	0.726425
H367	H	0.798760	-0.769464	-0.059609
H368	H	1.132093	-0.436131	0.273724
H369	H	1.465427	-0.102797	0.607058
C370	C	0.579018	-0.018520	0.000104
C371	C	0.912352	0.314813	0.333437
C372	C	1.245685	0.648147	0.666770
C373	C	0.567347	-0.075432	0.000101
C374	C	0.900680	0.257901	0.333434
C375	C	1.234014	0.591235	0.666767
H376	H	0.544027	0.006439	0.000082
H377	H	0.877360	0.339772	0.333415
H378	H	1.210694	0.673105	0.666748
H379	H	0.600458	-0.011704	0.059788
H380	H	0.933791	0.321629	0.393121
H381	H	1.267125	0.654962	0.726454
H382	H	0.600478	-0.011696	-0.059569
H383	H	0.933811	0.321637	0.273764
H384	H	1.267144	0.654970	0.607098
H385	H	0.545891	-0.082257	0.059778
H386	H	0.879224	0.251076	0.393111
H387	H	1.212558	0.584410	0.726444
H388	H	0.545898	-0.082250	-0.059590
H389	H	0.879232	0.251083	0.273744
H390	H	1.212565	0.584416	0.607077
H391	H	-0.034198	-0.022693	0.000146
H392	H	0.299136	0.310640	0.333479
H393	H	0.632469	0.643973	0.666813
H394	H	0.574207	-0.740136	0.000062
H395	H	0.907540	-0.406802	0.333395
H396	H	1.240874	-0.073469	0.666728
C397	C	0.400783	0.231692	0.000028
C398	C	0.734116	0.565025	0.333361
C399	C	1.067450	0.898359	0.666695
C400	C	0.368371	0.185664	0.000054
C401	C	0.701705	0.518997	0.333388
C402	C	1.035038	0.852330	0.666721
H403	H	0.375833	0.266689	0.000005
H404	H	0.709166	0.600022	0.333338
H405	H	1.042499	0.933355	0.666671
H406	H	0.424243	0.229808	0.059703
H407	H	0.757577	0.563142	0.393037
H408	H	1.090910	0.896475	0.726370
H409	H	0.424247	0.229798	-0.059654
H410	H	0.757581	0.563132	0.273680
H411	H	1.090914	0.896465	0.607013
H412	H	0.344910	0.187555	0.059740
H413	H	0.678243	0.520888	0.393073
H414	H	1.011577	0.854221	0.726407
H415	H	0.344901	0.187548	-0.059627
H416	H	0.678234	0.520882	0.273706
H417	H	1.011568	0.854215	0.607040
C418	C	0.176758	-0.132632	0.000224
C419	C	0.510092	0.200701	0.333558
C420	C	0.843425	0.534035	0.666891
C421	C	0.131927	-0.087531	0.000200
C422	C	0.465260	0.245803	0.333533
C423	C	0.798594	0.579136	0.666867
H424	H	0.161413	-0.168112	0.000257
H425	H	0.494746	0.165221	0.333591
H426	H	0.828080	0.498554	0.666924
H427	H	0.199626	-0.130195	-0.059456
H428	H	0.532960	0.203138	0.273877
H429	H	0.866293	0.536471	0.607210
H430	H	0.199634	-0.130180	0.059900
H431	H	0.532967	0.203154	0.393234
H432	H	0.866301	0.536487	0.726567
H433	H	0.109054	-0.089980	-0.059480
H434	H	0.442387	0.243353	0.273853
H435	H	0.775720	0.576686	0.607186
H436	H	0.109049	-0.089969	0.059887
H437	H	0.442383	0.243365	0.393220
H438	H	0.775716	0.576698	0.726554
H439	H	0.404512	-0.017441	0.000098
H440	H	0.737845	0.315892	0.333432
H441	H	1.071178	0.649225	0.666765
C442	C	-0.145714	0.225157	0.000087
C443	C	0.187620	0.558491	0.333421
C444	C	0.520953	0.891824	0.666754
C445	C	-0.178109	0.179117	0.000101
C446	C	0.155224	0.512450	0.333435
C447	C	0.488558	0.845783	0.666768
H448	H	-0.170674	0.260147	0.000077
H449	H	0.162659	0.593481	0.333411
H450	H	0.495993	0.926814	0.666744
H451	H	-0.122251	0.223275	0.059760
H452	H	0.211082	0.556608	0.393093
H453	H	0.544416	0.889942	0.726427
H454	H	-0.122252	0.223277	-0.059597
H455	H	0.211082	0.556611	0.273736
H456	H	0.544415	0.889944	0.607070
H457	H	-0.201568	0.180994	0.059790
H458	H	0.131766	0.514327	0.393123
H459	H	0.465099	0.847661	0.726457
H460	H	-0.201581	0.181000	-0.059577
H461	H	0.131752	0.514333	0.273756
H462	H	0.465085	0.847666	0.607089
C463	C	0.879096	-0.430282	0.000121
C464	C	1.212429	-0.096949	0.333454
C465	C	1.545763	0.236385	0.666788
C466	C	0.833993	-0.385452	0.000121
C467	C	1.167327	-0.052119	0.333455
C468	C	1.500660	0.281215	0.666788
H469	H	0.914576	-0.414935	0.000117
H470	H	1.247909	-0.081602	0.333451
H471	H	1.581242	0.251731	0.666784
H472	H	0.876654	-0.453159	0.059795
H473	H	1.209987	-0.119826	0.393129
H474	H	1.543321	0.213508	0.726462
H475	H	0.876651	-0.453149	-0.059562
H476	H	1.209984	-0.119815	0.273772
H477	H	1.543318	0.213518	0.607105
H478	H	0.836436	-0.362587	0.059808
H479	H	1.169769	-0.029254	0.393142
H480	H	1.503103	0.304079	0.726475
H481	H	0.836437	-0.362565	-0.059559
H482	H	1.169770	-0.029232	0.273774
H483	H	1.503103	0.304102	0.607108
C484	C	0.490361	-0.076883	0.000112
C485	C	0.823694	0.256450	0.333446
C486	C	1.157028	0.589784	0.666779
C487	C	0.522756	-0.030842	0.000097
C488	C	0.856090	0.302491	0.333431
C489	C	1.189423	0.635824	0.666764
H490	H	0.515322	-0.111873	0.000115
H491	H	0.848655	0.221460	0.333448
H492	H	1.181988	0.554794	0.666782
H493	H	0.466902	-0.075005	0.059788
H494	H	0.800235	0.258329	0.393122
H495	H	1.133569	0.591662	0.726455
H496	H	0.466896	-0.074999	-0.059569
H497	H	0.800229	0.258334	0.273765
H498	H	1.133562	0.591667	0.607098
H499	H	0.546219	-0.032724	0.059782
H500	H	0.879552	0.300610	0.393116
H501	H	1.212885	0.633943	0.726449
H502	H	0.546225	-0.032722	-0.059585
H503	H	0.879558	0.300612	0.273749
H504	H	1.212892	0.633945	0.607082
