data_functionalizedCrystal
_audit_creation_method	'MofGen! by Chris Wilmer'
_symmetry_space_group_name_H-M	'P1'
_symmetry_Int_Tables_number	1
_symmetry_cell_setting	triclinic
loop_
_symmetry_equiv_pos_as_xyz
  x,y,z
_cell_length_a	12.759401
_cell_length_b	13.897448
_cell_length_c	12.759393
_cell_angle_alpha	90.032272
_cell_angle_beta	90.019802
_cell_angle_gamma	90.016778
loop_
_atom_site_label
_atom_site_type_symbol
_atom_site_fract_x
_atom_site_fract_y
_atom_site_fract_z
Zn1	Zn	1.606244	-0.383992	0.593975
Zn2	Zn	1.606126	-0.545318	0.418290
Zn3	Zn	1.430543	-0.384036	0.418314
Zn4	Zn	1.430526	-0.545244	0.593931
O5	O	1.518360	-0.464648	0.506127
O6	O	1.753250	-0.405405	0.570679
O7	O	1.582793	-0.523973	0.271272
O8	O	1.453907	-0.249049	0.441644
O9	O	1.753163	-0.523930	0.441604
O10	O	1.582994	-0.249016	0.570702
O11	O	1.453793	-0.405480	0.271290
O12	O	1.283520	-0.405408	0.441601
O13	O	1.453878	-0.523804	0.740958
O14	O	1.283507	-0.523847	0.570626
O15	O	1.582977	-0.405333	0.740990
O16	O	1.582776	-0.680290	0.441560
O17	O	1.453763	-0.680235	0.570603
C18	C	1.245393	-0.464625	0.506112
C19	C	1.128616	-0.464639	0.506130
C20	C	0.964063	-0.403056	0.573451
C21	C	1.073787	-0.403037	0.573444
C22	C	1.073716	-0.526270	0.438827
C23	C	0.963993	-0.526293	0.438840
C24	C	1.518283	-0.715262	0.506097
C25	C	1.518347	-0.822476	0.506119
C26	C	1.518457	-1.018771	0.506185
C27	C	1.518393	-0.909538	0.506152
C28	C	1.792393	-0.464671	0.506144
C29	C	1.909170	-0.464681	0.506150
C30	C	1.518439	-0.464555	0.780161
C31	C	1.518472	-0.464515	0.896938
C32	C	1.518466	-0.213055	0.506181
C33	C	1.518511	-0.105841	0.506204
C34	C	1.518342	-0.464670	0.233160
C35	C	1.518512	-0.464438	0.116384
C36	C	1.585699	-0.402818	0.951818
C37	C	1.585717	-0.402776	1.061543
C38	C	1.451278	-0.526138	1.061496
C39	C	1.451255	-0.526174	0.951773
H40	H	0.919299	-0.576481	0.384035
H41	H	1.640459	-0.352534	1.106222
H42	H	1.640429	-0.352608	0.907174
H43	H	1.396503	-0.576415	0.907088
N44	N	1.132994	-0.336575	0.646036
H45	H	1.081611	-0.297551	0.688676
H46	H	1.178506	-0.291881	0.603352
H47	H	1.396554	-0.576341	1.106156
H48	H	0.919429	-0.352887	0.628259
N49	N	1.132843	-0.592713	0.366219
H50	H	1.178388	-0.637450	0.408820
H51	H	1.178282	-0.553377	0.317615
