data_functionalizedCrystal
_audit_creation_method	'MofGen! by Chris Wilmer'
_symmetry_space_group_name_H-M	'P1'
_symmetry_Int_Tables_number	1
_symmetry_cell_setting	triclinic
loop_
_symmetry_equiv_pos_as_xyz
  x,y,z
_cell_length_a	10.654553
_cell_length_b	9.130313
_cell_length_c	10.654560
_cell_angle_alpha	89.999484
_cell_angle_beta	84.487733
_cell_angle_gamma	90.000718
loop_
_atom_site_label
_atom_site_type_symbol
_atom_site_fract_x
_atom_site_fract_y
_atom_site_fract_z
O1	O	1.667839	0.121810	0.176411
O2	O	1.302361	0.121808	0.193213
O3	O	1.493496	0.121806	0.002074
O4	O	1.476704	0.121812	0.367550
O5	O	1.493494	-0.121793	0.002079
O6	O	1.302359	-0.121791	0.193218
O7	O	1.667836	-0.121789	0.176416
Cu8	Cu	1.485097	-0.144032	0.184817
Cu9	Cu	1.485100	0.144051	0.184811
O10	O	1.476701	-0.121787	0.367555
C11	C	1.255562	0.000009	0.191981
C12	C	1.116119	0.000008	0.188287
C13	C	0.919577	-0.132767	0.183077
C14	C	1.050598	-0.132776	0.186554
C15	C	1.050611	0.132809	0.186556
C16	C	0.919591	0.132816	0.183087
C17	C	0.919572	-0.286101	0.183070
C18	C	1.050593	-0.286109	0.186548
N19	N	1.485105	-0.346655	0.184821
C20	C	1.569761	-0.423308	0.100214
C21	C	1.569757	-0.576645	0.100198
C22	C	1.400437	-0.576662	0.269409
C23	C	1.400436	-0.423328	0.269417
C24	C	1.654430	-0.346635	0.015617
C25	C	1.739094	-0.423288	-0.068996
C26	C	1.739091	-0.576625	-0.069011
C27	C	1.654423	-0.653309	0.015587
C28	C	1.714635	0.000013	0.177648
C29	C	1.854079	0.000023	0.181341
C30	C	1.492259	0.000009	-0.044722
C31	C	1.488562	0.000016	-0.184164
N32	N	1.485103	0.346674	0.184798
C33	C	1.483370	-0.132771	-0.380700
C34	C	1.486828	-0.132772	-0.249677
C35	C	1.486824	0.132813	-0.249680
C36	C	1.483356	0.132812	-0.380699
C37	C	1.481649	-0.265567	-0.446208
C38	C	1.483384	-0.398365	-0.380702
C39	C	1.486843	-0.398366	-0.249678
C40	C	1.488566	-0.265569	-0.184162
C41	C	1.477938	0.000013	0.414350
C42	C	1.481636	0.000016	0.553793
H43	H	1.096873	-0.344976	0.099752
O44	O	1.821242	-0.348578	-0.151097
C45	C	1.896135	-0.112352	-0.226225
C46	C	1.803084	-0.196773	-0.133127
H47	H	1.881469	0.010397	-0.211747
H48	H	1.996917	-0.142356	-0.208987
H49	H	1.878847	-0.142616	-0.326935
H50	H	1.820258	-0.166555	-0.032382
H51	H	1.702334	-0.166762	-0.150475
H52	H	1.103966	0.240924	0.187979
H53	H	0.889995	-0.333674	0.091474
H54	H	0.873291	-0.344975	0.269861
O55	O	1.085667	-0.342981	0.295867
C56	C	1.017352	-0.449639	0.497808
C57	C	0.977455	-0.385307	0.374054
H58	H	0.929884	-0.483849	0.561067
H59	H	1.080225	-0.549211	0.475909
H60	H	1.071493	-0.363375	0.548103
H61	H	0.923264	-0.471464	0.323697
H62	H	0.914643	-0.285704	0.396036
H63	H	1.808019	-0.639035	-0.137915
H64	H	1.654443	-0.221781	0.015624
O65	O	1.654614	-0.802261	0.015435
C66	C	1.747445	-1.022293	-0.077497
C67	C	1.747381	-0.853612	-0.077440
H68	H	1.822421	-1.063862	-0.152596
H69	H	1.768978	-1.064026	0.018978
H70	H	1.650905	-1.063870	-0.098968
H71	H	1.843894	-0.811910	-0.056021
H72	H	1.725778	-0.811978	-0.173922
O73	O	1.318029	-0.651085	0.351461
C74	C	1.100301	-0.697958	0.423063
C75	C	1.193487	-0.613611	0.330046
H76	H	0.999590	-0.667668	0.405800
H77	H	1.114739	-0.820733	0.408523
H78	H	1.117602	-0.667837	0.523802
H79	H	1.176243	-0.643609	0.229271
H80	H	1.179028	-0.490856	0.344696
H81	H	1.478836	-0.265581	-0.552894
O82	O	1.488301	-0.527319	-0.185959
C83	C	1.383644	-0.681426	-0.024715
C84	C	1.381815	-0.535345	-0.096794
H85	H	1.297574	-0.687950	0.047409
H86	H	1.381738	-0.776390	-0.093979
H87	H	1.473041	-0.688040	0.025846
H88	H	1.292433	-0.528588	-0.147359
H89	H	1.383788	-0.440451	-0.027471
O90	O	1.481828	0.261720	-0.444477
C91	C	1.586529	0.415955	-0.605600
C92	C	1.588416	0.269890	-0.533504
H93	H	1.672710	0.422621	-0.677576
H94	H	1.497219	0.422615	-0.656298
H95	H	1.588299	0.510819	-0.536222
H96	H	1.586693	0.174942	-0.602797
H97	H	1.677719	0.263357	-0.482786
H98	H	0.866265	0.240947	0.181690
H99	H	1.331499	-0.360917	0.338311
H100	H	1.481970	-0.506483	-0.434052
H101	H	1.491360	-0.265581	-0.077471
H102	H	1.488227	0.240930	-0.196326
