data_functionalizedCrystal
_audit_creation_method	'MofGen! by Chris Wilmer'
_symmetry_space_group_name_H-M	'P1'
_symmetry_Int_Tables_number	1
_symmetry_cell_setting	triclinic
loop_
_symmetry_equiv_pos_as_xyz
  x,y,z
_cell_length_a	18.215407
_cell_length_b	21.295417
_cell_length_c	18.215399
_cell_angle_alpha	89.965438
_cell_angle_beta	89.983176
_cell_angle_gamma	90.030955
loop_
_atom_site_label
_atom_site_type_symbol
_atom_site_fract_x
_atom_site_fract_y
_atom_site_fract_z
Zn1	Zn	1.125021	-0.250593	-0.416094
Zn2	Zn	1.625021	0.249407	0.083906
Zn3	Zn	1.124924	-0.355869	-0.293019
Zn4	Zn	1.624924	0.144131	0.206981
Zn5	Zn	1.001960	-0.250618	-0.293042
Zn6	Zn	1.501960	0.249382	0.206958
Zn7	Zn	1.001908	-0.355829	-0.416044
Zn8	Zn	1.501908	0.144171	0.083956
O9	O	1.063453	-0.303227	-0.354550
O10	O	1.563453	0.196773	0.145450
O11	O	1.227993	-0.264564	-0.399780
O12	O	1.727993	0.235436	0.100220
O13	O	1.108594	-0.341934	-0.190038
O14	O	1.608594	0.158066	0.309962
O15	O	1.018347	-0.162525	-0.309396
O16	O	1.518347	0.337475	0.190604
O17	O	1.227921	-0.341910	-0.309357
O18	O	1.727921	0.158090	0.190643
O19	O	1.108760	-0.162507	-0.399802
O20	O	1.608760	0.337493	0.100198
O21	O	1.018253	-0.264607	-0.190054
O22	O	1.518253	0.235393	0.309946
O23	O	0.898969	-0.264569	-0.309347
O24	O	1.398969	0.235431	0.190653
O25	O	1.018258	-0.341843	-0.519035
O26	O	1.518258	0.158157	-0.019035
O27	O	0.898930	-0.341867	-0.399716
O28	O	1.398930	0.158133	0.100284
O29	O	1.108709	-0.264526	-0.519072
O30	O	1.608709	0.235474	-0.019072
O31	O	1.108543	-0.443953	-0.309308
O32	O	1.608543	0.056047	0.190692
O33	O	1.018163	-0.443924	-0.399694
O34	O	1.518163	0.056076	0.100306
C35	C	0.872247	-0.303217	-0.354529
C36	C	1.372247	0.196783	0.145471
C37	C	0.790448	-0.303227	-0.354537
C38	C	1.290448	0.196773	0.145463
C39	C	1.063357	-0.466779	-0.354509
C40	C	1.563357	0.033221	0.145491
C41	C	1.063383	-0.536747	-0.354516
C42	C	1.563383	-0.036747	0.145484
C43	C	0.602253	-0.343540	-0.401533
C44	C	1.102253	0.156460	0.098467
C45	C	0.525395	-0.343542	-0.401542
C46	C	1.025395	0.156458	0.098458
C47	C	0.525405	-0.262927	-0.307582
C48	C	1.025405	0.237073	0.192418
C49	C	0.602263	-0.262922	-0.307577
C50	C	1.102263	0.237078	0.192423
C51	C	0.640685	-0.303232	-0.354552
C52	C	1.140685	0.196768	0.145448
C53	C	0.486969	-0.303239	-0.354566
C54	C	0.986969	0.196761	0.145434
C55	C	0.403635	-0.303240	-0.354575
C56	C	0.903635	0.196760	0.145425
C57	C	0.724024	-0.303229	-0.354543
C58	C	1.224024	0.196771	0.145457
C59	C	1.110485	-0.569608	-0.307500
C60	C	1.610485	-0.069608	0.192500
C61	C	1.110520	-0.635350	-0.307517
C62	C	1.610520	-0.135350	0.192483
C63	C	1.063439	-0.668230	-0.354542
C64	C	1.563439	-0.168230	0.145458
C65	C	1.016333	-0.635361	-0.401566
C66	C	1.516333	-0.135361	0.098434
C67	C	1.016305	-0.569620	-0.401554
C68	C	1.516305	-0.069620	0.098446
N69	N	0.999060	-0.771496	-0.360145
N70	N	1.499060	-0.271496	0.139855
N71	N	0.999088	-0.833947	-0.360153
N72	N	1.499088	-0.333947	0.139847
C73	C	1.063521	-0.866304	-0.354584
C74	C	1.563521	-0.366304	0.145416
N75	N	1.127926	-0.833851	-0.348993
N76	N	1.627926	-0.333851	0.151007
N77	N	1.127896	-0.771394	-0.348981
N78	N	1.627896	-0.271394	0.151019
C79	C	1.063464	-0.739515	-0.354561
C80	C	1.563464	-0.239515	0.145439
C81	C	1.110665	-0.970451	-0.307584
C82	C	1.610665	-0.470451	0.192416
C83	C	1.110701	-1.036194	-0.307605
C84	C	1.610701	-0.536194	0.192395
C85	C	1.016507	-1.036203	-0.401651
C86	C	1.516507	-0.536203	0.098349
C87	C	1.016478	-0.970461	-0.401633
C88	C	1.516478	-0.470461	0.098367
C89	C	1.063556	-0.937589	-0.354595
C90	C	1.563556	-0.437589	0.145405
C91	C	1.255406	-0.303239	-0.354571
C92	C	1.755406	0.196761	0.145429
C93	C	1.337205	-0.303243	-0.354581
C94	C	1.837205	0.196757	0.145419
C95	C	1.063488	-0.303177	-0.546503
C96	C	1.563488	0.196823	-0.046503
C97	C	1.063503	-0.303156	-0.628302
C98	C	1.563503	0.196844	-0.128302
C99	C	1.063570	-0.139037	-0.354607
C100	C	1.563570	0.360963	0.145393
C101	C	1.063620	-0.069069	-0.354631
C102	C	1.563620	0.430931	0.145369
C103	C	1.016502	-0.262864	-0.816505
C104	C	1.516502	0.237136	-0.316505
C105	C	1.016515	-0.262852	-0.893364
C106	C	1.516515	0.237148	-0.393364
C107	C	1.110592	-0.343372	-0.893336
C108	C	1.610592	0.156628	-0.393336
C109	C	1.110575	-0.343387	-0.816479
C110	C	1.610575	0.156613	-0.316479
C111	C	1.063531	-0.303130	-0.778065
C112	C	1.563531	0.196870	-0.278065
C113	C	1.063561	-0.303102	-0.931781
C114	C	1.563561	0.196898	-0.431781
C115	C	1.063575	-0.303088	-1.015115
C116	C	1.563575	0.196912	-0.515115
C117	C	1.063516	-0.303144	-0.694726
C118	C	1.563516	0.196856	-0.194726
C119	C	1.063461	-0.303232	-0.163344
C120	C	1.563461	0.196768	0.336656
C121	C	1.063589	-0.303076	-0.081545
C122	C	1.563589	0.196924	0.418455
H123	H	0.633534	-0.376361	-0.439785
H124	H	1.133534	0.123639	0.060215
H125	H	0.494107	-0.376363	-0.439801
H126	H	0.994107	0.123637	0.060199
H127	H	0.977948	-0.542864	-0.439840
H128	H	1.477948	-0.042864	0.060160
H129	H	0.494113	-0.230108	-0.269336
H130	H	0.994113	0.269892	0.230664
H131	H	0.633554	-0.230095	-0.269319
H132	H	1.133554	0.269905	0.230681
O133	O	0.970695	-0.223833	-0.779222
O134	O	1.470695	0.276167	-0.279222
C135	C	0.845526	-0.193259	-0.755746
C136	C	1.345526	0.306741	-0.255746
C137	C	0.897322	-0.237510	-0.797999
C138	C	1.397322	0.262490	-0.297999
H139	H	0.786194	-0.204293	-0.770923
H140	H	1.286194	0.295707	-0.270923
H141	H	0.853527	-0.200188	-0.694202
H142	H	1.353527	0.299812	-0.194202
H143	H	0.858521	-0.142501	-0.770871
H144	H	1.358521	0.357499	-0.270871
H145	H	0.884360	-0.288285	-0.782935
H146	H	1.384360	0.211715	-0.282935
H147	H	0.889312	-0.230527	-0.859533
H148	H	1.389312	0.269473	-0.359533
H149	H	0.978219	-0.230064	-0.924659
H150	H	1.478219	0.269936	-0.424659
H151	H	1.148821	-0.542845	-0.269202
H152	H	1.648821	-0.042845	0.230798
H153	H	1.148879	-0.662111	-0.269231
H154	H	1.648879	-0.162111	0.230769
H155	H	0.978001	-0.662135	-0.439855
H156	H	1.478001	-0.162135	0.060145
O157	O	1.156466	-0.938611	-0.261873
O158	O	1.656466	-0.438611	0.238127
C159	C	1.249859	-0.945539	-0.168561
C160	C	1.749859	-0.445539	0.331439
C161	C	1.198041	-0.981673	-0.220303
C162	C	1.698041	-0.481673	0.279697
H163	H	1.283475	-0.980338	-0.134927
H164	H	1.783475	-0.480338	0.365073
H165	H	1.288354	-0.914721	-0.202338
H166	H	1.788354	-0.414721	0.297662
H167	H	1.216066	-0.914799	-0.130073
H168	H	1.716066	-0.414799	0.369927
H169	H	1.231775	-1.012446	-0.258801
H170	H	1.731775	-0.512446	0.241199
H171	H	1.159545	-1.012451	-0.186480
H172	H	1.659545	-0.512451	0.313520
H173	H	1.148894	-0.376148	-0.924622
H174	H	1.648894	0.123852	-0.424622
O175	O	1.156598	-1.068117	-0.262071
O176	O	1.656598	-0.568117	0.237929
C177	C	1.256072	-1.142205	-0.252381
C178	C	1.756072	-0.642205	0.247619
C179	C	1.204112	-1.106098	-0.304012
C180	C	1.704112	-0.606098	0.195988
H181	H	1.294490	-1.172931	-0.286269
H182	H	1.794490	-0.672931	0.213731
H183	H	1.289762	-1.107410	-0.218818
H184	H	1.789762	-0.607410	0.281182
H185	H	1.222388	-1.173037	-0.213822
H186	H	1.722388	-0.673037	0.286178
H187	H	1.237738	-1.075265	-0.342615
H188	H	1.737738	-0.575265	0.157385
H189	H	1.170419	-1.140927	-0.337523
H190	H	1.670419	-0.640927	0.162477
H191	H	0.978176	-1.062973	-0.439942
H192	H	1.478176	-0.562973	0.060058
O193	O	1.156226	-0.382591	-0.779214
O194	O	1.656226	0.117409	-0.279214
C195	C	1.191839	-0.489676	-0.755615
C196	C	1.691839	0.010324	-0.255615
C197	C	1.140112	-0.445350	-0.797876
C198	C	1.640112	0.054650	-0.297876
H199	H	1.178819	-0.540427	-0.770675
H200	H	1.678819	-0.040427	-0.270675
H201	H	1.251204	-0.478674	-0.770747
H202	H	1.751204	0.021326	-0.270747
H203	H	1.183755	-0.482740	-0.694089
H204	H	1.683755	0.017260	-0.194089
H205	H	1.148130	-0.452261	-0.859411
H206	H	1.648130	0.047739	-0.359411
H207	H	1.080765	-0.456363	-0.782683
H208	H	1.580765	0.043637	-0.282683
O209	O	0.970645	-0.938634	-0.447321
O210	O	1.470645	-0.438634	0.052679
C211	C	0.877251	-0.945583	-0.540628
C212	C	1.377251	-0.445583	-0.040628
C213	C	0.929108	-0.981705	-0.488909
C214	C	1.429108	-0.481705	0.011091
H215	H	0.843665	-0.980389	-0.574277
H216	H	1.343665	-0.480389	-0.074277
H217	H	0.838730	-0.914875	-0.506832
H218	H	1.338730	-0.414875	-0.006832
H219	H	0.911011	-0.914734	-0.579103
H220	H	1.411011	-0.414734	-0.079103
H221	H	0.895407	-1.012587	-0.450424
H222	H	1.395407	-0.512587	0.049576
H223	H	0.967631	-1.012373	-0.522751
H224	H	1.467631	-0.512373	-0.022751
