data_functionalizedCrystal
_audit_creation_method	'MofGen! by Chris Wilmer'
_symmetry_space_group_name_H-M	'P1'
_symmetry_Int_Tables_number	1
_symmetry_cell_setting	triclinic
loop_
_symmetry_equiv_pos_as_xyz
  x,y,z
_cell_length_a	19.288864
_cell_length_b	10.065875
_cell_length_c	19.288865
_cell_angle_alpha	81.246539
_cell_angle_beta	83.136245
_cell_angle_gamma	98.729957
loop_
_atom_site_label
_atom_site_type_symbol
_atom_site_fract_x
_atom_site_fract_y
_atom_site_fract_z
O1	O	0.931584	0.113949	0.076365
O2	O	1.431584	0.613949	0.576365
O3	O	0.729315	0.113858	0.088062
O4	O	1.229315	0.613858	0.588062
O5	O	0.836292	0.113879	-0.018915
O6	O	1.336292	0.613879	0.481085
O7	O	0.824607	0.113928	0.183341
O8	O	1.324607	0.613928	0.683341
O9	O	0.815893	-0.113113	0.001566
O10	O	1.315893	0.386887	0.501566
O11	O	0.708916	-0.113134	0.108542
O12	O	1.208916	0.386866	0.608542
O13	O	0.911185	-0.113043	0.096845
O14	O	1.411185	0.386957	0.596845
Zn15	Zn	0.806812	-0.149129	0.105946
Zn16	Zn	1.306812	0.350871	0.605946
Zn17	Zn	0.833688	0.149944	0.078962
Zn18	Zn	1.333688	0.649944	0.578962
O19	O	0.804208	-0.113064	0.203822
O20	O	1.304208	0.386936	0.703822
C21	C	0.693238	0.000350	0.097927
C22	C	1.193238	0.500350	0.597927
C23	C	0.616131	0.000314	0.096801
C24	C	1.116131	0.500314	0.596801
N25	N	0.788474	-0.353238	0.124361
N26	N	1.288474	0.146762	0.624361
C27	C	0.571438	0.000350	0.159566
C28	C	1.071438	0.500350	0.659566
C29	C	0.498992	0.000365	0.158504
C30	C	0.998992	0.500365	0.658504
C31	C	0.471245	0.000371	0.094671
C32	C	0.971245	0.500371	0.594671
C33	C	0.515948	0.000327	0.031899
C34	C	1.015948	0.500327	0.531899
C35	C	0.588390	0.000298	0.032964
C36	C	1.088390	0.500298	0.532964
C37	C	0.370133	0.079930	0.037314
C38	C	0.870133	0.579930	0.537314
C39	C	0.297692	0.079967	0.036251
C40	C	0.797692	0.579967	0.536251
C41	C	0.247807	0.000453	0.091384
C42	C	0.747807	0.500453	0.591384
C43	C	0.270372	-0.079081	0.147591
C44	C	0.770372	0.420919	0.647591
C45	C	0.342815	-0.079110	0.148656
C46	C	0.842815	0.420890	0.648656
C47	C	0.392694	0.000401	0.093509
C48	C	0.892694	0.500401	0.593509
C49	C	0.124559	0.000503	0.153002
C50	C	0.624559	0.500503	0.653002
C51	C	0.052112	0.000510	0.151938
C52	C	0.552112	0.500510	0.651938
C53	C	0.069070	0.000485	0.025330
C54	C	0.569070	0.500485	0.525330
C55	C	0.141515	0.000465	0.026397
C56	C	0.641515	0.500465	0.526397
C57	C	0.169255	0.000481	0.090234
C58	C	0.669255	0.500481	0.590234
C59	C	0.827304	-0.421009	0.085365
C60	C	1.327304	0.078991	0.585365
C61	C	0.813196	-0.578179	0.099543
C62	C	1.313196	-0.078179	0.599543
C63	C	0.947262	0.000468	0.086980
C64	C	1.447262	0.500468	0.586980
C65	C	1.024370	0.000513	0.088105
C66	C	1.524370	0.500513	0.588105
C67	C	0.825716	0.000379	-0.034551
C68	C	1.325716	0.500379	0.465449
C69	C	0.824586	0.000366	-0.111653
C70	C	1.324586	0.500366	0.388347
N71	N	0.852032	0.354053	0.060541
N72	N	1.352032	0.854053	0.560541
C73	C	0.887355	0.000388	-0.156351
C74	C	1.387355	0.500388	0.343649
C75	C	0.886297	0.000409	-0.228800
C76	C	1.386297	0.500409	0.271200
C77	C	0.822462	0.000381	-0.256545
C78	C	1.322462	0.500381	0.243455
C79	C	0.759685	0.000367	-0.211838
C80	C	1.259685	0.500367	0.288162
C81	C	0.760746	0.000360	-0.139392
C82	C	1.260746	0.500360	0.360608
C83	C	0.765135	-0.079152	-0.357657
C84	C	1.265135	0.420848	0.142343
C85	C	0.764075	-0.079153	-0.430101
C86	C	1.264075	0.420847	0.069899
C87	C	0.819185	0.000410	-0.479993
C88	C	1.319185	0.500410	0.020007
C89	C	0.875365	0.079957	-0.457433
C90	C	1.375365	0.579957	0.042567
C91	C	0.876427	0.079950	-0.384986
C92	C	1.376427	0.579950	0.115014
C93	C	0.821304	0.000390	-0.335100
C94	C	1.321304	0.500390	0.164900
C95	C	0.880811	0.000457	-0.603250
C96	C	1.380811	0.500457	-0.103250
C97	C	0.879751	0.000486	-0.675701
C98	C	1.379751	0.500486	-0.175701
C99	C	0.753135	0.000431	-0.658735
C100	C	1.253135	0.500431	-0.158735
C101	C	0.754199	0.000415	-0.586288
C102	C	1.254199	0.500415	-0.086288
C103	C	0.818038	0.000421	-0.558549
C104	C	1.318038	0.500421	-0.058549
C105	C	0.814785	0.000439	0.219458
C106	C	1.314785	0.500439	0.719458
C107	C	0.815915	0.000461	0.296559
C108	C	1.315915	0.500461	0.796559
H109	H	0.594020	0.000366	0.211547
H110	H	1.094020	0.500366	0.711547
N111	N	0.947456	0.000515	-0.723916
N112	N	1.447456	0.500515	-0.223916
H113	H	0.988055	0.000514	-0.695347
H114	H	1.488055	0.500514	-0.195347
H115	H	0.942205	-0.083628	-0.746760
H116	H	1.442205	0.416372	-0.246760
H117	H	0.015722	0.000532	0.203051
H118	H	0.515722	0.500532	0.703051
N119	N	0.703480	-0.164949	-0.454423
N120	N	1.203480	0.335051	0.045577
H121	H	0.678684	-0.104041	-0.485976
H122	H	1.178684	0.395959	0.014024
H123	H	0.722481	-0.232945	-0.481732
H124	H	1.222481	0.267055	0.018268
N125	N	0.216576	-0.164871	0.207054
N126	N	0.716576	0.335129	0.707054
H127	H	0.241863	-0.215260	0.242819
H128	H	0.741863	0.284740	0.742819
H129	H	0.188018	-0.103869	0.230895
H130	H	0.688018	0.396131	0.730895
N131	N	0.909910	-0.568705	0.002409
N132	N	1.409910	-0.068705	0.502409
H133	H	0.899712	-0.593524	-0.044603
H134	H	1.399712	-0.093524	0.455397
H135	H	0.911760	-0.467402	0.000581
H136	H	1.411760	0.032598	0.500581
N137	N	0.885170	-0.343727	0.027236
N138	N	1.385170	0.156273	0.527236
H139	H	0.932273	-0.368464	0.037184
H140	H	1.432273	0.131536	0.537184
H141	H	0.874909	-0.368566	-0.019753
H142	H	1.374909	0.131434	0.480247
H143	H	0.361184	-0.143873	0.194420
H144	H	0.861184	0.356127	0.694420
H145	H	0.624780	0.000269	-0.018148
H146	H	1.124780	0.500269	0.481852
N147	N	0.039152	0.000475	-0.043519
N148	N	0.539152	0.500475	0.456481
H149	H	-0.013523	0.000494	-0.034670
H150	H	0.486477	0.500494	0.465330
H151	H	0.063096	0.084612	-0.078569
H152	H	0.563096	0.584612	0.421431
N153	N	0.949663	0.000466	-0.573328
N154	N	1.449663	0.500466	-0.073328
H155	H	0.940810	0.000440	-0.520648
H156	H	1.440810	0.500440	-0.020648
H157	H	0.969552	-0.083674	-0.582116
H158	H	1.469552	0.416326	-0.082116
N159	N	0.953996	0.000425	-0.277027
N160	N	1.453996	0.500425	0.222973
H161	H	0.989427	0.084574	-0.275716
H162	H	1.489427	0.584574	0.224284
H163	H	0.974230	-0.083774	-0.260516
H164	H	1.474230	0.416226	0.239484
H165	H	0.177906	0.000442	-0.024714
H166	H	0.677906	0.500442	0.475286
N167	N	0.690831	0.000335	-0.241752
N168	N	1.190831	0.500335	0.258248
H169	H	0.695129	0.084480	-0.279018
H170	H	1.195129	0.584480	0.220982
H171	H	0.680040	-0.083869	-0.263806
H172	H	1.180040	0.416131	0.236194
N173	N	0.154482	0.000511	0.221853
N174	N	0.654482	0.500511	0.721853
H175	H	0.130591	-0.083628	0.256933
H176	H	0.630591	0.416372	0.756933
H177	H	0.207157	0.000550	0.212942
H178	H	0.707157	0.500550	0.712942
H179	H	0.701161	0.000415	-0.681325
H180	H	1.201161	0.500415	-0.181325
H181	H	0.462596	0.000391	0.209616
H182	H	0.962596	0.500391	0.709616
H183	H	0.703084	0.000390	-0.549892
H184	H	1.203084	0.500390	-0.049892
N185	N	0.705689	-0.164964	-0.303847
N186	N	1.205689	0.335036	0.196153
H187	H	0.669942	-0.215361	-0.329130
H188	H	1.169942	0.284639	0.170870
H189	H	0.725584	-0.232882	-0.271090
H190	H	1.225584	0.267118	0.228910
H191	H	0.769502	-0.636509	0.143426
H192	H	1.269502	-0.136509	0.643426
H193	H	0.744783	-0.411573	0.168242
H194	H	1.244783	0.088427	0.668242
H195	H	0.279326	0.144734	-0.009514
H196	H	0.779326	0.644734	0.490486
N197	N	0.423935	0.165693	-0.022157
N198	N	0.923935	0.665693	0.477843
H199	H	0.398650	0.216088	-0.057920
H200	H	0.898650	0.716088	0.442080
H201	H	0.456688	0.233612	-0.002283
H202	H	0.956688	0.733612	0.497717
N203	N	0.486024	0.000316	-0.036949
N204	N	0.986024	0.500316	0.463051
H205	H	0.433350	0.000341	-0.028100
H206	H	0.933350	0.500341	0.471900
H207	H	0.509970	0.084449	-0.072001
H208	H	1.009970	0.584449	0.427999
N209	N	0.956207	0.000398	-0.126433
N210	N	1.456207	0.500398	0.373567
H211	H	0.995812	0.000415	-0.165747
H212	H	1.495812	0.500415	0.334253
H213	H	0.966971	0.084545	-0.104329
H214	H	1.466971	0.584545	0.395671
H215	H	0.922169	0.144722	-0.366621
H216	H	1.422169	0.644722	0.133379
N217	N	0.693038	0.000305	-0.091175
N218	N	1.193038	0.500305	0.408825
H219	H	0.703396	0.000294	-0.041071
H220	H	1.203396	0.500294	0.458929
H221	H	0.672765	0.084441	-0.107712
H222	H	1.172765	0.584441	0.392288
N223	N	0.934813	0.165775	-0.511234
N224	N	1.434813	0.665775	-0.011234
H225	H	0.925616	0.153719	-0.560552
H226	H	1.425616	0.653719	-0.060552
H227	H	0.937419	0.264964	-0.506637
H228	H	1.437419	0.764964	-0.006637
