data_functionalizedCrystal
_audit_creation_method	'MofGen! by Chris Wilmer'
_symmetry_space_group_name_H-M	'P1'
_symmetry_Int_Tables_number	1
_symmetry_cell_setting	triclinic
loop_
_symmetry_equiv_pos_as_xyz
  x,y,z
_cell_length_a	19.121063
_cell_length_b	19.805407
_cell_length_c	19.805399
_cell_angle_alpha	89.980427
_cell_angle_beta	92.411105
_cell_angle_gamma	92.469032
loop_
_atom_site_label
_atom_site_type_symbol
_atom_site_fract_x
_atom_site_fract_y
_atom_site_fract_z
Zn1	Zn	-0.279631	1.023234	-0.394203
Zn2	Zn	-0.397083	1.018317	-0.285838
Zn3	Zn	-0.279650	0.910048	-0.281028
Zn4	Zn	-0.397046	0.905182	-0.398983
O5	O	-0.338352	0.964195	-0.340013
O6	O	-0.295218	1.117298	-0.379840
O7	O	-0.381529	1.003934	-0.190484
O8	O	-0.181363	0.929156	-0.292028
O9	O	-0.381510	1.113686	-0.300225
O10	O	-0.181348	1.012313	-0.375177
O11	O	-0.295251	0.924388	-0.186951
O12	O	-0.295215	0.814686	-0.296663
O13	O	-0.381447	0.920863	-0.493065
O14	O	-0.381465	0.811111	-0.383324
O15	O	-0.295182	1.007595	-0.489553
O16	O	-0.495363	0.999216	-0.304860
O17	O	-0.495335	0.916096	-0.387987
C18	C	-0.338339	0.788340	-0.339991
C19	C	-0.338350	0.713107	-0.339998
C20	C	-0.520833	0.956613	-0.347479
C21	C	-0.598899	0.953431	-0.350696
C22	C	-0.383328	0.675917	-0.385055
C23	C	-0.383329	0.605228	-0.385064
C24	C	-0.338356	0.571732	-0.340013
C25	C	-0.293373	0.608927	-0.294954
C26	C	-0.293368	0.679614	-0.294948
C27	C	-0.293388	0.323853	-0.294977
C28	C	-0.293397	0.253161	-0.294985
C29	C	-0.383349	0.249467	-0.385093
C30	C	-0.383345	0.320154	-0.385087
C31	C	-0.338360	0.357344	-0.340031
C32	C	-0.338358	0.433992	-0.340022
C33	C	-0.338360	0.495084	-0.340018
C34	C	-0.635566	0.995246	-0.308963
C35	C	-0.708917	0.992258	-0.311992
C36	C	-0.745601	0.947451	-0.356752
C37	C	-0.708929	0.905634	-0.398489
C38	C	-0.635579	0.908626	-0.395463
C39	C	-0.967071	0.936252	-0.368056
C40	C	-1.040426	0.933262	-0.371078
C41	C	-1.040409	1.019887	-0.284581
C42	C	-0.967058	1.022872	-0.281556
C43	C	-0.930393	0.981058	-0.323296
C44	C	-0.820578	0.944394	-0.359848
C45	C	-0.855417	0.984119	-0.320203
C46	C	-0.155159	0.971825	-0.332532
C47	C	-0.077093	0.975077	-0.329345
C48	C	-0.338308	0.964235	-0.516554
C49	C	-0.338289	0.964252	-0.591785
C50	C	-0.338366	1.140737	-0.340036
C51	C	-0.338372	1.215969	-0.340046
C52	C	-0.293369	1.009414	-0.625302
C53	C	-0.293349	1.009422	-0.695989
C54	C	-0.338253	0.964270	-0.733159
C55	C	-0.383175	0.919103	-0.699638
C56	C	-0.383191	0.919093	-0.628952
C57	C	-0.383109	0.919144	-0.984709
C58	C	-0.383091	0.919159	-1.055400
C59	C	-0.293267	1.009474	-1.051747
C60	C	-0.293283	1.009463	-0.981060
C61	C	-0.338202	0.964294	-0.947545
C62	C	-0.338223	0.964285	-0.870897
C63	C	-0.338236	0.964282	-0.809806
C64	C	-0.338346	0.964197	-0.164157
C65	C	-0.338167	0.964319	-0.088918
H66	H	-0.419953	0.703185	-0.421739
H67	H	-1.070292	0.896783	-0.407538
H68	H	-0.419970	0.347424	-0.421771
H69	H	-0.256805	1.046184	-0.595043
H70	H	-0.419976	0.219179	-0.421783
H71	H	-0.605703	1.031730	-0.272512
H72	H	-0.605726	0.874577	-0.429447
H73	H	-0.256772	1.046199	-0.723275
H74	H	-0.937224	0.902204	-0.402041
H75	H	-0.738803	0.869154	-0.434936
H76	H	-0.825547	1.020604	-0.283763
H77	H	-0.419658	0.882388	-1.085662
H78	H	-0.256720	1.046232	-0.950800
H79	H	-0.419695	0.882374	-0.957430
H80	H	-0.256689	1.046250	-1.079043
H81	H	-0.419734	0.882337	-0.729907
H82	H	-0.256739	0.709894	-0.258261
H83	H	-0.850454	0.907910	-0.396289
H84	H	-0.419956	0.574951	-0.421754
H85	H	-0.419762	0.882310	-0.601663
H86	H	-0.256770	0.225890	-0.258298
H87	H	-0.256751	0.581649	-0.258275
H88	H	-0.256764	0.354124	-0.258284
H89	H	-0.738768	1.026308	-0.278008
H90	H	-1.070270	1.053931	-0.250600
H91	H	-0.937192	1.059358	-0.245110
