data_functionalizedCrystal
_audit_creation_method	'MofGen! by Chris Wilmer'
_symmetry_space_group_name_H-M	'P1'
_symmetry_Int_Tables_number	1
_symmetry_cell_setting	triclinic
loop_
_symmetry_equiv_pos_as_xyz
  x,y,z
_cell_length_a	15.538191
_cell_length_b	15.995350
_cell_length_c	14.750779
_cell_angle_alpha	77.359549
_cell_angle_beta	97.572172
_cell_angle_gamma	65.382234
loop_
_atom_site_label
_atom_site_type_symbol
_atom_site_fract_x
_atom_site_fract_y
_atom_site_fract_z
O1	O	1.229458	-0.247558	-0.079847
O2	O	0.955200	-0.150879	-0.079843
O3	O	1.099826	-0.323385	-0.079844
O4	O	1.084832	-0.075052	-0.079846
O5	O	1.140710	-0.372146	0.079806
O6	O	0.996084	-0.199640	0.079807
O7	O	1.270342	-0.296319	0.079803
Zn8	Zn	1.139704	-0.255722	0.105153
Zn9	Zn	1.085838	-0.191476	-0.105193
O10	O	1.125716	-0.123813	0.079804
C11	C	0.940547	-0.165145	-0.000017
C12	C	0.835974	-0.135015	-0.000016
C13	C	1.119648	-0.378771	-0.000021
C14	C	1.117788	-0.471155	-0.000026
C15	C	0.548180	-0.434345	-0.000029
C16	C	0.449914	-0.406012	-0.000030
C17	C	0.427471	-0.246646	-0.000030
C18	C	0.525738	-0.274967	-0.000025
C19	C	0.586085	-0.368818	-0.000025
C20	C	0.563643	-0.209440	-0.000021
C21	C	0.661900	-0.237757	-0.000021
C22	C	0.722253	-0.331603	-0.000024
C23	C	0.684342	-0.397135	-0.000025
C24	C	0.503293	-0.115588	-0.000028
C25	C	0.541198	-0.050060	-0.000024
C26	C	0.639459	-0.078380	-0.000017
C27	C	0.699811	-0.172225	-0.000020
C28	C	0.677369	-0.012847	-0.000016
C29	C	0.775627	-0.041165	-0.000015
C30	C	0.798068	-0.200543	-0.000019
C31	C	1.111115	-0.806875	-0.000023
C32	C	1.008023	-0.728029	-0.000379
C33	C	1.009974	-0.632013	-0.000020
C34	C	1.114425	-0.640320	-0.000025
C35	C	1.188574	-0.724682	0.091140
C36	C	1.186007	-0.820555	0.091216
C37	C	1.141642	-0.766109	-0.090335
C38	C	1.141309	-0.668788	-0.091540
C39	C	1.116302	-0.546194	-0.000023
C40	C	1.109243	-0.901005	-0.000019
C41	C	1.284995	-0.282053	-0.000025
C42	C	1.389566	-0.312180	-0.000033
C43	C	1.105894	-0.068426	-0.000021
C44	C	1.107752	0.023960	-0.000022
N45	N	1.176474	-0.299570	0.248708
N46	N	1.049076	-0.147637	-0.248748
C47	C	0.946384	-0.025213	0.600529
C48	C	0.972157	-0.055935	0.701028
C49	C	1.100250	-0.208655	0.700989
C50	C	1.074485	-0.177947	0.600488
C51	C	0.997552	-0.086225	0.550266
C52	C	1.125653	-0.238959	0.550225
C53	C	1.099893	-0.208251	0.449733
C54	C	1.022965	-0.116531	0.399504
C55	C	0.971792	-0.055517	0.449774
C56	C	1.202589	-0.330678	0.600449
C57	C	1.253757	-0.391690	0.550186
C58	C	1.227993	-0.360985	0.449692
C59	C	1.151066	-0.269266	0.399463
C60	C	1.279166	-0.422000	0.399422
C61	C	1.253406	-0.391292	0.298930
C62	C	1.125306	-0.238558	0.298971
H63	H	0.847208	-0.276967	-0.000014
C64	C	0.614569	-0.537587	-0.000025
N65	N	0.664572	-0.615345	-0.000024
H66	H	1.223563	-0.355675	0.682276
C67	C	1.072238	-0.751514	-0.183684
N68	N	1.019954	-0.740517	-0.253990
H69	H	1.062653	-0.163872	0.258078
H70	H	0.419056	-0.459379	-0.000034
H71	H	1.166413	-0.848413	0.159368
H72	H	1.262686	-0.877048	0.095349
H73	H	1.086894	-0.609652	-0.158982
H74	H	0.950113	-0.714081	-0.065756
C75	C	0.978313	-0.604873	0.088422
N76	N	0.954466	-0.584432	0.155041
C77	C	0.750731	-0.500377	-0.000020
N78	N	0.800734	-0.578135	-0.000020
C79	C	0.933409	-0.550251	-0.088301
N80	N	0.875732	-0.488669	-0.154795
H81	H	1.316399	-0.466370	0.591089
H82	H	0.378322	-0.170232	-0.000034
C83	C	0.395205	-0.084439	-0.000032
N84	N	0.313793	-0.060978	-0.000036
H85	H	0.492049	0.026354	-0.000028
H86	H	0.802257	-0.354653	-0.000036
H87	H	1.341811	-0.496678	0.440326
H88	H	0.628218	0.063569	-0.000025
H89	H	0.806491	0.012192	-0.000003
H90	H	0.983687	-0.755023	0.064634
C91	C	1.293414	-0.738490	0.095731
N92	N	1.372378	-0.748883	0.099190
C93	C	1.164374	-0.699854	0.182799
N94	N	1.146138	-0.681152	0.251834
C95	C	1.242311	-0.677045	-0.098980
N96	N	1.318394	-0.683273	-0.104574
C97	C	1.244018	-0.839945	-0.091173
N98	N	1.321126	-0.895564	-0.091798
C99	C	0.994628	-0.082753	0.288959
N100	N	0.973283	-0.057311	0.205696
H101	H	0.909140	0.019169	0.408881
C102	C	0.861716	0.075665	0.545279
N103	N	0.797936	0.151636	0.503664
H104	H	0.930484	-0.006243	0.741947
C105	C	1.184871	-0.309549	0.756245
N106	N	1.248606	-0.385546	0.797862
H107	H	1.295074	-0.440975	0.258006
