data_functionalizedCrystal
_audit_creation_method	'MofGen! by Chris Wilmer'
_symmetry_space_group_name_H-M	'P1'
_symmetry_Int_Tables_number	1
_symmetry_cell_setting	triclinic
loop_
_symmetry_equiv_pos_as_xyz
  x,y,z
_cell_length_a	10.686220
_cell_length_b	15.299816
_cell_length_c	10.686551
_cell_angle_alpha	94.573802
_cell_angle_beta	90.307919
_cell_angle_gamma	83.959407
loop_
_atom_site_label
_atom_site_type_symbol
_atom_site_fract_x
_atom_site_fract_y
_atom_site_fract_z
Zn1	Zn	2.027752	-0.214215	-0.610042
Zn2	Zn	2.052701	-0.373254	-0.435661
Zn3	Zn	1.807690	-0.236693	-0.421359
Zn4	Zn	1.858670	-0.371473	-0.661042
O5	O	1.936703	-0.298909	-0.532026
O6	O	2.204361	-0.226649	-0.571552
O7	O	2.009306	-0.365291	-0.260476
O8	O	1.805106	-0.110746	-0.419060
O9	O	2.222690	-0.343495	-0.443435
O10	O	1.966784	-0.094232	-0.557685
O11	O	1.829298	-0.264960	-0.249969
O12	O	1.641154	-0.263234	-0.468512
O13	O	1.891993	-0.340460	-0.827564
O14	O	1.678608	-0.362256	-0.644605
O15	O	2.016217	-0.224923	-0.790095
O16	O	2.058738	-0.495982	-0.492887
O17	O	1.916185	-0.494674	-0.658473
C18	C	1.614947	-0.314992	-0.560542
C19	C	1.477305	-0.321892	-0.572775
C20	C	1.995736	-0.527208	-0.582790
C21	C	2.021107	-0.624867	-0.604538
C22	C	1.756216	-0.934839	-0.376936
C23	C	1.732373	-0.843084	-0.356506
C24	C	1.804554	-0.788525	-0.418512
C25	C	1.900583	-0.825731	-0.500952
C26	C	1.924421	-0.917496	-0.521392
C27	C	1.972760	-0.771182	-0.562967
C28	C	2.068788	-0.808388	-0.645408
C29	C	2.092623	-0.900143	-0.665843
C30	C	2.020442	-0.954702	-0.603837
C31	C	1.948921	-0.679417	-0.542528
C32	C	2.117127	-0.662074	-0.686983
C33	C	2.140970	-0.753829	-0.707413
C34	C	2.259716	-0.282763	-0.503400
C35	C	2.397365	-0.275883	-0.491201
C36	C	1.957009	-0.279986	-0.855017
C37	C	1.965662	-0.271922	-0.992657
C38	C	1.877475	-0.069714	-0.481088
C39	C	1.852236	0.027955	-0.459381
C40	C	1.916532	-0.317691	-0.210271
C41	C	1.908055	-0.325495	-0.072556
H42	H	1.440445	-0.366561	-0.651971
F43	F	1.445546	-0.217500	-0.387668
F44	F	1.846724	-0.639830	-0.454791
F45	F	1.630166	-0.803492	-0.268783
F46	F	1.778856	-0.690868	-0.397138
F47	F	2.193951	-0.604013	-0.752981
H48	H	1.852119	-0.377532	-1.035663
F49	F	1.679392	-0.992908	-0.310973
F50	F	2.046004	-1.052362	-0.625354
F51	F	2.194806	-0.939738	-0.753605
H52	H	2.219156	-0.784136	-0.774538
F53	F	2.038794	-0.203908	-1.040880
