data_functionalizedCrystal
_audit_creation_method	'MofGen! by Chris Wilmer'
_symmetry_space_group_name_H-M	'P1'
_symmetry_Int_Tables_number	1
_symmetry_cell_setting	triclinic
loop_
_symmetry_equiv_pos_as_xyz
  x,y,z
_cell_length_a	19.121102
_cell_length_b	19.121063
_cell_length_c	12.759387
_cell_angle_alpha	92.402374
_cell_angle_beta	87.539768
_cell_angle_gamma	90.126902
loop_
_atom_site_label
_atom_site_type_symbol
_atom_site_fract_x
_atom_site_fract_y
_atom_site_fract_z
Zn1	Zn	1.059866	-0.324848	-0.682296
Zn2	Zn	1.559866	0.175152	-0.182296
Zn3	Zn	1.054768	-0.442100	-0.513752
Zn4	Zn	1.554768	0.057900	-0.013752
Zn5	Zn	0.942624	-0.319877	-0.498836
Zn6	Zn	1.442624	0.180123	0.001164
Zn7	Zn	0.937591	-0.437039	-0.681593
Zn8	Zn	1.437591	0.062961	-0.181593
O9	O	0.998712	-0.380966	-0.594119
O10	O	1.498712	0.119034	-0.094119
O11	O	1.157295	-0.344601	-0.666475
O12	O	1.657295	0.155399	-0.166475
O13	O	1.039865	-0.425925	-0.364753
O14	O	1.539865	0.074075	0.135247
O15	O	0.962417	-0.222433	-0.517225
O16	O	1.462417	0.277567	-0.017225
O17	O	1.153550	-0.430745	-0.542646
O18	O	1.653550	0.069255	-0.042646
O19	O	1.048554	-0.226086	-0.652012
O20	O	1.548554	0.273914	-0.152012
O21	O	0.957473	-0.336128	-0.353795
O22	O	1.457473	0.163872	0.146205
O23	O	0.843851	-0.331220	-0.516543
O24	O	1.343851	0.168780	-0.016543
O25	O	0.953838	-0.422119	-0.828707
O26	O	1.453838	0.077881	-0.328707
O27	O	0.840154	-0.417298	-0.650813
O28	O	1.340154	0.082702	-0.150813
O29	O	1.043673	-0.339693	-0.829223
O30	O	1.543673	0.160307	-0.329223
O31	O	1.034985	-0.539532	-0.541964
O32	O	1.534985	-0.039532	-0.041964
O33	O	0.948895	-0.535813	-0.665276
O34	O	1.448895	-0.035813	-0.165276
C35	C	0.816565	-0.373171	-0.581984
C36	C	1.316565	0.126829	-0.081984
C37	C	0.738641	-0.369853	-0.576818
C38	C	1.238641	0.130147	-0.076818
C39	C	0.990860	-0.563110	-0.605187
C40	C	1.490860	-0.063110	-0.105187
C41	C	0.987564	-0.641035	-0.609961
C42	C	1.487564	-0.141035	-0.109961
C43	C	0.700122	-0.413178	-0.644198
C44	C	1.200122	0.086822	-0.144198
C45	C	0.626904	-0.410051	-0.639348
C46	C	1.126904	0.089949	-0.139348
C47	C	0.592206	-0.363602	-0.567114
C48	C	1.092206	0.136398	-0.067114
C49	C	0.630730	-0.320272	-0.499732
C50	C	1.130730	0.179728	0.000268
C51	C	0.703947	-0.323396	-0.504587
C52	C	1.203947	0.176604	-0.004587
C53	C	0.371235	-0.351921	-0.548968
C54	C	0.871235	0.148079	-0.048968
C55	C	0.298014	-0.348802	-0.544116
C56	C	0.798014	0.151198	-0.044116
C57	C	0.294192	-0.438581	-0.683734
C58	C	0.794192	0.061419	-0.183734
C59	C	0.367410	-0.441703	-0.688578
C60	C	0.867410	0.058297	-0.188578
C61	C	0.405928	-0.398371	-0.621200
C62	C	0.905928	0.101629	-0.121200
C63	C	0.517366	-0.360406	-0.562154
C64	C	1.017366	0.139594	-0.062154
C65	C	0.480767	-0.401563	-0.626166
C66	C	0.980767	0.098437	-0.126166
C67	C	1.030873	-0.679559	-0.548060
C68	C	1.530873	-0.179559	-0.048060
C69	C	1.027778	-0.752777	-0.552556
C70	C	1.527778	-0.252777	-0.052556
C71	C	0.981370	-0.787471	-0.618949
C72	C	1.481370	-0.287471	-0.118949
C73	C	0.938059	-0.748942	-0.680857
C74	C	1.438059	-0.248942	-0.180857
C75	C	0.941158	-0.675725	-0.676366
C76	C	1.441158	-0.175725	-0.176366
C77	C	0.969771	-1.008444	-0.635725
C78	C	1.469771	-0.508444	-0.135725
C79	C	0.966674	-1.081666	-0.640210
C80	C	1.466674	-0.581666	-0.140210
C81	C	1.056394	-1.085496	-0.511910
C82	C	1.556394	-0.585496	-0.011910
C83	C	1.059486	-1.012277	-0.507419
C84	C	1.559486	-0.512277	-0.007419
C85	C	1.016178	-0.973755	-0.569332
C86	C	1.516178	-0.473755	-0.069332
C87	C	0.978203	-0.862312	-0.623544
C88	C	1.478203	-0.362312	-0.123544
C89	C	1.019349	-0.898915	-0.564741
C90	C	1.519349	-0.398915	-0.064741
C91	C	1.181571	-0.388792	-0.606303
C92	C	1.681571	0.111208	-0.106303
C93	C	1.259495	-0.392127	-0.611495
C94	C	1.759495	0.107873	-0.111495
C95	C	0.998763	-0.380896	-0.868152
C96	C	1.498763	0.119104	-0.368152
C97	C	0.998785	-0.380866	-0.984928
C98	C	1.498785	0.119134	-0.484928
C99	C	1.006615	-0.198111	-0.583033
C100	C	1.506615	0.301889	-0.083033
C101	C	1.009983	-0.120190	-0.578309
C102	C	1.509983	0.379810	-0.078309
C103	C	0.912996	-0.287354	-0.973536
C104	C	1.412996	0.212646	-0.473536
C105	C	0.870116	-0.240585	-1.022701
C106	C	1.370116	0.259415	-0.522701
C107	C	0.870138	-0.240561	-1.132422
C108	C	1.370138	0.259439	-0.632422
C109	C	0.913044	-0.287312	-1.192982
C110	C	1.413044	0.212688	-0.692982
C111	C	0.955924	-0.334081	-1.143817
C112	C	1.455924	0.165919	-0.643817
C113	C	0.955899	-0.334099	-1.034093
C114	C	1.455899	0.165901	-0.534093
C115	C	1.041708	-0.427595	-1.155209
C116	C	1.541708	0.072405	-0.655209
C117	C	1.041691	-0.427617	-1.045488
C118	C	1.541691	0.072383	-0.545488
C119	C	1.084614	-0.474346	-1.215769
C120	C	1.584614	0.025654	-0.715769
C121	C	1.127500	-0.521113	-1.166605
C122	C	1.627500	-0.021113	-0.666605
C123	C	1.127476	-0.521135	-1.056876
C124	C	1.627476	-0.021135	-0.556876
C125	C	1.084571	-0.474386	-0.996323
C126	C	1.584571	0.025614	-0.496323
C127	C	0.998705	-0.380987	-0.321153
C128	C	1.498705	0.119013	0.178847
C129	C	0.998827	-0.380826	-0.204374
C130	C	1.498827	0.119174	0.295626
H131	H	0.728367	-0.451004	-0.703015
H132	H	1.228367	0.048996	-0.203015
Br133	Br	0.423501	-0.293109	-0.457531
Br134	Br	0.923501	0.206891	0.042469
Br135	Br	0.527858	-0.464598	-0.724198
Br136	Br	1.027858	0.035402	-0.224198
Br137	Br	1.093852	-0.632481	-0.457941
Br138	Br	1.593852	-0.132481	0.042059
Br139	Br	0.241915	-0.497388	-0.775167
Br140	Br	0.741915	0.002612	-0.275167
H141	H	0.602474	-0.282449	-0.440922
H142	H	1.102474	0.217551	0.059078
Br143	Br	0.912975	-0.287373	-0.824627
Br144	Br	1.412975	0.212627	-0.324627
H145	H	0.395656	-0.479529	-0.747396
H146	H	0.895656	0.020471	-0.247396
H147	H	1.162397	-0.559218	-1.016853
H148	H	1.662397	-0.059218	-0.516853
Br149	Br	1.084541	-0.474408	-0.847413
Br150	Br	1.584541	0.025592	-0.347413
H151	H	0.905893	-0.644359	-0.726773
H152	H	1.405893	-0.144359	-0.226773
Br153	Br	1.122480	-0.965199	-0.417326
Br154	Br	1.622480	-0.465199	0.082674
Br155	Br	0.250924	-0.285768	-0.446066
Br156	Br	0.750924	0.214232	0.053934
H157	H	1.091654	-1.116869	-0.461506
H158	H	1.591654	-0.616869	0.038494
H159	H	0.735308	-0.288112	-0.449725
H160	H	1.235308	0.211888	0.050275
H161	H	0.595545	-0.445332	-0.694215
H162	H	1.095545	0.054668	-0.194215
Br163	Br	0.903676	-1.128750	-0.730302
Br164	Br	1.403676	-0.628750	-0.230302
Br165	Br	0.910996	-0.956173	-0.719750
Br166	Br	1.410996	-0.456173	-0.219750
H167	H	0.900276	-0.777195	-0.734920
H168	H	1.400276	-0.277195	-0.234920
H169	H	0.835181	-0.202523	-0.973381
H170	H	1.335181	0.297477	-0.473381
Br171	Br	1.086561	-0.805057	-0.468550
Br172	Br	1.586561	-0.305057	0.031450
H173	H	0.489107	-0.322589	-0.503338
H174	H	0.989107	0.177411	-0.003338
H175	H	1.057137	-0.870666	-0.510688
H176	H	1.557137	-0.370666	-0.010688
H177	H	0.940416	-0.890568	-0.677599
H178	H	1.440416	-0.390568	-0.177599
H179	H	0.835219	-0.202478	-1.172452
H180	H	1.335219	0.297522	-0.672452
Br181	Br	0.913057	-0.287292	-1.341891
Br182	Br	1.413057	0.212708	-0.841891
Br183	Br	1.084635	-0.474322	-1.364678
Br184	Br	1.584635	0.025678	-0.864678
Br185	Br	1.185715	-0.584560	-1.248795
Br186	Br	1.685715	-0.084560	-0.748795
