data_functionalizedCrystal
_audit_creation_method	'MofGen! by Chris Wilmer'
_symmetry_space_group_name_H-M	'P1'
_symmetry_Int_Tables_number	1
_symmetry_cell_setting	triclinic
loop_
_symmetry_equiv_pos_as_xyz
  x,y,z
_cell_length_a	17.019282
_cell_length_b	19.288859
_cell_length_c	18.366186
_cell_angle_alpha	89.994011
_cell_angle_beta	93.872176
_cell_angle_gamma	83.261635
loop_
_atom_site_label
_atom_site_type_symbol
_atom_site_fract_x
_atom_site_fract_y
_atom_site_fract_z
O1	O	1.046364	0.088442	0.005083
O2	O	1.546364	0.588442	0.505083
O3	O	0.816659	0.099737	-0.009326
O4	O	1.316659	0.599737	0.490674
O5	O	0.938151	-0.007029	-0.001700
O6	O	1.438151	0.492971	0.498300
O7	O	0.924872	0.195209	-0.002542
O8	O	1.424872	0.695209	0.497458
O9	O	0.938131	-0.007035	0.119398
O10	O	1.438131	0.492965	0.619398
O11	O	0.816639	0.099732	0.111772
O12	O	1.316639	0.599732	0.611772
O13	O	1.046343	0.088437	0.126182
O14	O	1.546343	0.588437	0.626182
Zn15	Zn	0.931488	0.094084	0.138204
Zn16	Zn	1.431488	0.594084	0.638204
Zn17	Zn	0.931515	0.094091	-0.021348
Zn18	Zn	1.431515	0.594091	0.478652
O19	O	0.924851	0.195204	0.118556
O20	O	1.424851	0.695204	0.618556
C21	C	0.937715	-0.032909	0.058821
C22	C	1.437715	0.467091	0.558821
C23	C	0.936434	-0.110015	0.058740
C24	C	1.436434	0.389985	0.558740
C25	C	0.787262	0.099308	0.049380
C26	C	1.287262	0.599308	0.549380
C27	C	0.699696	0.098029	0.043887
C28	C	1.199696	0.598029	0.543887
C29	C	0.999060	-0.673949	0.062649
C30	C	1.499060	-0.173949	0.562649
C31	C	1.000270	-0.601500	0.062731
C32	C	1.500270	-0.101500	0.562731
C33	C	0.928984	-0.556916	0.058259
C34	C	1.428984	-0.056916	0.558259
C35	C	0.856482	-0.584785	0.053723
C36	C	1.356482	-0.084785	0.553723
C37	C	0.855274	-0.657232	0.053648
C38	C	1.355274	-0.157232	0.553648
C39	C	0.875826	-0.435731	0.012500
C40	C	1.375826	0.064269	0.512500
C41	C	0.877037	-0.363285	0.012570
C42	C	1.377037	0.136715	0.512570
C43	C	0.932706	-0.333463	0.058494
C44	C	1.432706	0.166537	0.558494
C45	C	0.987177	-0.376097	0.104338
C46	C	1.487177	0.123903	0.604338
C47	C	0.985970	-0.448545	0.104263
C48	C	1.485970	0.051455	0.604263
C49	C	0.930285	-0.478358	0.058341
C50	C	1.430285	0.021642	0.558341
C51	C	1.006514	-0.227045	0.063124
C52	C	1.506514	0.272955	0.563124
C53	C	1.007721	-0.154595	0.063211
C54	C	1.507721	0.345405	0.563211
C55	C	0.863932	-0.137881	0.054195
C56	C	1.363932	0.362119	0.554195
C57	C	0.862727	-0.210330	0.054116
C58	C	1.362727	0.289670	0.554116
C59	C	0.934021	-0.254908	0.058577
C60	C	1.434021	0.245092	0.558577
C61	C	0.658551	0.097424	0.107318
C62	C	1.158551	0.597424	0.607318
C63	C	0.576276	0.096211	0.102159
C64	C	1.076276	0.596211	0.602159
C65	C	0.535146	0.095608	0.033568
C66	C	1.035146	0.595608	0.533568
C67	C	0.576297	0.096212	-0.029869
C68	C	1.076297	0.596212	0.470131
C69	C	0.658572	0.097420	-0.024709
C70	C	1.158572	0.597420	0.475291
C71	C	0.286732	0.091957	0.014686
C72	C	0.786732	0.591957	0.514686
C73	C	0.204451	0.090751	0.009531
C74	C	0.704451	0.590751	0.509531
C75	C	0.204436	0.090748	0.141559
C76	C	0.704436	0.590748	0.641559
C77	C	0.286711	0.091961	0.146713
C78	C	0.786711	0.591961	0.646713
C79	C	0.327856	0.092560	0.083277
C80	C	0.827856	0.592560	0.583277
C81	C	0.451048	0.094371	0.028293
C82	C	0.951048	0.594371	0.528293
C83	C	0.411954	0.093793	0.088553
C84	C	0.911954	0.593793	0.588553
C85	C	1.075741	0.088866	0.067474
C86	C	1.575741	0.588866	0.567474
C87	C	1.163306	0.090145	0.072963
C88	C	1.663306	0.590145	0.572963
C89	C	0.925288	0.221084	0.058033
C90	C	1.425288	0.721084	0.558033
C91	C	0.926568	0.298190	0.058109
C92	C	1.426568	0.798190	0.558109
N93	N	0.931475	0.094079	0.247094
N94	N	1.431475	0.594079	0.747094
N95	N	0.931534	0.094090	-0.130238
N96	N	1.431534	0.594090	0.369762
C97	C	0.985289	0.046825	0.288572
C98	C	1.485289	0.546825	0.788572
C99	C	0.985294	0.046822	0.364800
C100	C	1.485294	0.546822	0.864800
C101	C	0.931492	0.094084	0.399548
C102	C	1.431492	0.594084	0.899548
C103	C	0.877668	0.141341	0.358060
C104	C	1.377668	0.641341	0.858060
C105	C	0.877659	0.141338	0.281833
C106	C	1.377659	0.641338	0.781833
C107	C	0.920931	0.157354	0.519643
C108	C	1.420931	0.657354	1.019643
C109	C	0.920945	0.157358	0.595869
C110	C	1.420945	0.657358	1.095869
C111	C	0.931515	0.094093	0.634657
C112	C	1.431515	0.594093	1.134657
C113	C	0.942087	0.030822	0.597211
C114	C	1.442087	0.530822	1.097211
C115	C	0.942078	0.030819	0.520984
C116	C	1.442078	0.530819	1.020984
C117	C	0.931496	0.094092	0.482203
C118	C	1.431496	0.594092	0.982203
C119	C	0.985338	0.046833	0.758790
C120	C	1.485338	0.546833	1.258790
C121	C	0.985337	0.046829	0.835020
C122	C	1.485337	0.546829	1.335020
C123	C	0.877715	0.141353	0.828278
C124	C	1.377715	0.641353	1.328278
C125	C	0.877711	0.141351	0.752050
C126	C	1.377711	0.641351	1.252050
C127	C	0.931527	0.094092	0.717311
C128	C	1.431527	0.594092	1.217311
H129	H	1.057113	-0.710240	0.066286
H130	H	1.557113	-0.210240	0.566286
H131	H	0.832687	-0.328578	-0.024762
H132	H	1.332687	0.171422	0.475238
Br133	Br	0.804619	0.205471	0.225536
Br134	Br	1.304619	0.705471	0.725536
H135	H	0.830483	-0.460004	-0.024892
H136	H	1.330483	0.039996	0.475108
H137	H	0.320194	0.092448	0.202568
H138	H	0.820194	0.592448	0.702568
H139	H	1.059303	-0.578811	0.066428
H140	H	1.559303	-0.078811	0.566428
Br141	Br	0.804689	0.205488	0.875429
Br142	Br	1.304689	0.705488	1.375429
Br143	Br	1.058369	-0.017312	0.891316
Br144	Br	1.558369	0.482688	1.391316
H145	H	1.032504	-0.351818	0.141738
H146	H	1.532504	0.148182	0.641738
Br147	Br	0.520484	0.095364	-0.122958
Br148	Br	1.020484	0.595364	0.377042
H149	H	1.064566	-0.263343	0.066757
H150	H	1.564566	0.236657	0.566757
H151	H	0.692071	0.097914	-0.076362
H152	H	1.192071	0.597914	0.423638
H153	H	1.029107	0.008342	0.260290
H154	H	1.529107	0.508342	0.760290
Br155	Br	0.767184	-0.077381	0.048139
Br156	Br	1.267184	0.422619	0.548139
H157	H	0.542782	0.095706	0.153812
H158	H	1.042782	0.595706	0.653812
H159	H	1.066755	-0.131913	0.066912
H160	H	1.566755	0.368087	0.566912
Br161	Br	0.764340	-0.248145	0.047950
Br162	Br	1.264340	0.251855	0.547950
Br163	Br	0.759736	-0.524279	0.047661
Br164	Br	1.259736	-0.024279	0.547661
H165	H	0.796241	-0.679916	0.049953
H166	H	1.296241	-0.179916	0.549953
H167	H	0.170928	0.090259	0.193206
H168	H	0.670928	0.590259	0.693206
H169	H	0.912310	0.208876	0.488067
H170	H	1.412310	0.708876	0.988067
H171	H	1.030321	-0.483255	0.141592
H172	H	1.530321	0.016745	0.641592
Br173	Br	1.058333	-0.017313	0.421102
Br174	Br	1.558333	0.482687	0.921102
H175	H	0.833861	0.179821	0.386355
H176	H	1.333861	0.679821	0.886355
H177	H	0.950684	-0.020699	0.490498
H178	H	1.450684	0.479301	0.990498
Br179	Br	0.467774	0.094606	0.181638
Br180	Br	0.967774	0.594606	0.681638
H181	H	0.833894	0.179832	0.718276
H182	H	1.333894	0.679832	1.218276
Br183	Br	0.714361	0.098248	0.200411
Br184	Br	1.214361	0.598248	0.700411
Br185	Br	0.148631	0.089938	-0.083564
Br186	Br	0.648631	0.589938	0.416436
Br187	Br	0.395228	0.093516	-0.064793
Br188	Br	0.895228	0.593516	0.435207
H189	H	0.950693	-0.020695	0.628790
H190	H	1.450693	0.479305	1.128790
Br191	Br	1.058369	-0.017307	0.711642
Br192	Br	1.558369	0.482693	1.211642
H193	H	0.320222	0.092443	-0.036969
H194	H	0.820222	0.592443	0.463031
H195	H	0.912342	0.208877	0.626352
H196	H	1.412342	0.708877	1.126352
