data_functionalizedCrystal
_audit_creation_method	'MofGen! by Chris Wilmer'
_symmetry_space_group_name_H-M	'P1'
_symmetry_Int_Tables_number	1
_symmetry_cell_setting	triclinic
loop_
_symmetry_equiv_pos_as_xyz
  x,y,z
_cell_length_a	14.853566
_cell_length_b	14.853567
_cell_length_c	13.330367
_cell_angle_alpha	90.001398
_cell_angle_beta	89.995157
_cell_angle_gamma	83.634672
loop_
_atom_site_label
_atom_site_type_symbol
_atom_site_fract_x
_atom_site_fract_y
_atom_site_fract_z
O1	O	-1.196370	-0.117695	0.083349
O2	O	-0.933910	-0.131718	0.083364
O3	O	-1.072151	0.006523	0.083359
O4	O	-1.058129	-0.255936	0.083354
O5	O	-1.072130	0.006520	-0.083488
O6	O	-0.933889	-0.131721	-0.083483
O7	O	-1.196349	-0.117698	-0.083499
Cu8	Cu	-1.065117	-0.124710	-0.098725
Cu9	Cu	-1.065142	-0.124706	0.098591
O10	O	-1.058108	-0.255939	-0.083493
C11	C	-1.071505	0.040111	-0.000062
C12	C	-1.069601	0.140194	-0.000053
C13	C	-0.900311	-0.131084	-0.000057
C14	C	-0.800227	-0.129181	-0.000051
C15	C	-1.229948	-0.118332	-0.000075
C16	C	-1.330032	-0.120235	-0.000075
C17	C	-1.058754	-0.289526	-0.000071
C18	C	-1.060658	-0.389610	-0.000073
C19	C	-0.377054	-0.121128	0.090880
C20	C	-0.377052	-0.121132	-0.091023
C21	C	-0.471086	-0.122920	-0.091020
C22	C	-0.518108	-0.123813	-0.000066
C23	C	-0.471096	-0.122919	0.090886
C24	C	-0.518104	-0.123823	-0.181970
C25	C	-0.612144	-0.125611	-0.181971
C26	C	-0.659169	-0.126498	-0.091015
C27	C	-0.612151	-0.125603	-0.000060
C28	C	-0.659173	-0.126496	0.090895
C29	C	-0.612158	-0.125595	0.181851
C30	C	-0.518121	-0.123806	0.181841
C31	C	-0.753205	-0.128287	-0.091006
C32	C	-0.753215	-0.128287	0.090900
C33	C	-0.979435	0.552728	-0.000067
C34	C	-1.143668	0.574009	-0.000076
C35	C	-1.145458	0.479976	-0.000070
C36	C	-1.064236	0.422313	-0.000064
C37	C	-0.981223	0.458685	-0.000064
C38	C	-1.228470	0.443597	-0.000081
C39	C	-1.230263	0.349558	-0.000076
C40	C	-1.149040	0.291894	-0.000063
C41	C	-1.066023	0.328271	-0.000061
C42	C	-0.984801	0.270608	-0.000055
C43	C	-0.901784	0.306984	-0.000047
C44	C	-0.899999	0.401021	-0.000050
C45	C	-1.150824	0.197856	-0.000059
C46	C	-0.986588	0.176566	-0.000052
N47	N	-1.065106	-0.124711	-0.237507
C48	C	-1.010366	-0.069932	-0.290027
C49	C	-1.119858	-0.179486	-0.290014
C50	C	-1.119868	-0.179486	-0.395033
C51	C	-1.065128	-0.124707	-0.447553
C52	C	-1.010377	-0.069928	-0.395055
C53	C	-1.174625	-0.234257	-0.447538
C54	C	-1.174639	-0.234257	-0.552563
C55	C	-1.119893	-0.179482	-0.605086
C56	C	-1.065139	-0.124702	-0.552581
C57	C	-1.010398	-0.069923	-0.605102
C58	C	-0.955639	-0.015147	-0.552599
C59	C	-0.955631	-0.015153	-0.447578
C60	C	-1.119901	-0.179477	-0.710107
C61	C	-1.010409	-0.069919	-0.710130
N62	N	-1.065160	-0.124697	0.237372
H63	H	-0.791494	-0.129011	0.164968
F64	F	-1.318616	0.310853	-0.000073
H65	H	-0.911050	0.029444	-0.404821
F66	F	-0.952086	-0.011642	-0.234151
F67	F	-0.891087	0.591440	-0.000049
H68	H	-0.650416	-0.126344	-0.256033
F69	F	-0.811655	0.439741	-0.000038
F70	F	-0.662212	-0.126551	0.278648
F71	F	-0.468082	-0.122818	0.278634
F72	F	-0.327021	-0.120147	0.187677
F73	F	-0.327005	-0.120191	-0.187818
F74	F	-1.178182	-0.237762	-0.765979
H75	H	-1.294597	0.490552	-0.000095
F76	F	-0.468055	-0.122882	-0.278763
F77	F	-1.232885	-0.292547	-0.391638
F78	F	-1.178118	-0.237777	-0.234116
H79	H	-0.791480	-0.129030	-0.165061
F80	F	-1.232915	-0.292557	-0.608431
F81	F	-1.239170	0.159147	-0.000084
F82	F	-0.900138	0.115204	-0.000039
H83	H	-0.965828	-0.025314	-0.752885
H84	H	-1.209796	0.620963	-0.000089
F85	F	-0.815344	0.245605	-0.000048
H86	H	-0.911073	0.029458	-0.595375
