data_functionalizedCrystal
_audit_creation_method	'MofGen! by Chris Wilmer'
_symmetry_space_group_name_H-M	'P1'
_symmetry_Int_Tables_number	1
_symmetry_cell_setting	triclinic
loop_
_symmetry_equiv_pos_as_xyz
  x,y,z
_cell_length_a	19.805407
_cell_length_b	17.640280
_cell_length_c	17.637464
_cell_angle_alpha	92.150542
_cell_angle_beta	101.195709
_cell_angle_gamma	78.800112
loop_
_atom_site_label
_atom_site_type_symbol
_atom_site_fract_x
_atom_site_fract_y
_atom_site_fract_z
Zn1	Zn	1.038358	-0.389139	-0.368358
Zn2	Zn	1.082283	-0.490460	-0.215729
Zn3	Zn	0.942731	-0.363492	-0.241376
Zn4	Zn	0.951588	-0.516080	-0.342683
O5	O	1.003740	-0.439793	-0.292037
O6	O	1.138901	-0.402590	-0.348124
O7	O	1.078447	-0.452163	-0.112858
O8	O	0.933326	-0.260632	-0.279699
O9	O	1.171172	-0.477031	-0.235987
O10	O	1.003583	-0.279474	-0.372993
O11	O	0.975918	-0.358880	-0.131701
O12	O	0.849189	-0.383723	-0.254803
O13	O	0.948423	-0.520696	-0.452362
O14	O	0.855697	-0.495828	-0.329232
O15	O	1.012172	-0.427433	-0.471226
O16	O	1.087036	-0.600121	-0.211091
O17	O	0.991015	-0.618944	-0.304363
C18	C	0.827884	-0.439773	-0.292015
C19	C	0.752654	-0.439787	-0.292020
C20	C	1.044769	-0.637088	-0.252174
C21	C	1.062380	-0.721497	-0.235146
C22	C	0.720742	-0.498218	-0.330682
C23	C	0.650052	-0.498221	-0.330693
C24	C	0.611277	-0.439796	-0.292036
C25	C	0.643193	-0.381360	-0.253373
C26	C	0.713880	-0.381354	-0.253367
C27	C	0.358120	-0.381382	-0.253394
C28	C	0.287428	-0.381393	-0.253401
C29	C	0.294292	-0.498249	-0.330720
C30	C	0.364979	-0.498243	-0.330714
C31	C	0.396888	-0.439805	-0.292055
C32	C	0.473537	-0.439801	-0.292045
C33	C	0.534630	-0.439803	-0.292040
C34	C	0.870191	-1.048189	-0.421672
C35	C	0.886744	-1.127499	-0.405647
C36	C	0.986770	-1.107853	-0.308621
C37	C	0.970228	-1.028540	-0.324640
C38	C	0.911937	-0.998714	-0.381165
C39	C	1.011974	-0.979066	-0.284133
C40	C	0.995430	-0.899759	-0.300148
C41	C	0.937141	-0.869927	-0.356670
C42	C	0.895393	-0.919408	-0.397180
C43	C	1.070262	-1.008892	-0.227604
C44	C	1.112007	-0.959418	-0.187097
C45	C	1.095467	-0.880110	-0.203116
C46	C	1.037178	-0.850278	-0.259638
C47	C	1.137214	-0.830629	-0.162606
C48	C	1.120671	-0.751323	-0.178621
C49	C	1.020634	-0.770972	-0.275653
C50	C	1.180282	-0.439813	-0.292059
C51	C	1.255514	-0.439822	-0.292068
C52	C	0.976386	-0.479783	-0.490120
C53	C	0.964729	-0.496825	-0.574531
C54	C	0.962566	-0.241731	-0.332071
C55	C	0.945021	-0.157328	-0.349132
C56	C	0.915112	-0.569397	-0.683686
C57	C	0.926069	-0.553378	-0.604370
C58	C	0.992450	-0.456270	-0.624003
C59	C	0.981502	-0.472283	-0.703322
C60	C	0.942832	-0.528847	-0.733157
C61	C	1.009221	-0.431733	-0.752793
C62	C	0.998270	-0.447743	-0.832106
C63	C	0.959600	-0.504303	-0.861947
C64	C	0.931881	-0.544857	-0.812469
C65	C	1.047887	-0.375166	-0.722958
C66	C	1.075607	-0.334616	-0.772429
C67	C	1.064660	-0.350629	-0.851742
C68	C	1.025990	-0.407189	-0.881584
C69	C	1.092380	-0.310075	-0.901220
C70	C	1.081429	-0.326084	-0.980532
C71	C	1.015039	-0.423198	-0.960896
C72	C	1.031015	-0.399903	-0.094735
C73	C	1.042758	-0.382648	-0.010367
H74	H	0.624074	-0.545802	-0.362174
N75	N	1.174880	-0.991593	-0.126140
H76	H	1.198817	-0.948215	-0.102912
H77	H	1.159086	-1.017426	-0.084311
N78	N	0.841712	-1.180859	-0.449340
H79	H	0.841805	-1.177997	-0.506404
H80	H	0.861062	-1.235599	-0.430557
N81	N	1.117330	-0.273628	-0.740237
H82	H	1.087066	-0.231786	-0.714432
H83	H	1.159644	-0.297936	-0.701133
H84	H	1.083731	-1.073469	-0.214568
H85	H	1.123859	-0.264015	-0.876917
N86	N	1.111332	-0.282355	-1.033893
H87	H	1.098524	-0.301080	-1.088664
H88	H	1.091441	-0.225322	-1.030991
N89	N	0.406803	-0.561261	-0.372402
H90	H	0.375860	-0.598278	-0.396898
H91	H	0.424861	-0.537508	-0.413829
H92	H	1.023934	-0.410214	-0.599701
N93	N	0.762563	-0.561238	-0.372370
H94	H	0.731618	-0.598253	-0.396865
H95	H	0.780622	-0.537487	-0.413798
N96	N	0.245604	-0.318376	-0.211704
H97	H	0.276543	-0.281353	-0.187214
H98	H	0.204703	-0.289544	-0.249770
N99	N	0.748295	-0.318327	-0.211670
H100	H	0.745916	-0.319076	-0.155024
H101	H	0.798942	-0.327220	-0.217593
H102	H	0.384093	-0.333802	-0.221908
H103	H	0.268303	-0.545830	-0.362202
N104	N	0.601380	-0.318354	-0.211661
H105	H	0.551760	-0.327229	-0.217520
H106	H	0.623672	-0.319154	-0.155035
N107	N	0.919293	-0.784388	-0.373941
H108	H	0.959783	-0.768067	-0.391818
H109	H	0.876015	-0.773063	-0.415875
H110	H	0.903478	-0.586389	-0.564094
N111	N	1.049632	-1.140022	-0.247648
H112	H	1.053777	-1.197770	-0.243645
H113	H	1.093426	-1.128517	-0.262325
H114	H	0.973172	-0.746688	-0.321687
N115	N	1.200073	-0.862809	-0.101632
H116	H	1.234007	-0.901924	-0.125884
H117	H	1.223955	-0.819391	-0.078416
H118	H	0.822729	-1.023905	-0.467706
N119	N	0.832530	-0.887231	-0.458157
H120	H	0.808594	-0.930607	-0.481394
H121	H	0.798644	-0.848111	-0.433851
N122	N	1.165691	-0.697954	-0.134931
H123	H	1.205129	-0.728882	-0.096693
H124	H	1.185845	-0.671262	-0.172529
N125	N	0.973333	-0.484205	-0.993098
H126	H	0.997025	-0.535681	-0.968341
H127	H	0.924431	-0.469554	-0.981678
N128	N	0.947792	-0.521569	-0.947492
H129	H	0.968422	-0.577520	-0.956069
H130	H	0.895813	-0.511416	-0.969360
N131	N	0.890182	-0.605874	-0.844656
H132	H	0.874285	-0.629139	-0.801282
H133	H	0.847890	-0.581603	-0.883808
N134	N	0.873413	-0.630414	-0.715872
H135	H	0.857516	-0.653680	-0.672498
H136	H	0.831121	-0.606144	-0.755024
N137	N	1.059700	-0.357899	-0.637413
H138	H	1.085612	-0.406135	-0.607785
H139	H	1.088378	-0.315889	-0.626089
