data_functionalizedCrystal
_audit_creation_method	'MofGen! by Chris Wilmer'
_symmetry_space_group_name_H-M	'P1'
_symmetry_Int_Tables_number	1
_symmetry_cell_setting	triclinic
loop_
_symmetry_equiv_pos_as_xyz
  x,y,z
_cell_length_a	14.853567
_cell_length_b	14.519731
_cell_length_c	13.930277
_cell_angle_alpha	90.003389
_cell_angle_beta	90.004377
_cell_angle_gamma	83.661892
loop_
_atom_site_label
_atom_site_type_symbol
_atom_site_fract_x
_atom_site_fract_y
_atom_site_fract_z
O1	O	1.196425	0.120401	0.079767
O2	O	1.696425	0.620401	0.579767
O3	O	0.933972	0.134744	0.079784
O4	O	1.433972	0.634744	0.579784
O5	O	1.072147	-0.006668	0.079766
O6	O	1.572147	0.493332	0.579766
O7	O	1.058250	0.261812	0.079784
O8	O	1.558250	0.761812	0.579784
O9	O	1.072127	-0.006665	-0.079896
O10	O	1.572127	0.493335	0.420104
O11	O	0.933952	0.134746	-0.079878
O12	O	1.433952	0.634746	0.420122
O13	O	1.196404	0.120403	-0.079895
O14	O	1.696404	0.620403	0.420105
Zn15	Zn	1.065175	0.127575	-0.105236
Zn16	Zn	1.565175	0.627575	0.394764
Zn17	Zn	1.065201	0.127572	0.105125
Zn18	Zn	1.565201	0.627572	0.605125
O19	O	1.058229	0.261815	-0.079877
O20	O	1.558229	0.761815	0.420123
C21	C	0.900373	0.134095	-0.000045
C22	C	1.400373	0.634095	0.499955
C23	C	0.800288	0.132148	-0.000039
C24	C	1.300288	0.632148	0.499961
C25	C	0.387712	0.039914	-0.000067
C26	C	0.887712	0.539914	0.499933
C27	C	0.366508	0.207914	-0.000055
C28	C	0.866508	0.707914	0.499945
C29	C	0.460543	0.209745	-0.000051
C30	C	0.960543	0.709745	0.499949
C31	C	0.518166	0.126659	-0.000055
C32	C	1.018166	0.626659	0.499945
C33	C	0.481755	0.041742	-0.000061
C34	C	0.981755	0.541742	0.499939
C35	C	0.496961	0.294660	-0.000035
C36	C	0.996961	0.794660	0.499965
C37	C	0.591001	0.296495	-0.000031
C38	C	1.091001	0.796495	0.499969
C39	C	0.648626	0.213408	-0.000041
C40	C	1.148626	0.713408	0.499959
C41	C	0.612210	0.128488	-0.000048
C42	C	1.112210	0.628488	0.499952
C43	C	0.669833	0.045402	-0.000052
C44	C	1.169833	0.545402	0.499948
C45	C	0.633419	-0.039519	-0.000066
C46	C	1.133419	0.460481	0.499934
C47	C	0.539380	-0.041344	-0.000071
C48	C	1.039380	0.458656	0.499929
C49	C	0.742665	0.215233	-0.000036
C50	C	1.242665	0.715233	0.499964
C51	C	0.763877	0.047231	-0.000046
C52	C	1.263877	0.547231	0.499954
C53	C	1.071485	-0.041026	-0.000065
C54	C	1.571485	0.458974	0.499935
C55	C	1.069534	-0.143405	-0.000066
C56	C	1.569534	0.356595	0.499934
C57	C	1.067949	-0.226549	-0.000063
C58	C	1.567949	0.273451	0.499937
C59	C	1.065968	-0.330857	-0.000056
C60	C	1.565968	0.169143	0.499944
C61	C	1.064395	-0.413995	-0.000049
C62	C	1.564395	0.086005	0.499951
C63	C	1.062414	-0.518310	-0.000044
C64	C	1.562414	-0.018310	0.499956
C65	C	1.230004	0.121052	-0.000064
C66	C	1.730004	0.621052	0.499936
C67	C	1.330088	0.122999	-0.000064
C68	C	1.830088	0.622999	0.499936
C69	C	1.058891	0.296173	-0.000044
C70	C	1.558891	0.796173	0.499956
C71	C	1.060842	0.398552	-0.000037
C72	C	1.560842	0.898552	0.499963
N73	N	1.065163	0.127577	-0.248802
N74	N	1.565163	0.627577	0.251198
C75	C	1.010397	0.071541	-0.299066
C76	C	1.510397	0.571541	0.200934
C77	C	1.119941	0.183609	-0.299044
C78	C	1.619941	0.683609	0.200956
C79	C	1.119952	0.183608	-0.399540
C80	C	1.619952	0.683608	0.100460
C81	C	1.065186	0.127572	-0.449803
C82	C	1.565186	0.627572	0.050197
C83	C	1.010409	0.071537	-0.399571
C84	C	1.510409	0.571537	0.100429
C85	C	1.174735	0.239636	-0.449779
C86	C	1.674735	0.739636	0.050221
C87	C	1.174749	0.239636	-0.550281
C88	C	1.674749	0.739636	-0.050281
C89	C	1.119978	0.183604	-0.600547
C90	C	1.619978	0.683604	-0.100547
C91	C	1.065197	0.127568	-0.550308
C92	C	1.565197	0.627568	-0.050308
C93	C	1.010431	0.071531	-0.600572
C94	C	1.510431	0.571531	-0.100572
C95	C	0.955646	0.015499	-0.550335
C96	C	1.455646	0.515499	-0.050335
C97	C	0.955637	0.015505	-0.449836
C98	C	1.455637	0.515505	0.050164
C99	C	1.119986	0.183598	-0.701046
C100	C	1.619986	0.683598	-0.201046
C101	C	1.010443	0.071527	-0.701077
C102	C	1.510443	0.571527	-0.201077
N103	N	1.065220	0.127562	0.248691
N104	N	1.565220	0.627562	0.748691
H105	H	0.680348	-0.107167	-0.000062
H106	H	1.180348	0.392833	0.499938
Cl107	Cl	0.836311	-0.057227	-0.000057
Cl108	Cl	1.336311	0.442773	0.499943
H109	H	0.509723	-0.110483	-0.000105
H110	H	1.009723	0.389517	0.499895
H111	H	1.164534	0.229225	-0.258114
H112	H	1.664534	0.729225	0.241886
H113	H	0.911059	-0.030130	-0.591273
H114	H	1.411059	0.469870	-0.091273
Cl115	Cl	0.941584	0.001082	-0.764257
Cl116	Cl	1.441584	0.501082	-0.264257
Cl117	Cl	0.636771	0.403250	-0.000016
Cl118	Cl	1.136771	0.903250	0.499984
Cl119	Cl	1.243585	0.310070	-0.386588
Cl120	Cl	1.743585	0.810070	0.113412
H121	H	1.219358	0.285262	-0.591176
H122	H	1.719358	0.785262	-0.091176
Cl123	Cl	0.788440	0.321982	-0.000011
Cl124	Cl	1.288440	0.821982	0.499989
H125	H	0.965789	0.025923	-0.258159
H126	H	1.465789	0.525923	0.241841
H127	H	1.164595	0.229216	-0.741944
H128	H	1.664595	0.729216	-0.241944
H129	H	0.358058	-0.029227	-0.000082
H130	H	0.858058	0.470773	0.499918
H131	H	0.911035	-0.030115	-0.408925
H132	H	1.411035	0.469885	0.091075
H133	H	0.450038	0.362304	-0.000023
H134	H	0.950038	0.862304	0.499977
Cl135	Cl	0.294067	0.312358	-0.000037
Cl136	Cl	0.794067	0.812358	0.499963
