data_functionalizedCrystal
_audit_creation_method	'MofGen! by Chris Wilmer'
_symmetry_space_group_name_H-M	'P1'
_symmetry_Int_Tables_number	1
_symmetry_cell_setting	triclinic
loop_
_symmetry_equiv_pos_as_xyz
  x,y,z
_cell_length_a	14.853567
_cell_length_b	19.188930
_cell_length_c	13.930277
_cell_angle_alpha	89.990320
_cell_angle_beta	89.995755
_cell_angle_gamma	83.389856
loop_
_atom_site_label
_atom_site_type_symbol
_atom_site_fract_x
_atom_site_fract_y
_atom_site_fract_z
O1	O	1.195862	0.091155	-0.079776
O2	O	0.933342	0.102014	-0.079794
O3	O	1.072177	-0.005046	-0.079766
O4	O	1.057026	0.198215	-0.079804
O5	O	1.072158	-0.005048	0.079896
O6	O	0.933322	0.102012	0.079868
O7	O	1.195842	0.091153	0.079886
Zn8	Zn	1.064579	0.096582	0.105227
Zn9	Zn	1.064605	0.096585	-0.105135
O10	O	1.057007	0.198213	0.079858
C11	C	0.899746	0.101521	0.000035
C12	C	0.799671	0.100046	0.000029
C13	C	0.387525	0.030218	0.000064
C14	C	0.365537	0.157407	0.000039
C15	C	0.459563	0.158794	0.000036
C16	C	0.517574	0.095891	0.000045
C17	C	0.481560	0.031602	0.000058
C18	C	0.495585	0.223081	0.000013
C19	C	0.589616	0.224470	0.000009
C20	C	0.647629	0.161567	0.000025
C21	C	0.611610	0.097276	0.000039
C22	C	0.669621	0.034373	0.000048
C23	C	0.633603	-0.029919	0.000069
C24	C	0.539574	-0.031301	0.000074
C25	C	0.741659	0.162949	0.000020
C26	C	0.763656	0.035757	0.000042
C27	C	1.071677	-0.031060	0.000068
C28	C	1.070204	-0.108569	0.000076
C29	C	1.151668	-0.153221	0.000086
C30	C	1.150285	-0.226050	0.000071
C31	C	1.067432	-0.254223	0.000065
C32	C	0.985957	-0.209561	0.000049
C33	C	0.987343	-0.136734	0.000055
N34	N	1.004095	-0.362440	0.054396
N35	N	1.002783	-0.431623	0.054393
C36	C	1.063251	-0.473645	0.000045
N37	N	1.125093	-0.443873	-0.054287
N38	N	1.126407	-0.374684	-0.054279
C39	C	1.065920	-0.333190	0.000058
C40	C	1.143220	-0.597267	0.000037
C41	C	1.141833	-0.670096	0.000015
C42	C	0.977503	-0.653606	0.000003
C43	C	0.978893	-0.580778	0.000015
C44	C	1.061754	-0.552613	0.000036
C45	C	1.229438	0.091646	0.000055
C46	C	1.329513	0.093120	0.000055
C47	C	1.057507	0.224226	0.000022
C48	C	1.058980	0.301736	0.000008
N49	N	1.064569	0.096579	0.248793
N50	N	1.064623	0.096582	-0.248701
C51	C	1.003126	0.143972	0.701050
C52	C	1.126108	0.049192	0.701044
C53	C	1.126098	0.049190	0.600548
C54	C	1.064601	0.096580	0.550299
C55	C	1.003115	0.143973	0.600545
C56	C	1.187588	0.001803	0.550295
C57	C	1.187581	0.001799	0.449793
C58	C	1.126079	0.049187	0.399541
C59	C	1.064590	0.096581	0.449794
C60	C	1.003094	0.143971	0.399544
C61	C	0.941600	0.191363	0.449794
C62	C	0.941614	0.191361	0.550293
C63	C	1.126065	0.049189	0.299043
C64	C	1.003083	0.143972	0.299039
H65	H	0.618933	0.276821	-0.000008
H66	H	0.953001	0.182561	0.258132
C67	C	0.681312	-0.137901	-0.081993
C68	C	0.697378	-0.099060	0.000073
H69	H	0.720691	-0.180582	-0.081993
H70	H	0.620167	-0.147932	-0.081973
H71	H	0.692197	-0.111534	-0.137672
H72	H	0.686486	-0.125425	0.055752
H73	H	0.758537	-0.089030	0.000061
C74	C	0.785389	0.232133	0.581275
C75	C	0.874027	0.243449	0.605535
H76	H	0.743667	0.264287	0.615388
H77	H	0.776580	0.238922	0.514240
H78	H	0.775804	0.185517	0.597761
H79	H	0.883614	0.290063	0.589043
H80	H	0.882839	0.236665	0.672585
C81	C	0.405197	-0.089895	0.000080
C82	C	0.499980	-0.101966	0.000086
H83	H	0.380754	-0.133521	0.000080
H84	H	0.385273	-0.063999	0.055751
H85	H	0.385284	-0.063988	-0.055605
H86	H	0.519893	-0.127869	0.055775
H87	H	0.519912	-0.127873	-0.055590
C88	C	0.447874	0.331057	-0.082096
C89	C	0.431814	0.292218	-0.000004
H90	H	0.408495	0.373738	-0.082107
H91	H	0.509019	0.341087	-0.082098
H92	H	0.436982	0.304688	-0.137757
H93	H	0.442712	0.318585	0.055657
H94	H	0.370655	0.282189	0.000006
C95	C	0.317840	0.265388	-0.082063
C96	C	0.301770	0.226546	0.000022
H97	H	0.278465	0.308071	-0.082074
H98	H	0.378987	0.275415	-0.082057
H99	H	0.306952	0.239023	-0.137728
H100	H	0.312665	0.252909	0.055688
H101	H	0.240610	0.216520	0.000025
H102	H	1.237651	-0.036790	0.408885
C103	C	0.710475	0.288530	-0.000014
C104	C	0.781251	0.233611	-0.000002
H105	H	0.734919	0.332156	-0.000021
H106	H	0.674264	0.285343	-0.055687
H107	H	0.674253	0.285341	0.055669
H108	H	0.817470	0.236797	-0.055689
H109	H	0.817478	0.236800	0.055677
H110	H	0.921003	-0.100377	0.000047
H111	H	1.176137	0.010607	0.258133
H112	H	1.237662	-0.036778	0.591211
H113	H	1.219140	-0.130295	0.000100
H114	H	0.891532	0.229951	0.408870
H115	H	1.216625	-0.262413	0.000075
C116	C	0.910869	-0.313878	0.000050
C117	C	0.894884	-0.240525	0.000046
H118	H	0.854641	-0.332992	0.000051
H119	H	0.944402	-0.329189	-0.055622
H120	H	0.944395	-0.329200	0.055734
H121	H	0.861364	-0.225203	-0.055642
H122	H	0.861337	-0.225208	0.055723
H123	H	1.210691	-0.574334	0.000050
C124	C	1.235627	-0.761538	-0.082066
C125	C	1.231388	-0.719180	0.000019
H126	H	1.290919	-0.791836	-0.082066
H127	H	1.186093	-0.788737	-0.082072
H128	H	1.232759	-0.732765	-0.137731
H129	H	1.234249	-0.747953	0.055685
H130	H	1.280936	-0.691978	0.000034
C131	C	0.837028	-0.661956	-0.082088
C132	C	0.886428	-0.684564	-0.000008
H133	H	0.780803	-0.681074	-0.082099
H134	H	0.826197	-0.612198	-0.082075
H135	H	0.870577	-0.677274	-0.137757
H136	H	0.852881	-0.669242	0.055661
H137	H	0.897256	-0.734333	-0.000012
H138	H	0.953056	0.182556	0.741966
H139	H	0.912556	-0.544421	0.000012
H140	H	0.810884	-0.015466	0.000053
H141	H	0.358195	-0.022127	0.000085
C142	C	1.146050	-0.045794	0.814085
C143	C	1.193698	-0.002898	0.756281
H144	H	1.187779	-0.077957	0.848185
H145	H	1.109442	-0.017566	0.858385
H146	H	1.108625	-0.070961	0.774883
H147	H	1.231119	0.022272	0.795484
H148	H	1.230322	-0.031130	0.711975
