data_functionalizedCrystal
_audit_creation_method	'MofGen! by Chris Wilmer'
_symmetry_space_group_name_H-M	'P1'
_symmetry_Int_Tables_number	1
_symmetry_cell_setting	triclinic
loop_
_symmetry_equiv_pos_as_xyz
  x,y,z
_cell_length_a	17.699097
_cell_length_b	19.188925
_cell_length_c	16.176319
_cell_angle_alpha	89.993545
_cell_angle_beta	89.988988
_cell_angle_gamma	83.215490
loop_
_atom_site_label
_atom_site_type_symbol
_atom_site_fract_x
_atom_site_fract_y
_atom_site_fract_z
O1	O	1.003954	0.088339	-0.068815
O2	O	1.337288	0.421672	0.264519
O3	O	1.670621	0.755005	0.597852
O4	O	0.783562	0.099816	-0.068801
O5	O	1.116895	0.433150	0.264532
O6	O	1.450229	0.766483	0.597866
O7	O	0.900120	-0.007571	-0.068804
O8	O	1.233454	0.325762	0.264530
O9	O	1.566787	0.659096	0.597863
O10	O	0.887396	0.195726	-0.068812
O11	O	1.220729	0.529059	0.264521
O12	O	1.554063	0.862393	0.597855
O13	O	0.900104	-0.007578	0.068690
O14	O	1.233438	0.325756	0.402023
O15	O	1.566771	0.659089	0.735356
O16	O	0.783546	0.099810	0.068692
O17	O	1.116879	0.433143	0.402025
O18	O	1.450213	0.766476	0.735359
O19	O	1.003938	0.088332	0.068679
O20	O	1.337272	0.421665	0.402012
O21	O	1.670605	0.754999	0.735345
Cu22	Cu	0.893741	0.094070	0.081240
Cu23	Cu	1.227074	0.427403	0.414573
Cu24	Cu	1.560407	0.760737	0.747906
Cu25	Cu	0.893760	0.094078	-0.081362
Cu26	Cu	1.227093	0.427412	0.251971
Cu27	Cu	1.560426	0.760745	0.585305
O28	O	0.887380	0.195719	0.068681
O29	O	1.220713	0.529053	0.402014
O30	O	1.554047	0.862386	0.735348
C31	C	0.755358	0.099400	-0.000053
C32	C	1.088691	0.432733	0.333281
C33	C	1.422024	0.766067	0.666614
C34	C	0.671342	0.098162	-0.000047
C35	C	1.004675	0.431495	0.333286
C36	C	1.338008	0.764828	0.666619
C37	C	0.155642	0.090574	-0.075028
C38	C	0.488976	0.423907	0.258305
C39	C	0.822309	0.757240	0.591639
C40	C	0.234585	0.091733	-0.075024
C41	C	0.567918	0.425066	0.258309
C42	C	0.901252	0.758399	0.591643
C43	C	0.274041	0.092310	-0.000073
C44	C	0.607375	0.425643	0.333260
C45	C	0.940708	0.758976	0.666594
C46	C	0.234552	0.091720	0.074879
C47	C	0.567886	0.425054	0.408212
C48	C	0.901219	0.758387	0.741545
C49	C	0.155612	0.090556	0.074874
C50	C	0.488945	0.423890	0.408207
C51	C	0.822279	0.757223	0.741540
C52	C	0.552910	0.096413	0.074900
C53	C	0.886243	0.429747	0.408234
C54	C	1.219577	0.763080	0.741567
C55	C	0.631856	0.097580	0.074899
C56	C	0.965189	0.430913	0.408233
C57	C	1.298522	0.764246	0.741566
C58	C	0.631883	0.097590	-0.074997
C59	C	0.965216	0.430923	0.258336
C60	C	1.298550	0.764256	0.591669
C61	C	0.552943	0.096426	-0.075002
C62	C	0.886276	0.429759	0.258331
C63	C	1.219609	0.763092	0.591664
C64	C	0.513461	0.095833	-0.000051
C65	C	0.846794	0.429166	0.333282
C66	C	1.180128	0.762500	0.666615
C67	C	0.427863	0.094575	-0.000057
C68	C	0.761196	0.427908	0.333277
C69	C	1.094529	0.761242	0.666610
C70	C	0.359637	0.093573	-0.000067
C71	C	0.692971	0.426906	0.333266
C72	C	1.026304	0.760239	0.666600
C73	C	0.899701	-0.033586	-0.000057
C74	C	1.233034	0.299747	0.333276
C75	C	1.566368	0.633081	0.666609
C76	C	0.898466	-0.111092	-0.000059
C77	C	1.231799	0.222241	0.333274
C78	C	1.565133	0.555575	0.666608
C79	C	0.958590	-0.672792	-0.000084
C80	C	1.291923	-0.339459	0.333250
C81	C	1.625256	-0.006126	0.666583
C82	C	0.959757	-0.599968	-0.000076
C83	C	1.293090	-0.266634	0.333257
C84	C	1.626423	0.066699	0.666590
C85	C	0.891364	-0.555113	-0.000072
C86	C	1.224697	-0.221780	0.333261
C87	C	1.558031	0.111554	0.666594
C88	C	0.821799	-0.583088	-0.000055
C89	C	1.155132	-0.249755	0.333279
C90	C	1.488466	0.083579	0.666612
C91	C	0.820634	-0.655911	-0.000054
C92	C	1.153968	-0.322578	0.333280
C93	C	1.487301	0.010755	0.666613
N94	N	0.841856	-0.434488	-0.046868
N95	N	1.175189	-0.101154	0.286465
N96	N	1.508523	0.232179	0.619798
N97	N	0.842967	-0.365309	-0.046871
N98	N	1.176301	-0.031976	0.286462
N99	N	1.509634	0.301358	0.619796
C100	C	0.894870	-0.335700	-0.000073
C101	C	1.228203	-0.002366	0.333260
C102	C	1.561536	0.330967	0.666594
N103	N	0.945630	-0.377884	0.046717
N104	N	1.278964	-0.044550	0.380050
N105	N	1.612297	0.288783	0.713384
N106	N	0.944521	-0.447069	0.046716
N107	N	1.277855	-0.113735	0.380049
N108	N	1.611188	0.219598	0.713383
C109	C	0.892619	-0.476147	-0.000073
C110	C	1.225953	-0.142814	0.333261
C111	C	1.559286	0.190519	0.666594
C112	C	0.965695	-0.228768	-0.000077
C113	C	1.299029	0.104565	0.333256
C114	C	1.632362	0.437899	0.666590
C115	C	0.966859	-0.155942	-0.000064
C116	C	1.300193	0.177391	0.333269
C117	C	1.633526	0.510725	0.666602
C118	C	0.828900	-0.139063	-0.000051
C119	C	1.162233	0.194270	0.333282
C120	C	1.495567	0.527603	0.666616
C121	C	0.827738	-0.211888	-0.000055
C122	C	1.161071	0.121445	0.333278
C123	C	1.494405	0.454778	0.666611
C124	C	0.896138	-0.256737	-0.000072
C125	C	1.229471	0.076597	0.333261
C126	C	1.562804	0.409930	0.666595
C127	C	1.032143	0.088748	-0.000072
C128	C	1.365476	0.422082	0.333262
C129	C	1.698809	0.755415	0.666595
C130	C	1.116158	0.089987	-0.000082
C131	C	1.449492	0.423320	0.333251
C132	C	1.782825	0.756653	0.666585
C133	C	0.887799	0.221734	-0.000067
C134	C	1.221133	0.555068	0.333267
C135	C	1.554466	0.888401	0.666600
C136	C	0.889034	0.299240	-0.000071
C137	C	1.222367	0.632574	0.333263
C138	C	1.555701	0.965907	0.666596
N139	N	0.893733	0.094064	0.195605
N140	N	1.227066	0.427397	0.528938
N141	N	1.560400	0.760731	0.862272
N142	N	0.893773	0.094079	-0.195727
N143	N	1.227107	0.427412	0.137606
N144	N	1.560440	0.760745	0.470939
C145	C	0.945360	0.046532	0.238868
C146	C	1.278694	0.379866	0.572201
C147	C	1.612027	0.713199	0.905535
C148	C	0.945364	0.046532	0.325415
C149	C	1.278698	0.379865	0.658748
C150	C	1.612031	0.713198	0.992082
C151	C	0.893744	0.094066	0.368697
C152	C	1.227077	0.427400	0.702031
C153	C	1.560410	0.760733	1.035364
C154	C	0.842111	0.141600	0.325428
C155	C	1.175444	0.474934	0.658762
C156	C	1.508777	0.808267	0.992095
C157	C	0.842104	0.141597	0.238883
C158	C	1.175437	0.474931	0.572216
C159	C	1.508770	0.808264	0.905549
C160	C	0.842136	0.141614	0.674457
C161	C	1.175470	0.474947	1.007790
C162	C	1.508803	0.808280	1.341123
C163	C	0.842149	0.141614	0.761008
C164	C	1.175482	0.474948	1.094341
C165	C	1.508815	0.808281	1.427675
C166	C	0.945397	0.046548	0.760989
C167	C	1.278730	0.379881	1.094322
C168	C	1.612064	0.713214	1.427655
C169	C	0.945390	0.046545	0.674443
C170	C	1.278723	0.379878	1.007777
C171	C	1.612057	0.713211	1.341110
C172	C	0.893755	0.094076	0.631182
C173	C	1.227088	0.427409	0.964515
C174	C	1.560421	0.760743	1.297848
C175	C	0.893750	0.094075	0.537338
C176	C	1.227084	0.427409	0.870671
C177	C	1.560417	0.760742	1.204004
C178	C	0.893751	0.094071	0.462540
C179	C	1.227084	0.427404	0.795873
C180	C	1.560418	0.760738	1.129207
H181	H	0.266730	0.092206	-0.136053
H182	H	0.600063	0.425540	0.197281
H183	H	0.933396	0.758873	0.530614
H184	H	1.014286	-0.709304	-0.000093
H185	H	1.347620	-0.375971	0.333241
H186	H	1.680953	-0.042637	0.666574
F187	F	0.113656	0.089965	-0.154803
F188	F	0.446989	0.423298	0.178531
F189	F	0.780323	0.756632	0.511864
H190	H	1.021391	-0.265286	-0.000090
H191	H	1.354724	0.068048	0.333243
H192	H	1.688057	0.401381	0.666577
H193	H	0.266685	0.092186	0.135905
H194	H	0.600018	0.425519	0.469238
H195	H	0.933351	0.758852	0.802572
F196	F	0.510954	0.095815	-0.154775
F197	F	0.844287	0.429149	0.178558
F198	F	1.177621	0.762482	0.511891
H199	H	0.664039	0.098070	-0.136026
H200	H	0.997372	0.431403	0.197307
H201	H	1.330706	0.764736	0.530640
F202	F	0.746600	-0.685677	-0.000041
F203	F	1.079934	-0.352343	0.333293
F204	F	1.413267	-0.019010	0.666626
H205	H	0.800076	0.180302	0.360674
H206	H	1.133410	0.513635	0.694007
H207	H	1.466743	0.846969	1.027340
F208	F	0.787204	0.192209	0.807071
F209	F	1.120537	0.525543	1.140404
F210	F	1.453870	0.858876	1.473738
F211	F	1.033790	-0.570196	-0.000082
F212	F	1.367124	-0.236862	0.333251
F213	F	1.700457	0.096471	0.666585
F214	F	1.040894	-0.126178	-0.000080
F215	F	1.374228	0.207155	0.333253
F216	F	1.707561	0.540489	0.666587
H217	H	0.123464	0.090086	0.135902
H218	H	0.456797	0.423419	0.469236
H219	H	0.790131	0.756752	0.802569
F220	F	0.749011	-0.535349	-0.000047
F221	F	1.082344	-0.202016	0.333286
F222	F	1.415678	0.131317	0.666620
H223	H	0.773213	-0.102543	-0.000041
H224	H	1.106547	0.230790	0.333293
H225	H	1.439880	0.564124	0.666626
F226	F	0.753706	-0.241654	-0.000048
F227	F	1.087040	0.091679	0.333285
F228	F	1.420373	0.425012	0.666619
H229	H	0.987399	0.007827	0.203633
H230	H	1.320732	0.341160	0.536966
H231	H	1.654066	0.674494	0.870300
F232	F	1.000350	-0.004042	0.807037
F233	F	1.333684	0.329291	1.140371
F234	F	1.667017	0.662625	1.473704
F235	F	1.000311	-0.004058	0.371459
F236	F	1.333644	0.329276	0.704792
F237	F	1.666978	0.662609	1.038126
H238	H	0.987427	0.007840	0.639205
H239	H	1.320760	0.341173	0.972539
H240	H	1.654093	0.674506	1.305872
H241	H	0.800095	0.180316	0.639240
H242	H	1.133428	0.513650	0.972573
H243	H	1.466761	0.846983	1.305906
H244	H	0.663979	0.098049	0.135937
H245	H	0.997312	0.431383	0.469270
H246	H	1.330646	0.764716	0.802604
F247	F	0.510899	0.095797	0.154670
F248	F	0.844232	0.429130	0.488003
F249	F	1.177565	0.762464	0.821337
F250	F	0.787152	0.192185	0.192840
F251	F	1.120486	0.525519	0.526174
F252	F	1.453819	0.858852	0.859507
