data_functionalizedCrystal
_audit_creation_method	'MofGen! by Chris Wilmer'
_symmetry_space_group_name_H-M	'P1'
_symmetry_Int_Tables_number	1
_symmetry_cell_setting	triclinic
loop_
_symmetry_equiv_pos_as_xyz
  x,y,z
_cell_length_a	17.640280
_cell_length_b	10.685727
_cell_length_c	10.685880
_cell_angle_alpha	98.398826
_cell_angle_beta	82.229567
_cell_angle_gamma	106.339662
loop_
_atom_site_label
_atom_site_type_symbol
_atom_site_fract_x
_atom_site_fract_y
_atom_site_fract_z
Zn1	Zn	-0.452238	-2.131273	-0.730761
Zn2	Zn	-0.573463	-2.151212	-0.482205
Zn3	Zn	-0.430315	-1.896147	-0.508854
Zn4	Zn	-0.573384	-1.955307	-0.678179
O5	O	-0.507350	-2.033485	-0.600000
O6	O	-0.477527	-2.314306	-0.708643
O7	O	-0.545332	-2.100963	-0.310855
O8	O	-0.322615	-1.894235	-0.571449
O9	O	-0.566590	-2.328955	-0.526030
O10	O	-0.338722	-2.066981	-0.734483
O11	O	-0.440162	-1.913568	-0.330434
O12	O	-0.440086	-1.723607	-0.520462
O13	O	-0.566456	-1.995064	-0.860039
O14	O	-0.545198	-1.767072	-0.644864
O15	O	-0.477451	-2.124345	-0.898671
O16	O	-0.684060	-2.158327	-0.475043
O17	O	-0.684002	-2.014397	-0.619024
C18	C	-0.490255	-1.698567	-0.579849
C19	C	-0.482962	-1.555296	-0.571253
C20	C	-0.712714	-2.094983	-0.538465
C21	C	-0.800578	-2.121414	-0.512189
C22	C	-1.089495	-1.833263	-0.800101
C23	C	-1.172054	-1.858098	-0.775371
C24	C	-1.172063	-2.008090	-0.625612
C25	C	-1.089502	-1.983273	-0.650333
C26	C	-1.048225	-1.895857	-0.737578
C27	C	-1.048232	-2.045867	-0.587811
C28	C	-0.965678	-2.021046	-0.612526
C29	C	-0.924395	-1.933631	-0.699764
C30	C	-0.965671	-1.871036	-0.762294
C31	C	-1.089510	-2.133275	-0.500559
C32	C	-1.048240	-2.195869	-0.438037
C33	C	-0.965685	-2.171056	-0.462758
C34	C	-0.924402	-2.083641	-0.549996
C35	C	-0.924409	-2.233650	-0.400229
C36	C	-0.841855	-2.208830	-0.424944
C37	C	-0.841848	-2.058820	-0.574712
C38	C	-0.301188	-1.971784	-0.661804
C39	C	-0.213333	-1.945491	-0.688141
C40	C	-0.524390	-2.064079	-0.925968
C41	C	-0.531651	-2.077117	-1.064877
C42	C	-0.524504	-1.369708	-0.620225
C43	C	-0.531790	-1.512977	-0.628834
C44	C	-0.490323	-2.003066	-0.275321
C45	C	-0.482852	-1.990212	-0.136495
H46	H	-0.435574	-1.481913	-0.515378
H47	H	-0.857173	-1.913414	-0.719876
O48	O	-0.588418	-1.600390	-0.695397
C49	C	-0.664084	-1.588633	-0.642319
H50	H	-0.658247	-1.486834	-0.587993
H51	H	-0.704101	-1.603286	-0.721513
H52	H	-0.691090	-1.666269	-0.574535
O53	O	-0.801840	-1.974026	-0.659627
C54	C	-0.829912	-2.019875	-0.779872
H55	H	-0.892497	-2.087673	-0.767542
H56	H	-0.830941	-1.932918	-0.829400
H57	H	-0.789000	-2.076109	-0.839906
H58	H	-1.081859	-2.267039	-0.366998
H59	H	-0.435519	-1.905825	-1.091540
H60	H	-0.958029	-2.304814	-0.329185
H61	H	-0.932062	-1.799864	-0.833347
O62	O	-1.212105	-2.092837	-0.540685
C63	C	-1.183994	-2.047038	-0.420462
H64	H	-1.155767	-1.936655	-0.414653
H65	H	-1.235622	-2.068728	-0.343136
H66	H	-1.137862	-2.098695	-0.406379
H67	H	-1.055886	-1.762091	-0.871155
H68	H	-1.205655	-1.807137	-0.826307
O69	O	-0.588091	-2.177953	-1.118384
C70	C	-0.575716	-2.298303	-1.099501
H71	H	-0.540565	-2.283075	-1.013959
H72	H	-0.635485	-2.372776	-1.081532
H73	H	-0.541091	-2.336377	-1.187740
O74	O	-1.169721	-2.157532	-0.476760
C75	C	-1.205213	-2.210045	-0.590306
H76	H	-1.163168	-2.256730	-0.659644
H77	H	-1.263097	-2.287634	-0.568600
H78	H	-1.218076	-2.128239	-0.634489
O79	O	-0.801886	-2.269782	-0.364141
C80	C	-0.856018	-2.352233	-0.281813
H81	H	-0.917759	-2.379161	-0.315656
H82	H	-0.836600	-2.445372	-0.281826
H83	H	-0.857467	-2.298843	-0.181388
