data_functionalizedCrystal
_audit_creation_method	'MofGen! by Chris Wilmer'
_symmetry_space_group_name_H-M	'P1'
_symmetry_Int_Tables_number	1
_symmetry_cell_setting	triclinic
loop_
_symmetry_equiv_pos_as_xyz
  x,y,z
_cell_length_a	14.908520
_cell_length_b	14.908571
_cell_length_c	14.908308
_cell_angle_alpha	90.175053
_cell_angle_beta	96.360765
_cell_angle_gamma	90.205961
loop_
_atom_site_label
_atom_site_type_symbol
_atom_site_fract_x
_atom_site_fract_y
_atom_site_fract_z
Zn1	Zn	-0.470613	1.316651	-0.613065
Zn2	Zn	0.029387	1.816651	-0.113065
Zn3	Zn	-0.613252	1.316549	-0.470429
Zn4	Zn	-0.113252	1.816549	0.029571
Zn5	Zn	-0.453291	1.176020	-0.453125
Zn6	Zn	0.046709	1.676020	0.046875
Zn7	Zn	-0.612180	1.157642	-0.612023
Zn8	Zn	-0.112180	1.657642	-0.112023
O9	O	-0.537334	1.241715	-0.537161
O10	O	-0.037334	1.741715	-0.037161
O11	O	-0.497231	1.441995	-0.601822
O12	O	0.002769	1.941995	-0.101822
O13	O	-0.585232	1.305556	-0.341941
O14	O	-0.085232	1.805556	0.158059
O15	O	-0.329399	1.202409	-0.467536
O16	O	0.170601	1.702409	0.032464
O17	O	-0.602028	1.441920	-0.497029
O18	O	-0.102028	1.941920	0.002971
O19	O	-0.342124	1.305730	-0.585043
O20	O	0.157876	1.805730	-0.085043
O21	O	-0.467710	1.202310	-0.329228
O22	O	0.032290	1.702310	0.170772
O23	O	-0.466671	1.048225	-0.466525
O24	O	0.033329	1.548225	0.033475
O25	O	-0.600202	1.171086	-0.738354
O26	O	-0.100202	1.671086	-0.238354
O27	O	-0.583406	1.034722	-0.583267
O28	O	-0.083406	1.534722	-0.083267
O29	O	-0.496192	1.287909	-0.739120
O30	O	0.003808	1.787909	-0.239120
O31	O	-0.739300	1.287736	-0.496018
O32	O	-0.239300	1.787736	0.003982
O33	O	-0.738513	1.170987	-0.600046
O34	O	-0.238513	1.670987	-0.100046
C35	C	-0.523043	1.008970	-0.522906
C36	C	-0.023043	1.508970	-0.022906
C37	C	-0.516953	0.909397	-0.516830
C38	C	-0.016953	1.409397	-0.016830
C39	C	-0.627234	0.708277	-0.626831
C40	C	-0.127234	1.208277	-0.126831
C41	C	-0.621514	0.614720	-0.621125
C42	C	-0.121514	1.114720	-0.121125
C43	C	-0.499789	0.628723	-0.499719
C44	C	0.000211	1.128723	0.000281
C45	C	-0.505509	0.722281	-0.505424
C46	C	-0.005509	1.222281	-0.005424
C47	C	-0.569235	0.762054	-0.568981
C48	C	-0.069235	1.262054	-0.068981
C49	C	-0.574958	0.855613	-0.574682
C50	C	-0.074958	1.355613	-0.074682
C51	C	-0.453230	0.869615	-0.453280
C52	C	0.046770	1.369615	0.046720
C53	C	-0.447510	0.776058	-0.447575
C54	C	0.052490	1.276058	0.052425
C55	C	-0.771629	1.227379	-0.549818
C56	C	-0.271629	1.727379	-0.049818
C57	C	-0.871868	1.221326	-0.555268
C58	C	-0.371868	1.721326	-0.055268
C59	C	-1.060998	1.331634	-0.457284
C60	C	-0.560998	1.831634	0.042716
C61	C	-1.155181	1.325950	-0.462402
C62	C	-0.655181	1.825950	0.037598
C63	C	-1.154420	1.204279	-0.570626
C64	C	-0.654420	1.704279	-0.070626
C65	C	-1.060237	1.209963	-0.565508
C66	C	-0.560237	1.709963	-0.065508
C67	C	-1.013529	1.273642	-0.508834
C68	C	-0.513529	1.773642	-0.008834
C69	C	-0.919343	1.279321	-0.503712
C70	C	-0.419343	1.779321	-0.003712
C71	C	-0.918584	1.157655	-0.611940
C72	C	-0.418584	1.657655	-0.111940
C73	C	-1.012768	1.151970	-0.617058
C74	C	-0.512768	1.651970	-0.117058
C75	C	-0.302127	1.256131	-0.524476
C76	C	0.197873	1.756131	-0.024476
C77	C	-0.201896	1.262274	-0.519070
C78	C	0.298104	1.762274	-0.019070
C79	C	-0.550010	1.227459	-0.772372
C80	C	-0.050010	1.727459	-0.272372
C81	C	-0.555411	1.221383	-0.872606
C82	C	-0.055411	1.721383	-0.372606
C83	C	-0.551681	1.475370	-0.551472
C84	C	-0.051681	1.975370	-0.051472
C85	C	-0.557795	1.574939	-0.557571
C86	C	-0.057795	2.074939	-0.057571
C87	C	-0.457236	1.331614	-1.061752
C88	C	0.042764	1.831614	-0.561752
C89	C	-0.462308	1.325908	-1.155930
C90	C	0.037692	1.825908	-0.655930
C91	C	-0.570623	1.204264	-1.155141
C92	C	-0.070623	1.704264	-0.655141
C93	C	-0.565551	1.209969	-1.060963
C94	C	-0.065551	1.709969	-0.560963
C95	C	-0.508856	1.273647	-1.014272
C96	C	-0.008856	1.773647	-0.514272
C97	C	-0.503789	1.279356	-0.920093
C98	C	-0.003789	1.779356	-0.420093
C99	C	-0.612099	1.157708	-0.919305
C100	C	-0.112099	1.657708	-0.419305
C101	C	-0.617171	1.152002	-1.013483
C102	C	-0.117171	1.652002	-0.513483
C103	C	-0.524646	1.255972	-0.302864
C104	C	-0.024646	1.755972	0.197136
C105	C	-0.519001	1.262236	-0.202628
C106	C	-0.019001	1.762236	0.297372
H107	H	-0.395624	0.743661	-0.395831
H108	H	0.104376	1.243661	0.104169
H109	H	-1.192467	1.152440	-0.616773
H110	H	-0.692467	1.652440	-0.116773
H111	H	-0.679126	0.740661	-0.678577
H112	H	-0.179126	1.240661	-0.178577
Cl113	Cl	-1.214855	1.398860	-0.397596
Cl114	Cl	-0.714855	1.898860	0.102404
H115	H	-0.457627	1.331207	-0.882079
H116	H	0.042373	1.831207	-0.382079
H117	H	-0.626848	0.887995	-0.626432
H118	H	-0.126848	1.387995	-0.126432
Cl119	Cl	-1.071495	1.071924	-0.688303
Cl120	Cl	-0.571495	1.571924	-0.188303
H121	H	-1.022967	1.383478	-0.411132
H122	H	-0.522967	1.883478	0.088868
Cl123	Cl	-0.380319	0.937226	-0.380544
Cl124	Cl	0.119681	1.437226	0.119456
H125	H	-0.881314	1.331169	-0.457563
H126	H	-0.381314	1.831169	0.042437
H127	H	-0.663328	1.100156	-1.051511
H128	H	-0.163328	1.600156	-0.551511
Cl129	Cl	-0.641883	1.124213	-1.213853
Cl130	Cl	-0.141883	1.624213	-0.713853
Cl131	Cl	-0.419672	0.578707	-0.419838
Cl132	Cl	0.080328	1.078707	0.080162
Cl133	Cl	-0.694429	0.547117	-0.693855
Cl134	Cl	-0.194429	1.047117	-0.193855
H135	H	-0.879924	1.110431	-0.653913
H136	H	-0.379924	1.610431	-0.153913
Cl137	Cl	-0.385975	1.411672	-1.003053
Cl138	Cl	0.114025	1.911672	-0.503053
H139	H	-0.420271	1.373109	-1.194585
H140	H	0.079729	1.873109	-0.694585
Cl141	Cl	-0.677007	1.084840	-0.859611
Cl142	Cl	-0.177007	1.584840	-0.359611
