data_functionalizedCrystal
_audit_creation_method	'MofGen! by Chris Wilmer'
_symmetry_space_group_name_H-M	'P1'
_symmetry_Int_Tables_number	1
_symmetry_cell_setting	triclinic
loop_
_symmetry_equiv_pos_as_xyz
  x,y,z
_cell_length_a	9.065215
_cell_length_b	13.330367
_cell_length_c	9.065215
_cell_angle_alpha	90.003444
_cell_angle_beta	94.985269
_cell_angle_gamma	89.993196
loop_
_atom_site_label
_atom_site_type_symbol
_atom_site_fract_x
_atom_site_fract_y
_atom_site_fract_z
O1	O	-1.960408	0.083404	0.216337
O2	O	-1.531123	0.083410	0.234088
O3	O	-1.754641	0.083403	0.010570
O4	O	-1.736890	0.083411	0.439855
O5	O	-1.754608	-0.083444	0.010564
O6	O	-1.531090	-0.083437	0.234082
O7	O	-1.960375	-0.083443	0.216331
Cu8	Cu	-1.745730	-0.098675	0.225206
Cu9	Cu	-1.745768	0.098641	0.225213
O10	O	-1.736857	-0.083436	0.439850
C11	C	-1.476120	-0.000013	0.232380
C12	C	-1.312277	-0.000011	0.227282
N13	N	-1.745713	-0.237456	0.225201
C14	C	-1.646790	-0.710076	0.324147
C15	C	-1.844787	-0.710050	0.126267
C16	C	-1.844770	-0.605032	0.126263
C17	C	-1.745763	-0.552531	0.225203
C18	C	-1.646773	-0.605048	0.324148
C19	C	-1.943769	-0.552506	0.027329
C20	C	-1.943757	-0.447482	0.027322
C21	C	-1.844742	-0.394979	0.126256
C22	C	-1.745746	-0.447503	0.225204
C23	C	-1.646739	-0.395002	0.324145
C24	C	-1.547736	-0.447524	0.423087
C25	C	-1.547758	-0.552545	0.423083
C26	C	-1.844720	-0.289957	0.126260
C27	C	-1.646723	-0.289973	0.324146
C28	C	-1.015378	-0.000017	0.218039
C29	C	-1.179221	-0.000011	0.223137
C30	C	-1.752919	-0.000019	-0.044420
C31	C	-1.747821	-0.000016	-0.208263
N32	N	-1.745797	0.237423	0.225207
C33	C	-1.738578	-0.000012	0.494839
C34	C	-1.743676	-0.000009	0.658682
H35	H	-1.467130	-0.404765	0.503652
O36	O	-2.050549	-0.609135	-0.079372
H37	H	-2.119398	-0.554972	-0.148159
O38	O	-2.050511	-0.390835	-0.079408
H39	H	-2.165793	-0.410971	-0.059023
O40	O	-1.539939	-0.233347	0.430866
H41	H	-1.471114	-0.287515	0.499667
O42	O	-1.440997	-0.609190	0.529810
H43	H	-1.457661	-0.691038	0.513200
H44	H	-1.925403	-0.752800	0.045720
O45	O	-1.540016	-0.766713	0.430870
H46	H	-1.556660	-0.848563	0.414260
O47	O	-1.951482	-0.233305	0.019556
H48	H	-2.020327	-0.287456	-0.049246
