data_functionalizedCrystal
_audit_creation_method	'MofGen! by Chris Wilmer'
_symmetry_space_group_name_H-M	'P1'
_symmetry_Int_Tables_number	1
_symmetry_cell_setting	triclinic
loop_
_symmetry_equiv_pos_as_xyz
  x,y,z
_cell_length_a	19.805407
_cell_length_b	19.076808
_cell_length_c	19.805399
_cell_angle_alpha	87.672943
_cell_angle_beta	89.980427
_cell_angle_gamma	92.323385
loop_
_atom_site_label
_atom_site_type_symbol
_atom_site_fract_x
_atom_site_fract_y
_atom_site_fract_z
Zn1	Zn	1.023914	-0.280233	-0.371886
Zn2	Zn	1.273914	-0.030233	-0.121886
Zn3	Zn	1.523914	0.219767	0.128114
Zn4	Zn	1.773914	0.469767	0.378114
Zn5	Zn	1.019283	-0.397938	-0.254147
Zn6	Zn	1.269283	-0.147938	-0.004147
Zn7	Zn	1.519283	0.102062	0.245853
Zn8	Zn	1.769283	0.352062	0.495853
Zn9	Zn	0.910727	-0.280252	-0.258710
Zn10	Zn	1.160727	-0.030252	-0.008710
Zn11	Zn	1.410727	0.219748	0.241290
Zn12	Zn	1.660727	0.469748	0.491290
Zn13	Zn	0.906148	-0.397901	-0.367295
Zn14	Zn	1.156148	-0.147901	-0.117295
Zn15	Zn	1.406148	0.102099	0.132705
Zn16	Zn	1.656148	0.352099	0.382705
O17	O	0.965018	-0.339081	-0.313009
O18	O	1.215018	-0.089081	-0.063009
O19	O	1.465018	0.160919	0.186991
O20	O	1.715018	0.410919	0.436991
O21	O	1.118016	-0.295854	-0.356279
O22	O	1.368016	-0.045854	-0.106279
O23	O	1.618016	0.204146	0.143721
O24	O	1.868016	0.454146	0.393721
O25	O	1.004861	-0.382351	-0.160035
O26	O	1.254861	-0.132351	0.089965
O27	O	1.504861	0.117649	0.339965
O28	O	1.754861	0.367649	0.589965
O29	O	0.929597	-0.181753	-0.277553
O30	O	1.179597	0.068247	-0.027553
O31	O	1.429597	0.318247	0.222447
O32	O	1.679597	0.568247	0.472447
O33	O	1.114613	-0.382332	-0.269777
O34	O	1.364613	-0.132332	-0.019777
O35	O	1.614613	0.117668	0.230223
O36	O	1.864613	0.367668	0.480223
O37	O	1.012754	-0.181739	-0.360703
O38	O	1.262754	0.068261	-0.110703
O39	O	1.512754	0.318261	0.139297
O40	O	1.762754	0.568261	0.389297
O41	O	0.925106	-0.295887	-0.163387
O42	O	1.175106	-0.045887	0.086613
O43	O	1.425106	0.204113	0.336613
O44	O	1.675106	0.454113	0.586613
O45	O	0.815404	-0.295851	-0.273102
O46	O	1.065404	-0.045851	-0.023102
O47	O	1.315404	0.204149	0.226898
O48	O	1.565404	0.454149	0.476898
O49	O	0.921791	-0.382268	-0.462622
O50	O	1.171791	-0.132268	-0.212622
O51	O	1.421791	0.117732	0.037378
O52	O	1.671791	0.367732	0.287378
O53	O	0.812039	-0.382287	-0.352879
O54	O	1.062039	-0.132287	-0.102879
O55	O	1.312039	0.117713	0.147121
O56	O	1.562039	0.367713	0.397121
O57	O	1.008313	-0.295818	-0.465994
O58	O	1.258313	-0.045818	-0.215994
O59	O	1.508313	0.204182	0.034006
O60	O	1.758313	0.454182	0.284006
O61	O	1.000421	-0.496429	-0.265326
O62	O	1.250421	-0.246429	-0.015326
O63	O	1.500421	0.003571	0.234674
O64	O	1.750421	0.253571	0.484674
O65	O	0.917301	-0.496402	-0.348455
O66	O	1.167301	-0.246402	-0.098455
O67	O	1.417301	0.003598	0.151545
O68	O	1.667301	0.253598	0.401545
C69	C	0.789162	-0.339067	-0.312988
C70	C	1.039162	-0.089067	-0.062988
C71	C	1.289162	0.160933	0.187012
C72	C	1.539162	0.410933	0.437012
C73	C	0.713930	-0.339079	-0.312994
C74	C	0.963930	-0.089079	-0.062994
C75	C	1.213930	0.160921	0.187006
C76	C	1.463930	0.410921	0.437006
C77	C	0.957879	-0.521955	-0.305912
C78	C	1.207879	-0.271955	-0.055912
C79	C	1.457879	-0.021955	0.194088
C80	C	1.707879	0.228045	0.444088
C81	C	0.954888	-0.600189	-0.302898
C82	C	1.204888	-0.350189	-0.052898
C83	C	1.454888	-0.100189	0.197102
C84	C	1.704888	0.149811	0.447102
C85	C	0.676849	-0.384154	-0.354462
C86	C	0.926849	-0.134154	-0.104462
C87	C	1.176849	0.115846	0.145538
C88	C	1.426849	0.365846	0.395538
C89	C	0.606160	-0.384155	-0.354471
C90	C	0.856160	-0.134155	-0.104471
C91	C	1.106160	0.115845	0.145529
C92	C	1.356160	0.365845	0.395529
C93	C	0.572554	-0.339084	-0.313009
C94	C	0.822554	-0.089084	-0.063009
C95	C	1.072554	0.160916	0.186991
C96	C	1.322554	0.410916	0.436991
C97	C	0.609640	-0.294004	-0.271540
C98	C	0.859640	-0.044004	-0.021540
C99	C	1.109640	0.205996	0.228460
C100	C	1.359640	0.455996	0.478460
C101	C	0.680328	-0.294000	-0.271535
C102	C	0.930328	-0.044000	-0.021535
C103	C	1.180328	0.206000	0.228465
C104	C	1.430328	0.456000	0.478465
C105	C	0.324567	-0.294020	-0.271562
C106	C	0.574567	-0.044020	-0.021562
C107	C	0.824567	0.205980	0.228438
C108	C	1.074567	0.455980	0.478438
C109	C	0.253874	-0.294029	-0.271569
C110	C	0.503874	-0.044029	-0.021569
C111	C	0.753874	0.205971	0.228431
C112	C	1.003874	0.455971	0.478431
C113	C	0.250399	-0.384175	-0.354498
C114	C	0.500399	-0.134175	-0.104498
C115	C	0.750399	0.115825	0.145502
C116	C	1.000399	0.365825	0.395502
C117	C	0.321086	-0.384170	-0.354493
C118	C	0.571086	-0.134170	-0.104493
C119	C	0.821086	0.115830	0.145507
C120	C	1.071086	0.365830	0.395507
C121	C	0.358167	-0.339088	-0.313027
C122	C	0.608167	-0.089088	-0.063027
C123	C	0.858167	0.160912	0.186973
C124	C	1.108167	0.410912	0.436973
C125	C	0.434815	-0.339086	-0.313018
C126	C	0.684815	-0.089086	-0.063018
C127	C	0.934815	0.160914	0.186982
C128	C	1.184815	0.410914	0.436982
C129	C	0.495907	-0.339089	-0.313014
C130	C	0.745907	-0.089089	-0.063014
C131	C	0.995907	0.160911	0.186986
C132	C	1.245907	0.410911	0.436986
C133	C	0.996745	-0.636876	-0.344809
C134	C	1.246745	-0.386876	-0.094809
C135	C	1.496745	-0.136876	0.155191
C136	C	1.746745	0.113124	0.405191
C137	C	0.993931	-0.710385	-0.341979
C138	C	1.243931	-0.460385	-0.091979
C139	C	1.493931	-0.210385	0.158021
C140	C	1.743931	0.039615	0.408021
C141	C	0.949263	-0.747206	-0.297233
C142	C	1.199263	-0.497206	-0.047233
C143	C	1.449263	-0.247206	0.202767
C144	C	1.699263	0.002794	0.452767
C145	C	0.907400	-0.710515	-0.255321
C146	C	1.157400	-0.460515	-0.005321
C147	C	1.407400	-0.210515	0.244679
C148	C	1.657400	0.039485	0.494679
C149	C	0.910211	-0.637007	-0.258155
C150	C	1.160211	-0.387007	-0.008155
C151	C	1.410211	-0.137007	0.241845
C152	C	1.660211	0.112993	0.491845
C153	C	0.936213	-0.967059	-0.284114
C154	C	1.186213	-0.717059	-0.034114
C155	C	1.436213	-0.467059	0.215886
C156	C	1.686213	-0.217059	0.465886
C157	C	0.933407	-1.040572	-0.281281
C158	C	1.183407	-0.790572	-0.031281
C159	C	1.433407	-0.540572	0.218719
C160	C	1.683407	-0.290572	0.468719
C161	C	1.019937	-1.040437	-0.367940
C162	C	1.269937	-0.790437	-0.117940
C163	C	1.519937	-0.540437	0.132060
C164	C	1.769937	-0.290437	0.382060
C165	C	1.022747	-0.966928	-0.370768
C166	C	1.272747	-0.716928	-0.120768
C167	C	1.522747	-0.466928	0.129232
C168	C	1.772747	-0.216928	0.379232
C169	C	0.980882	-0.930243	-0.328858
C170	C	1.230882	-0.680243	-0.078858
C171	C	1.480882	-0.430243	0.171142
C172	C	1.730882	-0.180243	0.421142
N173	N	0.946387	-0.822345	-0.294338
N174	N	1.196387	-0.572345	-0.044338
N175	N	1.446387	-0.322345	0.205662
N176	N	1.696387	-0.072345	0.455662
N177	N	0.983755	-0.855106	-0.331757
N178	N	1.233755	-0.605106	-0.081757
N179	N	1.483755	-0.355106	0.168243
N180	N	1.733755	-0.105106	0.418243
C181	C	1.141560	-0.339095	-0.313031
C182	C	1.391560	-0.089095	-0.063031
C183	C	1.641560	0.160905	0.186969
C184	C	1.891560	0.410905	0.436969
C185	C	1.216792	-0.339101	-0.313041
C186	C	1.466792	-0.089101	-0.063041
C187	C	1.716792	0.160899	0.186959
C188	C	1.966792	0.410899	0.436959
C189	C	0.965058	-0.339037	-0.489554
C190	C	1.215058	-0.089037	-0.239554
C191	C	1.465058	0.160963	0.010446
C192	C	1.715058	0.410963	0.260446
C193	C	0.965074	-0.339018	-0.564787
C194	C	1.215074	-0.089018	-0.314787
C195	C	1.465074	0.160982	-0.064787
C196	C	1.715074	0.410982	0.185213
C197	C	0.972203	-0.155493	-0.320149
C198	C	1.222203	0.094507	-0.070149
C199	C	1.472203	0.344507	0.179851
C200	C	1.722203	0.594507	0.429851
C201	C	0.975264	-0.077259	-0.323192
C202	C	1.225264	0.172741	-0.073192
C203	C	1.475264	0.422741	0.176808
C204	C	1.725264	0.672741	0.426808
C205	C	1.010128	-0.294001	-0.601888
C206	C	1.260128	-0.044001	-0.351888
C207	C	1.510128	0.205999	-0.101888
C208	C	1.760128	0.455999	0.148112
C209	C	1.010135	-0.293980	-0.672577
C210	C	1.260135	-0.043980	-0.422577
C211	C	1.510135	0.206020	-0.172577
C212	C	1.760135	0.456020	0.077423
C213	C	0.965093	-0.338981	-0.706164
C214	C	1.215093	-0.088981	-0.456164
C215	C	1.465093	0.161019	-0.206164
C216	C	1.715093	0.411019	0.043836
C217	C	0.920035	-0.384000	-0.669057
C218	C	1.170035	-0.134000	-0.419057
C219	C	1.420035	0.116000	-0.169057
C220	C	1.670035	0.366000	0.080943
C221	C	0.920024	-0.384016	-0.598369
C222	C	1.170024	-0.134016	-0.348369
C223	C	1.420024	0.115984	-0.098369
C224	C	1.670024	0.365984	0.151631
C225	C	0.920075	-0.383934	-0.954133
C226	C	1.170075	-0.133934	-0.704133
C227	C	1.420075	0.116066	-0.454133
C228	C	1.670075	0.366066	-0.204133
C229	C	0.920091	-0.383916	-1.024826
C230	C	1.170091	-0.133916	-0.774826
C231	C	1.420091	0.116084	-0.524826
C232	C	1.670091	0.366084	-0.274826
C233	C	1.010187	-0.293899	-1.028341
C234	C	1.260187	-0.043899	-0.778341
C235	C	1.510187	0.206101	-0.528341
C236	C	1.760187	0.456101	-0.278341
C237	C	1.010176	-0.293915	-0.957653
C238	C	1.260176	-0.043915	-0.707653
C239	C	1.510176	0.206085	-0.457653
C240	C	1.760176	0.456085	-0.207653
C241	C	0.965116	-0.338931	-0.920553
C242	C	1.215116	-0.088931	-0.670553
C243	C	1.465116	0.161069	-0.420553
C244	C	1.715116	0.411069	-0.170553
C245	C	0.965107	-0.338951	-0.843904
C246	C	1.215107	-0.088951	-0.593904
C247	C	1.465107	0.161049	-0.343904
C248	C	1.715107	0.411049	-0.093904
C249	C	0.965104	-0.338964	-0.782812
C250	C	1.215104	-0.088964	-0.532812
C251	C	1.465104	0.161036	-0.282812
C252	C	1.715104	0.411036	-0.032812
C253	C	0.965019	-0.339074	-0.137154
C254	C	1.215019	-0.089074	0.112846
C255	C	1.465019	0.160926	0.362846
C256	C	1.715019	0.410926	0.612846
C257	C	0.965141	-0.338895	-0.061929
C258	C	1.215141	-0.088895	0.188071
C259	C	1.465141	0.161105	0.438071
C260	C	1.715141	0.411105	0.688071
H261	H	0.704206	-0.420858	-0.388223
H262	H	0.954206	-0.170858	-0.138223
H263	H	1.204206	0.079142	0.111777
H264	H	1.454206	0.329142	0.361777
H265	H	0.354749	-0.257317	-0.237792
H266	H	0.604749	-0.007317	0.012208
H267	H	0.854749	0.242683	0.262208
H268	H	1.104749	0.492683	0.512208
H269	H	0.575972	-0.420860	-0.388237
H270	H	0.825972	-0.170860	-0.138237
H271	H	1.075972	0.079140	0.111763
H272	H	1.325972	0.329140	0.361763
H273	H	0.582273	-0.257304	-0.237784
H274	H	0.832273	-0.007304	0.012216
H275	H	1.082273	0.242696	0.262216
H276	H	1.332273	0.492696	0.512216
Br277	Br	0.200072	-0.445360	-0.410774
Br278	Br	0.450072	-0.195360	-0.160774
Br279	Br	0.700072	0.054640	0.089226
Br280	Br	0.950072	0.304640	0.339226
Br281	Br	1.071265	-0.232931	-0.556313
Br282	Br	1.321265	0.017069	-0.306313
Br283	Br	1.571265	0.267069	-0.056313
Br284	Br	1.821265	0.517069	0.193687
H285	H	1.054020	-1.070315	-0.402062
H286	H	1.304020	-0.820315	-0.152062
H287	H	1.554020	-0.570315	0.097938
H288	H	1.804020	-0.320315	0.347938
H289	H	0.883394	-0.420599	-0.923934
H290	H	1.133394	-0.170599	-0.673934
H291	H	1.383394	0.079401	-0.423934
H292	H	1.633394	0.329401	-0.173934
H293	H	0.883331	-0.420666	-0.568162
H294	H	1.133331	-0.170666	-0.318162
H295	H	1.383331	0.079334	-0.068162
H296	H	1.633331	0.329334	0.181838
H297	H	1.028021	-0.740252	-0.376102
H298	H	1.278021	-0.490252	-0.126102
H299	H	1.528021	-0.240252	0.123898
H300	H	1.778021	0.009748	0.373898
H301	H	1.046874	-0.257242	-1.058557
H302	H	1.296874	-0.007242	-0.808557
H303	H	1.546874	0.242758	-0.558557
H304	H	1.796874	0.492758	-0.308557
H305	H	1.059120	-0.936950	-0.407203
H306	H	1.309120	-0.686950	-0.157203
H307	H	1.559120	-0.436950	0.092797
H308	H	1.809120	-0.186950	0.342797
H309	H	0.348445	-0.420874	-0.388253
H310	H	0.598445	-0.170874	-0.138253
H311	H	0.848445	0.079126	0.111747
H312	H	1.098445	0.329126	0.361747
Br313	Br	0.858958	-0.444993	-1.070407
Br314	Br	1.108958	-0.194993	-0.820407
Br315	Br	1.358958	0.055007	-0.570407
Br316	Br	1.608958	0.305007	-0.320407
Br317	Br	0.730653	-0.232821	-0.215259
Br318	Br	0.980653	0.017179	0.034741
Br319	Br	1.230653	0.267179	0.284741
Br320	Br	1.480653	0.517179	0.534741
H321	H	1.033122	-0.606900	-0.381243
H322	H	1.283122	-0.356900	-0.131243
H323	H	1.533122	-0.106900	0.118757
H324	H	1.783122	0.143100	0.368757
H325	H	1.046824	-0.257325	-0.702782
H326	H	1.296824	-0.007325	-0.452782
H327	H	1.546824	0.242675	-0.202782
H328	H	1.796824	0.492675	0.047218
H329	H	0.902127	-0.937196	-0.249987
H330	H	1.152127	-0.687196	0.000013
H331	H	1.402127	-0.437196	0.250013
H332	H	1.652127	-0.187196	0.500013
Br333	Br	0.846769	-0.760486	-0.194603
Br334	Br	1.096769	-0.510486	0.055397
Br335	Br	1.346769	-0.260486	0.305397
Br336	Br	1.596769	-0.010486	0.555397
Br337	Br	0.208266	-0.232858	-0.215295
Br338	Br	0.458266	0.017142	0.034705
Br339	Br	0.708266	0.267142	0.284705
Br340	Br	0.958266	0.517142	0.534705
Br341	Br	0.872786	-1.090544	-0.220547
Br342	Br	1.122786	-0.840544	0.029453
Br343	Br	1.372786	-0.590544	0.279453
Br344	Br	1.622786	-0.340544	0.529453
H345	H	0.876126	-0.607137	-0.224028
H346	H	1.126126	-0.357137	0.025972
H347	H	1.376126	-0.107137	0.275972
H348	H	1.626126	0.142863	0.525972
H349	H	1.046857	-0.257273	-0.930311
H350	H	1.296857	-0.007273	-0.680311
H351	H	1.546857	0.242727	-0.430311
H352	H	1.796857	0.492727	-0.180311
Br353	Br	0.858900	-0.445068	-0.714638
Br354	Br	1.108900	-0.195068	-0.464638
Br355	Br	1.358900	0.054932	-0.214638
Br356	Br	1.608900	0.304932	0.035362
