data_functionalizedCrystal
_audit_creation_method	'MofGen! by Chris Wilmer'
_symmetry_space_group_name_H-M	'P1'
_symmetry_Int_Tables_number	1
_symmetry_cell_setting	triclinic
loop_
_symmetry_equiv_pos_as_xyz
  x,y,z
_cell_length_a	16.625548
_cell_length_b	16.625545
_cell_length_c	16.959447
_cell_angle_alpha	89.970073
_cell_angle_beta	89.984572
_cell_angle_gamma	90.026626
loop_
_atom_site_label
_atom_site_type_symbol
_atom_site_fract_x
_atom_site_fract_y
_atom_site_fract_z
Zn1	Zn	1.232622	-0.320963	-0.446934
Zn2	Zn	1.232530	-0.455810	-0.314757
Zn3	Zn	1.097796	-0.320998	-0.314769
Zn4	Zn	1.097747	-0.455760	-0.446893
O5	O	1.165174	-0.388383	-0.380838
O6	O	1.345442	-0.338857	-0.429413
O7	O	1.214640	-0.437963	-0.204147
O8	O	1.115740	-0.208161	-0.332324
O9	O	1.345375	-0.437929	-0.332302
O10	O	1.214796	-0.208135	-0.429425
O11	O	1.115651	-0.338917	-0.204157
O12	O	0.984957	-0.338868	-0.332283
O13	O	1.115657	-0.437843	-0.557509
O14	O	0.984921	-0.437877	-0.429354
O15	O	1.214749	-0.338808	-0.557540
O16	O	1.214592	-0.568636	-0.332262
O17	O	1.115568	-0.568599	-0.429342
C18	C	0.955683	-0.388371	-0.380816
C19	C	0.866062	-0.388386	-0.380825
C20	C	0.537886	-0.388391	-0.380859
C21	C	0.629195	-0.388387	-0.380847
C22	C	0.701971	-0.388389	-0.380842
C23	C	0.793286	-0.388384	-0.380831
C24	C	1.165086	-0.597873	-0.380813
C25	C	1.165123	-0.687495	-0.380829
C26	C	1.165154	-0.760277	-0.380845
C27	C	1.165201	-0.851585	-0.380862
C28	C	1.165243	-0.924362	-0.380872
C29	C	1.165289	-1.015676	-0.380888
C30	C	1.375483	-0.388395	-0.380861
C31	C	1.465104	-0.388400	-0.380870
C32	C	1.165208	-0.388316	-0.587006
C33	C	1.165222	-0.388287	-0.674863
C34	C	1.165284	-0.178074	-0.380880
C35	C	1.165331	-0.088452	-0.380898
C36	C	1.113725	-0.439765	-1.046325
C37	C	1.216911	-0.336640	-1.046352
C38	C	1.216890	-0.336657	-0.963806
C39	C	1.165286	-0.388230	-0.922516
C40	C	1.113704	-0.439785	-0.963772
C41	C	1.268476	-0.285108	-0.922545
C42	C	1.268458	-0.285123	-0.839994
C43	C	1.216849	-0.336693	-0.798702
C44	C	1.165265	-0.388250	-0.839963
C45	C	1.113661	-0.439823	-0.798672
C46	C	1.062072	-0.491377	-0.839932
C47	C	1.062096	-0.491355	-0.922480
C48	C	1.216825	-0.336714	-0.716153
C49	C	1.113640	-0.439843	-0.716119
C50	C	1.165187	-0.388391	-0.175472
C51	C	1.165329	-0.388192	-0.087616
H52	H	1.020060	-0.533371	-0.806302
H53	H	1.258929	-0.294656	-1.079976
N54	N	1.321188	-0.232445	-0.964732
N55	N	1.321197	-0.232436	-1.038436
H56	H	1.358428	-0.195242	-1.068235
H57	H	1.071610	-0.481834	-0.682506
N58	N	1.321147	-0.232449	-0.797866
N59	N	1.315837	-0.158046	-0.807116
H60	H	1.353048	-0.120841	-0.777364
N61	N	1.009407	-0.544005	-0.964637
N62	N	1.009438	-0.543980	-1.038341
H63	H	0.972228	-0.581165	-1.068119
N64	N	1.061030	-0.492413	-1.088477
N65	N	1.061048	-0.492387	-1.162181
H66	H	1.023831	-0.529570	-1.191953
H67	H	1.258831	-0.294742	-0.682564
