data_functionalizedCrystal
_audit_creation_method	'MofGen! by Chris Wilmer'
_symmetry_space_group_name_H-M	'P1'
_symmetry_Int_Tables_number	1
_symmetry_cell_setting	triclinic
loop_
_symmetry_equiv_pos_as_xyz
  x,y,z
_cell_length_a	17.640112
_cell_length_b	18.050589
_cell_length_c	17.640968
_cell_angle_alpha	78.773118
_cell_angle_beta	92.139080
_cell_angle_gamma	101.252307
loop_
_atom_site_label
_atom_site_type_symbol
_atom_site_fract_x
_atom_site_fract_y
_atom_site_fract_z
Zn1	Zn	1.247776	-0.021338	-0.195082
Zn2	Zn	1.747776	0.478662	0.304918
Zn3	Zn	1.221993	-0.174558	-0.068112
Zn4	Zn	1.721993	0.325442	0.431888
Zn5	Zn	1.095104	-0.069647	-0.093732
Zn6	Zn	1.595104	0.430353	0.406268
Zn7	Zn	1.120735	-0.164782	-0.220693
Zn8	Zn	1.620735	0.335218	0.279307
O9	O	1.171402	-0.107581	-0.144405
O10	O	1.671402	0.392419	0.355595
O11	O	1.350627	-0.025537	-0.156798
O12	O	1.850627	0.474463	0.343202
O13	O	1.183644	-0.184950	0.034761
O14	O	1.683644	0.315050	0.534761
O15	O	1.115420	0.040699	-0.107180
O16	O	1.615420	0.540699	0.392820
O17	O	1.331684	-0.138107	-0.063514
O18	O	1.831684	0.361893	0.436486
O19	O	1.227588	0.076191	-0.181641
O20	O	1.727588	0.576191	0.318359
O21	O	1.090420	-0.107872	0.015938
O22	O	1.590420	0.392128	0.515938
O23	O	0.992234	-0.098393	-0.132014
O24	O	1.492234	0.401607	0.367986
O25	O	1.159104	-0.121445	-0.323567
O26	O	1.659104	0.378555	0.176433
O27	O	1.011064	-0.168289	-0.225292
O28	O	1.511064	0.331711	0.274708
O29	O	1.252441	-0.016058	-0.304750
O30	O	1.752441	0.483942	0.195250
O31	O	1.208498	-0.277199	-0.088349
O32	O	1.708498	0.222801	0.411651
O33	O	1.134104	-0.270016	-0.200449
O34	O	1.634104	0.229984	0.299551
C35	C	0.974094	-0.137523	-0.184213
C36	C	1.474094	0.362477	0.315787
C37	C	0.889689	-0.150346	-0.201261
C38	C	1.389689	0.349654	0.298739
C39	C	0.563038	-0.010153	-0.014899
C40	C	1.063038	0.489847	0.485101
C41	C	0.483728	-0.022215	-0.030928
C42	C	0.983728	0.477785	0.469072
C43	C	0.503357	-0.095166	-0.127891
C44	C	1.003357	0.404834	0.372109
C45	C	0.582671	-0.083107	-0.111873
C46	C	1.082671	0.416893	0.388127
C47	C	0.612505	-0.040601	-0.055375
C48	C	1.112505	0.459399	0.444625
C49	C	0.632138	-0.113555	-0.152349
C50	C	1.132138	0.386445	0.347651
C51	C	0.711444	-0.101501	-0.136328
C52	C	1.211444	0.398499	0.363672
C53	C	0.741283	-0.058998	-0.079832
C54	C	1.241283	0.441002	0.420168
C55	C	0.691811	-0.028547	-0.039354
C56	C	1.191811	0.471453	0.460646
C57	C	0.602302	-0.156066	-0.208842
C58	C	1.102302	0.343934	0.291158
C59	C	0.651768	-0.186514	-0.249318
C60	C	1.151768	0.313486	0.250682
C61	C	0.731077	-0.174455	-0.233302
C62	C	1.231077	0.325545	0.266698
C63	C	0.760916	-0.131952	-0.176805
C64	C	1.260916	0.368048	0.323195
C65	C	0.780549	-0.204906	-0.273779
C66	C	1.280549	0.295094	0.226221
C67	C	0.859855	-0.192852	-0.257758
C68	C	1.359855	0.307148	0.242242
C69	C	0.840222	-0.119898	-0.160785
C70	C	1.340222	0.380102	0.339215
C71	C	1.171308	-0.300550	-0.144411
C72	C	1.671308	0.199450	0.355589
C73	C	1.171342	-0.383087	-0.144424
C74	C	1.671342	0.116913	0.355576
C75	C	1.130933	-0.578655	-0.205357
C76	C	1.630933	-0.078655	0.294643
C77	C	1.098407	-0.646737	-0.139793
C78	C	1.598407	-0.146737	0.360207
C79	C	1.171419	-0.534204	-0.144419
C80	C	1.671419	-0.034204	0.355581
C81	C	1.203984	-0.613197	-0.209983
C82	C	1.703984	-0.113197	0.290017
C83	C	1.171493	-0.680174	-0.144421
C84	C	1.671493	-0.180174	0.355579
C85	C	1.138849	-0.601212	-0.078826
C86	C	1.638849	-0.101212	0.421174
C87	C	1.244468	-0.567652	-0.149057
C88	C	1.744468	-0.067652	0.350943
C89	C	1.211958	-0.635718	-0.083440
C90	C	1.711958	-0.135718	0.416560
C91	C	1.171375	-0.450114	-0.144420
C92	C	1.671375	0.049886	0.355580
C93	C	1.171536	-0.764264	-0.144412
C94	C	1.671536	-0.264264	0.355588
C95	C	1.369481	-0.077524	-0.104442
C96	C	1.869481	0.422476	0.395558
C97	C	1.453890	-0.064715	-0.087412
C98	C	1.953890	0.435285	0.412588
C99	C	1.211508	-0.062272	-0.342484
C100	C	1.711508	0.437728	0.157516
C101	C	1.228598	-0.042964	-0.426893
C102	C	1.728598	0.457036	0.073107
C103	C	1.171521	0.086148	-0.144411
C104	C	1.671521	0.586148	0.355589
C105	C	1.171572	0.168704	-0.144414
C106	C	1.671572	0.668704	0.355586
C107	C	1.041859	-0.253814	-0.753484
C108	C	1.541859	0.246186	-0.253484
C109	C	1.057934	-0.235659	-0.832796
C110	C	1.557934	0.264341	-0.332796
C111	C	1.155117	-0.125928	-0.813194
C112	C	1.655117	0.374072	-0.313194
C113	C	1.139048	-0.144071	-0.733879
C114	C	1.639048	0.355929	-0.233879
C115	C	1.082418	-0.208016	-0.704030
C116	C	1.582418	0.291984	-0.204030
C117	C	1.179607	-0.098273	-0.684425
C118	C	1.679607	0.401727	-0.184425
C119	C	1.163541	-0.116418	-0.605116
C120	C	1.663541	0.383582	-0.105116
C121	C	1.106916	-0.180360	-0.575261
C122	C	1.606916	0.319640	-0.075261
C123	C	1.066352	-0.226160	-0.624721
C124	C	1.566352	0.273840	-0.124721
C125	C	1.236240	-0.034333	-0.714274
C126	C	1.736240	0.465667	-0.214274
C127	C	1.276799	0.011465	-0.664820
C128	C	1.776799	0.511465	-0.164820
C129	C	1.260730	-0.006676	-0.585511
C130	C	1.760730	0.493324	-0.085511
C131	C	1.204105	-0.070618	-0.555656
C132	C	1.704105	0.429382	-0.055656
C133	C	1.301293	0.039124	-0.536051
C134	C	1.801293	0.539124	-0.036051
C135	C	1.285228	0.020980	-0.456742
C136	C	1.785228	0.520980	0.043258
C137	C	1.188039	-0.088763	-0.476347
C138	C	1.688039	0.411237	0.023653
C139	C	1.131497	-0.152654	0.052913
C140	C	1.631497	0.347346	0.552913
C141	C	1.114553	-0.171730	0.137352
C142	C	1.614553	0.328270	0.637352
H143	H	0.805860	-0.049186	-0.066787
H144	H	1.305860	0.450814	0.433213
H145	H	1.347406	0.091183	-0.560365
H146	H	1.847406	0.591183	-0.060365
O147	O	1.328966	0.070375	-0.403395
O148	O	1.828966	0.570375	0.096605
H149	H	1.371037	0.117892	-0.437475
H150	H	1.871037	0.617892	0.062525
H151	H	0.995727	-0.305868	-0.729184
H152	H	1.495727	0.194132	-0.229184
O153	O	1.257340	-0.668569	-0.015117
O154	O	1.757340	-0.168569	0.484883
H155	H	1.306691	-0.688998	-0.036017
H156	H	1.806691	-0.188998	0.463983
H157	H	0.756245	-0.239521	-0.319773
H158	H	1.256245	0.260479	0.180227
H159	H	1.306201	-0.533383	-0.153009
H160	H	1.806201	-0.033383	0.346991
O161	O	0.430372	0.010633	0.012725
O162	O	0.930372	0.510633	0.512725
H163	H	0.464445	0.042219	0.054697
H164	H	0.964445	0.542219	0.554697
O165	O	0.595226	0.035700	0.046033
O166	O	1.095226	0.535700	0.546033
H167	H	0.623510	-0.000842	0.092019
H168	H	1.123510	0.499158	0.592019
H169	H	0.716105	0.006080	0.006640
H170	H	1.216105	0.506080	0.506640
H171	H	1.231497	-0.619082	-0.265429
H172	H	1.731497	-0.119082	0.234571
H173	H	0.537725	-0.165879	-0.221884
H174	H	1.037725	0.334121	0.278116
O175	O	0.872404	-0.074049	-0.099848
O176	O	1.372404	0.425951	0.400152
H177	H	0.915446	-0.023031	-0.126604
H178	H	1.415446	0.476969	0.373396
O179	O	0.471180	-0.141006	-0.188831
O180	O	0.971180	0.358994	0.311169
H181	H	0.407724	-0.144269	-0.193176
H182	H	0.907724	0.355731	0.306824
O183	O	1.337866	0.080434	-0.697034
O184	O	1.837866	0.580434	-0.197034
H185	H	1.394384	0.073268	-0.669793
H186	H	1.894384	0.573268	-0.169793
H187	H	0.627466	-0.221125	-0.295316
H188	H	1.127466	0.278875	0.204684
O189	O	0.913218	-0.225683	-0.301416
O190	O	1.413218	0.274317	0.198584
H191	H	0.879151	-0.257257	-0.343400
H192	H	1.379151	0.242743	0.156600
H193	H	1.096620	-0.553748	-0.256842
H194	H	1.596620	-0.053748	0.243158
H195	H	1.036667	-0.681002	-0.135877
H196	H	1.536667	-0.181002	0.364123
O197	O	1.102305	-0.593565	-0.005378
O198	O	1.602305	-0.093565	0.494622
H199	H	1.102532	-0.531922	-0.005968
H200	H	1.602532	-0.031922	0.494032
H201	H	1.141907	-0.140817	-0.452047
H202	H	1.641907	0.359183	0.047953
O203	O	1.216173	-0.056944	-0.845392
O204	O	1.716173	0.443056	-0.345392
H205	H	1.220522	-0.052012	-0.908851
H206	H	1.720522	0.447988	-0.408851
H207	H	1.093839	-0.195135	-0.510682
H208	H	1.593839	0.304865	-0.010682
H209	H	1.024902	-0.272958	-0.873060
H210	H	1.524902	0.227042	-0.373060
H211	H	1.249320	-0.019563	-0.778853
H212	H	1.749320	0.480437	-0.278853
O213	O	1.005270	-0.295126	-0.592517
O214	O	1.505270	0.204874	-0.092517
H215	H	0.979763	-0.323928	-0.640228
H216	H	1.479763	0.176072	-0.140228
