data_functionalizedCrystal
_audit_creation_method	'MofGen! by Chris Wilmer'
_symmetry_space_group_name_H-M	'P1'
_symmetry_Int_Tables_number	1
_symmetry_cell_setting	triclinic
loop_
_symmetry_equiv_pos_as_xyz
  x,y,z
_cell_length_a	12.759400
_cell_length_b	12.759401
_cell_length_c	25.639233
_cell_angle_alpha	90.011220
_cell_angle_beta	89.992252
_cell_angle_gamma	89.998685
loop_
_atom_site_label
_atom_site_type_symbol
_atom_site_fract_x
_atom_site_fract_y
_atom_site_fract_z
Zn1	Zn	-0.418444	-1.606254	-0.295630
Zn2	Zn	-0.594107	-1.606209	-0.208211
Zn3	Zn	-0.418437	-1.430581	-0.208210
Zn4	Zn	-0.594076	-1.430580	-0.295617
O5	O	-0.506266	-1.518406	-0.251917
O6	O	-0.441762	-1.753269	-0.284039
O7	O	-0.570814	-1.582894	-0.135045
O8	O	-0.271417	-1.453904	-0.219812
O9	O	-0.570821	-1.753236	-0.219812
O10	O	-0.271422	-1.582970	-0.284038
O11	O	-0.441750	-1.453861	-0.135045
O12	O	-0.441720	-1.283560	-0.219800
O13	O	-0.570768	-1.453902	-0.368784
O14	O	-0.570762	-1.283559	-0.284017
O15	O	-0.441732	-1.582969	-0.368793
O16	O	-0.741124	-1.582893	-0.219800
O17	O	-0.741101	-1.453859	-0.284018
C18	C	-0.506238	-1.245439	-0.251907
C19	C	-0.506251	-1.128662	-0.251916
C20	C	-0.439169	-1.073818	-0.285410
C21	C	-0.439176	-0.964094	-0.285412
C22	C	-0.573354	-0.964068	-0.218426
C23	C	-0.573342	-1.073790	-0.218421
C24	C	-0.315344	-0.814143	-0.304201
C25	C	-0.248272	-0.759295	-0.337703
C26	C	-0.232291	-0.794934	-0.388730
C27	C	-0.283398	-0.885419	-0.406267
C28	C	-0.350478	-0.940261	-0.372768
C29	C	-0.366439	-0.904624	-0.321732
C30	C	-0.697175	-1.223743	-0.199638
C31	C	-0.764261	-1.278587	-0.166141
C32	C	-0.780252	-1.242951	-0.115112
C33	C	-0.729163	-1.152463	-0.097578
C34	C	-0.662077	-1.097618	-0.131075
C35	C	-0.646084	-1.133262	-0.182103
C36	C	-0.779234	-1.518399	-0.251919
C37	C	-0.896010	-1.518492	-0.251938
C38	C	-0.232233	-1.518442	-0.251926
C39	C	-0.115456	-1.518457	-0.251930
C40	C	-0.060585	-1.451283	-0.285365
C41	C	0.049139	-1.451303	-0.285370
C42	C	0.049111	-1.585674	-0.218501
C43	C	-0.060611	-1.585659	-0.218499
C44	C	0.199106	-1.413798	-0.347033
C45	C	0.253981	-1.346608	-0.380463
C46	C	0.218383	-1.244090	-0.388485
C47	C	0.127912	-1.208742	-0.363069
C48	C	0.073043	-1.275928	-0.329635
C49	C	0.108639	-1.378460	-0.321623
C50	C	-0.210580	-1.623152	-0.156836
C51	C	-0.265451	-1.690333	-0.123399
C52	C	-0.229856	-1.792852	-0.115371
C53	C	-0.139381	-1.828196	-0.140778
C54	C	-0.084510	-1.761016	-0.174215
C55	C	-0.120113	-1.658497	-0.182243
C56	C	-0.506248	-1.518440	-0.388290
C57	C	-0.506240	-1.518455	-0.446404
C58	C	-0.506286	-0.792440	-0.251925
C59	C	-0.506270	-0.909216	-0.251923
C60	C	-0.438851	-1.585745	-0.806778
C61	C	-0.438822	-1.585758	-0.861382
O62	O	-0.381650	-1.642886	-0.889627
N63	N	-0.505994	-1.518570	-0.888687
C64	C	-0.573191	-1.451358	-0.861384
O65	O	-0.630322	-1.394210	-0.889623
C66	C	-0.573214	-1.451340	-0.806781
C67	C	-0.506046	-1.518540	-0.779479
C68	C	-0.371688	-1.652938	-0.779476
C69	C	-0.371718	-1.652926	-0.724875
C70	C	-0.438913	-1.585721	-0.697576
C71	C	-0.506076	-1.518528	-0.724879
C72	C	-0.640405	-1.384124	-0.779480
C73	C	-0.640422	-1.384111	-0.724873
C74	C	-0.573254	-1.451311	-0.697571
C75	C	-0.573301	-1.451311	-0.642979
N76	N	-0.506130	-1.518499	-0.615675
C77	C	-0.438936	-1.585704	-0.642973
C78	C	-0.573136	-1.451398	-0.976055
C79	C	-0.573119	-1.451420	-1.030657
C80	C	-0.438749	-1.585819	-1.030651
C81	C	-0.438772	-1.585802	-0.976048
C82	C	-0.505965	-1.518586	-0.948750
C83	C	-0.439006	-1.585674	-0.528308
C84	C	-0.439046	-1.585660	-0.473703
C85	C	-0.573412	-1.451257	-0.473714
C86	C	-0.573376	-1.451276	-0.528314
C87	C	-0.506165	-1.518488	-0.555610
O88	O	-0.630442	-1.394210	-0.614699
O89	O	-0.381804	-1.642832	-0.614728
C90	C	-0.506209	-1.518433	-0.116074
C91	C	-0.505921	-1.518622	-0.057961
H92	H	-0.684151	-1.252773	-0.241189
H93	H	-0.627858	-1.396662	-0.953833
Cl94	Cl	-0.724897	-1.299604	-0.690559
H95	H	-0.105236	-1.396571	-0.312590
Cl96	Cl	-0.040685	-1.231500	-0.297686
Cl97	Cl	-0.414724	-1.054006	-0.394808
H98	H	-0.384033	-1.640539	-1.052888
H99	H	0.228089	-1.497281	-0.340511
H100	H	-0.010838	-1.789800	-0.194900
Cl101	Cl	-0.094621	-1.957078	-0.130683
Cl102	Cl	-0.255335	-1.494264	-0.166925
Cl103	Cl	0.083176	-1.079849	-0.373149
H104	H	-0.384348	-1.640385	-0.451476
H105	H	0.093776	-1.640386	-0.191282
H106	H	-0.384272	-1.640401	-0.550526
H107	H	-0.270390	-0.914422	-0.447821
Cl108	Cl	-0.287266	-1.737403	-0.690561
H109	H	0.263071	-1.189383	-0.415704
Cl110	Cl	-0.184044	-0.645534	-0.315661
Cl111	Cl	0.367709	-1.391046	-0.412414
Cl112	Cl	-0.287216	-1.737450	-0.813784
H113	H	-0.274538	-1.847547	-0.088140
Cl114	Cl	-0.354327	-1.670282	-0.941731
Cl115	Cl	-0.749275	-1.107649	-0.033427
Cl116	Cl	-0.864603	-1.311893	-0.073004
H117	H	-0.805846	-1.352278	-0.180419
Cl118	Cl	-0.354822	-1.142797	-0.327515
Cl119	Cl	-0.147976	-0.725976	-0.430847
H120	H	-0.627826	-1.396711	-1.052882
H121	H	-0.339123	-1.661548	-0.102713
H122	H	-0.695101	-1.329402	-0.801700
Cl123	Cl	-0.657823	-1.366801	-0.562638
H124	H	-0.328338	-0.785125	-0.262648
Cl125	Cl	-0.657696	-0.895079	-0.176322
H126	H	-0.620479	-1.023937	-0.116794
H127	H	-0.628123	-1.396544	-0.451477
