data_functionalizedCrystal
_audit_creation_method	'MofGen! by Chris Wilmer'
_symmetry_space_group_name_H-M	'P1'
_symmetry_Int_Tables_number	1
_symmetry_cell_setting	triclinic
loop_
_symmetry_equiv_pos_as_xyz
  x,y,z
_cell_length_a	18.101395
_cell_length_b	16.959455
_cell_length_c	16.959447
_cell_angle_alpha	89.975979
_cell_angle_beta	89.971805
_cell_angle_gamma	90.028124
loop_
_atom_site_label
_atom_site_type_symbol
_atom_site_fract_x
_atom_site_fract_y
_atom_site_fract_z
Zn1	Zn	-0.294883	1.208352	-0.447041
Zn2	Zn	-0.418733	1.208240	-0.314864
Zn3	Zn	-0.294904	1.076172	-0.314865
Zn4	Zn	-0.418681	1.076119	-0.446989
O5	O	-0.356800	1.142221	-0.380940
O6	O	-0.311325	1.318948	-0.429529
O7	O	-0.402338	1.190696	-0.204253
O8	O	-0.191268	1.093774	-0.332420
O9	O	-0.402318	1.318866	-0.332420
O10	O	-0.191253	1.190886	-0.429529
O11	O	-0.311361	1.093666	-0.204254
O12	O	-0.311310	0.965554	-0.332369
O13	O	-0.402228	1.093685	-0.557607
O14	O	-0.402248	0.965515	-0.429441
O15	O	-0.311275	1.190835	-0.557645
O16	O	-0.522359	1.190646	-0.332369
O17	O	-0.522321	1.093577	-0.429441
C18	C	-0.356776	0.936855	-0.380900
C19	C	-0.356784	0.848998	-0.380902
C20	C	-0.404133	0.477469	-0.330349
C21	C	-0.309529	0.477576	-0.431627
C22	C	-0.309517	0.560121	-0.431607
C23	C	-0.356814	0.601345	-0.380959
C24	C	-0.404124	0.560023	-0.330330
C25	C	-0.262213	0.601450	-0.482241
C26	C	-0.262200	0.684001	-0.482225
C27	C	-0.309494	0.725226	-0.431572
C28	C	-0.356805	0.683899	-0.380940
C29	C	-0.404102	0.725122	-0.330292
C30	C	-0.451410	0.683796	-0.279655
C31	C	-0.451418	0.601248	-0.279677
C32	C	-0.309486	0.807774	-0.431550
C33	C	-0.404093	0.807676	-0.330272
C34	C	-0.549211	1.142115	-0.380916
C35	C	-0.631525	1.142142	-0.380933
C36	C	-0.930616	1.142316	-0.380976
C37	C	-0.899297	1.081384	-0.442202
C38	C	-0.813679	1.081095	-0.442010
C39	C	-0.782233	1.142229	-0.380955
C40	C	-0.813385	1.119677	-0.297648
C41	C	-0.899030	1.119285	-0.298015
C42	C	-0.898963	1.225932	-0.402323
C43	C	-0.813312	1.225441	-0.404150
C44	C	-0.698374	1.142182	-0.380938
C45	C	-1.014475	1.142361	-0.380987
C46	C	-0.163638	1.142348	-0.380980
C47	C	-0.081324	1.142403	-0.380998
C48	C	-0.356743	1.142267	-0.587108
C49	C	-0.356719	1.142286	-0.674965
C50	C	-0.356825	1.348389	-0.380980
C51	C	-0.356836	1.436246	-0.380997
C52	C	-0.404074	1.192816	-0.716240
C53	C	-0.309345	1.091771	-0.716243
C54	C	-0.309323	1.091784	-0.798789
C55	C	-0.356679	1.142313	-0.840064
C56	C	-0.404055	1.192829	-0.798794
C57	C	-0.261953	1.041264	-0.840065
C58	C	-0.261930	1.041275	-0.922616
C59	C	-0.309282	1.091809	-0.963893
C60	C	-0.356660	1.142327	-0.922618
C61	C	-0.404015	1.192856	-0.963893
C62	C	-0.451390	1.243379	-0.922619
C63	C	-0.451407	1.243363	-0.840071
C64	C	-0.309264	1.091825	-1.046442
C65	C	-0.403996	1.192870	-1.046447
C66	C	-0.356804	1.142220	-0.175573
C67	C	-0.356619	1.142354	-0.087717
H68	H	-0.442607	0.841234	-0.289025
N69	N	-0.452465	0.435274	-0.278628
N70	N	-0.494691	0.472093	-0.233415
H71	H	-0.528827	0.442293	-0.196886
N72	N	-0.499710	0.725910	-0.227909
N73	N	-0.494707	0.716657	-0.154983
H74	H	-0.528817	0.746403	-0.118436
H75	H	-0.489933	0.567593	-0.238451
N76	N	-0.213575	0.989647	-0.797924
N77	N	-0.218472	0.916708	-0.807121
H78	H	-0.184298	0.880253	-0.777359
N79	N	-0.213520	0.989689	-0.964770
N80	N	-0.166316	1.017544	-1.010842
H81	H	-0.132123	0.981114	-1.040614
N82	N	-0.260879	1.040213	-1.088589
N83	N	-0.218607	0.995096	-1.051727
H84	H	-0.184432	0.958642	-1.081493
H85	H	-0.919216	1.271328	-0.357729
H86	H	-0.489978	1.284495	-0.806458
H87	H	-0.792615	1.095204	-0.503781
N88	N	-0.261230	0.435458	-0.483362
N89	N	-0.261250	0.361754	-0.483376
H90	H	-0.227137	0.332005	-0.519916
H91	H	-0.793253	1.019116	-0.427869
H92	H	-0.920511	1.246493	-0.462035
H93	H	-0.223711	0.567880	-0.523482
N94	N	-0.925017	1.172526	-0.238818
N95	N	-0.879899	1.209851	-0.197363
H96	H	-0.898248	1.247443	-0.155547
N97	N	-0.499749	1.294992	-0.964802
N98	N	-0.473676	1.345371	-1.010892
H99	H	-0.507827	1.381821	-1.040689
N100	N	-0.452476	1.244408	-0.674086
N101	N	-0.520809	1.239123	-0.683285
H102	H	-0.554995	1.275560	-0.653513
N103	N	-0.260988	1.040156	-0.674072
N104	N	-0.261016	1.040148	-0.600368
H105	H	-0.226862	1.003693	-0.570581
N106	N	-0.213876	0.726198	-0.533953
N107	N	-0.171654	0.689381	-0.579172
H108	H	-0.137524	0.719183	-0.615706
H109	H	-0.919845	1.095354	-0.504173
N110	N	-0.261168	0.849975	-0.483276
N111	N	-0.218946	0.813159	-0.528497
H112	H	-0.184817	0.842962	-0.565030
N113	N	-0.452355	1.244499	-1.088608
N114	N	-0.447440	1.317437	-1.079412
H115	H	-0.481592	1.353902	-1.109189
N116	N	-0.926381	1.004109	-0.424684
N117	N	-0.968648	0.993716	-0.367303
H118	H	-0.987778	0.939141	-0.354929
N119	N	-0.924164	1.042606	-0.275325
N120	N	-0.878453	0.989753	-0.259331
H121	H	-0.896199	0.935596	-0.243305
H122	H	-0.793017	1.162661	-0.250786
H123	H	-0.791997	1.059201	-0.279242
H124	H	-0.791903	1.273239	-0.362807
H125	H	-0.792949	1.242447	-0.465459
