data_functionalizedCrystal
_audit_creation_method	'MofGen! by Chris Wilmer'
_symmetry_space_group_name_H-M	'P1'
_symmetry_Int_Tables_number	1
_symmetry_cell_setting	triclinic
loop_
_symmetry_equiv_pos_as_xyz
  x,y,z
_cell_length_a	20.919309
_cell_length_b	20.919151
_cell_length_c	20.919320
_cell_angle_alpha	55.749568
_cell_angle_beta	89.823686
_cell_angle_gamma	55.760852
loop_
_atom_site_label
_atom_site_type_symbol
_atom_site_fract_x
_atom_site_fract_y
_atom_site_fract_z
Zr1	Zr	0.597347	0.700999	-0.103549
O2	O	0.476840	0.862256	-0.224083
O3	O	0.640211	0.552553	-0.060661
O4	O	0.625309	0.707404	-0.209154
O5	O	0.496759	0.697886	0.034790
O6	O	0.735689	0.697883	-0.204132
O7	O	0.491741	0.707406	-0.075590
O8	O	0.762344	0.420883	0.061496
O9	O	0.470104	0.974886	-0.230838
O10	O	0.733712	0.601761	-0.045795
O11	O	0.655082	0.601762	0.032832
O12	O	0.637538	0.784079	-0.142000
O13	O	0.558908	0.784080	-0.063372
Zr14	Zr	0.781393	0.670632	0.080505
Zr15	Zr	0.773389	0.685815	-0.095539
Zr16	Zr	0.605351	0.685817	0.072495
Zr17	Zr	0.586604	0.880631	-0.114321
Zr18	Zr	0.792136	0.491001	0.091277
O19	O	0.738529	0.819079	0.037616
O20	O	0.727149	0.840666	-0.212695
O21	O	0.488220	0.840669	0.026228
O22	O	0.901900	0.509375	0.201039
O23	O	0.890520	0.530962	-0.049272
O24	O	0.651591	0.530965	0.189651
O25	O	0.881981	0.673745	-0.057835
O26	O	0.753430	0.664228	0.186110
O27	O	0.643051	0.673748	0.181088
O28	O	0.886999	0.664226	0.052546
O29	O	0.610034	0.962816	-0.224471
O30	O	0.768706	0.408815	0.201427
O31	O	0.908636	0.396745	0.207794
O32	O	0.902275	0.408813	0.067862
O33	O	0.476465	0.962818	-0.090907
O34	O	0.616396	0.950749	-0.084540
O35	O	0.741202	0.587552	0.118956
O36	O	0.819832	0.587551	0.040328
O37	O	0.723658	0.769869	-0.055876
O38	O	0.645028	0.769871	0.022751
C39	C	0.702808	0.461124	0.001953
C40	C	0.707369	0.384866	0.006526
C41	C	0.642223	0.421601	-0.058637
C42	C	0.646509	0.349964	-0.054370
C43	C	0.715938	0.241592	0.015065
C44	C	0.781090	0.204857	0.080231
C45	C	0.776807	0.276493	0.075960
C46	C	0.732240	0.021666	0.031325
C47	C	0.736517	-0.049970	0.035593
C48	C	0.601936	0.095143	-0.099009
C49	C	0.597656	0.166774	-0.103272
C50	C	0.662810	0.130033	-0.038108
C51	C	0.720319	0.168366	0.019430
C52	C	0.658432	0.203259	-0.042477
C53	C	0.469168	0.704809	-0.021541
C54	C	0.394433	0.711256	-0.024941
C55	C	0.409522	0.619119	0.023675
C56	C	0.339298	0.625182	0.020478
C57	C	0.253985	0.723383	-0.031341
C58	C	0.238897	0.815527	-0.079958
C59	C	0.309121	0.809462	-0.076756
C60	C	0.039443	0.746455	-0.043518
C61	C	-0.030782	0.752513	-0.046719
C62	C	0.069624	0.562167	0.053719
C63	C	0.139844	0.556111	0.056913
C64	C	0.124751	0.648254	0.008299
C65	C	0.182203	0.729583	-0.034612
C66	C	0.196532	0.642053	0.011575
C67	C	0.909572	0.666822	-0.001503
C68	C	0.984307	0.660376	0.001897
C69	C	0.679359	0.704806	-0.231726
C70	C	0.675961	0.711252	-0.306461
C71	C	0.675932	0.910507	-0.024997
C72	C	0.671371	0.986765	-0.029570
C73	C	0.654176	0.752516	-0.731686
C74	C	0.657374	0.746452	-0.661461
C75	C	0.709181	0.648250	-0.576132
C76	C	0.757786	0.556106	-0.561030
C77	C	0.754582	0.562172	-0.631255
C78	C	0.721362	0.625174	-0.361584
C79	C	0.724564	0.619115	-0.291358
C80	C	0.624151	0.809462	-0.391794
C81	C	0.620956	0.815518	-0.462015
C82	C	0.669557	0.723376	-0.446908
C83	C	0.712454	0.642048	-0.504348
C84	C	0.666279	0.729578	-0.518691
C85	C	0.699381	0.666825	0.208682
C86	C	0.702779	0.660380	0.283417
C87	C	0.923010	0.442131	0.011971
C88	C	1.002306	0.359426	0.019945
C89	C	0.712819	0.442133	0.222156
C90	C	0.720778	0.359430	0.301464
C91	C	0.933022	0.423140	0.232175
C92	C	1.015715	0.333990	0.314884
C93	C	0.445718	0.948492	-0.255219
C94	C	0.363025	1.037641	-0.337928
C95	C	0.455729	0.929501	-0.035015
C96	C	0.376434	1.012205	-0.042989
C97	C	0.665921	0.929498	-0.245200
C98	C	0.657962	1.012202	-0.324509
C99	C	0.994590	0.328005	-0.021274
C100	C	1.069088	0.250307	-0.013799
C101	C	1.151302	0.204027	0.034899
C102	C	1.159017	0.235455	0.076119
C103	C	1.084518	0.313156	0.068639
C104	C	0.769469	0.313174	0.383671
C105	C	0.776944	0.235475	0.458196
C106	C	0.735731	0.204028	0.450512
C107	C	0.687034	0.250292	0.368296
C108	C	0.679555	0.327995	0.293773
C109	C	1.095600	0.292123	0.312682
C110	C	1.173304	0.208367	0.390388
C111	C	1.171123	0.166475	0.470296
C112	C	1.091229	0.208350	0.472495
C113	C	1.013526	0.292109	0.394789
C114	C	0.283140	1.079517	-0.335726
C115	C	0.205434	1.163295	-0.413434
C116	C	0.207615	1.205191	-0.493342
C117	C	0.287509	1.163312	-0.495541
C118	C	0.365213	1.079540	-0.417834
C119	C	0.384149	1.043635	-0.001778
C120	C	0.309649	1.121354	-0.009273
C121	C	0.227434	1.167637	-0.057974
C122	C	0.219721	1.136205	-0.099190
C123	C	0.294220	1.058493	-0.091700
C124	C	0.699186	1.043622	-0.316797
C125	C	0.691725	1.121320	-0.391307
C126	C	0.643035	1.167600	-0.473529
C127	C	0.601810	1.136172	-0.481239
C128	C	0.609277	1.058471	-0.406729
H129	H	0.785294	-0.008261	0.084386
Cl130	Cl	0.913103	0.344726	0.397573
Cl131	Cl	0.557436	1.018991	-0.416440
Cl132	Cl	1.273730	0.155738	0.387604
H133	H	1.234400	0.098273	0.533562
H134	H	0.593460	0.379884	-0.107432
Cl135	Cl	0.280374	1.026865	-0.235281
H136	H	1.089466	0.174229	0.537566
H137	H	0.140389	1.197379	-0.411627
Cl138	Cl	0.133786	1.265331	-0.067380
Cl139	Cl	0.745144	0.106340	0.544209
H140	H	0.548891	0.125046	-0.152063
Cl141	Cl	0.554933	0.557838	-0.145928
H142	H	0.639908	0.365648	0.226840
Cl143	Cl	0.290150	0.925297	-0.137872
H144	H	0.112734	0.809539	-0.076802
H145	H	0.144337	1.273403	-0.556609
Cl146	Cl	0.571154	0.339495	-0.129764
Cl147	Cl	1.059371	0.210810	-0.065619
H148	H	0.451086	1.005955	0.037885
H149	H	1.097393	0.326220	0.247625
Cl150	Cl	0.290237	1.215989	-0.596004
Cl151	Cl	0.116359	1.194396	-0.160407
Cl152	Cl	0.635231	0.210745	0.358652
H153	H	0.738833	1.005952	-0.249854
H154	H	0.287926	1.032906	-0.125257
Cl155	Cl	0.465637	1.026900	-0.420616
Cl156	Cl	0.743549	1.160818	-0.381595
H157	H	0.315947	1.146931	0.024294
H158	H	0.803031	0.338768	0.389944
H159	H	0.794158	0.487145	-0.618952
Cl160	Cl	0.516769	0.495659	0.088817
H161	H	1.211957	0.140757	0.040984
H162	H	0.562167	1.173865	-0.548194
H163	H	0.829856	0.246575	0.129022
H164	H	0.776849	0.080122	0.075963
H165	H	1.225965	0.197762	0.115768
Cl166	Cl	0.555821	0.938978	-0.569284
Cl167	Cl	-0.138037	0.875976	-0.111876
Cl168	Cl	1.094235	0.352640	0.120470
Cl169	Cl	0.131646	0.938981	-0.145096
Cl170	Cl	0.358273	0.509346	0.081607
Cl171	Cl	0.596239	0.862289	-0.680455
H172	H	0.816601	0.197814	0.525132
H173	H	0.636962	1.230869	-0.534193
H174	H	0.793056	-0.138216	0.092139
Cl175	Cl	0.510365	0.303012	-0.190559
Cl176	Cl	0.563052	0.925291	-0.410779
Cl177	Cl	0.868376	0.068617	0.167519
Cl178	Cl	0.247092	0.432653	0.122058
H179	H	0.081903	0.487149	0.093298
H180	H	0.027142	0.821486	-0.083118
H181	H	0.265996	0.562098	0.053769
Cl182	Cl	0.789727	0.495649	-0.184082
Cl183	Cl	0.782462	0.509336	-0.342582
Cl184	Cl	0.589048	0.875977	-0.838954
H185	H	0.799964	0.476148	-0.491549
H186	H	0.624093	0.809534	-0.588168
Cl187	Cl	0.777583	0.518597	-0.397074
Cl188	Cl	0.891243	0.386176	-0.082505
