data_functionalizedCrystal
_audit_creation_method	'MofGen! by Chris Wilmer'
_symmetry_space_group_name_H-M	'P1'
_symmetry_Int_Tables_number	1
_symmetry_cell_setting	triclinic
loop_
_symmetry_equiv_pos_as_xyz
  x,y,z
_cell_length_a	14.908782
_cell_length_b	14.908520
_cell_length_c	14.908803
_cell_angle_alpha	96.379389
_cell_angle_beta	83.226378
_cell_angle_gamma	90.162158
loop_
_atom_site_label
_atom_site_type_symbol
_atom_site_fract_x
_atom_site_fract_y
_atom_site_fract_z
Zn1	Zn	1.325789	0.462301	0.460095
Zn2	Zn	1.325722	0.604894	0.317466
Zn3	Zn	1.184206	0.445837	0.316490
Zn4	Zn	1.165658	0.604897	0.477529
O5	O	1.250343	0.529482	0.392895
O6	O	1.452020	0.488106	0.434287
O7	O	1.314683	0.576903	0.190251
O8	O	1.210777	0.321778	0.327835
O9	O	1.451971	0.592868	0.329498
O10	O	1.314797	0.333874	0.433341
O11	O	1.210712	0.460044	0.189534
O12	O	1.055505	0.460047	0.344740
O13	O	1.179166	0.592873	0.602302
O14	O	1.041878	0.576908	0.463055
O15	O	1.296813	0.488108	0.589493
O16	O	1.296699	0.731137	0.346403
O17	O	1.179101	0.731139	0.464001
C18	C	1.015959	0.516692	0.405684
C19	C	0.915686	0.511243	0.411178
C20	C	0.727229	0.609925	0.312198
C21	C	0.633013	0.604808	0.317358
C22	C	0.633036	0.495897	0.426661
C23	C	0.727252	0.501014	0.421501
C24	C	0.774345	0.558029	0.364267
C25	C	0.868563	0.563140	0.359103
C26	C	0.868584	0.454235	0.468410
C27	C	0.774368	0.449118	0.473570
C28	C	1.235903	0.763874	0.407218
C29	C	1.229806	0.864153	0.413372
C30	C	1.235928	0.542327	0.629771
C31	C	1.229785	0.547801	0.730713
C32	C	1.485643	0.542323	0.380057
C33	C	1.585914	0.547795	0.374586
C34	C	1.264864	0.294178	0.378535
C35	C	1.271051	0.193905	0.372415
C36	C	1.340917	1.052538	0.302568
C37	C	1.335191	1.146760	0.308346
C38	C	1.212634	1.146821	0.430711
C39	C	1.218360	1.052599	0.424933
C40	C	1.282502	1.005461	0.360858
C41	C	1.288223	0.911237	0.355075
C42	C	1.165671	0.911300	0.477444
C43	C	1.159946	1.005522	0.483223
C44	C	1.340746	0.448975	0.907058
C45	C	1.334977	0.454116	1.001902
C46	C	1.212474	0.563217	1.015247
C47	C	1.218243	0.558077	0.920403
C48	C	1.282382	0.500955	0.866312
C49	C	1.288155	0.495820	0.771466
C50	C	1.165648	0.604916	0.784813
C51	C	1.159879	0.610056	0.879657
C52	C	1.264697	0.516707	1.156942
C53	C	1.270844	0.511235	1.056000
H54	H	0.906956	0.411974	0.510804
C55	C	1.090443	1.056832	0.552836
C56	C	1.134640	1.116815	0.611607
C57	C	1.070640	1.164103	0.675737
H58	H	1.056438	1.015406	0.586817
H59	H	1.051060	1.089664	0.522485
H60	H	1.174007	1.083985	0.641955
H61	H	1.168640	1.158259	0.577652
H62	H	1.031257	1.196935	0.645386
H63	H	1.036639	1.122670	0.709712
H64	H	1.100618	1.204812	0.715616
C65	C	1.357681	0.433646	0.712782
C66	C	1.342114	0.344566	0.731462
C67	C	1.406135	0.287262	0.677415
H68	H	1.416577	0.450872	0.725776
H69	H	1.352759	0.437965	0.650447
H70	H	1.347044	0.340251	0.793783
H71	H	1.283230	0.327313	0.718464
H72	H	1.401213	0.291580	0.615080
H73	H	1.465028	0.304495	0.690413
H74	H	1.395577	0.226814	0.690076
C75	C	1.102130	0.860346	0.540783
C76	C	1.044719	0.921797	0.598113
C77	C	0.986163	0.874889	0.656457
H78	H	1.136320	0.827561	0.576332
H79	H	1.067150	0.819633	0.505918
H80	H	1.079695	0.962493	0.632975
H81	H	1.010510	0.954583	0.562589
H82	H	0.951183	0.834177	0.621592
H83	H	1.020360	0.842107	0.692000
H84	H	0.947197	0.916576	0.695357
H85	H	0.736011	0.402702	0.520171
H86	H	1.392974	0.402469	0.863015
H87	H	0.906905	0.609563	0.312498
H88	H	1.382500	0.411786	1.035073
C89	C	0.581754	0.660995	0.260769
C90	C	0.534318	0.603740	0.202494
C91	C	0.487079	0.655472	0.150359
H92	H	0.623198	0.695693	0.225867
H93	H	0.540428	0.700221	0.299843
H94	H	0.575640	0.564531	0.163425
H95	H	0.492859	0.569042	0.237372
H96	H	0.445752	0.694698	0.189433
H97	H	0.528529	0.690168	0.115463
H98	H	0.454881	0.616633	0.110819
C99	C	1.090388	0.672194	0.938436
C100	C	1.134594	0.735763	0.993614
C101	C	1.070609	0.793029	1.047762
H102	H	1.050927	0.637656	0.975554
H103	H	1.056466	0.702473	0.900615
H104	H	1.168500	0.705487	1.031431
H105	H	1.174049	0.770323	0.956520
H106	H	1.036687	0.823308	1.009941
H107	H	1.031152	0.758483	1.084874
H108	H	1.100594	0.836172	1.085200
H109	H	0.765574	0.656342	0.265590
H110	H	1.160419	1.185218	0.482883
C111	C	1.142974	0.625337	1.074037
C112	C	1.187167	0.688905	1.129227
C113	C	1.123171	0.746147	1.183390
H114	H	1.103524	0.590781	1.111147
H115	H	1.109042	0.655617	1.036226
H116	H	1.221084	0.658628	1.167035
H117	H	1.226612	0.723483	1.092142
H118	H	1.089239	0.776427	1.145579
H119	H	1.083725	0.711583	1.220494
H120	H	1.153147	0.789290	1.220837
C121	C	1.410636	1.001519	0.232967
C122	C	1.460579	1.062916	0.183164
C123	C	1.524819	1.015952	0.119046
H124	H	1.380900	0.960780	0.192917
H125	H	1.450086	0.968761	0.263314
H126	H	1.421135	1.095659	0.152818
H127	H	1.490335	1.103656	0.223190
H128	H	1.564268	0.983194	0.149393
H129	H	1.495075	0.975215	0.079001
H130	H	1.558718	1.057603	0.085252
C131	C	1.102327	0.661251	0.740402
C132	C	1.121092	0.644513	0.645763
C133	C	1.062776	0.696385	0.604822
H134	H	1.110796	0.723454	0.758825
H135	H	1.041565	0.645575	0.758394
H136	H	1.181839	0.660195	0.627779
H137	H	1.112617	0.582320	0.627314
H138	H	1.002015	0.680709	0.622814
H139	H	1.071250	0.758585	0.623252
H140	H	1.075495	0.685029	0.540606
C141	C	1.398593	1.198043	0.245201
C142	C	1.379884	1.290652	0.264003
C143	C	1.438298	1.337925	0.205874
H144	H	1.390182	1.178738	0.183897
H145	H	1.459327	1.186605	0.254334
H146	H	1.319164	1.302084	0.254863
H147	H	1.388301	1.309984	0.325297
H148	H	1.499032	1.326487	0.215007
H149	H	1.429881	1.318612	0.144573
H150	H	1.425617	1.400765	0.218629
C151	C	0.581738	0.434022	0.488709
C152	C	0.489145	0.440639	0.482065
C153	C	0.441863	0.383642	0.539201
H154	H	0.592553	0.451398	0.549713
H155	H	0.601650	0.373485	0.470956
H156	H	0.469240	0.501162	0.499824
H157	H	0.478303	0.423255	0.421074
H158	H	0.461775	0.323105	0.521448
H159	H	0.452685	0.401024	0.600201
H160	H	0.379035	0.388118	0.534695
H161	H	1.340448	0.872858	0.302900
