data_functionalizedCrystal
_audit_creation_method	'MofGen! by Chris Wilmer'
_symmetry_space_group_name_H-M	'P1'
_symmetry_Int_Tables_number	1
_symmetry_cell_setting	triclinic
loop_
_symmetry_equiv_pos_as_xyz
  x,y,z
_cell_length_a	19.805405
_cell_length_b	21.295418
_cell_length_c	19.805398
_cell_angle_alpha	89.964511
_cell_angle_beta	90.030326
_cell_angle_gamma	89.955382
loop_
_atom_site_label
_atom_site_type_symbol
_atom_site_fract_x
_atom_site_fract_y
_atom_site_fract_z
Zn1	Zn	-0.269143	-0.962297	0.383116
Zn2	Zn	0.064190	-0.628964	0.716449
Zn3	Zn	0.397524	-0.295630	1.049782
Zn4	Zn	-0.382333	-0.962230	0.269924
Zn5	Zn	-0.049000	-0.628896	0.603257
Zn6	Zn	0.284333	-0.295563	0.936591
Zn7	Zn	-0.269200	-0.857043	0.269896
Zn8	Zn	0.064134	-0.523709	0.603229
Zn9	Zn	0.397467	-0.190376	0.936563
Zn10	Zn	-0.382331	-0.856997	0.383027
Zn11	Zn	-0.048998	-0.523664	0.716360
Zn12	Zn	0.284335	-0.190330	1.049693
O13	O	-0.325752	-0.909642	0.326491
O14	O	0.007581	-0.576308	0.659824
O15	O	0.340915	-0.242975	0.993157
O16	O	-0.284135	-1.050377	0.368150
O17	O	0.049198	-0.717044	0.701483
O18	O	0.382532	-0.383711	1.034816
O19	O	-0.367351	-0.948267	0.175204
O20	O	-0.034017	-0.614934	0.508537
O21	O	0.299316	-0.281601	0.841870
O22	O	-0.174476	-0.871052	0.284940
O23	O	0.158858	-0.537719	0.618274
O24	O	0.492191	-0.204386	0.951607
O25	O	-0.367296	-1.050328	0.284988
O26	O	-0.033962	-0.716995	0.618321
O27	O	0.299371	-0.383661	0.951655
O28	O	-0.174434	-0.948382	0.368122
O29	O	0.158899	-0.615049	0.701456
O30	O	0.492233	-0.281715	1.034789
O31	O	-0.284232	-0.870987	0.175183
O32	O	0.049102	-0.537654	0.508516
O33	O	0.382435	-0.204320	0.841850
O34	O	-0.284230	-0.768947	0.284854
O35	O	0.049104	-0.435614	0.618187
O36	O	0.382437	-0.102281	0.951521
O37	O	-0.367292	-0.870974	0.477755
O38	O	-0.033959	-0.537641	0.811088
O39	O	0.299374	-0.204308	1.144422
O40	O	-0.367347	-0.768914	0.367971
O41	O	-0.034014	-0.435580	0.701304
O42	O	0.299320	-0.102247	1.034637
O43	O	-0.284133	-0.948338	0.477820
O44	O	0.049200	-0.615004	0.811154
O45	O	0.382534	-0.281671	1.144487
O46	O	-0.477050	-0.948223	0.284902
O47	O	-0.143716	-0.614890	0.618235
O48	O	0.189617	-0.281556	0.951568
O49	O	-0.477048	-0.870909	0.367998
O50	O	-0.143715	-0.537576	0.701331
O51	O	0.189618	-0.204242	1.034664
C52	C	-0.501608	-0.909571	0.326458
C53	C	-0.168275	-0.576237	0.659791
C54	C	0.165059	-0.242904	0.993124
C55	C	-0.576840	-0.909598	0.326466
C56	C	-0.243507	-0.576265	0.659800
C57	C	0.089827	-0.242931	0.993133
C58	C	-0.325795	-0.746090	0.326400
C59	C	0.007538	-0.412757	0.659733
C60	C	0.340872	-0.079423	0.993067
C61	C	-0.325830	-0.676122	0.326377
C62	C	0.007504	-0.342788	0.659711
C63	C	0.340837	-0.009455	0.993044
C64	C	-0.612162	-0.949894	0.283244
C65	C	-0.278829	-0.616561	0.616577
C66	C	0.054504	-0.283228	0.949910
C67	C	-0.682851	-0.949921	0.283259
C68	C	-0.349517	-0.616588	0.616592
C69	C	-0.016184	-0.283255	0.949925
C70	C	-0.718215	-0.909648	0.326493
C71	C	-0.384882	-0.576315	0.659827
C72	C	-0.051549	-0.242981	0.993160
C73	C	-0.682888	-0.869350	0.369721
C74	C	-0.349555	-0.536016	0.703054
C75	C	-0.016221	-0.202683	1.036388
C76	C	-0.612201	-0.869327	0.369709
C77	C	-0.278868	-0.535993	0.703042
C78	C	0.054466	-0.202660	1.036376
C79	C	-0.967961	-0.869442	0.369771
C80	C	-0.634628	-0.536109	0.703104
C81	C	-0.301295	-0.202776	1.036438
C82	C	-1.038653	-0.869467	0.369778
C83	C	-0.705320	-0.536134	0.703112
C84	C	-0.371987	-0.202801	1.036445
C85	C	-1.038611	-0.950037	0.283321
C86	C	-0.705278	-0.616704	0.616654
C87	C	-0.371944	-0.283370	0.949988
C88	C	-0.967924	-0.950014	0.283309
C89	C	-0.634591	-0.616681	0.616642
C90	C	-0.301257	-0.283347	0.949976
C91	C	-0.932603	-0.909718	0.326539
C92	C	-0.599269	-0.576385	0.659872
C93	C	-0.265936	-0.243052	0.993205
C94	C	-0.855954	-0.909691	0.326523
C95	C	-0.522621	-0.576357	0.659856
C96	C	-0.189288	-0.243024	0.993189
C97	C	-0.794863	-0.909672	0.326506
C98	C	-0.461529	-0.576339	0.659840
C99	C	-0.128196	-0.243005	0.993173
C100	C	-0.369168	-0.643254	0.369589
C101	C	-0.035834	-0.309921	0.702922
C102	C	0.297499	0.023413	1.036255
C103	C	-0.369154	-0.577512	0.369614
C104	C	-0.035821	-0.244178	0.702947
C105	C	0.297513	0.089155	1.036281
C106	C	-0.325809	-0.544639	0.326416
C107	C	0.007524	-0.211306	0.659749
C108	C	0.340857	0.122027	0.993082
C109	C	-0.282463	-0.577515	0.283201
C110	C	0.050871	-0.244182	0.616535
C111	C	0.384204	0.089152	0.949868
C112	C	-0.282473	-0.643256	0.283182
C113	C	0.050860	-0.309923	0.616515
C114	C	0.384194	0.023411	0.949849
N115	N	-0.320527	-0.441375	0.267208
N116	N	0.012807	-0.108041	0.600541
N117	N	0.346140	0.225292	0.933875
N118	N	-0.320521	-0.378923	0.267228
N119	N	0.012812	-0.045590	0.600562
N120	N	0.346146	0.287743	0.933895
C121	C	-0.325775	-0.346565	0.326472
C122	C	0.007558	-0.013231	0.659806
C123	C	0.340892	0.320102	0.993139
N124	N	-0.331048	-0.379017	0.385697
N125	N	0.002285	-0.045683	0.719030
N126	N	0.335619	0.287650	1.052363
N127	N	-0.331057	-0.441474	0.385676
N128	N	0.002276	-0.108140	0.719009
N129	N	0.335609	0.225193	1.052342
C130	C	-0.325793	-0.473354	0.326432
C131	C	0.007540	-0.140021	0.659766
C132	C	0.340874	0.193313	0.993099
C133	C	-0.369100	-0.242411	0.369715
C134	C	-0.035767	0.090922	0.703048
C135	C	0.297566	0.424255	1.036382
C136	C	-0.369082	-0.176668	0.369741
C137	C	-0.035749	0.156666	0.703075
C138	C	0.297585	0.489999	1.036408
C139	C	-0.282394	-0.176672	0.283323
C140	C	0.050939	0.156661	0.616656
C141	C	0.384272	0.489994	0.949989
C142	C	-0.282409	-0.242415	0.283302
C143	C	0.050924	0.090919	0.616635
C144	C	0.384257	0.424252	0.949969
C145	C	-0.325766	-0.275280	0.326497
C146	C	0.007567	0.058053	0.659831
C147	C	0.340901	0.391386	0.993164
C148	C	-0.149209	-0.909730	0.326538
C149	C	0.184124	-0.576396	0.659872
C150	C	0.517458	-0.243063	0.993205
C151	C	-0.073977	-0.909767	0.326559
C152	C	0.259356	-0.576434	0.659892
C153	C	0.592690	-0.243101	0.993225
C154	C	-0.325706	-0.909658	0.503033
C155	C	0.007627	-0.576325	0.836367
C156	C	0.340961	-0.242992	1.169700
C157	C	-0.325687	-0.909666	0.578265
C158	C	0.007647	-0.576332	0.911599
C159	C	0.340980	-0.242999	1.244932
C160	C	-0.325721	-0.073832	0.326562
C161	C	0.007613	0.259501	0.659896
C162	C	0.340946	0.592835	0.993229
C163	C	-0.325736	-0.143800	0.326543
C164	C	0.007597	0.189533	0.659877
C165	C	0.340931	0.522867	0.993210
C166	C	-0.325749	-0.909661	0.150635
C167	C	0.007585	-0.576328	0.483968
C168	C	0.340918	-0.242994	0.817301
C169	C	-0.325577	-0.909776	0.075403
C170	C	0.007756	-0.576443	0.408736
C171	C	0.341089	-0.243109	0.742070
C172	C	-0.368859	-0.950005	1.040065
C173	C	-0.035526	-0.616671	1.373398
C174	C	0.297808	-0.283338	1.706732
C175	C	-0.368877	-0.949987	0.969376
C176	C	-0.035544	-0.616654	1.302710
C177	C	0.297789	-0.283321	1.636043
C178	C	-0.325610	-0.909744	0.934027
C179	C	0.007723	-0.576410	1.267361
C180	C	0.341056	-0.243077	1.600694
C181	C	-0.282327	-0.869510	0.969370
C182	C	0.051007	-0.536177	1.302704
C183	C	0.384340	-0.202844	1.636037
C184	C	-0.282312	-0.869525	1.040058
C185	C	0.051021	-0.536192	1.373391
C186	C	0.384354	-0.202859	1.706724
C187	C	-0.282385	-0.869450	0.684297
C188	C	0.050949	-0.536116	1.017630
C189	C	0.384282	-0.202783	1.350964
C190	C	-0.282401	-0.869439	0.613605
C191	C	0.050932	-0.536106	0.946938
C192	C	0.384266	-0.202773	1.280271
C193	C	-0.368950	-0.949912	0.613616
C194	C	-0.035616	-0.616578	0.946949
C195	C	0.297717	-0.283245	1.280282
C196	C	-0.368935	-0.949926	0.684303
C197	C	-0.035602	-0.616593	1.017636
C198	C	0.297731	-0.283260	1.350970
C199	C	-0.325655	-0.909691	0.719640
C200	C	0.007679	-0.576358	1.052973
C201	C	0.341012	-0.243025	1.386307
C202	C	-0.325636	-0.909710	0.796288
C203	C	0.007697	-0.576376	1.129622
C204	C	0.341030	-0.243043	1.462955
C205	C	-0.325625	-0.909728	0.857380
C206	C	0.007709	-0.576395	1.190714
C207	C	0.341042	-0.243061	1.524047
H208	H	-0.583373	-0.982687	0.248034
H209	H	-0.250040	-0.649354	0.581367
H210	H	0.083294	-0.316020	0.914701
H211	H	-0.939132	-0.982806	0.248101
H212	H	-0.605799	-0.649473	0.581434
H213	H	-0.272466	-0.316139	0.914767
F214	F	-0.236349	-0.826604	0.575985
F215	F	0.096985	-0.493271	0.909318
F216	F	0.430318	-0.159937	1.242652
H217	H	-1.067378	-0.982850	0.248124
H218	H	-0.734045	-0.649517	0.581457
H219	H	-0.400711	-0.316184	0.914790
F220	F	-0.414907	-0.992842	1.077680
F221	F	-0.081573	-0.659508	1.411013
F222	F	0.251760	-0.326175	1.744347
F223	F	-0.720440	-0.992812	0.237257
F224	F	-0.387107	-0.659479	0.570590
F225	F	-0.053774	-0.326145	0.903924
H226	H	-1.067445	-0.836673	0.404990
H227	H	-0.734112	-0.503339	0.738324
H228	H	-0.400779	-0.170006	1.071657
H229	H	-0.939208	-0.836631	0.404969
H230	H	-0.605875	-0.503298	0.738302
H231	H	-0.272542	-0.169965	1.071636
F232	F	-0.720528	-0.826491	0.415739
F233	F	-0.387194	-0.493158	0.749072
F234	F	-0.053861	-0.159824	1.082405
H235	H	-0.247144	-0.836687	0.713060
H236	H	0.086189	-0.503353	1.046393
H237	H	0.419523	-0.170020	1.379726
H238	H	-0.247101	-0.836741	0.940584
H239	H	0.086232	-0.503407	1.273917
H240	H	0.419566	-0.170074	1.607250
H241	H	-0.583442	-0.836514	0.404906
H242	H	-0.250109	-0.503181	0.738239
H243	H	0.083225	-0.169847	1.071573
H244	H	-0.404193	-0.982671	0.584836
H245	H	-0.070860	-0.649338	0.918169
H246	H	0.262474	-0.316005	1.251503
H247	H	-0.404471	-0.670009	0.404763
H248	H	-0.071138	-0.336676	0.738096
H249	H	0.262196	-0.003343	1.071429
H250	H	-0.404372	-0.149908	0.404934
H251	H	-0.071038	0.183425	0.738267
H252	H	0.262295	0.516759	1.071600
F253	F	-0.236330	-0.542529	0.237229
F254	F	0.097004	-0.209196	0.570563
F255	F	0.430337	0.124138	0.903896
H256	H	-0.247099	-0.149908	0.248153
H257	H	0.086234	0.183425	0.581486
H258	H	0.419567	0.516758	0.914819
H259	H	-0.404445	-0.550746	0.404805
H260	H	-0.071111	-0.217412	0.738138
H261	H	0.262222	0.115921	1.071471
F262	F	-0.236244	-0.826711	1.077667
F263	F	0.097090	-0.493377	1.411000
F264	F	0.430423	-0.160044	1.744333
F265	F	-0.236344	-0.678237	0.237189
F266	F	0.096989	-0.344904	0.570522
F267	F	0.430322	-0.011571	0.903855
H268	H	-0.247122	-0.269176	0.248111
H269	H	0.086211	0.064157	0.581444
H270	H	0.419545	0.397491	0.914778
F271	F	-0.415240	-0.277392	0.415690
F272	F	-0.081907	0.055942	0.749023
F273	F	0.251426	0.389275	1.082356
F274	F	-0.414943	-0.992805	0.931770
F275	F	-0.081609	-0.659472	1.265103
F276	F	0.251724	-0.326139	1.598437
H277	H	-0.404165	-0.982699	0.713081
H278	H	-0.070832	-0.649366	1.046414
H279	H	0.262501	-0.316032	1.379747
