data_functionalizedCrystal
_audit_creation_method	'MofGen! by Chris Wilmer'
_symmetry_space_group_name_H-M	'P1'
_symmetry_Int_Tables_number	1
_symmetry_cell_setting	triclinic
loop_
_symmetry_equiv_pos_as_xyz
  x,y,z
_cell_length_a	14.519709
_cell_length_b	14.853567
_cell_length_c	13.330367
_cell_angle_alpha	90.004582
_cell_angle_beta	89.994415
_cell_angle_gamma	96.342462
loop_
_atom_site_label
_atom_site_type_symbol
_atom_site_fract_x
_atom_site_fract_y
_atom_site_fract_z
O1	O	0.120405	-1.196416	-0.083357
O2	O	0.134748	-0.933962	-0.083374
O3	O	-0.006665	-1.072147	-0.083356
O4	O	0.261818	-1.058230	-0.083375
O5	O	-0.006668	-1.072127	0.083491
O6	O	0.134745	-0.933942	0.083473
O7	O	0.120402	-1.196395	0.083491
Cu8	Cu	0.127573	-1.065167	0.098716
Cu9	Cu	0.127577	-1.065190	-0.098600
O10	O	0.261814	-1.058210	0.083472
C11	C	0.134096	-0.900363	0.000047
C12	C	0.132149	-0.800278	0.000041
C13	C	-0.041026	-1.071488	0.000068
C14	C	-0.143407	-1.069545	0.000068
C15	C	0.121053	-1.229994	0.000067
C16	C	0.123001	-1.330079	0.000067
C17	C	-0.518299	-1.062390	0.000042
C18	C	-0.413992	-1.064377	0.000050
C19	C	-0.330856	-1.065967	0.000056
C20	C	-0.226543	-1.067955	0.000062
C21	C	0.296175	-1.058869	0.000046
C22	C	0.398556	-1.060812	0.000039
N23	N	0.127570	-1.065157	0.237498
C24	C	0.039914	-0.387709	0.000070
C25	C	0.207916	-0.366493	0.000057
C26	C	0.209747	-0.460527	0.000054
C27	C	0.126660	-0.518157	0.000057
C28	C	0.041743	-0.481752	0.000064
C29	C	0.294663	-0.496939	0.000037
C30	C	0.296498	-0.590979	0.000033
C31	C	0.213410	-0.648610	0.000043
C32	C	0.128489	-0.612200	0.000051
C33	C	0.045403	-0.669830	0.000054
C34	C	-0.039520	-0.633422	0.000069
C35	C	-0.041345	-0.539383	0.000074
C36	C	0.215235	-0.742649	0.000038
C37	C	0.047231	-0.763873	0.000048
N38	N	0.127572	-1.065208	-0.237381
C39	C	0.190170	-1.003999	0.710113
C40	C	0.064976	-1.126406	0.710097
C41	C	0.064974	-1.126396	0.605078
C42	C	0.127571	-1.065187	0.552572
C43	C	0.190170	-1.003989	0.605085
C44	C	0.002381	-1.187599	0.552558
C45	C	0.002376	-1.187592	0.447534
C46	C	0.064970	-1.126378	0.395026
C47	C	0.127572	-1.065177	0.447544
C48	C	0.190169	-1.003968	0.395038
C49	C	0.252767	-0.942762	0.447555
C50	C	0.252764	-0.942775	0.552577
C51	C	0.064973	-1.126365	0.290004
C52	C	0.190170	-1.003958	0.290010
H53	H	-0.020429	-0.810790	0.000054
H54	H	0.303738	-0.892929	0.404792
H55	H	0.014016	-1.176245	0.752851
Cl56	Cl	-0.076303	-1.264550	0.618563
H57	H	-0.048595	-1.237428	0.404781
H58	H	0.241134	-0.954163	0.752874
H59	H	0.241141	-0.954111	0.247266
Cl60	Cl	-0.143967	-0.705881	0.000065
H61	H	-0.110484	-0.509731	0.000110
H62	H	0.303730	-0.892944	0.595342
H63	H	-0.029228	-0.358060	0.000086
Cl64	Cl	0.312361	-0.294044	0.000039
H65	H	0.014010	-1.176202	0.247250
H66	H	0.362307	-0.450011	0.000024
Cl67	Cl	0.403254	-0.636741	0.000017
Cl68	Cl	0.321985	-0.788416	0.000012
