data_functionalizedCrystal
_audit_creation_method	'MofGen! by Chris Wilmer'
_symmetry_space_group_name_H-M	'P1'
_symmetry_Int_Tables_number	1
_symmetry_cell_setting	triclinic
loop_
_symmetry_equiv_pos_as_xyz
  x,y,z
_cell_length_a	18.050590
_cell_length_b	18.050591
_cell_length_c	16.625539
_cell_angle_alpha	89.976914
_cell_angle_beta	90.014297
_cell_angle_gamma	90.007285
loop_
_atom_site_label
_atom_site_type_symbol
_atom_site_fract_x
_atom_site_fract_y
_atom_site_fract_z
Zn1	Zn	0.295751	1.135471	-0.456107
Zn2	Zn	0.419944	1.135445	-0.321303
Zn3	Zn	0.295764	1.011286	-0.321273
Zn4	Zn	0.419895	1.011307	-0.456079
O5	O	0.357839	1.073377	-0.388691
O6	O	0.312241	1.239392	-0.438249
O7	O	0.403498	1.118956	-0.208467
O8	O	0.191838	1.027761	-0.339159
O9	O	0.403485	1.239373	-0.339209
O10	O	0.191828	1.119000	-0.438221
O11	O	0.312263	1.027736	-0.208445
O12	O	0.312215	0.907364	-0.339131
O13	O	0.403401	1.027797	-0.568915
O14	O	0.403413	0.907379	-0.438172
O15	O	0.312192	1.119020	-0.568936
O16	O	0.523862	1.118976	-0.339182
O17	O	0.523826	1.027772	-0.438201
C18	C	0.357811	0.880425	-0.388646
C19	C	0.357817	0.797879	-0.388646
C20	C	0.308166	0.598399	-0.334912
C21	C	0.375903	0.549016	-0.315086
C22	C	0.357839	0.646749	-0.388682
C23	C	0.290126	0.549050	-0.408506
C24	C	0.357855	0.500764	-0.388716
C25	C	0.425612	0.598453	-0.368818
C26	C	0.339789	0.598492	-0.462273
C27	C	0.407573	0.549131	-0.442475
C28	C	0.357829	0.730847	-0.388661
C29	C	0.357873	0.416667	-0.388738
C30	C	0.164133	1.073381	-0.388690
C31	C	0.081587	1.073382	-0.388689
C32	C	-0.117858	1.023798	-0.334835
C33	C	-0.167263	1.005653	-0.408398
C34	C	-0.069543	1.073411	-0.388710
C35	C	-0.167220	1.091549	-0.315167
C36	C	-0.215528	1.073438	-0.388722
C37	C	-0.117861	1.055231	-0.462312
C38	C	-0.117814	1.141159	-0.369031
C39	C	-0.167196	1.123040	-0.442645
C40	C	0.014555	1.073394	-0.388701
C41	C	-0.299625	1.073455	-0.388739
C42	C	0.550791	1.073394	-0.388709
C43	C	0.633336	1.073469	-0.388744
C44	C	0.357790	1.073414	-0.599000
C45	C	0.357769	1.073429	-0.688621
C46	C	0.357867	1.267083	-0.388736
C47	C	0.357879	1.349629	-0.388755
C48	C	0.357752	1.073441	-0.761403
C49	C	0.357725	1.073458	-0.852712
C50	C	0.357698	1.073476	-0.925488
C51	C	0.357672	1.073494	-1.016803
C52	C	0.357834	1.073384	-0.179200
C53	C	0.357645	1.073512	-0.089579
H54	H	0.449636	0.527635	-0.487962
H55	H	-0.096270	1.039835	-0.524529
H56	H	0.391182	0.527284	-0.252866
H57	H	-0.188983	0.948371	-0.425054
H58	H	-0.188723	1.165008	-0.488263
H59	H	0.482901	0.620062	-0.351996
H60	H	0.232862	0.527312	-0.425231
O61	O	-0.091909	1.209452	-0.348998
C62	C	-0.117029	1.228357	-0.271381
H63	H	-0.130912	1.175727	-0.236583
H64	H	-0.071805	1.260233	-0.238312
H65	H	-0.168679	1.264396	-0.276482
O66	O	-0.192981	1.109769	-0.240902
C67	C	-0.167848	1.057294	-0.184294
H68	H	-0.115872	1.028987	-0.208186
H69	H	-0.154496	1.086406	-0.125203
H70	H	-0.212852	1.014059	-0.173715
H71	H	0.324490	0.620241	-0.524474
O72	O	0.258188	0.624177	-0.280500
C73	C	0.277499	0.598947	-0.203012
H74	H	0.339100	0.585110	-0.201389
H75	H	0.265049	0.644087	-0.157024
H76	H	0.243964	0.547246	-0.187964
O77	O	-0.092040	0.973596	-0.280636
C78	C	-0.117254	0.902257	-0.301687
H79	H	-0.131120	0.900871	-0.368568
H80	H	-0.072093	0.859881	-0.288227
H81	H	-0.168935	0.888333	-0.265289
