data_functionalizedCrystal
_audit_creation_method	'MofGen! by Chris Wilmer'
_symmetry_space_group_name_H-M	'P1'
_symmetry_Int_Tables_number	1
_symmetry_cell_setting	triclinic
loop_
_symmetry_equiv_pos_as_xyz
  x,y,z
_cell_length_a	9.065218
_cell_length_b	11.892095
_cell_length_c	9.065218
_cell_angle_alpha	93.948829
_cell_angle_beta	94.984115
_cell_angle_gamma	93.956904
loop_
_atom_site_label
_atom_site_type_symbol
_atom_site_fract_x
_atom_site_fract_y
_atom_site_fract_z
O1	O	1.969710	0.094001	-0.207050
O2	O	1.540425	0.094003	-0.224796
O3	O	1.763940	0.094000	-0.001281
O4	O	1.746194	0.094004	-0.430565
O5	O	1.745304	-0.094008	-0.019888
O6	O	1.521788	-0.094005	-0.243403
O7	O	1.951073	-0.094006	-0.225657
Zn8	Zn	1.733472	-0.123855	-0.237485
Zn9	Zn	1.758026	0.123852	-0.212969
O10	O	1.727558	-0.094003	-0.449172
C11	C	1.476120	-0.000001	-0.232394
C12	C	1.312277	-0.000000	-0.227294
N13	N	1.716725	-0.292909	-0.254215
C14	C	1.891318	-0.529559	-0.079723
C15	C	1.879623	-0.647901	-0.091428
C16	C	1.681633	-0.647937	-0.289323
C17	C	1.693328	-0.529595	-0.277618
C18	C	1.798176	-0.470410	-0.172816
C19	C	1.809877	-0.352067	-0.161118
C20	C	1.611881	-0.352104	-0.359005
C21	C	1.600186	-0.470446	-0.370711
C22	C	2.015378	0.000000	-0.218059
C23	C	2.179222	0.000007	-0.223158
C24	C	1.752917	-0.000002	0.044402
C25	C	1.747818	0.000003	0.208246
N26	N	1.774785	0.292906	-0.196227
C27	C	1.738582	0.000001	-0.494855
C28	C	1.743682	0.000003	-0.658698
H29	H	1.895253	-0.303880	-0.075787
H30	H	1.514817	-0.518648	-0.456035
C31	C	1.595707	-0.219038	-0.546229
C32	C	1.509494	-0.287087	-0.461351
H33	H	1.532502	-0.178897	-0.609409
H34	H	1.653262	-0.265202	-0.604709
H35	H	1.659809	-0.166852	-0.482125
H36	H	1.445399	-0.339280	-0.525455
H37	H	1.451913	-0.240920	-0.402867
C38	C	1.594751	-0.684398	-0.547162
C39	C	1.566369	-0.712995	-0.404501
H40	H	1.523579	-0.724556	-0.618263
H41	H	1.691502	-0.703794	-0.566478
H42	H	1.588395	-0.605450	-0.553501
H43	H	1.572736	-0.791942	-0.398159
H44	H	1.469593	-0.693607	-0.385180
C45	C	2.085857	-0.541406	0.114705
C46	C	2.006565	-0.464496	0.035468
H47	H	2.157000	-0.501237	0.185825
H48	H	2.135187	-0.587551	0.047979
H49	H	2.019156	-0.587577	0.164071
H50	H	2.073265	-0.418330	-0.013908
H51	H	1.957234	-0.418331	0.102204
H52	H	1.955467	-0.696057	-0.015621
