data_functionalizedCrystal
_audit_creation_method	'MofGen! by Chris Wilmer'
_symmetry_space_group_name_H-M	'P1'
_symmetry_Int_Tables_number	1
_symmetry_cell_setting	triclinic
loop_
_symmetry_equiv_pos_as_xyz
  x,y,z
_cell_length_a	18.215407
_cell_length_b	19.076808
_cell_length_c	18.215399
_cell_angle_alpha	92.328322
_cell_angle_beta	90.017368
_cell_angle_gamma	92.320961
loop_
_atom_site_label
_atom_site_type_symbol
_atom_site_fract_x
_atom_site_fract_y
_atom_site_fract_z
Zn1	Zn	1.113296	-0.280271	0.404282
Zn2	Zn	1.108258	-0.397979	0.276266
Zn3	Zn	0.990227	-0.280288	0.281234
Zn4	Zn	0.985250	-0.397934	0.399298
O5	O	1.049258	-0.339118	0.340270
O6	O	1.215611	-0.295898	0.387307
O7	O	1.092576	-0.382393	0.173940
O8	O	1.010744	-0.181790	0.301721
O9	O	1.211910	-0.382377	0.293255
O10	O	1.101161	-0.181777	0.392124
O11	O	1.005859	-0.295926	0.177590
O12	O	0.886583	-0.295882	0.296889
O13	O	1.002261	-0.382300	0.502945
O14	O	0.882927	-0.382316	0.383630
O15	O	1.096335	-0.295854	0.506606
O16	O	1.087750	-0.496470	0.288422
O17	O	0.997376	-0.496436	0.378813
C18	C	0.858052	-0.339097	0.340258
C19	C	0.776253	-0.339104	0.340270
C20	C	0.589981	-0.294167	0.389314
C21	C	0.513122	-0.294173	0.389316
C22	C	0.509285	-0.384089	0.291239
C23	C	0.586143	-0.384079	0.291234
C24	C	0.626489	-0.339119	0.340275
C25	C	0.472772	-0.339135	0.340283
C26	C	0.389438	-0.339142	0.340285
C27	C	0.709828	-0.339111	0.340272
C28	C	1.041496	-0.521992	0.332554
C29	C	1.038243	-0.600226	0.329277
C30	C	1.083755	-0.636914	0.374844
C31	C	1.080695	-0.710423	0.371767
C32	C	1.032127	-0.747243	0.323118
C33	C	0.986610	-0.710551	0.277550
C34	C	0.989666	-0.637043	0.280631
C35	C	1.017938	-0.967096	0.308854
C36	C	1.014887	-1.040609	0.305774
C37	C	1.108972	-1.040476	0.399992
C38	C	1.112027	-0.966967	0.403067
C39	C	1.066507	-0.930280	0.357501
N40	N	1.029000	-0.822382	0.319970
N41	N	1.069631	-0.855143	0.360653
C42	C	1.241210	-0.339141	0.340283
C43	C	1.323008	-0.339150	0.340288
C44	C	1.049305	-0.339070	0.532225
C45	C	1.049325	-0.339049	0.614025
C46	C	1.057070	-0.155531	0.348033
C47	C	1.060399	-0.077296	0.351341
C48	C	1.049256	-0.339116	0.149064
C49	C	1.049387	-0.338938	0.067273
C50	C	1.098328	-0.293994	0.804129
C51	C	1.098338	-0.293974	0.880988
C52	C	1.000378	-0.383995	0.877164
C53	C	1.000365	-0.384011	0.800306
C54	C	1.049344	-0.339012	0.763790
C55	C	1.049367	-0.338975	0.917508
C56	C	1.049377	-0.338953	1.000843
C57	C	1.049334	-0.339033	0.680450
H58	H	0.622829	-0.257556	0.429244
H59	H	1.117762	-0.740291	0.408866
H60	H	0.980876	-0.937231	0.271751
C61	C	0.473619	-0.245343	0.442642
C62	C	0.525406	-0.205982	0.485598
C63	C	0.489043	-0.160996	0.534738
H64	H	0.444926	-0.214580	0.415925
H65	H	0.442524	-0.272295	0.473566
H66	H	0.556488	-0.179032	0.454679
H67	H	0.554101	-0.236726	0.512331
H68	H	0.457948	-0.187948	0.565662
H69	H	0.460351	-0.130238	0.508015
H70	H	0.524174	-0.134289	0.563894
C71	C	1.151581	-0.245250	0.764437
C72	C	1.197065	-0.285112	0.718645
C73	C	1.246135	-0.240229	0.682080
H74	H	1.124810	-0.214574	0.735690
H75	H	1.180796	-0.218446	0.799447
H76	H	1.167853	-0.311904	0.683640
H77	H	1.223852	-0.315786	0.747374
H78	H	1.275350	-0.213426	0.717090
H79	H	1.219358	-0.209556	0.653337
H80	H	1.277006	-0.267269	0.651011
C81	C	1.164786	-0.927119	0.455957
C82	C	1.203979	-0.974983	0.495216
C83	C	1.252585	-0.938301	0.543948
H84	H	1.198122	-0.898436	0.429112
H85	H	1.137829	-0.898459	0.489241
H86	H	1.230935	-1.003632	0.461937
H87	H	1.170662	-1.003668	0.522077
H88	H	1.225628	-0.909641	0.577231
H89	H	1.285917	-0.909619	0.517096
H90	H	1.279179	-0.970771	0.570595
C91	C	0.933953	-0.750651	0.224752
C92	C	0.941032	-0.822880	0.231789
C93	C	0.892545	-0.859840	0.183154
H94	H	0.884965	-0.738724	0.235931
H95	H	0.945259	-0.738663	0.175802
H96	H	0.929721	-0.834863	0.280728
H97	H	0.990009	-0.834828	0.220604
H98	H	0.903851	-0.847852	0.134204
H99	H	0.843560	-0.847907	0.194337
H100	H	0.897346	-0.908851	0.187917
H101	H	0.476426	-0.420695	0.251312
H102	H	0.960472	-0.420670	0.767461
H103	H	1.123308	-0.606939	0.414455
H104	H	1.138224	-0.257315	0.913829
C105	C	0.625650	-0.432965	0.237958
C106	C	0.573867	-0.472359	0.195028
C107	C	0.610234	-0.517401	0.145950
H108	H	0.656759	-0.406074	0.207006
H109	H	0.654328	-0.463699	0.264744
H110	H	0.545202	-0.441628	0.168244
H111	H	0.542756	-0.499263	0.225960
H112	H	0.638912	-0.548136	0.172736
H113	H	0.641342	-0.490505	0.115003
H114	H	0.575105	-0.544140	0.116821
H115	H	0.975333	-1.070586	0.266158
C116	C	1.158299	-1.080435	0.449434
C117	C	1.145217	-1.152691	0.436340
C118	C	1.190637	-1.189522	0.481882
H119	H	1.208281	-1.068440	0.439259
H120	H	1.147990	-1.068406	0.499390
H121	H	1.155531	-1.164714	0.386394
H122	H	1.095244	-1.164706	0.446519
H123	H	1.180328	-1.177493	0.531839
H124	H	1.240616	-1.177522	0.471703
H125	H	1.181762	-1.238551	0.473009
C126	C	0.940218	-0.597334	0.231074
C127	C	0.897042	-0.645311	0.187797
C128	C	0.851483	-0.608759	0.142132
H129	H	0.909264	-0.568667	0.260322
H130	H	0.969560	-0.568669	0.200194
H131	H	0.867702	-0.673965	0.218673
H132	H	0.927976	-0.673980	0.158535
H133	H	0.880825	-0.580093	0.111253
H134	H	0.820534	-0.580093	0.171386
H135	H	0.822187	-0.641306	0.112759
H136	H	0.960503	-0.420633	0.906905
