data_functionalizedCrystal
_audit_creation_method	'MofGen! by Chris Wilmer'
_symmetry_space_group_name_H-M	'P1'
_symmetry_Int_Tables_number	1
_symmetry_cell_setting	triclinic
loop_
_symmetry_equiv_pos_as_xyz
  x,y,z
_cell_length_a	21.295418
_cell_length_b	21.295417
_cell_length_c	21.295412
_cell_angle_alpha	89.968813
_cell_angle_beta	89.964379
_cell_angle_gamma	90.046319
loop_
_atom_site_label
_atom_site_type_symbol
_atom_site_fract_x
_atom_site_fract_y
_atom_site_fract_z
Zn1	Zn	0.962305	-0.250356	-0.356234
Zn2	Zn	1.295639	0.082977	-0.022900
Zn3	Zn	1.628972	0.416311	0.310433
Zn4	Zn	0.962223	-0.355625	-0.250959
Zn5	Zn	1.295556	-0.022292	0.082374
Zn6	Zn	1.628889	0.311041	0.415708
Zn7	Zn	0.857043	-0.250403	-0.250943
Zn8	Zn	1.190377	0.082930	0.082390
Zn9	Zn	1.523710	0.416264	0.415723
Zn10	Zn	0.856998	-0.355620	-0.356155
Zn11	Zn	1.190331	-0.022287	-0.022822
Zn12	Zn	1.523665	0.311046	0.310511
O13	O	0.909642	-0.303001	-0.303573
O14	O	1.242976	0.030332	0.029760
O15	O	1.576309	0.363666	0.363094
O16	O	1.050384	-0.264303	-0.342308
O17	O	1.383717	0.069031	-0.008975
O18	O	1.717050	0.402364	0.324359
O19	O	0.948255	-0.341689	-0.162867
O20	O	1.281588	-0.008356	0.170466
O21	O	1.614922	0.324978	0.503799
O22	O	0.871060	-0.162307	-0.264937
O23	O	1.204394	0.171026	0.068397
O24	O	1.537727	0.504359	0.401730
O25	O	1.050323	-0.341644	-0.264963
O26	O	1.383656	-0.008310	0.068370
O27	O	1.716990	0.325023	0.401704
O28	O	0.948396	-0.162273	-0.342293
O29	O	1.281729	0.171061	-0.008959
O30	O	1.615062	0.504394	0.324374
O31	O	0.870980	-0.264383	-0.162856
O32	O	1.204313	0.068951	0.170477
O33	O	1.537647	0.402284	0.503811
O34	O	0.768948	-0.264378	-0.264861
O35	O	1.102281	0.068955	0.068473
O36	O	1.435615	0.402289	0.401806
O37	O	0.870983	-0.341635	-0.444255
O38	O	1.204316	-0.008302	-0.110922
O39	O	1.537649	0.325032	0.222411
O40	O	0.768915	-0.341681	-0.342160
O41	O	1.102248	-0.008347	-0.008826
O42	O	1.435581	0.324986	0.324507
O43	O	0.948352	-0.264298	-0.444313
O44	O	1.281685	0.069036	-0.110979
O45	O	1.615018	0.402369	0.222354
O46	O	0.948211	-0.443714	-0.264887
O47	O	1.281544	-0.110381	0.068446
O48	O	1.614877	0.222953	0.401779
O49	O	0.870903	-0.443710	-0.342175
O50	O	1.204236	-0.110377	-0.008841
O51	O	1.537569	0.222956	0.324492
C52	C	0.746091	-0.303034	-0.303500
C53	C	1.079424	0.030299	0.029833
C54	C	1.412757	0.363632	0.363166
C55	C	0.676123	-0.303064	-0.303484
C56	C	1.009456	0.030270	0.029849
C57	C	1.342789	0.363603	0.363182
C58	C	0.643255	-0.343368	-0.343674
C59	C	0.976588	-0.010035	-0.010340
C60	C	1.309922	0.323298	0.322993
C61	C	0.577512	-0.343353	-0.343702
C62	C	0.910846	-0.010020	-0.010369
C63	C	1.244179	0.323314	0.322965
C64	C	0.544640	-0.303039	-0.303530
C65	C	0.877973	0.030294	0.029804
C66	C	1.211307	0.363628	0.363137
C67	C	0.577516	-0.262727	-0.263337
C68	C	0.910849	0.070607	0.069996
C69	C	1.244182	0.403940	0.403329
C70	C	0.643257	-0.262739	-0.263315
C71	C	0.976590	0.070595	0.070019
C72	C	1.309924	0.403928	0.403352
N73	N	0.441372	-0.298121	-0.248472
N74	N	0.774705	0.035212	0.084861
N75	N	1.108039	0.368545	0.418195
N76	N	0.378920	-0.298113	-0.248495
N77	N	0.712254	0.035220	0.084838
N78	N	1.045587	0.368553	0.418171
C79	C	0.346565	-0.302999	-0.303596
C80	C	0.679899	0.030334	0.029737
C81	C	1.013232	0.363668	0.363070
N82	N	0.379021	-0.307905	-0.358674
N83	N	0.712354	0.025428	-0.025341
N84	N	1.045688	0.358761	0.307992
N85	N	0.441478	-0.307916	-0.358650
N86	N	0.774812	0.025417	-0.025317
N87	N	1.108145	0.358750	0.308016
C88	C	0.473355	-0.303021	-0.303550
C89	C	0.806688	0.030312	0.029783
C90	C	1.140021	0.363646	0.363117
C91	C	0.242412	-0.343289	-0.343820
C92	C	0.575746	-0.009956	-0.010486
C93	C	0.909079	0.323378	0.322847
C94	C	0.176669	-0.343269	-0.343849
C95	C	0.510002	-0.009936	-0.010516
C96	C	0.843335	0.323397	0.322818
C97	C	0.176673	-0.262646	-0.263479
C98	C	0.510006	0.070687	0.069854
C99	C	0.843340	0.404021	0.403188
C100	C	0.242415	-0.262663	-0.263455
C101	C	0.575749	0.070671	0.069878
C102	C	0.909082	0.404004	0.403211
C103	C	0.275281	-0.302988	-0.303625
C104	C	0.608615	0.030346	0.029709
C105	C	0.941948	0.363679	0.363042
C106	C	0.909560	-0.466553	-0.303538
C107	C	1.242893	-0.133219	0.029795
C108	C	1.576227	0.200114	0.363129
C109	C	0.909582	-0.536521	-0.303544
C110	C	1.242915	-0.203188	0.029789
C111	C	1.576249	0.130146	0.363123
C112	C	0.949872	-0.569369	-0.263342
C113	C	1.283206	-0.236035	0.069992
C114	C	1.616539	0.097298	0.403325
C115	C	0.949902	-0.635111	-0.263356
C116	C	1.283235	-0.301778	0.069977
C117	C	1.616568	0.031556	0.403311
C118	C	0.909630	-0.668003	-0.303566
C119	C	1.242963	-0.334670	0.029767
C120	C	1.576297	-0.001337	0.363101
C121	C	0.869337	-0.635148	-0.343776
C122	C	1.202670	-0.301814	-0.010443
C123	C	1.536004	0.031519	0.322891
C124	C	0.869313	-0.569407	-0.343765
C125	C	1.202646	-0.236073	-0.010432
C126	C	1.535980	0.097260	0.322902
N127	N	0.854562	-0.771284	-0.308340
N128	N	1.187895	-0.437951	0.024993
N129	N	1.521229	-0.104618	0.358326
N130	N	0.854587	-0.833736	-0.308347
N131	N	1.187920	-0.500402	0.024986
N132	N	1.521253	-0.167069	0.358320
C133	C	0.909700	-0.866078	-0.303602
C134	C	1.243034	-0.532745	0.029731
C135	C	1.576367	-0.199411	0.363065
N136	N	0.964790	-0.833610	-0.298838
N137	N	1.298123	-0.500276	0.034496
N138	N	1.631457	-0.166943	0.367829
N139	N	0.964765	-0.771152	-0.298828
N140	N	1.298098	-0.437819	0.034506
N141	N	1.631431	-0.104486	0.367839
C142	C	0.909652	-0.739289	-0.303582
C143	C	1.242985	-0.405955	0.029751
C144	C	1.576318	-0.072622	0.363084
C145	C	0.950026	-0.970211	-0.263413
C146	C	1.283359	-0.636878	0.069920
C147	C	1.616693	-0.303545	0.403254
C148	C	0.950056	-1.035955	-0.263431
C149	C	1.283390	-0.702622	0.069902
C150	C	1.616723	-0.369288	0.403235
C151	C	0.869486	-1.035990	-0.343848
C152	C	1.202819	-0.702657	-0.010515
C153	C	1.536153	-0.369324	0.322819
C154	C	0.869461	-0.970248	-0.343833
C155	C	1.202794	-0.636915	-0.010500
C156	C	1.536128	-0.303581	0.322834
C157	C	0.909730	-0.937362	-0.303612
C158	C	1.243064	-0.604029	0.029721
C159	C	1.576397	-0.270696	0.363055
C160	C	1.073833	-0.302968	-0.303646
C161	C	1.407166	0.030365	0.029687
C162	C	1.740499	0.363698	0.363021
C163	C	1.143801	-0.302954	-0.303677
C164	C	1.477134	0.030379	0.029656
C165	C	1.810467	0.363712	0.362990
C166	C	0.909671	-0.302960	-0.467763
C167	C	1.243005	0.030373	-0.134430
C168	C	1.576338	0.363706	0.198903
C169	C	0.909684	-0.302943	-0.537731
C170	C	1.243017	0.030390	-0.204398
C171	C	1.576350	0.363723	0.128935
C172	C	0.909742	-0.138811	-0.303622
C173	C	1.243076	0.194523	0.029712
C174	C	1.576409	0.527856	0.363045
C175	C	0.909785	-0.068843	-0.303642
C176	C	1.243118	0.264491	0.029691
C177	C	1.576452	0.597824	0.363024
C178	C	0.950029	-0.262574	-1.037220
C179	C	1.283363	0.070759	-0.703887
C180	C	1.616696	0.404093	-0.370554
C181	C	0.950025	-0.262589	-0.971478
C182	C	1.283358	0.070744	-0.638145
C183	C	1.616691	0.404077	-0.304811
C184	C	0.909738	-0.302860	-0.938571
C185	C	1.243072	0.030473	-0.605238
C186	C	1.576405	0.363807	-0.271904
C187	C	0.869465	-0.343130	-0.971412
C188	C	1.202799	-0.009797	-0.638079
C189	C	1.536132	0.323537	-0.304745
C190	C	0.869476	-0.343118	-1.037153
C191	C	1.202809	-0.009785	-0.703820
C192	C	1.536143	0.323549	-0.370487
N193	N	0.854617	-0.307719	-0.835324
N194	N	1.187950	0.025614	-0.501991
N195	N	1.521284	0.358948	-0.168657
N196	N	0.854609	-0.307727	-0.772872
N197	N	1.187942	0.025607	-0.439539
N198	N	1.521275	0.358940	-0.106206
C199	C	0.909705	-0.302899	-0.740496
C200	C	1.243039	0.030434	-0.407163
C201	C	1.576372	0.363767	-0.073830
N202	N	0.964811	-0.298052	-0.772931
N203	N	1.298145	0.035281	-0.439597
N204	N	1.631478	0.368615	-0.106264
N205	N	0.964819	-0.298041	-0.835388
N206	N	1.298152	0.035292	-0.502055
N207	N	1.631486	0.368626	-0.168721
C208	C	0.909723	-0.302878	-0.867286
C209	C	1.243056	0.030456	-0.533952
C210	C	1.576389	0.363789	-0.200619
C211	C	0.949973	-0.262652	-0.636377
C212	C	1.283307	0.070682	-0.303044
C213	C	1.616640	0.404015	0.030289
C214	C	0.949970	-0.262671	-0.570634
C215	C	1.283303	0.070662	-0.237300
C216	C	1.616636	0.403995	0.096033
C217	C	0.869405	-0.343209	-0.570569
C218	C	1.202738	-0.009875	-0.237236
C219	C	1.536071	0.323458	0.096098
C220	C	0.869414	-0.343192	-0.636312
C221	C	1.202748	-0.009859	-0.302978
C222	C	1.536081	0.323474	0.030355
C223	C	0.909698	-0.302910	-0.669212
C224	C	1.243031	0.030423	-0.335879
C225	C	1.576364	0.363756	-0.002545
C226	C	0.909650	-0.302996	-0.140021
C227	C	1.242983	0.030337	0.193312
C228	C	1.576316	0.363670	0.526645
C229	C	0.909759	-0.302836	-0.070054
C230	C	1.243093	0.030497	0.263280
C231	C	1.576426	0.363831	0.596613
H232	H	0.269177	-0.229845	-0.230726
H233	H	0.602510	0.103488	0.102608
H234	H	0.935843	0.436821	0.435941
H235	H	0.982713	-0.661861	-0.230619
H236	H	1.316046	-0.328527	0.102715
H237	H	1.649380	0.004806	0.436048
H238	H	0.836605	-0.376000	-0.543777
H239	H	1.169939	-0.042667	-0.210444
H240	H	1.503272	0.290666	0.122890
H241	H	0.836548	-0.661933	-0.376516
H242	H	1.169882	-0.328600	-0.043183
H243	H	1.503215	0.004734	0.290150
H244	H	0.836503	-0.542661	-0.376503
H245	H	1.169837	-0.209328	-0.043170
H246	H	1.503170	0.124005	0.290163
H247	H	0.149909	-0.376089	-0.376580
H248	H	0.483242	-0.042756	-0.043247
H249	H	0.816576	0.290578	0.290087
H250	H	0.836699	-1.062771	-0.376591
H251	H	1.170032	-0.729437	-0.043257
H252	H	1.503365	-0.396104	0.290076
H253	H	0.982834	-0.229776	-1.064004
H254	H	1.316168	0.103557	-0.730670
H255	H	1.649501	0.436891	-0.397337
H256	H	0.982818	-0.943435	-0.230664
H257	H	1.316151	-0.610101	0.102669
H258	H	1.649484	-0.276768	0.436002
H259	H	0.982817	-0.229801	-0.944740
H260	H	1.316150	0.103533	-0.611407
H261	H	1.649484	0.436866	-0.278073
H262	H	0.836650	-0.943502	-0.376567
H263	H	1.169984	-0.610168	-0.043233
H264	H	1.503317	-0.276835	0.290100
H265	H	0.269173	-0.376121	-0.376531
H266	H	0.602506	-0.042787	-0.043198
H267	H	0.935840	0.290546	0.290135
H268	H	0.982869	-1.062698	-0.230695
H269	H	1.316203	-0.729365	0.102638
H270	H	1.649536	-0.396032	0.435972
H271	H	0.149909	-0.229819	-0.230773
H272	H	0.483242	0.103514	0.102560
H273	H	0.816576	0.436848	0.435894
H274	H	0.836665	-0.375920	-0.944615
H275	H	1.169998	-0.042586	-0.611282
H276	H	1.503332	0.290747	-0.277948
H277	H	0.982774	-0.229851	-0.663166
H278	H	1.316108	0.103482	-0.329833
H279	H	1.649441	0.436815	0.003500
H280	H	0.982767	-0.229887	-0.543902
H281	H	1.316100	0.103447	-0.210569
H282	H	1.649433	0.436780	0.122765
H283	H	0.836682	-0.375905	-1.063886
H284	H	1.170015	-0.042572	-0.730552
H285	H	1.503349	0.290761	-0.397219
H286	H	0.670010	-0.376203	-0.376384
H287	H	1.003344	-0.042870	-0.043050
H288	H	1.336677	0.290463	0.290283
H289	H	0.550746	-0.376174	-0.376431
H290	H	0.884080	-0.042840	-0.043098
H291	H	1.217413	0.290493	0.290235
H292	H	0.550747	-0.229902	-0.230630
H293	H	0.884080	0.103432	0.102703
H294	H	1.217413	0.436765	0.436037
H295	H	0.670017	-0.229916	-0.230588
H296	H	1.003351	0.103418	0.102746
H297	H	1.336684	0.436751	0.436079
H298	H	0.836619	-0.375976	-0.663045
H299	H	1.169953	-0.042642	-0.329711
H300	H	1.503286	0.290691	0.003622
H301	H	0.982663	-0.542595	-0.230593
H302	H	1.315997	-0.209262	0.102740
H303	H	1.649330	0.124072	0.436074
