data_functionalizedCrystal
_audit_creation_method	'MofGen! by Chris Wilmer'
_symmetry_space_group_name_H-M	'P1'
_symmetry_Int_Tables_number	1
_symmetry_cell_setting	triclinic
loop_
_symmetry_equiv_pos_as_xyz
  x,y,z
_cell_length_a	14.519731
_cell_length_b	14.044220
_cell_length_c	13.596369
_cell_angle_alpha	90.006843
_cell_angle_beta	90.005416
_cell_angle_gamma	88.438865
loop_
_atom_site_label
_atom_site_type_symbol
_atom_site_fract_x
_atom_site_fract_y
_atom_site_fract_z
O1	O	1.233888	0.124370	0.081796
O2	O	1.483888	0.374370	0.331796
O3	O	1.733888	0.624370	0.581796
O4	O	1.983888	0.874370	0.831796
O5	O	0.966592	0.138983	0.081798
O6	O	1.216592	0.388983	0.331798
O7	O	1.466592	0.638983	0.581798
O8	O	1.716592	0.888983	0.831798
O9	O	1.096228	-0.006315	0.081788
O10	O	1.346228	0.243685	0.331788
O11	O	1.596228	0.493685	0.581788
O12	O	1.846228	0.743685	0.831788
O13	O	1.104252	0.269668	0.081807
O14	O	1.354252	0.519668	0.331807
O15	O	1.604252	0.769668	0.581807
O16	O	1.854252	1.019668	0.831807
O17	O	1.096213	-0.006323	-0.081795
O18	O	1.346213	0.243677	0.168205
O19	O	1.596213	0.493677	0.418205
O20	O	1.846213	0.743677	0.668205
O21	O	0.966578	0.138975	-0.081785
O22	O	1.216578	0.388975	0.168215
O23	O	1.466578	0.638975	0.418215
O24	O	1.716578	0.888975	0.668215
O25	O	1.233873	0.124362	-0.081787
O26	O	1.483873	0.374362	0.168213
O27	O	1.733873	0.624362	0.418213
O28	O	1.983873	0.874362	0.668213
Zn29	Zn	1.100223	0.131667	-0.107758
Zn30	Zn	1.350223	0.381667	0.142242
Zn31	Zn	1.600223	0.631667	0.392242
Zn32	Zn	1.850223	0.881667	0.642242
Zn33	Zn	1.100242	0.131678	0.107770
Zn34	Zn	1.350242	0.381678	0.357770
Zn35	Zn	1.600242	0.631678	0.607770
Zn36	Zn	1.850242	0.881678	0.857770
O37	O	1.104238	0.269660	-0.081776
O38	O	1.354238	0.519660	0.168224
O39	O	1.604238	0.769660	0.418224
O40	O	1.854238	1.019660	0.668224
C41	C	0.932170	0.138295	0.000007
C42	C	1.182170	0.388295	0.250007
C43	C	1.432170	0.638295	0.500007
C44	C	1.682170	0.888295	0.750007
C45	C	0.829625	0.136243	0.000007
C46	C	1.079625	0.386243	0.250007
C47	C	1.329625	0.636243	0.500007
C48	C	1.579625	0.886243	0.750007
C49	C	0.746346	0.134575	0.000011
C50	C	0.996346	0.384575	0.250011
C51	C	1.246346	0.634575	0.500011
C52	C	1.496346	0.884575	0.750011
C53	C	0.641869	0.132492	0.000011
C54	C	0.891869	0.382492	0.250011
C55	C	1.141869	0.632492	0.500011
C56	C	1.391869	0.882492	0.750011
C57	C	0.558597	0.130839	0.000011
C58	C	0.808597	0.380839	0.250011
C59	C	1.058597	0.630839	0.500011
C60	C	1.308597	0.880839	0.750011
C61	C	0.454113	0.128756	0.000013
C62	C	0.704113	0.378756	0.250013
C63	C	0.954113	0.628756	0.500013
C64	C	1.204113	0.878756	0.750013
C65	C	1.092708	-0.041640	-0.000004
C66	C	1.342708	0.208360	0.249996
C67	C	1.592708	0.458360	0.499996
C68	C	1.842708	0.708360	0.749996
C69	C	1.082231	-0.146884	-0.000005
C70	C	1.332231	0.103116	0.249995
C71	C	1.582231	0.353116	0.499995
C72	C	1.832231	0.603116	0.749995
C73	C	1.063077	-0.339580	0.000009
C74	C	1.313077	-0.089580	0.250009
C75	C	1.563077	0.160420	0.500009
C76	C	1.813077	0.410420	0.750009
C77	C	1.137385	-0.397081	0.000011
C78	C	1.387385	-0.147081	0.250011
C79	C	1.637385	0.102919	0.500011
C80	C	1.887385	0.352919	0.750011
C81	C	1.126727	-0.504303	0.000019
C82	C	1.376727	-0.254303	0.250019
C83	C	1.626727	-0.004303	0.500019
C84	C	1.876727	0.245697	0.750019
C85	C	1.073733	-0.232347	0.000001
C86	C	1.323733	0.017653	0.250001
C87	C	1.573733	0.267653	0.500001
C88	C	1.823733	0.517653	0.750001
C89	C	1.268295	0.125050	0.000007
C90	C	1.518295	0.375050	0.250007
C91	C	1.768295	0.625050	0.500007
C92	C	2.018295	0.875050	0.750007
C93	C	1.370841	0.127102	0.000013
C94	C	1.620841	0.377102	0.250013
C95	C	1.870841	0.627102	0.500013
C96	C	2.120841	0.877102	0.750013
C97	C	1.107757	0.304985	0.000018
C98	C	1.357757	0.554985	0.250018
C99	C	1.607757	0.804985	0.500018
C100	C	1.857757	1.054985	0.750018
C101	C	1.118234	0.410229	0.000026
C102	C	1.368234	0.660229	0.250026
C103	C	1.618234	0.910229	0.500026
C104	C	1.868234	1.160229	0.750026
N105	N	1.100217	0.131660	-0.254850
N106	N	1.350217	0.381660	-0.004850
N107	N	1.600217	0.631660	0.245150
N108	N	1.850217	0.881660	0.495150
C109	C	1.100241	0.131679	-0.656141
C110	C	1.350241	0.381679	-0.406141
C111	C	1.600241	0.631679	-0.156141
C112	C	1.850241	0.881679	0.093859
C113	C	1.100232	0.131677	-0.544489
C114	C	1.350232	0.381677	-0.294489
C115	C	1.600232	0.631677	-0.044489
C116	C	1.850232	0.881677	0.205511
C117	C	1.100229	0.131670	-0.455499
C118	C	1.350229	0.381670	-0.205499
C119	C	1.600229	0.631670	0.044501
C120	C	1.850229	0.881670	0.294501
C121	C	1.100219	0.131667	-0.343840
C122	C	1.350219	0.381667	-0.093840
C123	C	1.600219	0.631667	0.156160
C124	C	1.850219	0.881667	0.406160
N125	N	1.100256	0.131678	0.254861
N126	N	1.350256	0.381678	0.504861
N127	N	1.600256	0.631678	0.754861
N128	N	1.850256	0.881678	1.004861
H129	H	1.209006	-0.365783	0.000077
H130	H	1.459006	-0.115783	0.250077
H131	H	1.709006	0.134217	0.500077
H132	H	1.959006	0.384217	0.750077
H133	H	0.991461	-0.370876	0.000012
H134	H	1.241461	-0.120876	0.250012
H135	H	1.491461	0.129124	0.500012
H136	H	1.741461	0.379124	0.750012
