data_functionalizedCrystal
_audit_creation_method	'MofGen! by Chris Wilmer'
_symmetry_space_group_name_H-M	'P1'
_symmetry_Int_Tables_number	1
_symmetry_cell_setting	triclinic
loop_
_symmetry_equiv_pos_as_xyz
  x,y,z
_cell_length_a	10.654545
_cell_length_b	19.188930
_cell_length_c	17.666332
_cell_angle_alpha	90.009680
_cell_angle_beta	90.005370
_cell_angle_gamma	83.813930
loop_
_atom_site_label
_atom_site_type_symbol
_atom_site_fract_x
_atom_site_fract_y
_atom_site_fract_z
O1	O	1.665772	0.098047	0.062950
O2	O	1.300095	0.107393	0.062954
O3	O	1.493486	0.001133	0.062937
O4	O	1.472381	0.204306	0.062967
O5	O	1.493465	0.001130	-0.062959
O6	O	1.300074	0.107390	-0.062942
O7	O	1.665751	0.098044	-0.062946
Cu8	Cu	1.482910	0.102717	-0.074440
Cu9	Cu	1.482936	0.102720	0.074448
O10	O	1.472360	0.204304	-0.062929
C11	C	1.253301	0.106706	0.000006
C12	C	1.113901	0.104655	0.000007
C13	C	1.048405	0.103688	-0.068620
C14	C	0.917427	0.101749	-0.068620
C15	C	0.917451	0.101747	0.068640
C16	C	1.048428	0.103681	0.068639
C17	C	0.748266	0.058274	-0.151076
C18	C	0.682762	0.057319	-0.219707
C19	C	0.715408	0.098786	-0.280292
C20	C	0.813550	0.141225	-0.272250
C21	C	0.879045	0.142186	-0.203618
C22	C	0.846406	0.100703	-0.143035
C23	C	1.217590	0.147162	0.151090
C24	C	1.283086	0.148128	0.219723
C25	C	1.250442	0.106665	0.280315
C26	C	1.152293	0.064236	0.272280
C27	C	1.086797	0.063270	0.203648
C28	C	1.119450	0.104732	0.143055
C29	C	1.492792	-0.024884	-0.000013
C30	C	1.490741	-0.102402	-0.000020
C31	C	1.604216	-0.146585	-0.000024
C32	C	1.602289	-0.219421	-0.000012
C33	C	1.486879	-0.248071	-0.000010
C34	C	1.373389	-0.203879	-0.000001
C35	C	1.375319	-0.131044	-0.000006
N36	N	1.398655	-0.356653	-0.042855
N37	N	1.396829	-0.425844	-0.042852
C38	C	1.481055	-0.467518	0.000005
N39	N	1.567196	-0.437389	0.042849
N40	N	1.569026	-0.368192	0.042843
C41	C	1.484773	-0.327048	-0.000005
C42	C	1.592448	-0.590679	0.000014
C43	C	1.590516	-0.663516	0.000031
C44	C	1.361613	-0.647972	0.000034
C45	C	1.363548	-0.575137	0.000025
C46	C	1.478970	-0.546494	0.000012
C47	C	1.712545	0.098731	0.000003
C48	C	1.851945	0.100782	0.000007
C49	C	1.473054	0.230320	0.000023
C50	C	1.475105	0.307838	0.000034
N51	N	1.482901	0.102714	-0.179159
C52	C	1.568590	0.055678	-0.781217
C53	C	1.568592	0.055680	-0.701969
C54	C	1.482937	0.102714	-0.662341
C55	C	1.397295	0.149761	-0.701966
C56	C	1.397304	0.149763	-0.781212
N57	N	1.371762	0.111036	-0.537926
N58	N	1.371758	0.111030	-0.462646
C59	C	1.482907	0.102712	-0.423577
N60	N	1.594066	0.094387	-0.462632
N61	N	1.594069	0.094389	-0.537919
C62	C	1.482919	0.102717	-0.576412
C63	C	1.568552	0.055673	-0.298031
C64	C	1.568556	0.055679	-0.218782
C65	C	1.397248	0.149757	-0.218781
C66	C	1.397255	0.149754	-0.298028
C67	C	1.482906	0.102708	-0.337649
N68	N	1.482955	0.102717	0.179167
H69	H	0.958946	0.176742	-0.197069
Br70	Br	0.953591	0.005688	0.192742
Br71	Br	1.749087	-0.551803	-0.000012
H72	H	0.721688	0.024497	-0.101750
Br73	Br	1.756302	-0.279395	-0.000016
Br74	Br	1.281013	0.213597	-0.165006
H75	H	1.271144	-0.539162	0.000025
Br76	Br	1.216760	-0.242759	0.000011
H77	H	1.327517	0.188055	-0.330286
H78	H	1.682926	-0.699490	0.000031
Br79	Br	0.626503	0.097492	-0.373431
Br80	Br	1.107974	0.007968	0.354515
H81	H	1.282911	-0.095070	-0.000002
Br82	Br	1.684796	-0.008172	-0.351804
H83	H	1.303771	0.107462	0.336201
Br84	Br	0.549571	-0.000273	-0.230620
H85	H	1.244185	0.180923	0.101752
H86	H	1.698201	-0.123269	-0.000033
Br87	Br	1.416290	0.205712	0.230628
Br88	Br	0.828592	0.100404	0.161778
Br89	Br	1.204982	-0.686847	0.000045
H90	H	1.638298	0.017377	-0.186526
H91	H	1.638335	0.017372	-0.813473
Br92	Br	1.137258	0.105007	-0.161762
Br93	Br	1.684824	-0.008163	-0.648195
H94	H	1.327555	0.188058	-0.669697
Br95	Br	1.281076	0.213607	-0.834982
H96	H	0.840105	0.175000	-0.321583
