data_functionalizedCrystal
_audit_creation_method	'MofGen! by Chris Wilmer'
_symmetry_space_group_name_H-M	'P1'
_symmetry_Int_Tables_number	1
_symmetry_cell_setting	triclinic
loop_
_symmetry_equiv_pos_as_xyz
  x,y,z
_cell_length_a	6.817900
_cell_length_b	17.982783
_cell_length_c	11.102228
_cell_angle_alpha	94.234556
_cell_angle_beta	108.604565
_cell_angle_gamma	102.448572
loop_
_atom_site_label
_atom_site_type_symbol
_atom_site_fract_x
_atom_site_fract_y
_atom_site_fract_z
V1	V	-4.080367	-0.105414	-0.396784
O2	O	-4.072046	0.005064	-0.388688
O3	O	-4.026530	-0.209016	-0.394592
O4	O	-4.057621	-0.103793	-0.569597
O5	O	-4.040739	-0.100887	-0.212472
V6	V	-4.561375	-0.092199	-0.374675
O7	O	-4.347142	-0.134401	-0.445281
O8	O	-4.744798	-0.063212	-0.326178
O9	O	-4.392006	0.011403	-0.376867
O10	O	-4.687094	-0.202677	-0.382771
O11	O	-4.718400	-0.096725	-0.558987
O12	O	-4.360915	-0.093820	-0.201862
C13	C	-3.869378	-0.234272	-0.388468
C14	C	-3.906818	-0.318968	-0.387828
C15	C	-3.867455	-0.347877	-0.271088
C16	C	-3.902654	-0.427459	-0.270491
C17	C	-3.977201	-0.478130	-0.386635
C18	C	-4.016572	-0.449216	-0.503384
C19	C	-3.981388	-0.369636	-0.503980
C20	C	-4.158471	-0.770154	-0.500982
C21	C	-4.193648	-0.849738	-0.500377
C22	C	-4.079737	-0.827977	-0.267494
C23	C	-4.044553	-0.748397	-0.268090
C24	C	-4.083937	-0.719490	-0.384838
C25	C	-4.045773	-0.633198	-0.385484
C26	C	-4.015350	-0.564420	-0.385990
C27	C	-3.909037	-0.100048	-0.611702
C28	C	-3.971687	-0.099409	-0.752981
C29	C	-4.040668	-0.168879	-0.837853
C30	C	-4.099546	-0.168276	-0.970599
C31	C	-4.020447	-0.028727	-0.933588
C32	C	-3.961584	-0.029331	-0.800845
C33	C	-4.345057	-0.253721	-1.178416
C34	C	-4.414007	-0.323194	-1.263292
C35	C	-4.312252	-0.382547	-1.232375
C36	C	-4.141501	-0.372430	-1.116583
C37	C	-4.072536	-0.302955	-1.031712
C38	C	-4.174338	-0.243605	-1.062630
C39	C	-3.716058	0.056109	-0.593026
C40	C	-3.647077	0.125585	-0.508153
C41	C	-3.748814	0.184945	-0.539065
C42	C	-3.919533	0.174836	-0.654859
C43	C	-3.988514	0.105360	-0.739732
C44	C	-3.886777	0.045999	-0.708811
C45	C	-4.212499	0.036655	-0.382988
C46	C	-4.154299	0.121350	-0.383636
C47	C	-4.172840	-0.097567	-0.159751
C48	C	-4.089429	-0.098202	-0.018471
H49	H	-4.190516	-0.746627	-0.596045
C50	C	-4.388110	-0.458968	-1.325743
N51	N	-4.445261	-0.516528	-1.396070
C52	C	-4.029557	-0.437723	-1.082590
N53	N	-3.945243	-0.486905	-1.056983
C54	C	-4.601841	-0.334321	-1.390657
N55	N	-4.743311	-0.342704	-1.486589
C56	C	-3.672917	0.261371	-0.445698
N57	N	-3.615762	0.318933	-0.375376
C58	C	-4.036469	-0.859783	-0.139068
N59	N	-4.003888	-0.883738	-0.042341
C60	C	-4.275674	-0.905476	-0.628151
N61	N	-4.337455	-0.947458	-0.724386
H62	H	-3.633205	0.007775	-0.567845
H63	H	-3.508042	0.133816	-0.413876
C64	C	-4.024684	-0.337836	-0.632403
N65	N	-4.057301	-0.313886	-0.729135
C66	C	-3.785449	-0.292146	-0.143318
N67	N	-3.723689	-0.250171	-0.047078
H68	H	-4.012225	0.028328	-0.972575
C69	C	-4.098556	-0.504956	-0.631143
N70	N	-4.160291	-0.546939	-0.727373
C71	C	-3.884731	-0.291826	-0.904343
N72	N	-3.743282	-0.283448	-0.808403
H73	H	-4.048899	-0.225940	-0.798887
H74	H	-4.427946	-0.205398	-1.203593
H75	H	-3.870603	-0.450993	-0.175430
C76	C	-4.176325	0.094239	-0.867105
N77	N	-4.317785	0.085863	-0.963039
C78	C	-4.031455	0.240135	-0.688865
N79	N	-4.115749	0.289321	-0.714476
H80	H	-3.983842	-0.707144	-0.173513
