data_functionalizedCrystal
_audit_creation_method	'MofGen! by Chris Wilmer'
_symmetry_space_group_name_H-M	'P1'
_symmetry_Int_Tables_number	1
_symmetry_cell_setting	triclinic
loop_
_symmetry_equiv_pos_as_xyz
  x,y,z
_cell_length_a	15.944551
_cell_length_b	15.944499
_cell_length_c	9.798715
_cell_angle_alpha	89.993724
_cell_angle_beta	89.995900
_cell_angle_gamma	83.488174
loop_
_atom_site_label
_atom_site_type_symbol
_atom_site_fract_x
_atom_site_fract_y
_atom_site_fract_z
O1	O	0.108123	1.114550	-0.113576
O2	O	0.121525	0.869995	-0.113561
O3	O	-0.007452	0.998951	-0.113556
O4	O	0.237100	0.985594	-0.113580
O5	O	-0.007452	0.998941	0.113426
O6	O	0.121525	0.869985	0.113421
O7	O	0.108123	1.114541	0.113406
Zn8	Zn	0.114824	0.992262	0.149452
Zn9	Zn	0.114824	0.992274	-0.149607
O10	O	0.237100	0.985585	0.113402
C11	C	0.120976	0.838695	-0.000068
C12	C	0.119331	0.745447	-0.000062
C13	C	0.194263	0.453911	-0.000089
C14	C	0.155312	0.514945	-0.112002
C15	C	0.113355	0.409810	-0.000093
C16	C	0.155290	0.514921	0.111785
C17	C	0.116296	0.574719	-0.000075
C18	C	0.074381	0.469616	-0.112098
C19	C	0.074370	0.469586	0.111789
C20	C	0.035360	0.530603	-0.000151
C21	C	0.111663	0.314810	-0.000104
C22	C	0.117981	0.669718	-0.000074
C23	C	-0.038746	0.998392	-0.000065
C24	C	-0.131992	0.996729	-0.000064
C25	C	-0.346833	0.912823	-0.000078
C26	C	-0.407857	0.951782	0.111836
C27	C	-0.302717	0.993722	-0.000075
C28	C	-0.407841	0.951810	-0.111951
C29	C	-0.467629	0.990811	-0.000090
C30	C	-0.362513	1.032703	0.111931
C31	C	-0.362490	1.032720	-0.111956
C32	C	-0.423497	1.071737	-0.000015
C33	C	-0.207715	0.995397	-0.000064
C34	C	-0.562630	0.989143	-0.000091
C35	C	0.268394	0.986144	-0.000092
C36	C	0.361640	0.987806	-0.000102
C37	C	0.108672	1.145840	-0.000090
C38	C	0.110317	1.239089	-0.000105
N39	N	0.114823	0.992259	0.353552
N40	N	0.114818	0.992283	-0.353706
C41	C	0.060433	1.046406	0.421331
C42	C	0.060430	1.046420	0.578493
H43	H	0.040192	0.449641	-0.206818
H44	H	0.013867	1.092780	0.636780
H45	H	-0.427959	0.917560	0.206454
H46	H	0.161390	0.945926	0.588016
H47	H	0.189536	0.535047	-0.206616
O48	O	0.274378	0.414176	-0.000464
C49	C	0.407524	0.392117	-0.118843
C50	C	0.316815	0.437156	-0.118597
H51	H	0.441866	0.410693	-0.214330
H52	H	0.405547	0.320870	-0.117957
H53	H	0.442331	0.411492	-0.024357
H54	H	0.281955	0.417851	-0.213067
H55	H	0.318852	0.508394	-0.119413
O56	O	-0.044826	0.570157	-0.000453
C57	C	-0.178037	0.591883	-0.118669
C58	C	-0.087245	0.547050	-0.118507
H59	H	-0.212365	0.573203	-0.214091
H60	H	-0.176232	0.663154	-0.117851
H61	H	-0.212749	0.572436	-0.024117
H62	H	-0.052480	0.566428	-0.213043
H63	H	-0.089111	0.475787	-0.119254
O64	O	0.170292	0.936847	0.423059
C65	C	0.219844	0.790919	0.467036
C66	C	0.156965	0.853582	0.388264
H67	H	0.209103	0.723587	0.438911
H68	H	0.209943	0.800708	0.581409
H69	H	0.287085	0.802081	0.439031
H70	H	0.089699	0.842459	0.416153
H71	H	0.166939	0.843778	0.273910
O72	O	0.033700	0.445598	0.224809
C73	C	0.030338	0.441252	0.470547
C74	C	0.076482	0.468450	0.342654
H75	H	0.064898	0.459733	0.565857
H76	H	0.028945	0.369930	0.469008
H77	H	-0.037034	0.474015	0.471448
H78	H	0.143874	0.435747	0.341669
H79	H	0.077807	0.539780	0.344242
H80	H	-0.313513	0.845673	0.000038
O81	O	0.196239	0.538753	0.224618
C82	C	0.326306	0.526473	0.352045
C83	C	0.280020	0.499404	0.224232
H84	H	0.394056	0.494686	0.351761
H85	H	0.292535	0.506893	0.447469
H86	H	0.326604	0.597937	0.351479
H87	H	0.279709	0.427945	0.224665
H88	H	0.313807	0.519046	0.128865
O89	O	-0.338532	1.073428	0.224891
C90	C	-0.223200	1.120724	0.351583
C91	C	-0.250242	1.074573	0.223616
H92	H	-0.151818	1.121681	0.350580
H93	H	-0.242204	1.086468	0.446890
H94	H	-0.255574	1.188251	0.351967
H95	H	-0.217881	1.007045	0.223100
H96	H	-0.231253	1.108895	0.128367
H97	H	-0.456668	1.138946	0.000044
H98	H	-0.342366	1.066912	-0.206579
O99	O	-0.431682	0.910870	-0.224785
C100	C	-0.419426	0.780807	-0.352217
C101	C	-0.392347	0.827083	-0.224401
H102	H	-0.387650	0.713053	-0.351934
H103	H	-0.399842	0.814579	-0.447639
H104	H	-0.490891	0.780522	-0.351653
H105	H	-0.320886	0.827382	-0.224832
H106	H	-0.411994	0.793297	-0.129036
H107	H	0.013866	1.092751	0.363010
