data_functionalizedCrystal
_audit_creation_method	'MofGen! by Chris Wilmer'
_symmetry_space_group_name_H-M	'P1'
_symmetry_Int_Tables_number	1
_symmetry_cell_setting	triclinic
loop_
_symmetry_equiv_pos_as_xyz
  x,y,z
_cell_length_a	6.817900
_cell_length_b	10.943574
_cell_length_c	10.943881
_cell_angle_alpha	91.770401
_cell_angle_beta	108.843448
_cell_angle_gamma	108.837846
loop_
_atom_site_label
_atom_site_type_symbol
_atom_site_fract_x
_atom_site_fract_y
_atom_site_fract_z
V1	V	-4.115545	-0.178594	-0.402525
O2	O	-4.073257	0.008620	-0.394891
O3	O	-4.093492	-0.354157	-0.399745
O4	O	-4.093531	-0.175830	-0.578092
O5	O	-4.073217	-0.170942	-0.215308
V6	V	-4.592340	-0.156203	-0.380136
O7	O	-4.391562	-0.227710	-0.451638
O8	O	-4.766521	-0.107086	-0.331023
O9	O	-4.391187	0.019361	-0.382916
O10	O	-4.752026	-0.343416	-0.387770
O11	O	-4.752065	-0.163854	-0.567352
O12	O	-4.391148	-0.158966	-0.204568
C13	C	-3.944048	-0.396957	-0.393388
C14	C	-4.007480	-0.540482	-0.392285
C15	C	-3.890309	-0.703486	-0.384277
C16	C	-4.003701	-0.637677	-0.495235
C17	C	-3.893221	-0.604391	-0.281390
C18	C	-4.234057	-0.730417	-0.501413
C19	C	-4.123503	-0.697122	-0.287470
C20	C	-4.237066	-0.631361	-0.398459
C21	C	-3.944097	-0.169480	-0.620886
C22	C	-4.007556	-0.168382	-0.764413
C23	C	-4.236999	-0.174463	-0.855295
C24	C	-4.123546	-0.063483	-0.921049
C25	C	-4.234020	-0.277327	-0.954386
C26	C	-3.893221	-0.057330	-0.828263
C27	C	-4.003769	-0.271270	-0.861608
C28	C	-3.890145	-0.160260	-0.927314
C29	C	-4.203973	0.062154	-0.389269
C30	C	-4.119782	0.205678	-0.390381
C31	C	-4.203924	-0.165320	-0.161768
C32	C	-4.119702	-0.166411	-0.018239
H33	H	-4.382908	-0.180342	-0.823426
N34	N	-3.707359	-0.743557	-0.376918
N35	N	-3.726658	-0.860857	-0.373962
H36	H	-3.597457	-0.889162	-0.368769
H37	H	-4.383257	-0.599715	-0.404498
N38	N	-4.187733	0.046769	-0.954330
N39	N	-4.083451	0.130644	-1.007338
H40	H	-4.128770	0.208518	-1.030823
H41	H	-4.174681	-0.723694	-0.199609
N42	N	-3.939597	-0.381512	-0.828288
N43	N	-4.074664	-0.494554	-0.875404
H44	H	-4.029362	-0.572424	-0.851874
H45	H	-4.378652	-0.784964	-0.594492
H46	H	-3.748477	-0.549680	-0.188433
H47	H	-3.748615	0.035727	-0.773676
N48	N	-3.706688	-0.152666	-0.966948
N49	N	-3.530157	-0.056894	-0.920645
H50	H	-3.400588	-0.051524	-0.948636
N51	N	-4.415518	-0.393959	-1.023047
N52	N	-4.394066	-0.470241	-1.101048
H53	H	-4.522255	-0.552610	-1.149536
N54	N	-3.939421	-0.604392	-0.605449
N55	N	-3.779056	-0.628379	-0.617918
H56	H	-3.733649	-0.604878	-0.695754
