data_functionalizedCrystal
_audit_creation_method	'MofGen! by Chris Wilmer'
_symmetry_space_group_name_H-M	'P1'
_symmetry_Int_Tables_number	1
_symmetry_cell_setting	triclinic
loop_
_symmetry_equiv_pos_as_xyz
  x,y,z
_cell_length_a	14.971475
_cell_length_b	23.532407
_cell_length_c	13.448316
_cell_angle_alpha	89.988737
_cell_angle_beta	90.005879
_cell_angle_gamma	96.770822
loop_
_atom_site_label
_atom_site_type_symbol
_atom_site_fract_x
_atom_site_fract_y
_atom_site_fract_z
O1	O	-1.186170	0.074187	-0.082682
O2	O	-0.686170	0.574187	0.417318
O3	O	-0.925674	0.083081	-0.082690
O4	O	-0.425674	0.583081	0.417310
O5	O	-1.063777	-0.004264	-0.082667
O6	O	-0.563777	0.495736	0.417333
O7	O	-1.048067	0.161532	-0.082704
O8	O	-0.548067	0.661532	0.417296
O9	O	-1.063760	-0.004270	0.082716
O10	O	-0.563760	0.495730	0.582716
O11	O	-0.925657	0.083076	0.082694
O12	O	-0.425657	0.583076	0.582694
O13	O	-1.186152	0.074182	0.082702
O14	O	-0.686152	0.574182	0.582702
Cu15	Cu	-1.055903	0.078628	0.097799
Cu16	Cu	-0.555903	0.578628	0.597799
Cu17	Cu	-1.055923	0.078634	-0.097787
Cu18	Cu	-0.555923	0.578634	0.402213
O19	O	-1.048049	0.161527	0.082679
O20	O	-0.548049	0.661527	0.582679
C21	C	-0.892345	0.082682	0.000001
C22	C	-0.392345	0.582682	0.500001
C23	C	-0.793060	0.081493	-0.000001
C24	C	-0.293060	0.581493	0.499999
C25	C	-0.746412	0.080930	0.090151
C26	C	-0.246412	0.580930	0.590151
C27	C	-0.653125	0.079804	0.090152
C28	C	-0.153125	0.579804	0.590152
C29	C	-0.606487	0.079245	-0.000000
C30	C	-0.106487	0.579245	0.500000
C31	C	-0.653142	0.079806	-0.090159
C32	C	-0.153142	0.579806	0.409841
C33	C	-0.746428	0.080928	-0.090159
C34	C	-0.246428	0.580928	0.409841
C35	C	-0.458704	0.077470	-0.090153
C36	C	0.041296	0.577470	0.409847
C37	C	-0.365411	0.076349	-0.090154
C38	C	0.134589	0.576349	0.409846
C39	C	-0.365401	0.076346	0.090157
C40	C	0.134599	0.576346	0.590157
C41	C	-0.458687	0.077467	0.090157
C42	C	0.041313	0.577467	0.590157
C43	C	-0.505335	0.078030	-0.000002
C44	C	-0.005335	0.578030	0.499998
C45	C	-1.063368	-0.025485	0.000027
C46	C	-0.563368	0.474515	0.500027
C47	C	-1.062166	-0.088707	0.000035
C48	C	-0.562166	0.411293	0.500035
C49	C	-1.136348	-0.487494	-0.000018
C50	C	-0.636348	0.012506	0.499982
C51	C	-1.135230	-0.546899	-0.000025
C52	C	-0.635230	-0.046899	0.499975
O53	O	-1.203998	-0.583351	-0.000060
O54	O	-0.703998	-0.083351	0.499940
N55	N	-1.053128	-0.569875	-0.000027
N56	N	-0.553128	-0.069875	0.499973
C57	C	-0.972138	-0.533442	-0.000031
C58	C	-0.472138	-0.033442	0.499969
O59	O	-0.902201	-0.558440	-0.000034
O60	O	-0.402201	-0.058440	0.499966
C61	C	-0.973257	-0.474038	-0.000031
C62	C	-0.473257	0.025962	0.499969
C63	C	-1.055364	-0.451066	-0.000019
C64	C	-0.555364	0.048934	0.499981
C65	C	-1.218449	-0.464521	-0.000007
C66	C	-0.718449	0.035479	0.499993
C67	C	-1.219566	-0.405120	0.000002
C68	C	-0.719566	0.094880	0.500002
C69	C	-1.138582	-0.368692	0.000001
C70	C	-0.638582	0.131308	0.500001
C71	C	-1.056481	-0.391665	-0.000010
C72	C	-0.556481	0.108335	0.499990
C73	C	-0.892267	-0.437607	-0.000042
C74	C	-0.392267	0.062393	0.499958
C75	C	-0.893393	-0.378199	-0.000042
C76	C	-0.393393	0.121801	0.499958
C77	C	-0.975500	-0.355227	-0.000031
C78	C	-0.475500	0.144773	0.499969
C79	C	-0.976614	-0.295836	-0.000001
C80	C	-0.476614	0.204164	0.499999
N81	N	-1.058716	-0.272860	0.000000
N82	N	-0.558716	0.227140	0.500000
C83	C	-1.139700	-0.309288	0.000002
C84	C	-0.639700	0.190712	0.500002
C85	C	-0.969796	-0.658195	-0.000034
C86	C	-0.469796	-0.158195	0.499966
C87	C	-0.968677	-0.717597	-0.000027
C88	C	-0.468677	-0.217597	0.499973
C89	C	-1.131769	-0.731050	-0.000023
C90	C	-0.631769	-0.231050	0.499977
C91	C	-1.132888	-0.671646	-0.000023
C92	C	-0.632888	-0.171646	0.499977
C93	C	-1.051898	-0.635219	-0.000032
C94	C	-0.551898	-0.135219	0.499968
C95	C	-1.142040	-0.184542	0.000022
C96	C	-0.642040	0.315458	0.500022
C97	C	-1.143150	-0.125135	0.000036
C98	C	-0.643150	0.374865	0.500036
C99	C	-0.980057	-0.111687	0.000027
C100	C	-0.480057	0.388313	0.500027
C101	C	-0.978947	-0.171089	0.000018
C102	C	-0.478947	0.328911	0.500018
C103	C	-1.059946	-0.207515	0.000013
C104	C	-0.559946	0.292485	0.500013
O105	O	-0.907883	-0.259350	0.000029
O106	O	-0.407883	0.240650	0.500029
O107	O	-1.209625	-0.284283	-0.000008
O108	O	-0.709625	0.215717	0.499992
C109	C	-0.219481	0.074585	0.000007
C110	C	0.280519	0.574585	0.500007
C111	C	-0.318763	0.075786	-0.000002
C112	C	0.181237	0.575786	0.499998
C113	C	-1.048458	0.182747	-0.000017
C114	C	-0.548458	0.682747	0.499983
C115	C	-1.049661	0.245969	-0.000031
C116	C	-0.549661	0.745969	0.499969
N117	N	-1.055895	0.078623	0.235363
N118	N	-0.555895	0.578623	0.735363
N119	N	-1.055938	0.078635	-0.235351
N120	N	-0.555938	0.578635	0.264649
C121	C	-1.117066	0.039963	0.287413
C122	C	-0.617066	0.539963	0.787413
C123	C	-1.117072	0.039962	0.391517
C124	C	-0.617072	0.539962	0.891517
C125	C	-1.055910	0.078626	0.443568
C126	C	-0.555910	0.578626	0.943568
C127	C	-0.994733	0.117288	0.391510
C128	C	-0.494733	0.617288	0.891510
C129	C	-0.994724	0.117285	0.287409
C130	C	-0.494724	0.617285	0.787409
C131	C	-0.994758	0.117292	0.608490
C132	C	-0.494758	0.617292	1.108490
C133	C	-0.994768	0.117295	0.712599
C134	C	-0.494768	0.617295	1.212599
C135	C	-1.117106	0.039969	0.712598
C136	C	-0.617106	0.539969	1.212598
C137	C	-1.117096	0.039966	0.608497
C138	C	-0.617096	0.539966	1.108497
C139	C	-1.055920	0.078629	0.556446
C140	C	-0.555920	0.578629	1.056446
H141	H	-0.784408	0.081388	-0.163569
H142	H	-0.284408	0.581388	0.336431
Br143	Br	-1.241677	-0.780500	-0.000026
Br144	Br	-0.741677	-0.280500	0.499974
Br145	Br	-0.870156	-0.062238	0.000025
Br146	Br	-0.370156	0.437762	0.500025
Br147	Br	-0.589817	0.079050	0.212506
Br148	Br	-0.089817	0.579050	0.712506
H149	H	-1.166881	0.008482	0.433895
H150	H	-0.666881	0.508482	0.933895
H151	H	-1.199747	-0.652947	-0.000014
H152	H	-0.699747	-0.152947	0.499986
H153	H	-1.207997	-0.214194	0.000014
H154	H	-0.707997	0.285806	0.500014
H155	H	-0.496656	0.077926	0.163567
H156	H	0.003344	0.577926	0.663567
Br157	Br	-0.522013	0.078229	-0.212513
Br158	Br	-0.022013	0.578229	0.287487
H159	H	-1.284399	-0.494176	-0.000010
H160	H	-0.784399	0.005824	0.499990
H161	H	-1.166917	0.008488	0.754983
H162	H	-0.666917	0.508488	1.254983
H163	H	-0.944963	0.148778	0.754974
H164	H	-0.444963	0.648778	1.254974
Br165	Br	-0.302093	0.075585	0.212516
Br166	Br	0.197907	0.575585	0.712516
Br167	Br	-1.200109	-0.012500	0.537852
Br168	Br	-0.700109	0.487500	1.037852
H169	H	-1.210014	-0.106435	0.000048
H170	H	-0.710014	0.393565	0.500048
Br171	Br	-0.911727	0.169762	0.537854
Br172	Br	-0.411727	0.669762	1.037854
Br173	Br	-1.331003	-0.373953	-0.000010
Br174	Br	-0.831003	0.126047	0.499990
Br175	Br	-0.589854	0.079023	-0.212510
Br176	Br	-0.089854	0.579023	0.287490
Br177	Br	-0.857241	-0.748766	-0.000020
Br178	Br	-0.357241	-0.248766	0.499980
Br179	Br	-0.911697	0.169752	0.216769
Br180	Br	-0.411697	0.669752	0.716769
H181	H	-0.944929	0.148766	0.433896
H182	H	-0.444929	0.648766	0.933896
Br183	Br	-0.859871	-0.608762	-0.000038
Br184	Br	-0.359871	-0.108762	0.499962
H185	H	-0.784376	0.081390	0.163563
H186	H	-0.284376	0.581390	0.663563
Br187	Br	-0.302117	0.075590	-0.212504
Br188	Br	0.197883	0.575590	0.287496
H189	H	-0.825407	-0.456300	-0.000058
H190	H	-0.325407	0.043700	0.499942
Br191	Br	-0.783472	-0.328765	-0.000060
Br192	Br	-0.283472	0.171235	0.499940
H193	H	-0.912089	-0.189793	0.000036
H194	H	-0.412089	0.310207	0.500036
H195	H	-1.166874	0.008481	0.245040
H196	H	-0.666874	0.508481	0.745040
