data_functionalizedCrystal
_audit_creation_method	'MofGen! by Chris Wilmer'
_symmetry_space_group_name_H-M	'P1'
_symmetry_Int_Tables_number	1
_symmetry_cell_setting	triclinic
loop_
_symmetry_equiv_pos_as_xyz
  x,y,z
_cell_length_a	13.032831
_cell_length_b	16.120484
_cell_length_c	16.120256
_cell_angle_alpha	95.616173
_cell_angle_beta	86.057501
_cell_angle_gamma	86.078521
loop_
_atom_site_label
_atom_site_type_symbol
_atom_site_fract_x
_atom_site_fract_y
_atom_site_fract_z
Zn1	Zn	1.523154	-0.519560	-0.651746
Zn2	Zn	1.856488	-0.186227	-0.318413
Zn3	Zn	2.189821	0.147106	0.014920
Zn4	Zn	1.523025	-0.652232	-0.519042
Zn5	Zn	1.856358	-0.318899	-0.185709
Zn6	Zn	2.189692	0.014435	0.147624
Zn7	Zn	1.359945	-0.495048	-0.494602
Zn8	Zn	1.693278	-0.161714	-0.161269
Zn9	Zn	2.026611	0.171619	0.172065
Zn10	Zn	1.341484	-0.639874	-0.639423
Zn11	Zn	1.674817	-0.306541	-0.306089
Zn12	Zn	2.008151	0.026793	0.027244
O13	O	1.436902	-0.576679	-0.576203
O14	O	1.770235	-0.243345	-0.242870
O15	O	2.103569	0.089988	0.090463
O16	O	1.667417	-0.552590	-0.649529
O17	O	2.000750	-0.219257	-0.316196
O18	O	2.334083	0.114077	0.017138
O19	O	1.509064	-0.626294	-0.399655
O20	O	1.842397	-0.292961	-0.066322
O21	O	2.175730	0.040372	0.267011
O22	O	1.389375	-0.382166	-0.510377
O23	O	1.722708	-0.048832	-0.177043
O24	O	2.056041	0.284501	0.156290
O25	O	1.667322	-0.650063	-0.552032
O26	O	2.000655	-0.316730	-0.218698
O27	O	2.333988	0.016603	0.114635
O28	O	1.509284	-0.400175	-0.625830
O29	O	1.842618	-0.066841	-0.292497
O30	O	2.175951	0.266492	0.040837
O31	O	1.389249	-0.510812	-0.381699
O32	O	1.722582	-0.177479	-0.048366
O33	O	2.055916	0.155855	0.284968
O34	O	1.213216	-0.498829	-0.498427
O35	O	1.546549	-0.165496	-0.165094
O36	O	1.879883	0.167838	0.168240
O37	O	1.357911	-0.629001	-0.757203
O38	O	1.691245	-0.295667	-0.423869
O39	O	2.024578	0.037666	-0.090536
O40	O	1.199653	-0.605232	-0.604826
O41	O	1.532987	-0.271899	-0.271493
O42	O	1.866320	0.061435	0.061841
O43	O	1.491384	-0.540607	-0.766257
O44	O	1.824717	-0.207273	-0.432924
O45	O	2.158051	0.126060	-0.099590
O46	O	1.491163	-0.766727	-0.540082
O47	O	1.824496	-0.433393	-0.206749
O48	O	2.157830	-0.100060	0.126585
O49	O	1.357786	-0.757647	-0.628525
O50	O	1.691119	-0.424314	-0.295192
O51	O	2.024452	-0.090981	0.038142
C52	C	1.169025	-0.548030	-0.547638
C53	C	1.502358	-0.214697	-0.214304
C54	C	1.835691	0.118636	0.119029
C55	C	1.054423	-0.535795	-0.535438
C56	C	1.387756	-0.202462	-0.202104
C57	C	1.721089	0.130872	0.131229
C58	C	0.996646	-0.583064	-0.582571
C59	C	1.329980	-0.249731	-0.249237
C60	C	1.663313	0.083602	0.084096
C61	C	0.878199	-0.570420	-0.569962
C62	C	1.211532	-0.237087	-0.236629
C63	C	1.544866	0.096247	0.096704
C64	C	1.422484	-0.792303	-0.585639
C65	C	1.755817	-0.458970	-0.252306
C66	C	2.089150	-0.125636	0.081027
C67	C	1.416408	-0.884559	-0.589714
C68	C	1.749741	-0.551226	-0.256381
C69	C	2.083075	-0.217893	0.076953
C70	C	1.405320	-1.053474	-0.597171
C71	C	1.738654	-0.720141	-0.263837
C72	C	2.071987	-0.386808	0.069496
C73	C	1.468667	-1.099062	-0.555269
C74	C	1.802001	-0.765729	-0.221936
C75	C	2.135334	-0.432396	0.111397
C76	C	1.462498	-1.193053	-0.559418
C77	C	1.795831	-0.859719	-0.226085
C78	C	2.129165	-0.526386	0.107248
C79	C	1.411488	-0.959476	-0.593023
C80	C	1.744822	-0.626142	-0.259689
C81	C	2.078155	-0.292809	0.073644
C82	C	1.705825	-0.605439	-0.604881
C83	C	2.039159	-0.272106	-0.271548
C84	C	2.372492	0.061227	0.061785
C85	C	1.820424	-0.617695	-0.617102
C86	C	2.153758	-0.284362	-0.283769
C87	C	2.487091	0.048971	0.049565
C88	C	1.422603	-0.586160	-0.792687
C89	C	1.755936	-0.252826	-0.459354
C90	C	2.089269	0.080507	-0.126020
C91	C	1.416509	-0.590200	-0.884939
C92	C	1.749843	-0.256867	-0.551606
C93	C	2.083176	0.076467	-0.218273
C94	C	1.451403	-0.360216	-0.566752
C95	C	1.784737	-0.026883	-0.233418
C96	C	2.118070	0.306451	0.099915
C97	C	1.457583	-0.267973	-0.562724
C98	C	1.790916	0.065361	-0.229391
C99	C	2.124250	0.398694	0.103943
C100	C	1.468678	-0.555587	-1.099424
C101	C	1.802011	-0.222254	-0.766090
C102	C	2.135345	0.111079	-0.432757
C103	C	1.405352	-0.597538	-1.053835
C104	C	1.738685	-0.264205	-0.720502
C105	C	2.072019	0.069128	-0.387169
C106	C	1.411562	-0.593454	-0.959853
C107	C	1.744895	-0.260121	-0.626520
C108	C	2.078228	0.073213	-0.293186
C109	C	1.462470	-0.559671	-1.193415
C110	C	1.795803	-0.226337	-0.860081
C111	C	2.129136	0.106996	-0.526748
C112	C	1.451209	-0.567181	-0.360566
C113	C	1.784542	-0.233847	-0.027232
C114	C	2.117875	0.099486	0.306101
C115	C	1.457518	-0.562928	-0.268325
C116	C	1.790851	-0.229595	0.065008
C117	C	2.124184	0.103739	0.398342
H118	H	0.858644	-0.667524	-0.666797
H119	H	1.191977	-0.334191	-0.333464
H120	H	1.525310	-0.000858	-0.000130
O121	O	1.008997	-0.476284	-0.476146
O122	O	1.342330	-0.142951	-0.142813
O123	O	1.675664	0.190382	0.190520
C124	C	1.085715	-0.434804	-0.434754
C125	C	1.419048	-0.101471	-0.101421
C126	C	1.752382	0.231863	0.231912
H127	H	1.160467	-0.441612	-0.476747
H128	H	1.493801	-0.108279	-0.143414
H129	H	1.827134	0.225055	0.189920
H130	H	1.059456	-0.365711	-0.419846
H131	H	1.392789	-0.032378	-0.086513
H132	H	1.726122	0.300955	0.246820
H133	H	1.099258	-0.463545	-0.374200
H134	H	1.432591	-0.130211	-0.040867
H135	H	1.765924	0.203122	0.292466
O136	O	1.335257	-0.644165	-1.091526
O137	O	1.668591	-0.310832	-0.758193
O138	O	2.001924	0.022501	-0.424859
C139	C	1.387135	-0.706165	-1.150302
C140	C	1.720469	-0.372832	-0.816969
C141	C	2.053802	-0.039498	-0.483635
H142	H	1.469694	-0.718840	-1.133003
H143	H	1.803027	-0.385507	-0.799670
H144	H	2.136360	-0.052174	-0.466336
H145	H	1.345516	-0.766101	-1.150205
H146	H	1.678849	-0.432767	-0.816872
H147	H	2.012182	-0.099434	-0.483539
H148	H	1.388146	-0.683690	-1.215224
H149	H	1.721479	-0.350357	-0.881891
H150	H	2.054813	-0.017023	-0.548557
O151	O	1.538799	-1.061280	-0.508758
O152	O	1.872132	-0.727947	-0.175425
O153	O	2.205465	-0.394614	0.157908
C154	C	1.529431	-0.974487	-0.514923
C155	C	1.862765	-0.641154	-0.181590
C156	C	2.196098	-0.307820	0.151744
H157	H	1.448799	-0.955477	-0.533070
H158	H	1.782133	-0.622144	-0.199736
H159	H	2.115466	-0.288810	0.133597
H160	H	1.542703	-0.939519	-0.452079
H161	H	1.876036	-0.606186	-0.118746
H162	H	2.209370	-0.272853	0.214587
H163	H	1.589216	-0.958281	-0.564603
H164	H	1.922549	-0.624948	-0.231270
H165	H	2.255882	-0.291614	0.102064
O166	O	1.335121	-1.091245	-0.643607
O167	O	1.668454	-0.757911	-0.310274
O168	O	2.001787	-0.424578	0.023059
C169	C	1.344526	-1.178042	-0.637467
C170	C	1.677859	-0.844708	-0.304134
C171	C	2.011192	-0.511375	0.029199
H172	H	1.381843	-1.190591	-0.577556
H173	H	1.715176	-0.857258	-0.244223
H174	H	2.048510	-0.523924	0.089110
H175	H	1.264796	-1.203110	-0.636231
H176	H	1.598129	-0.869777	-0.302897
H177	H	1.931463	-0.536443	0.030436
H178	H	1.394541	-1.210610	-0.693648
H179	H	1.727875	-0.877277	-0.360315
H180	H	2.061208	-0.543943	-0.026982
H181	H	1.527553	-0.516608	-1.067872
H182	H	1.860886	-0.183275	-0.734539
H183	H	2.194220	0.150058	-0.401205
H184	H	0.839978	-0.520583	-0.520276
H185	H	1.173312	-0.187250	-0.186942
H186	H	1.506645	0.146083	0.146391
H187	H	1.034871	-0.632891	-0.632260
H188	H	1.368205	-0.299558	-0.298927
H189	H	1.701538	0.033776	0.034407
