data_functionalizedCrystal
_audit_creation_method	'MofGen! by Chris Wilmer'
_symmetry_space_group_name_H-M	'P1'
_symmetry_Int_Tables_number	1
_symmetry_cell_setting	triclinic
loop_
_symmetry_equiv_pos_as_xyz
  x,y,z
_cell_length_a	19.121063
_cell_length_b	16.120542
_cell_length_c	16.120297
_cell_angle_alpha	89.872913
_cell_angle_beta	95.179432
_cell_angle_gamma	90.317046
loop_
_atom_site_label
_atom_site_type_symbol
_atom_site_fract_x
_atom_site_fract_y
_atom_site_fract_z
Zn1	Zn	-0.355825	-1.228532	-0.551617
Zn2	Zn	-0.467608	-1.229541	-0.417908
Zn3	Zn	-0.343951	-1.097153	-0.404964
Zn4	Zn	-0.466953	-1.083532	-0.549843
O5	O	-0.408584	-1.159690	-0.481083
O6	O	-0.375897	-1.344754	-0.540040
O7	O	-0.446510	-1.218102	-0.299601
O8	O	-0.247268	-1.119858	-0.419744
O9	O	-0.458024	-1.345495	-0.441805
O10	O	-0.255991	-1.216382	-0.527489
O11	O	-0.355660	-1.120837	-0.290092
O12	O	-0.355024	-0.979258	-0.418023
O13	O	-0.456906	-1.096644	-0.666668
O14	O	-0.445392	-0.969251	-0.524465
O15	O	-0.375261	-1.203175	-0.667972
O16	O	-0.565780	-1.204895	-0.440085
O17	O	-0.565298	-1.097623	-0.537016
C18	C	-0.398849	-0.944154	-0.469647
C19	C	-0.394702	-0.851945	-0.464776
C20	C	-0.430074	-0.637104	-0.506308
C21	C	-0.387137	-0.683123	-0.455880
C22	C	-0.391347	-0.777064	-0.460831
C23	C	-0.425864	-0.543154	-0.501358
C24	C	-0.591018	-1.149912	-0.489782
C25	C	-0.669068	-1.145803	-0.493535
C26	C	-0.705968	-1.199763	-0.444877
C27	C	-0.779305	-1.195904	-0.448412
C28	C	-0.815741	-1.138080	-0.500601
C29	C	-0.778836	-1.084118	-0.549264
C30	C	-0.705501	-1.087982	-0.545733
C31	C	-1.037155	-1.123621	-0.513789
C32	C	-1.110495	-1.119759	-0.517315
C33	C	-1.110959	-1.231547	-0.416464
C34	C	-1.037622	-1.235402	-0.412934
C35	C	-1.000724	-1.181443	-0.461600
C36	C	-0.890703	-1.134132	-0.504214
C37	C	-0.925764	-1.185396	-0.457991
C38	C	-0.225440	-1.169527	-0.472370
C39	C	-0.147395	-1.173719	-0.468657
C40	C	-0.417335	-1.148277	-0.698396
C41	C	-0.421064	-1.143414	-0.791002
C42	C	-0.418354	-0.376067	-0.492553
C43	C	-0.422506	-0.468277	-0.497410
C44	C	-0.427855	-1.134505	-0.960551
C45	C	-0.389110	-1.185048	-1.002466
C46	C	-0.392889	-1.180092	-1.096809
C47	C	-0.424077	-1.139461	-0.866199
C48	C	-0.399819	-1.171108	-0.264616
C49	C	-0.395899	-1.176142	-0.172010
H50	H	-0.676306	-1.246846	-0.402376
H51	H	-0.353101	-1.232042	-0.967497
F52	F	-0.474920	-1.073087	-1.006256
F53	F	-0.334958	-0.642405	-0.394587
F54	F	-0.929487	-1.072593	-0.559755
H55	H	-1.007957	-1.282487	-0.370437
F56	F	-1.150233	-1.288973	-0.364677
F57	F	-1.149271	-1.058205	-0.572855
F58	F	-0.482256	-0.677822	-0.567587
F59	F	-0.818573	-1.253338	-0.396626
H60	H	-1.007118	-1.079684	-0.553414
F61	F	-0.817616	-1.022582	-0.604813
F62	F	-0.886985	-1.246937	-0.402454
F63	F	-0.666230	-1.030553	-0.597524
