data_functionalizedCrystal
_audit_creation_method	'MofGen! by Chris Wilmer'
_symmetry_space_group_name_H-M	'P1'
_symmetry_Int_Tables_number	1
_symmetry_cell_setting	triclinic
loop_
_symmetry_equiv_pos_as_xyz
  x,y,z
_cell_length_a	9.065218
_cell_length_b	17.699083
_cell_length_c	16.776229
_cell_angle_alpha	89.994790
_cell_angle_beta	90.003807
_cell_angle_gamma	84.149450
loop_
_atom_site_label
_atom_site_type_symbol
_atom_site_fract_x
_atom_site_fract_y
_atom_site_fract_z
O1	O	1.957114	0.110962	0.066292
O2	O	2.457114	0.610962	0.566292
O3	O	1.527559	0.120065	0.066293
O4	O	2.027559	0.620065	0.566293
O5	O	1.754472	0.005419	0.066286
O6	O	2.254472	0.505419	0.566286
O7	O	1.730200	0.225608	0.066300
O8	O	2.230200	0.725608	0.566300
O9	O	1.754451	0.005439	-0.066291
O10	O	2.254451	0.505439	0.433709
O11	O	1.527538	0.120085	-0.066283
O12	O	2.027538	0.620085	0.433717
O13	O	1.957092	0.110982	-0.066284
O14	O	2.457092	0.610982	0.433716
Zn15	Zn	1.742312	0.115537	-0.087333
Zn16	Zn	2.242312	0.615537	0.412667
Zn17	Zn	1.742340	0.115510	0.087342
Zn18	Zn	2.242340	0.615510	0.587342
O19	O	1.730179	0.225628	-0.066277
O20	O	2.230179	0.725628	0.433723
C21	C	1.472588	0.119200	0.000005
C22	C	1.972588	0.619200	0.500005
C23	C	1.308822	0.116584	0.000006
C24	C	1.808822	0.616584	0.500006
C25	C	1.753592	-0.022775	-0.000003
C26	C	2.253592	0.477225	0.499997
C27	C	1.750983	-0.106813	-0.000003
C28	C	2.250983	0.393187	0.499997
C29	C	1.884176	-0.154396	-0.000004
C30	C	2.384176	0.345604	0.499996
C31	C	1.881716	-0.233358	0.000003
C32	C	2.381716	0.266642	0.500003
C33	C	1.746060	-0.264737	0.000005
C34	C	2.246060	0.235263	0.500005
C35	C	1.612857	-0.217149	0.000009
C36	C	2.112857	0.282851	0.500009
C37	C	1.615319	-0.138188	0.000008
C38	C	2.115319	0.361812	0.500008
C39	C	1.602925	-0.535589	0.000016
C40	C	2.102925	-0.035589	0.500016
C41	C	1.600474	-0.614556	0.000015
C42	C	2.100474	-0.114556	0.500015
C43	C	1.869322	-0.630760	0.000010
C44	C	2.369322	-0.130760	0.500010
C45	C	1.871784	-0.551799	0.000009
C46	C	2.371784	-0.051799	0.500009
C47	C	1.738581	-0.504217	0.000017
C48	C	2.238581	-0.004217	0.500017
C49	C	1.741251	-0.418597	0.000011
C50	C	2.241251	0.081403	0.500011
C51	C	1.743390	-0.350355	0.000006
C52	C	2.243390	0.149645	0.500006
C53	C	2.012064	0.111847	0.000006
C54	C	2.512064	0.611847	0.500006
C55	C	2.175829	0.114463	0.000011
C56	C	2.675829	0.614463	0.500011
C57	C	1.731059	0.253822	0.000013
C58	C	2.231059	0.753822	0.500013
C59	C	1.733669	0.337860	0.000019
C60	C	2.233669	0.837860	0.500019
N61	N	1.742304	0.115554	-0.206544
N62	N	2.242304	0.615554	0.293456
C63	C	1.653053	0.068949	-0.751719
C64	C	2.153053	0.568949	-0.251719
C65	C	1.653049	0.068956	-0.668267
C66	C	2.153049	0.568956	-0.168267
C67	C	1.742346	0.115504	-0.626544
C68	C	2.242346	0.615504	-0.126544
C69	C	1.831662	0.162043	-0.668277
C70	C	2.331662	0.662043	-0.168277
C71	C	1.831673	0.162032	-0.751728
C72	C	2.331673	0.662032	-0.251728
C73	C	1.831624	0.162087	-0.331730
C74	C	2.331624	0.662087	0.168270
C75	C	1.831603	0.162096	-0.248273
C76	C	2.331603	0.662096	0.251727
C77	C	1.653000	0.069011	-0.248269
C78	C	2.153000	0.569011	0.251731
C79	C	1.653011	0.069000	-0.331720
C80	C	2.153011	0.569000	0.168280
C81	C	1.742333	0.115536	-0.373446
C82	C	2.242333	0.615536	0.126554
C83	C	1.742338	0.115527	-0.463934
C84	C	2.242338	0.615527	0.036066
C85	C	1.742334	0.115517	-0.536057
C86	C	2.242334	0.615517	-0.036057
N87	N	1.742359	0.115486	0.206553
N88	N	2.242359	0.615486	0.706553
H89	H	1.994642	-0.128854	-0.000012
H90	H	2.494642	0.371146	0.499988
C91	C	1.336929	-0.527515	0.000003
C92	C	1.836929	-0.027515	0.500003
C93	C	1.456511	-0.483294	0.000010
C94	C	1.956511	0.016706	0.500010
H95	H	1.246536	-0.495226	-0.000009
H96	H	1.746536	0.004774	0.499991
H97	H	1.341562	-0.558650	0.046234
H98	H	1.841562	-0.058650	0.546234
H99	H	1.341578	-0.558650	-0.046231
H100	H	1.841578	-0.058650	0.453769
H101	H	1.451867	-0.452163	0.046247
H102	H	1.951867	0.047837	0.546247
H103	H	1.451874	-0.452146	-0.046226
H104	H	1.951874	0.047854	0.453774
C105	C	2.008189	0.254100	-0.256656
C106	C	2.508189	0.754100	0.243344
C107	C	1.929778	0.213260	-0.202409
C108	C	2.429778	0.713260	0.297591
H109	H	2.068799	0.285681	-0.228339
H110	H	2.568799	0.785681	0.271661
H111	H	1.940202	0.284628	-0.289215
H112	H	2.440202	0.784628	0.210785
H113	H	2.068765	0.219687	-0.289193
H114	H	2.568765	0.719687	0.210807
H115	H	1.869193	0.247673	-0.169876
H116	H	2.369193	0.747673	0.330124
H117	H	1.997773	0.182730	-0.169836
H118	H	2.497773	0.682730	0.330164
H119	H	1.990175	-0.272097	-0.000000
H120	H	2.490175	0.227903	0.500000
H121	H	1.502404	-0.242703	0.000017
H122	H	2.002404	0.257297	0.500017
H123	H	1.982248	-0.526255	0.000003
H124	H	2.482248	-0.026255	0.500003
H125	H	1.506859	-0.099446	0.000009
H126	H	2.006859	0.400554	0.500009
C127	C	1.984950	-0.758998	0.000023
C128	C	2.484950	-0.258998	0.500023
C129	C	2.015746	-0.683064	0.000014
C130	C	2.515746	-0.183064	0.500014
H131	H	2.075345	-0.791285	0.000029
H132	H	2.575345	-0.291285	0.500029
H133	H	1.929316	-0.768605	-0.046204
H134	H	2.429316	-0.268605	0.453796
H135	H	1.929322	-0.768603	0.046261
H136	H	2.429322	-0.268603	0.546261
H137	H	2.071365	-0.673457	-0.046226
H138	H	2.571365	-0.173457	0.453774
H139	H	2.071403	-0.673454	0.046247
H140	H	2.571403	-0.173454	0.546247
H141	H	1.580291	0.031098	-0.365686
H142	H	2.080291	0.531098	0.134314
H143	H	1.490001	-0.640101	0.000016
H144	H	1.990001	-0.140101	0.500016
C145	C	1.476484	-0.023048	-0.676644
C146	C	1.976484	0.476952	-0.176644
C147	C	1.554872	0.017804	-0.622400
C148	C	2.054872	0.517804	-0.122400
H149	H	1.415866	-0.054624	-0.648327
H150	H	1.915866	0.445376	-0.148327
H151	H	1.544486	-0.053580	-0.709181
H152	H	2.044486	0.446420	-0.209181
H153	H	1.415919	0.011358	-0.709205
H154	H	1.915919	0.511358	-0.209205
H155	H	1.615445	-0.016602	-0.589843
H156	H	2.115445	0.483398	-0.089843
H157	H	1.486862	0.048339	-0.589850
H158	H	1.986862	0.548339	-0.089850
C159	C	1.454595	0.062872	-0.154433
C160	C	1.954595	0.562872	0.345567
C161	C	1.554823	0.017851	-0.202401
C162	C	2.054823	0.517851	0.297599
H163	H	1.393991	0.031289	-0.126115
H164	H	1.893991	0.531289	0.373885
H165	H	1.394034	0.097262	-0.186999
H166	H	1.894034	0.597262	0.313001
H167	H	1.507795	0.090589	-0.117643
H168	H	2.007795	0.590589	0.382357
H169	H	1.501623	-0.009861	-0.239195
H170	H	2.001623	0.490139	0.260805
H171	H	1.615391	-0.016553	-0.169831
H172	H	2.115391	0.483447	0.330169
C173	C	2.030055	0.168223	-0.425541
C174	C	2.530055	0.668223	0.074459
C175	C	1.929806	0.213242	-0.377583
C176	C	2.429806	0.713242	0.122417
H177	H	2.090678	0.199806	-0.453845
H178	H	2.590678	0.699806	0.046155
H179	H	1.976883	0.140510	-0.462335
H180	H	2.476883	0.640510	0.037665
H181	H	2.090610	0.133828	-0.392963
H182	H	2.590610	0.633828	0.107037
H183	H	1.869244	0.247633	-0.410162
H184	H	2.369244	0.747633	0.089838
H185	H	1.982983	0.240968	-0.340785
H186	H	2.482983	0.740968	0.159215
H187	H	1.904376	0.199940	-0.634300
H188	H	2.404376	0.699940	-0.134300
C189	C	1.644216	-0.032921	-0.845546
C190	C	2.144216	0.467079	-0.345546
C191	C	1.554893	0.017783	-0.797578
C192	C	2.054893	0.517783	-0.297578
H193	H	1.583612	-0.064507	-0.873859
H194	H	2.083612	0.435493	-0.373859
H195	H	1.712202	-0.063442	-0.812980
H196	H	2.212202	0.436558	-0.312980
H197	H	1.697395	-0.005198	-0.882341
H198	H	2.197395	0.494802	-0.382341
H199	H	1.501722	-0.009941	-0.760780
H200	H	2.001722	0.490059	-0.260780
H201	H	1.486881	0.048307	-0.830148
H202	H	1.986881	0.548307	-0.330148
C203	C	2.008210	0.254051	-0.743356
C204	C	2.508210	0.754051	-0.243356
C205	C	1.929838	0.213189	-0.797598
C206	C	2.429838	0.713189	-0.297598
H207	H	2.068811	0.285635	-0.771675
H208	H	2.568811	0.785635	-0.271675
H209	H	2.068777	0.219657	-0.710796
H210	H	2.568777	0.719657	-0.210796
H211	H	1.940188	0.284584	-0.710818
H212	H	2.440188	0.784584	-0.210818
H213	H	1.997861	0.182652	-0.830132
H214	H	2.497861	0.682652	-0.330132
H215	H	1.869266	0.247587	-0.830172
H216	H	2.369266	0.747587	-0.330172
