data_functionalizedCrystal
_audit_creation_method	'MofGen! by Chris Wilmer'
_symmetry_space_group_name_H-M	'P1'
_symmetry_Int_Tables_number	1
_symmetry_cell_setting	triclinic
loop_
_symmetry_equiv_pos_as_xyz
  x,y,z
_cell_length_a	19.077105
_cell_length_b	19.077356
_cell_length_c	19.077237
_cell_angle_alpha	89.925100
_cell_angle_beta	94.513445
_cell_angle_gamma	89.903992
loop_
_atom_site_label
_atom_site_type_symbol
_atom_site_fract_x
_atom_site_fract_y
_atom_site_fract_z
Zn1	Zn	1.079561	-0.340824	0.427643
Zn2	Zn	1.070094	-0.453223	0.305074
Zn3	Zn	0.957358	-0.331022	0.305449
Zn4	Zn	0.956984	-0.453174	0.418193
O5	O	1.015999	-0.394560	0.364090
O6	O	1.176784	-0.359857	0.415181
O7	O	1.051334	-0.432930	0.206645
O8	O	0.977687	-0.234162	0.325771
O9	O	1.169829	-0.442436	0.325130
O10	O	1.067469	-0.241364	0.415545
O11	O	0.968507	-0.343150	0.206921
O12	O	0.858829	-0.343102	0.316607
O13	O	0.977050	-0.442352	0.517925
O14	O	0.858555	-0.432847	0.399439
O15	O	1.067106	-0.359809	0.524868
O16	O	1.050972	-0.551376	0.315967
O17	O	0.967870	-0.551340	0.399075
C18	C	0.833158	-0.386906	0.357039
C19	C	0.754937	-0.383649	0.354039
C20	C	1.023675	-0.211599	0.371754
C21	C	1.026946	-0.133632	0.375020
C22	C	1.008977	-0.386933	0.181252
C23	C	1.006099	-0.383499	0.103046
C24	C	0.718059	-0.428909	0.395682
C25	C	0.644563	-0.425840	0.392867
C26	C	0.607946	-0.377513	0.348404
C27	C	0.644830	-0.332249	0.306760
C28	C	0.718325	-0.335315	0.309579
C29	C	0.388154	-0.363322	0.335359
C30	C	0.314654	-0.360260	0.332541
C31	C	0.314392	-0.453850	0.418650
C32	C	0.387888	-0.456915	0.421462
C33	C	0.424766	-0.411648	0.379820
N34	N	0.532821	-0.374376	0.345524
N35	N	0.499889	-0.414783	0.382705
C36	C	1.199555	-0.402245	0.371168
C37	C	1.277775	-0.405520	0.374184
C38	C	1.008373	-0.576811	0.356471
C39	C	1.005176	-0.654783	0.353238
C40	C	0.981741	-0.093252	0.329815
C41	C	0.984814	-0.019994	0.332891
C42	C	1.033096	0.012883	0.381169
C43	C	1.078302	-0.027502	0.426379
C44	C	1.075226	-0.100759	0.423306
C45	C	1.047306	0.231575	0.395375
C46	C	1.050380	0.304837	0.398443
C47	C	0.956891	0.312340	0.304956
C48	C	0.953821	0.239082	0.301884
C49	C	0.999026	0.198703	0.347096
N50	N	1.036239	0.087765	0.384313
N51	N	0.995878	0.123823	0.343956
C52	C	1.023092	-0.402169	0.547645
C53	C	1.026115	-0.405411	0.625865
C54	C	1.047796	-0.428716	1.066147
C55	C	1.044946	-0.425665	0.992651
C56	C	1.000402	-0.377393	0.956054
C57	C	0.958700	-0.332173	0.992958
C58	C	0.961547	-0.335228	1.066452
C59	C	0.987260	-0.363246	0.736264
C60	C	0.984418	-0.360193	0.662764
C61	C	1.070663	-0.453687	0.662462
C62	C	1.073509	-0.456735	0.735958
C63	C	1.031805	-0.411518	0.772855
N64	N	0.997489	-0.374271	0.880929
N65	N	1.034714	-0.414643	0.847979
H66	H	0.747867	-0.468264	0.431886
H67	H	0.948146	-0.320879	0.632969
C68	C	0.758890	-0.285527	0.263767
N69	N	0.789443	-0.248024	0.229260
C70	C	0.941394	-0.313496	0.776841
N71	N	0.906849	-0.276018	0.807407
C72	C	0.907164	0.356763	0.255232
N73	N	0.869705	0.390222	0.217780
C74	C	1.122508	-0.509841	0.776209
N75	N	1.159415	-0.549841	0.806525
H76	H	0.614540	-0.462696	0.426776
H77	H	0.914507	0.212319	0.262570
H78	H	1.078891	-0.462494	0.962610
C79	C	0.428709	-0.313530	0.289547
N80	N	0.459258	-0.276026	0.255037
H81	H	1.104616	-0.490501	0.632412
C82	C	0.909707	-0.279067	0.952699
N83	N	0.872808	-0.239062	0.922378
H84	H	0.942428	-0.120015	0.290500
C85	C	1.103487	0.341000	0.451564
N86	N	1.143482	0.368238	0.491574
H87	H	1.084122	0.198707	0.432182
H88	H	0.927593	-0.298406	1.096494
H89	H	0.417696	-0.496269	0.457666
C90	C	0.273821	-0.503636	0.464458
N91	N	0.243264	-0.541134	0.498965
H92	H	0.615011	-0.292898	0.270560
C93	C	0.274377	-0.307094	0.283628
N94	N	0.244040	-0.267053	0.246787
H95	H	0.948004	0.012883	0.296082
C96	C	1.131414	0.008665	0.479484
N97	N	1.171420	0.035906	0.519482
C98	C	1.096798	-0.481821	1.106396
N99	N	1.133706	-0.521823	1.136710
C100	C	1.124957	-0.145176	0.473033
N101	N	1.162415	-0.178631	0.510490
