data_functionalizedCrystal
_audit_creation_method	'MofGen! by Chris Wilmer'
_symmetry_space_group_name_H-M	'P1'
_symmetry_Int_Tables_number	1
_symmetry_cell_setting	triclinic
loop_
_symmetry_equiv_pos_as_xyz
  x,y,z
_cell_length_a	14.971486
_cell_length_b	10.654550
_cell_length_c	14.048226
_cell_angle_alpha	89.994756
_cell_angle_beta	89.998499
_cell_angle_gamma	84.049516
loop_
_atom_site_label
_atom_site_type_symbol
_atom_site_fract_x
_atom_site_fract_y
_atom_site_fract_z
O1	O	1.187838	0.163659	-0.079049
O2	O	0.927544	0.183257	-0.079074
O3	O	1.063675	-0.009345	-0.079057
O4	O	1.051706	0.356262	-0.079066
O5	O	1.063659	-0.009357	0.079264
O6	O	0.927527	0.183246	0.079247
O7	O	1.187821	0.163648	0.079273
Zn8	Zn	1.057672	0.173445	0.104397
Zn9	Zn	1.057693	0.173460	-0.104198
O10	O	1.051690	0.356250	0.079256
C11	C	0.894206	0.182375	0.000083
C12	C	0.794895	0.179749	0.000073
C13	C	0.738285	0.292898	0.000072
C14	C	0.644972	0.290422	0.000086
C15	C	0.608271	0.174797	0.000095
C16	C	0.664888	0.061639	0.000099
C17	C	0.758199	0.064116	0.000092
C18	C	0.470397	0.056485	0.000112
C19	C	0.377080	0.054007	0.000118
C20	C	0.357171	0.282791	0.000107
C21	C	0.450482	0.285268	0.000100
C22	C	0.507092	0.172110	0.000102
C23	C	1.062788	-0.056139	0.000102
C24	C	1.060159	-0.195555	0.000099
C25	C	1.140311	-0.275900	0.000109
C26	C	1.137835	-0.406894	0.000102
C27	C	0.975048	-0.377185	0.000078
C28	C	0.977525	-0.246193	0.000078
C29	C	1.234295	-0.293054	0.000128
C30	C	1.231819	-0.424048	0.000121
C31	C	1.221159	0.164530	0.000113
C32	C	1.320470	0.167156	0.000117
C33	C	1.052577	0.403044	0.000094
C34	C	1.055206	0.542460	0.000092
N35	N	1.057663	0.173434	0.246758
N36	N	1.057709	0.173461	-0.246559
C37	C	1.117962	0.088185	0.296583
C38	C	1.117968	0.088184	0.396241
C39	C	1.057679	0.173440	0.446071
C40	C	0.997374	0.258693	0.396238
C41	C	0.997365	0.258687	0.296583
C42	C	0.997400	0.258702	0.603953
C43	C	0.997411	0.258710	0.703615
C44	C	1.118003	0.088200	0.703611
C45	C	1.117993	0.088193	0.603955
C46	C	1.057690	0.173448	0.554129
H47	H	0.347201	-0.040145	0.000126
O48	O	1.176591	0.005258	0.555696
C49	C	1.296238	-0.163816	0.566202
C50	C	1.229913	-0.069977	0.620973
H51	H	1.339379	-0.224650	0.618955
H52	H	1.257275	-0.226731	0.519584
H53	H	1.341206	-0.109465	0.519506
H54	H	1.184929	-0.124226	0.667721
H55	H	1.268932	-0.007063	0.667531
H56	H	1.267224	-0.466193	0.066380
O57	O	0.525262	-0.053553	0.000067
C58	C	0.535167	-0.280735	0.000115
C59	C	0.472931	-0.156219	0.000153
H60	H	0.492882	-0.363773	0.000205
H61	H	0.579326	-0.285370	-0.066164
H62	H	0.579376	-0.285238	0.066351
H63	H	0.428665	-0.151633	-0.066038
H64	H	0.428832	-0.151636	0.066476
H65	H	0.948262	0.328103	0.256016
O66	O	0.938749	0.341555	0.751875
C67	C	0.819142	0.510687	0.741369
C68	C	0.885520	0.416922	0.686597
H69	H	0.776103	0.571663	0.688616
H70	H	0.774083	0.456401	0.788007
H71	H	0.858152	0.573473	0.788044
H72	H	0.846584	0.354112	0.639870
H73	H	0.930579	0.471285	0.640019
H74	H	0.804290	-0.028022	0.000092
O75	O	0.938945	0.341571	0.555445
C76	C	0.920959	0.513083	0.442956
C77	C	0.987250	0.419285	0.497816
H78	H	0.959988	0.575957	0.396366
H79	H	0.875951	0.458825	0.396247
H80	H	0.877854	0.573967	0.495704
H81	H	1.030415	0.358378	0.445137
H82	H	1.032197	0.473620	0.544539
H83	H	0.907770	-0.418431	0.000061
O84	O	0.773785	0.405328	0.000105
C85	C	0.744179	0.631987	0.000043
C86	C	0.703860	0.504746	0.000025
H87	H	0.687664	0.712400	-0.000041
H88	H	0.787338	0.638949	0.066312
H89	H	0.787393	0.638804	-0.066202
H90	H	0.660605	0.497843	0.066226
H91	H	0.660753	0.497839	-0.066287
O92	O	0.589894	0.400255	-0.000051
C93	C	0.473029	0.530274	-0.082112
C94	C	0.535336	0.405821	-0.082062
H95	H	0.428916	0.534827	-0.148421
H96	H	0.428785	0.534866	-0.015897
H97	H	0.515312	0.613314	-0.082082
H98	H	0.493123	0.322712	-0.082126
H99	H	0.579584	0.401340	-0.148271
O100	O	0.899605	-0.168275	-0.000068
C101	C	0.761272	-0.102753	-0.082152
C102	C	0.849477	-0.191086	-0.082094
H103	H	0.720728	-0.121146	-0.148473
H104	H	0.720571	-0.121204	-0.015950
H105	H	0.777252	-0.000440	-0.082104
H106	H	0.833578	-0.293431	-0.082175
H107	H	0.890153	-0.172526	-0.148290
H108	H	0.480361	0.379420	0.000084
O109	O	1.278140	-0.258691	-0.078976
C110	C	1.355645	-0.327707	-0.223044
C111	C	1.305994	-0.366794	-0.133513
H112	H	1.378196	-0.415089	-0.267151
H113	H	1.308693	-0.259717	-0.267295
H114	H	1.416862	-0.279375	-0.200925
H115	H	1.244778	-0.415178	-0.155547
H116	H	1.353006	-0.434727	-0.089284
O117	O	1.269835	-0.251108	0.081823
C118	C	1.333860	-0.306435	0.235446
C119	C	1.293792	-0.354140	0.142897
H120	H	1.353223	-0.389708	0.284857
H121	H	1.396032	-0.257446	0.217990
H122	H	1.281920	-0.236807	0.272033
H123	H	1.345665	-0.423812	0.106264
H124	H	1.231602	-0.403054	0.160414
O125	O	0.938683	0.341381	0.444600
C126	C	0.783617	0.414647	0.475069
C127	C	0.849984	0.320911	0.420258
H128	H	0.711890	0.398148	0.455393
H129	H	0.793905	0.400009	0.554865
H130	H	0.795932	0.515252	0.455474
H131	H	0.837710	0.220269	0.439773
H132	H	0.839680	0.335659	0.340475
H133	H	0.634998	-0.032505	0.000120
O134	O	1.265559	-0.478897	-0.081476
C135	C	1.237067	-0.603348	-0.219296
C136	C	1.198741	-0.541271	-0.126927
H137	H	1.183068	-0.653815	-0.256059
H138	H	1.259596	-0.527793	-0.268701
H139	H	1.296942	-0.674469	-0.201470
H140	H	1.138839	-0.470159	-0.144664
H141	H	1.176273	-0.616897	-0.077548
H142	H	1.167059	0.018765	0.256018
H143	H	0.311074	0.374929	0.000109
H144	H	1.167066	0.018767	0.436808
H145	H	1.167104	0.018782	0.744185
