data_functionalizedCrystal
_audit_creation_method	'MofGen! by Chris Wilmer'
_symmetry_space_group_name_H-M	'P1'
_symmetry_Int_Tables_number	1
_symmetry_cell_setting	triclinic
loop_
_symmetry_equiv_pos_as_xyz
  x,y,z
_cell_length_a	16.109301
_cell_length_b	27.732064
_cell_length_c	26.210047
_cell_angle_alpha	89.997800
_cell_angle_beta	89.978269
_cell_angle_gamma	83.055452
loop_
_atom_site_label
_atom_site_type_symbol
_atom_site_fract_x
_atom_site_fract_y
_atom_site_fract_z
O1	O	1.102393	0.062130	-0.042392
O2	O	0.860236	0.069861	-0.042400
O3	O	0.988828	-0.004369	-0.042398
O4	O	0.973801	0.136360	-0.042394
O5	O	0.988769	-0.004370	0.042461
O6	O	0.860177	0.069860	0.042459
O7	O	1.102334	0.062128	0.042466
Cu8	Cu	0.981250	0.065994	0.050210
Cu9	Cu	0.981320	0.065996	-0.050144
O10	O	0.973742	0.136359	0.042464
C11	C	0.829236	0.069548	0.000028
C12	C	0.736952	0.068609	0.000025
C13	C	0.514165	0.110472	0.000032
C14	C	0.427456	0.109586	0.000036
C15	C	0.448412	0.021514	0.000031
C16	C	0.535119	0.022401	0.000032
C17	C	0.567994	0.066881	0.000030
C18	C	0.394576	0.065109	0.000032
C19	C	0.300562	0.064148	0.000036
C20	C	0.662014	0.067843	0.000027
C21	C	0.988481	-0.022378	0.000030
C22	C	0.987525	-0.076036	0.000025
C23	C	0.905024	-0.453454	0.000021
C24	C	0.908543	-0.251779	0.000020
O25	O	0.844525	-0.220795	-0.000002
N26	N	0.984796	-0.232333	0.000022
C27	C	1.060174	-0.263308	0.000021
O28	O	1.125113	-0.242140	0.000018
C29	C	1.056654	-0.464982	0.000018
C30	C	0.980396	-0.484426	0.000021
C31	C	0.828772	-0.472898	0.000023
C32	C	0.827893	-0.523314	0.000026
C33	C	0.903266	-0.554286	0.000026
C34	C	0.979517	-0.534842	0.000024
C35	C	1.132031	-0.495957	0.000014
C36	C	1.131144	-0.546378	0.000012
C37	C	1.054887	-0.565822	0.000015
C38	C	1.054011	-0.616229	0.000028
N39	N	0.977758	-0.635676	0.000025
C40	C	0.902385	-0.604704	0.000025
C41	C	1.062017	-0.157426	0.000024
C42	C	1.062897	-0.107008	0.000026
C43	C	0.911266	-0.095482	0.000023
C44	C	0.910386	-0.145902	0.000025
C45	C	0.985764	-0.176873	0.000022
C46	C	0.900545	-0.710581	0.000031
C47	C	0.899673	-0.761002	0.000036
C48	C	1.051304	-0.772523	0.000036
C49	C	1.052176	-0.722107	0.000034
C50	C	0.976790	-0.691137	0.000030
O51	O	1.117995	-0.647242	0.000044
O52	O	0.837456	-0.625882	0.000017
C53	C	0.905903	-0.403039	0.000018
C54	C	0.982154	-0.383594	0.000015
C55	C	1.057527	-0.414566	0.000016
C56	C	0.983035	-0.333176	0.000017
C57	C	0.907662	-0.302204	0.000016
C58	C	0.831409	-0.321651	0.000014
C59	C	0.830530	-0.372067	0.000017
C60	C	1.133780	-0.395119	0.000018
C61	C	1.134652	-0.344703	0.000016
C62	C	1.059280	-0.313731	0.000015
C63	C	1.133334	0.062442	0.000037
C64	C	1.225618	0.063381	0.000037
C65	C	0.974089	0.154368	0.000035
C66	C	0.975045	0.208026	0.000037
N67	N	0.981207	0.065993	0.120794
N68	N	0.981370	0.065993	-0.120728
C69	C	0.924325	0.098849	0.526761
C70	C	0.924285	0.098849	0.313102
O71	O	0.875823	0.126780	0.285483
N72	N	0.981233	0.065992	0.286378
C73	C	1.038192	0.033130	0.313072
O74	O	1.086623	0.005179	0.285439
C75	C	1.038227	0.033128	0.526730
C76	C	0.981281	0.065991	0.553451
C77	C	0.867383	0.131709	0.553482
C78	C	0.867397	0.131711	0.606894
C79	C	0.924352	0.098852	0.633584
C80	C	0.981294	0.065992	0.606862
C81	C	1.095181	0.000264	0.553422
C82	C	1.095183	0.000265	0.606840
C83	C	1.038237	0.033128	0.633561
C84	C	1.038264	0.033135	0.686964
N85	N	0.981316	0.065992	0.713688
C86	C	0.924360	0.098851	0.686998
C87	C	1.038170	0.033134	0.200899
C88	C	1.038162	0.033135	0.147484
C89	C	0.924255	0.098854	0.147519
C90	C	0.924267	0.098855	0.200934
C91	C	0.981222	0.065991	0.227623
C92	C	0.924393	0.098852	0.799166
C93	C	0.924414	0.098852	0.852582
C94	C	1.038319	0.033131	0.852543
C95	C	1.038301	0.033132	0.799132
C96	C	0.981331	0.065995	0.772444
O97	O	1.086694	0.005216	0.714616
O98	O	0.875924	0.126790	0.714640
C99	C	0.924312	0.098848	0.473350
C100	C	0.981254	0.065988	0.446628
C101	C	1.038209	0.033129	0.473318
C102	C	0.981246	0.065989	0.393214
C103	C	0.924290	0.098847	0.366524
C104	C	0.867342	0.131705	0.393248
C105	C	0.867356	0.131706	0.446660
C106	C	1.095157	0.000272	0.446594
C107	C	1.095140	0.000273	0.393182
C108	C	1.038184	0.033132	0.366492
H109	H	0.837572	-0.776830	0.000041
H110	H	0.849895	-0.070256	0.000025
N111	N	1.096341	-0.000435	0.120200
N112	N	1.147181	-0.029772	0.144044
H113	H	1.188267	-0.053486	0.124776
N114	N	1.208151	-0.578007	0.000005
N115	N	1.276226	-0.560635	0.000002
H116	H	1.330613	-0.582972	-0.000002
N117	N	1.153426	-0.033268	0.526144
N118	N	1.204311	-0.062576	0.549991
H119	H	1.245476	-0.086246	0.530727
H120	H	1.112670	-0.797749	0.000039
N121	N	0.754426	-0.290001	0.000007
N122	N	0.738040	-0.260582	-0.035766
H123	H	0.683674	-0.238227	-0.035774
N124	N	1.096481	-0.000438	0.879815
N125	N	1.095903	-0.045116	0.873860
H126	H	1.136976	-0.068826	0.893123
H127	H	1.195158	-0.420332	0.000018
H128	H	0.820985	0.158466	0.468412
H129	H	0.878003	0.125611	0.777443
N130	N	0.809204	0.165272	0.526216
N131	N	0.757783	0.149936	0.496425
H132	H	0.716694	0.173644	0.477169
N133	N	1.212554	-0.324846	0.000004
N134	N	1.229983	-0.298004	-0.035772
H135	H	1.284999	-0.283981	-0.035785
N136	N	0.809174	0.165270	0.365971
N137	N	0.809181	0.165260	0.318281
H138	H	0.768101	0.188962	0.299013
N139	N	0.372484	0.154118	0.000042
N140	N	0.401850	0.193827	0.000043
H141	H	0.363027	0.225280	0.000049
N142	N	0.590098	-0.022134	0.000034
N143	N	0.560738	-0.061844	0.000033
H144	H	0.599566	-0.093296	0.000037
H145	H	0.877896	0.125614	0.222687
N146	N	1.209935	-0.476112	0.000011
N147	N	1.277219	-0.503780	0.000007
H148	H	1.332244	-0.489767	0.000004
N149	N	1.096357	-0.000442	0.228149
N150	N	1.147195	-0.029774	0.204276
H151	H	1.188292	-0.053486	0.223519
H152	H	0.839158	-0.685371	0.000028
N153	N	0.749990	-0.543163	0.000025
N154	N	0.682705	-0.515497	0.000022
H155	H	0.627681	-0.529511	0.000019
H156	H	0.767391	-0.447686	0.000021
N157	N	0.832485	-0.165753	0.000032
N158	N	0.765197	-0.138088	0.000036
H159	H	0.710175	-0.152105	0.000040
H160	H	0.540928	0.146691	0.000034
H161	H	1.114272	-0.706275	0.000039
H162	H	1.124994	-0.091182	0.000031
H163	H	0.421634	-0.014700	0.000036
N164	N	1.139027	-0.189052	0.000019
N165	N	1.207098	-0.171677	0.000020
H166	H	1.261488	-0.194010	0.000018
H167	H	0.768433	-0.387893	0.000020
H168	H	0.878042	0.125614	0.874337
N169	N	0.866085	0.132418	0.120242
N170	N	0.866094	0.132410	0.072552
H171	H	0.825011	0.156111	0.053285
H172	H	0.821024	0.158469	0.628647
H173	H	1.141562	-0.026498	0.628568
N174	N	1.096349	-0.000512	0.771841
N175	N	1.147111	-0.029898	0.795681
H176	H	1.188053	-0.053693	0.776411
N177	N	1.153327	-0.033297	0.365898
N178	N	1.204174	-0.062631	0.389742
H179	H	1.245265	-0.086341	0.370474
H180	H	1.141537	-0.026486	0.468321
