data_functionalizedCrystal
_audit_creation_method	'MofGen! by Chris Wilmer'
_symmetry_space_group_name_H-M	'P1'
_symmetry_Int_Tables_number	1
_symmetry_cell_setting	triclinic
loop_
_symmetry_equiv_pos_as_xyz
  x,y,z
_cell_length_a	19.077399
_cell_length_b	21.295417
_cell_length_c	19.076919
_cell_angle_alpha	92.267699
_cell_angle_beta	94.479523
_cell_angle_gamma	92.329336
loop_
_atom_site_label
_atom_site_type_symbol
_atom_site_fract_x
_atom_site_fract_y
_atom_site_fract_z
Zn1	Zn	1.061654	-0.225250	-0.355379
Zn2	Zn	1.066299	-0.326116	-0.237492
Zn3	Zn	0.948509	-0.225267	-0.242234
Zn4	Zn	0.943726	-0.334890	-0.360060
O5	O	1.005047	-0.277881	-0.298791
O6	O	1.160919	-0.234951	-0.335798
O7	O	1.054619	-0.309073	-0.139474
O8	O	0.963575	-0.137174	-0.257268
O9	O	1.164331	-0.309057	-0.249187
O10	O	1.046702	-0.137161	-0.340395
O11	O	0.968079	-0.234980	-0.142958
O12	O	0.849226	-0.243488	-0.261807
O13	O	0.955424	-0.324011	-0.458086
O14	O	0.845712	-0.324027	-0.348374
O15	O	1.042065	-0.243459	-0.454647
O16	O	1.049982	-0.415370	-0.253726
O17	O	0.959928	-0.421817	-0.343776
C18	C	0.821890	-0.284712	-0.306113
C19	C	0.743535	-0.287650	-0.309262
C20	C	1.004958	-0.441434	-0.298759
C21	C	1.004984	-0.511402	-0.298767
C22	C	0.708529	-0.247040	-0.265745
C23	C	0.634905	-0.249806	-0.268703
C24	C	0.596288	-0.293180	-0.315183
C25	C	0.631300	-0.333795	-0.358702
C26	C	0.704922	-0.331031	-0.355740
C27	C	0.375907	-0.305951	-0.328866
C28	C	0.302280	-0.308711	-0.331827
C29	C	0.305890	-0.224723	-0.241826
C30	C	0.379514	-0.221960	-0.238871
C31	C	0.414519	-0.262577	-0.282387
N32	N	0.521033	-0.296008	-0.318210
N33	N	0.489773	-0.259752	-0.279356
C34	C	1.048241	-0.544207	-0.342084
C35	C	1.048266	-0.609949	-0.342101
C36	C	1.005040	-0.642883	-0.298786
C37	C	0.961775	-0.610070	-0.255466
C38	C	0.961746	-0.544329	-0.255456
N39	N	1.002197	-0.744037	-0.237306
N40	N	1.002228	-0.806488	-0.237317
C41	C	1.005122	-0.840956	-0.298815
N42	N	1.007997	-0.810613	-0.360302
N43	N	1.007969	-0.748156	-0.360290
C44	C	1.005066	-0.714167	-0.298793
C45	C	1.048407	-0.945046	-0.342154
C46	C	1.048426	-1.010790	-0.342172
C47	C	0.961939	-1.010909	-0.255531
C48	C	0.961916	-0.945167	-0.255519
C49	C	1.005154	-0.912239	-0.298830
C50	C	1.188919	-0.271023	-0.291441
C51	C	1.267274	-0.268101	-0.288309
C52	C	0.997693	-0.284712	-0.482660
C53	C	0.994559	-0.287622	-0.561014
C54	C	1.005154	-0.113688	-0.298838
C55	C	1.005200	-0.043719	-0.298858
C56	C	1.038194	-0.247053	-0.596035
C57	C	1.035241	-0.249786	-0.669657
C58	C	0.988656	-0.293092	-0.708256
C59	C	0.945017	-0.333664	-0.673230
C60	C	0.947967	-0.330927	-0.599609
C61	C	0.974993	-0.305771	-0.928631
C62	C	0.972048	-0.308506	-1.002256
C63	C	1.062272	-0.224627	-0.998678
C64	C	1.065221	-0.221896	-0.925056
C65	C	1.021579	-0.262466	-0.890036
N66	N	0.985638	-0.295888	-0.783510
N67	N	1.024594	-0.259666	-0.814784
C68	C	1.012413	-0.271029	-0.115636
C69	C	1.015683	-0.267936	-0.037278
H70	H	0.739965	-0.211716	-0.227901
C71	C	0.899975	-0.375558	-0.561080
C72	C	0.846675	-0.348465	-0.512683
C73	C	0.798681	-0.393096	-0.474153
C74	C	0.803986	-0.464820	-0.484020
C75	C	0.857288	-0.491916	-0.532419
C76	C	0.905282	-0.447286	-0.570949
H77	H	0.842746	-0.295367	-0.505376
H78	H	0.759224	-0.373037	-0.438324
H79	H	0.768458	-0.497858	-0.455498
H80	H	0.861217	-0.545014	-0.539726
H81	H	0.944739	-0.467345	-0.606778
C82	C	0.596406	-0.205137	-0.220823
C83	C	0.606320	-0.133421	-0.226305
C84	C	0.567826	-0.088753	-0.178415
C85	C	0.519418	-0.115801	-0.125042
C86	C	0.509502	-0.187521	-0.119558
C87	C	0.547996	-0.232189	-0.167448
H88	H	0.642157	-0.113395	-0.265817
H89	H	0.575167	-0.035661	-0.182476
H90	H	0.490922	-0.082735	-0.089591
H91	H	0.473665	-0.207547	-0.080046
H92	H	0.540655	-0.285281	-0.163387
C93	C	0.914388	-1.047127	-0.207884
C94	C	0.947207	-1.089120	-0.151347
C95	C	0.899651	-1.125341	-0.103701
C96	C	0.819276	-1.119567	-0.112593
C97	C	0.786453	-1.077571	-0.169133
C98	C	0.834009	-1.041351	-0.216779
H99	H	1.006709	-1.093396	-0.144762
H100	H	0.923949	-1.156429	-0.061847
H101	H	0.784072	-1.146380	-0.077323
H102	H	0.726950	-1.073296	-0.175718
H103	H	0.809710	-1.010263	-0.258633
H104	H	0.926695	-0.918455	-0.220243
H105	H	0.934111	-0.343772	-1.033682
C106	C	0.588822	-0.381506	-0.409832
C107	C	0.539403	-0.431645	-0.381225
C108	C	0.496927	-0.479355	-0.432358
C109	C	0.503871	-0.476926	-0.512098
C110	C	0.553292	-0.426785	-0.540709
C111	C	0.595768	-0.379075	-0.489576
H112	H	0.534261	-0.433445	-0.322193
H113	H	0.460342	-0.516473	-0.411177
H114	H	0.472427	-0.512244	-0.549949
H115	H	0.558434	-0.424985	-0.599741
H116	H	0.632353	-0.341957	-0.510756
C117	C	1.110270	-0.179997	-1.037201
C118	C	1.107028	-0.183001	-1.118181
C119	C	1.155026	-0.138368	-1.156703
C120	C	1.206266	-0.090730	-1.114246
C121	C	1.209510	-0.087725	-1.033262
C122	C	1.161512	-0.132358	-0.994740
H123	H	1.069095	-0.218267	-1.149615
H124	H	1.152624	-0.140593	-1.216654
H125	H	1.241797	-0.057690	-1.142763
H126	H	1.247443	-0.052459	-1.001828
H127	H	1.163914	-0.130133	-0.934789
H128	H	0.410951	-0.186645	-0.201017
C129	C	1.083245	-0.205159	-0.708177
C130	C	1.136543	-0.232254	-0.756575
C131	C	1.184549	-0.187625	-0.795092
C132	C	1.179258	-0.115900	-0.785213
C133	C	1.125957	-0.088802	-0.736814
C134	C	1.077951	-0.133431	-0.698296
H135	H	1.140462	-0.285352	-0.763890
H136	H	1.224006	-0.207685	-0.830921
H137	H	1.214795	-0.082863	-0.813726
H138	H	1.122038	-0.035704	-0.729498
H139	H	1.038495	-0.113371	-0.662467
C140	C	0.926980	-0.350401	-0.890130
C141	C	0.846442	-0.348621	-0.903480
C142	C	0.798421	-0.393255	-0.864984
C143	C	0.830938	-0.439670	-0.813138
C144	C	0.911481	-0.441452	-0.799786
C145	C	0.959502	-0.396817	-0.838282
H146	H	0.822367	-0.314261	-0.941862
H147	H	0.738798	-0.391936	-0.874869
H148	H	0.795390	-0.472710	-0.784641
H149	H	0.935556	-0.475812	-0.761404
H150	H	1.019125	-0.398137	-0.828397
C151	C	0.914166	-0.508239	-0.207798
C152	C	0.914138	-0.435927	-0.207783
C153	C	0.866559	-0.399835	-0.160123
C154	C	0.819008	-0.436056	-0.112478
C155	C	0.819034	-0.508372	-0.112491
C156	C	0.866613	-0.544464	-0.160152
H157	H	0.949339	-0.409111	-0.243054
H158	H	0.866539	-0.346302	-0.160113
H159	H	0.783787	-0.409338	-0.077197
H160	H	0.783833	-0.535188	-0.077220
H161	H	0.866633	-0.597997	-0.160161
C162	C	0.259800	-0.356429	-0.382953
C163	C	0.298301	-0.401109	-0.430817
C164	C	0.255821	-0.448824	-0.481941
C165	C	0.174840	-0.451859	-0.485200
C166	C	0.136333	-0.407178	-0.437334
C167	C	0.178813	-0.359463	-0.386211
H168	H	0.358253	-0.398864	-0.428406
H169	H	0.284327	-0.481900	-0.517374
H170	H	0.143393	-0.487181	-0.523045
H171	H	0.076382	-0.409423	-0.439746
H172	H	0.150308	-0.326387	-0.350777
H173	H	0.277381	-0.191656	-0.206397
H174	H	0.404399	-0.339025	-0.364300
H175	H	0.733423	-0.364100	-0.391176
H176	H	1.083612	-0.918235	-0.377423
H177	H	1.103157	-0.186633	-0.893634
H178	H	1.083446	-0.517399	-0.377352
H179	H	1.083485	-0.636665	-0.377384
C180	C	0.914228	-0.646295	-0.207818
C181	C	0.947052	-0.688285	-0.151280
C182	C	0.899501	-0.724509	-0.103634
C183	C	0.819125	-0.718743	-0.112525
C184	C	0.786296	-0.676751	-0.169066
C185	C	0.833847	-0.640527	-0.216712
H186	H	1.006555	-0.692555	-0.144696
H187	H	0.923803	-0.755594	-0.061778
H188	H	0.783924	-0.745558	-0.077255
H189	H	0.726793	-0.672481	-0.175650
H190	H	0.809545	-0.609441	-0.258568
C191	C	1.096014	-1.046880	-0.389822
C192	C	1.063235	-1.095275	-0.446377
C193	C	1.110825	-1.131367	-0.494026
C194	C	1.191193	-1.119064	-0.485120
C195	C	1.223976	-1.070667	-0.428563
C196	C	1.176386	-1.034575	-0.380914
H197	H	1.003738	-1.104384	-0.452971
H198	H	1.086556	-1.167194	-0.535893
H199	H	1.226421	-1.145781	-0.520393
H200	H	1.283473	-1.061557	-0.421969
H201	H	1.200655	-0.998748	-0.339047
H202	H	1.076131	-0.211790	-0.564613
H203	H	0.907084	-0.368922	-0.704663
