data_functionalizedCrystal
_audit_creation_method	'MofGen! by Chris Wilmer'
_symmetry_space_group_name_H-M	'P1'
_symmetry_Int_Tables_number	1
_symmetry_cell_setting	triclinic
loop_
_symmetry_equiv_pos_as_xyz
  x,y,z
_cell_length_a	16.109301
_cell_length_b	19.288864
_cell_length_c	18.366186
_cell_angle_alpha	89.977071
_cell_angle_beta	90.006550
_cell_angle_gamma	96.701137
loop_
_atom_site_label
_atom_site_type_symbol
_atom_site_fract_x
_atom_site_fract_y
_atom_site_fract_z
O1	O	0.103714	-0.921601	0.060785
O2	O	0.437048	-0.588267	0.394119
O3	O	0.770381	-0.254934	0.727452
O4	O	0.117706	-0.719373	0.060736
O5	O	0.451039	-0.386040	0.394069
O6	O	0.784372	-0.052707	0.727403
O7	O	-0.010340	-0.826042	0.060755
O8	O	0.322993	-0.492709	0.394088
O9	O	0.656327	-0.159376	0.727421
O10	O	0.231760	-0.814932	0.060767
O11	O	0.565093	-0.481598	0.394100
O12	O	0.898427	-0.148265	0.727433
O13	O	-0.010343	-0.826024	-0.060345
O14	O	0.322990	-0.492690	0.272989
O15	O	0.656323	-0.159357	0.606322
O16	O	0.117702	-0.719355	-0.060363
O17	O	0.451035	-0.386022	0.272970
O18	O	0.784369	-0.052688	0.606303
O19	O	0.103711	-0.921582	-0.060314
O20	O	0.437044	-0.588249	0.273019
O21	O	0.770378	-0.254915	0.606353
Zn22	Zn	0.110706	-0.820466	-0.079566
Zn23	Zn	0.444039	-0.487132	0.253768
Zn24	Zn	0.777373	-0.153799	0.587101
Zn25	Zn	0.110711	-0.820490	0.079988
Zn26	Zn	0.444044	-0.487157	0.413321
Zn27	Zn	0.777377	-0.153823	0.746655
O28	O	0.231756	-0.814913	-0.060333
O29	O	0.565090	-0.481580	0.273001
O30	O	0.898423	-0.148246	0.606334
C31	C	0.117254	-0.693487	0.000180
C32	C	0.450587	-0.360153	0.333513
C33	C	0.783920	-0.026820	0.666847
C34	C	0.115902	-0.616380	0.000161
C35	C	0.449236	-0.283046	0.333494
C36	C	0.782569	0.050287	0.666827
C37	C	-0.041315	-0.825583	0.000205
C38	C	0.292018	-0.492250	0.333538
C39	C	0.625352	-0.158916	0.666871
C40	C	-0.133606	-0.824234	0.000203
C41	C	0.199728	-0.490900	0.333536
C42	C	0.533061	-0.157567	0.666870
N43	N	0.110702	-0.820454	-0.188457
N44	N	0.444036	-0.487121	0.144876
N45	N	0.777369	-0.153787	0.478210
C46	C	-0.356084	-0.884391	0.000229
C47	C	-0.022751	-0.551058	0.333563
C48	C	0.310583	-0.217725	0.666896
C49	C	-0.442800	-0.883118	0.000235
C50	C	-0.109467	-0.549785	0.333568
C51	C	0.223867	-0.216452	0.666902
C52	C	-0.422493	-0.756559	0.000201
C53	C	-0.089159	-0.423226	0.333535
C54	C	0.244174	-0.089892	0.666868
C55	C	-0.335778	-0.757833	0.000201
C56	C	-0.002445	-0.424500	0.333534
C57	C	0.330888	-0.091166	0.666867
C58	C	-0.302577	-0.821751	0.000211
C59	C	0.030757	-0.488418	0.333544
C60	C	0.364090	-0.155085	0.666878
C61	C	-0.476007	-0.819204	0.000217
C62	C	-0.142674	-0.485871	0.333551
C63	C	0.190660	-0.152537	0.666884
C64	C	-0.570028	-0.817823	0.000223
C65	C	-0.236695	-0.484490	0.333557
C66	C	0.096638	-0.151156	0.666890
C67	C	-0.208549	-0.823133	0.000206
C68	C	0.124784	-0.489799	0.333540
C69	C	0.458117	-0.156466	0.666873
C70	C	0.262732	-0.815372	0.000219
C71	C	0.596065	-0.482039	0.333552
C72	C	0.929398	-0.148706	0.666886
C73	C	0.355022	-0.816722	0.000225
C74	C	0.688356	-0.483388	0.333559
C75	C	1.021689	-0.150055	0.666892
C76	C	0.104163	-0.947469	0.000244
C77	C	0.437496	-0.614136	0.333577
C78	C	0.770830	-0.280802	0.666910
C79	C	0.105514	-1.024576	0.000268
C80	C	0.438848	-0.691242	0.333601
C81	C	0.772181	-0.357909	0.666934
C82	C	0.191034	-0.571863	0.000176
C83	C	0.524367	-0.238530	0.333509
C84	C	0.857700	0.094804	0.666843
C85	C	0.189764	-0.499413	0.000184
C86	C	0.523097	-0.166079	0.333517
C87	C	0.856431	0.167254	0.666851
C88	C	0.113359	-0.471483	0.000191
C89	C	0.446692	-0.138149	0.333525
C90	C	0.780025	0.195184	0.666858
C91	C	0.038218	-0.516009	0.000172
C92	C	0.371551	-0.182676	0.333505
C93	C	0.704884	0.150657	0.666839
C94	C	0.039489	-0.588458	0.000157
C95	C	0.372823	-0.255125	0.333490
C96	C	0.706156	0.078209	0.666823
C97	C	0.053297	-0.363084	0.042639
C98	C	0.386630	-0.029751	0.375973
C99	C	0.719964	0.303583	0.709306
C100	C	0.052028	-0.290636	0.042659
C101	C	0.385362	0.042697	0.375992
C102	C	0.718695	0.376030	0.709326
C103	C	0.109433	-0.248028	0.000235
C104	C	0.442766	0.085306	0.333569
C105	C	0.776100	0.418639	0.666902
C106	C	0.168121	-0.277874	-0.042199
C107	C	0.501454	0.055459	0.291134
C108	C	0.834787	0.388792	0.624468
C109	C	0.169392	-0.350323	-0.042214
C110	C	0.502726	-0.016989	0.291119
C111	C	0.836059	0.316344	0.624452
C112	C	0.111971	-0.392925	0.000207
C113	C	0.445305	-0.059592	0.333541
C114	C	0.778638	0.273741	0.666874
C115	C	0.183193	-0.124952	0.000258
C116	C	0.516526	0.208382	0.333591
C117	C	0.849860	0.541715	0.666925
C118	C	0.181920	-0.052501	0.000262
C119	C	0.515254	0.280833	0.333595
C120	C	0.848587	0.614166	0.666928
C121	C	0.030372	-0.069099	0.000257
C122	C	0.363705	0.264234	0.333590
C123	C	0.697038	0.597568	0.666924
C124	C	0.031647	-0.141548	0.000246
C125	C	0.364980	0.191785	0.333579
C126	C	0.698313	0.525118	0.666913
C127	C	0.108060	-0.169470	0.000250
C128	C	0.441393	0.163863	0.333583
C129	C	0.774726	0.497196	0.666917
C130	C	0.161004	-0.862562	-0.226538
C131	C	0.494337	-0.529228	0.106796
C132	C	0.827670	-0.195895	0.440129
C133	C	0.161001	-0.862573	-0.302766
C134	C	0.494335	-0.529240	0.030568
C135	C	0.827668	-0.195906	0.363901
C136	C	0.110707	-0.820464	-0.340910
C137	C	0.444041	-0.487130	-0.007576
C138	C	0.777374	-0.153797	0.325757
C139	C	0.060396	-0.778353	-0.302820
C140	C	0.393729	-0.445020	0.030514
C141	C	0.727062	-0.111687	0.363847
C142	C	0.060393	-0.778349	-0.226593
C143	C	0.393727	-0.445015	0.106740
C144	C	0.727060	-0.111682	0.440073
C145	C	0.108604	-0.757847	-0.461706
C146	C	0.441938	-0.424514	-0.128373
C147	C	0.775271	-0.091180	0.204960
C148	C	0.108613	-0.757850	-0.537931
C149	C	0.441946	-0.424517	-0.204598
C150	C	0.775280	-0.091184	0.128735
C151	C	0.110710	-0.820479	-0.576017
C152	C	0.444043	-0.487146	-0.242684
C153	C	0.777377	-0.153813	0.090649
C154	C	0.112816	-0.883106	-0.537869
C155	C	0.446150	-0.549773	-0.204535
C156	C	0.779483	-0.216439	0.128798
C157	C	0.112814	-0.883101	-0.461642
C158	C	0.446147	-0.549768	-0.128309
C159	C	0.779480	-0.216434	0.205024
C160	C	0.110704	-0.820465	-0.423564
C161	C	0.444037	-0.487131	-0.090231
C162	C	0.777371	-0.153798	0.243102
C163	C	0.161011	-0.862603	-0.696753
C164	C	0.494345	-0.529270	-0.363420
C165	C	0.827678	-0.195936	-0.030086
C166	C	0.161003	-0.862616	-0.772982
C167	C	0.494337	-0.529282	-0.439649
C168	C	0.827670	-0.195949	-0.106315
C169	C	0.060403	-0.778390	-0.773035
C170	C	0.393736	-0.445056	-0.439702
C171	C	0.727069	-0.111723	-0.106368
C172	C	0.060406	-0.778383	-0.696807
C173	C	0.393739	-0.445050	-0.363474
C174	C	0.727073	-0.111717	-0.030140
C175	C	0.110715	-0.820489	-0.658671
C176	C	0.444048	-0.487155	-0.325337
C177	C	0.777382	-0.153822	0.007996
N178	N	0.110708	-0.820507	0.188879
N179	N	0.444041	-0.487174	0.522212
N180	N	0.777374	-0.153840	0.855546
H181	H	-0.329054	-0.936438	0.000239
H182	H	0.004279	-0.603104	0.333573
H183	H	0.337612	-0.269771	0.666906
H184	H	-0.449537	-0.704519	0.000191
H185	H	-0.116203	-0.371186	0.333525
H186	H	0.217130	-0.037852	0.666858
F187	F	0.115049	-0.949766	-0.578396
F188	F	0.448382	-0.616433	-0.245063
F189	F	0.781715	-0.283099	0.088270
F190	F	-0.048320	-0.188929	0.000234
F191	F	0.285014	0.144405	0.333567
F192	F	0.618347	0.477738	0.666900
F193	F	0.229220	-0.232533	-0.087353
F194	F	0.562554	0.100801	0.245980
F195	F	0.895887	0.434134	0.579314
F196	F	-0.499743	-0.949789	0.000256
F197	F	-0.166410	-0.616455	0.333589
F198	F	0.166923	-0.283122	0.666923
F199	F	0.231847	-0.382085	-0.087377
F200	F	0.565181	-0.048752	0.245957
F201	F	0.898514	0.284581	0.579290
F202	F	0.269732	-0.452026	0.000198
F203	F	0.603065	-0.118692	0.333532
F204	F	0.936399	0.214641	0.666865
F205	F	-0.010424	-0.258878	0.087827
F206	F	0.322909	0.074456	0.421161
F207	F	0.656242	0.407789	0.754494
F208	F	0.261890	-0.005121	0.000274
F209	F	0.595223	0.328212	0.333607
F210	F	0.928556	0.661545	0.666941
H211	H	-0.292210	-0.706821	0.000188
H212	H	0.041123	-0.373487	0.333521
H213	H	0.374457	-0.040154	0.666855
H214	H	0.006549	-0.397771	0.077190
H215	H	0.339883	-0.064437	0.410524
H216	H	0.673216	0.268896	0.743857
H217	H	0.114527	-0.934094	-0.430585
H218	H	0.447860	-0.600761	-0.097252
H219	H	0.781193	-0.267427	0.236081
F220	F	0.272359	-0.601575	0.000178
F221	F	0.605693	-0.268242	0.333511
F222	F	0.939026	0.065092	0.666845
F223	F	0.264517	-0.154671	0.000257
F224	F	0.597850	0.178663	0.333590
F225	F	0.931184	0.511996	0.666923
F226	F	-0.050945	-0.039379	0.000258
F227	F	0.282388	0.293955	0.333591
F228	F	0.615721	0.627288	0.666924
F229	F	-0.043098	-0.486284	0.000176
F230	F	0.290235	-0.152950	0.333510
F231	F	0.623568	0.180383	0.666843
H232	H	-0.021694	-0.624704	0.000145
H233	H	0.311640	-0.291371	0.333478
H234	H	0.644973	0.041962	0.666811
F235	F	0.214560	-0.907363	-0.185954
F236	F	0.547893	-0.574030	0.147379
F237	F	0.881227	-0.240697	0.480712
F238	F	0.214540	-0.907392	-0.343302
F239	F	0.547873	-0.574059	-0.009969
F240	F	0.881207	-0.240726	0.323365
F241	F	0.214539	-0.907427	-0.656163
F242	F	0.547872	-0.574093	-0.322829
F243	F	0.881206	-0.240760	0.010504
H244	H	0.019451	-0.744104	-0.804091
H245	H	0.352785	-0.410771	-0.470758
H246	H	0.686118	-0.077438	-0.137424
F247	F	0.214540	-0.907438	-0.813510
F248	F	0.547873	-0.574105	-0.480177
F249	F	0.881206	-0.240772	-0.146844
H250	H	0.019445	-0.744068	-0.333882
H251	H	0.352779	-0.410735	-0.000548
H252	H	0.686112	-0.077402	0.332785
F253	F	0.006881	-0.733555	-0.656277
F254	F	0.340214	-0.400221	-0.322944
F255	F	0.673548	-0.066888	0.010390
H256	H	0.106903	-0.706856	-0.568986
H257	H	0.440236	-0.373522	-0.235652
H258	H	0.773569	-0.040189	0.097681
F259	F	0.106318	-0.691191	-0.421180
F260	F	0.439651	-0.357857	-0.087846
F261	F	0.772984	-0.024524	0.245487
F262	F	0.006857	-0.733527	-0.186064
F263	F	0.340190	-0.400193	0.147269
F264	F	0.673524	-0.066860	0.480603
