data_functionalizedCrystal
_audit_creation_method	'MofGen! by Chris Wilmer'
_symmetry_space_group_name_H-M	'P1'
_symmetry_Int_Tables_number	1
_symmetry_cell_setting	triclinic
loop_
_symmetry_equiv_pos_as_xyz
  x,y,z
_cell_length_a	15.944499
_cell_length_b	16.109301
_cell_length_c	14.586319
_cell_angle_alpha	90.005214
_cell_angle_beta	90.000966
_cell_angle_gamma	96.530455
loop_
_atom_site_label
_atom_site_type_symbol
_atom_site_fract_x
_atom_site_fract_y
_atom_site_fract_z
O1	O	1.114515	-0.107022	-0.076148
O2	O	1.614515	0.392978	0.423852
O3	O	0.869955	-0.120287	-0.076171
O4	O	1.369955	0.379713	0.423829
O5	O	0.998953	0.007375	-0.076150
O6	O	1.498953	0.507375	0.423850
O7	O	0.985516	-0.234685	-0.076170
O8	O	1.485516	0.265315	0.423830
O9	O	0.998944	0.007377	0.076331
O10	O	1.498944	0.507377	0.576331
O11	O	0.869946	-0.120286	0.076310
O12	O	1.369946	0.379714	0.576310
O13	O	1.114506	-0.107020	0.076333
O14	O	1.614506	0.392980	0.576333
Cu15	Cu	0.992225	-0.113653	0.090244
Cu16	Cu	1.492225	0.386347	0.590244
Cu17	Cu	0.992236	-0.113655	-0.090082
Cu18	Cu	1.492236	0.386345	0.409918
O19	O	0.985508	-0.234683	0.076311
O20	O	1.485508	0.265317	0.576311
C21	C	0.838656	-0.119743	0.000066
C22	C	1.338656	0.380257	0.500066
C23	C	0.745408	-0.118115	0.000058
C24	C	1.245408	0.381885	0.500058
C25	C	0.998404	0.038351	0.000091
C26	C	1.498404	0.538351	0.500091
C27	C	0.996772	0.130647	0.000092
C28	C	1.496772	0.630647	0.500092
C29	C	1.145805	-0.107565	0.000093
C30	C	1.645805	0.392435	0.500093
C31	C	1.239053	-0.109193	0.000096
C32	C	1.739053	0.390807	0.500096
C33	C	1.530613	-0.035024	0.000084
C34	C	2.030613	0.464976	0.500084
C35	C	1.469572	-0.073580	-0.075101
C36	C	1.969572	0.426420	0.424899
C37	C	1.574687	-0.115108	0.000069
C38	C	2.074687	0.384892	0.500069
C39	C	1.469585	-0.073599	0.075233
C40	C	1.969585	0.426401	0.575233
C41	C	1.409779	-0.112197	0.000084
C42	C	1.909779	0.387803	0.500084
C43	C	1.514874	-0.153686	-0.075178
C44	C	2.014874	0.346314	0.424822
C45	C	1.514893	-0.153694	0.075223
C46	C	2.014893	0.346306	0.575223
C47	C	1.453869	-0.192308	0.000020
C48	C	1.953869	0.307692	0.500020
C49	C	1.669687	-0.116782	0.000060
C50	C	2.169687	0.383218	0.500060
C51	C	1.314781	-0.110529	0.000086
C52	C	1.814781	0.389471	0.500086
C53	C	0.986056	-0.265659	0.000068
C54	C	1.486056	0.234341	0.500068
C55	C	0.987688	-0.357954	0.000061
C56	C	1.487688	0.142046	0.500061
N57	N	0.992224	-0.113651	0.217076
N58	N	1.492224	0.386349	0.717076
C59	C	1.069523	0.352909	0.000085
C60	C	1.569523	0.852909	0.500085
C61	C	1.067984	0.439629	0.000077
C62	C	1.567984	0.939629	0.500077
C63	C	0.914931	0.419776	0.000066
C64	C	1.414931	0.919776	0.500066
C65	C	0.916472	0.333058	0.000067
C66	C	1.416472	0.833058	0.500067
C67	C	0.993770	0.299626	0.000081
C68	C	1.493770	0.799626	0.500081
C69	C	0.990690	0.473066	0.000072
C70	C	1.490690	0.973066	0.500072
C71	C	0.989020	0.567092	0.000064
C72	C	1.489020	1.067092	0.500064
C73	C	0.995441	0.205594	0.000088
C74	C	1.495441	0.705594	0.500088
N75	N	0.992244	-0.113651	-0.216914
N76	N	1.492244	0.386349	0.283086
C77	C	1.049363	-0.057141	0.452092
C78	C	1.549363	0.442859	0.952092
C79	C	1.049365	-0.057139	0.548073
C80	C	1.549365	0.442861	1.048073
C81	C	0.935098	-0.170163	0.548063
C82	C	1.435098	0.329837	1.048063
C83	C	0.935092	-0.170161	0.452084
C84	C	1.435092	0.329839	0.952084
C85	C	0.992230	-0.113650	0.404100
C86	C	1.492230	0.386350	0.904100
C87	C	0.992238	-0.113651	0.596061
C88	C	1.492238	0.386349	1.096061
C89	C	0.992240	-0.113649	0.700128
C90	C	1.492240	0.386351	1.200128
C91	C	0.992226	-0.113651	0.300027
C92	C	1.492226	0.386349	0.800027
H93	H	1.563992	0.031427	-0.000002
H94	H	2.063992	0.531427	0.499998
C95	C	0.872276	-0.232367	0.399290
C96	C	1.372276	0.267633	0.899290
N97	N	0.824977	-0.279231	0.359526
N98	N	1.324977	0.220769	0.859526
H99	H	0.851998	0.447007	0.000057
H100	H	1.351998	0.947007	0.500057
H101	H	1.095886	-0.011125	0.413026
H102	H	1.595886	0.488875	0.913026
H103	H	1.449490	-0.039707	-0.138658
H104	H	1.949490	0.460293	0.361342
C105	C	1.442478	-0.027821	0.161103
C106	C	1.942478	0.472179	0.661103
N107	N	1.422065	0.006664	0.225776
N108	N	1.922065	0.506664	0.725776
H109	H	0.854781	0.289672	0.000062
H110	H	1.354781	0.789672	0.500062
H111	H	1.534841	-0.187533	-0.138811
H112	H	2.034841	0.312467	0.361189
H113	H	1.095888	-0.011122	0.587145
H114	H	1.595888	0.488878	1.087145
H115	H	0.888579	-0.216174	0.587141
H116	H	1.388579	0.283826	1.087141
H117	H	1.534997	-0.187539	0.138783
H118	H	2.034997	0.312461	0.638783
C119	C	1.154553	0.316138	0.000090
C120	C	1.654553	0.816138	0.500090
N121	N	1.218601	0.288444	0.000090
N122	N	1.718601	0.788444	0.500090
H123	H	1.129669	0.483009	0.000078
H124	H	1.629669	0.983009	0.500078
C125	C	1.409004	-0.282170	-0.000047
C126	C	1.909004	0.217830	0.499953
N127	N	1.375208	-0.349852	-0.000103
N128	N	1.875208	0.150148	0.499897
