data_functionalizedCrystal
_audit_creation_method	'MofGen! by Chris Wilmer'
_symmetry_space_group_name_H-M	'P1'
_symmetry_Int_Tables_number	1
_symmetry_cell_setting	triclinic
loop_
_symmetry_equiv_pos_as_xyz
  x,y,z
_cell_length_a	6.817900
_cell_length_b	14.125469
_cell_length_c	27.923559
_cell_angle_alpha	96.915826
_cell_angle_beta	98.965071
_cell_angle_gamma	100.398878
loop_
_atom_site_label
_atom_site_type_symbol
_atom_site_fract_x
_atom_site_fract_y
_atom_site_fract_z
V1	V	-3.961012	-0.134481	-0.151079
V2	V	-3.461012	0.365519	0.348921
O3	O	-3.965817	0.005054	-0.148396
O4	O	-3.465817	0.505054	0.351604
O5	O	-3.897552	-0.265298	-0.149860
O6	O	-3.397552	0.234702	0.350140
O7	O	-3.890973	-0.133030	-0.217054
O8	O	-3.390973	0.366970	0.282946
O9	O	-3.972441	-0.128130	-0.080737
O10	O	-3.472441	0.371870	0.419263
V11	V	-4.449395	-0.117718	-0.142688
V12	V	-3.949395	0.382282	0.357312
O13	O	-4.211609	-0.171252	-0.169485
O14	O	-3.711609	0.328748	0.330515
O15	O	-4.648995	-0.080947	-0.124282
O16	O	-4.148995	0.419053	0.375718
O17	O	-4.289648	0.013100	-0.143907
O18	O	-3.789648	0.513100	0.356093
O19	O	-4.561987	-0.257253	-0.145371
O20	O	-4.061987	0.242747	0.354629
O21	O	-4.555363	-0.124069	-0.213030
O22	O	-4.055363	0.375931	0.286970
O23	O	-4.296227	-0.119168	-0.076713
O24	O	-3.796227	0.380832	0.423287
C25	C	-3.739589	-0.297169	-0.147429
C26	C	-3.239589	0.202831	0.352571
C27	C	-3.768845	-0.404119	-0.146872
C28	C	-3.268845	0.095881	0.353128
C29	C	-3.822475	-0.599935	-0.145860
C30	C	-3.322475	-0.099935	0.354140
C31	C	-4.007298	-0.652275	-0.147908
C32	C	-3.507298	-0.152275	0.352092
C33	C	-4.037140	-0.761234	-0.147345
C34	C	-3.537140	-0.261234	0.352655
C35	C	-3.792625	-0.490966	-0.146423
C36	C	-3.292625	0.009034	0.353577
C37	C	-3.731197	-0.128447	-0.233141
C38	C	-3.231197	0.371553	0.266859
C39	C	-3.755117	-0.128126	-0.287075
C40	C	-3.255117	0.371874	0.212925
C41	C	-3.931265	-0.214422	-0.628339
C42	C	-3.431265	0.285578	-0.128339
C43	C	-4.021268	-0.213275	-0.831050
C44	C	-3.521268	0.286725	-0.331050
O45	O	-4.056452	-0.288111	-0.863050
O46	O	-3.556452	0.211889	-0.363050
N47	N	-4.004927	-0.124961	-0.849590
N48	N	-3.504927	0.375039	-0.349590
C49	C	-3.966095	-0.036929	-0.817450
C50	C	-3.466095	0.463071	-0.317450
O51	O	-3.954282	0.038212	-0.837871
O52	O	-3.454282	0.538212	-0.337871
C53	C	-3.876108	-0.038078	-0.614741
C54	C	-3.376108	0.461922	-0.114741
C55	C	-3.892431	-0.126397	-0.596203
C56	C	-3.392431	0.373603	-0.096203
C57	C	-3.947589	-0.302733	-0.609801
C58	C	-3.447589	0.197267	-0.109801
C59	C	-3.925078	-0.303019	-0.559126
C60	C	-3.425078	0.196981	-0.059126
C61	C	-3.886244	-0.214993	-0.526990
C62	C	-3.386244	0.285007	-0.026990
C63	C	-3.869921	-0.126682	-0.545528
C64	C	-3.369921	0.373318	-0.045528
C65	C	-3.837291	0.049953	-0.582601
C66	C	-3.337291	0.549953	-0.082601
C67	C	-3.814800	0.049657	-0.531922
C68	C	-3.314800	0.549657	-0.031922
C69	C	-3.831124	-0.038661	-0.513384
C70	C	-3.331124	0.461339	-0.013384
C71	C	-3.808577	-0.038942	-0.462717
C72	C	-3.308577	0.461058	0.037283
N73	N	-3.824917	-0.127255	-0.444176
N74	N	-3.324917	0.372745	0.055824
C75	C	-3.863751	-0.215281	-0.476313
C76	C	-3.363751	0.284719	0.023687
C77	C	-4.013338	-0.036332	-0.923875
C78	C	-3.513338	0.463668	-0.423875
C79	C	-4.035831	-0.036045	-0.974552
C80	C	-3.535831	0.463955	-0.474552
C81	C	-4.091006	-0.212391	-0.988149
C82	C	-3.591006	0.287609	-0.488149
C83	C	-4.068498	-0.212677	-0.937471
C84	C	-3.568498	0.287323	-0.437471
C85	C	-4.029679	-0.124645	-0.905335
C86	C	-3.529679	0.375355	-0.405335
C87	C	-3.816474	-0.215874	-0.369892
C88	C	-3.316474	0.284126	0.130108
C89	C	-3.793951	-0.216152	-0.319212
C90	C	-3.293951	0.283848	0.180788
C91	C	-3.738789	-0.039807	-0.305620
C92	C	-3.238789	0.460193	0.194380
C93	C	-3.761299	-0.039528	-0.356295
C94	C	-3.261299	0.460472	0.143705
C95	C	-3.800150	-0.127570	-0.388430
C96	C	-3.300150	0.372430	0.111570
O97	O	-3.773413	0.035854	-0.430689
O98	O	-3.273413	0.535854	0.069311
O99	O	-3.875601	-0.290413	-0.455882
O100	O	-3.375601	0.209587	0.044118
C101	C	-3.953776	-0.214136	-0.679014
C102	C	-3.453776	0.285864	-0.179014
C103	C	-3.937452	-0.125825	-0.697552
C104	C	-3.437452	0.374175	-0.197552
C105	C	-3.898618	-0.037800	-0.665416
C106	C	-3.398618	0.462200	-0.165416
C107	C	-3.959945	-0.125538	-0.748229
C108	C	-3.459945	0.374462	-0.248229
C109	C	-3.998779	-0.213563	-0.780366
C110	C	-3.498779	0.286437	-0.280366
C111	C	-4.015120	-0.301876	-0.761825
C112	C	-3.515120	0.198124	-0.261825
C113	C	-3.992610	-0.302162	-0.711150
C114	C	-3.492610	0.197838	-0.211150
C115	C	-3.882277	0.050513	-0.683956
C116	C	-3.382277	0.550513	-0.183956
C117	C	-3.904788	0.050792	-0.734632
C118	C	-3.404788	0.550792	-0.234632
C119	C	-3.943622	-0.037234	-0.766768
C120	C	-3.443622	0.462766	-0.266768
C121	C	-4.110953	0.044966	-0.146337
C122	C	-3.610953	0.544966	0.353663
C123	C	-4.060934	0.151914	-0.146896
C124	C	-3.560934	0.651914	0.353104
C125	C	-4.119346	-0.123755	-0.060623
C126	C	-3.619346	0.376245	0.439377
C127	C	-4.074665	-0.124070	-0.006689
C128	C	-3.574665	0.375930	0.493311
H129	H	-4.143116	-0.615254	-0.150084
H130	H	-3.643116	-0.115254	0.349916
Br131	Br	-4.000298	-0.422213	-0.653406
Br132	Br	-3.500298	0.077787	-0.153406
Br133	Br	-3.947269	-0.422887	-0.533977
Br134	Br	-3.447269	0.077113	-0.033977
Br135	Br	-3.596112	-0.661635	-0.142232
Br136	Br	-3.096112	-0.161635	0.357768
H137	H	-3.807241	-0.288074	-0.304121
H138	H	-3.307241	0.211926	0.195879
H139	H	-4.081791	-0.284593	-0.922381
H140	H	-3.581791	0.215407	-0.422381
Br141	Br	-3.869198	-0.335360	-0.413496
Br142	Br	-3.369198	0.164640	0.086504
H143	H	-4.022510	0.035874	-0.989641
H144	H	-3.522510	0.535874	-0.489641
H145	H	-4.122622	-0.284064	-1.014323
H146	H	-3.622622	0.215936	-0.514323
H147	H	-3.981728	0.035358	-0.897714
H148	H	-3.481728	0.535358	-0.397714
Br149	Br	-3.815122	0.169821	-0.607746
Br150	Br	-3.315122	0.669821	-0.107746
H151	H	-3.783195	0.121345	-0.505758
H152	H	-3.283195	0.621345	-0.005758
Br153	Br	-3.739116	0.080334	-0.381454
Br154	Br	-3.239116	0.580334	0.118546
Br155	Br	-3.686074	0.079651	-0.261997
Br156	Br	-3.186074	0.579651	0.238003
Br157	Br	-4.067825	-0.421338	-0.805449
Br158	Br	-3.567825	0.078662	-0.305449
H159	H	-3.891477	0.122717	-0.749720
H160	H	-3.391477	0.622717	-0.249720
H161	H	-4.005905	-0.374080	-0.696062
H162	H	-3.505905	0.125920	-0.196062
H163	H	-3.850661	0.122196	-0.657795
H164	H	-3.350661	0.622196	-0.157795
