data_functionalizedCrystal
_audit_creation_method	'MofGen! by Chris Wilmer'
_symmetry_space_group_name_H-M	'P1'
_symmetry_Int_Tables_number	1
_symmetry_cell_setting	triclinic
loop_
_symmetry_equiv_pos_as_xyz
  x,y,z
_cell_length_a	19.077068
_cell_length_b	19.077236
_cell_length_c	19.076919
_cell_angle_alpha	89.887323
_cell_angle_beta	94.470751
_cell_angle_gamma	94.708605
loop_
_atom_site_label
_atom_site_type_symbol
_atom_site_fract_x
_atom_site_fract_y
_atom_site_fract_z
Zn1	Zn	-0.256314	1.047584	-0.450390
Zn2	Zn	0.243686	1.547584	0.049610
Zn3	Zn	-0.369471	1.047497	-0.337231
Zn4	Zn	0.130529	1.547497	0.162769
Zn5	Zn	-0.255944	0.934815	-0.328156
Zn6	Zn	0.244056	1.434815	0.171844
Zn7	Zn	-0.378891	0.924923	-0.450332
Zn8	Zn	0.121109	1.424923	0.049668
O9	O	-0.315155	0.988705	-0.391527
O10	O	0.184845	1.488705	0.108473
O11	O	-0.267537	1.146064	-0.439202
O12	O	0.232463	1.646064	0.060798
O13	O	-0.350314	1.036653	-0.237539
O14	O	0.149686	1.536653	0.262461
O15	O	-0.157183	0.953950	-0.340597
O16	O	0.342817	1.453950	0.159403
O17	O	-0.350673	1.146000	-0.356065
O18	O	0.149327	1.646000	0.143935
O19	O	-0.157455	1.036801	-0.430402
O20	O	0.342545	1.536801	0.069598
O21	O	-0.266906	0.953866	-0.230872
O22	O	0.233094	1.453866	0.269128
O23	O	-0.276041	0.835011	-0.340540
O24	O	0.223959	1.335011	0.159460
O25	O	-0.366728	0.937090	-0.548828
O26	O	0.133272	1.437090	-0.048828
O27	O	-0.366369	0.827743	-0.430302
O28	O	0.133631	1.327743	0.069698
O29	O	-0.276672	1.027209	-0.548871
O30	O	0.223328	1.527209	-0.048871
O31	O	-0.469531	1.027061	-0.356008
O32	O	0.030469	1.527061	0.143992
O33	O	-0.476452	0.937006	-0.439102
O34	O	0.023548	1.437006	0.060898
C35	C	-0.322188	0.805839	-0.384430
C36	C	0.177812	1.305839	0.115570
C37	C	-0.325214	0.727607	-0.381412
C38	C	0.174786	1.227607	0.118588
C39	C	-0.283426	0.690881	-0.423350
C40	C	0.216574	1.190881	0.076650
C41	C	-0.286266	0.617374	-0.420507
C42	C	0.213734	1.117374	0.079493
C43	C	-0.330898	0.580594	-0.375730
C44	C	0.169102	1.080594	0.124270
C45	C	-0.372687	0.617325	-0.333787
C46	C	0.127313	1.117325	0.166213
C47	C	-0.369843	0.690831	-0.336626
C48	C	0.130157	1.190831	0.163374
C49	C	-0.344033	0.360752	-0.362585
C50	C	0.155967	0.860752	0.137415
C51	C	-0.346876	0.287240	-0.359750
C52	C	0.153124	0.787240	0.140250
C53	C	-0.260453	0.287295	-0.446471
C54	C	0.239547	0.787295	0.053529
C55	C	-0.257616	0.360802	-0.449309
C56	C	0.242384	0.860802	0.050691
C57	C	-0.299403	0.397527	-0.407363
C58	C	0.200597	0.897527	0.092637
N59	N	-0.333803	0.505458	-0.372825
N60	N	0.166197	1.005458	0.127175
N61	N	-0.296493	0.472662	-0.410265
N62	N	0.203507	0.972662	0.089735
C63	C	-0.498612	0.980969	-0.398550
C64	C	0.001388	1.480969	0.101450
C65	C	-0.577094	0.977723	-0.401580
C66	C	-0.077094	1.477723	0.098420
C67	C	-0.610338	1.023118	-0.359779
C68	C	-0.110338	1.523118	0.140221
C69	C	-0.684080	1.020069	-0.362634
C70	C	-0.184080	1.520069	0.137366
C71	C	-0.724577	0.971621	-0.407285
C72	C	-0.224577	1.471621	0.092715
C73	C	-0.691328	0.926224	-0.449090
C74	C	-0.191328	1.426224	0.050910
C75	C	-0.617587	0.929277	-0.446239
C76	C	-0.117587	1.429277	0.053761
C77	C	-0.945508	0.957462	-0.420451
C78	C	-0.445508	1.457462	0.079549
C79	C	-1.019254	0.954411	-0.423297
C80	C	-0.519254	1.454411	0.076703
C81	C	-1.012002	1.048258	-0.336841
C82	C	-0.512002	1.548258	0.163159
C83	C	-0.938260	1.051303	-0.333991
C84	C	-0.438260	1.551303	0.166009
C85	C	-0.905017	1.005909	-0.375798
C86	C	-0.405017	1.505909	0.124202
N87	N	-0.799954	0.968502	-0.410202
N88	N	-0.299954	1.468502	0.089798
N89	N	-0.829642	1.009032	-0.372885
N90	N	-0.329642	1.509032	0.127115
C91	C	-0.130982	0.996489	-0.384494
C92	C	0.369018	1.496489	0.115506
C93	C	-0.052499	0.999806	-0.381497
C94	C	0.447501	1.499806	0.118503
C95	C	-0.322792	0.981056	-0.575100
C96	C	0.177208	1.481056	-0.075100
C97	C	-0.326047	0.977797	-0.653328
C98	C	0.173953	1.477797	-0.153328
C99	C	-0.308096	1.172284	-0.398652
C100	C	0.191904	1.672284	0.101348
C101	C	-0.305088	1.250515	-0.401689
C102	C	0.194912	1.750515	0.098311
C103	C	-0.280690	1.023183	-0.690103
C104	C	0.219310	1.523183	-0.190103
C105	C	-0.283745	1.020112	-0.763606
C106	C	0.216255	1.520112	-0.263606
C107	C	-0.332161	0.971657	-0.800332
C108	C	0.167839	1.471657	-0.300332
C109	C	-0.377520	0.926266	-0.763552
C110	C	0.122480	1.426266	-0.263552
C111	C	-0.374461	0.929334	-0.690050
C112	C	0.125539	1.429334	-0.190050
C113	C	-0.346336	0.957447	-1.020156
C114	C	0.153664	1.457447	-0.520156
C115	C	-0.349393	0.954384	-1.093664
C116	C	0.150607	1.454384	-0.593664
C117	C	-0.255618	1.048229	-1.093712
C118	C	0.244382	1.548229	-0.593712
C119	C	-0.252565	1.051296	-1.020209
C120	C	0.247435	1.551296	-0.520209
C121	C	-0.297921	1.005902	-0.983435
C122	C	0.202079	1.505902	-0.483435
N123	N	-0.335287	0.968519	-0.875464
N124	N	0.164713	1.468519	-0.375464
N125	N	-0.294792	1.009038	-0.908304
N126	N	0.205208	1.509038	-0.408304
C127	C	-0.307495	0.996366	-0.208668
C128	C	0.192505	1.496366	0.291332
C129	C	-0.304037	0.999770	-0.130439
C130	C	0.195963	1.499770	0.369561
H131	H	-0.378060	0.390644	-0.328430
H132	H	0.121940	0.890644	0.171570
H133	H	-0.241266	1.062642	-0.660206
H134	H	0.258734	1.562642	-0.160206
H135	H	-0.221274	0.390744	-0.485775
H136	H	0.278726	0.890744	0.014225
H137	H	-0.711145	1.057034	-0.328595
H138	H	-0.211145	1.557034	0.171405
H139	H	-0.388821	0.914924	-1.123564
H140	H	0.111179	1.414924	-0.623564
O141	O	-0.730769	0.879182	-0.492404
O142	O	-0.230769	1.379182	0.007596
C143	C	-0.847583	0.832911	-0.535140
C144	C	-0.347583	1.332911	-0.035140
C145	C	-0.803003	0.886211	-0.486046
C146	C	-0.303003	1.386211	0.013954
H147	H	-0.905992	0.838586	-0.530027
H148	H	-0.405992	1.338586	-0.030027
H149	H	-0.834857	0.777266	-0.519974
H150	H	-0.334857	1.277266	-0.019974
H151	H	-0.834895	0.843456	-0.591807
H152	H	-0.334895	1.343456	-0.091807
H153	H	-0.815666	0.875732	-0.429364
H154	H	-0.315666	1.375732	0.070636
H155	H	-0.815735	0.941839	-0.501272
H156	H	-0.315735	1.441839	-0.001272
O157	O	-0.239659	1.064275	-0.799222
O158	O	0.260341	1.564275	-0.299222
C159	C	-0.146301	1.157657	-0.791512
C160	C	0.353699	1.657657	-0.291512
C161	C	-0.196201	1.107693	-0.751091
C162	C	0.303799	1.607693	-0.251091
H163	H	-0.111143	1.192763	-0.752614
H164	H	0.388857	1.692763	-0.252614
H165	H	-0.178702	1.191699	-0.828574
H166	H	0.321298	1.691699	-0.328574
H167	H	-0.112082	1.125458	-0.823276
H168	H	0.387918	1.625458	-0.323276
H169	H	-0.230431	1.139837	-0.719287
H170	H	0.269569	1.639837	-0.219287
H171	H	-0.163758	1.073649	-0.714071
H172	H	0.336242	1.573649	-0.214071
H173	H	-0.403871	0.720732	-0.302475
H174	H	0.096129	1.220732	0.197525
H175	H	-1.052225	0.914967	-0.459670
H176	H	-0.552225	1.414967	0.040330
H177	H	-0.577370	1.062567	-0.323416
H178	H	-0.077370	1.562567	0.176584
O179	O	-0.585403	0.885110	-0.486870
O180	O	-0.085403	1.385110	0.013130
C181	C	-0.600374	0.791743	-0.572963
C182	C	-0.100374	1.291743	-0.072963
C183	C	-0.636911	0.841705	-0.526968
C184	C	-0.136911	1.341705	-0.026968
H185	H	-0.642001	0.756647	-0.605405
H186	H	-0.142001	1.256647	-0.105405
H187	H	-0.565985	0.757690	-0.537900
H188	H	-0.065985	1.257690	-0.037900
H189	H	-0.566079	0.823943	-0.609674
H190	H	-0.066079	1.323943	-0.109674
H191	H	-0.671242	0.809560	-0.490250
H192	H	-0.171242	1.309560	0.009750
H193	H	-0.671257	0.875760	-0.562074
H194	H	-0.171257	1.375760	-0.062074
H195	H	-0.383278	0.920494	-0.990225
H196	H	0.116722	1.420494	-0.490225
H197	H	-0.905289	1.090754	-0.297632
H198	H	-0.405289	1.590754	0.202368
H199	H	-0.213142	1.090754	-0.990311
H200	H	0.286858	1.590754	-0.490311
O201	O	-0.424530	0.879258	-0.799336
O202	O	0.075470	1.379258	-0.299336
C203	C	-0.470775	0.832912	-0.912543
C204	C	0.029225	1.332912	-0.412543
C205	C	-0.417513	0.886192	-0.872109
C206	C	0.082487	1.386192	-0.372109
H207	H	-0.465110	0.838490	-0.971386
H208	H	0.034890	1.338490	-0.471386
H209	H	-0.526653	0.843464	-0.900798
H210	H	-0.026653	1.343464	-0.400798
H211	H	-0.459960	0.777296	-0.895370
H212	H	0.040040	1.277296	-0.395370
H213	H	-0.428263	0.941828	-0.889258
H214	H	0.071737	1.441828	-0.389258
H215	H	-0.361653	0.875579	-0.883856
H216	H	0.138347	1.375579	-0.383856
H217	H	-0.218691	1.085185	-1.123662
H218	H	0.281309	1.585185	-0.623662
H219	H	-0.918448	0.920499	-0.454491
H220	H	-0.418448	1.420499	0.045509
H221	H	-0.409024	0.587372	-0.297324
H222	H	0.090976	1.087372	0.202676
H223	H	-0.247083	0.720822	-0.459815
H224	H	0.252917	1.220822	0.040185
H225	H	-0.252239	0.587475	-0.454660
H226	H	0.247761	1.087475	0.045340
H227	H	-0.226431	0.257386	-0.480619
H228	H	0.273569	0.757386	0.019381
O229	O	-0.418450	0.885278	-0.654214
O230	O	0.081550	1.385278	-0.154214
C231	C	-0.455324	0.848441	-0.540959
C232	C	0.044676	1.348441	-0.040959
C233	C	-0.405456	0.898368	-0.581454
C234	C	0.094544	1.398368	-0.081454
H235	H	-0.444846	0.859017	-0.482126
H236	H	0.055154	1.359017	0.017874
H237	H	-0.445704	0.791596	-0.552678
H238	H	0.054296	1.291596	-0.052678
H239	H	-0.512381	0.857780	-0.558105
H240	H	-0.012381	1.357780	-0.058105
H241	H	-0.348380	0.889092	-0.564331
H242	H	0.151620	1.389092	-0.064331
H243	H	-0.415137	0.955196	-0.569733
H244	H	0.084863	1.455196	-0.069733
H245	H	-0.383224	0.257296	-0.323286
H246	H	0.116776	0.757296	0.176714
H247	H	-1.039077	1.085216	-0.302805
H248	H	-0.539077	1.585216	0.197195
