data_functionalizedCrystal
_audit_creation_method	'MofGen! by Chris Wilmer'
_symmetry_space_group_name_H-M	'P1'
_symmetry_Int_Tables_number	1
_symmetry_cell_setting	triclinic
loop_
_symmetry_equiv_pos_as_xyz
  x,y,z
_cell_length_a	17.699083
_cell_length_b	23.532407
_cell_length_c	16.176319
_cell_angle_alpha	89.988065
_cell_angle_beta	89.999520
_cell_angle_gamma	96.934118
loop_
_atom_site_label
_atom_site_type_symbol
_atom_site_fract_x
_atom_site_fract_y
_atom_site_fract_z
O1	O	-1.003712	0.072017	-0.068638
O2	O	-0.783286	0.081387	-0.068669
O3	O	-0.900146	-0.006210	-0.068629
O4	O	-0.886852	0.159615	-0.068678
O5	O	-0.900132	-0.006211	0.068864
O6	O	-0.783273	0.081387	0.068824
O7	O	-1.003699	0.072017	0.068855
Cu8	Cu	-0.893484	0.076702	0.081394
Cu9	Cu	-0.893501	0.076702	-0.081208
O10	O	-0.886839	0.159615	0.068816
C11	C	-0.755084	0.081051	0.000074
C12	C	-0.671071	0.080044	0.000063
C13	C	-0.622189	0.131462	0.000048
C14	C	-0.543251	0.130512	0.000059
C15	C	-0.513196	0.078144	0.000078
C16	C	-0.562084	0.026722	0.000096
C17	C	-0.641021	0.027672	0.000091
C18	C	-0.243740	0.022888	0.000115
C19	C	-0.164797	0.021942	0.000117
C20	C	-0.145970	0.125728	0.000082
C21	C	-0.224907	0.126678	0.000078
C22	C	-0.273788	0.075257	0.000100
C23	C	-0.359382	0.076287	0.000090
C24	C	-0.427603	0.077113	0.000082
C25	C	-0.899801	-0.027427	0.000121
C26	C	-0.898783	-0.090647	0.000134
C27	C	-0.825430	-0.357026	0.000072
C28	C	-0.826376	-0.297623	0.000078
O29	O	-0.768186	-0.261045	0.000044
N30	N	-0.895849	-0.274797	0.000098
C31	C	-0.964381	-0.311378	0.000102
O32	O	-1.023560	-0.286508	0.000118
C33	C	-0.963435	-0.370779	0.000090
C34	C	-0.893957	-0.393602	0.000079
C35	C	-0.755958	-0.379848	0.000060
C36	C	-0.755013	-0.439247	0.000055
C37	C	-0.823540	-0.475823	0.000062
C38	C	-0.893012	-0.453000	0.000074
C39	C	-1.031966	-0.407359	0.000088
C40	C	-1.031014	-0.466764	0.000075
C41	C	-0.961536	-0.489586	0.000064
C42	C	-0.960594	-0.548975	0.000076
N43	N	-0.891121	-0.571801	0.000057
C44	C	-0.822594	-0.535225	0.000050
C45	C	-0.966363	-0.186629	0.000127
C46	C	-0.967310	-0.127229	0.000145
C47	C	-0.829305	-0.113478	0.000120
C48	C	-0.828358	-0.172880	0.000107
C49	C	-0.896890	-0.209455	0.000107
C50	C	-0.820614	-0.659968	0.000040
C51	C	-0.819675	-0.719372	0.000038
C52	C	-0.957680	-0.733118	0.000059
C53	C	-0.958620	-0.673718	0.000065
C54	C	-0.890081	-0.637144	0.000053
O55	O	-1.018753	-0.585587	0.000107
O56	O	-0.763424	-0.560103	0.000023
C57	C	-0.031901	0.072353	0.000108
C58	C	-0.115914	0.073360	0.000107
C59	C	-0.887184	0.180832	0.000063
C60	C	-0.888202	0.244052	0.000045
N61	N	-0.893512	0.076698	-0.195573
N62	N	-0.893479	0.076701	0.195759
C63	C	-0.939118	0.111201	0.239016
C64	C	-0.939126	0.111198	0.325563
C65	C	-0.893490	0.076700	0.368852
C66	C	-0.847849	0.042197	0.325589
C67	C	-0.847845	0.042196	0.239043
C68	C	-0.847863	0.042197	0.674617
C69	C	-0.847868	0.042202	0.761169
C70	C	-0.939144	0.111200	0.761137
C71	C	-0.939141	0.111199	0.674591
C72	C	-0.893502	0.076694	0.631336
C73	C	-0.893495	0.076696	0.537492
C74	C	-0.893493	0.076701	0.462694
H75	H	-0.503454	0.172382	0.000045
H76	H	-1.015194	-0.655136	0.000086
H77	H	-0.976299	0.139294	0.639350
H78	H	-0.810680	0.014104	0.203825
Br79	Br	-0.124009	-0.049135	0.000141
Br80	Br	-1.124027	-0.516399	0.000069
Br81	Br	-0.727596	-0.610340	0.000024
Br82	Br	-0.521296	-0.044350	0.000130
H83	H	-1.013473	-0.762909	0.000069
Br84	Br	-0.662970	0.202537	0.000013
H85	H	-0.680820	-0.014197	0.000103
H86	H	-0.106161	0.167598	0.000069
Br87	Br	-0.734064	-0.203846	0.000093
H88	H	-0.698437	-0.457823	0.000039
H89	H	-0.700152	-0.350073	0.000052
Br90	Br	-0.725378	-0.750341	0.000028
Br91	Br	-0.265692	0.197752	0.000044
Br92	Br	-0.310069	-0.046898	0.000146
H93	H	-0.976307	0.139294	0.796366
H94	H	-0.976276	0.139297	0.203776
H95	H	-0.773506	-0.083687	0.000115
H96	H	-1.023886	-0.108652	0.000167
H97	H	-1.022174	-0.216406	0.000132
H98	H	-1.088542	-0.388788	0.000096
H99	H	-0.976292	0.139290	0.360779
Br100	Br	-0.785928	-0.004620	0.819918
H101	H	-0.810701	0.014101	0.639409
H102	H	-0.810695	0.014104	0.360842
