data_functionalizedCrystal
_audit_creation_method	'MofGen! by Chris Wilmer'
_symmetry_space_group_name_H-M	'P1'
_symmetry_Int_Tables_number	1
_symmetry_cell_setting	triclinic
loop_
_symmetry_equiv_pos_as_xyz
  x,y,z
_cell_length_a	15.995350
_cell_length_b	11.026607
_cell_length_c	9.482900
_cell_angle_alpha	101.363848
_cell_angle_beta	99.336743
_cell_angle_gamma	83.960804
loop_
_atom_site_label
_atom_site_type_symbol
_atom_site_fract_x
_atom_site_fract_y
_atom_site_fract_z
O1	O	0.340363	-1.629075	-0.120882
O2	O	0.300437	-1.275769	-0.120885
O3	O	0.199968	-1.462080	-0.120882
O4	O	0.440832	-1.442765	-0.120885
O5	O	0.220481	-1.424236	0.120910
O6	O	0.320950	-1.237926	0.120907
O7	O	0.360875	-1.591231	0.120910
Cu8	Cu	0.342785	-1.411123	0.142986
Cu9	Cu	0.318527	-1.455878	-0.142961
O10	O	0.461344	-1.404921	0.120907
C11	C	0.178909	-1.442360	0.000011
C12	C	0.085597	-1.439967	0.000003
C13	C	0.303328	-1.211637	0.000010
C14	C	0.281371	-1.076923	0.000009
C15	C	0.357984	-1.655364	0.000012
C16	C	0.379940	-1.790080	0.000004
C17	C	-0.253446	-1.431369	0.000008
C18	C	-0.226057	-1.298767	-0.000536
C19	C	-0.128960	-1.301076	0.000009
C20	C	-0.085243	-1.435634	0.000005
C21	C	-0.104742	-1.479470	0.138078
C22	C	-0.201871	-1.476118	0.138193
C23	C	-0.225142	-1.521895	-0.136769
C24	C	-0.128356	-1.522149	-0.138594
C25	C	0.009819	-1.438051	0.000008
C26	C	-0.348507	-1.428954	0.000014
C27	C	0.482403	-1.424641	0.000011
C28	C	0.575714	-1.427036	0.000009
N29	N	0.359848	-1.379654	0.344106
C30	C	0.341997	-1.003118	0.000007
C31	C	0.319305	-0.863884	0.000005
N32	N	0.301459	-1.487357	-0.344081
C33	C	0.323554	-1.446587	0.416306
C34	C	0.337759	-1.420413	0.583723
H35	H	-0.116689	-1.265122	-0.098967
O36	O	0.190363	-1.024095	0.000024
H37	H	0.150394	-1.070689	-0.098517
H38	H	-0.218904	-1.572555	0.144455
H39	H	0.281962	-1.523265	0.354179
H40	H	0.250594	-0.824003	-0.000031
O41	O	-0.251479	-1.208418	0.129897
H42	H	-0.295611	-1.132647	0.092704
O43	O	0.470956	-0.842893	-0.000002
H44	H	0.474498	-0.943966	-0.000012
O45	O	0.392856	-1.318834	0.665994
H46	H	0.395373	-1.314223	0.784579
O47	O	0.414951	-1.278086	0.426373
H48	H	0.376760	-1.208154	0.495749
O49	O	0.246360	-1.588934	0.573652
H50	H	0.243849	-1.593557	0.455066
H51	H	-0.260983	-1.261230	-0.099551
H52	H	-0.218609	-1.412240	0.241408
O53	O	-0.091243	-1.211925	0.131341
H54	H	-0.021683	-1.213255	0.132182
H55	H	-0.075281	-1.577522	0.143209
H56	H	-0.074495	-1.417932	0.240830
H57	H	-0.261099	-1.494892	-0.241421
H58	H	0.410702	-1.043008	0.000014
O59	O	-0.113215	-1.480045	-0.273910
H60	H	-0.075138	-1.397849	-0.242600
H61	H	-0.098912	-1.621579	-0.146934
O62	O	-0.247790	-1.651676	-0.138027
H63	H	-0.279054	-1.651772	-0.041766
