data_functionalizedCrystal
_audit_creation_method	'MofGen! by Chris Wilmer'
_symmetry_space_group_name_H-M	'P1'
_symmetry_Int_Tables_number	1
_symmetry_cell_setting	triclinic
loop_
_symmetry_equiv_pos_as_xyz
  x,y,z
_cell_length_a	17.640112
_cell_length_b	12.645330
_cell_length_c	17.640968
_cell_angle_alpha	78.768500
_cell_angle_beta	92.139080
_cell_angle_gamma	101.237348
loop_
_atom_site_label
_atom_site_type_symbol
_atom_site_fract_x
_atom_site_fract_y
_atom_site_fract_z
Zn1	Zn	1.247782	-0.030458	-0.195080
Zn2	Zn	1.222041	-0.249164	-0.068097
Zn3	Zn	1.095123	-0.099414	-0.093726
Zn4	Zn	1.120780	-0.235210	-0.220679
O5	O	1.171432	-0.153562	-0.144396
O6	O	1.350634	-0.036451	-0.156796
O7	O	1.183695	-0.263998	0.034776
O8	O	1.115409	0.058093	-0.107183
O9	O	1.331722	-0.197134	-0.063503
O10	O	1.227567	0.108755	-0.181647
O11	O	1.090449	-0.153977	0.015947
O12	O	0.992260	-0.140447	-0.132006
O13	O	1.159137	-0.173351	-0.323557
O14	O	1.011110	-0.240215	-0.225278
O15	O	1.252445	-0.022921	-0.304749
O16	O	1.208573	-0.395673	-0.088325
O17	O	1.134177	-0.385421	-0.200427
C18	C	0.974132	-0.196300	-0.184201
C19	C	0.889730	-0.214603	-0.201248
C20	C	1.171390	-0.429005	-0.144385
C21	C	1.171447	-0.546818	-0.144392
C22	C	0.563041	-0.014493	-0.014898
C23	C	0.483734	-0.031710	-0.030927
C24	C	0.503383	-0.135840	-0.127883
C25	C	0.582694	-0.118628	-0.111866
C26	C	0.612516	-0.057954	-0.055372
C27	C	0.632168	-0.162089	-0.152339
C28	C	0.711471	-0.144882	-0.136320
C29	C	0.741299	-0.084214	-0.079827
C30	C	0.691819	-0.040748	-0.039352
C31	C	0.602344	-0.222768	-0.208829
C32	C	0.651819	-0.266229	-0.249302
C33	C	0.731124	-0.249017	-0.233287
C34	C	0.760952	-0.188349	-0.176794
C35	C	0.780605	-0.292483	-0.273762
C36	C	0.859908	-0.275277	-0.257742
C37	C	0.840255	-0.171142	-0.160775
C38	C	1.218131	-0.720847	-0.073769
C39	C	1.218351	-0.598198	-0.073875
C40	C	1.209332	-0.560398	-0.220067
C41	C	1.209733	-0.682997	-0.219661
C42	C	1.087014	-0.738217	-0.140134
C43	C	1.087036	-0.616115	-0.138261
C44	C	1.369502	-0.110657	-0.104435
C45	C	1.453908	-0.092374	-0.087406
C46	C	1.211525	-0.088888	-0.342479
C47	C	1.228610	-0.061327	-0.426890
C48	C	1.171498	0.122968	-0.144418
C49	C	1.171526	0.240808	-0.144428
C50	C	1.041928	-0.362294	-0.753463
C51	C	1.057998	-0.336380	-0.832776
C52	C	1.155152	-0.179750	-0.813183
C53	C	1.139087	-0.205648	-0.733867
C54	C	1.082475	-0.296921	-0.704013
C55	C	1.179634	-0.140275	-0.684417
C56	C	1.163573	-0.166175	-0.605106
C57	C	1.106965	-0.257446	-0.575246
C58	C	1.066414	-0.322821	-0.624702
C59	C	1.236249	-0.049006	-0.714271
C60	C	1.276796	0.016366	-0.664821
C61	C	1.260732	-0.009529	-0.585510
C62	C	1.204124	-0.100800	-0.555650
C63	C	1.301283	0.055846	-0.536054
C64	C	1.285222	0.029946	-0.456744
C65	C	1.188063	-0.126700	-0.476340
C66	C	1.131538	-0.217898	0.052926
C67	C	1.114600	-0.245128	0.137366
H68	H	0.864540	-0.121716	-0.114783
H69	H	0.443454	0.003695	0.002031
N70	N	1.362347	0.154278	-0.568256
H71	H	1.366372	0.160761	-0.626002
H72	H	1.347740	0.222912	-0.556789
H73	H	0.805873	-0.070209	-0.066783
H74	H	0.756310	-0.341892	-0.319753
H75	H	1.322892	0.090678	-0.689139
N76	N	1.184432	-0.789572	0.001500
H77	H	1.224913	-0.827853	0.030725
H78	H	1.167160	-0.740628	0.033624
N79	N	1.166674	-0.514197	-0.290754
H80	H	1.192020	-0.523809	-0.338718
H81	H	1.111149	-0.554376	-0.288318
N82	N	1.036805	-0.571619	-0.203153
H83	H	0.991744	-0.549242	-0.180908
H84	H	1.068248	-0.505645	-0.237585
N85	N	1.089624	-0.285401	-0.489708
H86	H	1.137836	-0.299851	-0.460076
H87	H	1.071787	-0.221913	-0.473492
N88	N	1.328955	0.100447	-0.403401
H89	H	1.367253	0.162199	-0.434348
H90	H	1.291390	0.132065	-0.376736
H91	H	0.716103	0.008678	0.006640
H92	H	1.201247	-0.105437	-0.837501
N93	N	0.595217	0.050958	0.046028
H94	H	0.551843	0.075888	0.069238
H95	H	0.620987	0.003526	0.087871
H96	H	0.479090	-0.185244	-0.173879
N97	N	0.516810	-0.241342	-0.226105
H98	H	0.500547	-0.168213	-0.244019
H99	H	0.505489	-0.286417	-0.268010
H100	H	0.627526	-0.315633	-0.295298
N101	N	1.040748	-0.770641	-0.208561
H102	H	1.074325	-0.798786	-0.242191
H103	H	0.994796	-0.830213	-0.189666
H104	H	1.280047	-0.734374	-0.075237
H105	H	1.020297	-0.397124	-0.600398
H106	H	1.178159	-0.706706	-0.273244
N107	N	1.014266	-0.406874	-0.886128
H108	H	1.023244	-0.484579	-0.869948
H109	H	0.957235	-0.406576	-0.883262
N110	N	0.913276	-0.322154	-0.301390
H111	H	0.882351	-0.363199	-0.339610
H112	H	0.953313	-0.260444	-0.329937
N113	N	1.184482	-0.587974	0.001126
H114	H	1.129679	-0.630844	0.006605
H115	H	1.216570	-0.618118	0.045778
N116	N	1.300826	-0.536284	-0.075942
H117	H	1.311424	-0.501923	-0.028574
H118	H	1.337128	-0.588712	-0.076817
H119	H	1.141946	-0.201002	-0.452035
H120	H	1.249326	-0.027925	-0.778851
N121	N	1.292196	-0.696414	-0.226955
H122	H	1.315035	-0.649682	-0.276950
H123	H	1.323458	-0.672532	-0.181999
N124	N	1.290999	-0.495336	-0.227942
H125	H	1.303590	-0.457010	-0.182591
H126	H	1.328078	-0.546628	-0.229032
H127	H	1.058763	-0.609871	-0.082650
N128	N	1.045509	-0.809720	-0.069433
H129	H	1.081073	-0.856441	-0.039468
H130	H	1.029643	-0.761727	-0.035702
N131	N	0.980864	-0.460734	-0.721255
H132	H	0.957610	-0.498220	-0.764615
H133	H	1.005103	-0.513845	-0.682107
