data_functionalizedCrystal
_audit_creation_method	'MofGen! by Chris Wilmer'
_symmetry_space_group_name_H-M	'P1'
_symmetry_Int_Tables_number	1
_symmetry_cell_setting	triclinic
loop_
_symmetry_equiv_pos_as_xyz
  x,y,z
_cell_length_a	13.596369
_cell_length_b	14.519709
_cell_length_c	14.519709
_cell_angle_alpha	96.319855
_cell_angle_beta	90.006934
_cell_angle_gamma	90.000291
loop_
_atom_site_label
_atom_site_type_symbol
_atom_site_fract_x
_atom_site_fract_y
_atom_site_fract_z
O1	O	-0.081665	1.223868	-0.120893
O2	O	0.168335	1.473868	0.129107
O3	O	0.418335	1.723868	0.379107
O4	O	0.668335	1.973868	0.629107
O5	O	-0.081696	0.955392	-0.135129
O6	O	0.168304	1.205392	0.114871
O7	O	0.418304	1.455392	0.364871
O8	O	0.668304	1.705392	0.614871
O9	O	-0.081671	1.096748	0.006227
O10	O	0.168329	1.346748	0.256227
O11	O	0.418329	1.596748	0.506227
O12	O	0.668329	1.846748	0.756227
O13	O	-0.081690	1.082512	-0.262249
O14	O	0.168310	1.332512	-0.012249
O15	O	0.418310	1.582512	0.237751
O16	O	0.668310	1.832512	0.487751
O17	O	0.081912	1.096734	0.006235
O18	O	0.331912	1.346734	0.256235
O19	O	0.581912	1.596734	0.506235
O20	O	0.831912	1.846734	0.756235
O21	O	0.081887	0.955377	-0.135122
O22	O	0.331887	1.205377	0.114878
O23	O	0.581887	1.455377	0.364878
O24	O	0.831887	1.705377	0.614878
O25	O	0.081917	1.223854	-0.120885
O26	O	0.331917	1.473854	0.129115
O27	O	0.581917	1.723854	0.379115
O28	O	0.831917	1.973854	0.629115
Zn29	Zn	0.107875	1.089614	-0.128002
Zn30	Zn	0.357875	1.339614	0.121998
Zn31	Zn	0.607875	1.589614	0.371998
Zn32	Zn	0.857875	1.839614	0.621998
Zn33	Zn	-0.107653	1.089632	-0.128012
Zn34	Zn	0.142347	1.339632	0.121988
Zn35	Zn	0.392347	1.589632	0.371988
Zn36	Zn	0.642347	1.839632	0.621988
O37	O	0.081893	1.082498	-0.262242
O38	O	0.331893	1.332498	-0.012242
O39	O	0.581893	1.582498	0.237758
O40	O	0.831893	1.832498	0.487758
C41	C	0.000092	0.921025	-0.134462
C42	C	0.250092	1.171025	0.115538
C43	C	0.500092	1.421025	0.365538
C44	C	0.750092	1.671025	0.615538
C45	C	0.000081	0.818643	-0.132474
C46	C	0.250081	1.068643	0.117526
C47	C	0.500081	1.318643	0.367526
C48	C	0.750081	1.568643	0.617526
N49	N	0.254966	1.089608	-0.127995
N50	N	0.504966	1.339608	0.122005
N51	N	0.754966	1.589608	0.372005
N52	N	1.004966	1.839608	0.622005
N53	N	-0.254745	1.089645	-0.128012
N54	N	-0.004745	1.339645	0.121988
N55	N	0.245255	1.589645	0.371988
N56	N	0.495255	1.839645	0.621988
C57	C	0.000126	0.443748	-0.125154
C58	C	0.250126	0.693748	0.124846
C59	C	0.500126	0.943748	0.374846
C60	C	0.750126	1.193748	0.624846
C61	C	0.000113	0.548056	-0.127187
C62	C	0.250113	0.798056	0.122813
C63	C	0.500113	1.048056	0.372813
C64	C	0.750113	1.298056	0.622813
C65	C	0.000102	0.631192	-0.128814
C66	C	0.250102	0.881192	0.121186
C67	C	0.500102	1.131192	0.371186
C68	C	0.750102	1.381192	0.621186
C69	C	0.000091	0.735507	-0.130847
C70	C	0.250091	0.985507	0.119153
C71	C	0.500091	1.235507	0.369153
C72	C	0.750091	1.485507	0.619153
C73	C	0.656257	1.089631	-0.128013
C74	C	0.906257	1.339631	0.121987
C75	C	1.156257	1.589631	0.371987
C76	C	1.406257	1.839631	0.621987
C77	C	0.544606	1.089622	-0.128011
C78	C	0.794606	1.339622	0.121989
C79	C	1.044606	1.589622	0.371989
C80	C	1.294606	1.839622	0.621989
C81	C	0.455615	1.089620	-0.128005
C82	C	0.705615	1.339620	0.121995
C83	C	0.955615	1.589620	0.371995
C84	C	1.205615	1.839620	0.621995
C85	C	0.343957	1.089610	-0.128001
C86	C	0.593957	1.339610	0.121999
C87	C	0.843957	1.589610	0.371999
C88	C	1.093957	1.839610	0.621999
C89	C	0.000121	1.096078	0.040591
C90	C	0.250121	1.346078	0.290591
C91	C	0.500121	1.596078	0.540591
C92	C	0.750121	1.846078	0.790591
C93	C	0.000121	1.094090	0.142972
C94	C	0.250121	1.344090	0.392972
C95	C	0.500121	1.594090	0.642972
C96	C	0.750121	1.844090	0.892972
C97	C	0.000128	1.258221	-0.121553
C98	C	0.250128	1.508221	0.128447
C99	C	0.500128	1.758221	0.378447
C100	C	0.750128	2.008221	0.628447
C101	C	0.000132	1.360602	-0.123541
C102	C	0.250132	1.610602	0.126459
C103	C	0.500132	1.860602	0.376459
C104	C	0.750132	2.110602	0.626459
C105	C	0.000099	1.083168	-0.296605
C106	C	0.250099	1.333168	-0.046605
C107	C	0.500099	1.583168	0.203395
C108	C	0.750099	1.833168	0.453395
C109	C	0.000092	1.085156	-0.398987
C110	C	0.250092	1.335156	-0.148987
C111	C	0.500092	1.585156	0.101013
C112	C	0.750092	1.835156	0.351013
C113	C	0.000095	1.086770	0.517868
C114	C	0.250095	1.336770	0.767868
C115	C	0.500095	1.586770	1.017868
C116	C	0.750095	1.836770	1.267868
C117	C	0.000102	1.088803	0.413560
C118	C	0.250102	1.338803	0.663560
C119	C	0.500102	1.588803	0.913560
C120	C	0.750102	1.838803	1.163560
C121	C	0.000109	1.090430	0.330423
C122	C	0.250109	1.340430	0.580423
C123	C	0.500109	1.590430	0.830423
C124	C	0.750109	1.840430	1.080423
C125	C	0.000114	1.092463	0.226109
C126	C	0.250114	1.342463	0.476109
C127	C	0.500114	1.592463	0.726109
C128	C	0.750114	1.842463	0.976109
