data_functionalizedCrystal
_audit_creation_method	'MofGen! by Chris Wilmer'
_symmetry_space_group_name_H-M	'P1'
_symmetry_Int_Tables_number	1
_symmetry_cell_setting	triclinic
loop_
_symmetry_equiv_pos_as_xyz
  x,y,z
_cell_length_a	17.000383
_cell_length_b	17.038272
_cell_length_c	12.503583
_cell_angle_alpha	86.217978
_cell_angle_beta	86.762133
_cell_angle_gamma	96.644071
loop_
_atom_site_label
_atom_site_type_symbol
_atom_site_fract_x
_atom_site_fract_y
_atom_site_fract_z
O1	O	1.053719	-0.032868	0.089395
O2	O	0.823900	-0.061110	0.089382
O3	O	0.937444	0.066733	0.089380
O4	O	0.940175	-0.160711	0.089397
O5	O	0.945988	0.076360	-0.089262
O6	O	0.832443	-0.051484	-0.089261
O7	O	1.062263	-0.023242	-0.089247
Cu8	Cu	0.948133	-0.036484	-0.105565
Cu9	Cu	0.938029	-0.047868	0.105700
O10	O	0.948719	-0.151085	-0.089245
C11	C	0.798621	-0.057814	0.000059
C12	C	0.710568	-0.062324	0.000053
C13	C	0.212321	-0.091450	0.000096
C14	C	0.295057	-0.087206	0.000094
C15	C	0.341064	-0.013539	0.000081
C16	C	0.304331	0.055888	0.000079
C17	C	0.221597	0.051642	0.000088
C18	C	0.591101	0.002858	0.000061
C19	C	0.673841	0.007098	0.000048
C20	C	0.664560	-0.135996	0.000066
C21	C	0.581825	-0.140235	0.000068
C22	C	0.545099	-0.070808	0.000072
C23	C	0.425633	-0.009199	0.000076
C24	C	0.460531	-0.075150	0.000084
C25	C	0.939231	0.100505	0.000059
C26	C	0.931818	0.186790	0.000059
C27	C	1.087541	-0.026538	0.000078
C28	C	1.175594	-0.022029	0.000091
C29	C	0.946931	-0.184856	0.000078
C30	C	0.954344	-0.271142	0.000085
C31	C	0.999876	0.241565	0.000061
C32	C	0.992906	0.322637	0.000071
C33	C	0.917877	0.348934	0.000070
C34	C	0.849814	0.294152	0.000071
C35	C	0.856784	0.213081	0.000069
C36	C	0.893251	0.593005	0.000084
C37	C	0.886285	0.674083	0.000083
C38	C	1.029378	0.702563	0.000085
C39	C	1.036343	0.621489	0.000076
C40	C	0.968279	0.566714	0.000082
C41	C	0.910751	0.431803	0.000077
C42	C	0.975406	0.483846	0.000084
N43	N	0.930923	-0.055869	0.254292
C44	C	0.920462	-0.067640	0.473408
C45	C	0.965696	-0.016711	0.526734
C46	C	0.959875	-0.023260	0.648657
C47	C	0.926281	-0.061092	0.351473
N48	N	0.955238	-0.028479	0.745842
H49	H	0.174868	-0.151437	0.000099
H50	H	0.788723	0.315569	0.000077
Br51	Br	0.488079	0.090775	0.000049
Br52	Br	0.764416	0.138741	0.000073
H53	H	1.036493	0.462430	0.000108
H54	H	0.837828	0.548416	0.000088
Br55	Br	1.037527	0.064163	0.450212
H56	H	0.711298	0.067089	0.000043
H57	H	1.084792	0.747168	0.000082
Br58	Br	0.848632	-0.148508	0.549926
H59	H	0.849662	0.453223	0.000074
H60	H	1.048327	0.367233	0.000071
Br61	Br	0.344897	-0.181426	0.000111
H62	H	0.341797	0.115868	0.000074
Br63	Br	0.519392	-0.240215	0.000092
H64	H	0.694472	-0.192519	0.000064
H65	H	0.561209	0.059390	0.000061
Br66	Br	1.101707	0.205886	0.000047
H67	H	1.097439	0.600085	0.000077
H68	H	0.191695	0.108173	0.000086
H69	H	0.825186	0.695490	0.000065
H70	H	0.423068	-0.135129	0.000101
