data_functionalizedCrystal
_audit_creation_method	'MofGen! by Chris Wilmer'
_symmetry_space_group_name_H-M	'P1'
_symmetry_Int_Tables_number	1
_symmetry_cell_setting	triclinic
loop_
_symmetry_equiv_pos_as_xyz
  x,y,z
_cell_length_a	10.723023
_cell_length_b	10.489746
_cell_length_c	9.198806
_cell_angle_alpha	89.996511
_cell_angle_beta	89.996191
_cell_angle_gamma	84.504424
loop_
_atom_site_label
_atom_site_type_symbol
_atom_site_fract_x
_atom_site_fract_y
_atom_site_fract_z
O1	O	1.657301	0.178901	-0.120890
O2	O	1.294159	0.196027	-0.120894
O3	O	1.483990	0.001861	-0.120881
O4	O	1.467470	0.373067	-0.120903
O5	O	1.483975	0.001861	0.120904
O6	O	1.294144	0.196026	0.120891
O7	O	1.657286	0.178900	0.120895
Cu8	Cu	1.475714	0.187463	0.142970
Cu9	Cu	1.475732	0.187464	-0.142969
O10	O	1.467455	0.373066	0.120882
C11	C	1.247651	0.194780	-0.000001
C12	C	1.109095	0.191052	-0.000003
C13	C	0.904115	0.185537	0.125244
C14	C	1.047321	0.189390	0.125248
C15	C	1.482733	-0.045670	0.000011
C16	C	1.478996	-0.187297	0.000010
C17	C	1.356001	-0.340075	-0.000009
C18	C	1.417501	-0.262723	-0.119218
C19	C	1.417515	-0.262764	0.119163
C20	C	1.533901	-0.362289	-0.119329
C21	C	1.533898	-0.362336	0.119159
C22	C	1.595484	-0.285032	-0.000079
C23	C	1.703794	0.180147	0.000000
C24	C	1.842351	0.183875	-0.000008
C25	C	1.468712	0.420597	-0.000013
C26	C	1.472449	0.562224	-0.000021
N27	N	1.475710	0.187462	0.344084
N28	N	1.475745	0.187455	-0.344083
C29	C	1.555414	0.105578	0.416287
C30	C	1.555434	0.105574	0.583699
H31	H	1.055987	0.189620	-0.107241
Cl32	Cl	1.341577	-0.195639	0.274763
H33	H	1.623676	0.035474	0.645790
Cl34	Cl	1.370388	0.295706	0.560069
H35	H	1.407482	0.257558	0.406208
H36	H	0.895490	0.185312	-0.107238
H37	H	1.623634	0.035472	0.354165
H38	H	0.850974	0.184114	0.232474
H39	H	1.100438	0.190813	0.232481
H40	H	1.254744	-0.364730	-0.000129
H41	H	1.368349	-0.219215	-0.220004
H42	H	1.696816	-0.260622	-0.000143
H43	H	1.583006	-0.405866	0.219949
Cl44	Cl	1.609755	-0.429151	-0.275110
