data_functionalizedCrystal
_audit_creation_method	'MofGen! by Chris Wilmer'
_symmetry_space_group_name_H-M	'P1'
_symmetry_Int_Tables_number	1
_symmetry_cell_setting	triclinic
loop_
_symmetry_equiv_pos_as_xyz
  x,y,z
_cell_length_a	19.121063
_cell_length_b	19.121102
_cell_length_c	16.959447
_cell_angle_alpha	87.545711
_cell_angle_beta	92.406624
_cell_angle_gamma	90.126902
loop_
_atom_site_label
_atom_site_type_symbol
_atom_site_fract_x
_atom_site_fract_y
_atom_site_fract_z
Zn1	Zn	-0.324882	1.059819	-0.513323
Zn2	Zn	0.175118	1.559819	-0.013323
Zn3	Zn	-0.442126	1.054733	-0.386519
Zn4	Zn	0.057874	1.554733	0.113481
Zn5	Zn	-0.319902	0.942590	-0.375298
Zn6	Zn	0.180098	1.442590	0.124702
Zn7	Zn	-0.437072	0.937544	-0.512794
Zn8	Zn	0.062928	1.437544	-0.012794
O9	O	-0.380995	0.998671	-0.446983
O10	O	0.119005	1.498671	0.053017
O11	O	-0.344634	1.157249	-0.501420
O12	O	0.155366	1.657249	-0.001420
O13	O	-0.425943	1.039840	-0.274420
O14	O	0.074057	1.539840	0.225580
O15	O	-0.222459	0.962381	-0.389132
O16	O	0.277541	1.462381	0.110868
O17	O	-0.430772	1.153512	-0.408258
O18	O	0.069228	1.653512	0.091742
O19	O	-0.226118	1.048509	-0.490538
O20	O	0.273882	1.548509	0.009462
O21	O	-0.336145	0.957449	-0.266176
O22	O	0.163855	1.457449	0.233824
O23	O	-0.331245	0.843816	-0.388619
O24	O	0.168755	1.343816	0.111381
O25	O	-0.422160	0.953781	-0.623474
O26	O	0.077840	1.453781	-0.123474
O27	O	-0.417330	0.840109	-0.489637
O28	O	0.082670	1.340109	0.010363
O29	O	-0.339734	1.043616	-0.623863
O30	O	0.160266	1.543616	-0.123863
O31	O	-0.539559	1.034947	-0.407745
O32	O	-0.039559	1.534947	0.092255
O33	O	-0.535846	0.948849	-0.500518
O34	O	-0.035846	1.448849	-0.000518
C35	C	-0.373199	0.816525	-0.437853
C36	C	0.126801	1.316525	0.062147
C37	C	-0.369881	0.738601	-0.433967
C38	C	0.130119	1.238601	0.066033
C39	C	-0.563140	0.990818	-0.455310
C40	C	-0.063140	1.490818	0.044690
C41	C	-0.641065	0.987522	-0.458902
C42	C	-0.141065	1.487522	0.041098
C43	C	-0.413210	0.700077	-0.484659
C44	C	0.086790	1.200077	0.015341
C45	C	-0.410083	0.626860	-0.481011
C46	C	0.089917	1.126860	0.018989
C47	C	-0.363630	0.592167	-0.426666
C48	C	0.136370	1.092167	0.073334
C49	C	-0.320297	0.630696	-0.375971
C50	C	0.179703	1.130696	0.124029
C51	C	-0.323421	0.703912	-0.379624
C52	C	0.176579	1.203912	0.120376
C53	C	-0.351949	0.371197	-0.413014
C54	C	0.148051	0.871197	0.086986
C55	C	-0.348829	0.297976	-0.409363
C56	C	0.151171	0.797976	0.090637
C57	C	-0.438614	0.294145	-0.514404
C58	C	0.061386	0.794145	-0.014404
C59	C	-0.441737	0.367363	-0.518049
C60	C	0.058263	0.867363	-0.018049
C61	C	-0.398402	0.405885	-0.467357
C62	C	0.101598	0.905885	0.032643
C63	C	-0.360434	0.517327	-0.422934
C64	C	0.139566	1.017327	0.077066
C65	C	-0.401594	0.480724	-0.471094
C66	C	0.098406	0.980724	0.028906
C67	C	-0.679586	1.030835	-0.412331
C68	C	-0.179586	1.530835	0.087669
C69	C	-0.752805	1.027740	-0.415714
C70	C	-0.252805	1.527740	0.084286
C71	C	-0.787501	0.981327	-0.465664
C72	C	-0.287501	1.481327	0.034336
C73	C	-0.748976	0.938012	-0.512240
C74	C	-0.248976	1.438012	-0.012240
C75	C	-0.675758	0.941111	-0.508861
C76	C	-0.175758	1.441111	-0.008861
C77	C	-1.008475	0.969727	-0.478285
C78	C	-0.508475	1.469727	0.021715
C79	C	-1.081698	0.966630	-0.481659
C80	C	-0.581698	1.466630	0.018341
C81	C	-1.085522	1.056359	-0.385133
C82	C	-0.585522	1.556359	0.114867
C83	C	-1.012303	1.059451	-0.381755
C84	C	-0.512303	1.559451	0.118245
C85	C	-0.973783	1.016139	-0.428334
C86	C	-0.473783	1.516139	0.071666
C87	C	-0.862343	0.978160	-0.469121
C88	C	-0.362343	1.478160	0.030879
C89	C	-0.898943	1.019309	-0.424881
C90	C	-0.398943	1.519309	0.075119
C91	C	-0.198140	1.006575	-0.438643
C92	C	0.301860	1.506575	0.061357
C93	C	-0.120218	1.009943	-0.435088
C94	C	0.379782	1.509943	0.064912
C95	C	-0.380939	0.998703	-0.653150
C96	C	0.119061	1.498703	-0.153150
C97	C	-0.380914	0.998716	-0.741007
C98	C	0.119086	1.498716	-0.241007
C99	C	-0.388822	1.181529	-0.456149
C100	C	0.111178	1.681529	0.043851
C101	C	-0.392158	1.259452	-0.460056
C102	C	0.107842	1.759452	0.039944
C103	C	-0.423759	0.952030	-1.112283
C104	C	0.076241	1.452030	-0.612283
C105	C	-0.337929	1.045576	-1.112683
C106	C	0.162071	1.545576	-0.612683
C107	C	-0.337943	1.045557	-1.030137
C108	C	0.162057	1.545557	-0.530137
C109	C	-0.380867	0.998774	-0.988660
C110	C	0.119133	1.498774	-0.488660
C111	C	-0.423776	0.952011	-1.029730
C112	C	0.076224	1.452011	-0.529730
C113	C	-0.295039	1.092324	-0.989062
C114	C	0.204961	1.592324	-0.489062
C115	C	-0.295052	1.092307	-0.906511
C116	C	0.204948	1.592307	-0.406511
C117	C	-0.337973	1.045521	-0.865032
C118	C	0.162027	1.545521	-0.365032
C119	C	-0.380884	0.998755	-0.906106
C120	C	0.119116	1.498755	-0.406106
C121	C	-0.423807	0.951972	-0.864630
C122	C	0.076193	1.451972	-0.364630
C123	C	-0.466715	0.905203	-0.905702
C124	C	0.033285	1.405203	-0.405702
C125	C	-0.466697	0.905224	-0.988251
C126	C	0.033303	1.405224	-0.488251
C127	C	-0.337991	1.045499	-0.782483
C128	C	0.162009	1.545499	-0.282483
C129	C	-0.423824	0.951953	-0.782076
C130	C	0.076176	1.451953	-0.282076
C131	C	-0.381003	0.998682	-0.241618
C132	C	0.118997	1.498682	0.258382
C133	C	-0.380836	0.998813	-0.153760
C134	C	0.119164	1.498813	0.346240
H135	H	-0.451039	0.728319	-0.528911
H136	H	0.048961	1.228319	-0.028911
H137	H	-0.302986	1.083668	-1.146459
H138	H	0.197014	1.583668	-0.646459
F139	F	-0.512399	0.855418	-0.861551
F140	F	-0.012399	1.355418	-0.361551
F141	F	-0.484733	0.253142	-0.568349
F142	F	0.015267	0.753142	-0.068349
H143	H	-0.310994	0.269732	-0.365113
H144	H	0.189006	0.769732	0.134887
F145	F	-0.292333	1.095275	-0.738775
F146	F	0.207667	1.595275	-0.238775
H147	H	-0.870691	1.057101	-0.384214
H148	H	-0.370691	1.557101	0.115786
H149	H	-0.501632	0.867149	-1.021700
H150	H	-0.001632	1.367149	-0.521700
F151	F	-0.249365	1.142115	-1.033208
F152	F	0.250635	1.642115	-0.533208
F153	F	-0.456199	0.585863	-0.534966
F154	F	0.043801	1.085863	-0.034966
H155	H	-0.458692	0.913950	-1.145728
H156	H	0.041308	1.413950	-0.645728
H157	H	-0.316667	0.402553	-0.371731
H158	H	0.183333	0.902553	0.128269
H159	H	-0.260114	1.130390	-0.873076
H160	H	0.239886	1.630390	-0.373076
F161	F	-0.310997	0.480398	-0.365098
F162	F	0.189003	0.980398	0.134902
F163	F	-0.975381	1.108857	-0.328600
F164	F	-0.475381	1.608857	0.171400
H165	H	-0.644396	0.905842	-0.546785
H166	H	-0.144396	1.405842	-0.046785
F167	F	-0.491180	0.404280	-0.575889
F168	F	0.008820	0.904280	-0.075889
H169	H	-0.282471	0.602443	-0.331726
H170	H	0.217529	1.102443	0.168274
F171	F	-0.277303	0.744911	-0.325672
F172	F	0.222697	1.244911	0.174328
H173	H	-0.890601	0.940370	-0.509789
H174	H	-0.390601	1.440370	-0.009789
H175	H	-0.651340	1.068626	-0.371652
H176	H	-0.151340	1.568626	0.128348
F177	F	-0.451030	0.517648	-0.528931
F178	F	0.048970	1.017648	-0.028931
H179	H	-0.784165	1.063009	-0.377790
H180	H	-0.284165	1.563009	0.122210
H181	H	-1.109946	0.928843	-0.522349
H182	H	-0.609946	1.428843	-0.022349
F183	F	-1.126522	1.102454	-0.335568
F184	F	-0.626522	1.602454	0.164432
F185	F	-0.967489	0.923629	-0.527859
F186	F	-0.467489	1.423629	-0.027859
H187	H	-0.777232	0.900225	-0.552914
H188	H	-0.277232	1.400225	-0.052914
H189	H	-0.458772	0.913850	-0.748311
H190	H	0.041228	1.413850	-0.248311
