data_functionalizedCrystal
_audit_creation_method	'MofGen! by Chris Wilmer'
_symmetry_space_group_name_H-M	'P1'
_symmetry_Int_Tables_number	1
_symmetry_cell_setting	triclinic
loop_
_symmetry_equiv_pos_as_xyz
  x,y,z
_cell_length_a	21.295417
_cell_length_b	21.295420
_cell_length_c	12.759393
_cell_angle_alpha	90.022897
_cell_angle_beta	90.038095
_cell_angle_gamma	90.028757
loop_
_atom_site_label
_atom_site_type_symbol
_atom_site_fract_x
_atom_site_fract_y
_atom_site_fract_z
Zn1	Zn	-0.250608	0.962344	0.594019
Zn2	Zn	-0.355890	0.962250	0.418316
Zn3	Zn	-0.250636	0.857071	0.418349
Zn4	Zn	-0.355840	0.857037	0.593947
O5	O	-0.303244	0.909675	0.506158
O6	O	-0.264583	1.050421	0.570729
O7	O	-0.341960	0.948272	0.271299
O8	O	-0.162543	0.871089	0.441695
O9	O	-0.341934	1.050352	0.441640
O10	O	-0.162522	0.948433	0.570760
O11	O	-0.264630	0.870998	0.271323
O12	O	-0.264582	0.768977	0.441626
O13	O	-0.341849	0.871031	0.740978
O14	O	-0.341875	0.768952	0.570637
O15	O	-0.264535	0.948400	0.741031
O16	O	-0.443973	0.948240	0.441570
O17	O	-0.443936	0.870940	0.570606
C18	C	-0.303226	0.746124	0.506128
C19	C	-0.303234	0.676156	0.506140
C20	C	-0.343564	0.176701	0.573269
C21	C	-0.343565	0.242444	0.573258
C22	C	-0.303258	0.275316	0.506191
C23	C	-0.262959	0.242441	0.439111
C24	C	-0.262965	0.176700	0.439116
N25	N	-0.248142	0.378557	0.498292
N26	N	-0.248138	0.441009	0.498293
C27	C	-0.303240	0.473391	0.506169
N28	N	-0.358346	0.440963	0.514064
N29	N	-0.358349	0.378505	0.514068
C30	C	-0.303248	0.346602	0.506177
C31	C	-0.343539	0.577544	0.573227
C32	C	-0.343541	0.643288	0.573209
C33	C	-0.262930	0.643284	0.439067
C34	C	-0.262934	0.577541	0.439080
C35	C	-0.303238	0.544675	0.506166
C36	C	-0.466795	0.909593	0.506100
C37	C	-0.536763	0.909615	0.506110
C38	C	-0.569628	0.949901	0.438990
C39	C	-0.635371	0.949930	0.439014
C40	C	-0.668246	0.909663	0.506146
C41	C	-0.635373	0.869374	0.573279
C42	C	-0.569632	0.869351	0.573261
N43	N	-0.771509	0.854596	0.514145
N44	N	-0.833961	0.854620	0.514157
C45	C	-0.866320	0.909733	0.506206
N46	N	-0.833869	0.964822	0.498224
N47	N	-0.771412	0.964797	0.498208
C48	C	-0.739531	0.909685	0.506174
C49	C	-0.970471	0.950055	0.439109
C50	C	-1.036215	0.950085	0.439140
C51	C	-1.036216	0.869524	0.573400
C52	C	-0.970473	0.869499	0.573374
C53	C	-0.937605	0.909763	0.506223
C54	C	-0.139053	0.909775	0.506239
C55	C	-0.069085	0.909818	0.506274
C56	C	-0.303183	0.909723	0.780191
C57	C	-0.303157	0.909743	0.896968
C58	C	-0.303261	1.073866	0.506189
C59	C	-0.303269	1.143834	0.506202
C60	C	-0.303258	0.909665	0.233191
C61	C	-0.303107	0.909767	0.116415
C62	C	-0.262894	0.950032	0.951859
C63	C	-0.262867	0.950042	1.061584
C64	C	-0.343372	0.869473	1.061516
C65	C	-0.343396	0.869460	0.951793
H66	H	-0.230142	0.269210	0.384503
H67	H	-0.662134	0.982738	0.384357
O68	O	-0.223892	0.989221	0.898552
C69	C	-0.259745	1.029840	0.835057
H70	H	-0.309317	1.033707	0.868096
H71	H	-0.261929	1.010364	0.751894
C72	C	-0.168108	1.090547	0.792826
C73	C	-0.228992	1.095300	0.833411
H74	H	-0.149137	1.130925	0.791806
H75	H	-0.143952	1.063179	0.835601
H76	H	-0.169937	1.074314	0.723527
H77	H	-0.227161	1.111525	0.902713
H78	H	-0.253146	1.122672	0.790648
O79	O	-0.938475	0.830329	0.638420
C80	C	-0.900525	0.789667	0.578527
H81	H	-0.890698	0.811890	0.498939
H82	H	-0.925907	0.743030	0.566919
C83	C	-0.850126	0.750932	0.734045
C84	C	-0.838053	0.778231	0.636297
H85	H	-0.811592	0.743875	0.769682
H86	H	-0.875695	0.778325	0.774397
H87	H	-0.871280	0.712071	0.724358
H88	H	-0.816907	0.817094	0.645986
H89	H	-0.812479	0.750844	0.595948
O90	O	-0.537635	0.830182	0.638315
C91	C	-0.499687	0.789517	0.578423
H92	H	-0.489861	0.811739	0.498833
H93	H	-0.525071	0.742881	0.566818
C94	C	-0.449288	0.750784	0.733941
C95	C	-0.437215	0.778080	0.636191
H96	H	-0.410753	0.743727	0.769577
H97	H	-0.474855	0.778179	0.774293
H98	H	-0.470443	0.711924	0.724257
H99	H	-0.416068	0.816943	0.645877
H100	H	-0.411642	0.750692	0.595842
O101	O	-0.537630	0.989047	0.373916
C102	C	-0.499551	1.029683	0.433785
H103	H	-0.489683	1.007454	0.513369
H104	H	-0.524842	1.076339	0.445405
C105	C	-0.449242	1.068379	0.278236
C106	C	-0.437117	1.041074	0.375979
H107	H	-0.410730	1.075408	0.242578
H108	H	-0.474898	1.041003	0.237900
H109	H	-0.470319	1.107255	0.287933
H110	H	-0.416048	1.002196	0.366281
H111	H	-0.411456	1.068444	0.416313
H112	H	-1.062972	0.982894	0.384485
O113	O	-0.382692	0.144848	0.638569
C114	C	-0.368998	0.160933	0.743324
H115	H	-0.344790	0.208673	0.745574
H116	H	-0.336668	0.123952	0.778816
C117	C	-0.460143	0.105335	0.804007
C118	C	-0.430416	0.163973	0.806771
H119	H	-0.498028	0.107208	0.843146
H120	H	-0.469369	0.094496	0.733432
H121	H	-0.433195	0.074524	0.833582
H122	H	-0.457361	0.194782	0.777184
H123	H	-0.421197	0.174817	0.877342
O124	O	-1.068240	0.830430	0.638518
C125	C	-1.133313	0.839103	0.624167
H126	H	-1.142316	0.859745	0.543120
H127	H	-1.151905	0.872615	0.686540
C128	C	-1.156060	0.750068	0.733259
C129	C	-1.167118	0.775417	0.633712
H130	H	-1.176914	0.710785	0.739151
H131	H	-1.112219	0.744226	0.742931
H132	H	-1.171554	0.778001	0.785225
H133	H	-1.151618	0.747487	0.581749
H134	H	-1.210958	0.781253	0.624031
H135	H	-0.230113	0.670048	0.384456
O136	O	-0.382619	0.274451	0.638466
C137	C	-0.346813	0.312497	0.706435
H138	H	-0.299084	0.322350	0.669512
H139	H	-0.339948	0.287186	0.784316
C140	C	-0.440070	0.362837	0.770702
C141	C	-0.381450	0.374944	0.725349
H142	H	-0.461436	0.401356	0.782373
H143	H	-0.464193	0.337203	0.724913
H144	H	-0.434341	0.341743	0.835598
H145	H	-0.387180	0.396030	0.660448
H146	H	-0.357328	0.400583	0.771127
O147	O	-0.667277	0.830325	0.638641
C148	C	-0.651139	0.844036	0.743369
H149	H	-0.633021	0.894316	0.748744
H150	H	-0.612994	0.810265	0.770772
C151	C	-0.731764	0.774954	0.806886
C152	C	-0.709516	0.836712	0.813490
H153	H	-0.767772	0.770434	0.850142
H154	H	-0.742635	0.765715	0.736330
H155	H	-0.699971	0.746819	0.829721
H156	H	-0.741305	0.864845	0.790643
H157	H	-0.698651	0.845955	0.884045
O158	O	-0.223726	0.545707	0.373906
C159	C	-0.188160	0.588816	0.314687
H160	H	-0.186006	0.635692	0.357722
H161	H	-0.211156	0.595775	0.234824
C162	C	-0.123799	0.505609	0.246896
C163	C	-0.121150	0.563181	0.299756
H164	H	-0.082465	0.489796	0.237681
H165	H	-0.147762	0.476565	0.286789
H166	H	-0.142966	0.511417	0.180349
H167	H	-0.101992	0.557372	0.366306
H168	H	-0.097183	0.592224	0.259873
O169	O	-0.938635	0.989227	0.373852
C170	C	-0.981744	1.024784	0.314600
H171	H	-1.028581	1.026972	0.357655
H172	H	-0.988800	1.001758	0.234776
C173	C	-0.898505	1.089087	0.246665
C174	C	-0.956030	1.091779	0.299550
H175	H	-0.882643	1.130412	0.237377
H176	H	-0.869461	1.065130	0.286581
H177	H	-0.904393	1.069896	0.180151
H178	H	-0.950140	1.110962	0.366068
H179	H	-0.985073	1.115740	0.259645
H180	H	-0.230079	0.982849	1.106271
H181	H	-0.376183	0.836647	0.907100
O182	O	-0.223757	0.144866	0.373935
C183	C	-0.188194	0.187974	0.314712
H184	H	-0.186040	0.234851	0.357742
H185	H	-0.211191	0.194931	0.234849
C186	C	-0.123833	0.104766	0.246924
C187	C	-0.121184	0.162340	0.299779
H188	H	-0.082499	0.088954	0.237708
H189	H	-0.147794	0.075723	0.286820
H190	H	-0.143000	0.110572	0.180377
H191	H	-0.102024	0.156533	0.366329
H192	H	-0.097217	0.191382	0.259893
O193	O	-0.382747	0.545711	0.638425
C194	C	-0.418305	0.588822	0.697637
H195	H	-0.420461	0.635669	0.654585
H196	H	-0.395301	0.595853	0.777491
C197	C	-0.482662	0.505595	0.765477
C198	C	-0.485314	0.563132	0.712596
H199	H	-0.523996	0.489748	0.774710
H200	H	-0.458705	0.476550	0.725589
H201	H	-0.463490	0.511462	0.832017
H202	H	-0.504480	0.557263	0.646053
H203	H	-0.509277	0.592176	0.752474
O204	O	-0.382528	0.830438	1.114823
C205	C	-0.423166	0.866260	1.178300
H206	H	-0.427068	0.915831	1.145246
H207	H	-0.403686	0.868452	1.261467
C208	C	-0.483809	0.774580	1.220540
C209	C	-0.488606	0.835463	1.179938
H210	H	-0.524174	0.755582	1.221555
H211	H	-0.456429	0.750445	1.177778
H212	H	-0.467572	0.776415	1.289842
H213	H	-0.504834	0.833626	1.110633
H214	H	-0.515990	0.859596	1.222689
H215	H	-0.376359	0.670047	0.627820
