data_functionalizedCrystal
_audit_creation_method	'MofGen! by Chris Wilmer'
_symmetry_space_group_name_H-M	'P1'
_symmetry_Int_Tables_number	1
_symmetry_cell_setting	triclinic
loop_
_symmetry_equiv_pos_as_xyz
  x,y,z
_cell_length_a	16.109301
_cell_length_b	14.853567
_cell_length_c	14.586319
_cell_angle_alpha	90.000002
_cell_angle_beta	89.999213
_cell_angle_gamma	83.548205
loop_
_atom_site_label
_atom_site_type_symbol
_atom_site_fract_x
_atom_site_fract_y
_atom_site_fract_z
O1	O	1.103294	0.115881	-0.076175
O2	O	1.603294	0.615881	0.423825
O3	O	0.861252	0.130302	-0.076188
O4	O	1.361252	0.630302	0.423812
O5	O	0.988738	-0.008149	-0.076184
O6	O	1.488738	0.491851	0.423816
O7	O	0.975807	0.254332	-0.076179
O8	O	1.475807	0.754332	0.423821
O9	O	0.988729	-0.008151	0.076297
O10	O	1.488729	0.491849	0.576297
O11	O	0.861243	0.130300	0.076293
O12	O	1.361243	0.630300	0.576293
O13	O	1.103285	0.115879	0.076306
O14	O	1.603285	0.615879	0.576306
Cu15	Cu	0.982263	0.123089	0.090222
Cu16	Cu	1.482263	0.623089	0.590222
Cu17	Cu	0.982274	0.123091	-0.090104
Cu18	Cu	1.482274	0.623091	0.409896
O19	O	0.975799	0.254330	0.076302
O20	O	1.475799	0.754330	0.576302
C21	C	0.830272	0.129717	0.000050
C22	C	1.330272	0.629717	0.500050
C23	C	0.737974	0.127965	0.000045
C24	C	1.237974	0.627965	0.500045
C25	C	0.988148	-0.041738	0.000054
C26	C	1.488148	0.458262	0.500054
C27	C	0.986392	-0.141819	0.000046
C28	C	1.486392	0.358181	0.500046
C29	C	0.515811	0.206047	0.000057
C30	C	1.015811	0.706047	0.500057
C31	C	0.429089	0.204395	0.000063
C32	C	0.929089	0.704395	0.500063
C33	C	0.448732	0.040127	0.000056
C34	C	0.948732	0.540127	0.500056
C35	C	0.535453	0.041781	0.000057
C36	C	1.035453	0.541781	0.500057
C37	C	0.568990	0.124743	0.000052
C38	C	1.068990	0.624743	0.500052
C39	C	0.395546	0.121437	0.000058
C40	C	0.895546	0.621437	0.500058
C41	C	0.301518	0.119645	0.000064
C42	C	0.801518	0.619645	0.500064
C43	C	0.663025	0.126536	0.000048
C44	C	1.163025	0.626536	0.500048
C45	C	0.903241	-0.554215	0.000059
C46	C	1.403241	-0.054215	0.500059
C47	C	1.054697	-0.575746	0.000067
C48	C	1.554697	-0.075746	0.500067
C49	C	1.056348	-0.481715	0.000062
C50	C	1.556348	0.018285	0.500062
C51	C	0.981444	-0.423930	0.000056
C52	C	1.481444	0.076070	0.500056
C53	C	0.904889	-0.460175	0.000056
C54	C	1.404889	0.039825	0.500056
C55	C	1.132901	-0.445463	0.000071
C56	C	1.632901	0.054537	0.500071
C57	C	1.134555	-0.351426	0.000067
C58	C	1.634555	0.148574	0.500067
C59	C	1.059650	-0.293639	0.000055
C60	C	1.559650	0.206361	0.500055
C61	C	0.983093	-0.329890	0.000054
C62	C	1.483093	0.170110	0.500054
C63	C	0.908189	-0.272104	0.000048
C64	C	1.408189	0.227896	0.500048
C65	C	0.831630	-0.308353	0.000040
C66	C	1.331630	0.191647	0.500040
C67	C	0.829984	-0.402388	0.000044
C68	C	1.329984	0.097612	0.500044
C69	C	1.061296	-0.199604	0.000051
C70	C	1.561296	0.300396	0.500051
C71	C	0.909837	-0.178064	0.000046
C72	C	1.409837	0.321936	0.500046
C73	C	1.134265	0.116464	0.000066
C74	C	1.634265	0.616464	0.500066
C75	C	1.226563	0.118215	0.000065
C76	C	1.726563	0.618215	0.500065
C77	C	0.976389	0.287918	0.000062
C78	C	1.476389	0.787918	0.500062
C79	C	0.978145	0.387999	0.000064
C80	C	1.478145	0.887999	0.500064
N81	N	0.982262	0.123087	0.217054
N82	N	1.482262	0.623087	0.717054
N83	N	0.982281	0.123087	-0.216936
N84	N	1.482281	0.623087	0.283064
C85	C	1.038731	0.061801	0.452062
C86	C	1.538731	0.561801	0.952062
C87	C	1.038734	0.061799	0.548044
C88	C	1.538734	0.561799	1.048044
C89	C	0.925806	0.184375	0.548049
C90	C	1.425806	0.684375	1.048049
C91	C	0.925800	0.184372	0.452070
C92	C	1.425800	0.684372	0.952070
C93	C	0.982268	0.123086	0.404079
C94	C	1.482268	0.623086	0.904079
C95	C	0.982276	0.123087	0.596039
C96	C	1.482276	0.623087	1.096039
C97	C	0.982278	0.123085	0.700107
C98	C	1.482278	0.623085	1.200107
C99	C	0.982265	0.123087	0.300005
C100	C	1.482265	0.623087	0.800005
H101	H	0.385793	0.270600	0.000068
H102	H	0.885793	0.770600	0.500068
N103	N	1.217122	-0.312327	0.000060
N104	N	1.717122	0.187673	0.500060
H105	H	1.221181	-0.273786	0.056580
H106	H	1.721181	0.226214	0.556580
H107	H	1.264275	-0.363251	0.000028
H108	H	1.764275	0.136749	0.500028
H109	H	1.084711	0.011894	0.587109
H110	H	1.584711	0.511894	1.087109
H111	H	0.421415	-0.027418	0.000065
H112	H	0.921415	0.472582	0.500065
N113	N	0.592819	-0.045915	0.000063
N114	N	1.092819	0.454085	0.500063
H115	H	0.558415	-0.098723	0.000060
H116	H	1.058415	0.401277	0.500060
H117	H	0.629232	-0.048807	-0.056461
H118	H	1.129232	0.451193	0.443539
H119	H	0.770643	-0.261292	0.000042
H120	H	1.270643	0.238708	0.500042
N121	N	0.829047	-0.115740	0.000032
N122	N	1.329047	0.384260	0.500032
H123	H	0.780302	-0.152975	0.000027
H124	H	1.280302	0.347025	0.500027
H125	H	0.826425	-0.076255	0.056559
H126	H	1.326425	0.423745	0.556559
N127	N	0.747417	-0.441484	0.000039
N128	N	1.247417	0.058516	0.500039
H129	H	0.757740	-0.509822	0.000048
H130	H	1.257740	-0.009822	0.500048
H131	H	0.714634	-0.420341	0.056564
H132	H	1.214634	0.079659	0.556564
N133	N	0.820669	-0.593304	0.000046
N134	N	1.320669	-0.093304	0.500046
H135	H	0.830986	-0.661643	0.000045
H136	H	1.330986	-0.161643	0.500045
H137	H	0.787885	-0.572164	0.056570
H138	H	1.287885	-0.072164	0.556570
H139	H	0.879832	0.234274	0.587133
H140	H	1.379832	0.734274	1.087133
N141	N	0.864890	0.250468	0.400307
N142	N	1.364890	0.750468	0.900307
H143	H	0.829122	0.289296	0.445272
H144	H	1.329122	0.789296	0.945272
H145	H	0.896757	0.290333	0.360476
H146	H	1.396757	0.790333	0.860476
N147	N	1.135478	-0.638075	0.000084
N148	N	1.635478	-0.138075	0.500084
H149	H	1.138171	-0.677576	-0.056437
H150	H	1.638171	-0.177576	0.443563
H151	H	1.184181	-0.600784	0.000119
H152	H	1.684181	-0.100784	0.500119
H153	H	1.193884	-0.492518	0.000084
H154	H	1.693884	0.007482	0.500084
N155	N	0.551982	0.295525	0.000069
N156	N	1.051982	0.795525	0.500069
H157	H	0.614990	0.284239	0.000067
H158	H	1.114990	0.784239	0.500067
H159	H	0.532535	0.331108	-0.056453
H160	H	1.032535	0.831108	0.443547
H161	H	1.084709	0.011897	0.412990
H162	H	1.584709	0.511897	0.912990
N163	N	1.143858	-0.160505	0.000069
N164	N	1.643858	0.339495	0.500069
H165	H	1.191059	-0.211380	0.000079
H166	H	1.691059	0.288620	0.500079
H167	H	1.147850	-0.121962	-0.056459
H168	H	1.647850	0.378038	0.443541
