data_functionalizedCrystal
_audit_creation_method	'MofGen! by Chris Wilmer'
_symmetry_space_group_name_H-M	'P1'
_symmetry_Int_Tables_number	1
_symmetry_cell_setting	triclinic
loop_
_symmetry_equiv_pos_as_xyz
  x,y,z
_cell_length_a	12.811415
_cell_length_b	12.837943
_cell_length_c	11.295657
_cell_angle_alpha	94.161228
_cell_angle_beta	90.842671
_cell_angle_gamma	90.588083
loop_
_atom_site_label
_atom_site_type_symbol
_atom_site_fract_x
_atom_site_fract_y
_atom_site_fract_z
O1	O	0.264046	-1.368576	0.127510
O2	O	0.764046	-0.868576	0.627510
O3	O	0.250662	-1.066803	0.126072
O4	O	0.750662	-0.566803	0.626072
O5	O	0.106463	-1.226313	0.110491
O6	O	0.606463	-0.726313	0.610491
O7	O	0.408245	-1.209066	0.143090
O8	O	0.908245	-0.709066	0.643090
O9	O	0.120225	-1.238718	-0.086067
O10	O	0.620225	-0.738718	0.413933
O11	O	0.264424	-1.079208	-0.070487
O12	O	0.764424	-0.579208	0.429513
O13	O	0.277808	-1.380981	-0.069049
O14	O	0.777808	-0.880981	0.430951
Cu15	Cu	0.272373	-1.231227	-0.087715
Cu16	Cu	0.772373	-0.731227	0.412285
Cu17	Cu	0.256097	-1.216557	0.144738
Cu18	Cu	0.756097	-0.716557	0.644738
O19	O	0.422008	-1.221471	-0.053468
O20	O	0.922008	-0.721471	0.446532
C21	C	0.253022	-1.034396	0.027305
C22	C	0.753022	-0.534396	0.527305
C23	C	0.239538	-0.919352	0.025852
C24	C	0.739538	-0.419352	0.525852
N25	N	0.283820	-1.241553	-0.251210
N26	N	0.783820	-0.741553	0.248790
C27	C	0.074448	-1.231930	0.008013
C28	C	0.574448	-0.731930	0.508013
C29	C	-0.041448	-1.230171	-0.004498
C30	C	0.458552	-0.730171	0.495502
C31	C	-0.274227	-1.213323	0.186304
C32	C	0.225773	-0.713323	0.686304
C33	C	-0.383122	-1.211670	0.174554
C34	C	0.116878	-0.711670	0.674554
C35	C	-0.368138	-1.225205	-0.039747
C36	C	0.131862	-0.725205	0.460253
C37	C	-0.259242	-1.226858	-0.027997
C38	C	0.240758	-0.726858	0.472003
C39	C	-0.212290	-1.220918	0.085032
C40	C	0.287710	-0.720918	0.585032
C41	C	-0.103393	-1.222578	0.096781
C42	C	0.396607	-0.722578	0.596781
C43	C	-0.088410	-1.236106	-0.117519
C44	C	0.411590	-0.736106	0.382481
C45	C	-0.197306	-1.234453	-0.129269
C46	C	0.302694	-0.734453	0.370731
C47	C	0.454022	-1.215854	0.049013
C48	C	0.954022	-0.715854	0.549013
C49	C	0.569918	-1.217612	0.061532
C50	C	1.069918	-0.717612	0.561532
C51	C	0.275448	-1.413388	0.029721
C52	C	0.775448	-0.913388	0.529721
C53	C	0.288932	-1.528431	0.031182
C54	C	0.788932	-1.028431	0.531182
C55	C	0.401643	-0.677994	0.043346
C56	C	0.901643	-0.177994	0.543346
C57	C	0.388978	-0.569899	0.041980
C58	C	0.888978	-0.069899	0.541980
C59	C	0.201545	-0.595067	0.021746
C60	C	0.701545	-0.095067	0.521746
C61	C	0.214209	-0.703161	0.023112
C62	C	0.714209	-0.203161	0.523112
C63	C	0.314261	-0.744620	0.033914
C64	C	0.814261	-0.244620	0.533914
C65	C	0.326925	-0.852717	0.035288
C66	C	0.826925	-0.352717	0.535288
C67	C	0.139493	-0.877883	0.015046
C68	C	0.639493	-0.377883	0.515046
C69	C	0.126828	-0.769788	0.013680
C70	C	0.626828	-0.269788	0.513680
C71	C	0.162169	-1.131803	-0.513690
C72	C	0.662169	-0.631803	-0.013690
C73	C	0.170829	-1.139629	-0.637415
C74	C	0.670829	-0.639629	-0.137415
C75	C	0.309803	-1.265026	-0.622386
C76	C	0.809803	-0.765026	-0.122386
C77	C	0.301144	-1.257199	-0.498661
C78	C	0.801144	-0.757199	0.001339
C79	C	0.227323	-1.190587	-0.444318
C80	C	0.727323	-0.690587	0.055682
C81	C	0.218659	-1.182767	-0.320592
C82	C	0.718659	-0.682767	0.179408
C83	C	0.357638	-1.308157	-0.305565
C84	C	0.857638	-0.808157	0.194435
C85	C	0.366298	-1.315983	-0.429290
C86	C	0.866298	-0.815983	0.070710
N87	N	0.244642	-1.206240	0.308232
N88	N	0.744642	-0.706240	0.808232
H89	H	-0.065167	-1.217745	0.188815
H90	H	0.434833	-0.717745	0.688815
H91	H	0.410691	-1.356024	-0.249069
H92	H	0.910691	-0.856024	0.250931
F93	F	0.095072	-0.550925	0.010236
F94	F	0.595072	-0.050925	0.510236
F95	F	0.433407	-0.896839	0.046789
F96	F	0.933407	-0.396839	0.546789
F97	F	-0.224255	-1.207015	0.306596
F98	F	0.275745	-0.707015	0.806596
H99	H	0.460133	-0.515655	0.049657
H100	H	0.960133	-0.015655	0.549657
F101	F	-0.418124	-1.231501	-0.160031
F102	F	0.081876	-0.731501	0.339969
F103	F	0.508122	-0.722119	0.054856
F104	F	1.008122	-0.222119	0.554856
F105	F	0.444864	-1.386867	-0.487138
F106	F	0.944864	-0.886867	0.012862
F107	F	-0.247286	-1.240766	-0.249556
F108	F	0.252714	-0.740766	0.250444
H109	H	-0.433547	-1.205481	0.257020
H110	H	0.066453	-0.705481	0.757020
F111	F	0.140089	-1.111879	-0.262758
F112	F	0.640089	-0.611879	0.237242
H113	H	-0.037969	-1.242295	-0.199982
H114	H	0.462031	-0.742295	0.300018
F115	F	0.046489	-0.948799	0.005021
F116	F	0.546489	-0.448799	0.505021
F117	F	0.020352	-0.725653	0.002180
F118	F	0.520352	-0.225653	0.502180
F119	F	0.083588	-1.060931	-0.455853
F120	F	0.583588	-0.560931	0.044147
F121	F	0.101485	-1.077061	-0.711241
F122	F	0.601485	-0.577061	-0.211241
H123	H	0.369908	-1.319254	-0.666654
H124	H	0.869908	-0.819254	-0.166654
