data_functionalizedCrystal
_audit_creation_method	'MofGen! by Chris Wilmer'
_symmetry_space_group_name_H-M	'P1'
_symmetry_Int_Tables_number	1
_symmetry_cell_setting	triclinic
loop_
_symmetry_equiv_pos_as_xyz
  x,y,z
_cell_length_a	25.639239
_cell_length_b	17.640112
_cell_length_c	17.639306
_cell_angle_alpha	92.195878
_cell_angle_beta	101.185844
_cell_angle_gamma	78.736162
loop_
_atom_site_label
_atom_site_type_symbol
_atom_site_fract_x
_atom_site_fract_y
_atom_site_fract_z
Zn1	Zn	-0.067208	-1.247712	-0.195068
Zn2	Zn	-0.141116	-1.221936	-0.068094
Zn3	Zn	-0.074108	-1.095061	-0.093721
Zn4	Zn	-0.175050	-1.120633	-0.220667
O5	O	-0.114370	-1.171336	-0.144387
O6	O	-0.059923	-1.350574	-0.156787
O7	O	-0.120914	-1.183616	0.034773
O8	O	-0.000018	-1.115396	-0.107176
O9	O	-0.114223	-1.331636	-0.063500
O10	O	0.005052	-1.227548	-0.181635
O11	O	-0.071683	-1.090402	0.015945
O12	O	-0.104587	-0.992173	-0.131998
O13	O	-0.172058	-1.158980	-0.323537
O14	O	-0.178748	-1.010960	-0.225265
O15	O	-0.092827	-1.252344	-0.304730
O16	O	-0.218793	-1.208412	-0.088322
O17	O	-0.243723	-1.133986	-0.200416
C18	C	-0.146099	-0.974009	-0.184191
C19	C	-0.159687	-0.889596	-0.201236
C20	C	-0.250230	-1.171201	-0.144378
C21	C	-0.308343	-1.171218	-0.144386
C22	C	-0.135458	-1.211390	-0.342458
C23	C	-0.144444	-1.228459	-0.426863
C24	C	-0.655684	-1.210233	-0.086077
C25	C	-0.710285	-1.210265	-0.086081
O26	O	-0.727468	-1.243296	-0.036494
N27	N	-0.750593	-1.171479	-0.144411
C28	C	-0.736299	-1.132666	-0.202744
O29	O	-0.775598	-1.099680	-0.252359
C30	C	-0.681699	-1.132640	-0.202742
C31	C	-0.641393	-1.171421	-0.144405
C32	C	-0.615379	-1.249012	-0.027745
C33	C	-0.560783	-1.248979	-0.027740
C34	C	-0.546491	-1.210167	-0.086067
C35	C	-0.586796	-1.171388	-0.144400
C36	C	-0.667405	-1.093832	-0.261078
C37	C	-0.612800	-1.093810	-0.261072
C38	C	-0.572494	-1.132591	-0.202734
C39	C	-0.517907	-1.132544	-0.202723
N40	N	-0.477599	-1.171329	-0.144393
C41	C	-0.491891	-1.210141	-0.086066
C42	C	-0.850961	-1.132726	-0.202744
C43	C	-0.905561	-1.132747	-0.202744
C44	C	-0.879543	-1.210347	-0.086081
C45	C	-0.824943	-1.210320	-0.086080
C46	C	-0.810653	-1.171511	-0.144415
C47	C	-0.377235	-1.210068	-0.086060
C48	C	-0.322634	-1.210029	-0.086058
C49	C	-0.348656	-1.132434	-0.202722
C50	C	-0.403252	-1.132469	-0.202722
C51	C	-0.417539	-1.171292	-0.144387
O52	O	-0.500684	-1.099531	-0.252287
O53	O	-0.452587	-1.243130	-0.036465
C54	C	0.022021	-1.171495	-0.144409
C55	C	0.080143	-1.171563	-0.144418
C56	C	-0.082518	-1.369433	-0.104429
C57	C	-0.068945	-1.453850	-0.087401
C58	C	-0.011134	-0.563031	-0.014897
C59	C	-0.023914	-0.483714	-0.030925
C60	C	-0.101212	-0.503298	-0.127876
C61	C	-0.088437	-0.582619	-0.111859
C62	C	-0.043398	-0.612479	-0.055368
C63	C	-0.120701	-0.632067	-0.152330
C64	C	-0.107929	-0.711381	-0.136312
C65	C	-0.062892	-0.741246	-0.079822
C66	C	-0.030625	-0.691793	-0.039350
C67	C	-0.165743	-0.602205	-0.208817
C68	C	-0.198007	-0.651653	-0.249288
C69	C	-0.185232	-0.730969	-0.233274
C70	C	-0.140196	-0.760834	-0.176784
C71	C	-0.217499	-0.780422	-0.273746
C72	C	-0.204727	-0.859736	-0.257727
C73	C	-0.127423	-0.840148	-0.160765
C74	C	-0.045860	-1.041961	-0.753495
C75	C	-0.054312	-1.058017	-0.832803
C76	C	-0.105571	-1.155071	-0.813180
C77	C	-0.097120	-1.139026	-0.733868
C78	C	-0.067265	-1.082470	-0.704032
C79	C	-0.118526	-1.179535	-0.684405
C80	C	-0.110078	-1.163488	-0.605100
C81	C	-0.080226	-1.106932	-0.575258
C82	C	-0.058818	-1.066423	-0.624727
C83	C	-0.148384	-1.236087	-0.714243
C84	C	-0.169789	-1.276595	-0.664780
C85	C	-0.161339	-1.260552	-0.585473
C86	C	-0.131486	-1.203997	-0.555631
C87	C	-0.182747	-1.301062	-0.536004
C88	C	-0.174300	-1.285015	-0.456699
C89	C	-0.123039	-1.187950	-0.476326
C90	C	-0.093320	-1.131481	0.052921
C91	C	-0.084163	-1.114559	0.137356
H92	H	-0.289817	-1.241609	-0.038550
H93	H	0.025548	-0.587347	0.031092
C94	C	-0.780611	-1.252985	-0.021906
N95	N	-0.747222	-1.285124	0.026431
H96	H	-0.098721	-1.141904	-0.452031
H97	H	-0.191721	-1.318011	-0.416423
H98	H	-0.176140	-0.537622	-0.221857
C99	C	0.011584	-0.429323	0.013601
N100	N	0.038319	-0.388356	0.047137
C101	C	-0.070933	-1.089281	-0.488019
N102	N	-0.063933	-1.075987	-0.422311
H103	H	-0.137885	-0.478975	-0.173869
H104	H	-0.021542	-0.995915	-0.729199
H105	H	-0.207060	-1.347104	-0.560310
H106	H	-0.155259	-1.249152	-0.778819
H107	H	-0.436071	-1.100893	-0.250227
H108	H	-0.234679	-0.627329	-0.295281
C109	C	-0.030762	-1.013450	-0.887211
N110	N	-0.013024	-0.979882	-0.928191
H111	H	-0.254173	-0.756097	-0.319735
C112	C	-0.240217	-0.914132	-0.302251
N113	N	-0.266949	-0.955104	-0.335787
C114	C	-0.138554	-1.217111	-0.846043
N115	N	-0.163449	-1.263781	-0.870807
H116	H	-0.337012	-1.100831	-0.250210
H117	H	-0.090741	-0.864463	-0.114776
H118	H	-0.034500	-1.020377	-0.600432
C119	C	-0.202773	-1.338636	-0.697644
N120	N	-0.227667	-1.385306	-0.722407
H121	H	-0.601169	-1.062208	-0.308577
H122	H	-0.388859	-1.241684	-0.038559
H123	H	-0.627008	-1.280621	0.019754
C124	C	-0.895274	-1.253048	-0.021924
N125	N	-0.907125	-1.285210	0.026395
C126	C	-0.516452	-1.291635	0.036442
N127	N	-0.483065	-1.323763	0.084788
H128	H	-0.938375	-1.101159	-0.250242
H129	H	-0.700214	-1.062248	-0.308580
C130	C	-0.835249	-1.090034	-0.266924
N131	N	-0.823417	-1.057883	-0.315268
H132	H	0.006057	-0.716108	0.006639
C133	C	-0.048841	-0.828495	-0.062203
N134	N	-0.038257	-0.894211	-0.048934
