data_functionalizedCrystal
_audit_creation_method	'MofGen! by Chris Wilmer'
_symmetry_space_group_name_H-M	'P1'
_symmetry_Int_Tables_number	1
_symmetry_cell_setting	triclinic
loop_
_symmetry_equiv_pos_as_xyz
  x,y,z
_cell_length_a	12.503572
_cell_length_b	11.792241
_cell_length_c	11.792241
_cell_angle_alpha	95.806584
_cell_angle_beta	86.452757
_cell_angle_gamma	86.461724
loop_
_atom_site_label
_atom_site_type_symbol
_atom_site_fract_x
_atom_site_fract_y
_atom_site_fract_z
O1	O	0.089216	-1.513406	0.149050
O2	O	0.422550	-1.180073	0.482383
O3	O	0.755883	-0.846739	0.815716
O4	O	0.089241	-1.183067	0.165081
O5	O	0.422575	-0.849733	0.498414
O6	O	0.755908	-0.516400	0.831747
O7	O	0.089221	-1.356252	-0.008105
O8	O	0.422554	-1.022919	0.325228
O9	O	0.755887	-0.689585	0.658562
O10	O	0.089237	-1.340220	0.322235
O11	O	0.422570	-1.006887	0.655568
O12	O	0.755904	-0.673554	0.988902
O13	O	-0.089420	-1.343228	0.004941
O14	O	0.243914	-1.009894	0.338275
O15	O	0.577247	-0.676561	0.671608
O16	O	-0.089399	-1.170042	0.178127
O17	O	0.243934	-0.836709	0.511460
O18	O	0.577268	-0.503376	0.844794
O19	O	-0.089424	-1.500381	0.162096
O20	O	0.243909	-1.167048	0.495429
O21	O	0.577243	-0.833715	0.828762
Cu22	Cu	-0.105723	-1.334023	0.171303
Cu23	Cu	0.227610	-1.000689	0.504636
Cu24	Cu	0.560944	-0.667356	0.837969
Cu25	Cu	0.105540	-1.349425	0.155874
Cu26	Cu	0.438873	-1.016092	0.489207
Cu27	Cu	0.772207	-0.682759	0.822541
O28	O	-0.089403	-1.327196	0.335281
O29	O	0.243930	-0.993863	0.668615
O30	O	0.577263	-0.660529	1.001948
C31	C	-0.000076	-1.134264	0.170596
C32	C	0.333258	-0.800930	0.503930
C33	C	0.666591	-0.467597	0.837263
C34	C	-0.000066	-1.008251	0.167581
C35	C	0.333267	-0.674917	0.500915
C36	C	0.666600	-0.341584	0.834248
N37	N	-0.254314	-1.323197	0.182154
N38	N	0.079019	-0.989864	0.515487
N39	N	0.412353	-0.656531	0.848820
C40	C	-0.000099	-1.348733	-0.043873
C41	C	0.333234	-1.015399	0.289461
C42	C	0.666568	-0.682066	0.622794
C43	C	-0.000098	-1.345718	-0.169886
C44	C	0.333236	-1.012385	0.163447
C45	C	0.666569	-0.679052	0.496780
C46	C	-0.473427	-1.307273	0.198126
C47	C	-0.140094	-0.973939	0.531459
C48	C	0.193239	-0.640606	0.864792
C49	C	-0.526763	-1.376180	0.129046
C50	C	-0.193429	-1.042847	0.462379
C51	C	0.139904	-0.709514	0.795712
C52	C	-0.648685	-1.367320	0.137933
C53	C	-0.315351	-1.033987	0.471266
C54	C	0.017982	-0.700653	0.804599
C55	C	-0.351494	-1.316132	0.189240
C56	C	-0.018161	-0.982799	0.522573
C57	C	0.315173	-0.649465	0.855907
N58	N	0.254131	-1.360260	0.145014
N59	N	0.587464	-1.026926	0.478347
N60	N	0.920798	-0.693593	0.811680
C61	C	-0.000105	-1.549185	0.156580
C62	C	0.333229	-1.215851	0.489913
C63	C	0.666562	-0.882518	0.823246
C64	C	-0.000107	-1.675198	0.159594
C65	C	0.333226	-1.341865	0.492928
C66	C	0.666560	-1.008531	0.826261
C67	C	-0.000097	-0.777536	0.162041
C68	C	0.333236	-0.444203	0.495374
C69	C	0.666569	-0.110870	0.828707
C70	C	-0.000080	-0.905923	0.165119
C71	C	0.333253	-0.572589	0.498453
C72	C	0.666586	-0.239256	0.831786
C73	C	-0.000079	-1.340177	-0.400600
C74	C	0.333254	-1.006844	-0.067267
C75	C	0.666587	-0.673510	0.266067
C76	C	-0.000089	-1.343256	-0.272214
C77	C	0.333244	-1.009923	0.061119
C78	C	0.666577	-0.676589	0.394453
C79	C	-0.000081	-1.334715	0.371049
C80	C	0.333252	-1.001382	0.704382
C81	C	0.666585	-0.668049	1.037716
C82	C	-0.000076	-1.337730	0.497062
C83	C	0.333258	-1.004397	0.830396
C84	C	0.666591	-0.671064	1.163729
H85	H	-0.480857	-1.441829	0.063231
H86	H	-0.147524	-1.108496	0.396564
H87	H	0.185809	-0.775163	0.729897
N88	N	-0.534229	-1.220322	0.285301
N89	N	-0.200896	-0.886989	0.618634
N90	N	0.132437	-0.553656	0.951968
H91	H	-0.580884	-1.260766	0.339106
H92	H	-0.247551	-0.927433	0.672440
H93	H	0.085782	-0.594099	1.005773
H94	H	-0.481586	-1.175588	0.330092
H95	H	-0.148253	-0.842255	0.663425
H96	H	0.185080	-0.508922	0.996759
