data_functionalizedCrystal
_audit_creation_method	'MofGen! by Chris Wilmer'
_symmetry_space_group_name_H-M	'P1'
_symmetry_Int_Tables_number	1
_symmetry_cell_setting	triclinic
loop_
_symmetry_equiv_pos_as_xyz
  x,y,z
_cell_length_a	17.699083
_cell_length_b	17.699083
_cell_length_c	14.586319
_cell_angle_alpha	90.001080
_cell_angle_beta	89.999815
_cell_angle_gamma	83.283015
loop_
_atom_site_label
_atom_site_type_symbol
_atom_site_fract_x
_atom_site_fract_y
_atom_site_fract_z
O1	O	1.004078	0.095706	0.076114
O2	O	1.504078	0.595706	0.576114
O3	O	0.783699	0.108158	0.076144
O4	O	1.283699	0.608158	0.576144
O5	O	0.900115	-0.008257	0.076120
O6	O	1.400115	0.491743	0.576120
O7	O	0.887662	0.212121	0.076138
O8	O	1.387662	0.712121	0.576138
O9	O	0.900101	-0.008250	-0.076361
O10	O	1.400101	0.491750	0.423639
O11	O	0.783685	0.108165	-0.076337
O12	O	1.283685	0.608165	0.423663
O13	O	1.004064	0.095713	-0.076367
O14	O	1.504064	0.595713	0.423633
Cu15	Cu	0.893873	0.101940	-0.090275
Cu16	Cu	1.393873	0.601940	0.409725
Cu17	Cu	0.893890	0.101932	0.090051
Cu18	Cu	1.393890	0.601932	0.590051
O19	O	0.887648	0.212128	-0.076343
O20	O	1.387648	0.712128	0.423657
C21	C	0.755495	0.107716	-0.000093
C22	C	1.255495	0.607716	0.499907
C23	C	0.671477	0.106377	-0.000081
C24	C	1.171477	0.606377	0.499919
C25	C	0.622856	0.174710	-0.000076
C26	C	1.122856	0.674710	0.499924
C27	C	0.543913	0.173448	-0.000088
C28	C	1.043913	0.673448	0.499912
C29	C	0.513592	0.103852	-0.000099
C30	C	1.013592	0.603852	0.499901
C31	C	0.562219	0.035513	-0.000107
C32	C	1.062219	0.535513	0.499893
C33	C	0.641161	0.036776	-0.000101
C34	C	1.141161	0.536776	0.499899
C35	C	0.243856	0.030418	-0.000130
C36	C	0.743856	0.530418	0.499870
C37	C	0.164908	0.029160	-0.000133
C38	C	0.664908	0.529160	0.499867
C39	C	0.146608	0.167090	-0.000117
C40	C	0.646608	0.667090	0.499883
C41	C	0.225550	0.168353	-0.000111
C42	C	0.725550	0.668353	0.499889
C43	C	0.274170	0.100015	-0.000124
C44	C	0.774170	0.600015	0.499876
C45	C	0.359769	0.101384	-0.000113
C46	C	0.859769	0.601384	0.499887
C47	C	0.427995	0.102481	-0.000103
C48	C	0.927995	0.602481	0.499897
C49	C	0.899662	-0.036451	-0.000121
C50	C	1.399662	0.463549	0.499879
C51	C	0.898323	-0.120469	-0.000121
C52	C	1.398323	0.379531	0.499879
C53	C	0.966656	-0.169090	-0.000132
C54	C	1.466656	0.330910	0.499868
C55	C	0.965394	-0.248033	-0.000123
C56	C	1.465394	0.251967	0.499877
C57	C	0.895798	-0.278354	-0.000111
C58	C	1.395798	0.221646	0.499889
C59	C	0.827459	-0.229727	-0.000097
C60	C	1.327459	0.270273	0.499903
C61	C	0.828722	-0.150785	-0.000099
C62	C	1.328722	0.349215	0.499901
C63	C	0.822364	-0.548090	-0.000089
C64	C	1.322364	-0.048090	0.499911
C65	C	0.821106	-0.627038	-0.000090
C66	C	1.321106	-0.127038	0.499910
C67	C	0.959036	-0.645338	-0.000113
C68	C	1.459036	-0.145338	0.499887
C69	C	0.960299	-0.566396	-0.000115
C70	C	1.460299	-0.066396	0.499885
C71	C	0.891961	-0.517776	-0.000097
C72	C	1.391961	-0.017776	0.499903
C73	C	0.893330	-0.432177	-0.000104
C74	C	1.393330	0.067823	0.499896
C75	C	0.894427	-0.363951	-0.000110
C76	C	1.394427	0.136049	0.499890
C77	C	1.032268	0.096156	-0.000129
C78	C	1.532268	0.596156	0.499871
C79	C	1.116286	0.097494	-0.000134
C80	C	1.616286	0.597494	0.499866
C81	C	0.888102	0.240322	-0.000101
C82	C	1.388102	0.740322	0.499899
C83	C	0.889440	0.324340	-0.000094
C84	C	1.389440	0.824340	0.499906
N85	N	0.893867	0.101945	-0.217106
N86	N	1.393867	0.601945	0.282894
C87	C	0.939697	0.147780	-0.452116
C88	C	1.439697	0.647780	0.047884
C89	C	0.939705	0.147775	-0.548097
C90	C	1.439705	0.647775	-0.048097
C91	C	0.848070	0.056080	-0.548101
C92	C	1.348070	0.556080	-0.048101
C93	C	0.848067	0.056081	-0.452121
C94	C	1.348067	0.556081	0.047879
C95	C	0.893879	0.101936	-0.404131
C96	C	1.393879	0.601936	0.095869
C97	C	0.893890	0.101929	-0.596092
C98	C	1.393890	0.601929	-0.096092
C99	C	0.893898	0.101923	-0.700159
C100	C	1.393898	0.601923	-0.200159
C101	C	0.893872	0.101941	-0.300057
C102	C	1.393872	0.601941	0.199943
N103	N	0.893902	0.101920	0.216883
N104	N	1.393902	0.601920	0.716883
H105	H	0.250232	0.225025	-0.000098
H106	H	0.750232	0.725025	0.499902
O107	O	0.693609	-0.036925	-0.000110
O108	O	1.193609	0.463075	0.499890
H109	H	0.682853	-0.070242	0.062037
H110	H	1.182853	0.429758	0.562037
O111	O	0.989107	0.197236	-0.400353
O112	O	1.489107	0.697236	0.099647
H113	H	1.029844	0.160902	-0.356615
H114	H	1.529844	0.660902	0.143385
H115	H	0.107012	0.222734	-0.000111
H116	H	0.607012	0.722734	0.499889
O117	O	0.132201	-0.045908	-0.000160
O118	O	0.632201	0.454092	0.499840
H119	H	0.179271	-0.093216	-0.000180
H120	H	0.679271	0.406784	0.499820
O121	O	1.032745	-0.697782	-0.000124
O122	O	1.532745	-0.197782	0.499876
H123	H	1.066043	-0.687024	-0.062286
H124	H	1.566043	-0.187024	0.437714
O125	O	0.748661	-0.495652	-0.000074
O126	O	1.248661	0.004348	0.499926
H127	H	0.745935	-0.459244	-0.062218
H128	H	1.245935	0.040756	0.437782
O129	O	0.296287	-0.043290	-0.000137
O130	O	0.796287	0.456710	0.499863
H131	H	0.356275	-0.030725	-0.000142
H132	H	0.856275	0.469275	0.499858
H133	H	1.023330	-0.144409	-0.000147
H134	H	1.523330	0.355591	0.499853
H135	H	0.647537	0.231384	-0.000067
H136	H	1.147537	0.731384	0.499933
O137	O	0.529517	-0.039552	-0.000120
O138	O	1.029517	0.460448	0.499880
H139	H	0.549054	-0.072372	-0.062277
H140	H	1.049054	0.427628	0.437723
O141	O	1.039096	-0.300477	-0.000150
O142	O	1.539096	0.199523	0.499850
H143	H	1.087702	-0.266131	-0.000176
H144	H	1.587702	0.233869	0.499824
O145	O	0.989119	0.197224	-0.599855
O146	O	1.489119	0.697224	-0.099855
H147	H	1.020968	0.229112	-0.550356
H148	H	1.520968	0.729112	-0.050356
O149	O	0.752391	-0.262423	-0.000094
O150	O	1.252391	0.237577	0.499906
H151	H	0.762991	-0.325485	-0.000108
H152	H	1.262991	0.174515	0.499892
O153	O	0.746038	-0.659745	-0.000070
O154	O	1.246038	-0.159745	0.499930
H155	H	0.698730	-0.612675	-0.000048
H156	H	1.198730	-0.112675	0.499952
O157	O	0.798651	0.006632	-0.599860
O158	O	1.298651	0.506632	-0.099860
H159	H	0.806343	0.014338	-0.674663
H160	H	1.306343	0.514338	-0.174663
H161	H	1.016971	-0.541714	-0.000130
H162	H	1.516971	-0.041714	0.499870
O163	O	0.798644	0.006637	-0.400356
O164	O	1.298644	0.506637	0.099644
H165	H	0.766779	-0.025240	-0.449849
H166	H	1.266779	0.474760	0.050151
O167	O	0.491469	0.247150	-0.000083
O168	O	0.991469	0.747150	0.499917
H169	H	0.525815	0.295756	-0.000064
H170	H	1.025815	0.795756	0.499936
O171	O	0.755021	-0.098338	-0.000097
O172	O	1.255021	0.401662	0.499903
H173	H	0.706413	-0.132682	-0.000099
H174	H	1.206413	0.367318	0.499901
