data_functionalizedCrystal
_audit_creation_method	'MofGen! by Chris Wilmer'
_symmetry_space_group_name_H-M	'P1'
_symmetry_Int_Tables_number	1
_symmetry_cell_setting	triclinic
loop_
_symmetry_equiv_pos_as_xyz
  x,y,z
_cell_length_a	14.908520
_cell_length_b	19.805407
_cell_length_c	19.805399
_cell_angle_alpha	90.019573
_cell_angle_beta	93.270609
_cell_angle_gamma	86.679227
loop_
_atom_site_label
_atom_site_type_symbol
_atom_site_fract_x
_atom_site_fract_y
_atom_site_fract_z
Zn1	Zn	-0.359181	-1.019204	-0.398269
Zn2	Zn	0.140819	-0.519204	0.101731
Zn3	Zn	-0.510047	-1.012594	-0.291612
Zn4	Zn	-0.010047	-0.512594	0.208388
Zn5	Zn	-0.359206	-0.906017	-0.285095
Zn6	Zn	0.140794	-0.406017	0.214905
Zn7	Zn	-0.509999	-0.899460	-0.404757
Zn8	Zn	-0.009999	-0.399460	0.095243
O9	O	-0.434608	-0.959319	-0.344934
O10	O	0.065392	-0.459319	0.155066
O11	O	-0.379203	-1.113043	-0.384134
O12	O	0.120797	-0.613043	0.115866
O13	O	-0.490068	-0.998435	-0.196033
O14	O	0.009932	-0.498435	0.303967
O15	O	-0.232958	-0.926542	-0.294665
O16	O	0.267042	-0.426542	0.205335
O17	O	-0.490044	-1.108187	-0.305773
O18	O	0.009956	-0.608187	0.194227
O19	O	-0.232939	-1.009699	-0.377814
O20	O	0.267061	-0.509699	0.122186
O21	O	-0.379246	-0.920133	-0.191244
O22	O	0.120754	-0.420133	0.308756
O23	O	-0.379199	-0.810431	-0.300956
O24	O	0.120801	-0.310431	0.199044
O25	O	-0.489962	-0.915366	-0.498612
O26	O	0.010038	-0.415366	0.001388
O27	O	-0.489986	-0.805614	-0.388871
O28	O	0.010014	-0.305614	0.111129
O29	O	-0.379157	-1.003341	-0.493845
O30	O	0.120843	-0.503341	0.006155
O31	O	-0.636286	-0.992077	-0.312064
O32	O	-0.136286	-0.492077	0.187936
O33	O	-0.636250	-0.908957	-0.395191
O34	O	-0.136250	-0.408957	0.104809
C35	C	-0.434591	-0.783463	-0.344911
C36	C	0.065409	-0.283463	0.155089
C37	C	-0.434605	-0.708231	-0.344918
C38	C	0.065395	-0.208231	0.155082
C39	C	-0.669002	-0.949107	-0.355053
C40	C	-0.169002	-0.449107	0.144947
C41	C	-0.769277	-0.944800	-0.359405
C42	C	-0.269277	-0.444800	0.140595
C43	C	-0.434551	-0.959359	-0.521474
C44	C	0.065449	-0.459359	-0.021474
C45	C	-0.434527	-0.959376	-0.596705
C46	C	0.065473	-0.459376	-0.096705
C47	C	-0.957679	-1.023348	-0.281093
C48	C	-0.457679	-0.523348	0.218907
C49	C	-1.051896	-1.019304	-0.285180
C50	C	-0.551896	-0.519304	0.214820
C51	C	-1.051929	-0.932671	-0.371669
C52	C	-0.551929	-0.432671	0.128331
C53	C	-0.957712	-0.936715	-0.367582
C54	C	-0.457712	-0.436715	0.132418
C55	C	-0.910590	-0.982055	-0.322292
C56	C	-0.410590	-0.482055	0.177708
C57	C	-0.816372	-0.986095	-0.318202
C58	C	-0.316372	-0.486095	0.181798
C59	C	-0.816407	-0.899466	-0.404694
C60	C	-0.316407	-0.399466	0.095306
C61	C	-0.910624	-0.895421	-0.408781
C62	C	-0.410624	-0.395421	0.091219
C63	C	-0.199299	-0.969589	-0.334789
C64	C	0.300701	-0.469589	0.165211
C65	C	-0.099024	-0.973966	-0.330466
C66	C	0.400976	-0.473966	0.169534
C67	C	-0.434626	-1.135861	-0.344957
C68	C	0.065374	-0.635861	0.155043
C69	C	-0.434634	-1.211092	-0.344967
C70	C	0.065366	-0.711092	0.155033
C71	C	-0.492379	-0.670392	-0.390629
C72	C	0.007621	-0.170392	0.109371
C73	C	-0.492380	-0.599704	-0.390639
C74	C	0.007620	-0.099704	0.109361
C75	C	-0.434612	-0.566855	-0.344934
C76	C	0.065388	-0.066855	0.155066
C77	C	-0.376832	-0.604699	-0.299220
C78	C	0.123168	-0.104699	0.200780
C79	C	-0.376827	-0.675386	-0.299214
C80	C	0.123173	-0.175386	0.200786
C81	C	-0.376852	-0.319625	-0.299244
C82	C	0.123148	0.180375	0.200756
C83	C	-0.376864	-0.248932	-0.299252
C84	C	0.123136	0.251068	0.200748
C85	C	-0.492406	-0.243942	-0.390668
C86	C	0.007594	0.256058	0.109332
C87	C	-0.492400	-0.314629	-0.390662
C88	C	0.007600	0.185371	0.109338
C89	C	-0.434618	-0.352467	-0.344952
C90	C	0.065382	0.147533	0.155048
C91	C	-0.434615	-0.429116	-0.344943
C92	C	0.065385	0.070884	0.155057
C93	C	-0.434618	-0.490208	-0.344939
C94	C	0.065382	0.009792	0.155061
C95	C	-0.376828	-1.005186	-0.629568
C96	C	0.123172	-0.505186	-0.129568
C97	C	-0.376802	-1.005194	-0.700255
C98	C	0.123198	-0.505194	-0.200255
C99	C	-0.434480	-0.959395	-0.738078
C100	C	0.065520	-0.459395	-0.238078
C101	C	-0.492182	-0.913581	-0.705210
C102	C	0.007818	-0.413581	-0.205210
C103	C	-0.492203	-0.913570	-0.634524
C104	C	0.007797	-0.413570	-0.134524
C105	C	-0.492098	-0.913622	-0.990280
C106	C	0.007902	-0.413622	-0.490280
C107	C	-0.492074	-0.913638	-1.060971
C108	C	0.007926	-0.413638	-0.560971
C109	C	-0.376697	-1.005247	-1.056011
C110	C	0.123303	-0.505247	-0.556011
C111	C	-0.376718	-1.005236	-0.985325
C112	C	0.123282	-0.505236	-0.485325
C113	C	-0.434416	-0.959419	-0.952463
C114	C	0.065584	-0.459419	-0.452463
C115	C	-0.434442	-0.959410	-0.875816
C116	C	0.065558	-0.459410	-0.375816
C117	C	-0.434459	-0.959407	-0.814725
C118	C	0.065541	-0.459407	-0.314725
C119	C	-0.434600	-0.959320	-0.169077
C120	C	0.065400	-0.459320	0.330923
C121	C	-0.434370	-0.959445	-0.093836
C122	C	0.065630	-0.459445	0.406164
H123	H	-0.778006	-1.023011	-0.281323
H124	H	-0.278006	-0.523011	0.218677
C125	C	-0.962469	-0.845547	-0.458594
C126	C	-0.462469	-0.345547	0.041406
N127	N	-1.001517	-0.807977	-0.496111
N128	N	-0.501517	-0.307977	0.003889
H129	H	-0.778057	-0.865840	-0.438239
H130	H	-0.278057	-0.365840	0.061761
H131	H	-0.539444	-0.341371	-0.427878
H132	H	-0.039444	0.158629	0.072122
H133	H	-0.329809	-0.350424	-0.262018
H134	H	0.170191	0.149576	0.237982
C135	C	-0.313330	-1.055590	-0.736402
C136	C	0.186670	-0.555590	-0.236402
N137	N	-0.265520	-1.093550	-0.763626
N138	N	0.234480	-0.593550	-0.263626
C139	C	-0.555678	-0.863177	-0.598375
C140	C	-0.055678	-0.363177	-0.098375
N141	N	-0.603488	-0.825218	-0.571149
N142	N	-0.103488	-0.325218	-0.071149
H143	H	-0.919312	-1.060261	-0.244211
H144	H	-0.419312	-0.560261	0.255789
H145	H	-0.329777	-0.706194	-0.261995
H146	H	0.170223	-0.206194	0.238005
C147	C	-1.103780	-0.882800	-0.421483
C148	C	-0.603780	-0.382800	0.078517
N149	N	-1.142834	-0.845235	-0.459002
N150	N	-0.642834	-0.345235	0.040998
C151	C	-1.103690	-1.064728	-0.239855
C152	C	-0.603690	-0.564728	0.260145
N153	N	-1.142701	-1.098942	-0.205714
N154	N	-0.642701	-0.598942	0.294286
C155	C	-0.555930	-0.706519	-0.440909
C156	C	-0.055930	-0.206519	0.059091
N157	N	-0.603796	-0.733728	-0.478784
N158	N	-0.103796	-0.233728	0.021216
C159	C	-0.555953	-0.558083	-0.440913
C160	C	-0.055953	-0.058083	0.059087
N161	N	-0.603845	-0.526735	-0.478777
N162	N	-0.103845	-0.026735	0.021223
H163	H	-0.539452	-0.213126	-0.427890
H164	H	-0.039452	0.286874	0.072110
C165	C	-0.313305	-0.212801	-0.248975
C166	C	0.186695	0.287199	0.251025
N167	N	-0.265433	-0.185586	-0.211109
N168	N	0.234567	0.314414	0.288891
H169	H	-0.329793	-0.577948	-0.262009
H170	H	0.170207	-0.077948	0.237991
H171	H	-0.329753	-1.042533	-0.954533
H172	H	0.170247	-0.542533	-0.454533
H173	H	-0.539092	-0.876325	-0.963533
H174	H	-0.039092	-0.376325	-0.463533
C175	C	-0.313376	-1.055569	-0.587969
C176	C	0.186624	-0.555569	-0.087969
N177	N	-0.265578	-1.093517	-0.556638
N178	N	0.234422	-0.593517	-0.056638
C179	C	-0.555522	-0.863249	-1.102575
C180	C	-0.055522	-0.363249	-0.602575
N181	N	-0.603307	-0.825297	-1.133911
N182	N	-0.103307	-0.325297	-0.633911
C183	C	-0.313216	-1.055639	-1.092165
C184	C	0.186784	-0.555639	-0.592165
N185	N	-0.265403	-1.093593	-1.119396
N186	N	0.234597	-0.593593	-0.619396
H187	H	-0.539141	-0.876288	-0.736011
H188	H	-0.039141	-0.376288	-0.236011
