data_functionalizedCrystal
_audit_creation_method	'MofGen! by Chris Wilmer'
_symmetry_space_group_name_H-M	'P1'
_symmetry_Int_Tables_number	1
_symmetry_cell_setting	triclinic
loop_
_symmetry_equiv_pos_as_xyz
  x,y,z
_cell_length_a	23.532407
_cell_length_b	19.288865
_cell_length_c	22.610064
_cell_angle_alpha	89.981152
_cell_angle_beta	90.003678
_cell_angle_gamma	82.992463
loop_
_atom_site_label
_atom_site_type_symbol
_atom_site_fract_x
_atom_site_fract_y
_atom_site_fract_z
O1	O	-0.755431	-0.084328	0.049117
O2	O	-0.255431	0.415672	0.549117
O3	O	-0.589593	-0.096528	0.049136
O4	O	-0.089593	0.403472	0.549136
O5	O	-0.677304	0.010718	0.049114
O6	O	-0.177304	0.510718	0.549114
O7	O	-0.667720	-0.191573	0.049139
O8	O	-0.167720	0.308427	0.549139
O9	O	-0.677303	0.010740	-0.049255
O10	O	-0.177303	0.510740	0.450745
O11	O	-0.589592	-0.096506	-0.049233
O12	O	-0.089592	0.403494	0.450767
O13	O	-0.755430	-0.084305	-0.049252
O14	O	-0.255430	0.415695	0.450748
Zn15	Zn	-0.672511	-0.090402	-0.064861
Zn16	Zn	-0.172511	0.409598	0.435139
Zn17	Zn	-0.672512	-0.090431	0.064745
Zn18	Zn	-0.172512	0.409569	0.564745
O19	O	-0.667719	-0.191551	-0.049230
O20	O	-0.167719	0.308449	0.450770
C21	C	-0.568376	-0.096206	-0.000047
C22	C	-0.068376	0.403794	0.499953
C23	C	-0.505157	-0.095272	-0.000040
C24	C	-0.005157	0.404728	0.499960
C25	C	-0.676995	0.036604	-0.000072
C26	C	-0.176995	0.536604	0.499928
C27	C	-0.676069	0.113705	-0.000077
C28	C	-0.176069	0.613705	0.499923
C29	C	-0.776647	-0.084627	-0.000068
C30	C	-0.276647	0.415373	0.499932
C31	C	-0.839866	-0.085561	-0.000071
C32	C	-0.339866	0.414439	0.499929
C33	C	-0.106173	-0.152879	-0.000060
C34	C	0.393827	0.347121	0.499940
C35	C	-0.046771	-0.152011	-0.000064
C36	C	0.453229	0.347989	0.499936
O37	O	-0.010137	-0.205413	-0.000079
O38	O	0.489863	0.294587	0.499921
N39	N	-0.024013	-0.088254	-0.000070
N40	N	0.475987	0.411746	0.499930
C41	C	-0.060660	-0.025360	-0.000080
C42	C	0.439340	0.474640	0.499920
O43	O	-0.035848	0.028950	-0.000086
O44	O	0.464152	0.528950	0.499914
C45	C	-0.120061	-0.026229	-0.000080
C46	C	0.379939	0.473771	0.499920
C47	C	-0.142816	-0.089990	-0.000067
C48	C	0.357184	0.410010	0.499933
C49	C	-0.128929	-0.216635	-0.000048
C50	C	0.371071	0.283365	0.499952
C51	C	-0.188327	-0.217502	-0.000043
C52	C	0.311673	0.282498	0.499957
C53	C	-0.224969	-0.154614	-0.000050
C54	C	0.275031	0.345386	0.499950
C55	C	-0.202214	-0.090857	-0.000062
C56	C	0.297786	0.409143	0.499938
C57	C	-0.156707	0.036664	-0.000093
C58	C	0.343293	0.536664	0.499907
C59	C	-0.216111	0.035790	-0.000094
C60	C	0.283889	0.535790	0.499906
C61	C	-0.238866	-0.027971	-0.000082
C62	C	0.261134	0.472029	0.499918
C63	C	-0.298254	-0.028836	-0.000065
C64	C	0.201746	0.471164	0.499935
N65	N	-0.321012	-0.092593	-0.000058
N66	N	0.178988	0.407407	0.499942
C67	C	-0.284370	-0.155482	-0.000051
C68	C	0.215630	0.344518	0.499949
C69	C	0.064086	-0.023541	-0.000079
C70	C	0.564086	0.476459	0.499921
C71	C	0.123486	-0.022672	-0.000075
C72	C	0.623486	0.477328	0.499925
C73	C	0.137371	-0.149323	-0.000060
C74	C	0.637371	0.350677	0.499940
C75	C	0.077970	-0.150192	-0.000061
C76	C	0.577970	0.349808	0.499939
C77	C	0.041328	-0.087298	-0.000073
C78	C	0.541328	0.412702	0.499927
C79	C	-0.409110	-0.157299	-0.000040
C80	C	0.090890	0.342701	0.499960
C81	C	-0.468514	-0.158161	-0.000033
C82	C	0.031486	0.341839	0.499967
C83	C	-0.482394	-0.031510	-0.000051
C84	C	0.017606	0.468490	0.499949
C85	C	-0.422995	-0.030648	-0.000055
C86	C	0.077005	0.469352	0.499945
C87	C	-0.386354	-0.093548	-0.000052
C88	C	0.113646	0.406452	0.499948
O89	O	-0.334923	0.024538	-0.000052
O90	O	0.165077	0.524538	0.499948
O91	O	-0.309190	-0.209783	-0.000052
O92	O	0.190810	0.290217	0.499948
C93	C	-0.668028	-0.217437	-0.000043
C94	C	-0.168028	0.282563	0.499957
C95	C	-0.668954	-0.294538	-0.000034
C96	C	-0.168954	0.205462	0.499966
N97	N	-0.672514	-0.090382	-0.153313
N98	N	-0.172514	0.409618	0.346687
C99	C	-0.727534	0.158560	-0.000086
C100	C	-0.227534	0.658560	0.499914
C101	C	-0.726664	0.231004	-0.000076
C102	C	-0.226664	0.731004	0.499924
C103	C	-0.674327	0.258590	-0.000070
C104	C	-0.174327	0.758590	0.499930
C105	C	-0.622855	0.213725	-0.000058
C106	C	-0.122855	0.713725	0.499942
C107	C	-0.623727	0.141283	-0.000062
C108	C	-0.123727	0.641283	0.499938
C109	C	-0.633183	0.366759	-0.034522
C110	C	-0.133183	0.866759	0.465478
C111	C	-0.632314	0.439200	-0.034522
C112	C	-0.132314	0.939200	0.465478
C113	C	-0.671638	0.482028	-0.000057
C114	C	-0.171638	0.982028	0.499943
C115	C	-0.711840	0.452406	0.034402
C116	C	-0.211840	0.952406	0.534402
C117	C	-0.712711	0.379963	0.034398
C118	C	-0.212711	0.879963	0.534398
C119	C	-0.673377	0.337141	-0.000066
C120	C	-0.173377	0.837141	0.499934
C121	C	-0.722163	0.605436	-0.000054
C122	C	-0.222163	1.105436	0.499946
C123	C	-0.721292	0.677881	-0.000041
C124	C	-0.221292	1.177881	0.499959
C125	C	-0.617481	0.660601	-0.000029
C126	C	-0.117481	1.160601	0.499971
C127	C	-0.618354	0.588157	-0.000036
C128	C	-0.118354	1.088157	0.499964
C129	C	-0.670697	0.560579	-0.000051
C130	C	-0.170697	1.060579	0.499949
N131	N	-0.672513	-0.090446	0.153197
N132	N	-0.172513	0.409554	0.653197
C133	C	-0.706880	-0.132418	0.438043
C134	C	-0.206880	0.367582	0.938043
C135	C	-0.706881	-0.132422	0.376123
C136	C	-0.206881	0.367578	0.876123
O137	O	-0.736112	-0.168127	0.344102
O138	O	-0.236112	0.331873	0.844102
N139	N	-0.672522	-0.090424	0.345150
N140	N	-0.172522	0.409576	0.845150
C141	C	-0.638165	-0.048413	0.376100
C142	C	-0.138165	0.451587	0.876100
O143	O	-0.608941	-0.012690	0.344069
O144	O	-0.108941	0.487310	0.844069
C145	C	-0.638169	-0.048405	0.438018
C146	C	-0.138169	0.451595	0.938018
C147	C	-0.672525	-0.090412	0.468988
C148	C	-0.172525	0.409588	0.968988
C149	C	-0.741235	-0.174421	0.469013
C150	C	-0.241235	0.325579	0.969013
C151	C	-0.741233	-0.174417	0.530928
C152	C	-0.241233	0.325583	1.030928
C153	C	-0.706878	-0.132411	0.561874
C154	C	-0.206878	0.367589	1.061874
C155	C	-0.672524	-0.090408	0.530904
C156	C	-0.172524	0.409592	1.030904
C157	C	-0.603815	-0.006391	0.468967
C158	C	-0.103815	0.493609	0.968967
C159	C	-0.603822	-0.006387	0.530890
C160	C	-0.103822	0.493613	1.030890
C161	C	-0.638178	-0.048393	0.561860
C162	C	-0.138178	0.451607	1.061860
C163	C	-0.638167	-0.048399	0.623765
C164	C	-0.138167	0.451601	1.123765
N165	N	-0.672526	-0.090397	0.654738
N166	N	-0.172526	0.409603	1.154738
C167	C	-0.706881	-0.132403	0.623793
C168	C	-0.206881	0.367597	1.123793
C169	C	-0.638162	-0.048431	0.246066
C170	C	-0.138162	0.451569	0.746066
C171	C	-0.638156	-0.048442	0.184148
C172	C	-0.138156	0.451558	0.684148
C173	C	-0.706872	-0.132451	0.184176
C174	C	-0.206872	0.367549	0.684176
C175	C	-0.706875	-0.132443	0.246094
C176	C	-0.206875	0.367557	0.746094
C177	C	-0.672521	-0.090430	0.277039
C178	C	-0.172521	0.409570	0.777039
C179	C	-0.706876	-0.132393	0.753820
C180	C	-0.206876	0.367607	1.253820
C181	C	-0.706869	-0.132388	0.815741
C182	C	-0.206869	0.367612	1.315741
C183	C	-0.638156	-0.048377	0.815708
C184	C	-0.138156	0.451623	1.315708
C185	C	-0.638159	-0.048384	0.753793
C186	C	-0.138159	0.451616	1.253793
C187	C	-0.672524	-0.090394	0.722850
C188	C	-0.172524	0.409606	1.222850
O189	O	-0.608952	-0.012710	0.655826
O190	O	-0.108952	0.487290	1.155826
O191	O	-0.736106	-0.168113	0.655831
O192	O	-0.236106	0.331887	1.155831
H193	H	-0.487037	-0.210085	-0.000022
H194	H	0.012963	0.289915	0.499978
O195	O	-0.093282	-0.277686	0.000042
O196	O	0.406718	0.222314	0.500042
C197	C	-0.058517	-0.280995	0.050999
C198	C	0.441483	0.219005	0.550999
H199	H	-0.055636	-0.225888	0.067972
H200	H	0.444364	0.274112	0.567972
H201	H	-0.013811	-0.307197	0.039551
H202	H	0.486189	0.192803	0.539551
H203	H	-0.077990	-0.312575	0.086679
H204	H	0.422010	0.187425	0.586679
O205	O	-0.566690	0.687505	-0.000046
O206	O	-0.066690	1.187505	0.499954
C207	C	-0.576955	0.761064	-0.000026
C208	C	-0.076955	1.261064	0.499974
H209	H	-0.621441	0.778392	-0.018656
H210	H	-0.121441	1.278392	0.481344
H211	H	-0.543474	0.783093	-0.028576
H212	H	-0.043474	1.283093	0.471424
H213	H	-0.574251	0.781188	0.047169
H214	H	-0.074251	1.281188	0.547169
H215	H	-0.734851	-0.166649	0.271306
H216	H	-0.234851	0.333351	0.771306
H217	H	-0.610181	-0.014221	0.271257
H218	H	-0.110181	0.485779	0.771257
O219	O	0.055800	-0.212084	-0.000129
O220	O	0.555800	0.287916	0.499871
C221	C	0.021865	-0.216379	-0.051083
C222	C	0.521865	0.283621	0.448917
H223	H	0.006932	-0.161528	-0.068078
H224	H	0.506932	0.338472	0.431922
H225	H	-0.016964	-0.243797	-0.039621
H226	H	0.483036	0.256203	0.460379
H227	H	0.048184	-0.247286	-0.086752
H228	H	0.548184	0.252714	0.413248
O229	O	-0.772993	0.578610	-0.000166
O230	O	-0.272993	1.078610	0.499834
C231	C	-0.776601	0.537235	-0.051108
C232	C	-0.276601	1.037235	0.448892
H233	H	-0.746885	0.554180	-0.086713
H234	H	-0.246885	1.054180	0.413287
H235	H	-0.822517	0.544065	-0.068212
H236	H	-0.322517	1.044065	0.431788
H237	H	-0.763318	0.480005	-0.039594
H238	H	-0.263318	0.980005	0.460406
O239	O	-0.573746	0.097678	0.000048
O240	O	-0.073746	0.597678	0.500048
C241	C	-0.571153	0.055220	0.050983
C242	C	-0.071153	0.555220	0.550983
H243	H	-0.600345	0.081936	0.086590
H244	H	-0.100345	0.581936	0.586590
H245	H	-0.525258	0.046747	0.068091
H246	H	-0.025258	0.546747	0.568091
H247	H	-0.585758	0.002644	0.039458
H248	H	-0.085758	0.502644	0.539458
H249	H	-0.576446	0.551635	-0.000032
H250	H	-0.076446	1.051635	0.499968
H251	H	-0.512239	0.019692	-0.000054
H252	H	-0.012239	0.519692	0.499946
O253	O	-0.134707	0.098664	-0.000137
O254	O	0.365293	0.598664	0.499863
C255	C	-0.179797	0.153975	-0.000134
C256	C	0.320203	0.653975	0.499866
H257	H	-0.220103	0.134781	-0.018748
H258	H	0.279897	0.634781	0.481252
H259	H	-0.167504	0.198520	-0.028708
H260	H	0.332496	0.698520	0.471292
H261	H	-0.188246	0.173352	0.047053
H262	H	0.311754	0.673352	0.547053
O263	O	0.173053	-0.210352	-0.000082
O264	O	0.673053	0.289648	0.499918
C265	C	0.230359	-0.195906	-0.000071
C266	C	0.730359	0.304094	0.499929
H267	H	0.232496	-0.141359	-0.018700
H268	H	0.732496	0.358641	0.481300
H269	H	0.257370	-0.236007	-0.028626
H270	H	0.757370	0.263993	0.471374
H271	H	0.247550	-0.198669	0.047122
H272	H	0.747550	0.301331	0.547122
O273	O	-0.570361	0.034344	0.560922
O274	O	-0.070361	0.534344	1.060922
C275	C	-0.512493	0.014882	0.545786
C276	C	-0.012493	0.514882	1.045786
H277	H	-0.506755	-0.041170	0.528786
H278	H	-0.006755	0.458830	1.028786
H279	H	-0.484496	0.018827	0.586504
H280	H	0.015504	0.518827	1.086504
H281	H	-0.499432	0.051249	0.509831
H282	H	0.000568	0.551249	1.009831
H283	H	-0.734845	-0.166656	0.158968
H284	H	-0.234845	0.333344	0.658968
H285	H	-0.763202	0.714402	-0.000045
H286	H	-0.263202	1.214402	0.499955
H287	H	-0.580242	0.236191	-0.000052
H288	H	-0.080242	0.736191	0.499948
H289	H	-0.743861	0.487275	0.062467
H290	H	-0.243861	0.987275	0.562467
H291	H	-0.610172	-0.014245	0.158938
H292	H	-0.110172	0.485755	0.658938
H293	H	-0.769212	-0.208620	0.556138
H294	H	-0.269212	0.291380	1.056138
H295	H	-0.610183	-0.014178	0.840915
H296	H	-0.110183	0.485822	1.340915
H297	H	-0.610176	-0.014188	0.728576
H298	H	-0.110176	0.485812	1.228576
H299	H	-0.599577	0.463312	-0.062577
H300	H	-0.099577	0.963312	0.437423
H301	H	-0.379284	-0.208518	-0.000039
H302	H	0.120716	0.291482	0.499961
O303	O	-0.740299	-0.173212	0.845733
O304	O	-0.240299	0.326788	1.345733
C305	C	-0.770612	-0.210298	0.805137
C306	C	-0.270612	0.289702	1.305137
H307	H	-0.774052	-0.181524	0.760990
H308	H	-0.274052	0.318476	1.260990
H309	H	-0.815365	-0.214433	0.823024
H310	H	-0.315365	0.285567	1.323024
H311	H	-0.746930	-0.264924	0.798569
H312	H	-0.246930	0.235076	1.298569
H313	H	-0.601160	0.331894	-0.062591
H314	H	-0.101160	0.831894	0.437409
H315	H	-0.769214	-0.208627	0.443823
H316	H	-0.269214	0.291373	0.943823
H317	H	-0.734859	-0.166601	0.728634
H318	H	-0.234859	0.333399	1.228634
H319	H	-0.575839	0.027816	0.443762
H320	H	-0.075839	0.527816	0.943762
H321	H	-0.404468	0.021272	-0.000057
H322	H	0.095532	0.521272	0.499943
O323	O	-0.210331	-0.279502	-0.000064
O324	O	0.289669	0.220498	0.499936
C325	C	-0.165243	-0.334815	-0.000046
C326	C	0.334757	0.165185	0.499954
H327	H	-0.124941	-0.315616	-0.018669
H328	H	0.375059	0.184384	0.481331
H329	H	-0.177544	-0.379348	-0.028604
H330	H	0.322456	0.120652	0.471396
H331	H	-0.156784	-0.354208	0.047148
H332	H	0.343216	0.145792	0.547148
H333	H	0.142007	0.029249	-0.000076
H334	H	0.642007	0.529249	0.499924
H335	H	-0.768575	0.267532	-0.000081
H336	H	-0.268575	0.767532	0.499919
O337	O	0.028575	0.037622	-0.000056
O338	O	0.528575	0.537622	0.499944
C339	C	0.061406	0.094075	-0.000075
C340	C	0.561406	0.594075	0.499925
H341	H	0.105786	0.076116	0.018548
H342	H	0.605786	0.576116	0.518548
H343	H	0.039395	0.138107	0.028482
H344	H	0.539395	0.638107	0.528482
H345	H	0.065585	0.113652	-0.047269
H346	H	0.565585	0.613652	0.452731
H347	H	-0.245943	0.087007	-0.000105
H348	H	0.254057	0.587007	0.499895
H349	H	-0.745444	0.355848	0.062456
H350	H	-0.245444	0.855848	0.562456
O351	O	-0.778428	0.131887	-0.000071
O352	O	-0.278428	0.631887	0.499929
C353	C	-0.823666	0.187019	-0.000092
C354	C	-0.323666	0.687019	0.499908
H355	H	-0.807829	0.236117	0.018537
H356	H	-0.307829	0.736117	0.518537
H357	H	-0.860221	0.172119	0.028460
H358	H	-0.360221	0.672119	0.528460
H359	H	-0.839529	0.197400	-0.047287
H360	H	-0.339529	0.697400	0.452713
