data_functionalizedCrystal
_audit_creation_method	'MofGen! by Chris Wilmer'
_symmetry_space_group_name_H-M	'P1'
_symmetry_Int_Tables_number	1
_symmetry_cell_setting	triclinic
loop_
_symmetry_equiv_pos_as_xyz
  x,y,z
_cell_length_a	8.597187
_cell_length_b	10.489741
_cell_length_c	7.681481
_cell_angle_alpha	84.199479
_cell_angle_beta	88.166928
_cell_angle_gamma	84.936836
loop_
_atom_site_label
_atom_site_type_symbol
_atom_site_fract_x
_atom_site_fract_y
_atom_site_fract_z
O1	O	2.038861	0.227431	-0.455746
O2	O	1.588938	0.236490	-0.387492
O3	O	1.824138	0.046540	-0.423162
O4	O	1.803661	0.417381	-0.420076
O5	O	1.853087	0.023106	-0.134694
O6	O	1.617887	0.213056	-0.099024
O7	O	2.067810	0.203996	-0.167279
Zn8	Zn	1.847444	0.204806	-0.087351
Zn9	Zn	1.809303	0.235681	-0.467419
O10	O	1.832609	0.393947	-0.131609
C11	C	1.545800	0.222494	-0.234518
C12	C	1.374132	0.215689	-0.208475
C13	C	1.837066	-0.012736	-0.278694
C14	C	1.832439	-0.154445	-0.277996
C15	C	1.682787	-0.225190	-0.255306
C16	C	1.767754	-0.327636	-0.123801
C17	C	1.739248	-0.304505	-0.408213
C18	C	1.917479	-0.255035	-0.146383
C19	C	1.888940	-0.231885	-0.430919
C20	C	1.974019	-0.334304	-0.299396
C21	C	2.110948	0.217993	-0.320257
C22	C	2.282614	0.224799	-0.346311
C23	C	1.819681	0.453223	-0.276080
C24	C	1.824307	0.594933	-0.276790
N25	N	1.873486	0.183733	0.172034
N26	N	1.783274	0.256744	-0.726806
H27	H	1.335601	0.237807	-0.484241
H28	H	1.965592	0.109216	0.233271
O29	O	1.310902	0.199952	-0.043969
C30	C	1.234759	0.085531	-0.023024
H31	H	1.285897	0.017828	-0.121302
H32	H	1.252185	0.037230	0.115525
H33	H	1.104626	0.109008	-0.046356
O34	O	1.536025	-0.168598	-0.232567
C35	C	1.472766	-0.217679	-0.070460
H36	H	1.571619	-0.257340	0.020424
H37	H	1.399171	-0.137442	-0.008902
H38	H	1.396355	-0.297939	-0.091816
O39	O	1.706449	-0.377737	0.030948
C40	C	1.571707	-0.438646	-0.000445
H41	H	1.576963	-0.466355	-0.140373
H42	H	1.565715	-0.528798	0.094910
H43	H	1.463488	-0.370043	0.018744
H44	H	1.691186	0.331265	0.211963
H45	H	2.097179	-0.381591	-0.317999
O46	O	2.007496	-0.228462	-0.014419
C47	C	2.132907	-0.160288	-0.084965
H48	H	2.100968	-0.110480	-0.219469
H49	H	2.158041	-0.085194	0.005435
H50	H	2.241121	-0.230061	-0.097907
H51	H	1.663841	-0.326803	-0.518859
O52	O	1.949778	-0.181895	-0.585965
C53	C	1.855482	-0.206419	-0.723609
H54	H	1.732734	-0.222607	-0.670393
H55	H	1.849758	-0.120587	-0.827522
H56	H	1.907701	-0.295889	-0.784217
