data_functionalizedCrystal
_audit_creation_method	'MofGen! by Chris Wilmer'
_symmetry_space_group_name_H-M	'P1'
_symmetry_Int_Tables_number	1
_symmetry_cell_setting	triclinic
loop_
_symmetry_equiv_pos_as_xyz
  x,y,z
_cell_length_a	11.169417
_cell_length_b	13.897447
_cell_length_c	11.169409
_cell_angle_alpha	89.965697
_cell_angle_beta	89.980487
_cell_angle_gamma	90.020779
loop_
_atom_site_label
_atom_site_type_symbol
_atom_site_fract_x
_atom_site_fract_y
_atom_site_fract_z
Zn1	Zn	1.834886	-0.383905	-0.678516
Zn2	Zn	2.168219	-0.050571	-0.345183
Zn3	Zn	2.501552	0.282762	-0.011850
Zn4	Zn	1.834743	-0.545240	-0.477826
Zn5	Zn	2.168076	-0.211907	-0.144493
Zn6	Zn	2.501410	0.121426	0.188840
Zn7	Zn	1.634172	-0.383964	-0.477852
Zn8	Zn	1.967505	-0.050631	-0.144518
Zn9	Zn	2.300838	0.282702	0.188815
Zn10	Zn	1.634147	-0.545163	-0.678472
Zn11	Zn	1.967480	-0.211830	-0.345139
Zn12	Zn	2.300814	0.121504	-0.011806
O13	O	1.734487	-0.464568	-0.578167
O14	O	2.067820	-0.131235	-0.244833
O15	O	2.401153	0.202099	0.088500
O16	O	2.002816	-0.405314	-0.651902
O17	O	2.336150	-0.071980	-0.318569
O18	O	2.669483	0.261353	0.014764
O19	O	1.808087	-0.523904	-0.309880
O20	O	2.141421	-0.190571	0.023453
O21	O	2.474754	0.142762	0.356787
O22	O	1.660867	-0.248975	-0.504499
O23	O	1.994200	0.084358	-0.171166
O24	O	2.327533	0.417692	0.162167
O25	O	2.002711	-0.523846	-0.504456
O26	O	2.336045	-0.190513	-0.171123
O27	O	2.669378	0.142820	0.162211
O28	O	1.808331	-0.248931	-0.651927
O29	O	2.141664	0.084402	-0.318594
O30	O	2.474997	0.417736	0.014740
O31	O	1.660728	-0.405416	-0.309899
O32	O	1.994062	-0.072082	0.023435
O33	O	2.327395	0.261251	0.356768
O34	O	1.466219	-0.405340	-0.504457
O35	O	1.799552	-0.072007	-0.171123
O36	O	2.132885	0.261326	0.162210
O37	O	1.660825	-0.523714	-0.846428
O38	O	1.994158	-0.190381	-0.513095
O39	O	2.327491	0.142953	-0.179761
O40	O	1.466200	-0.523772	-0.651852
O41	O	1.799534	-0.190439	-0.318518
O42	O	2.132867	0.142894	0.014815
O43	O	1.808307	-0.405238	-0.846460
O44	O	2.141640	-0.071905	-0.513127
O45	O	2.474973	0.261428	-0.179794
O46	O	1.808063	-0.680212	-0.504413
O47	O	2.141397	-0.346878	-0.171080
O48	O	2.474730	-0.013545	0.162253
O49	O	1.660686	-0.680155	-0.651827
O50	O	1.994020	-0.346821	-0.318494
O51	O	2.327353	-0.013488	0.014840
C52	C	1.422662	-0.464555	-0.578153
C53	C	1.755995	-0.131222	-0.244820
C54	C	2.089329	0.202112	0.088514
C55	C	1.289262	-0.464573	-0.578176
C56	C	1.622595	-0.131239	-0.244842
C57	C	1.955929	0.202094	0.088491
C58	C	1.734389	-0.715182	-0.578139
C59	C	2.067722	-0.381849	-0.244806
C60	C	2.401056	-0.048516	0.088528
C61	C	1.734457	-0.822396	-0.578167
C62	C	2.067791	-0.489063	-0.244834
C63	C	2.401124	-0.155730	0.088500
C64	C	1.734515	-0.909466	-0.578194
C65	C	2.067849	-0.576133	-0.244861
C66	C	2.401182	-0.242799	0.088472
C67	C	1.734599	-1.018699	-0.578225
C68	C	2.067933	-0.685365	-0.244892
C69	C	2.401266	-0.352032	0.088441
C70	C	2.047529	-0.464582	-0.578181
C71	C	2.380862	-0.131249	-0.244848
C72	C	2.714196	0.202085	0.088485
C73	C	2.180929	-0.464588	-0.578187
C74	C	2.514262	-0.131254	-0.244854
C75	C	2.847596	0.202079	0.088479
C76	C	1.734579	-0.464461	-0.891209
C77	C	2.067912	-0.131128	-0.557876
C78	C	2.401246	0.202206	-0.224543
C79	C	1.734618	-0.464415	-1.024609
C80	C	2.067952	-0.131082	-0.691276
C81	C	2.401285	0.202251	-0.357943
C82	C	1.734617	-0.212975	-0.578221
C83	C	2.067951	0.120358	-0.244888
C84	C	2.401284	0.453692	0.088446
C85	C	1.734673	-0.105761	-0.578244
C86	C	2.068006	0.227572	-0.244911
C87	C	2.401340	0.560906	0.088423
C88	C	1.734464	-0.464605	-0.266342
C89	C	2.067797	-0.131272	0.066991
C90	C	2.401131	0.202061	0.400325
C91	C	1.734657	-0.464379	-0.132943
C92	C	2.067991	-0.131046	0.200391
C93	C	2.401324	0.202288	0.533724
