data_functionalizedCrystal
_audit_creation_method	'MofGen! by Chris Wilmer'
_symmetry_space_group_name_H-M	'P1'
_symmetry_Int_Tables_number	1
_symmetry_cell_setting	triclinic
loop_
_symmetry_equiv_pos_as_xyz
  x,y,z
_cell_length_a	17.038278
_cell_length_b	15.500227
_cell_length_c	17.699083
_cell_angle_alpha	92.821453
_cell_angle_beta	92.803242
_cell_angle_gamma	93.049414
loop_
_atom_site_label
_atom_site_type_symbol
_atom_site_fract_x
_atom_site_fract_y
_atom_site_fract_z
O1	O	1.040743	0.071954	-0.161047
O2	O	0.813116	0.071954	-0.158439
O3	O	0.933360	0.071946	-0.049979
O4	O	0.920499	0.071961	-0.269506
O5	O	0.926064	-0.071942	-0.056533
O6	O	0.805820	-0.071934	-0.164993
O7	O	1.033446	-0.071935	-0.167601
Cu8	Cu	0.918967	-0.085073	-0.166895
Cu9	Cu	0.927596	0.085092	-0.159144
O10	O	0.913202	-0.071927	-0.276060
C11	C	0.780344	0.000010	-0.159343
C12	C	0.693562	0.000010	-0.152263
C13	C	0.203221	0.000010	-0.108767
C14	C	0.284761	0.000005	-0.115425
C15	C	0.316078	0.000014	-0.187094
C16	C	0.265851	0.000019	-0.252108
C17	C	0.184313	0.000017	-0.245450
C18	C	0.561797	0.000013	-0.210619
C19	C	0.643341	0.000017	-0.217273
C20	C	0.662246	0.000002	-0.080589
C21	C	0.580706	0.000005	-0.073936
C22	C	0.530485	0.000006	-0.138951
C23	C	0.399424	0.000012	-0.193901
C24	C	0.447141	0.000002	-0.132143
N25	N	0.912903	-0.204757	-0.172347
C26	C	0.963872	-0.250037	-0.126408
C27	C	0.959294	-0.340610	-0.130538
C28	C	0.903749	-0.385901	-0.180612
C29	C	0.852775	-0.340614	-0.226552
C30	C	0.857350	-0.250043	-0.222418
C31	C	0.887267	-0.659366	-0.195494
C32	C	0.882696	-0.749944	-0.199626
C33	C	0.989215	-0.749933	-0.103611
C34	C	0.993789	-0.659360	-0.099484
C35	C	0.942812	-0.614082	-0.145422
C36	C	0.899069	-0.478480	-0.184836
C37	C	0.947488	-0.521504	-0.141192
C38	C	1.066219	0.000012	-0.166697
C39	C	1.153001	0.000017	-0.173776
C40	C	0.929251	0.000002	-0.025029
C41	C	0.927868	0.000002	0.059081
N42	N	0.933666	0.204776	-0.153687
C43	C	0.917312	0.000019	-0.301011
C44	C	0.918695	0.000025	-0.385120
C45	C	0.998449	0.000000	0.103032
C46	C	0.997146	0.000008	0.182062
C47	C	0.925260	0.000011	0.217139
C48	C	0.854674	0.000015	0.173182
C49	C	0.855979	0.000013	0.094153
C50	C	0.849412	0.000022	0.491893
C51	C	0.848113	0.000020	0.570927
C52	C	0.990579	0.000016	0.579801
C53	C	0.991883	0.000015	0.500773
C54	C	0.921298	0.000023	0.456823
C55	C	0.922712	0.000017	0.371130
C56	C	0.923845	0.000011	0.302830
H57	H	0.291355	0.000021	-0.310463
O58	O	0.837717	-0.615525	-0.240197
C59	C	0.731554	-0.625102	-0.335838
C60	C	0.787635	-0.674865	-0.285264
H61	H	0.691038	-0.673057	-0.372276
H62	H	0.767328	-0.582704	-0.373952
H63	H	0.694741	-0.582695	-0.298681
H64	H	0.824461	-0.717319	-0.322362
H65	H	0.751816	-0.717208	-0.247146
H66	H	0.177730	0.000008	-0.050406
O67	O	1.068350	0.000038	0.069085
C68	C	1.209522	-0.000006	0.086236
C69	C	1.130414	-0.000034	0.124776
H70	H	1.259720	-0.000082	0.131243
H71	H	1.216801	0.060226	0.052223
H72	H	1.210603	-0.060208	0.046697
H73	H	1.129277	0.060128	0.164351
H74	H	1.123167	-0.060305	0.158740
H75	H	0.325648	-0.000005	-0.062487
O76	O	1.008896	-0.384460	-0.085892
C77	C	1.115019	-0.374891	0.009790
C78	C	1.058898	-0.325124	-0.040739
H79	H	1.155449	-0.326940	0.046320
H80	H	1.151914	-0.417250	-0.027328
H81	H	1.079197	-0.417338	0.047825
H82	H	1.094659	-0.282630	-0.078782
H83	H	1.022001	-0.282820	-0.003577
O84	O	0.778267	0.000184	0.604974
C85	C	0.659869	0.074719	0.624931
C86	C	0.738948	0.074653	0.586343
H87	H	0.628049	0.134912	0.609870
H88	H	0.671021	0.074772	0.688972
H89	H	0.621967	0.014480	0.604475
H90	H	0.776890	0.134881	0.606738
H91	H	0.727738	0.074555	0.522307
O92	O	0.711006	0.000148	-0.017409
C93	C	0.755859	0.074649	0.100798
C94	C	0.700613	0.074604	0.029272
H95	H	0.747464	0.134830	0.138567
H96	H	0.819535	0.074707	0.083777
H97	H	0.741439	0.014399	0.133028
H98	H	0.714962	0.134843	-0.002990
H99	H	0.636954	0.074500	0.046344
O100	O	1.065697	0.000160	0.224792
C101	C	1.150677	0.074686	0.322581
C102	C	1.073024	0.074627	0.274229
H103	H	1.156618	0.134876	0.362574
H104	H	1.202309	0.074735	0.283970
H105	H	1.150566	0.014445	0.357032
H106	H	1.073057	0.134857	0.239772
H107	H	1.021426	0.074533	0.312881
H108	H	0.796144	0.000022	0.201748
O109	O	0.135639	0.000067	-0.308675
C110	C	0.125486	0.000033	-0.444951
C111	C	0.180698	0.000001	-0.373408
H112	H	0.161893	-0.000039	-0.497306
H113	H	0.089907	0.060263	-0.442558
H114	H	0.083772	-0.060171	-0.447952
H115	H	0.222459	0.060164	-0.370361
H116	H	0.216222	-0.060269	-0.375831
H117	H	1.050419	0.000008	0.472218
O118	O	0.780875	0.000177	0.449184
C119	C	0.703450	0.074699	0.358176
C120	C	0.781100	0.074641	0.406519
H121	H	0.703613	0.134887	0.323657
H122	H	0.651825	0.074754	0.396794
H123	H	0.697448	0.014456	0.318247
H124	H	0.787178	0.134874	0.446453
H125	H	0.832685	0.074542	0.367856
O126	O	1.047651	-0.615600	-0.050592
C127	C	1.094904	-0.588565	0.079417
C128	C	1.033853	-0.638034	0.024043
H129	H	1.083781	-0.606699	0.139769
H130	H	1.089587	-0.515990	0.074763
H131	H	1.156586	-0.606429	0.064699
H132	H	0.972145	-0.620243	0.038724
H133	H	1.039240	-0.710597	0.028707
H134	H	0.555214	-0.000002	-0.015576
H135	H	0.424932	0.000022	-0.252254
O136	O	1.038834	-0.793875	-0.059060
C137	C	1.173446	-0.821514	-0.024755
C138	C	1.117343	-0.771714	-0.075275
H139	H	1.236932	-0.803602	-0.037835
H140	H	1.160706	-0.894039	-0.036308
H141	H	1.164227	-0.803724	0.037325
H142	H	1.126529	-0.789432	-0.137372
H143	H	1.130096	-0.699202	-0.063657
H144	H	0.668835	0.000012	-0.275637
H145	H	0.520917	0.000018	-0.263559
H146	H	0.421639	0.000004	-0.073790
H147	H	1.048053	0.000014	0.615595
H148	H	1.009106	-0.213167	-0.085636
H149	H	0.815845	-0.213177	-0.259825
H150	H	0.837463	-0.786815	-0.240405
O151	O	0.798781	-0.384705	-0.275091
C152	C	0.686798	-0.486951	-0.288930
C153	C	0.747908	-0.437090	-0.233875
H154	H	0.645641	-0.529302	-0.255627
H155	H	0.718288	-0.529394	-0.330853
H156	H	0.651188	-0.439013	-0.321070
H157	H	0.783536	-0.484965	-0.201683
H158	H	0.716370	-0.394633	-0.192001
H159	H	0.992710	-0.484625	-0.100420
H160	H	0.853845	-0.515364	-0.225608
H161	H	0.798505	0.000014	0.058369
