data_functionalizedCrystal
_audit_creation_method	'MofGen! by Chris Wilmer'
_symmetry_space_group_name_H-M	'P1'
_symmetry_Int_Tables_number	1
_symmetry_cell_setting	triclinic
loop_
_symmetry_equiv_pos_as_xyz
  x,y,z
_cell_length_a	15.944551
_cell_length_b	15.944551
_cell_length_c	14.421503
_cell_angle_alpha	89.990248
_cell_angle_beta	89.999260
_cell_angle_gamma	83.498738
loop_
_atom_site_label
_atom_site_type_symbol
_atom_site_fract_x
_atom_site_fract_y
_atom_site_fract_z
O1	O	1.114524	0.108337	-0.077017
O2	O	0.869975	0.121693	-0.077040
O3	O	0.998928	-0.007260	-0.077020
O4	O	0.985572	0.237290	-0.077038
O5	O	0.998916	-0.007274	0.077204
O6	O	0.869963	0.121679	0.077183
O7	O	1.114513	0.108323	0.077206
Cu8	Cu	0.992237	0.115000	0.091277
Cu9	Cu	0.992251	0.115016	-0.091110
O10	O	0.985560	0.237276	0.077186
C11	C	0.838675	0.121132	0.000069
C12	C	0.745429	0.119470	0.000060
C13	C	0.998367	-0.038561	0.000092
C14	C	0.996705	-0.131807	0.000093
C15	C	0.530572	0.035565	0.000084
C16	C	0.469558	0.074534	-0.075959
C17	C	0.574703	0.116462	0.000071
C18	C	0.469569	0.074540	0.076093
C19	C	0.409790	0.113551	0.000086
C20	C	0.514917	0.155454	-0.076035
C21	C	0.514934	0.155448	0.076086
C22	C	0.453937	0.194476	0.000024
C23	C	0.669705	0.118137	0.000062
C24	C	0.314789	0.111883	0.000089
C25	C	0.912801	-0.346663	0.000072
C26	C	0.951757	-0.407687	0.076117
C27	C	0.993698	-0.302533	0.000085
C28	C	0.951788	-0.407657	-0.075935
C29	C	0.990787	-0.467445	0.000074
C30	C	1.032677	-0.362328	0.076193
C31	C	1.032696	-0.362292	-0.075927
C32	C	1.071711	-0.423298	0.000136
C33	C	0.995372	-0.207530	0.000092
C34	C	0.989119	-0.562446	0.000073
C35	C	1.145813	0.108885	0.000096
C36	C	1.239059	0.110547	0.000098
C37	C	0.986120	0.268577	0.000072
C38	C	0.987782	0.361823	0.000066
N39	N	0.992233	0.114988	0.219558
N40	N	0.992261	0.115022	-0.219392
C41	C	1.051414	0.054886	0.530996
C42	C	1.068401	0.130556	0.469156
C43	C	0.992252	0.115012	0.591447
C44	C	0.975295	0.039332	0.469193
C45	C	0.992245	0.114996	0.408725
C46	C	1.009277	0.190721	0.530968
C47	C	0.916138	0.099447	0.531010
C48	C	0.933093	0.175172	0.469198
C49	C	0.992258	0.115020	0.696708
C50	C	0.992238	0.114997	0.303467
H51	H	0.563905	-0.031573	-0.000005
N52	N	1.149143	0.147082	0.435079
N53	N	1.206984	0.158259	0.490675
H54	H	1.264011	0.169927	0.466613
H55	H	1.023686	0.254731	0.557990
N56	N	0.412316	0.278776	-0.000011
N57	N	0.424870	0.328033	0.064655
H58	H	0.395468	0.387567	0.064628
H59	H	0.449453	0.040324	-0.140243
H60	H	0.534910	0.189650	-0.140394
N61	N	0.908821	-0.432916	0.156757
N62	N	0.833325	-0.405154	0.170298
H63	H	0.802995	-0.422969	0.227246
H64	H	0.917566	-0.427728	-0.140230
N65	N	1.114227	-0.008819	0.565030
N66	N	1.190181	-0.006077	0.545186
H67	H	1.234545	-0.051065	0.569222
N68	N	0.870326	0.239024	0.435378
N69	N	0.874419	0.314732	0.455362
H70	H	0.830092	0.359830	0.431475
H71	H	1.066888	-0.342156	-0.140214
H72	H	0.535060	0.189630	0.140373
N73	N	1.156017	-0.464905	0.000173
N74	N	1.205279	-0.452329	-0.064493
H75	H	1.264819	-0.481716	-0.064466
N76	N	0.835418	0.082895	0.565113
N77	N	0.807288	0.015051	0.545363
H78	H	0.750279	0.003352	0.569448
H79	H	0.960955	-0.024663	0.442056
H80	H	1.066859	-0.342344	0.140554
N81	N	0.444366	0.031582	0.156734
N82	N	0.472139	-0.043914	0.170266
H83	H	0.454342	-0.074260	0.227214
H84	H	0.845652	-0.313356	0.000141
