data_functionalizedCrystal
_audit_creation_method	'MofGen! by Chris Wilmer'
_symmetry_space_group_name_H-M	'P1'
_symmetry_Int_Tables_number	1
_symmetry_cell_setting	triclinic
loop_
_symmetry_equiv_pos_as_xyz
  x,y,z
_cell_length_a	16.959455
_cell_length_b	13.897448
_cell_length_c	16.959447
_cell_angle_alpha	90.029368
_cell_angle_beta	90.014322
_cell_angle_gamma	90.014639
loop_
_atom_site_label
_atom_site_type_symbol
_atom_site_fract_x
_atom_site_fract_y
_atom_site_fract_z
Zn1	Zn	1.208397	-0.384074	0.446914
Zn2	Zn	1.208325	-0.545393	0.314738
Zn3	Zn	1.076225	-0.384105	0.314751
Zn4	Zn	1.076195	-0.545321	0.446876
O5	O	1.142286	-0.464723	0.380820
O6	O	1.318998	-0.405491	0.429390
O7	O	1.190784	-0.524040	0.204128
O8	O	1.093801	-0.249119	0.332305
O9	O	1.318945	-0.524011	0.332281
O10	O	1.190907	-0.249097	0.429404
O11	O	1.093731	-0.405543	0.204139
O12	O	0.965610	-0.405473	0.332268
O13	O	1.093750	-0.523888	0.557492
O14	O	0.965589	-0.523917	0.429340
O15	O	1.190878	-0.405421	0.557520
O16	O	1.190755	-0.680365	0.332244
O17	O	1.093680	-0.680312	0.429326
C18	C	0.936919	-0.464691	0.380802
C19	C	0.849063	-0.464701	0.380813
C20	C	0.477574	-0.402998	0.330380
C21	C	0.477600	-0.526527	0.431305
C22	C	0.560146	-0.526513	0.431300
C23	C	0.601410	-0.464742	0.380834
C24	C	0.560128	-0.402985	0.330372
C25	C	0.601434	-0.588276	0.481754
C26	C	0.683985	-0.588266	0.481751
C27	C	0.725251	-0.526489	0.431288
C28	C	0.683963	-0.464728	0.380825
C29	C	0.725227	-0.402957	0.330359
C30	C	0.683941	-0.341191	0.279900
C31	C	0.601393	-0.341208	0.279909
C32	C	0.807799	-0.526472	0.431279
C33	C	0.807781	-0.402944	0.330351
C34	C	1.142228	-0.715337	0.380797
C35	C	1.142276	-0.822551	0.380814
C36	C	1.142359	-1.018846	0.380863
C37	C	1.142310	-0.909614	0.380838
C38	C	1.348454	-0.464756	0.380838
C39	C	1.436310	-0.464770	0.380846
C40	C	1.142319	-0.464643	0.586988
C41	C	1.142333	-0.464609	0.674845
C42	C	1.142365	-0.213130	0.380860
C43	C	1.142399	-0.105916	0.380877
C44	C	1.142298	-0.464733	0.175454
C45	C	1.142437	-0.464495	0.087597
C46	C	1.091857	-0.526188	1.046309
C47	C	1.192997	-0.402827	1.046333
C48	C	1.192976	-0.402848	0.963787
C49	C	1.142395	-0.464540	0.922498
C50	C	1.091836	-0.526212	0.963755
C51	C	1.243540	-0.341184	0.922523
C52	C	1.243522	-0.341203	0.839972
C53	C	1.192937	-0.402891	0.798682
C54	C	1.142375	-0.464564	0.839944
C55	C	1.091794	-0.526257	0.798655
C56	C	1.041227	-0.587926	0.839916
C57	C	1.041251	-0.587900	0.922465
C58	C	1.192913	-0.402917	0.716134
C59	C	1.091773	-0.526281	0.716102
H60	H	0.443998	-0.576824	0.472387
O61	O	1.241943	-0.342883	0.676088
C62	C	1.280401	-0.178825	0.650902
C63	C	1.224811	-0.246708	0.696288
H64	H	1.266581	-0.101055	0.667230
H65	H	1.271693	-0.189354	0.584801
H66	H	1.344130	-0.195827	0.667117
H67	H	1.161061	-0.229748	0.680140
H68	H	1.233587	-0.236167	0.762379
H69	H	1.050577	-0.576511	0.682490
H70	H	0.841372	-0.352635	0.289260
H71	H	0.567831	-0.638574	0.522836
H72	H	1.234182	-0.352606	1.079955
H73	H	0.717593	-0.638559	0.522839
O74	O	0.847869	-0.586360	0.480401
C75	C	0.873132	-0.633429	0.614781
C76	C	0.827718	-0.565529	0.559236
H77	H	0.856844	-0.616625	0.678530
H78	H	0.939229	-0.622802	0.606178
H79	H	0.856901	-0.711183	0.600746
H80	H	0.843882	-0.487749	0.573238
H81	H	0.761632	-0.576239	0.567850
O82	O	0.992179	-0.647939	0.962460
C83	C	0.953804	-0.812007	0.987726
C84	C	1.009410	-0.744121	0.942364
H85	H	0.967726	-0.889785	0.971508
H86	H	0.890053	-0.795146	0.971492
H87	H	0.962501	-0.801342	1.053813
H88	H	1.000783	-0.754748	0.876267
H89	H	1.073140	-0.760999	0.958664
O90	O	0.724151	-0.281220	0.230951
C91	C	0.851320	-0.226516	0.186180
C92	C	0.805878	-0.294462	0.241665
H93	H	0.917404	-0.237212	0.194811
H94	H	0.835171	-0.148737	0.200175
H95	H	0.835018	-0.243346	0.122429
H96	H	0.822156	-0.277718	0.305434
H97	H	0.822031	-0.372221	0.227602
H98	H	0.567771	-0.290922	0.238827
O99	O	0.437353	-0.343092	0.281392
C100	C	0.310175	-0.288307	0.236712
C101	C	0.355627	-0.356217	0.292217
H102	H	0.244092	-0.298881	0.245457
H103	H	0.326320	-0.305147	0.172932
H104	H	0.326472	-0.210560	0.250696
H105	H	0.339355	-0.433987	0.278304
H106	H	0.339478	-0.339294	0.355981
H107	H	1.284696	-0.290987	0.806385
H108	H	1.000048	-0.638161	0.806288
H109	H	1.050685	-0.576395	1.079907
H110	H	1.284725	-0.290963	0.956147
