data_functionalizedCrystal
_audit_creation_method	'MofGen! by Chris Wilmer'
_symmetry_space_group_name_H-M	'P1'
_symmetry_Int_Tables_number	1
_symmetry_cell_setting	triclinic
loop_
_symmetry_equiv_pos_as_xyz
  x,y,z
_cell_length_a	12.827893
_cell_length_b	16.959454
_cell_length_c	12.827885
_cell_angle_alpha	89.970356
_cell_angle_beta	89.980538
_cell_angle_gamma	90.020046
loop_
_atom_site_label
_atom_site_type_symbol
_atom_site_fract_x
_atom_site_fract_y
_atom_site_fract_z
Zn1	Zn	1.597638	-0.314644	-0.590850
Zn2	Zn	1.597517	-0.446843	-0.416110
Zn3	Zn	1.422878	-0.314682	-0.416123
Zn4	Zn	1.422850	-0.446784	-0.590810
O5	O	1.510221	-0.380738	-0.503473
O6	O	1.743858	-0.332189	-0.567681
O7	O	1.574312	-0.429352	-0.269876
O8	O	1.446123	-0.204066	-0.439323
O9	O	1.743769	-0.429315	-0.439301
O10	O	1.574518	-0.204038	-0.567694
O11	O	1.446006	-0.332254	-0.269885
O12	O	1.276639	-0.332197	-0.439285
O13	O	1.446075	-0.429215	-0.737052
O14	O	1.276618	-0.429252	-0.567627
O15	O	1.574490	-0.332132	-0.737081
O16	O	1.574284	-0.557446	-0.439263
O17	O	1.445957	-0.557403	-0.567614
C18	C	1.238711	-0.380723	-0.503454
C19	C	1.122558	-0.380736	-0.503470
C20	C	1.070790	-0.428836	-0.566880
C21	C	0.950740	-0.428850	-0.566898
C22	C	1.510133	-0.586105	-0.503456
C23	C	1.510191	-0.673961	-0.503483
C24	C	1.443498	-1.045444	-0.570299
C25	C	1.577235	-1.045429	-0.436755
C26	C	1.577198	-0.962883	-0.436745
C27	C	1.510309	-0.921614	-0.503512
C28	C	1.443457	-0.962891	-0.570289
C29	C	1.644042	-0.921601	-0.369962
C30	C	1.644007	-0.839050	-0.369949
C31	C	1.577123	-0.797779	-0.436722
C32	C	1.510269	-0.839061	-0.503502
C33	C	1.443380	-0.797791	-0.570270
C34	C	1.376530	-0.839071	-0.637056
C35	C	1.376573	-0.921620	-0.637062
C36	C	1.577080	-0.715231	-0.436716
C37	C	1.443339	-0.715238	-0.570260
C38	C	1.782791	-0.380754	-0.503494
C39	C	1.898944	-0.380761	-0.503503
C40	C	1.510293	-0.380662	-0.776044
C41	C	1.510323	-0.380630	-0.892197
C42	C	1.510337	-0.174570	-0.503514
C43	C	1.510387	-0.086714	-0.503532
C44	C	1.446854	-0.332574	-0.943986
C45	C	1.446884	-0.332539	-1.064037
C46	C	1.510209	-0.380757	-0.231964
C47	C	1.510381	-0.380567	-0.115811
H48	H	0.943456	-0.339581	-0.449209
N49	N	1.304469	-0.966148	-0.709078
H50	H	1.229807	-0.951827	-0.692777
H51	H	1.320736	-0.951728	-0.783731
N52	N	1.371198	-0.670728	-0.642279
H53	H	1.328860	-0.709406	-0.684585
H54	H	1.322840	-0.636526	-0.599694
H55	H	1.115347	-0.470004	-0.621157
H56	H	0.906221	-0.470034	-0.621182
N57	N	1.716114	-0.794529	-0.297930
H58	H	1.758495	-0.833200	-0.255638
H59	H	1.764433	-0.760240	-0.340518
N60	N	1.304393	-0.794554	-0.709071
H61	H	1.262050	-0.833225	-0.751383
H62	H	1.256039	-0.760353	-0.666481
N63	N	1.063550	-0.326203	-0.431565
H64	H	1.018290	-0.289647	-0.474157
H65	H	1.018297	-0.358383	-0.383132
N66	N	1.371401	-1.089960	-0.642333
H67	H	1.381573	-1.148517	-0.632214
H68	H	1.296769	-1.075580	-0.625998
H69	H	1.631503	-0.681624	-0.382334
H70	H	1.392550	-0.291393	-1.108575
N71	N	1.374845	-0.278100	-0.885008
H72	H	1.300160	-0.290353	-0.903940
H73	H	1.385118	-0.285869	-0.807627
H74	H	1.698491	-0.955208	-0.315596
N75	N	1.649359	-1.089936	-0.364727
H76	H	1.639235	-1.148494	-0.374861
H77	H	1.723981	-1.075467	-0.381048
H78	H	1.564726	-0.421709	-1.071280
N79	N	1.582325	-0.435101	-0.951188
H80	H	1.630740	-0.402939	-0.996486
H81	H	1.624609	-0.467168	-0.900071
