data_functionalizedCrystal
_audit_creation_method	'MofGen! by Chris Wilmer'
_symmetry_space_group_name_H-M	'P1'
_symmetry_Int_Tables_number	1
_symmetry_cell_setting	triclinic
loop_
_symmetry_equiv_pos_as_xyz
  x,y,z
_cell_length_a	25.639239
_cell_length_b	18.101398
_cell_length_c	25.639234
_cell_angle_alpha	89.974090
_cell_angle_beta	89.975095
_cell_angle_gamma	90.033952
loop_
_atom_site_label
_atom_site_type_symbol
_atom_site_fract_x
_atom_site_fract_y
_atom_site_fract_z
Zn1	Zn	-0.208249	1.132094	-0.295694
Zn2	Zn	-0.295677	1.131970	-0.208259
Zn3	Zn	-0.208250	1.008249	-0.208264
Zn4	Zn	-0.295648	1.008187	-0.295654
O5	O	-0.251956	1.070125	-0.251968
O6	O	-0.219858	1.235710	-0.284111
O7	O	-0.284092	1.115532	-0.135094
O8	O	-0.135085	1.024755	-0.219880
O9	O	-0.284091	1.235619	-0.219872
O10	O	-0.135084	1.115743	-0.284115
O11	O	-0.219860	1.024635	-0.135098
O12	O	-0.219832	0.904608	-0.219841
O13	O	-0.284041	1.024649	-0.368824
O14	O	-0.284043	0.904562	-0.284046
O15	O	-0.219830	1.115683	-0.368854
O16	O	-0.368838	1.115472	-0.219833
O17	O	-0.368817	1.024529	-0.284042
C18	C	-0.251935	0.877714	-0.251940
C19	C	-0.251938	0.795400	-0.251941
C20	C	-0.251971	0.496309	-0.251985
C21	C	-0.211369	0.527638	-0.211786
C22	C	-0.211478	0.613257	-0.211614
C23	C	-0.251954	0.644692	-0.251963
C24	C	-0.307029	0.613563	-0.236906
C25	C	-0.306803	0.527918	-0.236626
C26	C	-0.237976	0.527929	-0.307336
C27	C	-0.236749	0.613580	-0.307034
C28	C	-0.251948	0.728551	-0.251952
C29	C	-0.251980	0.412450	-0.251995
C30	C	-0.387798	1.070000	-0.251944
C31	C	-0.445912	1.070015	-0.251951
C32	C	-0.806274	1.117602	-0.218591
C33	C	-0.860878	1.117631	-0.218598
O34	O	-0.889114	1.157962	-0.190208
N35	N	-0.888195	1.070255	-0.252002
C36	C	-0.860904	1.022852	-0.285405
O37	O	-0.889153	0.982559	-0.313819
C38	C	-0.806301	1.022828	-0.285401
C39	C	-0.778987	1.070202	-0.251990
C40	C	-0.778960	1.164973	-0.185184
C41	C	-0.724360	1.164943	-0.185176
C42	C	-0.697073	1.117542	-0.218576
C43	C	-0.724387	1.070172	-0.251983
C44	C	-0.779011	0.975430	-0.318806
C45	C	-0.724404	0.975410	-0.318799
C46	C	-0.697091	1.022784	-0.285388
C47	C	-0.642499	1.022742	-0.285375
N48	N	-0.615183	1.070118	-0.251971
C49	C	-0.642470	1.117518	-0.218571
C50	C	-0.975575	1.022908	-0.285413
C51	C	-1.030177	1.022928	-0.285416
C52	C	-1.030147	1.117708	-0.218609
C53	C	-0.975544	1.117684	-0.218604
C54	C	-0.948258	1.070284	-0.252009
C55	C	-0.527805	1.117451	-0.218557
C56	C	-0.473199	1.117415	-0.218551
C57	C	-0.473234	1.022639	-0.285360
C58	C	-0.527834	1.022672	-0.285364
C59	C	-0.555118	1.070084	-0.251961
O60	O	-0.614229	0.982433	-0.313752
O61	O	-0.614214	1.157812	-0.190167
C62	C	-0.115583	1.070270	-0.252003
C63	C	-0.057469	1.070332	-0.252018
C64	C	-0.251932	1.070173	-0.388341
C65	C	-0.251922	1.070193	-0.446455
C66	C	-0.251977	1.263287	-0.251995
C67	C	-0.251987	1.345601	-0.252007
C68	C	-0.218414	1.022884	-0.806825
C69	C	-0.218404	1.022888	-0.861430
O70	O	-0.189972	0.982627	-0.889673
N71	N	-0.251840	1.070218	-0.888737
C72	C	-0.285291	1.117542	-0.861438
O73	O	-0.313729	1.157799	-0.889679
C74	C	-0.285302	1.117533	-0.806835
C75	C	-0.251861	1.070206	-0.779530
C76	C	-0.184976	0.975560	-0.779520
C77	C	-0.184985	0.975557	-0.724920
C78	C	-0.218432	1.022879	-0.697624
C79	C	-0.251870	1.070203	-0.724929
C80	C	-0.318755	1.164853	-0.779536
C81	C	-0.318764	1.164840	-0.724929
C82	C	-0.285323	1.117512	-0.697624
C83	C	-0.285326	1.117522	-0.643033
N84	N	-0.251890	1.070192	-0.615725
C85	C	-0.218443	1.022870	-0.643021
C86	C	-0.285264	1.117555	-0.976109
C87	C	-0.285250	1.117567	-1.030711
C88	C	-0.218364	1.022912	-1.030699
C89	C	-0.218376	1.022904	-0.976096
C90	C	-0.251829	1.070225	-0.948801
C91	C	-0.218464	1.022868	-0.528356
C92	C	-0.218475	1.022872	-0.473750
C93	C	-0.285362	1.117523	-0.473767
C94	C	-0.285350	1.117523	-0.528368
C95	C	-0.251899	1.070189	-0.555661
O96	O	-0.313745	1.157760	-0.614755
O97	O	-0.190014	0.982612	-0.614773
C98	C	-0.251942	1.070119	-0.116125
C99	C	-0.251805	1.070242	-0.058011
H100	H	-0.338091	0.633922	-0.265269
N101	N	-0.150796	0.927232	-0.807395
N102	N	-0.117469	0.953332	-0.837870
H103	H	-0.093323	0.919203	-0.857554
H104	H	-0.267549	0.507668	-0.337288
N105	N	-1.058074	0.974541	-0.319546
N106	N	-1.088504	1.000584	-0.352890
H107	H	-1.108205	0.966412	-0.376998
N108	N	-0.319422	1.165919	-0.948232
N109	N	-0.301035	1.213131	-0.917785
H110	H	-0.325158	1.247290	-0.898100
N111	N	-0.445365	0.974214	-0.319477
N112	N	-0.451508	0.905883	-0.315967
H113	H	-0.431825	0.871684	-0.340065
H114	H	-0.345987	1.203391	-0.801758
N115	N	-0.352935	1.213191	-0.697058
N116	N	-0.349475	1.281530	-0.703182
H117	H	-0.373607	1.315680	-0.683499
H118	H	-0.312592	1.156054	-0.451533
H119	H	-0.702191	0.936812	-0.346003
H120	H	-0.550013	1.156061	-0.191359
H121	H	-0.550074	0.984098	-0.312571
N122	N	-0.184307	0.974535	-0.445859
N123	N	-0.136062	0.979502	-0.451974
H124	H	-0.111931	0.945366	-0.432277
N125	N	-0.806827	1.213382	-0.151054
N126	N	-0.837324	1.187364	-0.117716
H127	H	-0.857001	1.221552	-0.093606
N128	N	-0.947713	0.974480	-0.319540
N129	N	-0.972114	0.932188	-0.349360
H130	H	-0.952440	0.897986	-0.373463
H131	H	-0.198515	0.506365	-0.321025
N132	N	-0.445292	1.165803	-0.184425
N133	N	-0.396539	1.165771	-0.184417
H134	H	-0.376830	1.199942	-0.160315
H135	H	-0.312575	1.156069	-0.550600
N136	N	-0.319413	1.165907	-1.058598
N137	N	-0.352726	1.139820	-1.089048
H138	H	-0.376858	1.173958	-1.108741
N139	N	-0.159978	0.501830	-0.223480
N140	N	-0.135394	0.464597	-0.190605
H141	H	-0.099096	0.446365	-0.198863
N142	N	-0.184286	0.974523	-0.556221
N143	N	-0.136044	0.979494	-0.550128
H144	H	-0.111903	0.945354	-0.569807
N145	N	-0.160239	0.639656	-0.223439
N146	N	-0.124147	0.594827	-0.231875
H147	H	-0.087955	0.613467	-0.240220
N148	N	-0.947639	1.166067	-0.184478
N149	N	-0.917205	1.140024	-0.151138
H150	H	-0.897499	1.174196	-0.127034
N151	N	-0.150823	0.927213	-0.697034
N152	N	-0.102577	0.932172	-0.703149
H153	H	-0.078450	0.898024	-0.683458
H154	H	-0.191130	0.984380	-1.052933
N155	N	-0.222832	0.500584	-0.160635
N156	N	-0.222702	0.432640	-0.151908
H157	H	-0.230799	0.413529	-0.115784
N158	N	-0.223084	0.638906	-0.160161
N159	N	-0.231133	0.593554	-0.124266
H160	H	-0.239332	0.611667	-0.087925
N161	N	-0.185902	0.639097	-0.321273
N162	N	-0.147465	0.623484	-0.293403
H163	H	-0.111552	0.641509	-0.303456
N164	N	-0.696471	1.213330	-0.151039
N165	N	-0.702612	1.208453	-0.102793
H166	H	-0.682921	1.242629	-0.078680
N167	N	-0.321695	0.502814	-0.185864
N168	N	-0.332181	0.548547	-0.150889
H169	H	-0.342698	0.530822	-0.115036
N170	N	-1.058034	1.166122	-0.184493
N171	N	-1.106787	1.166133	-0.184507
H172	H	-1.126484	1.200321	-0.160414
H173	H	-0.264167	0.634981	-0.338590
H174	H	-0.338079	0.507191	-0.264629
N175	N	-0.184211	0.974560	-0.948215
N176	N	-0.154348	0.932320	-0.972599
H177	H	-0.130216	0.898175	-0.952911
N178	N	-0.806894	0.927033	-0.352937
N179	N	-0.782514	0.884724	-0.382756
H180	H	-0.802205	0.850541	-0.406864
H181	H	-0.319104	0.634974	-0.196879
