data_functionalizedCrystal
_audit_creation_method	'MofGen! by Chris Wilmer'
_symmetry_space_group_name_H-M	'P1'
_symmetry_Int_Tables_number	1
_symmetry_cell_setting	triclinic
loop_
_symmetry_equiv_pos_as_xyz
  x,y,z
_cell_length_a	18.101389
_cell_length_b	12.759401
_cell_length_c	12.759400
_cell_angle_alpha	90.014845
_cell_angle_beta	90.014960
_cell_angle_gamma	90.015813
loop_
_atom_site_label
_atom_site_type_symbol
_atom_site_fract_x
_atom_site_fract_y
_atom_site_fract_z
Zn1	Zn	-0.418688	-1.606228	0.418372
Zn2	Zn	0.081312	-1.106228	0.918372
Zn3	Zn	-0.294854	-1.606130	0.594040
Zn4	Zn	0.205146	-1.106130	1.094040
Zn5	Zn	-0.294868	-1.430538	0.418376
Zn6	Zn	0.205132	-0.930538	0.918376
Zn7	Zn	-0.418661	-1.430518	0.594010
Zn8	Zn	0.081339	-0.930518	1.094010
O9	O	-0.356768	-1.518354	0.506199
O10	O	0.143232	-1.018354	1.006199
O11	O	-0.402267	-1.753236	0.441686
O12	O	0.097733	-1.253236	0.941686
O13	O	-0.191223	-1.582805	0.570752
O14	O	0.308777	-1.082805	1.070752
O15	O	-0.311310	-1.453892	0.271354
O16	O	0.188690	-0.953892	0.771354
O17	O	-0.311287	-1.753164	0.570748
O18	O	0.188713	-1.253164	1.070748
O19	O	-0.402280	-1.582971	0.271351
O20	O	0.097720	-1.082971	0.771351
O21	O	-0.191233	-1.453798	0.441693
O22	O	0.308767	-0.953798	0.941693
O23	O	-0.311284	-1.283514	0.441663
O24	O	0.188716	-0.783514	0.941663
O25	O	-0.522298	-1.453859	0.570697
O26	O	-0.022298	-0.953859	1.070697
O27	O	-0.402234	-1.283500	0.570701
O28	O	0.097766	-0.783500	1.070701
O29	O	-0.522318	-1.582952	0.441656
O30	O	-0.022318	-1.082952	0.941656
O31	O	-0.311261	-1.582786	0.741057
O32	O	0.188739	-1.082786	1.241057
O33	O	-0.402221	-1.453765	0.741035
O34	O	0.097779	-0.953765	1.241035
C35	C	-0.356753	-1.518291	0.779167
C36	C	0.143247	-1.018291	1.279167
C37	C	-0.356771	-1.518361	0.895943
C38	C	0.143229	-1.018361	1.395943
C39	C	-0.356758	-1.245386	0.506180
C40	C	0.143242	-0.745386	1.006180
C41	C	-0.356771	-1.128610	0.506197
C42	C	0.143229	-0.628610	1.006197
C43	C	-0.549930	-1.518414	0.506173
C44	C	-0.049930	-1.018414	1.006173
C45	C	-0.632244	-1.518440	0.506162
C46	C	-0.132244	-1.018440	1.006162
C47	C	-0.931335	-1.518501	0.505965
C48	C	-0.431335	-1.018501	1.005965
C49	C	-0.899997	-1.437000	0.586895
C50	C	-0.399997	-0.937000	1.086895
C51	C	-0.814379	-1.437220	0.587271
C52	C	-0.314379	-0.937220	1.087271
C53	C	-0.782953	-1.518470	0.506062
C54	C	-0.282953	-1.018470	1.006062
C55	C	-0.814048	-1.629171	0.536115
C56	C	-0.314048	-1.129171	1.036115
C57	C	-0.899693	-1.628717	0.536647
C58	C	-0.399693	-1.128717	1.036647
C59	C	-0.899758	-1.490264	0.394801
C60	C	-0.399758	-0.990264	0.894801
C61	C	-0.814107	-1.487801	0.395443
C62	C	-0.314107	-0.987801	0.895443
C63	C	-0.699093	-1.518459	0.506116
C64	C	-0.199093	-1.018459	1.006116
C65	C	-1.015195	-1.518519	0.505914
C66	C	-0.515195	-1.018519	1.005914
C67	C	-0.164357	-1.518353	0.506150
C68	C	0.335643	-1.018353	1.006150
C69	C	-0.082044	-1.518531	0.505866
C70	C	0.417956	-1.018531	1.005866
C71	C	-0.356778	-1.792387	0.506220
C72	C	0.143222	-1.292387	1.006220
C73	C	-0.356783	-1.909163	0.506228
C74	C	0.143217	-1.409163	1.006228
C75	C	-0.404051	-1.073768	0.573494
C76	C	0.095949	-0.573768	1.073494
C77	C	-0.404059	-0.964043	0.573508
C78	C	0.095941	-0.464043	1.073508
C79	C	-0.309501	-0.964013	0.438924
C80	C	0.190499	-0.464013	0.938924
C81	C	-0.309498	-1.073735	0.438906
C82	C	0.190502	-0.573735	0.938906
C83	C	-0.451324	-1.128642	0.640786
C84	C	0.048676	-0.628642	1.140786
C85	C	-0.498607	-1.073800	0.708090
C86	C	0.001393	-0.573800	1.208090
C87	C	-0.498615	-0.964076	0.708103
C88	C	0.001385	-0.464076	1.208103
C89	C	-0.451340	-0.909194	0.640813
C90	C	0.048660	-0.409194	1.140813
C91	C	-0.356800	-1.518445	0.232166
C92	C	0.143200	-1.018445	0.732166
C93	C	-0.356813	-1.518484	0.115390
C94	C	0.143187	-1.018484	0.615390
C95	C	-0.309460	-1.585617	0.950782
C96	C	0.190540	-1.085617	1.450782
C97	C	-0.309483	-1.585681	1.060506
C98	C	0.190517	-1.085681	1.560506
C99	C	-0.404129	-1.451225	1.060543
C100	C	0.095871	-0.951225	1.560543
C101	C	-0.404109	-1.451166	0.950821
C102	C	0.095891	-0.951166	1.450821
C103	C	-0.262121	-1.652811	0.895904
C104	C	0.237879	-1.152811	1.395904
C105	C	-0.214806	-1.720071	0.950743
C106	C	0.285194	-1.220071	1.450743
C107	C	-0.214829	-1.720136	1.060467
C108	C	0.285171	-1.220136	1.560467
C109	C	-0.262167	-1.652940	1.115352
C110	C	0.237833	-1.152940	1.615352
H111	H	-0.793354	-1.355132	0.568464
H112	H	-0.293354	-0.855132	1.068464
H113	H	-0.792714	-1.542829	0.331945
H114	H	-0.292714	-1.042829	0.831945
Cl115	Cl	-0.782738	-1.362017	0.360455
Cl116	Cl	-0.282738	-0.862017	0.860455
Cl117	Cl	-0.930551	-1.665666	0.662108
Cl118	Cl	-0.430551	-1.165666	1.162108
Cl119	Cl	-0.451358	-0.771253	0.640824
Cl120	Cl	0.048642	-0.271253	1.140824
H121	H	-0.262095	-1.652763	0.806562
H122	H	0.237905	-1.152763	1.306562
H123	H	-0.921525	-1.455459	0.668790
H124	H	-0.421525	-0.955459	1.168790
H125	H	-0.793693	-1.691528	0.479021
H126	H	-0.293693	-1.191528	0.979021
Cl127	Cl	-0.250059	-1.142685	0.354302
Cl128	Cl	0.249941	-0.642685	0.854302
Cl129	Cl	-0.463633	-1.366753	1.129543
Cl130	Cl	0.036367	-0.866753	1.629543
Cl131	Cl	-0.261887	-1.652590	1.253291
Cl132	Cl	0.238113	-1.152590	1.753291
Cl133	Cl	-0.780948	-1.666765	0.660245
Cl134	Cl	-0.280948	-1.166765	1.160245
H135	H	-0.271012	-0.919319	0.384140
H136	H	0.228988	-0.419319	0.884140
H137	H	-0.176269	-1.774787	0.906050
H138	H	0.323731	-1.274787	1.406050
H139	H	-0.176308	-1.774910	1.105114
H140	H	0.323692	-1.274910	1.605114
Cl141	Cl	-0.931047	-1.581912	0.301706
Cl142	Cl	-0.431047	-1.081912	0.801706
Cl143	Cl	-0.463588	-1.366616	0.881876
Cl144	Cl	0.036412	-0.866616	1.381876
H145	H	-0.793898	-1.455865	0.669669
H146	H	-0.293898	-0.955865	1.169669
Cl147	Cl	-0.558061	-0.895134	0.792703
Cl148	Cl	-0.058061	-0.395134	1.292703
Cl149	Cl	-0.931785	-1.309873	0.558155
Cl150	Cl	-0.431785	-0.809873	1.058155
H151	H	-0.920424	-1.691502	0.480259
H152	H	-0.420424	-1.191502	0.980259
H153	H	-0.921351	-1.410942	0.367420
H154	H	-0.421351	-0.910942	0.867420
H155	H	-0.451322	-1.217985	0.640785
H156	H	0.048678	-0.717985	1.140785
Cl157	Cl	-0.558039	-1.142792	0.792672
Cl158	Cl	-0.058039	-0.642792	1.292672
