data_functionalizedCrystal
_audit_creation_method	'MofGen! by Chris Wilmer'
_symmetry_space_group_name_H-M	'P1'
_symmetry_Int_Tables_number	1
_symmetry_cell_setting	triclinic
loop_
_symmetry_equiv_pos_as_xyz
  x,y,z
_cell_length_a	6.817900
_cell_length_b	7.190334
_cell_length_c	11.102193
_cell_angle_alpha	92.053843
_cell_angle_beta	71.395875
_cell_angle_gamma	119.388224
loop_
_atom_site_label
_atom_site_type_symbol
_atom_site_fract_x
_atom_site_fract_y
_atom_site_fract_z
V1	V	4.248756	0.665008	-0.173813
O2	O	4.205180	0.652341	0.010438
O3	O	4.224591	0.660468	-0.346647
O4	O	4.285388	0.955038	-0.170224
O5	O	4.143962	0.355732	-0.167207
V6	V	4.718225	0.628016	-0.151882
O7	O	4.540842	0.746155	-0.221919
O8	O	4.876337	0.546869	-0.103776
O9	O	4.519184	0.632556	0.020952
O10	O	4.879198	0.640683	-0.336133
O11	O	4.940416	0.937292	-0.158488
O12	O	4.458387	0.337986	-0.155471
C13	C	4.072736	0.649979	-0.388809
C14	C	4.134831	0.648200	-0.530098
C15	C	4.150298	1.025730	-0.163757
C16	C	4.263785	1.267286	-0.161931
C17	C	4.050538	0.254179	-0.760481
C18	C	3.920882	0.059693	-0.676543
C19	C	3.862541	0.061369	-0.543791
C20	C	3.933860	0.257552	-0.494975
C21	C	4.063516	0.452038	-0.578913
C22	C	4.121854	0.450341	-0.711666
C23	C	4.264488	0.842686	-0.614036
C24	C	4.322846	0.841015	-0.746789
C25	C	4.335807	1.038869	-0.565220
C26	C	4.465480	1.233360	-0.649158
C27	C	4.523823	1.231676	-0.781918
C28	C	4.452502	1.035501	-0.830726
C29	C	4.334380	0.643039	0.063108
C30	C	4.251527	0.644832	0.204395
H31	H	4.098052	0.252795	-0.868574
H32	H	4.500003	1.034111	-0.938818
H33	H	3.862818	-0.100036	-0.716304
O34	O	3.736687	-0.127738	-0.462431
C35	C	3.686193	-0.301257	-0.533973
H36	H	3.821890	-0.241510	-0.635993
H37	H	3.497606	-0.370877	-0.537012
C38	C	3.535817	-0.550848	-0.344901
C39	C	3.702496	-0.477468	-0.470201
H40	H	3.545862	-0.659549	-0.305562
H41	H	3.569827	-0.433947	-0.296700
H42	H	3.378677	-0.608849	-0.347451
H43	H	3.859632	-0.419445	-0.467649
H44	H	3.668513	-0.594364	-0.518400
O45	O	3.877060	0.258802	-0.365988
C46	C	3.747258	0.045074	-0.302369
H47	H	3.788649	-0.062814	-0.371158
H48	H	3.546892	-0.014782	-0.268592
C49	C	3.769382	0.170716	-0.101089
C50	C	3.820235	0.038209	-0.185575
H51	H	3.814387	0.166479	-0.029041
H52	H	3.856824	0.314709	-0.143949
H53	H	3.602410	0.120820	-0.072956
H54	H	3.987207	0.088123	-0.213718
H55	H	3.732822	-0.105776	-0.142716
H56	H	4.288287	1.040220	-0.457124
O57	O	4.534652	1.423726	-0.601528
C58	C	4.455281	1.383496	-0.466357
H59	H	4.425615	1.219549	-0.435371
H60	H	4.279605	1.383870	-0.423860
C61	C	4.682399	1.761873	-0.456023
C62	C	4.645983	1.560518	-0.417967
H63	H	4.800025	1.871072	-0.426172
H64	H	4.735867	1.788979	-0.547090
H65	H	4.535988	1.762154	-0.420607
H66	H	4.792384	1.560230	-0.453396
H67	H	4.592544	1.533416	-0.326904
O68	O	4.649879	1.420805	-0.863275
C69	C	4.700247	1.594296	-0.791713
H70	H	4.693862	1.541920	-0.694169
H71	H	4.561056	1.645168	-0.777331
C72	C	4.959762	1.850169	-0.984541
C73	C	4.951939	1.785846	-0.864740
H74	H	5.115011	1.968331	-1.029589
H75	H	4.925821	1.733286	-1.032755
H76	H	4.843756	1.892548	-0.972539
H77	H	5.067921	1.743443	-0.876744
H78	H	4.985904	1.902727	-0.816529
