data_functionalizedCrystal
_audit_creation_method	'MofGen! by Chris Wilmer'
_symmetry_space_group_name_H-M	'P1'
_symmetry_Int_Tables_number	1
_symmetry_cell_setting	triclinic
loop_
_symmetry_equiv_pos_as_xyz
  x,y,z
_cell_length_a	17.699083
_cell_length_b	10.268362
_cell_length_c	17.699083
_cell_angle_alpha	90.006174
_cell_angle_beta	96.716985
_cell_angle_gamma	90.001874
loop_
_atom_site_label
_atom_site_type_symbol
_atom_site_fract_x
_atom_site_fract_y
_atom_site_fract_z
O1	O	-1.004076	0.108107	0.095712
O2	O	-0.783697	0.108153	0.108164
O3	O	-0.900113	0.108117	-0.008251
O4	O	-0.887660	0.108143	0.212127
O5	O	-0.900103	-0.108483	-0.008256
O6	O	-0.783687	-0.108448	0.108160
O7	O	-1.004066	-0.108493	0.095707
Cu8	Cu	-0.893876	-0.128248	0.101933
Cu9	Cu	-0.893888	0.127908	0.101938
O10	O	-0.887650	-0.108458	0.212122
C11	C	-0.755495	-0.000141	0.107716
C12	C	-0.671477	-0.000124	0.106377
C13	C	-0.622856	-0.000116	0.174710
C14	C	-0.543913	-0.000132	0.173448
C15	C	-0.513592	-0.000147	0.103852
C16	C	-0.562219	-0.000159	0.035513
C17	C	-0.641161	-0.000152	0.036776
C18	C	-0.243856	-0.000188	0.030418
C19	C	-0.164908	-0.000190	0.029160
C20	C	-0.146608	-0.000168	0.167090
C21	C	-0.225550	-0.000161	0.168353
C22	C	-0.274170	-0.000180	0.100015
C23	C	-0.359769	-0.000165	0.101384
C24	C	-0.427995	-0.000153	0.102481
N25	N	-0.893873	-0.308414	0.101928
C26	C	-0.893884	-0.574084	0.101937
C27	C	-0.893875	-0.426246	0.101934
C28	C	-0.032268	-0.000193	0.096156
C29	C	-0.116286	-0.000192	0.097494
C30	C	-0.899662	-0.000183	-0.036451
C31	C	-0.898323	-0.000183	-0.120469
N32	N	-0.893896	0.308073	0.101937
C33	C	-0.966656	-0.000199	-0.169090
C34	C	-0.965394	-0.000188	-0.248033
C35	C	-0.895798	-0.000169	-0.278354
C36	C	-0.827459	-0.000149	-0.229727
C37	C	-0.828722	-0.000152	-0.150785
C38	C	-0.822364	-0.000137	-0.548090
C39	C	-0.821106	-0.000139	-0.627038
C40	C	-0.959036	-0.000173	-0.645338
C41	C	-0.960299	-0.000176	-0.566396
C42	C	-0.891961	-0.000149	-0.517776
C43	C	-0.893330	-0.000159	-0.432177
C44	C	-0.894427	-0.000168	-0.363951
C45	C	-0.888102	-0.000154	0.240322
C46	C	-0.889440	-0.000146	0.324340
H47	H	-0.647537	-0.000103	0.231384
H48	H	-1.014680	-0.000189	-0.684934
O49	O	-0.496791	-0.000065	0.239897
C50	C	-0.486970	-0.000115	0.376843
C51	C	-0.540422	-0.000156	0.301643
H52	H	-0.522224	-0.000216	0.426784
H53	H	-0.449560	0.090547	0.379754
H54	H	-0.449546	-0.090747	0.379659
H55	H	-0.577893	0.090415	0.298776
H56	H	-0.577780	-0.090878	0.298764
O57	O	-1.034330	-0.000156	-0.139765
C58	C	-1.171009	-0.000251	-0.166259
C59	C	-1.094421	-0.000277	-0.199566
H60	H	-1.219612	-0.000376	-0.214591
H61	H	-1.175103	0.090417	-0.129780
H62	H	-1.175007	-0.090877	-0.129737
H63	H	-1.090371	0.090288	-0.236122
H64	H	-1.090360	-0.091005	-0.236001
H65	H	-0.250232	-0.000143	0.225025
H66	H	-0.283434	-0.000204	-0.025228
O67	O	-0.756053	-0.000059	-0.500759
C68	C	-0.696857	-0.000110	-0.371036
C69	C	-0.772013	-0.000171	-0.424555
H70	H	-0.709735	-0.000228	-0.309413
H71	H	-0.662597	0.090566	-0.381986
H72	H	-0.662593	-0.090728	-0.382094
H73	H	-0.806338	0.090385	-0.413528
H74	H	-0.806216	-0.090907	-0.413593
O75	O	-0.099408	0.000068	0.233496
C76	C	-0.059639	0.112268	0.351022
C77	C	-0.113120	0.112172	0.275841
H78	H	-0.070717	0.202880	0.385286
H79	H	0.002007	0.112339	0.338214
H80	H	-0.070649	0.021590	0.385249
H81	H	-0.102178	0.202834	0.241578
H82	H	-0.174748	0.112032	0.288703
H83	H	-0.773078	-0.000138	-0.111198
O84	O	-1.031755	0.000028	-0.295291
C85	C	-1.110376	0.112198	-0.395055
C86	C	-1.035198	0.112125	-0.341569
H87	H	-1.113176	0.202805	-0.432496
H88	H	-1.160361	0.112262	-0.359858
H89	H	-1.113221	0.021515	-0.432447
H90	H	-1.032278	0.202793	-0.304167
H91	H	-0.985248	0.111993	-0.376812
H92	H	-0.140225	-0.000204	-0.027517
O93	O	-0.753477	0.000121	-0.656456
C94	C	-0.635194	0.112347	-0.664932
C95	C	-0.711758	0.112231	-0.631579
H96	H	-0.601436	0.202964	-0.644819
H97	H	-0.645988	0.112423	-0.729708
H98	H	-0.601452	0.021674	-0.644916
H99	H	-0.745539	0.202888	-0.651537
H100	H	-0.700910	0.112086	-0.566806
H101	H	-0.680748	-0.000158	-0.018868
H102	H	-0.537526	-0.000190	-0.021154
H103	H	-1.016971	-0.000197	-0.541714
O104	O	-0.759786	-0.000069	-0.259052
C105	C	-0.623107	-0.000107	-0.232561
C106	C	-0.699694	-0.000165	-0.199252
H107	H	-0.574502	-0.000213	-0.184230
H108	H	-0.619022	0.090562	-0.269029
H109	H	-0.619102	-0.090732	-0.269094
H110	H	-0.703751	0.090398	-0.162686
H111	H	-0.703747	-0.090895	-0.162828
