data_functionalizedCrystal
_audit_creation_method	'MofGen! by Chris Wilmer'
_symmetry_space_group_name_H-M	'P1'
_symmetry_Int_Tables_number	1
_symmetry_cell_setting	triclinic
loop_
_symmetry_equiv_pos_as_xyz
  x,y,z
_cell_length_a	6.394984
_cell_length_b	10.723024
_cell_length_c	9.198806
_cell_angle_alpha	90.003648
_cell_angle_beta	89.998362
_cell_angle_gamma	94.518389
loop_
_atom_site_label
_atom_site_type_symbol
_atom_site_fract_x
_atom_site_fract_y
_atom_site_fract_z
O1	O	0.293022	-1.660294	-0.120878
O2	O	0.321071	-1.297439	-0.120882
O3	O	0.003055	-1.484021	-0.120876
O4	O	0.611038	-1.473712	-0.120884
O5	O	0.003054	-1.484005	0.120909
O6	O	0.321070	-1.297424	0.120903
O7	O	0.293022	-1.660279	0.120907
Cu8	Cu	0.307046	-1.478850	0.142982
Cu9	Cu	0.307047	-1.478868	-0.142957
O10	O	0.611037	-1.473697	0.120901
C11	C	0.319029	-1.250910	0.000010
C12	C	0.312922	-1.112291	0.000008
C13	C	0.925207	-1.481963	0.000021
C14	C	0.688880	-1.475751	0.000018
C15	C	0.295063	-1.706808	0.000012
C16	C	0.301170	-1.845427	0.000004
N17	N	0.307044	-1.478846	0.344096
N18	N	0.307032	-1.478881	-0.344071
C19	C	0.490867	-1.039195	0.000004
C20	C	0.484559	-0.895925	0.000002
C21	C	0.172929	-1.557180	0.416296
C22	C	0.172922	-1.557200	0.583708
H23	H	0.647881	-1.082681	0.000010
H24	H	0.636893	-0.833107	-0.000006
Br25	Br	0.047243	-0.950112	-0.000008
H26	H	0.421867	-1.411817	0.593850
H27	H	0.421851	-1.411791	0.406222
Br28	Br	-0.018976	-1.668619	0.312762
H29	H	0.155908	-1.068805	-0.000027
Br30	Br	-0.018448	-1.668996	0.687185
