data_functionalizedCrystal
_audit_creation_method	'MofGen! by Chris Wilmer'
_symmetry_space_group_name_H-M	'P1'
_symmetry_Int_Tables_number	1
_symmetry_cell_setting	triclinic
loop_
_symmetry_equiv_pos_as_xyz
  x,y,z
_cell_length_a	15.995343
_cell_length_b	15.944499
_cell_length_c	15.072220
_cell_angle_alpha	90.002115
_cell_angle_beta	89.991823
_cell_angle_gamma	83.483397
loop_
_atom_site_label
_atom_site_type_symbol
_atom_site_fract_x
_atom_site_fract_y
_atom_site_fract_z
O1	O	1.110986	0.108236	-0.073687
O2	O	0.867208	0.121613	-0.073708
O3	O	0.995777	-0.007354	-0.073698
O4	O	0.982417	0.237202	-0.073696
O5	O	0.995745	-0.007347	0.073867
O6	O	0.867176	0.121620	0.073858
O7	O	1.110954	0.108243	0.073878
Zn8	Zn	0.989060	0.114932	0.097297
Zn9	Zn	0.989102	0.114923	-0.097126
O10	O	0.982386	0.237210	0.073869
C11	C	0.835997	0.121064	0.000072
C12	C	0.743047	0.119410	0.000064
C13	C	0.572861	0.116407	0.000076
C14	C	0.549527	0.023312	0.000075
C15	C	0.452849	0.021561	0.000415
C16	C	0.405301	0.113449	0.000087
C17	C	0.434369	0.160262	0.084186
C18	C	0.531161	0.161366	0.084252
C19	C	0.531108	0.162721	-0.083563
C20	C	0.434613	0.159284	-0.084663
C21	C	0.310603	0.111782	0.000096
C22	C	0.667559	0.118076	0.000073
C23	C	0.995214	-0.038645	0.000082
C24	C	0.993574	-0.131893	0.000075
C25	C	1.068269	-0.423436	0.000086
C26	C	1.029425	-0.362404	0.072844
C27	C	0.987617	-0.467530	0.000085
C28	C	1.029435	-0.362417	-0.072644
C29	C	0.990548	-0.302621	0.000079
C30	C	0.948750	-0.407726	0.072902
C31	C	0.948771	-0.407745	-0.072651
C32	C	0.909869	-0.346731	0.000124
C33	C	0.985930	-0.562529	0.000089
C34	C	0.992228	-0.207622	0.000081
C35	C	1.142165	0.108791	0.000096
C36	C	1.235115	0.110446	0.000099
C37	C	0.982948	0.268501	0.000087
C38	C	0.984588	0.361749	0.000088
N39	N	0.989038	0.114938	0.229986
N40	N	0.989131	0.114910	-0.229815
C41	C	0.989100	0.114920	0.589187
C42	C	0.920075	0.183696	0.551575
C43	C	0.920233	0.183947	0.448750
C44	C	0.989069	0.114929	0.410983
C45	C	1.076431	0.134069	0.448282
C46	C	1.076044	0.134558	0.551140
C47	C	0.971542	0.026799	0.551285
C48	C	0.969537	0.027387	0.448421
C49	C	0.989056	0.114933	0.310270
C50	C	0.989119	0.114918	0.689901
H51	H	0.578503	-0.012181	0.060294
H52	H	0.914652	-0.427701	0.134477
H53	H	0.433848	-0.015084	-0.059859
Br54	Br	1.102845	0.239961	0.405338
H55	H	0.577552	-0.012775	-0.060224
Br56	Br	1.179826	-0.479000	0.000206
H57	H	1.016547	-0.026191	0.422717
Br58	Br	1.086261	-0.328908	0.175368
H59	H	0.401649	0.226331	-0.090001
H60	H	0.434404	-0.014906	0.061053
H61	H	0.914699	-0.427858	-0.134168
Br62	Br	1.101836	0.241670	0.591120
Br63	Br	1.086336	-0.328953	-0.175154
H64	H	0.414268	0.128148	0.147011
H65	H	0.909222	0.008394	0.577270
H66	H	0.855295	0.172543	0.423533
H67	H	0.905273	0.012861	0.424044
H68	H	0.545725	0.229635	0.087848
H69	H	1.129022	0.085309	0.423817
Br70	Br	0.554405	0.276944	-0.084886
H71	H	0.854926	0.172480	0.576331
Br72	Br	0.798210	-0.291422	0.000173
Br73	Br	0.938510	0.292080	0.594623
Br74	Br	0.381279	0.272980	0.089011
Br75	Br	0.938879	0.292951	0.407719
Br76	Br	1.164138	0.054150	0.592612
H77	H	1.021879	-0.024382	0.575607
H78	H	0.559395	0.133347	-0.147328
Br79	Br	0.403748	0.102444	-0.188368
Br80	Br	0.575795	0.107974	0.189430
