data_functionalizedCrystal
_audit_creation_method	'MofGen! by Chris Wilmer'
_symmetry_space_group_name_H-M	'P1'
_symmetry_Int_Tables_number	1
_symmetry_cell_setting	triclinic
loop_
_symmetry_equiv_pos_as_xyz
  x,y,z
_cell_length_a	13.635800
_cell_length_b	7.190339
_cell_length_c	7.190334
_cell_angle_alpha	82.319600
_cell_angle_beta	60.611776
_cell_angle_gamma	60.611724
loop_
_atom_site_label
_atom_site_type_symbol
_atom_site_fract_x
_atom_site_fract_y
_atom_site_fract_z
V1	V	-2.154325	0.291701	0.663510
O2	O	-2.100792	-0.017518	0.652431
O3	O	-2.172020	0.581760	0.657480
O4	O	-2.172022	0.285678	0.953571
O5	O	-2.100790	0.280614	0.354291
V6	V	-2.385281	0.254896	0.626707
O7	O	-2.308656	0.372435	0.744243
O8	O	-2.456048	0.174162	0.545974
O9	O	-2.255982	-0.035163	0.632737
O10	O	-2.497512	0.564115	0.637786
O11	O	-2.497514	0.265983	0.935926
O12	O	-2.255980	0.260919	0.336646
V13	V	-1.654325	0.291701	0.663510
O14	O	-1.600792	-0.017518	0.652431
O15	O	-1.672020	0.581760	0.657480
O16	O	-1.672022	0.285678	0.953571
O17	O	-1.600790	0.280614	0.354291
V18	V	-1.885281	0.254896	0.626707
O19	O	-1.808656	0.372435	0.744243
O20	O	-1.956048	0.174162	0.545974
O21	O	-1.755982	-0.035163	0.632737
O22	O	-1.997512	0.564115	0.637786
O23	O	-1.997514	0.265983	0.935926
O24	O	-1.755980	0.260919	0.336646
C25	C	-2.103367	0.652521	0.646638
C26	C	-2.159800	0.894096	0.643590
C27	C	-2.103363	0.274825	1.024318
C28	C	-2.159792	0.271761	1.265891
C29	C	-1.589328	-0.347473	0.646678
C30	C	-1.656323	-0.105902	0.643601
C31	C	-1.603363	0.274825	1.024318
C32	C	-1.659792	0.271761	1.265891
