data_functionalizedCrystal
_audit_creation_method	'MofGen! by Chris Wilmer'
_symmetry_space_group_name_H-M	'P1'
_symmetry_Int_Tables_number	1
_symmetry_cell_setting	triclinic
loop_
_symmetry_equiv_pos_as_xyz
  x,y,z
_cell_length_a	19.288864
_cell_length_b	19.188930
_cell_length_c	17.766277
_cell_angle_alpha	89.988508
_cell_angle_beta	89.976791
_cell_angle_gamma	83.140512
loop_
_atom_site_label
_atom_site_type_symbol
_atom_site_fract_x
_atom_site_fract_y
_atom_site_fract_z
O1	O	0.921360	0.087099	-0.062844
O2	O	1.421360	0.587099	0.437156
O3	O	0.719100	0.098849	-0.062794
O4	O	1.219100	0.598849	0.437206
O5	O	0.826066	-0.008682	-0.062806
O6	O	1.326066	0.491318	0.437194
O7	O	0.814393	0.194630	-0.062832
O8	O	1.314393	0.694630	0.437168
O9	O	0.826048	-0.008688	0.062383
O10	O	1.326048	0.491312	0.562383
O11	O	0.719081	0.098843	0.062395
O12	O	1.219081	0.598843	0.562395
O13	O	0.921341	0.087094	0.062345
O14	O	1.421341	0.587094	0.562345
Cu15	Cu	0.820209	0.092968	0.073800
Cu16	Cu	1.320209	0.592968	0.573800
Cu17	Cu	0.820231	0.092974	-0.074250
Cu18	Cu	1.320231	0.592974	0.425750
O19	O	0.814374	0.194625	0.062356
O20	O	1.314374	0.694625	0.562356
C21	C	0.693214	0.098468	-0.000193
C22	C	1.193214	0.598468	0.499807
C23	C	0.616110	0.097333	-0.000173
C24	C	1.116110	0.597333	0.499827
C25	C	0.825679	-0.034696	-0.000209
C26	C	1.325679	0.465304	0.499791
C27	C	0.824544	-0.112200	-0.000202
C28	C	1.324544	0.387800	0.499798
C29	C	0.571419	0.160427	-0.000193
C30	C	1.071419	0.660427	0.499807
C31	C	0.498972	0.159361	-0.000201
C32	C	0.998972	0.659361	0.499799
C33	C	0.471219	0.095197	-0.000204
C34	C	0.971219	0.595197	0.499796
C35	C	0.515921	0.032095	-0.000180
C36	C	1.015921	0.532095	0.499820
C37	C	0.588366	0.033163	-0.000164
C38	C	1.088366	0.533163	0.499836
C39	C	0.362960	0.044759	-0.044082
C40	C	0.862960	0.544759	0.455918
C41	C	0.290515	0.043694	-0.044103
C42	C	0.790515	0.543694	0.455897
C43	C	0.247773	0.091900	-0.000249
C44	C	0.747773	0.591900	0.499751
C45	C	0.277483	0.141184	0.043614
C46	C	0.777483	0.641184	0.543614
C47	C	0.349929	0.142252	0.043630
C48	C	0.849929	0.642252	0.543630
C49	C	0.392665	0.094032	-0.000221
C50	C	0.892665	0.594032	0.499779
C51	C	0.124526	0.153843	-0.000277
C52	C	0.624526	0.653843	0.499723
C53	C	0.052078	0.152774	-0.000281
C54	C	0.552078	0.652774	0.499719
C55	C	0.069028	0.025506	-0.000267
C56	C	0.569028	0.525506	0.499733
C57	C	0.141475	0.026576	-0.000256
C58	C	0.641475	0.526576	0.499744
C59	C	0.169219	0.090747	-0.000265
C60	C	0.669219	0.590747	0.499735
C61	C	0.887309	-0.157129	-0.000214
C62	C	1.387309	0.342871	0.499786
C63	C	0.886243	-0.229953	-0.000226
C64	C	1.386243	0.270047	0.499774
C65	C	0.822408	-0.257844	-0.000211
C66	C	1.322408	0.242156	0.499789
C67	C	0.759636	-0.212906	-0.000203
C68	C	1.259636	0.287094	0.499797
C69	C	0.760704	-0.140084	-0.000199
C70	C	1.260704	0.359916	0.499801
N71	N	0.773608	-0.365848	0.042405
N72	N	1.273608	0.134152	0.542405
N73	N	0.772598	-0.435026	0.042403
N74	N	1.272598	0.064974	0.542403
C75	C	0.819187	-0.477253	-0.000225
C76	C	1.319187	0.022747	0.499775
N77	N	0.866835	-0.447689	-0.042841
N78	N	1.366835	0.052311	0.457159
N79	N	0.867847	-0.378504	-0.042836
N80	N	1.367847	0.121496	0.457164
C81	C	0.821243	-0.336807	-0.000216
C82	C	1.321243	0.163193	0.499784
C83	C	0.880800	-0.601146	-0.000251
C84	C	1.380800	-0.101146	0.499749
C85	C	0.879731	-0.673971	-0.000268
C86	C	1.379731	-0.173971	0.499732
C87	C	0.753122	-0.656922	-0.000237
C88	C	1.253122	-0.156922	0.499763
C89	C	0.754193	-0.584099	-0.000228
C90	C	1.254193	-0.084099	0.499772
C91	C	0.818034	-0.556216	-0.000231
C92	C	1.318034	-0.056216	0.499769
C93	C	0.947227	0.087475	-0.000258
C94	C	1.447227	0.587475	0.499742
C95	C	1.024330	0.088609	-0.000283
C96	C	1.524330	0.588609	0.499717
C97	C	0.814762	0.220638	-0.000242
C98	C	1.314762	0.720638	0.499758
C99	C	0.815896	0.298143	-0.000253
C100	C	1.315896	0.798143	0.499747
N101	N	0.820199	0.092963	0.177931
N102	N	1.320199	0.592963	0.677931
N103	N	0.820247	0.092974	-0.178380
N104	N	1.320247	0.592974	0.321620
C105	C	0.867579	0.045372	0.217312
C106	C	1.367579	0.545372	0.717312
C107	C	0.867583	0.045368	0.296114
C108	C	1.367583	0.545368	0.796114
C109	C	0.820213	0.092969	0.335531
C110	C	1.320213	0.592969	0.835531
C111	C	0.772824	0.140564	0.296140
C112	C	1.272824	0.640564	0.796140
C113	C	0.772817	0.140561	0.217340
C114	C	1.272817	0.640561	0.717340
C115	C	0.810919	0.156585	0.460362
C116	C	1.310919	0.656585	0.960362
C117	C	0.810931	0.156589	0.539161
C118	C	1.310931	0.656589	1.039161
C119	C	0.820232	0.092977	0.578578
C120	C	1.320232	0.592977	1.078578
C121	C	0.829535	0.029359	0.539185
C122	C	1.329535	0.529359	1.039185
C123	C	0.829528	0.029356	0.460385
C124	C	1.329528	0.529356	0.960385
C125	C	0.820216	0.092977	0.420977
C126	C	1.320216	0.592977	0.920977
C127	C	0.867619	0.045378	0.703405
C128	C	1.367619	0.545378	1.203405
C129	C	0.867618	0.045374	0.782208
C130	C	1.367618	0.545374	1.282208
C131	C	0.772863	0.140575	0.782233
C132	C	1.272863	0.640575	1.282233
C133	C	0.772861	0.140573	0.703431
C134	C	1.272861	0.640573	1.203431
C135	C	0.820242	0.092976	0.664022
C136	C	1.320242	0.592976	1.164022
H137	H	0.462577	0.210742	-0.000215
H138	H	0.962577	0.710742	0.499785
N139	N	0.694423	-0.241380	-0.000190
N140	N	1.194423	0.258620	0.499810
N141	N	0.652165	-0.227528	-0.052950
N142	N	1.152165	0.272472	0.447050
H143	H	0.606105	-0.247635	-0.052944
H144	H	1.106105	0.252365	0.447056
N145	N	0.724437	0.189195	0.336388
N146	N	1.224437	0.689195	0.836388
N147	N	0.682135	0.231687	0.301212
N148	N	1.182135	0.731687	0.801212
H149	H	0.647957	0.266032	0.329636
H150	H	1.147957	0.766032	0.829636
H151	H	0.701147	-0.679631	-0.000228
H152	H	1.201147	-0.179631	0.499772
H153	H	0.709591	-0.103502	-0.000189
H154	H	1.209591	0.396498	0.499811
N155	N	0.946014	-0.572669	-0.000253
N156	N	1.446014	-0.072669	0.499747
N157	N	1.002052	-0.612797	-0.000268
N158	N	1.502052	-0.112797	0.499732
H159	H	1.048110	-0.592688	-0.000268
H160	H	1.548110	-0.092688	0.499732
N161	N	0.690073	-0.538211	-0.000213
N162	N	1.190073	-0.038211	0.499787
N163	N	0.633082	-0.563120	-0.000202
N164	N	1.133082	-0.063120	0.499798
H165	H	0.587793	-0.530712	-0.000194
H166	H	1.087793	-0.030712	0.499806
H167	H	0.046433	-0.026738	-0.000317
H168	H	0.546433	0.473262	0.499683
H169	H	0.906198	0.006619	0.671317
H170	H	1.406198	0.506619	1.171317
H171	H	0.177864	-0.024802	-0.000244
H172	H	0.677864	0.475198	0.499756
N173	N	0.916018	-0.003253	0.822427
N174	N	1.416018	0.496747	1.322427
N175	N	0.958314	-0.045745	0.787227
N176	N	1.458314	0.454255	1.287227
H177	H	0.992497	-0.080090	0.815631
H178	H	1.492497	0.419910	1.315631
N179	N	0.950351	-0.275867	-0.000225
N180	N	1.450351	0.224133	0.499775
N181	N	0.949386	-0.340884	-0.000224
N182	N	1.449386	0.159116	0.499776
H183	H	0.994662	-0.373311	-0.000222
H184	H	1.494662	0.126689	0.499778
H185	H	0.906158	0.006613	0.185228
H186	H	1.406158	0.506613	0.685228
N187	N	0.915985	-0.003254	0.336341
N188	N	1.415985	0.496746	0.836341
N189	N	0.958282	-0.045749	0.301145
N190	N	1.458282	0.454251	0.801145
H191	H	0.992467	-0.080089	0.329553
H192	H	1.492467	0.419911	0.829553
N193	N	0.943854	-0.719857	-0.000290
N194	N	1.443854	-0.219857	0.499710
N195	N	1.000845	-0.694948	-0.000296
N196	N	1.500845	-0.194948	0.499704
H197	H	1.046134	-0.727355	-0.000313
H198	H	1.546134	-0.227355	0.499687
H199	H	0.397756	0.005502	-0.079797
H200	H	0.897756	0.505502	0.420203
H201	H	0.939293	-0.134431	-0.000220
H202	H	1.439293	0.365569	0.499780
N203	N	0.839007	-0.035624	0.420147
N204	N	1.339007	0.464376	0.920147
N205	N	0.792648	-0.051175	0.376209
N206	N	1.292648	0.448825	0.876209
H207	H	0.799338	-0.097068	0.347790
H208	H	1.299338	0.402932	0.847790
N209	N	0.260181	-0.006644	-0.088919
N210	N	0.760181	0.493356	0.411081
N211	N	0.298349	-0.049687	-0.128064
N212	N	0.798349	0.450313	0.371936
H213	H	0.276928	-0.085239	-0.159718
H214	H	0.776928	0.414761	0.340282
N215	N	0.839025	-0.035620	0.579449
N216	N	1.339025	0.464380	1.079449
N217	N	0.839018	-0.035611	0.649805
N218	N	1.339018	0.464389	1.149805
H219	H	0.845717	-0.081500	0.678245
H220	H	1.345717	0.418500	1.178245
N221	N	0.724411	0.189180	0.177120
N222	N	1.224411	0.689180	0.677120
N223	N	0.682114	0.231673	0.212318
N224	N	1.182114	0.731673	0.712318
H225	H	0.647926	0.266012	0.183913
H226	H	1.147926	0.766012	0.683913
H227	H	0.734291	0.179330	0.814326
H228	H	1.234291	0.679330	1.314326
H229	H	0.734282	0.179330	0.671365
H230	H	1.234282	0.679330	1.171365
H231	H	0.803361	0.208391	0.571228
H232	H	1.303361	0.708391	1.071228
N233	N	0.801426	0.221575	0.420116
N234	N	1.301426	0.721575	0.920116
N235	N	0.793136	0.278369	0.455292
N236	N	1.293136	0.778369	0.955292
H237	H	0.786435	0.324268	0.426870
H238	H	1.286435	0.824268	0.926870
H239	H	0.594003	0.212680	-0.000201
H240	H	1.094003	0.712680	0.499799
H241	H	0.374116	0.182379	0.079348
H242	H	0.874116	0.682379	0.579348
H243	H	0.147116	0.206094	-0.000273
H244	H	0.647116	0.706094	0.499727
N245	N	0.233821	0.190443	0.088387
N246	N	0.733821	0.690443	0.588387
N247	N	0.169138	0.189492	0.088360
N248	N	0.669138	0.689492	0.588360
H249	H	0.138297	0.224286	0.119971
H250	H	0.638297	0.724286	0.619971
H251	H	0.493320	-0.020148	-0.000193
H252	H	0.993320	0.479852	0.499807
N253	N	0.634012	-0.031296	-0.000140
N254	N	1.134012	0.468704	0.499860
N255	N	0.609229	-0.088583	-0.000136
N256	N	1.109229	0.411417	0.499864
H257	H	0.641466	-0.134109	-0.000119
H258	H	1.141466	0.365891	0.499881
N259	N	0.006427	0.217229	-0.000282
N260	N	0.506427	0.717229	0.499718
N261	N	0.008822	0.259952	0.052485
N262	N	0.508822	0.759952	0.552485
H263	H	-0.023418	0.305476	0.052487
H264	H	0.476582	0.805476	0.552487
