data_functionalizedCrystal
_audit_creation_method	'MofGen! by Chris Wilmer'
_symmetry_space_group_name_H-M	'P1'
_symmetry_Int_Tables_number	1
_symmetry_cell_setting	triclinic
loop_
_symmetry_equiv_pos_as_xyz
  x,y,z
_cell_length_a	10.723024
_cell_length_b	23.532407
_cell_length_c	9.198806
_cell_angle_alpha	89.992171
_cell_angle_beta	89.996352
_cell_angle_gamma	83.658273
loop_
_atom_site_label
_atom_site_type_symbol
_atom_site_fract_x
_atom_site_fract_y
_atom_site_fract_z
O1	O	1.654700	0.079871	-0.120900
O2	O	1.291309	0.087516	-0.120906
O3	O	1.483962	0.000833	-0.120876
O4	O	1.462046	0.166554	-0.120930
O5	O	1.483947	0.000833	0.120909
O6	O	1.291294	0.087516	0.120879
O7	O	1.654684	0.079871	0.120885
Cu8	Cu	1.472988	0.083693	0.142959
Cu9	Cu	1.473006	0.083693	-0.142980
O10	O	1.462031	0.166554	0.120855
C11	C	1.244819	0.086960	-0.000014
C12	C	1.106317	0.085295	-0.000015
C13	C	1.029823	0.133798	-0.000032
C14	C	0.886673	0.132079	-0.000033
C15	C	1.483397	-0.020387	0.000020
C16	C	1.481719	-0.083615	0.000031
C17	C	1.585203	-0.482046	-0.000046
C18	C	1.583644	-0.541457	-0.000058
O19	O	1.679575	-0.577579	-0.000109
N20	N	1.469112	-0.564826	-0.000059
C21	C	1.356131	-0.528782	-0.000063
O22	O	1.258569	-0.554114	-0.000067
C23	C	1.357691	-0.469373	-0.000063
C24	C	1.472230	-0.446007	-0.000047
C25	C	1.699733	-0.458680	-0.000032
C26	C	1.701291	-0.399274	-0.000019
C27	C	1.588319	-0.363234	-0.000019
C28	C	1.473789	-0.386600	-0.000033
C29	C	1.244711	-0.433329	-0.000078
C30	C	1.246281	-0.373917	-0.000078
C31	C	1.360821	-0.350551	-0.000062
C32	C	1.362374	-0.291154	-0.000020
N33	N	1.476907	-0.267785	-0.000019
C34	C	1.589879	-0.303825	-0.000018
C35	C	1.352863	-0.653545	-0.000067
C36	C	1.351302	-0.712953	-0.000057
C37	C	1.578816	-0.725625	-0.000054
C38	C	1.580376	-0.666215	-0.000054
C39	C	1.467395	-0.630176	-0.000066
C40	C	1.593143	-0.179067	0.000012
C41	C	1.594691	-0.119655	0.000032
C42	C	1.367178	-0.106989	0.000021
C43	C	1.365629	-0.166396	0.000009
C44	C	1.478622	-0.202434	-0.000001
O45	O	1.266494	-0.254997	0.000026
O46	O	1.687425	-0.278484	-0.000034
C47	C	1.701174	0.080427	-0.000010
C48	C	1.839677	0.082092	-0.000018
C49	C	1.462597	0.187774	-0.000044
C50	C	1.464275	0.251001	-0.000065
N51	N	1.472984	0.083693	0.344073
N52	N	1.473019	0.083689	-0.344094
C53	C	1.553879	0.047136	0.416283
C54	C	1.553898	0.047134	0.583695
H55	H	1.685152	-0.208403	-0.000001
H56	H	1.623160	0.015839	0.645792
N57	N	1.381262	0.125145	0.573670
H58	H	1.327289	0.149539	0.644870
H59	H	1.428924	0.150431	0.510497
N60	N	1.703912	-0.641015	-0.000047
H61	H	1.709628	-0.616655	0.089584
H62	H	1.775163	-0.672898	-0.000096
N63	N	1.230989	-0.614682	-0.000043
H64	H	1.226559	-0.589759	0.089592
H65	H	1.226619	-0.589780	-0.089727
H66	H	1.070312	0.176597	-0.000038
H67	H	1.791734	-0.488018	-0.000037
N68	N	1.645572	0.005673	0.333992
H69	H	1.700636	0.027607	0.270805
H70	H	1.699478	-0.018721	0.405255
H71	H	0.820947	0.173602	-0.000054
H72	H	1.151441	-0.452343	-0.000099
H73	H	1.403737	0.114986	0.406190
H74	H	1.065828	0.042497	-0.000039
N75	N	0.926711	0.027082	0.000000
H76	H	0.981399	0.025450	-0.089628
H77	H	0.981305	0.025484	0.089691
H78	H	1.687967	-0.100634	0.000048
H79	H	1.794561	-0.380255	-0.000012
H80	H	1.670804	-0.754979	-0.000060
H81	H	1.258032	-0.731972	-0.000045
H82	H	1.154276	-0.344576	-0.000090
N83	N	1.242094	-0.191602	0.000012
H84	H	1.170765	-0.159754	0.000019
H85	H	1.236498	-0.215964	-0.089633
N86	N	1.245334	-0.068112	0.000060
H87	H	1.263711	-0.026932	0.000075
H88	H	1.195376	-0.075714	-0.089570
