data_functionalizedCrystal
_audit_creation_method	'MofGen! by Chris Wilmer'
_symmetry_space_group_name_H-M	'P1'
_symmetry_Int_Tables_number	1
_symmetry_cell_setting	triclinic
loop_
_symmetry_equiv_pos_as_xyz
  x,y,z
_cell_length_a	25.639242
_cell_length_b	25.639239
_cell_length_c	13.897441
_cell_angle_alpha	90.034859
_cell_angle_beta	90.030074
_cell_angle_gamma	90.034185
loop_
_atom_site_label
_atom_site_type_symbol
_atom_site_fract_x
_atom_site_fract_y
_atom_site_fract_z
Zn1	Zn	0.799267	-0.208205	0.545593
Zn2	Zn	0.799176	-0.295648	0.384282
Zn3	Zn	0.711830	-0.208220	0.384285
Zn4	Zn	0.711787	-0.295604	0.545509
O5	O	0.755515	-0.251919	0.464917
O6	O	0.872420	-0.219817	0.524229
O7	O	0.787570	-0.284075	0.249301
O8	O	0.723485	-0.135053	0.405719
O9	O	0.872354	-0.284060	0.405715
O10	O	0.787724	-0.135042	0.524231
O11	O	0.723397	-0.219843	0.249303
O12	O	0.638659	-0.219800	0.405637
O13	O	0.723411	-0.283985	0.680501
O14	O	0.638628	-0.284000	0.524088
O15	O	0.787682	-0.219774	0.680563
O16	O	0.787528	-0.368807	0.405633
O17	O	0.723324	-0.368775	0.524085
C18	C	0.619673	-0.251897	0.464854
C19	C	0.561559	-0.251900	0.464850
C20	C	0.310373	-0.218434	0.403347
C21	C	0.364977	-0.218430	0.403335
O22	O	0.393220	-0.189945	0.350988
N23	N	0.392285	-0.251907	0.464899
C24	C	0.364985	-0.285387	0.526487
O25	O	0.393226	-0.313861	0.578851
C26	C	0.310382	-0.285389	0.526503
C27	C	0.283077	-0.251913	0.464928
C28	C	0.283068	-0.184961	0.341777
C29	C	0.228467	-0.184967	0.341788
C30	C	0.201172	-0.218446	0.403369
C31	C	0.228476	-0.251919	0.464939
C32	C	0.283083	-0.318866	0.588095
C33	C	0.228476	-0.318865	0.588106
C34	C	0.201171	-0.285389	0.526531
C35	C	0.146580	-0.285404	0.526531
N36	N	0.119273	-0.251926	0.464966
C37	C	0.146568	-0.218448	0.403386
C38	C	0.479656	-0.285380	0.526449
C39	C	0.534258	-0.285381	0.526428
C40	C	0.534246	-0.218423	0.403277
C41	C	0.479643	-0.218425	0.403293
C42	C	0.452348	-0.251903	0.464884
C43	C	0.031903	-0.218462	0.403413
C44	C	-0.022702	-0.218472	0.403427
C45	C	-0.022686	-0.285429	0.526581
C46	C	0.031915	-0.285421	0.526564
C47	C	0.059208	-0.251933	0.464977
O48	O	0.118302	-0.313872	0.578854
O49	O	0.118320	-0.189973	0.351039
C50	C	0.755426	-0.387762	0.464871
C51	C	0.755435	-0.445876	0.464883
C52	C	0.722078	-0.697065	0.526576
C53	C	0.722058	-0.642461	0.526564
O54	O	0.693610	-0.614220	0.578986
N55	N	0.755501	-0.615150	0.464933
C56	C	0.788969	-0.642446	0.403316
O57	O	0.817414	-0.614202	0.350894
C58	C	0.788991	-0.697049	0.403333
C59	C	0.755542	-0.724357	0.464961
C60	C	0.688632	-0.724373	0.588200
C61	C	0.688651	-0.778973	0.588209
C62	C	0.722115	-0.806266	0.526595
C63	C	0.755561	-0.778958	0.464971
C64	C	0.822462	-0.724345	0.341722
C65	C	0.822481	-0.778952	0.341744
C66	C	0.789032	-0.806260	0.403373
C67	C	0.789044	-0.860851	0.403366
N68	N	0.755601	-0.888162	0.464998
C69	C	0.722137	-0.860869	0.526612
C70	C	0.788922	-0.527775	0.403287
C71	C	0.788898	-0.473173	0.403265
C72	C	0.721988	-0.473191	0.526514
C73	C	0.722009	-0.527795	0.526531
C74	C	0.755479	-0.555086	0.464918
C75	C	0.722178	-0.975534	0.526627
C76	C	0.722199	-1.030140	0.526628
C77	C	0.789111	-1.030117	0.403383
C78	C	0.789089	-0.975516	0.403377
C79	C	0.755621	-0.948226	0.465007
O80	O	0.817479	-0.889126	0.350975
O81	O	0.693702	-0.889120	0.579034
C82	C	0.891888	-0.251942	0.464981
C83	C	0.950002	-0.251951	0.465008
C84	C	0.755552	-0.251873	0.716510
C85	C	0.755568	-0.251853	0.823724
C86	C	0.755619	-0.115546	0.464985
C87	C	0.755663	-0.057432	0.465014
C88	C	0.755508	-0.251928	0.214303
C89	C	0.755594	-0.251800	0.107089
C90	C	0.755582	-0.251818	1.020020
C91	C	0.755573	-0.251839	0.910787
H92	H	0.556485	-0.312646	0.576558
H93	H	0.305286	-0.157695	0.291631
H94	H	0.661381	-0.702156	0.638378
H95	H	0.556480	-0.191161	0.353136
H96	H	0.661412	-0.801203	0.638392
O97	O	0.312525	-0.354972	0.654511
H98	H	0.337434	-0.331600	0.703655
O99	O	-0.052143	-0.321541	0.592975
H100	H	-0.041697	-0.362564	0.576275
O101	O	0.858547	-0.694902	0.275260
H102	H	0.849614	-0.705427	0.199540
H103	H	0.694960	-1.052371	0.576816
H104	H	0.694926	-0.953321	0.576813
H105	H	-0.044931	-0.191212	0.353282
O106	O	0.199021	-0.148858	0.275378
H107	H	0.174171	-0.122289	0.318645
O108	O	0.858580	-0.808394	0.275296
H109	H	0.849633	-0.797959	0.199568
O110	O	0.685931	-0.557248	0.592997
H111	H	0.709324	-0.582085	0.642126
H112	H	0.694740	-0.450960	0.576685
H113	H	0.816176	-0.549993	0.353106
O114	O	0.824977	-0.443723	0.336795
H115	H	0.801587	-0.418888	0.287658
O116	O	0.825163	-0.946057	0.336907
H117	H	0.848438	-0.974211	0.294068
O118	O	0.825220	-1.059558	0.336957
H119	H	0.819620	-1.102114	0.347341
H120	H	0.054119	-0.191191	0.353268
H121	H	0.457415	-0.191164	0.353157
O122	O	0.450245	-0.321547	0.592821
H123	H	0.460758	-0.312670	0.668569
O124	O	0.199036	-0.355009	0.654473
H125	H	0.227200	-0.378299	0.697255
H126	H	0.054148	-0.312683	0.576696
