data_functionalizedCrystal
_audit_creation_method	'MofGen! by Chris Wilmer'
_symmetry_space_group_name_H-M	'P1'
_symmetry_Int_Tables_number	1
_symmetry_cell_setting	triclinic
loop_
_symmetry_equiv_pos_as_xyz
  x,y,z
_cell_length_a	16.120530
_cell_length_b	25.639240
_cell_length_c	25.639234
_cell_angle_alpha	89.973027
_cell_angle_beta	92.917284
_cell_angle_gamma	92.861579
loop_
_atom_site_label
_atom_site_type_symbol
_atom_site_fract_x
_atom_site_fract_y
_atom_site_fract_z
Zn1	Zn	1.274419	0.248768	0.336087
Zn2	Zn	1.774419	0.748768	0.836087
Zn3	Zn	1.274268	0.336192	0.248643
Zn4	Zn	1.774268	0.836192	0.748643
Zn5	Zn	1.135002	0.244337	0.244237
Zn6	Zn	1.635002	0.744337	0.744237
Zn7	Zn	1.134921	0.331732	0.331621
Zn8	Zn	1.634921	0.831732	0.831621
O9	O	1.204652	0.290257	0.290147
O10	O	1.704652	0.790257	0.790147
O11	O	1.391062	0.264086	0.328201
O12	O	1.891062	0.764086	0.828201
O13	O	1.255765	0.324019	0.174893
O14	O	1.755765	0.824019	0.674893
O15	O	1.153592	0.171763	0.256445
O16	O	1.653592	0.671763	0.756445
O17	O	1.390952	0.328316	0.263956
O18	O	1.890952	0.828316	0.763956
O19	O	1.256021	0.175018	0.323928
O20	O	1.756021	0.675018	0.823928
O21	O	1.153447	0.256534	0.171655
O22	O	1.653447	0.756534	0.671655
O23	O	1.018327	0.252209	0.252115
O24	O	1.518327	0.752209	0.752115
O25	O	1.153454	0.320715	0.405380
O26	O	1.653454	0.820715	0.905380
O27	O	1.018268	0.316418	0.316316
O28	O	1.518268	0.816418	0.816316
O29	O	1.255943	0.259762	0.408661
O30	O	1.755943	0.759762	0.908661
O31	O	1.255687	0.408762	0.259626
O32	O	1.755687	0.908762	0.759626
O33	O	1.153309	0.405486	0.320589
O34	O	1.653309	0.905486	0.820589
C35	C	0.988048	0.283349	0.283253
C36	C	1.488048	0.783349	0.783253
C37	C	0.895383	0.280406	0.280316
C38	C	1.395383	0.780406	0.780316
C39	C	0.725725	0.275022	0.274959
C40	C	1.225725	0.775022	0.774959
C41	C	0.684420	0.305531	0.305373
C42	C	1.184420	0.805531	0.805373
C43	C	0.590016	0.302535	0.302392
C44	C	1.090016	0.802535	0.802392
C45	C	0.820137	0.278017	0.277939
C46	C	1.320137	0.778017	0.777939
C47	C	1.204495	0.426095	0.290113
C48	C	1.704495	0.926095	0.790113
C49	C	1.204504	0.484209	0.290119
C50	C	1.704504	0.984209	0.790119
C51	C	1.258030	0.846273	0.258443
C52	C	1.758030	1.346273	0.758443
C53	C	1.258056	0.900878	0.258448
C54	C	1.758056	1.400878	0.758448
O55	O	1.303455	0.930557	0.231496
O56	O	1.803455	1.430557	0.731496
N57	N	1.204719	0.926498	0.290161
N58	N	1.704719	1.426498	0.790161
C59	C	1.151360	0.897511	0.321873
C60	C	1.651360	1.397511	0.821873
O61	O	1.105996	0.924318	0.348848
O62	O	1.605996	1.424318	0.848848
C63	C	1.151339	0.842907	0.321870
C64	C	1.651339	1.342907	0.821870
C65	C	1.204673	0.817289	0.290151
C66	C	1.704673	1.317289	0.790151
C67	C	1.311361	0.820655	0.226727
C68	C	1.811361	1.320655	0.726727
C69	C	1.311334	0.766053	0.226721
C70	C	1.811334	1.266053	0.726721
C71	C	1.257977	0.737070	0.258430
C72	C	1.757977	1.237070	0.758430
C73	C	1.204647	0.762688	0.290145
C74	C	1.704647	1.262688	0.790145
C75	C	1.097985	0.813921	0.353585
C76	C	1.597985	1.313921	0.853585
C77	C	1.097969	0.759314	0.353579
C78	C	1.597969	1.259314	0.853579
C79	C	1.151303	0.733696	0.321861
C80	C	1.651303	1.233696	0.821861
C81	C	1.151263	0.679103	0.321848
C82	C	1.651263	1.179103	0.821848
N83	N	1.204599	0.653483	0.290135
N84	N	1.704599	1.153483	0.790135
C85	C	1.257956	0.682466	0.258426
C86	C	1.757956	1.182466	0.758426
C87	C	1.151409	1.012183	0.321879
C88	C	1.651409	1.512183	0.821879
C89	C	1.151424	1.066786	0.321880
C90	C	1.651424	1.566786	0.821880
C91	C	1.258122	1.070149	0.258455
C92	C	1.758122	1.570149	0.758455
C93	C	1.258101	1.015545	0.258452
C94	C	1.758101	1.515545	0.758452
C95	C	1.204745	0.986563	0.290166
C96	C	1.704745	1.486563	0.790166
C97	C	1.257895	0.567799	0.258415
C98	C	1.757895	1.067799	0.758415
C99	C	1.257861	0.513192	0.258410
C100	C	1.757861	1.013192	0.758410
C101	C	1.151167	0.509835	0.321836
C102	C	1.651167	1.009835	0.821836
C103	C	1.151198	0.564436	0.321839
C104	C	1.651198	1.064436	0.821839
C105	C	1.204569	0.593417	0.290127
C106	C	1.704569	1.093417	0.790127
O107	O	1.105889	0.649390	0.348787
O108	O	1.605889	1.149390	0.848787
O109	O	1.303320	0.655653	0.231461
O110	O	1.803320	1.155653	0.731461
C111	C	1.422103	0.297193	0.297068
C112	C	1.922103	0.797193	0.797068
C113	C	1.514767	0.300148	0.300017
C114	C	2.014767	0.800148	0.800017
C115	C	1.204706	0.290235	0.426522
C116	C	1.704706	0.790235	0.926522
C117	C	1.204730	0.290226	0.484637
C118	C	1.704730	0.790226	0.984637
C119	C	1.204801	1.153889	0.290183
C120	C	1.704801	1.653889	0.790183
C121	C	1.204785	1.095774	0.290173
C122	C	1.704785	1.595774	0.790173
C123	C	1.204646	0.290243	0.154304
C124	C	1.704646	0.790243	0.654304
C125	C	1.204785	0.290110	0.096195
C126	C	1.704785	0.790110	0.596195
C127	C	1.151476	0.255025	0.843320
C128	C	1.651476	0.755025	1.343320
C129	C	1.151480	0.255015	0.897925
C130	C	1.651480	0.755015	1.397925
O131	O	1.106160	0.225142	0.924732
O132	O	1.606160	0.725142	1.424732
N133	N	1.204757	0.290145	0.926920
N134	N	1.704757	0.790145	1.426920
C135	C	1.258027	0.325289	0.901308
C136	C	1.758027	0.825289	1.401308
O137	O	1.303343	0.355169	0.930985
O138	O	1.803343	0.855169	1.430985
C139	C	1.258018	0.325301	0.846704
C140	C	1.758018	0.825301	1.346704
C141	C	1.204743	0.290165	0.817712
C142	C	1.704743	0.790165	1.317712
C143	C	1.098205	0.219893	0.814328
C144	C	1.598205	0.719893	1.314328
C145	C	1.098202	0.219902	0.759727
C146	C	1.598202	0.719902	1.259727
C147	C	1.151469	0.255042	0.734119
C148	C	1.651469	0.755042	1.234119
C149	C	1.204740	0.290174	0.763111
C150	C	1.704740	0.790174	1.263111
C151	C	1.311283	0.360447	0.821093
C152	C	1.811283	0.860447	1.321093
C153	C	1.311269	0.360456	0.766486
C154	C	1.811269	0.860456	1.266486
C155	C	1.257994	0.325321	0.737493
C156	C	1.757994	0.825321	1.237493
C157	C	1.258005	0.325324	0.682902
C158	C	1.758005	0.825324	1.182902
N159	N	1.204728	0.290194	0.653907
N160	N	1.704728	0.790194	1.153907
C161	C	1.151460	0.255054	0.679515
C162	C	1.651460	0.755054	1.179515
C163	C	1.258042	0.325263	1.015979
C164	C	1.758042	0.825263	1.515979
C165	C	1.258056	0.325250	1.070582
C166	C	1.758056	0.825250	1.570582
C167	C	1.151508	0.254976	1.067195
C168	C	1.651508	0.754976	1.567195
C169	C	1.151498	0.254988	1.012591
C170	C	1.651498	0.754988	1.512591
C171	C	1.204765	0.290134	0.986984
C172	C	1.704765	0.790134	1.486984
C173	C	1.151458	0.255075	0.564850
C174	C	1.651458	0.755075	1.064850
C175	C	1.151462	0.255085	0.510245
C176	C	1.651462	0.755085	1.010245
C177	C	1.258007	0.325360	0.513637
C178	C	1.758007	0.825360	1.013637
C179	C	1.258006	0.325348	0.568237
C180	C	1.758006	0.825348	1.068237
C181	C	1.204725	0.290203	0.593842
C182	C	1.704725	0.790203	1.093842
O183	O	1.303300	0.355183	0.656060
O184	O	1.803300	0.855183	1.156060
O185	O	1.106144	0.225184	0.649832
O186	O	1.606144	0.725184	1.149832
H187	H	0.690189	0.246654	0.246684
H188	H	1.190189	0.746654	0.746684
H189	H	1.301378	0.353969	0.492777
H190	H	1.801378	0.853969	0.992777
H191	H	1.108134	0.226363	1.088055
H192	H	1.608134	0.726363	1.588055
H193	H	0.719959	0.333901	0.333651
H194	H	1.219959	0.833901	0.833651
H195	H	1.301292	0.492336	0.232579
H196	H	1.801292	0.992336	0.732579
C197	C	1.092851	0.216410	0.593008
C198	C	1.592851	0.716410	1.093008
N199	N	1.048713	0.187286	0.614216
N200	N	1.548713	0.687286	1.114216
H201	H	1.054817	0.191293	0.736126
H202	H	1.554817	0.691293	1.236126
H203	H	1.301357	0.591389	0.232593
H204	H	1.801357	1.091389	0.732593
C205	C	1.316669	0.363897	1.102468
C206	C	1.816669	0.863897	1.602468
N207	N	1.360814	0.393010	1.126483
N208	N	1.860814	0.893010	1.626483
C209	C	1.092481	0.477943	0.356716
C210	C	1.592481	0.977943	0.856716
N211	N	1.048283	0.453920	0.382992
N212	N	1.548283	0.953920	0.882992
C213	C	1.092887	0.216340	0.980704
C214	C	1.592887	0.716340	1.480704
N215	N	1.048737	0.187230	0.956689
N216	N	1.548737	0.687230	1.456689
H217	H	1.054824	0.191276	0.835172
H218	H	1.554824	0.691276	1.335172
H219	H	1.054521	0.735719	0.379406
H220	H	1.554521	1.235719	0.879406
C221	C	1.369999	0.737881	0.191823
C222	C	1.869999	1.237881	0.691823
N223	N	1.414187	0.716664	0.165535
N224	N	1.914187	1.216664	0.665535
H225	H	1.354815	0.844247	0.200906
H226	H	1.854815	1.344247	0.700906
H227	H	1.301428	0.353880	0.995134
H228	H	1.801428	0.853880	1.495134
C229	C	1.316775	0.987371	0.223561
C230	C	1.816775	1.487371	0.723561
N231	N	1.360971	0.966152	0.197281
N232	N	1.860971	1.466152	0.697281
H233	H	1.301571	1.093757	0.232638
H234	H	1.801571	1.593757	0.732638
H235	H	1.107987	1.087639	0.347703
H236	H	1.607987	1.587639	0.847703
H237	H	1.108079	0.226471	0.486641
H238	H	1.608079	0.726471	0.986641
H239	H	1.354664	0.389058	0.844690
H240	H	1.854664	0.889058	1.344690
C241	C	1.092712	0.980308	0.356772
C242	C	1.592712	1.480308	0.856772
N243	N	1.048507	0.956302	0.383056
N244	N	1.548507	1.456302	0.883056
C245	C	1.039314	0.842089	0.388480
C246	C	1.539314	1.342089	0.888480
N247	N	0.995122	0.863304	0.414766
N248	N	1.495122	1.363304	0.914766
H249	H	1.107772	0.585295	0.347669
H250	H	1.607772	1.085295	0.847669
C251	C	1.316615	0.363995	0.600130
C252	C	1.816615	0.863995	1.100130
N253	N	1.360755	0.393109	0.624148
N254	N	1.860755	0.893109	1.124148
C255	C	1.369873	0.399117	0.738322
C256	C	1.869873	0.899117	1.238322
N257	N	1.414017	0.428235	0.717109
N258	N	1.914017	0.928235	1.217109
