data_functionalizedCrystal
_audit_creation_method	'MofGen! by Chris Wilmer'
_symmetry_space_group_name_H-M	'P1'
_symmetry_Int_Tables_number	1
_symmetry_cell_setting	triclinic
loop_
_symmetry_equiv_pos_as_xyz
  x,y,z
_cell_length_a	23.532407
_cell_length_b	10.654550
_cell_length_c	9.130313
_cell_angle_alpha	90.004369
_cell_angle_beta	89.999157
_cell_angle_gamma	96.333162
loop_
_atom_site_label
_atom_site_type_symbol
_atom_site_fract_x
_atom_site_fract_y
_atom_site_fract_z
O1	O	0.756252	-0.152439	-0.121707
O2	O	0.590532	-0.174496	-0.121730
O3	O	0.677202	0.019392	-0.121709
O4	O	0.669582	-0.346327	-0.121728
O5	O	0.677196	0.019398	0.121890
O6	O	0.590526	-0.174490	0.121869
O7	O	0.756246	-0.152434	0.121892
Cu8	Cu	0.673385	-0.163462	0.144123
Cu9	Cu	0.673393	-0.163468	-0.143961
O10	O	0.669576	-0.346322	0.121871
C11	C	0.569310	-0.173931	0.000067
C12	C	0.506081	-0.172243	0.000058
C13	C	0.239121	-0.050540	0.000104
C14	C	0.298532	-0.052108	0.000104
O15	O	0.334647	0.044437	0.000160
N16	N	0.321909	-0.167375	0.000088
C17	C	0.285872	-0.281080	0.000087
O18	O	0.311211	-0.379267	0.000075
C19	C	0.226463	-0.279510	0.000098
C20	C	0.203089	-0.164236	0.000099
C21	C	0.215747	0.064725	0.000107
C22	C	0.156340	0.066293	0.000105
C23	C	0.120308	-0.047403	0.000100
C24	C	0.143683	-0.162668	0.000097
C25	C	0.190427	-0.393214	0.000108
C26	C	0.131014	-0.391634	0.000120
C27	C	0.107641	-0.276360	0.000121
C28	C	0.048244	-0.274796	0.000090
N29	N	0.024867	-0.159530	0.000106
C30	C	0.060899	-0.045833	0.000111
C31	C	0.410636	-0.284368	0.000067
C32	C	0.470044	-0.285940	0.000045
C33	C	0.482700	-0.056967	0.000065
C34	C	0.423290	-0.055397	0.000076
C35	C	0.387259	-0.169102	0.000083
C36	C	-0.063859	-0.042549	0.000105
C37	C	-0.123271	-0.040991	0.000096
C38	C	-0.135922	-0.269962	0.000085
C39	C	-0.076515	-0.271521	0.000085
C40	C	-0.040484	-0.157804	0.000100
O41	O	0.012094	-0.371291	0.000040
O42	O	0.035551	0.052338	0.000142
C43	C	0.676640	0.066175	0.000090
C44	C	0.674966	0.205566	0.000088
C45	C	0.777469	-0.152998	0.000092
C46	C	0.840697	-0.154687	0.000091
C47	C	0.670138	-0.393105	0.000069
C48	C	0.671812	-0.532495	0.000062
N49	N	0.673385	-0.163456	0.346746
C50	C	0.725996	0.286668	0.000094
C51	C	0.724419	0.417639	0.000076
C52	C	0.620779	0.386392	0.000051
C53	C	0.622355	0.255424	0.000058
N54	N	0.673398	-0.163463	-0.346583
C55	C	0.711775	-0.077638	0.423407
C56	C	0.711781	-0.077638	0.576744
C57	C	0.635003	-0.249286	0.576745
C58	C	0.634995	-0.249279	0.423411
H59	H	0.768834	0.246078	0.000115
H60	H	0.743033	-0.007755	0.360990
N61	N	0.753193	0.014911	0.659430
H62	H	0.778591	-0.032812	0.723032
H63	H	0.731180	0.070252	0.722982
N64	N	-0.051304	-0.395852	0.000072
H65	H	-0.026941	-0.401606	0.090379
H66	H	-0.026963	-0.401536	-0.090285
N67	N	0.593605	-0.341864	0.659426
H68	H	0.553131	-0.327851	0.632763
H69	H	0.599484	-0.328809	0.768171
H70	H	-0.142299	0.052883	0.000094
N71	N	0.564036	0.440164	0.000046
H72	H	0.541658	0.410536	-0.090259
H73	H	0.570825	0.535431	0.000105
H74	H	0.603730	-0.319163	0.360989
H75	H	-0.034530	0.050051	0.000117
N76	N	0.567316	0.167928	0.000052
H77	H	0.544389	0.183878	-0.090255
H78	H	0.544428	0.183932	0.090409
N79	N	-0.174792	-0.392585	0.000090
H80	H	-0.150974	-0.465853	0.000088
H81	H	-0.199718	-0.396921	-0.090212
H82	H	0.245079	0.157316	0.000116
N83	N	0.131134	0.190624	0.000120
H84	H	0.162982	0.262402	0.000130
H85	H	0.106764	0.196265	0.090432
H86	H	0.404264	0.038469	0.000078
N87	N	0.521565	0.065673	0.000083
H88	H	0.546497	0.070125	-0.090218
H89	H	0.546458	0.070044	0.090446
N90	N	0.215620	-0.517555	0.000099
H91	H	0.202509	-0.567319	0.090403
H92	H	0.258720	-0.501225	0.000038
N93	N	0.495251	-0.410270	0.000006
H94	H	0.463405	-0.482051	-0.000003
H95	H	0.519625	-0.415921	0.090307
N96	N	0.092160	-0.514286	0.000151
H97	H	0.099732	-0.564622	-0.090145
H98	H	0.050990	-0.495720	0.000216
N99	N	0.371775	-0.407014	0.000123
H100	H	0.395604	-0.480265	0.000129
H101	H	0.346837	-0.411393	-0.090160
N102	N	0.779458	0.505115	0.000082
H103	H	0.813023	0.453652	0.000102
H104	H	0.781057	0.560146	0.090383
