data_functionalizedCrystal
_audit_creation_method	'MofGen! by Chris Wilmer'
_symmetry_space_group_name_H-M	'P1'
_symmetry_Int_Tables_number	1
_symmetry_cell_setting	triclinic
loop_
_symmetry_equiv_pos_as_xyz
  x,y,z
_cell_length_a	19.188905
_cell_length_b	19.188930
_cell_length_c	9.730223
_cell_angle_alpha	89.993564
_cell_angle_beta	89.992681
_cell_angle_gamma	83.139668
loop_
_atom_site_label
_atom_site_type_symbol
_atom_site_fract_x
_atom_site_fract_y
_atom_site_fract_z
O1	O	0.926152	0.087081	-0.114532
O2	O	0.722838	0.098834	-0.114487
O3	O	0.830362	-0.008699	-0.114484
O4	O	0.818628	0.194614	-0.114535
O5	O	0.830361	-0.008696	0.114096
O6	O	0.722837	0.098837	0.114093
O7	O	0.926151	0.087084	0.114048
Zn8	Zn	0.824494	0.092961	0.150363
Zn9	Zn	0.824495	0.092957	-0.150801
O10	O	0.818627	0.194617	0.114045
C11	C	0.696826	0.098458	-0.000191
C12	C	0.619321	0.097324	-0.000172
C13	C	0.582930	0.096778	-0.124775
C14	C	0.510106	0.095705	-0.124792
C15	C	0.473678	0.095164	-0.000199
C16	C	0.510078	0.095714	0.124420
C17	C	0.582899	0.096794	0.124433
N18	N	0.364657	0.053736	0.092534
N19	N	0.295480	0.052709	0.092513
C20	C	0.254272	0.091911	-0.000231
N21	N	0.284854	0.132171	-0.092974
N22	N	0.354038	0.133196	-0.092957
C23	C	0.394716	0.093993	-0.000199
C24	C	0.138917	0.090203	-0.124861
C25	C	0.066091	0.089134	-0.124872
C26	C	0.066065	0.089136	0.124343
C27	C	0.138888	0.090212	0.124351
C28	C	0.175310	0.090742	-0.000255
C29	C	0.829982	-0.034708	-0.000190
C30	C	0.828841	-0.112213	-0.000178
C31	C	0.891933	-0.157142	-0.000185
C32	C	0.890861	-0.229966	-0.000207
C33	C	0.826694	-0.257857	-0.000194
C34	C	0.763594	-0.212917	-0.000194
C35	C	0.764668	-0.140095	-0.000186
N36	N	0.777646	-0.365856	0.077607
N37	N	0.776630	-0.435035	0.077603
C38	C	0.823456	-0.477265	-0.000221
N39	N	0.871346	-0.447705	-0.078022
N40	N	0.872363	-0.378520	-0.078011
C41	C	0.825523	-0.336819	-0.000203
C42	C	0.885390	-0.601159	-0.000254
C43	C	0.884315	-0.673984	-0.000284
C44	C	0.757047	-0.656933	-0.000257
C45	C	0.758123	-0.584110	-0.000241
C46	C	0.822296	-0.556228	-0.000232
C47	C	0.952163	0.087460	-0.000251
C48	C	1.029668	0.088594	-0.000278
C49	C	0.819007	0.220626	-0.000252
C50	C	0.820148	0.298131	-0.000273
N51	N	0.824498	0.092963	0.355899
N52	N	0.824497	0.092950	-0.356338
C53	C	0.872121	0.045363	0.427827
C54	C	0.872119	0.045355	0.571709
C55	C	0.776868	0.140551	0.571725
C56	C	0.776867	0.140556	0.427845
C57	C	0.927116	-0.009596	0.427819
C58	C	0.927114	-0.009604	0.571702
H59	H	0.168519	0.090652	0.225816
O60	O	0.174255	0.090853	-0.245928
C61	C	0.188430	0.151646	-0.458958
C62	C	0.148368	0.151001	-0.321888
H63	H	0.167507	0.200262	-0.520422
H64	H	0.246731	0.152553	-0.437621
H65	H	0.180679	0.102563	-0.520349
H66	H	0.156062	0.200075	-0.260427
H67	H	0.090082	0.150057	-0.343321
O68	O	0.703313	-0.096546	-0.000110
C69	C	0.576969	-0.087320	-0.000175
C70	C	0.646401	-0.136720	-0.000232
H71	H	0.530937	-0.119780	-0.000302
H72	H	0.574241	-0.052823	0.095516
H73	H	0.574332	-0.052775	-0.095805
H74	H	0.649085	-0.171308	0.095333
H75	H	0.649100	-0.171168	-0.095986
H76	H	0.910746	-0.060122	0.616334
O77	O	0.730508	0.186713	0.641556
C78	C	0.608980	0.227954	0.685540
C79	C	0.661406	0.175625	0.606399
H80	H	0.553100	0.219017	0.657122
H81	H	0.617098	0.219773	0.800747
H82	H	0.617937	0.283850	0.657266
H83	H	0.652482	0.119708	0.634557
H84	H	0.653276	0.183867	0.491211
H85	H	0.612528	0.097239	0.225903
H86	H	0.980633	0.001724	0.610737
H87	H	0.738082	0.179309	0.369283
H88	H	0.915825	-0.063125	0.388782
H89	H	0.711349	-0.235631	-0.000186
O90	O	0.618357	0.097177	-0.245775
C91	C	0.708729	0.037948	-0.390340
C92	C	0.668649	0.037398	-0.253276
H93	H	0.749409	-0.010370	-0.396437
H94	H	0.670245	0.037331	-0.479459
H95	H	0.736238	0.087329	-0.396554
H96	H	0.641138	-0.011975	-0.246928
H97	H	0.707167	0.038052	-0.164222
H98	H	0.977614	0.006810	0.383176
H99	H	0.480470	0.095261	-0.226261
H100	H	0.480413	0.095275	0.225864
O101	O	0.030791	0.088644	0.245497
C102	C	0.038456	0.088719	0.492681
C103	C	0.078492	0.089290	0.355570
H104	H	0.077007	0.089227	0.581710
H105	H	-0.002167	0.137078	0.498988
H106	H	0.010888	0.039374	0.498842
H107	H	0.106103	0.138602	0.349316
H108	H	0.119075	0.040898	0.349321
O109	O	0.954330	-0.130174	-0.000247
C110	C	1.080446	-0.154774	-0.000175
C111	C	1.009832	-0.185410	-0.000136
H112	H	1.125339	-0.199417	-0.000056
H113	H	1.084184	-0.121125	-0.095855
H114	H	1.084090	-0.121090	0.095466
H115	H	1.006141	-0.219126	-0.095712
H116	H	1.006125	-0.219019	0.095607
O117	O	0.696853	-0.540434	-0.000462
C118	C	0.624224	-0.448283	-0.118817
C119	C	0.693634	-0.497717	-0.118746
H120	H	0.621605	-0.413724	-0.214424
H121	H	0.578150	-0.480690	-0.118899
H122	H	0.621552	-0.413804	-0.023108
H123	H	0.696374	-0.532207	-0.214438
H124	H	0.739675	-0.465268	-0.118592
O125	O	0.947741	-0.574100	-0.000511
C126	C	1.056855	-0.566406	-0.118929
C127	C	0.986262	-0.597082	-0.118819
H128	H	1.088025	-0.584987	-0.214556
H129	H	1.046824	-0.506637	-0.119003
H130	H	1.087998	-0.584924	-0.023240
H131	H	0.955082	-0.578618	-0.214492
H132	H	0.996342	-0.656848	-0.118674
O133	O	0.952132	-0.273650	-0.000448
C134	C	1.024762	-0.365792	-0.118818
C135	C	0.955357	-0.316351	-0.118737
H136	H	1.027386	-0.400339	-0.214430
H137	H	1.070840	-0.333391	-0.118901
H138	H	1.027421	-0.400284	-0.023114
H139	H	0.952630	-0.281849	-0.214425
H140	H	0.909311	-0.348794	-0.118583
H141	H	0.704801	-0.679641	-0.000253
O142	O	0.945589	-0.717658	-0.000540
C143	C	1.018225	-0.809783	-0.118948
C144	C	0.948814	-0.760350	-0.118842
H145	H	1.020849	-0.844322	-0.214570
H146	H	1.064298	-0.777375	-0.119028
H147	H	1.020893	-0.844282	-0.023253
H148	H	0.946078	-0.725841	-0.214520
H149	H	0.902774	-0.792800	-0.118690
H150	H	0.036462	0.088694	-0.226343
