data_functionalizedCrystal
_audit_creation_method	'MofGen! by Chris Wilmer'
_symmetry_space_group_name_H-M	'P1'
_symmetry_Int_Tables_number	1
_symmetry_cell_setting	triclinic
loop_
_symmetry_equiv_pos_as_xyz
  x,y,z
_cell_length_a	12.645330
_cell_length_b	16.625547
_cell_length_c	16.625539
_cell_angle_alpha	90.027058
_cell_angle_beta	89.975749
_cell_angle_gamma	89.983122
loop_
_atom_site_label
_atom_site_type_symbol
_atom_site_fract_x
_atom_site_fract_y
_atom_site_fract_z
Zn1	Zn	-0.422060	-1.232707	-0.456072
Zn2	Zn	-0.088727	-0.899374	-0.122738
Zn3	Zn	0.244606	-0.566041	0.210595
Zn4	Zn	-0.599346	-1.232622	-0.321248
Zn5	Zn	-0.266013	-0.899288	0.012085
Zn6	Zn	0.067320	-0.565955	0.345418
Zn7	Zn	-0.422095	-1.097869	-0.321237
Zn8	Zn	-0.088762	-0.764536	0.012096
Zn9	Zn	0.244572	-0.431202	0.345430
Zn10	Zn	-0.599280	-1.097851	-0.456023
Zn11	Zn	-0.265946	-0.764517	-0.122690
Zn12	Zn	0.067387	-0.431184	0.210644
O13	O	-0.510695	-1.165262	-0.388645
O14	O	-0.177362	-0.831929	-0.055312
O15	O	0.155971	-0.498596	0.278022
O16	O	-0.445591	-1.345528	-0.438212
O17	O	-0.112258	-1.012195	-0.104879
O18	O	0.221075	-0.678862	0.228454
O19	O	-0.575876	-1.214718	-0.208414
O20	O	-0.242543	-0.881385	0.124919
O21	O	0.090791	-0.548052	0.458252
O22	O	-0.273743	-1.115799	-0.339139
O23	O	0.059590	-0.782466	-0.005805
O24	O	0.392924	-0.449132	0.327528
O25	O	-0.575842	-1.345465	-0.339158
O26	O	-0.242509	-1.012132	-0.005825
O27	O	0.090824	-0.678799	0.327508
O28	O	-0.273718	-1.214864	-0.438201
O29	O	0.059616	-0.881531	-0.104868
O30	O	0.392949	-0.548198	0.228466
O31	O	-0.445650	-1.115716	-0.208406
O32	O	-0.112317	-0.782383	0.124927
O33	O	0.221017	-0.449050	0.458261
O34	O	-0.445585	-0.985034	-0.339091
O35	O	-0.112252	-0.651701	-0.005758
O36	O	0.221081	-0.318368	0.327575
O37	O	-0.575729	-1.115768	-0.568862
O38	O	-0.242396	-0.782435	-0.235529
O39	O	0.090938	-0.449101	0.097805
O40	O	-0.575762	-0.985021	-0.438118
O41	O	-0.242429	-0.651687	-0.104785
O42	O	0.090904	-0.318354	0.228548
O43	O	-0.445527	-1.214846	-0.568898
O44	O	-0.112193	-0.881513	-0.235564
O45	O	0.221140	-0.548180	0.097769
O46	O	-0.747685	-1.214701	-0.339111
O47	O	-0.414352	-0.881367	-0.005778
O48	O	-0.081018	-0.548034	0.327556
O49	O	-0.747636	-1.115685	-0.438129
O50	O	-0.414303	-0.782352	-0.104796
O51	O	-0.080969	-0.449018	0.228537
C52	C	-0.510671	-0.955771	-0.388599
C53	C	-0.177338	-0.622438	-0.055265
C54	C	0.155995	-0.289105	0.278068
C55	C	-0.510686	-0.866150	-0.388598
C56	C	-0.177353	-0.532817	-0.055265
C57	C	0.155980	-0.199484	0.278069
C58	C	-0.510687	-0.793368	-0.388605
C59	C	-0.177354	-0.460034	-0.055272
C60	C	0.155980	-0.126701	0.278061
C61	C	-0.510691	-0.702059	-0.388622
C62	C	-0.177358	-0.368726	-0.055289
C63	C	0.155975	-0.035393	0.278045
C64	C	-0.510700	-0.629283	-0.388639
C65	C	-0.177366	-0.295950	-0.055306
C66	C	0.155967	0.037384	0.278027
C67	C	-0.510705	-0.537969	-0.388655
C68	C	-0.177372	-0.204635	-0.055322
C69	C	0.155961	0.128698	0.278011
C70	C	-0.786125	-1.165203	-0.388634
C71	C	-0.452792	-0.831870	-0.055300
C72	C	-0.119458	-0.498537	0.278033
C73	C	-0.903955	-1.165252	-0.388656
C74	C	-0.570622	-0.831919	-0.055323
C75	C	-0.237288	-0.498585	0.278011
C76	C	-1.071532	-1.103218	-0.451140
C77	C	-0.738199	-0.769885	-0.117807
C78	C	-0.404866	-0.436551	0.215526
C79	C	-0.948973	-1.102901	-0.450940
C80	C	-0.615640	-0.769567	-0.117606
C81	C	-0.282306	-0.436234	0.215727
C82	C	-0.948548	-1.142250	-0.303678
C83	C	-0.615214	-0.808917	0.029655
C84	C	-0.281881	-0.475584	0.362989
C85	C	-1.071146	-1.141872	-0.304057
C86	C	-0.737813	-0.808538	0.029276
C87	C	-0.404479	-0.475205	0.362609
C88	C	-1.071046	-1.250667	-0.410460
C89	C	-0.737713	-0.917334	-0.077127
C90	C	-0.404380	-0.584000	0.256207
C91	C	-0.948439	-1.250144	-0.412318
C92	C	-0.615106	-0.916810	-0.078985
C93	C	-0.281773	-0.583477	0.254349
C94	C	-0.234190	-1.165343	-0.388674
C95	C	0.099143	-0.832010	-0.055341
C96	C	0.432477	-0.498677	0.277993
C97	C	-0.116360	-1.165378	-0.388686
C98	C	0.216973	-0.832044	-0.055353
C99	C	0.550307	-0.498711	0.277980
C100	C	-0.510616	-1.165315	-0.598954
C101	C	-0.177283	-0.831981	-0.265621
C102	C	0.156050	-0.498648	0.067713
C103	C	-0.510583	-1.165337	-0.688575
C104	C	-0.177249	-0.832004	-0.355242
C105	C	0.156084	-0.498670	-0.021909
C106	C	-0.510716	-0.375571	-0.388682
C107	C	-0.177383	-0.042238	-0.055349
C108	C	0.155951	0.291096	0.277985
C109	C	-0.510714	-0.465192	-0.388673
C110	C	-0.177381	-0.131859	-0.055340
C111	C	0.155953	0.201474	0.277994
C112	C	-0.510464	-1.165374	-1.016751
C113	C	-0.177131	-0.832041	-0.683418
C114	C	0.156203	-0.498707	-0.350084
C115	C	-0.510500	-1.165362	-0.925443
C116	C	-0.177167	-0.832028	-0.592109
C117	C	0.156166	-0.498695	-0.258776
C118	C	-0.510524	-1.165356	-0.852666
C119	C	-0.177191	-0.832023	-0.519333
C120	C	0.156142	-0.498689	-0.185999
C121	C	-0.510559	-1.165343	-0.761352
C122	C	-0.177226	-0.832009	-0.428018
C123	C	0.156108	-0.498676	-0.094685
C124	C	-0.510698	-1.165256	-0.179154
C125	C	-0.177364	-0.831923	0.154179
C126	C	0.155969	-0.498590	0.487512
C127	C	-0.510433	-1.165390	-0.089534
C128	C	-0.177099	-0.832057	0.243800
C129	C	0.156234	-0.498724	0.577133
H130	H	-0.918820	-1.117292	-0.513950
H131	H	-0.585487	-0.783958	-0.180616
H132	H	-0.252153	-0.450625	0.152717
H133	H	-0.919737	-1.039671	-0.436513
H134	H	-0.586404	-0.706338	-0.103180
H135	H	-0.253070	-0.373005	0.230153
H136	H	-1.100803	-1.185182	-0.255937
H137	H	-0.767470	-0.851848	0.077397
H138	H	-0.434137	-0.518515	0.410730
H139	H	-1.099836	-1.079525	-0.285613
H140	H	-0.766503	-0.746191	0.047720
H141	H	-0.433169	-0.412858	0.381053
C142	C	-1.110204	-1.313233	-0.349018
C143	C	-0.776871	-0.979900	-0.015684
C144	C	-0.443538	-0.646567	0.317649
H145	H	-1.082556	-1.364646	-0.362486
H146	H	-0.749223	-1.031313	-0.029152
H147	H	-0.415890	-0.697979	0.304181
H148	H	-1.185272	-1.315154	-0.349929
H149	H	-0.851939	-0.981821	-0.016596
H150	H	-0.518605	-0.648487	0.316737
H151	H	-1.086925	-1.298499	-0.296727
H152	H	-0.753592	-0.965165	0.036606
H153	H	-0.420259	-0.631832	0.369939
H154	H	-0.919389	-1.186089	-0.255873
H155	H	-0.586056	-0.852756	0.077460
H156	H	-0.252723	-0.519422	0.410794
H157	H	-0.917935	-1.080553	-0.284901
H158	H	-0.584602	-0.747220	0.048433
H159	H	-0.251268	-0.413887	0.381766
C160	C	-1.112704	-1.279017	-0.492748
C161	C	-0.779371	-0.945684	-0.159415
C162	C	-0.446038	-0.612351	0.173919
H163	H	-1.084414	-1.330592	-0.504740
H164	H	-0.751081	-0.997259	-0.171407
H165	H	-0.417747	-0.663926	0.161927
H166	H	-1.091714	-1.241888	-0.533120
H167	H	-0.758381	-0.908554	-0.199787
H168	H	-0.425048	-0.575221	0.133547
H169	H	-1.187694	-1.282070	-0.491145
H170	H	-0.854361	-0.948737	-0.157812
H171	H	-0.521027	-0.615403	0.175521
C172	C	-1.111396	-1.122401	-0.536524
C173	C	-0.778062	-0.789068	-0.203191
C174	C	-0.444729	-0.455735	0.130143
H175	H	-1.155726	-1.168496	-0.534854
H176	H	-0.822393	-0.835163	-0.201521
H177	H	-0.489059	-0.501830	0.131813
H178	H	-1.052774	-1.132658	-0.570777
H179	H	-0.719441	-0.799325	-0.237444
H180	H	-0.386107	-0.465991	0.095890
H181	H	-1.150344	-1.077864	-0.556608
H182	H	-0.817011	-0.744530	-0.223274
H183	H	-0.483677	-0.411197	0.110059
C184	C	-0.909049	-1.273588	-0.496796
C185	C	-0.575716	-0.940255	-0.163462
C186	C	-0.242382	-0.606922	0.169871
H187	H	-0.865669	-1.231823	-0.517563
H188	H	-0.532335	-0.898490	-0.184230
H189	H	-0.199002	-0.565156	0.149103
H190	H	-0.967928	-1.281465	-0.531376
H191	H	-0.634595	-0.948131	-0.198042
H192	H	-0.301261	-0.614798	0.135291
H193	H	-0.869222	-1.321937	-0.493559
H194	H	-0.535889	-0.988604	-0.160226
H195	H	-0.202556	-0.655271	0.173108
C196	C	-0.907057	-1.316002	-0.355336
C197	C	-0.573723	-0.982669	-0.022002
C198	C	-0.240390	-0.649336	0.311331
H199	H	-0.861911	-1.292482	-0.316191
H200	H	-0.528577	-0.959149	0.017143
H201	H	-0.195244	-0.625816	0.350476
H202	H	-0.868692	-1.354882	-0.385403
H203	H	-0.535359	-1.021549	-0.052069
H204	H	-0.202025	-0.688215	0.281264
H205	H	-0.965050	-1.341263	-0.329238
H206	H	-0.631717	-1.007929	0.004095
H207	H	-0.298383	-0.674596	0.337429
C208	C	-1.113260	-1.018332	-0.431901
C209	C	-0.779927	-0.684999	-0.098567
C210	C	-0.446594	-0.351665	0.234766
H211	H	-1.157879	-1.020608	-0.385970
H212	H	-0.824546	-0.687275	-0.052637
H213	H	-0.491213	-0.353941	0.280696
H214	H	-1.152258	-0.998531	-0.476522
H215	H	-0.818925	-0.665198	-0.143189
H216	H	-0.485591	-0.331864	0.190144
H217	H	-1.055378	-0.983489	-0.421321
H218	H	-0.722045	-0.650156	-0.087988
H219	H	-0.388711	-0.316822	0.245346
