data_functionalizedCrystal
_audit_creation_method	'MofGen! by Chris Wilmer'
_symmetry_space_group_name_H-M	'P1'
_symmetry_Int_Tables_number	1
_symmetry_cell_setting	triclinic
loop_
_symmetry_equiv_pos_as_xyz
  x,y,z
_cell_length_a	23.532355
_cell_length_b	23.532407
_cell_length_c	22.610064
_cell_angle_alpha	90.000603
_cell_angle_beta	89.997644
_cell_angle_gamma	97.161912
loop_
_atom_site_label
_atom_site_type_symbol
_atom_site_fract_x
_atom_site_fract_y
_atom_site_fract_z
O1	O	0.755283	-0.068986	-0.049110
O2	O	1.005283	0.181014	0.200890
O3	O	1.255283	0.431014	0.450890
O4	O	1.505283	0.681014	0.700890
O5	O	0.589415	-0.079020	-0.049130
O6	O	0.839415	0.170980	0.200870
O7	O	1.089415	0.420980	0.450870
O8	O	1.339415	0.670980	0.700870
O9	O	0.677351	0.008929	-0.049108
O10	O	0.927351	0.258929	0.200892
O11	O	1.177351	0.508929	0.450892
O12	O	1.427351	0.758929	0.700892
O13	O	0.667347	-0.156936	-0.049131
O14	O	0.917347	0.093064	0.200869
O15	O	1.167347	0.343064	0.450869
O16	O	1.417347	0.593064	0.700869
O17	O	0.677335	0.008916	0.049261
O18	O	0.927335	0.258916	0.299261
O19	O	1.177335	0.508916	0.549261
O20	O	1.427335	0.758916	0.799261
O21	O	0.589400	-0.079033	0.049239
O22	O	0.839400	0.170967	0.299239
O23	O	1.089400	0.420967	0.549239
O24	O	1.339400	0.670967	0.799239
O25	O	0.755267	-0.068999	0.049259
O26	O	1.005267	0.181001	0.299259
O27	O	1.255267	0.431001	0.549259
O28	O	1.505267	0.681001	0.799259
Zn29	Zn	0.672331	-0.074018	0.064868
Zn30	Zn	0.922331	0.175982	0.314868
Zn31	Zn	1.172331	0.425982	0.564868
Zn32	Zn	1.422331	0.675982	0.814868
Zn33	Zn	0.672351	-0.074001	-0.064738
Zn34	Zn	0.922351	0.175999	0.185262
Zn35	Zn	1.172351	0.425999	0.435262
Zn36	Zn	1.422351	0.675999	0.685262
O37	O	0.667332	-0.156949	0.049238
O38	O	0.917332	0.093051	0.299238
O39	O	1.167332	0.343051	0.549238
O40	O	1.417332	0.593051	0.799238
C41	C	0.568191	-0.078776	0.000052
C42	C	0.818191	0.171224	0.250052
C43	C	1.068191	0.421224	0.500052
C44	C	1.318191	0.671224	0.750052
C45	C	0.504972	-0.078022	0.000045
C46	C	0.754972	0.171978	0.250045
C47	C	1.004972	0.421978	0.500045
C48	C	1.254972	0.671978	0.750045
C49	C	0.112950	-0.073291	0.053692
C50	C	0.362950	0.176709	0.303692
C51	C	0.612950	0.426709	0.553692
C52	C	0.862950	0.676709	0.803692
C53	C	0.053550	-0.072573	0.053694
C54	C	0.303550	0.177427	0.303694
C55	C	0.553550	0.427427	0.553694
C56	C	0.803550	0.677427	0.803694
O57	O	0.022825	-0.072189	0.099296
O58	O	0.272825	0.177811	0.349296
O59	O	0.522825	0.427811	0.599296
O60	O	0.772825	0.677811	0.849296
N61	N	0.023850	-0.072211	0.000074
N62	N	0.273850	0.177789	0.250074
N63	N	0.523850	0.427789	0.500074
N64	N	0.773850	0.677789	0.750074
C65	C	0.053554	-0.072560	-0.053553
C66	C	0.303554	0.177440	0.196447
C67	C	0.553554	0.427440	0.446447
C68	C	0.803554	0.677440	0.696447
O69	O	0.022837	-0.072185	-0.099162
O70	O	0.272837	0.177815	0.150838
O71	O	0.522837	0.427815	0.400838
O72	O	0.772837	0.677815	0.650838
C73	C	0.112953	-0.073273	-0.053555
C74	C	0.362953	0.176727	0.196445
C75	C	0.612953	0.426727	0.446445
C76	C	0.862953	0.676727	0.696445
C77	C	0.142649	-0.073641	0.000069
C78	C	0.392649	0.176359	0.250069
C79	C	0.642649	0.426359	0.500069
C80	C	0.892649	0.676359	0.750069
C81	C	0.142646	-0.073659	0.107312
C82	C	0.392646	0.176341	0.357312
C83	C	0.642646	0.426341	0.607312
C84	C	0.892646	0.676341	0.857312
C85	C	0.202041	-0.074377	0.107309
C86	C	0.452041	0.175623	0.357309
C87	C	0.702041	0.425623	0.607309
C88	C	0.952041	0.675623	0.857309
C89	C	0.231740	-0.074728	0.053687
C90	C	0.481740	0.175272	0.303687
C91	C	0.731740	0.425272	0.553687
C92	C	0.981740	0.675272	0.803687
C93	C	0.202044	-0.074360	0.000067
C94	C	0.452044	0.175640	0.250067
C95	C	0.702044	0.425640	0.500067
C96	C	0.952044	0.675640	0.750067
C97	C	0.142655	-0.073618	-0.107181
C98	C	0.392655	0.176382	0.142819
C99	C	0.642655	0.426382	0.392819
C100	C	0.892655	0.676382	0.642819
C101	C	0.202058	-0.074331	-0.107178
C102	C	0.452058	0.175669	0.142822
C103	C	0.702058	0.425669	0.392822
C104	C	0.952058	0.675669	0.642822
C105	C	0.231754	-0.074699	-0.053554
C106	C	0.481754	0.175301	0.196446
C107	C	0.731754	0.425301	0.446446
C108	C	0.981754	0.675301	0.696446
C109	C	0.291138	-0.075429	-0.053558
C110	C	0.541138	0.174571	0.196442
C111	C	0.791138	0.424571	0.446442
C112	C	1.041138	0.674571	0.696442
N113	N	0.320838	-0.075792	0.000062
N114	N	0.570838	0.174208	0.250062
N115	N	0.820838	0.424208	0.500062
N116	N	1.070838	0.674208	0.750062
C117	C	0.291139	-0.075441	0.053685
C118	C	0.541139	0.174559	0.303685
C119	C	0.791139	0.424559	0.553685
C120	C	1.041139	0.674559	0.803685
C121	C	-0.071188	-0.071061	-0.053545
C122	C	0.178812	0.178939	0.196455
C123	C	0.428812	0.428939	0.446455
C124	C	0.678812	0.678939	0.696455
C125	C	-0.130586	-0.070351	-0.053544
C126	C	0.119414	0.179649	0.196456
C127	C	0.369414	0.429649	0.446456
C128	C	0.619414	0.679649	0.696456
C129	C	-0.130585	-0.070364	0.053703
C130	C	0.119415	0.179636	0.303703
C131	C	0.369415	0.429636	0.553703
C132	C	0.619415	0.679636	0.803703
C133	C	-0.071186	-0.071077	0.053702
C134	C	0.178814	0.178923	0.303702
C135	C	0.428814	0.428923	0.553702
C136	C	0.678814	0.678923	0.803702
C137	C	-0.041488	-0.071423	0.000075
C138	C	0.208512	0.178577	0.250075
C139	C	0.458512	0.428577	0.500075
C140	C	0.708512	0.678577	0.750075
C141	C	0.415873	-0.076951	0.053675
C142	C	0.665873	0.173049	0.303675
C143	C	0.915873	0.423049	0.553675
C144	C	1.165873	0.673049	0.803675
C145	C	0.475273	-0.077671	0.053668
C146	C	0.725273	0.172329	0.303668
C147	C	0.975273	0.422329	0.553668
C148	C	1.225273	0.672329	0.803668
C149	C	0.475267	-0.077656	-0.053579
C150	C	0.725267	0.172344	0.196421
C151	C	0.975267	0.422344	0.446421
C152	C	1.225267	0.672344	0.696421
C153	C	0.415872	-0.076938	-0.053572
C154	C	0.665872	0.173062	0.196428
C155	C	0.915872	0.423062	0.446428
C156	C	1.165872	0.673062	0.696428
C157	C	0.386177	-0.076583	0.000060
C158	C	0.636177	0.173417	0.250060
C159	C	0.886177	0.423417	0.500060
C160	C	1.136177	0.673417	0.750060
O161	O	0.321902	-0.075812	-0.099137
O162	O	0.571902	0.174188	0.150863
O163	O	0.821902	0.424188	0.400863
O164	O	1.071902	0.674188	0.650863
O165	O	0.321864	-0.075809	0.099286
O166	O	0.571864	0.174191	0.349286
O167	O	0.821864	0.424191	0.599286
O168	O	1.071864	0.674191	0.849286
C169	C	0.677088	0.030139	0.000078
C170	C	0.927088	0.280139	0.250078
C171	C	1.177088	0.530139	0.500078
C172	C	1.427088	0.780139	0.750078
C173	C	0.676322	0.093356	0.000082
C174	C	0.926322	0.343356	0.250082
C175	C	1.176322	0.593356	0.500082
C176	C	1.426322	0.843356	0.750082
C177	C	0.776491	-0.069244	0.000076
C178	C	1.026491	0.180756	0.250076
C179	C	1.276491	0.430756	0.500076
C180	C	1.526491	0.680756	0.750076
C181	C	0.839710	-0.069998	0.000079
C182	C	1.089710	0.180002	0.250079
C183	C	1.339710	0.430002	0.500079
C184	C	1.589710	0.680002	0.750079
C185	C	0.667594	-0.178158	0.000050
C186	C	0.917594	0.071842	0.250050
C187	C	1.167594	0.321842	0.500050
C188	C	1.417594	0.571842	0.750050
C189	C	0.668360	-0.241375	0.000042
C190	C	0.918360	0.008625	0.250042
C191	C	1.168360	0.258625	0.500042
C192	C	1.418360	0.508625	0.750042
N193	N	0.672321	-0.074029	0.153320
N194	N	0.922321	0.175971	0.403320
N195	N	1.172321	0.425971	0.653320
N196	N	1.422321	0.675971	0.903320
C197	C	0.723557	0.492468	0.000055
C198	C	0.973557	0.742468	0.250055
C199	C	1.223557	0.992468	0.500055
C200	C	1.473557	1.242468	0.750055
C201	C	0.722845	0.551868	0.000051
C202	C	0.972845	0.801868	0.250051
C203	C	1.222845	1.051868	0.500051
C204	C	1.472845	1.301868	0.750051
O205	O	0.766632	0.588620	0.000034
O206	O	1.016632	0.838620	0.250034
O207	O	1.266632	1.088620	0.500034
O208	O	1.516632	1.338620	0.750034
N209	N	0.670568	0.574484	0.000045
N210	N	0.920568	0.824484	0.250045
N211	N	1.170568	1.074484	0.500045
N212	N	1.420568	1.324484	0.750045
C213	C	0.618998	0.537697	0.000038
C214	C	0.868998	0.787697	0.250038
C215	C	1.118998	1.037697	0.500038
C216	C	1.368998	1.287697	0.750038
O217	O	0.574467	0.562388	0.000032
O218	O	0.824467	0.812388	0.250032
O219	O	1.074467	1.062388	0.500032
O220	O	1.324467	1.312388	0.750032
C221	C	0.619710	0.478298	0.000038
C222	C	0.869710	0.728298	0.250038
C223	C	1.119710	0.978298	0.500038
C224	C	1.369710	1.228298	0.750038
C225	C	0.671991	0.455685	0.000050
C226	C	0.921991	0.705685	0.250050
C227	C	1.171991	0.955685	0.500050
C228	C	1.421991	1.205685	0.750050
C229	C	0.775834	0.469854	0.000066
C230	C	1.025834	0.719854	0.250066
C231	C	1.275834	0.969854	0.500066
C232	C	1.525834	1.219854	0.750066
C233	C	0.776545	0.410458	0.000072
C234	C	1.026545	0.660458	0.250072
C235	C	1.276545	0.910458	0.500072
C236	C	1.526545	1.160458	0.750072
C237	C	0.724979	0.373676	0.000067
C238	C	0.974979	0.623676	0.250067
C239	C	1.224979	0.873676	0.500067
C240	C	1.474979	1.123676	0.750067
C241	C	0.672703	0.396289	0.000055
C242	C	0.922703	0.646289	0.250055
C243	C	1.172703	0.896289	0.500055
C244	C	1.422703	1.146289	0.750055
C245	C	0.568141	0.441512	0.000027
C246	C	0.818141	0.691512	0.250027
C247	C	1.068141	0.941512	0.500027
C248	C	1.318141	1.191512	0.750027
C249	C	0.568858	0.382110	0.000026
C250	C	0.818858	0.632110	0.250026
C251	C	1.068858	0.882110	0.500026
C252	C	1.318858	1.132110	0.750026
C253	C	0.621139	0.359497	0.000038
C254	C	0.871139	0.609497	0.250038
C255	C	1.121139	0.859497	0.500038
C256	C	1.371139	1.109497	0.750038
C257	C	0.621848	0.300110	0.000056
C258	C	0.871848	0.550110	0.250056
C259	C	1.121848	0.800110	0.500056
C260	C	1.371848	1.050110	0.750056
N261	N	0.674126	0.277494	0.000061
N262	N	0.924126	0.527494	0.250061
N263	N	1.174126	0.777494	0.500061
N264	N	1.424126	1.027494	0.750061
C265	C	0.725691	0.314277	0.000067
C266	C	0.975691	0.564277	0.250067
C267	C	1.225691	0.814277	0.500067
C268	C	1.475691	1.064277	0.750067
C269	C	0.617507	0.662439	0.000036
C270	C	0.867507	0.912439	0.250036
C271	C	1.117507	1.162439	0.500036
C272	C	1.367507	1.412439	0.750036
C273	C	0.616794	0.721837	0.000040
C274	C	0.866794	0.971837	0.250040
C275	C	1.116794	1.221837	0.500040
C276	C	1.366794	1.471837	0.750040
C277	C	0.720642	0.736004	0.000052
C278	C	0.970642	0.986004	0.250052
C279	C	1.220642	1.236004	0.500052
C280	C	1.470642	1.486004	0.750052
C281	C	0.721354	0.676605	0.000052
C282	C	0.971354	0.926605	0.250052
C283	C	1.221354	1.176605	0.500052
C284	C	1.471354	1.426605	0.750052
C285	C	0.669784	0.639823	0.000042
C286	C	0.919784	0.889823	0.250042
C287	C	1.169784	1.139823	0.500042
C288	C	1.419784	1.389823	0.750042
C289	C	0.727181	0.189540	0.000079
C290	C	0.977181	0.439540	0.250079
C291	C	1.227181	0.689540	0.500079
C292	C	1.477181	0.939540	0.750079
C293	C	0.727888	0.130138	0.000087
C294	C	0.977888	0.380138	0.250087
C295	C	1.227888	0.630138	0.500087
C296	C	1.477888	0.880138	0.750087
C297	C	0.624041	0.115977	0.000072
C298	C	0.874041	0.365977	0.250072
C299	C	1.124041	0.615977	0.500072
C300	C	1.374041	0.865977	0.750072
C301	C	0.623334	0.175373	0.000067
C302	C	0.873334	0.425373	0.250067
C303	C	1.123334	0.675373	0.500067
C304	C	1.373334	0.925373	0.750067
C305	C	0.674909	0.212154	0.000069
C306	C	0.924909	0.462154	0.250069
C307	C	1.174909	0.712154	0.500069
C308	C	1.424909	0.962154	0.750069
O309	O	0.578084	0.263323	0.000070
O310	O	0.828084	0.513323	0.250070
O311	O	1.078084	0.763323	0.500070
O312	O	1.328084	1.013323	0.750070
O313	O	0.770216	0.289577	0.000065
O314	O	1.020216	0.539577	0.250065
O315	O	1.270216	0.789577	0.500065
O316	O	1.520216	1.039577	0.750065
N317	N	0.672366	-0.073986	-0.153191
N318	N	0.922366	0.176014	0.096809
N319	N	1.172366	0.426014	0.346809
N320	N	1.422366	0.676014	0.596809
C321	C	0.711291	-0.035063	0.561971
C322	C	0.961291	0.214937	0.811971
C323	C	1.211291	0.464937	1.061971
C324	C	1.461291	0.714937	1.311971
C325	C	0.711294	-0.035059	0.623891
C326	C	0.961294	0.214941	0.873891
C327	C	1.211294	0.464941	1.123891
C328	C	1.461294	0.714941	1.373891
O329	O	0.744403	-0.001937	0.655917
O330	O	0.994403	0.248063	0.905917
O331	O	1.244403	0.498063	1.155917
O332	O	1.494403	0.748063	1.405917
N333	N	0.672351	-0.073990	0.654857
N334	N	0.922351	0.176010	0.904857
N335	N	1.172351	0.426010	1.154857
N336	N	1.422351	0.676010	1.404857
C337	C	0.633399	-0.112923	0.623900
C338	C	0.883399	0.137077	0.873900
C339	C	1.133399	0.387077	1.123900
C340	C	1.383399	0.637077	1.373900
O341	O	0.600275	-0.146036	0.655926
O342	O	0.850275	0.103964	0.905926
O343	O	1.100275	0.353964	1.155926
O344	O	1.350275	0.603964	1.405926
C345	C	0.633394	-0.112924	0.561982
C346	C	0.883394	0.137076	0.811982
C347	C	1.133394	0.387076	1.061982
C348	C	1.383394	0.637076	1.311982
C349	C	0.672343	-0.073995	0.531018
C350	C	0.922343	0.176005	0.781018
C351	C	1.172343	0.426005	1.031018
C352	C	1.422343	0.676005	1.281018
C353	C	0.750237	0.003863	0.531007
C354	C	1.000237	0.253863	0.781007
C355	C	1.250237	0.503863	1.031007
C356	C	1.500237	0.753863	1.281007
C357	C	0.750234	0.003858	0.469092
C358	C	1.000234	0.253858	0.719092
C359	C	1.250234	0.503858	0.969092
C360	C	1.500234	0.753858	1.219092
C361	C	0.711286	-0.035073	0.438139
C362	C	0.961286	0.214927	0.688139
C363	C	1.211286	0.464927	0.938139
C364	C	1.461286	0.714927	1.188139
C365	C	0.672340	-0.074000	0.469103
C366	C	0.922340	0.176000	0.719103
C367	C	1.172340	0.426000	0.969103
C368	C	1.422340	0.676000	1.219103
C369	C	0.594439	-0.151854	0.531026
C370	C	0.844439	0.098146	0.781026
C371	C	1.094439	0.348146	1.031026
C372	C	1.344439	0.598146	1.281026
C373	C	0.594437	-0.151851	0.469103
C374	C	0.844437	0.098149	0.719103
C375	C	1.094437	0.348149	0.969103
C376	C	1.344437	0.598149	1.219103
C377	C	0.633386	-0.112922	0.438140
C378	C	0.883386	0.137078	0.688140
C379	C	1.133386	0.387078	0.938140
C380	C	1.383386	0.637078	1.188140
C381	C	0.633390	-0.112936	0.376235
C382	C	0.883390	0.137064	0.626235
C383	C	1.133390	0.387064	0.876235
C384	C	1.383390	0.637064	1.126235
N385	N	0.672333	-0.074006	0.345268
N386	N	0.922333	0.175994	0.595268
N387	N	1.172333	0.425994	0.845268
N388	N	1.422333	0.675994	1.095268
C389	C	0.711281	-0.035074	0.376221
C390	C	0.961281	0.214926	0.626221
C391	C	1.211281	0.464926	0.876221
C392	C	1.461281	0.714926	1.126221
C393	C	0.633412	-0.112917	0.753934
C394	C	0.883412	0.137083	1.003934
C395	C	1.133412	0.387083	1.253934
C396	C	1.383412	0.637083	1.503934
C397	C	0.633419	-0.112919	0.815852
C398	C	0.883419	0.137081	1.065852
C399	C	1.133419	0.387081	1.315852
C400	C	1.383419	0.637081	1.565852
C401	C	0.711314	-0.035055	0.815838
C402	C	0.961314	0.214945	1.065838
C403	C	1.211314	0.464945	1.315838
C404	C	1.461314	0.714945	1.565838
C405	C	0.711309	-0.035056	0.753919
C406	C	0.961309	0.214944	1.003919
C407	C	1.211309	0.464944	1.253919
C408	C	1.461309	0.714944	1.503919
C409	C	0.672355	-0.073987	0.722968
C410	C	0.922355	0.176013	0.972968
C411	C	1.172355	0.426013	1.222968
C412	C	1.422355	0.676013	1.472968
C413	C	0.711273	-0.035088	0.246193
C414	C	0.961273	0.214912	0.496193
C415	C	1.211273	0.464912	0.746193
C416	C	1.461273	0.714912	0.996193
C417	C	0.711269	-0.035098	0.184272
C418	C	0.961269	0.214902	0.434272
C419	C	1.211269	0.464902	0.684272
C420	C	1.461269	0.714902	0.934272
C421	C	0.633373	-0.112960	0.184292
C422	C	0.883373	0.137040	0.434292
C423	C	1.133373	0.387040	0.684292
C424	C	1.383373	0.637040	0.934292
C425	C	0.633379	-0.112953	0.246207
C426	C	0.883379	0.137047	0.496207
C427	C	1.133379	0.387047	0.746207
C428	C	1.383379	0.637047	0.996207
C429	C	0.672331	-0.074012	0.277157
C430	C	0.922331	0.175988	0.527157
C431	C	1.172331	0.425988	0.777157
C432	C	1.422331	0.675988	1.027157
O433	O	0.600296	-0.146040	0.344169
O434	O	0.850296	0.103960	0.594169
O435	O	1.100296	0.353960	0.844169
O436	O	1.350296	0.603960	1.094169
O437	O	0.744395	-0.001962	0.344188
O438	O	0.994395	0.248038	0.594188
O439	O	1.244395	0.498038	0.844188
O440	O	1.494395	0.748038	1.094188
H441	H	0.226236	-0.074613	-0.150848
H442	H	0.476236	0.175387	0.099152
H443	H	0.726236	0.425387	0.349152
H444	H	0.976236	0.675387	0.599152
H445	H	0.819117	0.392053	0.000079
H446	H	1.069117	0.642053	0.250079
H447	H	1.319117	0.892053	0.500079
H448	H	1.569117	1.142053	0.750079
Cl449	Cl	0.545471	-0.200795	0.569939
Cl450	Cl	0.795471	0.049205	0.819939
Cl451	Cl	1.045471	0.299205	1.069939
Cl452	Cl	1.295471	0.549205	1.319939
H453	H	0.601692	-0.144624	0.728736
H454	H	0.851692	0.105376	0.978736
H455	H	1.101692	0.355376	1.228736
H456	H	1.351692	0.605376	1.478736
H457	H	-0.047012	-0.071348	-0.097217
H458	H	0.202988	0.178652	0.152783
H459	H	0.452988	0.428652	0.402783
H460	H	0.702988	0.678652	0.652783
H461	H	0.391691	-0.076647	-0.097238
H462	H	0.641691	0.173353	0.152762
H463	H	0.891691	0.423353	0.402762
H464	H	1.141691	0.673353	0.652762
Cl465	Cl	0.512615	-0.078093	-0.120987
Cl466	Cl	0.762615	0.171907	0.129013
Cl467	Cl	1.012615	0.421907	0.379013
Cl468	Cl	1.262615	0.671907	0.629013
H469	H	-0.154777	-0.070078	0.097366
H470	H	0.095223	0.179922	0.347366
H471	H	0.345223	0.429922	0.597366
H472	H	0.595223	0.679922	0.847366
Cl473	Cl	0.512602	-0.078136	0.121087
Cl474	Cl	0.762602	0.171864	0.371087
Cl475	Cl	1.012602	0.421864	0.621087
Cl476	Cl	1.262602	0.671864	0.871087
H477	H	0.601709	-0.144625	0.841058
H478	H	0.851709	0.105375	1.091058
H479	H	1.101709	0.355375	1.341058
H480	H	1.351709	0.605375	1.591058
H481	H	0.781953	0.035569	0.556203
H482	H	1.031953	0.285569	0.806203
H483	H	1.281953	0.535569	1.056203
H484	H	1.531953	0.785569	1.306203
H485	H	0.763925	0.658198	0.000061
H486	H	1.013925	0.908198	0.250061
H487	H	1.263925	1.158198	0.500061
H488	H	1.513925	1.408198	0.750061
H489	H	0.575510	0.632494	0.000033
H490	H	0.825510	0.882494	0.250033
H491	H	1.075510	1.132494	0.500033
H492	H	1.325510	1.382494	0.750033
Cl493	Cl	0.840668	0.516085	0.000074
Cl494	Cl	1.090668	0.766085	0.250074
Cl495	Cl	1.340668	1.016085	0.500074
Cl496	Cl	1.590668	1.266085	0.750074
Cl497	Cl	0.584418	-0.161900	0.285131
Cl498	Cl	0.834418	0.088100	0.535131
Cl499	Cl	1.084418	0.338100	0.785131
Cl500	Cl	1.334418	0.588100	1.035131
Cl501	Cl	0.502412	0.469924	0.000008
Cl502	Cl	0.752412	0.719924	0.250008
Cl503	Cl	1.002412	0.969924	0.500008
Cl504	Cl	1.252412	1.219924	0.750008
Cl505	Cl	0.551067	0.750257	0.000036
Cl506	Cl	0.801067	1.000257	0.250036
Cl507	Cl	1.051067	1.250257	0.500036
Cl508	Cl	1.301067	1.500257	0.750036
H509	H	0.526863	0.352164	0.000017
H510	H	0.776863	0.602164	0.250017
H511	H	1.026863	0.852164	0.500017
H512	H	1.276863	1.102164	0.750017
Cl513	Cl	0.557608	0.203802	0.000064
Cl514	Cl	0.807608	0.453802	0.250064
Cl515	Cl	1.057608	0.703802	0.500064
Cl516	Cl	1.307608	0.953802	0.750064
H517	H	0.743024	-0.003356	0.728712
H518	H	0.993024	0.246644	0.978712
H519	H	1.243024	0.496644	1.228712
H520	H	1.493024	0.746644	1.478712
Cl521	Cl	0.584412	-0.161901	0.145370
Cl522	Cl	0.834412	0.088099	0.395370
Cl523	Cl	1.084412	0.338099	0.645370
Cl524	Cl	1.334412	0.588099	0.895370
Cl525	Cl	0.785467	0.782256	0.000054
Cl526	Cl	1.035467	1.032256	0.250054
Cl527	Cl	1.285467	1.282256	0.500054
Cl528	Cl	1.535467	1.532256	0.750054
H529	H	0.391701	-0.076667	0.097348
H530	H	0.641701	0.173333	0.347348
H531	H	0.891701	0.423333	0.597348
H532	H	1.141701	0.673333	0.847348
H533	H	0.582057	0.086018	0.000070
H534	H	0.832057	0.336018	0.250070
H535	H	1.082057	0.586018	0.500070
H536	H	1.332057	0.836018	0.750070
H537	H	0.118487	-0.073317	-0.150848
H538	H	0.368487	0.176683	0.099152
H539	H	0.618487	0.426683	0.349152
H540	H	0.868487	0.676683	0.599152
Cl541	Cl	0.793617	0.101715	0.000101
Cl542	Cl	1.043617	0.351715	0.250101
Cl543	Cl	1.293617	0.601715	0.500101
Cl544	Cl	1.543617	0.851715	0.750101
Cl545	Cl	0.760238	0.013844	0.145350
Cl546	Cl	1.010238	0.263844	0.395350
Cl547	Cl	1.260238	0.513844	0.645350
Cl548	Cl	1.510238	0.763844	0.895350
Cl549	Cl	-0.167913	-0.069899	-0.120961
Cl550	Cl	0.082087	0.180101	0.129039
Cl551	Cl	0.332087	0.430101	0.379039
Cl552	Cl	0.582087	0.680101	0.629039
H553	H	0.769178	0.219481	0.000078
H554	H	1.019178	0.469481	0.250078
H555	H	1.269178	0.719481	0.500078
H556	H	1.519178	0.969481	0.750078
H557	H	0.226215	-0.074674	0.150976
H558	H	0.476215	0.175326	0.400976
H559	H	0.726215	0.425326	0.650976
H560	H	0.976215	0.675326	0.900976
H561	H	0.743027	-0.003354	0.841050
H562	H	0.993027	0.246646	1.091050
H563	H	1.243027	0.496646	1.341050
H564	H	1.493027	0.746646	1.591050
Cl565	Cl	-0.033860	-0.071539	0.121117
Cl566	Cl	0.216140	0.178461	0.371117
Cl567	Cl	0.466140	0.428461	0.621117
Cl568	Cl	0.716140	0.678461	0.871117
Cl569	Cl	0.105321	-0.073221	0.174733
Cl570	Cl	0.355321	0.176779	0.424733
Cl571	Cl	0.605321	0.426779	0.674733
Cl572	Cl	0.855321	0.676779	0.924733
H573	H	0.742991	-0.003378	0.271385
H574	H	0.992991	0.246622	0.521385
H575	H	1.242991	0.496622	0.771385
H576	H	1.492991	0.746622	1.021385
Cl577	Cl	0.545462	-0.200796	0.430197
Cl578	Cl	0.795462	0.049204	0.680197
Cl579	Cl	1.045462	0.299204	0.930197
Cl580	Cl	1.295462	0.549204	1.180197
H581	H	0.781948	0.035559	0.443885
H582	H	1.031948	0.285559	0.693885
H583	H	1.281948	0.535559	0.943885
H584	H	1.531948	0.785559	1.193885
