data_functionalizedCrystal
_audit_creation_method	'MofGen! by Chris Wilmer'
_symmetry_space_group_name_H-M	'P1'
_symmetry_Int_Tables_number	1
_symmetry_cell_setting	triclinic
loop_
_symmetry_equiv_pos_as_xyz
  x,y,z
_cell_length_a	12.811438
_cell_length_b	12.811487
_cell_length_c	16.776229
_cell_angle_alpha	95.425873
_cell_angle_beta	95.425543
_cell_angle_gamma	83.529464
loop_
_atom_site_label
_atom_site_type_symbol
_atom_site_fract_x
_atom_site_fract_y
_atom_site_fract_z
O1	O	1.393275	0.141390	0.044669
O2	O	1.893275	0.641390	0.544669
O3	O	1.087763	0.156759	0.023690
O4	O	1.587763	0.656759	0.523690
O5	O	1.248204	-0.003681	0.023696
O6	O	1.748204	0.496319	0.523696
O7	O	1.232834	0.301830	0.044662
O8	O	1.732834	0.801830	0.544662
O9	O	1.248183	-0.003691	0.156270
O10	O	1.748183	0.496309	0.656270
O11	O	1.087742	0.156749	0.156264
O12	O	1.587742	0.656749	0.656264
O13	O	1.393254	0.141380	0.177243
O14	O	1.893254	0.641380	0.677243
Zn15	Zn	1.240494	0.149063	0.187803
Zn16	Zn	1.740494	0.649063	0.687803
Zn17	Zn	1.240523	0.149076	0.013130
Zn18	Zn	1.740523	0.649076	0.513130
O19	O	1.232813	0.301820	0.177237
O20	O	1.732813	0.801820	0.677237
C21	C	1.048645	0.155892	0.087087
C22	C	1.548645	0.655892	0.587087
C23	C	0.932118	0.153311	0.078475
C24	C	1.432118	0.653311	0.578475
C25	C	1.247332	-0.042793	0.087093
C26	C	1.747332	0.457207	0.587093
C27	C	1.244751	-0.159320	0.078481
C28	C	1.744751	0.340680	0.578481
C29	C	0.767886	0.149679	-0.005921
C30	C	1.267886	0.649679	0.494079
C31	C	0.877374	0.152103	0.002164
C32	C	1.377374	0.652103	0.502164
C33	C	0.877366	0.152092	0.146705
C34	C	1.377366	0.652092	0.646705
C35	C	0.767878	0.149668	0.138620
C36	C	1.267878	0.649668	0.638620
C37	C	0.713142	0.148463	0.062305
C38	C	1.213142	0.648463	0.562305
C39	C	0.603651	0.146047	0.054221
C40	C	1.103651	0.646047	0.554221
C41	C	0.603646	0.146028	0.198760
C42	C	1.103646	0.646028	0.698760
C43	C	0.713133	0.148452	0.206846
C44	C	1.213133	0.648452	0.706846
C45	C	1.239898	-0.378313	0.206845
C46	C	1.739898	0.121687	0.706845
C47	C	1.237474	-0.487801	0.198757
C48	C	1.737474	0.012199	0.698757
C49	C	1.237485	-0.487786	0.054217
C50	C	1.737485	0.012214	0.554217
C51	C	1.239910	-0.378298	0.062305
C52	C	1.739910	0.121702	0.562305
C53	C	1.241115	-0.323566	0.138622
C54	C	1.741115	0.176434	0.638622
C55	C	1.243531	-0.214075	0.146709
C56	C	1.743531	0.285925	0.646709
C57	C	1.243551	-0.214063	0.002170
C58	C	1.743551	0.285937	0.502170
C59	C	1.241126	-0.323551	-0.005918
C60	C	1.741126	0.176449	0.494082
C61	C	1.432372	0.142247	0.113844
C62	C	1.932372	0.642247	0.613844
C63	C	1.548899	0.144827	0.122451
C64	C	2.048899	0.644827	0.622451
C65	C	1.233685	0.340932	0.113838
C66	C	1.733685	0.840932	0.613838
C67	C	1.236266	0.457459	0.122445
C68	C	1.736266	0.957459	0.622445
N69	N	1.240483	0.149053	0.307012
N70	N	1.740483	0.649053	0.807012
N71	N	1.240542	0.149077	-0.106079
N72	N	1.740542	0.649077	0.393921
C73	C	1.311548	0.078040	0.348736
C74	C	1.811548	0.578040	0.848736
C75	C	1.311554	0.078039	0.432189
C76	C	1.811554	0.578039	0.932189
C77	C	1.240499	0.149057	0.473917
C78	C	1.740499	0.649057	0.973917
C79	C	1.169426	0.220074	0.432187
C80	C	1.669426	0.720074	0.932187
C81	C	1.169416	0.220069	0.348735
C82	C	1.669416	0.720069	0.848735
C83	C	1.169464	0.220095	0.768738
C84	C	1.669464	0.720095	1.268738
C85	C	1.169482	0.220097	0.852196
C86	C	1.669482	0.720097	1.352196
C87	C	1.311602	0.078065	0.852192
C88	C	1.811602	0.578065	1.352192
C89	C	1.311592	0.078060	0.768740
C90	C	1.811592	0.578060	1.268740
C91	C	1.240516	0.149072	0.727017
C92	C	1.740516	0.649072	1.227017
C93	C	1.240509	0.149071	0.636528
C94	C	1.740509	0.649071	1.136528
C95	C	1.240510	0.149065	0.564405
C96	C	1.740510	0.649065	1.064405
H97	H	0.559086	0.145071	-0.007919
H98	H	1.059086	0.645071	0.492081
H99	H	1.236516	-0.532370	-0.007916
H100	H	1.736516	-0.032370	0.492084
C101	C	0.937584	0.153500	0.230650
C102	C	1.437584	0.653500	0.730650
N103	N	0.982938	0.154593	0.293881
N104	N	1.482938	0.654593	0.793881
H105	H	1.236484	-0.532372	0.254312
H106	H	1.736484	-0.032372	0.754312
H107	H	1.244529	-0.169475	-0.053383
H108	H	1.744529	0.330525	0.446617
C109	C	1.244860	-0.153871	0.230659
C110	C	1.744860	0.346129	0.730659
N111	N	1.245865	-0.108530	0.293892
N112	N	1.745865	0.391470	0.793892
C113	C	1.239797	-0.383769	-0.089863
C114	C	1.739797	0.116231	0.410137
N115	N	1.238791	-0.429123	-0.153092
N116	N	1.738791	0.070877	0.346908
C117	C	1.241217	-0.318104	0.290793
C118	C	1.741217	0.181896	0.790793
N119	N	1.242212	-0.272757	0.354024
N120	N	1.742212	0.227243	0.854024
H121	H	1.111593	0.277918	0.734774
H122	H	1.611593	0.777918	1.234774
H123	H	1.369414	0.020213	0.314767
H124	H	1.869414	0.520213	0.814767
C125	C	1.389755	-0.000068	0.722843
C126	C	1.889755	0.499932	1.222843
N127	N	1.448626	-0.058920	0.688275
N128	N	1.948626	0.441080	1.188275
C129	C	0.937590	0.153441	-0.072889
C130	C	1.437590	0.653441	0.427111
N131	N	0.982943	0.154448	-0.129423
N132	N	1.482943	0.654448	0.370577
C133	C	1.389706	-0.000107	0.478077
C134	C	1.889706	0.499893	0.978077
N135	N	1.448564	-0.058980	0.512638
N136	N	1.948564	0.441020	1.012638
C137	C	0.773350	0.149825	0.290791
C138	C	1.273350	0.649825	0.790791
N139	N	0.818701	0.150879	0.354022
N140	N	1.318701	0.650879	0.854022
H141	H	1.111616	0.277931	0.886170
H142	H	1.611616	0.777931	1.386170
H143	H	1.369473	0.020239	0.886171
H144	H	1.869473	0.520239	1.386171
C145	C	0.543418	0.144689	0.273813
C146	C	1.043418	0.644689	0.773813
N147	N	0.498053	0.143683	0.330342
N148	N	0.998053	0.643683	0.830342
H149	H	1.111546	0.277894	0.314764
H150	H	1.611546	0.777894	0.814764
H151	H	0.723318	0.148710	-0.068059
H152	H	1.223318	0.648710	0.431941
C153	C	1.091254	0.298186	0.478089
C154	C	1.591254	0.798186	0.978089
N155	N	1.032374	0.357021	0.512662
N156	N	1.532374	0.857021	1.012662
