data_functionalizedCrystal
_audit_creation_method	'MofGen! by Chris Wilmer'
_symmetry_space_group_name_H-M	'P1'
_symmetry_Int_Tables_number	1
_symmetry_cell_setting	triclinic
loop_
_symmetry_equiv_pos_as_xyz
  x,y,z
_cell_length_a	19.188905
_cell_length_b	19.188930
_cell_length_c	17.666332
_cell_angle_alpha	90.011603
_cell_angle_beta	90.016479
_cell_angle_gamma	83.139668
loop_
_atom_site_label
_atom_site_type_symbol
_atom_site_fract_x
_atom_site_fract_y
_atom_site_fract_z
O1	O	0.926161	0.087086	0.063081
O2	O	0.722847	0.098838	0.063057
O3	O	0.830371	-0.008694	0.063055
O4	O	0.818637	0.194618	0.063083
O5	O	0.830352	-0.008700	-0.062842
O6	O	0.722828	0.098832	-0.062840
O7	O	0.926142	0.087080	-0.062815
Cu8	Cu	0.824483	0.092956	-0.074323
Cu9	Cu	0.824506	0.092962	0.074565
O10	O	0.818618	0.194612	-0.062814
C11	C	0.696826	0.098458	0.000105
C12	C	0.619321	0.097324	0.000095
C13	C	0.582939	0.096782	0.068723
C14	C	0.510116	0.095709	0.068732
C15	C	0.473678	0.095164	0.000110
C16	C	0.510068	0.095709	-0.068528
C17	C	0.582889	0.096789	-0.068535
N18	N	0.364650	0.053733	-0.050966
N19	N	0.295473	0.052705	-0.050954
C20	C	0.254272	0.091911	0.000127
N21	N	0.284861	0.132174	0.051208
N22	N	0.354045	0.133199	0.051199
C23	C	0.394716	0.093993	0.000110
C24	C	0.138926	0.090207	0.068770
C25	C	0.066101	0.089138	0.068777
C26	C	0.066055	0.089131	-0.068485
C27	C	0.138879	0.090207	-0.068490
C28	C	0.175310	0.090742	0.000140
C29	C	0.829982	-0.034708	0.000104
C30	C	0.828841	-0.112213	0.000098
C31	C	0.891933	-0.157142	0.000102
C32	C	0.890861	-0.229966	0.000114
C33	C	0.826694	-0.257857	0.000107
C34	C	0.763594	-0.212917	0.000107
C35	C	0.764668	-0.140095	0.000102
N36	N	0.777640	-0.365859	-0.042744
N37	N	0.776624	-0.435038	-0.042742
C38	C	0.823456	-0.477265	0.000122
N39	N	0.871352	-0.447702	0.042973
N40	N	0.872369	-0.378517	0.042967
C41	C	0.825523	-0.336819	0.000112
C42	C	0.885390	-0.601159	0.000140
C43	C	0.884315	-0.673984	0.000156
C44	C	0.757047	-0.656933	0.000142
C45	C	0.758123	-0.584110	0.000133
C46	C	0.822296	-0.556228	0.000128
C47	C	0.952163	0.087460	0.000138
C48	C	1.029668	0.088594	0.000153
C49	C	0.819007	0.220626	0.000139
C50	C	0.820148	0.298131	0.000150
N51	N	0.824473	0.092950	-0.179042
C52	C	0.872100	0.045358	-0.218653
C53	C	0.872104	0.045355	-0.297901
C54	C	0.824488	0.092956	-0.337535
C55	C	0.776852	0.140552	-0.297915
C56	C	0.776844	0.140549	-0.218668
N57	N	0.815411	0.154764	-0.461945
N58	N	0.815422	0.154764	-0.537226
C59	C	0.824506	0.092966	-0.576299
N60	N	0.833592	0.031164	-0.537247
N61	N	0.833584	0.031165	-0.461960
C62	C	0.824490	0.092964	-0.423464
C63	C	0.872140	0.045366	-0.701838
C64	C	0.872139	0.045361	-0.781087
C65	C	0.776890	0.140564	-0.781100
C66	C	0.776888	0.140562	-0.701852
C67	C	0.824516	0.092964	-0.662226
N68	N	0.824522	0.092962	0.179284
H69	H	0.168501	0.090643	-0.124374
H70	H	0.711349	-0.235631	0.000103
C71	C	0.724461	0.192908	-0.175092
H72	H	0.731277	0.186089	-0.122220
H73	H	0.731901	0.239487	-0.188067
H74	H	0.677886	0.185443	-0.188095
C75	C	0.695264	-0.090671	0.000091
H76	H	0.656893	-0.117708	0.000085
H77	H	0.693044	-0.061895	0.043989
H78	H	0.693033	-0.061923	-0.043823
C79	C	0.955976	-0.570485	0.000143
H80	H	0.993399	-0.607676	0.000159
H81	H	0.959035	-0.542443	-0.043763
H82	H	0.959045	-0.542420	0.044049
H83	H	0.036388	0.088691	-0.124360
C84	C	0.924527	-0.006994	-0.824663
H85	H	0.917705	-0.000183	-0.877535
H86	H	0.971099	0.000471	-0.811658
H87	H	0.917087	-0.053576	-0.811687
C88	C	0.953720	-0.723407	0.000159
H89	H	0.992090	-0.696368	0.000149
H90	H	0.955959	-0.752160	0.044065
H91	H	0.955933	-0.752178	-0.043747
H92	H	0.704801	-0.679641	0.000140
H93	H	0.944187	-0.134445	0.000101
H94	H	0.706747	-0.547527	0.000125
H95	H	0.942239	-0.266555	0.000120
C96	C	0.924482	-0.007005	-0.175068
H97	H	0.952843	-0.035354	-0.210014
H98	H	0.953464	0.018033	-0.144132
H99	H	0.899448	-0.036010	-0.144177
C100	C	0.924517	-0.006997	-0.658243
H101	H	0.917698	-0.000177	-0.605373
H102	H	0.917078	-0.053575	-0.671245
H103	H	0.971094	0.000467	-0.671209
H104	H	0.910889	0.006598	-0.330157
C105	C	0.724477	0.192913	-0.341508
H106	H	0.731308	0.186104	-0.394378
H107	H	0.677903	0.185450	-0.328546
H108	H	0.731918	0.239494	-0.328503
C109	C	0.470085	0.095110	0.144224
H110	H	0.421497	0.094394	0.134398
H111	H	0.487485	0.054580	0.172413
H112	H	0.476569	0.135997	0.172431
C113	C	0.724513	0.192924	-0.824688
H114	H	0.731340	0.186113	-0.877558
H115	H	0.677940	0.185462	-0.811721
H116	H	0.731955	0.239505	-0.811686
H117	H	0.738108	0.179319	-0.669599
H118	H	0.612597	0.097218	0.124607
H119	H	0.480396	0.095267	-0.124401
H120	H	0.612511	0.097231	-0.124422
H121	H	0.036479	0.088702	0.124664
C122	C	0.179002	0.090808	0.144258
H123	H	0.146900	0.090344	0.185134
H124	H	0.212867	0.050523	0.147108
H125	H	0.201953	0.131941	0.147109
