data_functionalizedCrystal
_audit_creation_method	'MofGen! by Chris Wilmer'
_symmetry_space_group_name_H-M	'P1'
_symmetry_Int_Tables_number	1
_symmetry_cell_setting	triclinic
loop_
_symmetry_equiv_pos_as_xyz
  x,y,z
_cell_length_a	14.044220
_cell_length_b	14.044220
_cell_length_c	13.101018
_cell_angle_alpha	86.320065
_cell_angle_beta	86.337807
_cell_angle_gamma	86.811123
loop_
_atom_site_label
_atom_site_type_symbol
_atom_site_fract_x
_atom_site_fract_y
_atom_site_fract_z
O1	O	1.272353	-0.234994	0.085219
O2	O	0.995682	-0.226689	0.085221
O3	O	1.129865	-0.092505	0.085210
O4	O	1.138170	-0.369178	0.085230
O5	O	1.139481	-0.082847	-0.085221
O6	O	1.005298	-0.217030	-0.085210
O7	O	1.281969	-0.225336	-0.085212
Zn8	Zn	1.145160	-0.219649	-0.112271
Zn9	Zn	1.132491	-0.232375	0.112279
O10	O	1.147786	-0.359519	-0.085201
C11	C	0.964868	-0.218224	0.000006
C12	C	0.858725	-0.207379	0.000006
C13	C	1.312783	-0.233801	0.000005
C14	C	1.418925	-0.244646	0.000011
C15	C	1.131038	-0.052054	-0.000006
C16	C	1.120193	0.054089	-0.000007
C17	C	1.613263	-0.264472	0.000012
C18	C	1.664393	-0.187557	0.000006
C19	C	1.772529	-0.198589	0.000006
C20	C	1.505117	-0.253442	0.000012
C21	C	1.146613	-0.399970	0.000017
C22	C	1.157457	-0.506114	0.000025
N23	N	1.153814	-0.210965	-0.265521
C24	C	1.100366	0.248426	0.000008
C25	C	1.177280	0.299555	0.000010
C26	C	1.166248	0.407691	0.000018
C27	C	1.111397	0.140280	-0.000001
N28	N	1.123844	-0.241053	0.265529
C29	C	1.165582	-0.199163	0.525435
C30	C	1.112079	-0.252851	0.474567
C31	C	1.118627	-0.246285	0.358247
C32	C	1.159035	-0.205729	0.641765
H33	H	1.650700	-0.338600	0.000018
N34	N	1.275485	0.249979	-0.000013
H35	H	1.307792	0.265447	0.063162
H36	H	1.269477	0.178654	-0.000062
H37	H	1.626950	-0.113428	0.000075
N38	N	1.002172	0.298008	0.000010
H39	H	1.008112	0.369347	0.000012
H40	H	0.969930	0.282465	-0.063176
N41	N	1.044887	-0.320269	0.532586
H42	H	1.049670	-0.315463	0.608661
H43	H	0.977240	-0.302560	0.513896
N44	N	1.232769	-0.131750	0.467417
H45	H	1.227978	-0.136557	0.391343
H46	H	1.214847	-0.064145	0.486089
