data_functionalizedCrystal
_audit_creation_method	'MofGen! by Chris Wilmer'
_symmetry_space_group_name_H-M	'P1'
_symmetry_Int_Tables_number	1
_symmetry_cell_setting	triclinic
loop_
_symmetry_equiv_pos_as_xyz
  x,y,z
_cell_length_a	19.077105
_cell_length_b	29.839131
_cell_length_c	19.076919
_cell_angle_alpha	92.267459
_cell_angle_beta	90.076224
_cell_angle_gamma	87.737628
loop_
_atom_site_label
_atom_site_type_symbol
_atom_site_fract_x
_atom_site_fract_y
_atom_site_fract_z
Zn1	Zn	1.058171	-0.217337	-0.440392
Zn2	Zn	1.062777	-0.289569	-0.322877
Zn3	Zn	0.945391	-0.211319	-0.318186
Zn4	Zn	0.940599	-0.289298	-0.435629
O5	O	1.001735	-0.251881	-0.379271
O6	O	1.157112	-0.229551	-0.428760
O7	O	1.051139	-0.276784	-0.223924
O8	O	0.960429	-0.149253	-0.334427
O9	O	1.160497	-0.282620	-0.342422
O10	O	1.043288	-0.153674	-0.424211
O11	O	0.964896	-0.219294	-0.220477
O12	O	0.846425	-0.219031	-0.329809
O13	O	0.952262	-0.282158	-0.534592
O14	O	0.842904	-0.276322	-0.416094
O15	O	1.038641	-0.229288	-0.538091
O16	O	1.046493	-0.352398	-0.337803
O17	O	0.956729	-0.352199	-0.420642
C18	C	0.819169	-0.246995	-0.371926
C19	C	0.741065	-0.244915	-0.368801
C20	C	1.001609	-0.368599	-0.379231
C21	C	1.001619	-0.418534	-0.379240
C22	C	0.702560	-0.273809	-0.412186
C23	C	0.629174	-0.271849	-0.409252
C24	C	0.594294	-0.240998	-0.362930
C25	C	0.632804	-0.212102	-0.319543
C26	C	0.706189	-0.214059	-0.322481
C27	C	0.375011	-0.231938	-0.349338
C28	C	0.301621	-0.229984	-0.346403
C29	C	0.297996	-0.289731	-0.436113
C30	C	0.371382	-0.291688	-0.439043
C31	C	0.409886	-0.262790	-0.395659
N32	N	0.519281	-0.238996	-0.359929
N33	N	0.484897	-0.264790	-0.398664
C34	C	1.048554	-0.728276	-0.336206
C35	C	1.048639	-0.915952	-0.336237
O36	O	1.088445	-0.940297	-0.299616
N37	N	1.001878	-0.939328	-0.379330
C38	C	0.955095	-0.915782	-0.422422
O39	O	0.915329	-0.939972	-0.459082
C40	C	0.955014	-0.728107	-0.422395
C41	C	1.001773	-0.704734	-0.379293
C42	C	1.095310	-0.704902	-0.293109
C43	C	1.095285	-0.657986	-0.293099
C44	C	1.048505	-0.634443	-0.336186
C45	C	1.001749	-0.657817	-0.379283
C46	C	0.908235	-0.704563	-0.465490
C47	C	0.908220	-0.657641	-0.465480
C48	C	0.954979	-0.634267	-0.422379
C49	C	0.954944	-0.587358	-0.422360
N50	N	1.001705	-0.563982	-0.379267
C51	C	1.048485	-0.587525	-0.336180
C52	C	0.955141	-1.014314	-0.422432
C53	C	0.955160	-1.061233	-0.422439
C54	C	1.048705	-1.061399	-0.336254
C55	C	1.048682	-1.014480	-0.336245
C56	C	1.001902	-0.990938	-0.379339
C57	C	1.048430	-0.488997	-0.336161
C58	C	1.048399	-0.442077	-0.336153
C59	C	0.954857	-0.441914	-0.422340
C60	C	0.954885	-0.488831	-0.422346
C61	C	1.001677	-0.512371	-0.379255
O62	O	0.915164	-0.562985	-0.458967
O63	O	1.088256	-0.563328	-0.299537
C64	C	1.048578	-0.775192	-0.336216
C65	C	1.001822	-0.798566	-0.379313
C66	C	0.955041	-0.775024	-0.422401
C67	C	1.001841	-0.845485	-0.379319
C68	C	1.048622	-0.869027	-0.336232
C69	C	1.095383	-0.845651	-0.293139
C70	C	1.095359	-0.798735	-0.293129
C71	C	0.908280	-0.798400	-0.465494
C72	C	0.908308	-0.845316	-0.465500
C73	C	0.955089	-0.868859	-0.422413
C74	C	1.185013	-0.256787	-0.386645
C75	C	1.263116	-0.258877	-0.389788
C76	C	0.994403	-0.256364	-0.562551
C77	C	0.991279	-0.258274	-0.640654
C78	C	1.001879	-0.134708	-0.379327
C79	C	1.001941	-0.084775	-0.379351
C80	C	1.034782	-0.231647	-0.679169
C81	C	1.031838	-0.233440	-0.752555
C82	C	0.985394	-0.261863	-0.787424
C83	C	0.941886	-0.288492	-0.748903
C84	C	0.944827	-0.286696	-0.675518
C85	C	0.971772	-0.270184	-1.006704
C86	C	0.968835	-0.271978	-1.080093
C87	C	1.058787	-0.216925	-1.083741
C88	C	1.061727	-0.215134	-1.010355
C89	C	1.018216	-0.241761	-0.971840
N90	N	0.982385	-0.263698	-0.862436
N91	N	1.021222	-0.239924	-0.896830
C92	C	1.009078	-0.247384	-0.196706
C93	C	1.012338	-0.245351	-0.118609
H94	H	0.730954	-0.298932	-0.449904
C95	C	1.099895	-0.514885	-0.288757
H96	H	1.127729	-0.494239	-0.263086
H97	H	1.129428	-0.534638	-0.316887
H98	H	1.074269	-0.531744	-0.257037
C99	C	0.594441	-0.178165	-0.268590
H100	H	0.627886	-0.161234	-0.243177
H101	H	0.567016	-0.193804	-0.236776
H102	H	0.564763	-0.158512	-0.294386
H103	H	1.133472	-0.864828	-0.258053
H104	H	0.917045	-0.995150	-0.457526
C105	C	1.112809	-0.183866	-0.972001
H106	H	1.108333	-0.186612	-0.922780
H107	H	1.102081	-0.153701	-0.983628
H108	H	1.159535	-0.192000	-0.985926
H109	H	1.086796	-1.080576	-0.301171
H110	H	1.133363	-0.638958	-0.258004
H111	H	0.273224	-0.204856	-0.308686
C112	C	0.890797	-0.319758	-0.787253
H113	H	0.865305	-0.335356	-0.753802
H114	H	0.916505	-0.340752	-0.816953
H115	H	0.859053	-0.302452	-0.814654
H116	H	0.597826	-0.295378	-0.444580
C117	C	0.896976	-0.315986	-0.633148
H118	H	0.905373	-0.310843	-0.584449
H119	H	0.906736	-0.346740	-0.645571
H120	H	0.849288	-0.308437	-0.643276
H121	H	0.737539	-0.190529	-0.287155
C122	C	1.079707	-0.204162	-0.794923
H123	H	1.071304	-0.209300	-0.843622
H124	H	1.127388	-0.211717	-0.784789
H125	H	1.069955	-0.173404	-0.782504
H126	H	0.399777	-0.316811	-0.476762
C127	C	1.106638	-0.187635	-1.126108
H128	H	1.098233	-0.192771	-1.174807
H129	H	1.154324	-0.195177	-1.115981
H130	H	1.096867	-0.156880	-1.113680
C131	C	0.856804	-0.730264	-0.512907
H132	H	0.828951	-0.709517	-0.538571
H133	H	0.827286	-0.747120	-0.484787
H134	H	0.882448	-0.750007	-0.544634
C135	C	1.085867	-0.200378	-0.640820
H136	H	1.111348	-0.184773	-0.674272
H137	H	1.117612	-0.217679	-0.613416
H138	H	1.060151	-0.179383	-0.611122
H139	H	0.266638	-0.313257	-0.471435
C140	C	0.856872	-0.871025	-0.512915
H141	H	0.863580	-0.902340	-0.506753
H142	H	0.865231	-0.864741	-0.560544
H143	H	0.810073	-0.861856	-0.500692
H144	H	0.931013	-0.295125	-1.108481
C145	C	0.856761	-0.631748	-0.512886
H146	H	0.828917	-0.652391	-0.538550
H147	H	0.882382	-0.614887	-0.544600
H148	H	0.827227	-0.611997	-0.484747
H149	H	1.086476	-0.423047	-0.301052
C150	C	0.923898	-0.299462	-0.964346
H151	H	0.895818	-0.316647	-0.995625
H152	H	0.894454	-0.280748	-0.934504
H153	H	0.951886	-0.319061	-0.936782
H154	H	0.406352	-0.208411	-0.314006
H155	H	1.133408	-0.724066	-0.258022
H156	H	1.086757	-0.995452	-0.301148
H157	H	0.917078	-1.080260	-0.457529
C158	C	0.903450	-0.514543	-0.469755
H159	H	0.875589	-0.493800	-0.495417
H160	H	0.873941	-0.531402	-0.441630
H161	H	0.929098	-0.534283	-0.501482
C162	C	0.903408	-0.416014	-0.469741
H163	H	0.875560	-0.436652	-0.495411
H164	H	0.929040	-0.399155	-0.501450
H165	H	0.873877	-0.396260	-0.441603
C166	C	1.146799	-0.773030	-0.245722
H167	H	1.174664	-0.793776	-0.220071
H168	H	1.121169	-0.753284	-0.213996
H169	H	1.176315	-0.756178	-0.273858
H170	H	0.870187	-0.779235	-0.500582
