data_functionalizedCrystal
_audit_creation_method	'MofGen! by Chris Wilmer'
_symmetry_space_group_name_H-M	'P1'
_symmetry_Int_Tables_number	1
_symmetry_cell_setting	triclinic
loop_
_symmetry_equiv_pos_as_xyz
  x,y,z
_cell_length_a	19.805407
_cell_length_b	17.637651
_cell_length_c	19.805399
_cell_angle_alpha	78.757390
_cell_angle_beta	89.980427
_cell_angle_gamma	101.218564
loop_
_atom_site_label
_atom_site_type_symbol
_atom_site_fract_x
_atom_site_fract_y
_atom_site_fract_z
Zn1	Zn	0.980303	-0.314779	-0.328177
Zn2	Zn	1.480303	0.185221	0.171823
Zn3	Zn	0.957355	-0.446994	-0.192080
Zn4	Zn	1.457355	0.053006	0.307920
Zn5	Zn	0.867114	-0.314800	-0.214998
Zn6	Zn	1.367114	0.185200	0.285002
Zn7	Zn	0.844226	-0.446952	-0.305234
Zn8	Zn	1.344226	0.053048	0.194766
O9	O	0.912250	-0.380881	-0.260122
O10	O	1.412250	0.119119	0.239878
O11	O	1.071974	-0.332326	-0.310134
O12	O	1.571974	0.167674	0.189866
O13	O	0.945360	-0.429485	-0.100399
O14	O	1.445360	0.070515	0.399601
O15	O	0.901312	-0.204159	-0.249205
O16	O	1.401312	0.295841	0.250795
O17	O	1.055114	-0.429464	-0.210144
O18	O	1.555114	0.070536	0.289856
O19	O	0.984471	-0.204143	-0.332357
O20	O	1.484471	0.295857	0.167643
O21	O	0.879060	-0.332363	-0.117237
O22	O	1.379060	0.167637	0.382763
O23	O	0.769363	-0.332322	-0.226958
O24	O	1.269363	0.167678	0.273042
O25	O	0.862302	-0.429392	-0.402999
O26	O	1.362302	0.070608	0.097001
O27	O	0.752547	-0.429413	-0.293254
O28	O	1.252547	0.070587	0.206746
O29	O	0.962277	-0.332285	-0.419855
O30	O	1.462277	0.167715	0.080145
O31	O	0.923166	-0.557627	-0.187897
O32	O	1.423166	-0.057627	0.312103
O33	O	0.840050	-0.557596	-0.271031
O34	O	1.340050	-0.057596	0.228969
C35	C	0.736396	-0.380866	-0.260103
C36	C	1.236396	0.119134	0.239897
C37	C	0.661162	-0.380879	-0.260108
C38	C	1.161162	0.119121	0.239892
C39	C	0.617066	-0.431510	-0.294545
C40	C	1.117066	0.068490	0.205455
C41	C	0.546378	-0.431512	-0.294554
C42	C	1.046378	0.068488	0.205446
C43	C	0.519785	-0.380885	-0.260122
C44	C	1.019785	0.119115	0.239878
C45	C	0.563887	-0.330248	-0.225684
C46	C	1.063887	0.169752	0.274316
C47	C	0.634575	-0.330243	-0.225679
C48	C	1.134575	0.169757	0.274321
C49	C	0.278811	-0.330265	-0.225703
C50	C	0.778811	0.169735	0.274297
C51	C	0.208117	-0.330276	-0.225709
C52	C	0.708117	0.169724	0.274291
C53	C	0.190613	-0.431534	-0.294578
C54	C	0.690613	0.068466	0.205422
C55	C	0.261301	-0.431529	-0.294573
C56	C	0.761301	0.068471	0.205427
C57	C	0.305397	-0.380889	-0.260139
C58	C	0.805397	0.119111	0.239861
C59	C	0.382046	-0.380887	-0.260130
C60	C	0.882046	0.119113	0.239870
C61	C	0.443137	-0.380890	-0.260126
C62	C	0.943137	0.119110	0.239874
C63	C	0.876652	-0.586299	-0.224502
C64	C	1.376652	-0.086299	0.275498
C65	C	0.861485	-0.674177	-0.209286
C66	C	1.361485	-0.174177	0.290714
C67	C	1.027910	-0.962863	-0.375930
C68	C	1.527910	-0.462863	0.124070
C69	C	1.013637	-1.045438	-0.361620
C70	C	1.513637	-0.545438	0.138380
C71	C	0.927101	-1.045562	-0.274950
C72	C	1.427101	-0.545562	0.225050
C73	C	0.941369	-0.962985	-0.289250
C74	C	1.441369	-0.462985	0.210750
C75	C	0.991774	-0.921642	-0.339741
C76	C	1.491774	-0.421642	0.160259
C77	C	0.905232	-0.921764	-0.253061
C78	C	1.405232	-0.421764	0.246939
C79	C	0.919497	-0.839195	-0.267363
C80	C	1.419497	-0.339195	0.232637
C81	C	0.969898	-0.797846	-0.317853
C82	C	1.469898	-0.297846	0.182147
C83	C	1.006039	-0.839072	-0.354043
C84	C	1.506039	-0.339072	0.145957
C85	C	0.854824	-0.963109	-0.202574
C86	C	1.354824	-0.463109	0.297426
C87	C	0.818688	-0.921888	-0.166385
C88	C	1.318688	-0.421888	0.333615
C89	C	0.832956	-0.839317	-0.180683
C90	C	1.332956	-0.339317	0.319317
C91	C	0.883357	-0.797968	-0.231173
C92	C	1.383357	-0.297968	0.268827
C93	C	0.796816	-0.798090	-0.144494
C94	C	1.296816	-0.298090	0.355506
C95	C	0.811080	-0.715521	-0.158795
C96	C	1.311080	-0.215521	0.341205
C97	C	0.897622	-0.715398	-0.245475
C98	C	1.397622	-0.215398	0.254525
C99	C	1.088790	-0.380897	-0.260142
C100	C	1.588790	0.119103	0.239858
C101	C	1.164020	-0.380904	-0.260150
C102	C	1.664020	0.119096	0.239850
C103	C	0.912296	-0.380831	-0.436674
C104	C	1.412296	0.119169	0.063326
C105	C	0.912316	-0.380810	-0.511910
C106	C	1.412316	0.119190	-0.011910
C107	C	0.948005	-0.174661	-0.295897
C108	C	1.448005	0.325339	0.204103
C109	C	0.963241	-0.086783	-0.311142
C110	C	1.463241	0.413217	0.188858
C111	C	0.964375	-0.330244	-0.556032
C112	C	1.464375	0.169756	-0.056032
C113	C	0.964386	-0.330221	-0.626725
C114	C	1.464386	0.169779	-0.126725
C115	C	0.912340	-0.380769	-0.653292
C116	C	1.412340	0.119231	-0.153292
C117	C	0.860276	-0.431337	-0.609164
C118	C	1.360276	0.068663	-0.109164
C119	C	0.860263	-0.431356	-0.538474
C120	C	1.360263	0.068644	-0.038474
C121	C	0.860327	-0.431264	-0.894250
C122	C	1.360327	0.068736	-0.394250
C123	C	0.860345	-0.431243	-0.964946
C124	C	1.360345	0.068757	-0.464946
C125	C	0.964450	-0.330129	-0.982501
C126	C	1.464450	0.169871	-0.482501
C127	C	0.964437	-0.330147	-0.911811
C128	C	1.464437	0.169853	-0.411811
C129	C	0.912371	-0.380712	-0.867690
C130	C	1.412371	0.119288	-0.367690
C131	C	0.912359	-0.380736	-0.791037
C132	C	1.412359	0.119264	-0.291037
C133	C	0.912354	-0.380750	-0.729943
C134	C	1.412354	0.119250	-0.229943
C135	C	0.912252	-0.380874	-0.084268
C136	C	1.412252	0.119126	0.415732
C137	C	0.912402	-0.380672	-0.009071
C138	C	1.412402	0.119328	0.490929
H139	H	0.154702	-0.472764	-0.322620
H140	H	0.654702	0.027236	0.177380
F141	F	0.289598	-0.485416	-0.331218
F142	F	0.789598	0.014584	0.168782
H143	H	0.817960	-0.472407	-0.986574
H144	H	1.317960	0.027593	-0.486574
H145	H	0.186469	-0.289044	-0.197671
H146	H	0.686469	0.210956	0.302329
F147	F	0.325732	-0.276368	-0.189057
F148	F	0.825732	0.223632	0.310943
H149	H	0.817898	-0.472491	-0.630802
H150	H	1.317898	0.027509	-0.130802
H151	H	0.542231	-0.289023	-0.197652
H152	H	1.042231	0.210977	0.302348
F153	F	0.681506	-0.276352	-0.189028
F154	F	1.181506	0.223648	0.310972
H155	H	0.938672	-0.681735	-0.286585
H156	H	1.438672	-0.181735	0.213415
F157	F	0.743165	-0.842101	-0.090768
F158	F	1.243165	-0.342101	0.409232
F159	F	1.019832	-0.276350	-0.883540
F160	F	1.519832	0.223650	-0.383540
H161	H	0.981512	-0.730612	-0.329496
H162	H	1.481512	-0.230612	0.170504
F163	F	1.019812	-0.276429	-0.673676
F164	F	1.519812	0.223571	-0.173676
H165	H	0.510477	-0.472742	-0.322595
H166	H	1.010477	0.027258	0.177405
H167	H	0.777647	-0.955561	-0.125277
H168	H	1.277647	-0.455561	0.374723
H169	H	1.047088	-0.805409	-0.395153
H170	H	1.547088	-0.305409	0.104847
H171	H	1.068960	-0.929200	-0.417040
H172	H	1.568960	-0.429200	0.082960
H173	H	0.781654	-0.681958	-0.129327
H174	H	1.281654	-0.181958	0.370673
H175	H	1.043058	-1.078997	-0.391103
H176	H	1.543058	-0.578997	0.108897
F177	F	0.804854	-0.485173	-0.491515
F178	F	1.304854	0.014827	0.008485
F179	F	0.873453	-1.089571	-0.221220
F180	F	1.373453	-0.589571	0.278780
F181	F	0.804914	-0.485080	-0.847302
F182	F	1.304914	0.014920	-0.347302
H183	H	0.638711	-0.472739	-0.322581
H184	H	1.138711	0.027261	0.177419
H185	H	1.006842	-0.288953	-1.018435
H186	H	1.506842	0.211047	-0.518435
H187	H	0.843205	-1.030342	-0.190938
H188	H	1.343205	-0.530342	0.309062
H189	H	1.006758	-0.289084	-0.534407
H190	H	1.506758	0.210916	-0.034407
