data_functionalizedCrystal
_audit_creation_method	'MofGen! by Chris Wilmer'
_symmetry_space_group_name_H-M	'P1'
_symmetry_Int_Tables_number	1
_symmetry_cell_setting	triclinic
loop_
_symmetry_equiv_pos_as_xyz
  x,y,z
_cell_length_a	13.032721
_cell_length_b	19.805407
_cell_length_c	19.805399
_cell_angle_alpha	89.980427
_cell_angle_beta	82.844098
_cell_angle_gamma	82.795335
loop_
_atom_site_label
_atom_site_type_symbol
_atom_site_fract_x
_atom_site_fract_y
_atom_site_fract_z
Zn1	Zn	-0.416068	-1.000535	0.416943
Zn2	Zn	-0.590828	-0.986084	0.318130
Zn3	Zn	-0.416097	-0.887347	0.303770
Zn4	Zn	-0.590772	-0.872952	0.431272
O5	O	-0.503441	-0.936729	0.367529
O6	O	-0.439261	-1.093333	0.403849
O7	O	-0.567684	-0.972963	0.221512
O8	O	-0.269853	-0.914433	0.306777
O9	O	-0.567656	-1.082717	0.331251
O10	O	-0.269832	-0.997592	0.389925
O11	O	-0.439310	-0.900421	0.210962
O12	O	-0.439257	-0.790722	0.320671
O13	O	-0.567562	-0.889899	0.524085
O14	O	-0.567590	-0.780146	0.414346
O15	O	-0.439207	-0.983634	0.513558
O16	O	-0.737060	-0.959005	0.345145
O17	O	-0.737019	-0.875887	0.428270
C18	C	-0.774958	-0.914334	0.389835
C19	C	-0.891114	-0.904816	0.399401
C20	C	-0.503421	-0.760875	0.367506
C21	C	-0.503438	-0.685642	0.367514
C22	C	-0.503375	-0.936773	0.544066
C23	C	-0.503347	-0.936791	0.619296
C24	C	-0.942886	-0.941733	0.362567
C25	C	-1.062939	-0.931896	0.372453
C26	C	-0.230864	-0.959230	0.345151
C27	C	-0.114708	-0.968819	0.335614
C28	C	-0.503462	-1.113270	0.367553
C29	C	-0.503471	-1.188502	0.367563
C30	C	-0.570361	-0.644800	0.416228
C31	C	-0.570363	-0.574112	0.416238
C32	C	-0.503446	-0.544265	0.367529
C33	C	-0.436515	-0.585113	0.318812
C34	C	-0.436508	-0.655800	0.318806
C35	C	-0.436538	-0.300037	0.318836
C36	C	-0.436551	-0.229344	0.318845
C37	C	-0.570393	-0.218349	0.416269
C38	C	-0.570386	-0.289036	0.416262
C39	C	-0.503452	-0.329878	0.367548
C40	C	-0.503449	-0.406526	0.367538
C41	C	-0.503453	-0.467618	0.367535
C42	C	-0.503431	-0.936731	0.191672
C43	C	-0.503165	-0.936868	0.116419
C44	C	-0.436510	-0.985600	0.649160
C45	C	-0.436479	-0.985609	0.719846
C46	C	-0.503293	-0.936813	0.760667
C47	C	-0.570133	-0.887999	0.730799
C48	C	-0.570157	-0.887987	0.660114
C49	C	-0.570036	-0.888045	1.015865
C50	C	-0.570008	-0.888062	1.086555
C51	C	-0.436358	-0.985668	1.075596
C52	C	-0.436382	-0.985656	1.004911
C53	C	-0.503218	-0.936840	0.975049
C54	C	-0.503249	-0.936830	0.898403
C55	C	-0.503268	-0.936825	0.837312
H56	H	-1.107490	-0.893007	0.411311
C57	C	-0.642613	-0.835030	0.627557
C58	C	-0.628314	-0.845451	0.556916
C59	C	-0.695030	-0.796672	0.526902
H60	H	-0.712869	-0.839093	0.644828
H61	H	-0.627297	-0.790805	0.637837
H62	H	-0.643638	-0.889666	0.546641
H63	H	-0.558071	-0.841382	0.539626
H64	H	-0.679714	-0.752446	0.537182
H65	H	-0.765282	-0.800739	0.544178
H66	H	-0.685330	-0.803732	0.478968
H67	H	-0.898333	-0.980626	0.323717
H68	H	-0.624857	-0.669095	0.455891
H69	H	-0.382053	-0.205047	0.279180
H70	H	-0.382025	-0.560807	0.279155
H71	H	-0.624860	-0.540861	0.455906
C72	C	-0.642944	-0.173893	0.469131
C73	C	-0.628611	-0.105601	0.458729
C74	C	-0.695417	-0.064632	0.507415
H75	H	-0.713181	-0.179600	0.464961
H76	H	-0.627733	-0.186715	0.513388
H77	H	-0.643830	-0.092783	0.414482
H78	H	-0.558388	-0.099873	0.462905
H79	H	-0.680206	-0.077454	0.551672
H80	H	-0.765649	-0.070345	0.503241
H81	H	-0.685694	-0.018292	0.500367
C82	C	-0.364077	-1.038621	0.752374
C83	C	-0.423230	-1.077111	0.797842
C84	C	-0.356561	-1.125943	0.827828
H85	H	-0.324262	-1.067751	0.718019
H86	H	-0.318550	-1.016502	0.776241
H87	H	-0.468739	-1.099229	0.773976
H88	H	-0.463043	-1.048000	0.832210
H89	H	-0.311034	-1.103824	0.851695
H90	H	-0.316749	-1.155068	0.793469
H91	H	-0.396686	-1.152060	0.858686
C92	C	-0.950645	-0.853058	0.451260
C93	C	-1.013235	-0.886265	0.499784
C94	C	-1.068097	-0.838606	0.547563
H95	H	-0.902716	-0.831147	0.473161
H96	H	-0.993351	-0.820120	0.428850
H97	H	-0.970532	-0.919191	0.522191
H98	H	-1.061183	-0.908174	0.477903
H99	H	-1.110803	-0.805667	0.525154
H100	H	-1.020160	-0.816697	0.569459
H101	H	-1.110577	-0.861129	0.580489
H102	H	-0.381979	-1.025393	0.971677
H103	H	-0.382044	-0.333282	0.279165
H104	H	-1.070157	-1.007714	0.296761
H105	H	-0.382007	-0.689054	0.279140
C106	C	-0.643079	-0.321315	0.469225
C107	C	-0.701669	-0.270418	0.511902
C108	C	-0.768632	-0.300127	0.560707
H109	H	-0.688650	-0.345125	0.447103
H110	H	-0.603179	-0.352177	0.495513
H111	H	-0.741566	-0.239568	0.485617
H112	H	-0.656126	-0.246605	0.534040
H113	H	-0.728733	-0.330990	0.586996
H114	H	-0.814197	-0.323937	0.538579
H115	H	-0.808387	-0.265600	0.589673
H116	H	-0.382106	-1.025338	0.615927
H117	H	-0.381933	-1.025414	1.099918
H118	H	-0.624418	-0.848322	1.119791
H119	H	-0.624530	-0.848265	0.764042
C120	C	-0.642698	-0.835003	0.983579
C121	C	-0.701214	-0.792281	1.034461
C122	C	-0.768165	-0.743410	1.004743
H123	H	-0.602826	-0.808742	0.952731
H124	H	-0.688309	-0.857096	0.959759
H125	H	-0.655609	-0.770190	1.058270
H126	H	-0.741108	-0.818523	1.065312
H127	H	-0.813776	-0.765503	0.980923
H128	H	-0.728285	-0.717154	0.973895
H129	H	-0.807884	-0.714421	1.039262
