data_functionalizedCrystal
_audit_creation_method	'MofGen! by Chris Wilmer'
_symmetry_space_group_name_H-M	'P1'
_symmetry_Int_Tables_number	1
_symmetry_cell_setting	triclinic
loop_
_symmetry_equiv_pos_as_xyz
  x,y,z
_cell_length_a	18.050590
_cell_length_b	25.639240
_cell_length_c	18.050583
_cell_angle_alpha	89.958294
_cell_angle_beta	89.997453
_cell_angle_gamma	90.021926
loop_
_atom_site_label
_atom_site_type_symbol
_atom_site_fract_x
_atom_site_fract_y
_atom_site_fract_z
Zn1	Zn	1.135293	-0.208284	-0.419554
Zn2	Zn	1.468627	0.125049	-0.086221
Zn3	Zn	1.801960	0.458382	0.247113
Zn4	Zn	1.135187	-0.295727	-0.295344
Zn5	Zn	1.468520	0.037606	0.037990
Zn6	Zn	1.801854	0.370940	0.371323
Zn7	Zn	1.011105	-0.208291	-0.295412
Zn8	Zn	1.344439	0.125042	0.037921
Zn9	Zn	1.677772	0.458376	0.371255
Zn10	Zn	1.011051	-0.295674	-0.419526
Zn11	Zn	1.344384	0.037659	-0.086193
Zn12	Zn	1.677717	0.370993	0.247140
O13	O	1.073159	-0.251994	-0.357459
O14	O	1.406492	0.081339	-0.024126
O15	O	1.739826	0.414673	0.309208
O16	O	1.239204	-0.219903	-0.403060
O17	O	1.572537	0.113430	-0.069727
O18	O	1.905870	0.446763	0.263607
O19	O	1.118706	-0.284154	-0.191428
O20	O	1.452039	0.049180	0.141905
O21	O	1.785372	0.382513	0.475238
O22	O	1.027646	-0.135125	-0.311920
O23	O	1.360980	0.198208	0.021414
O24	O	1.694313	0.531542	0.354747
O25	O	1.239126	-0.284147	-0.311804
O26	O	1.572459	0.049186	0.021530
O27	O	1.905792	0.382520	0.354863
O28	O	1.118887	-0.135120	-0.403126
O29	O	1.452220	0.198213	-0.069793
O30	O	1.785554	0.531547	0.263540
O31	O	1.027543	-0.219915	-0.191478
O32	O	1.360877	0.113419	0.141855
O33	O	1.694210	0.446752	0.475188
O34	O	0.907173	-0.219863	-0.311893
O35	O	1.240507	0.113470	0.021440
O36	O	1.573840	0.446804	0.354774
O37	O	1.027553	-0.284056	-0.523455
O38	O	1.360887	0.049277	-0.190121
O39	O	1.694220	0.382610	0.143212
O40	O	0.907133	-0.284063	-0.403079
O41	O	1.240467	0.049270	-0.069746
O42	O	1.573800	0.382604	0.263587
O43	O	1.118834	-0.219852	-0.523475
O44	O	1.452167	0.113482	-0.190142
O45	O	1.785501	0.446815	0.143192
O46	O	1.118653	-0.368885	-0.311777
O47	O	1.451986	-0.035552	0.021556
O48	O	1.785319	0.297781	0.354890
O49	O	1.027450	-0.368846	-0.403013
O50	O	1.360784	-0.035513	-0.069680
O51	O	1.694117	0.297820	0.263653
C52	C	0.880207	-0.251958	-0.357491
C53	C	1.213540	0.081375	-0.024158
C54	C	1.546874	0.414708	0.309176
C55	C	0.797661	-0.251956	-0.357522
C56	C	1.130994	0.081378	-0.024189
C57	C	1.464328	0.414711	0.309144
C58	C	0.598210	-0.286968	-0.406992
C59	C	0.931543	0.046366	-0.073658
C60	C	1.264877	0.379699	0.259675
C61	C	0.548823	-0.239293	-0.425278
C62	C	0.882157	0.094041	-0.091944
C63	C	1.215490	0.427374	0.241389
C64	C	0.646531	-0.251985	-0.357486
C65	C	0.979864	0.081348	-0.024153
C66	C	1.313197	0.414682	0.309181
C67	C	0.548836	-0.299687	-0.339199
C68	C	0.882169	0.033646	-0.005866
C69	C	1.215502	0.366979	0.327468
C70	C	0.500546	-0.252017	-0.357452
C71	C	0.833879	0.081316	-0.024119
C72	C	1.167212	0.414649	0.309214
C73	C	0.598231	-0.204284	-0.375808
C74	C	0.931565	0.129049	-0.042474
C75	C	1.264898	0.462382	0.290859
C76	C	0.598248	-0.264711	-0.289697
C77	C	0.931581	0.068622	0.043636
C78	C	1.264915	0.401955	0.376969
C79	C	0.548884	-0.217003	-0.307958
C80	C	0.882217	0.116330	0.025375
C81	C	1.215550	0.449663	0.358709
C82	C	0.730629	-0.251967	-0.357507
C83	C	1.063962	0.081366	-0.024174
C84	C	1.397296	0.414700	0.309159
C85	C	0.416449	-0.252030	-0.357431
C86	C	0.749782	0.081303	-0.024098
C87	C	1.083116	0.414637	0.309236
C88	C	1.073054	-0.387837	-0.357401
C89	C	1.406387	-0.054503	-0.024068
C90	C	1.739721	0.278830	0.309266
C91	C	1.073077	-0.445951	-0.357401
C92	C	1.406410	-0.112617	-0.024067
C93	C	1.739744	0.220716	0.309266
C94	C	1.120691	-0.806273	-0.405036
C95	C	1.454025	-0.472939	-0.071703
C96	C	1.787358	-0.139606	0.261631
C97	C	1.120713	-0.860877	-0.405051
C98	C	1.454047	-0.527544	-0.071718
C99	C	1.787380	-0.194210	0.261616
O100	O	1.161072	-0.889079	-0.445492
O101	O	1.494405	-0.555745	-0.112159
O102	O	1.827739	-0.222412	0.221174
N103	N	1.073262	-0.888233	-0.357531
N104	N	1.406595	-0.554900	-0.024197
N105	N	1.739929	-0.221566	0.309136
C106	C	1.025780	-0.860982	-0.309998
C107	C	1.359114	-0.527649	0.023336
C108	C	1.692447	-0.194315	0.356669
O109	O	0.985421	-0.889265	-0.269580
O110	O	1.318754	-0.555931	0.063754
O111	O	1.652088	-0.222598	0.397087
C112	C	1.025755	-0.806379	-0.309987
C113	C	1.359089	-0.473045	0.023347
C114	C	1.692422	-0.139712	0.356680
C115	C	1.073215	-0.779025	-0.357505
C116	C	1.406548	-0.445692	-0.024172
C117	C	1.739882	-0.112359	0.309162
C118	C	1.168147	-0.778919	-0.452551
C119	C	1.501480	-0.445586	-0.119217
C120	C	1.834813	-0.112253	0.214116
C121	C	1.168126	-0.724319	-0.452534
C122	C	1.501459	-0.390985	-0.119201
C123	C	1.834792	-0.057652	0.214132
C124	C	1.120649	-0.697072	-0.405003
C125	C	1.453983	-0.363738	-0.071670
C126	C	1.787316	-0.030405	0.261663
C127	C	1.073194	-0.724425	-0.357489
C128	C	1.406527	-0.391092	-0.024155
C129	C	1.739861	-0.057758	0.309178
C130	C	0.978271	-0.779129	-0.262458
C131	C	1.311604	-0.445795	0.070875
C132	C	1.644937	-0.112462	0.404209
C133	C	0.978249	-0.724522	-0.262452
C134	C	1.311582	-0.391188	0.070882
C135	C	1.644916	-0.057855	0.404215
C136	C	1.025709	-0.697168	-0.309970
C137	C	1.359042	-0.363835	0.023364
C138	C	1.692376	-0.030502	0.356697
C139	C	1.025696	-0.642577	-0.309941
C140	C	1.359030	-0.309244	0.023392
C141	C	1.692363	0.024089	0.356725
N142	N	1.073148	-0.615221	-0.357462
N143	N	1.406481	-0.281888	-0.024128
N144	N	1.739814	0.051446	0.309205
C145	C	1.120624	-0.642468	-0.404993
C146	C	1.453958	-0.309135	-0.071659
C147	C	1.787291	0.024198	0.261674
C148	C	1.025836	-0.975653	-0.310025
C149	C	1.359169	-0.642319	0.023309
C150	C	1.692503	-0.308986	0.356642
C151	C	1.025864	-1.030255	-0.310031
C152	C	1.359197	-0.696922	0.023302
C153	C	1.692531	-0.363588	0.356635
C154	C	1.120796	-1.030146	-0.405086
C155	C	1.454130	-0.696813	-0.071753
C156	C	1.787463	-0.363479	0.261581
C157	C	1.120771	-0.975543	-0.405075
C158	C	1.454105	-0.642209	-0.071742
C159	C	1.787438	-0.308876	0.261592
C160	C	1.073287	-0.948297	-0.357545
C161	C	1.406621	-0.614963	-0.024212
C162	C	1.739954	-0.281630	0.309122
C163	C	1.120577	-0.527803	-0.404954
C164	C	1.453910	-0.194470	-0.071621
C165	C	1.787243	0.138863	0.261712
C166	C	1.120554	-0.473198	-0.404932
C167	C	1.453887	-0.139865	-0.071598
C168	C	1.787220	0.193469	0.261735
C169	C	1.025619	-0.473312	-0.309880
C170	C	1.358952	-0.139978	0.023453
C171	C	1.692286	0.193355	0.356786
C172	C	1.025645	-0.527912	-0.309900
C173	C	1.358978	-0.194579	0.023433
C174	C	1.692311	0.138755	0.356767
C175	C	1.073126	-0.555157	-0.357443
C176	C	1.406459	-0.221823	-0.024110
C177	C	1.739793	0.111510	0.309224
O178	O	0.985356	-0.614341	-0.269523
O179	O	1.318690	-0.281007	0.063811
O180	O	1.652023	0.052326	0.397144
O181	O	1.160970	-0.614179	-0.445411
O182	O	1.494303	-0.280846	-0.112077
O183	O	1.827637	0.052488	0.221256
C184	C	1.266865	-0.252030	-0.357427
C185	C	1.600198	0.081303	-0.024094
C186	C	1.933531	0.414636	0.309239
C187	C	1.349410	-0.252046	-0.357414
C188	C	1.682744	0.081288	-0.024080
C189	C	2.016077	0.414621	0.309253
C190	C	1.073199	-0.251947	-0.551165
C191	C	1.406533	0.081386	-0.217831
C192	C	1.739866	0.414719	0.115502
C193	C	1.073217	-0.251927	-0.633711
C194	C	1.406550	0.081406	-0.300377
C195	C	1.739883	0.414739	0.032956
C196	C	1.073285	-0.115621	-0.357534
C197	C	1.406618	0.217712	-0.024200
C198	C	1.739951	0.551046	0.309133
C199	C	1.073338	-0.057507	-0.357565
C200	C	1.406671	0.275826	-0.024232
C201	C	1.740005	0.609160	0.309101
C202	C	1.122901	-0.216978	-0.882547
C203	C	1.456235	0.116356	-0.549214
C204	C	1.789568	0.449689	-0.215881
C205	C	1.141018	-0.264687	-0.833117
C206	C	1.474351	0.068646	-0.499784
C207	C	1.807684	0.401980	-0.166451
C208	C	1.073264	-0.251894	-0.930831
C209	C	1.406598	0.081439	-0.597498
C210	C	1.739931	0.414772	-0.264164
C211	C	1.055159	-0.204204	-0.833179
C212	C	1.388493	0.129129	-0.499846
C213	C	1.721826	0.462462	-0.166513
C214	C	1.073243	-0.251908	-0.784846
C215	C	1.406576	0.081425	-0.451513
C216	C	1.739909	0.414759	-0.118179
C217	C	1.091416	-0.299629	-0.882488
C218	C	1.424749	0.033705	-0.549155
C219	C	1.758083	0.367038	-0.215822
C220	C	1.005526	-0.239114	-0.882555
C221	C	1.338860	0.094220	-0.549221
C222	C	1.672193	0.427553	-0.215888
C223	C	1.023617	-0.286856	-0.833147
C224	C	1.356950	0.046477	-0.499814
C225	C	1.690284	0.379811	-0.166480
C226	C	1.073279	-0.251886	-1.014929
C227	C	1.406612	0.081448	-0.681596
C228	C	1.739946	0.414781	-0.348263
C229	C	1.073228	-0.251922	-0.700749
C230	C	1.406562	0.081411	-0.367416
C231	C	1.739895	0.414745	-0.034083
C232	C	1.073162	-0.252003	-0.164507
C233	C	1.406495	0.081330	0.168826
C234	C	1.739828	0.414664	0.502160
C235	C	1.073288	-0.251876	-0.081962
C236	C	1.406622	0.081458	0.251372
C237	C	1.739955	0.414791	0.584705
H238	H	0.527361	-0.187399	-0.266078
H239	H	0.860695	0.145934	0.067255
H240	H	1.194028	0.479267	0.400588
H241	H	1.198293	-0.275505	-0.811400
H242	H	1.531626	0.057828	-0.478067
H243	H	1.864959	0.391161	-0.144734
N244	N	0.520055	-0.225046	-0.501189
N245	N	0.853389	0.108287	-0.167856
N246	N	1.186722	0.441621	0.165478
H247	H	0.563156	-0.218899	-0.535799
H248	H	0.896489	0.114434	-0.202465
H249	H	1.229822	0.447767	0.130868
H250	H	0.488456	-0.254460	-0.520842
H251	H	0.821790	0.078873	-0.187509
H252	H	1.155123	0.412207	0.145824
N253	N	0.974627	-0.946272	-0.258743
N254	N	1.307960	-0.612939	0.074590
N255	N	1.641293	-0.279605	0.407924
H256	H	1.004819	-0.923625	-0.224341
H257	H	1.338153	-0.590291	0.108992
H258	H	1.671486	-0.256958	0.442325
H259	H	0.940185	-0.923645	-0.288940
H260	H	1.273519	-0.590311	0.044393
H261	H	1.606852	-0.256978	0.377727
N262	N	1.111786	-0.353075	-0.911047
N263	N	1.445119	-0.019742	-0.577714
N264	N	1.778452	0.313592	-0.244381
H265	H	1.074537	-0.379485	-0.892656
H266	H	1.407871	-0.046152	-0.559323
H267	H	1.741204	0.287181	-0.225989
H268	H	1.111702	-0.352690	-0.966997
H269	H	1.445036	-0.019357	-0.633663
H270	H	1.778369	0.313977	-0.300330
H271	H	0.987226	-1.052522	-0.271329
H272	H	1.320559	-0.719188	0.062004
H273	H	1.653892	-0.385855	0.395337
N274	N	1.172003	-1.059529	-0.456368
N275	N	1.505336	-0.726196	-0.123034
N276	N	1.838669	-0.392863	0.210299
H277	H	1.206451	-1.082190	-0.426225
H278	H	1.539784	-0.748856	-0.092891
H279	H	1.873117	-0.415523	0.240442
H280	H	1.141753	-1.082144	-0.490760
H281	H	1.475087	-0.748810	-0.157426
H282	H	1.808420	-0.415477	0.175907
N283	N	0.927083	-0.808623	-0.211204
N284	N	1.260416	-0.475289	0.122129
N285	N	1.593749	-0.141956	0.455462
H286	H	0.897005	-0.783068	-0.181100
H287	H	1.230338	-0.449735	0.152233
H288	H	1.563672	-0.116402	0.485567
H289	H	0.892703	-0.831274	-0.241417
H290	H	1.226037	-0.497941	0.091916
H291	H	1.559370	-0.164607	0.425250
H292	H	0.619838	-0.163945	-0.391325
H293	H	0.953171	0.169388	-0.057992
H294	H	1.286504	0.502722	0.275342
N295	N	1.034875	-0.150777	-0.804488
N296	N	1.368209	0.182557	-0.471154
N297	N	1.701542	0.515890	-0.137821
H298	H	1.034546	-0.151260	-0.748539
H299	H	1.367879	0.182073	-0.415205
H300	H	1.701212	0.515407	-0.081872
H301	H	1.072428	-0.124456	-0.822510
H302	H	1.405761	0.208877	-0.489177
H303	H	1.739095	0.542210	-0.155844
N304	N	0.627022	-0.278967	-0.213797
N305	N	0.960355	0.054366	0.119537
N306	N	1.293688	0.387699	0.452870
H307	H	0.609083	-0.315013	-0.200038
H308	H	0.942417	0.018320	0.133296
H309	H	1.275750	0.351653	0.466629
H310	H	0.682967	-0.278481	-0.214305
H311	H	1.016300	0.054852	0.119029
H312	H	1.349634	0.388186	0.452362
N313	N	0.927031	-0.695135	-0.211188
N314	N	1.260365	-0.361802	0.122146
N315	N	1.593698	-0.028468	0.455479
H316	H	0.896973	-0.720752	-0.181091
H317	H	1.230307	-0.387419	0.152243
H318	H	1.563640	-0.054086	0.485576
H319	H	0.957270	-0.672488	-0.176830
H320	H	1.290603	-0.339155	0.156504
H321	H	1.623936	-0.005821	0.489837
N322	N	0.968004	-0.326017	-0.804584
N323	N	1.301338	0.007316	-0.471250
N324	N	1.634671	0.340650	-0.137917
H325	H	0.943175	-0.343934	-0.847774
H326	H	1.276509	-0.010601	-0.514441
H327	H	1.609842	0.322732	-0.181108
H328	H	0.994229	-0.352811	-0.773035
H329	H	1.327562	-0.019477	-0.439701
H330	H	1.660896	0.313856	-0.106368
N331	N	0.520095	-0.353104	-0.318721
N332	N	0.853429	-0.019770	0.014612
N333	N	1.186762	0.313563	0.347945
H334	H	0.538040	-0.379486	-0.356165
H335	H	0.871374	-0.046152	-0.022832
H336	H	1.204707	0.287181	0.310501
H337	H	0.538856	-0.362927	-0.267882
H338	H	0.872189	-0.029593	0.065452
H339	H	1.205522	0.303740	0.398785
H340	H	1.159204	-0.450928	-0.443627
H341	H	1.492537	-0.117595	-0.110293
H342	H	1.825870	0.215738	0.223040
N343	N	1.171779	-0.557184	-0.456239
N344	N	1.505112	-0.223850	-0.122906
N345	N	1.838446	0.109483	0.210427
H346	H	1.201833	-0.531563	-0.486335
H347	H	1.535166	-0.198230	-0.153002
H348	H	1.868500	0.135103	0.180332
H349	H	1.206180	-0.579845	-0.426047
H350	H	1.539513	-0.246511	-0.092714
H351	H	1.872846	0.086822	0.240619
N352	N	0.929679	-0.224769	-0.911343
N353	N	1.263012	0.108565	-0.578009
N354	N	1.596346	0.441898	-0.244676
H355	H	0.916054	-0.188713	-0.893439
H356	H	1.249387	0.144620	-0.560106
H357	H	1.582721	0.477953	-0.226773
H358	H	0.930188	-0.225238	-0.967288
H359	H	1.263521	0.108095	-0.633954
H360	H	1.596855	0.441429	-0.300621
H361	H	1.206769	-0.702051	-0.491230
H362	H	1.540102	-0.368718	-0.157896
H363	H	1.873436	-0.035384	0.175437
H364	H	1.206808	-0.801098	-0.491261
H365	H	1.540141	-0.467765	-0.157927
H366	H	1.873474	-0.134431	0.175406
H367	H	0.987005	-0.550184	-0.271201
H368	H	1.320338	-0.216851	0.062132
H369	H	1.653672	0.116482	0.395466
N370	N	0.626901	-0.326091	-0.462500
N371	N	0.960235	0.007242	-0.129167
N372	N	1.293568	0.340576	0.204166
H373	H	0.608920	-0.316419	-0.513682
H374	H	0.942253	0.016914	-0.180348
H375	H	1.275587	0.350247	0.152985
H376	H	0.682847	-0.326023	-0.461725
H377	H	1.016181	0.007311	-0.128392
H378	H	1.349514	0.340644	0.204942
H379	H	0.986966	-0.451118	-0.271179
H380	H	1.320300	-0.117785	0.062155
H381	H	1.653633	0.215548	0.395488
N382	N	1.171958	-0.946042	-0.456327
N383	N	1.505291	-0.612709	-0.122993
N384	N	1.838625	-0.279376	0.210340
H385	H	1.202036	-0.971594	-0.486435
H386	H	1.535370	-0.638260	-0.153102
H387	H	1.868703	-0.304927	0.180232
H388	H	1.141699	-0.923382	-0.490674
H389	H	1.475032	-0.590049	-0.157341
H390	H	1.808365	-0.256716	0.175992
H391	H	1.164919	-0.187481	-0.904237
H392	H	1.498252	0.145853	-0.570904
H393	H	1.831585	0.479186	-0.237570
