data_functionalizedCrystal
_audit_creation_method	'MofGen! by Chris Wilmer'
_symmetry_space_group_name_H-M	'P1'
_symmetry_Int_Tables_number	1
_symmetry_cell_setting	triclinic
loop_
_symmetry_equiv_pos_as_xyz
  x,y,z
_cell_length_a	10.723023
_cell_length_b	27.731996
_cell_length_c	9.798715
_cell_angle_alpha	89.990899
_cell_angle_beta	89.996449
_cell_angle_gamma	83.544468
loop_
_atom_site_label
_atom_site_type_symbol
_atom_site_fract_x
_atom_site_fract_y
_atom_site_fract_z
O1	O	1.654350	0.067789	-0.113507
O2	O	1.290926	0.074278	-0.113513
O3	O	1.483959	0.000705	-0.113480
O4	O	1.461317	0.141362	-0.113540
O5	O	1.483945	0.000705	0.113502
O6	O	1.290911	0.074278	0.113470
O7	O	1.654336	0.067789	0.113475
Zn8	Zn	1.472621	0.071033	0.149511
Zn9	Zn	1.472640	0.071034	-0.149548
O10	O	1.461302	0.141362	0.113443
C11	C	1.244439	0.073806	-0.000022
C12	C	1.105944	0.072393	-0.000023
C13	C	1.483487	-0.017305	0.000016
C14	C	1.482086	-0.070970	0.000029
C15	C	0.901056	0.070303	0.117557
C16	C	1.044198	0.071763	0.117560
C17	C	1.473279	-0.403741	-0.123765
C18	C	1.467959	-0.605432	-0.123789
O19	O	1.467224	-0.631507	-0.229016
N20	N	1.467291	-0.630654	-0.000063
C21	C	1.467944	-0.605449	0.123679
O22	O	1.467240	-0.631528	0.228916
C23	C	1.473255	-0.403758	0.123702
C24	C	1.473936	-0.378540	-0.000033
C25	C	1.473959	-0.378523	-0.247490
C26	C	1.475296	-0.328103	-0.247483
C27	C	1.475953	-0.302902	-0.123751
C28	C	1.475273	-0.328120	-0.000026
C29	C	1.473899	-0.378553	0.247442
C30	C	1.475224	-0.328127	0.247437
C31	C	1.475905	-0.302909	0.123702
C32	C	1.477267	-0.252500	0.123713
N33	N	1.477935	-0.227278	-0.000013
C34	C	1.477278	-0.252479	-0.123746
C35	C	1.465158	-0.711339	0.123658
C36	C	1.463833	-0.761762	0.123653
C37	C	1.463846	-0.761742	-0.123816
C38	C	1.465180	-0.711319	-0.123809
C39	C	1.465827	-0.686118	-0.000068
C40	C	1.480087	-0.146595	-0.123721
C41	C	1.481429	-0.096171	-0.123703
C42	C	1.481409	-0.096195	0.123765
C43	C	1.480074	-0.146615	0.123748
C44	C	1.479408	-0.171813	-0.000006
O45	O	1.477988	-0.226393	0.228885
O46	O	1.477954	-0.226390	-0.228967
C47	C	1.471942	-0.454160	-0.123773
C48	C	1.471263	-0.479379	-0.000048
C49	C	1.471920	-0.454177	0.123684
C50	C	1.469937	-0.529801	-0.000053
C51	C	1.469280	-0.555003	-0.123785
C52	C	1.469949	-0.529781	-0.247512
C53	C	1.471285	-0.479362	-0.247505
C54	C	1.471251	-0.479399	0.247411
C55	C	1.469916	-0.529818	0.247394
C56	C	1.469259	-0.555020	0.123662
C57	C	1.700823	0.068261	-0.000019
C58	C	1.839318	0.069674	-0.000027
C59	C	1.461775	0.159372	-0.000056
C60	C	1.463176	0.213037	-0.000079
N61	N	1.472618	0.071033	0.353610
N62	N	1.472654	0.071030	-0.353648
C63	C	1.553673	0.040005	0.421401
C64	C	1.553693	0.040004	0.578564
H65	H	0.847939	0.069764	0.218222
Cl66	Cl	0.921313	0.070514	-0.155455
H67	H	1.052859	0.071851	-0.100696
H68	H	1.623092	0.013442	0.636860
H69	H	1.463297	-0.782291	0.224410
Cl70	Cl	1.482288	-0.064472	-0.279267
Cl71	Cl	1.479252	-0.178265	-0.279300
Cl72	Cl	1.476140	-0.296407	-0.403044
H73	H	1.403260	0.097597	0.588064
H74	H	1.473419	-0.399036	-0.348253
H75	H	1.403233	0.097594	0.411923
H76	H	1.623049	0.013441	0.363090
H77	H	1.471839	-0.458834	-0.348263
H78	H	1.463312	-0.782269	-0.224564
Cl79	Cl	1.126164	0.072596	0.272992
Cl80	Cl	1.466032	-0.679621	-0.279367
Cl81	Cl	1.465965	-0.679665	0.279235
H82	H	1.475732	-0.307611	0.348204
Cl83	Cl	1.473035	-0.410243	0.403005
Cl84	Cl	1.479241	-0.178320	0.279302
H85	H	1.481950	-0.075668	0.224505
H86	H	1.469419	-0.550309	-0.348259
H87	H	1.469371	-0.550347	0.348161
H88	H	1.471788	-0.458885	0.348171
