data_functionalizedCrystal
_audit_creation_method	'MofGen! by Chris Wilmer'
_symmetry_space_group_name_H-M	'P1'
_symmetry_Int_Tables_number	1
_symmetry_cell_setting	triclinic
loop_
_symmetry_equiv_pos_as_xyz
  x,y,z
_cell_length_a	12.594517
_cell_length_b	17.077402
_cell_length_c	17.077404
_cell_angle_alpha	89.990103
_cell_angle_beta	89.998969
_cell_angle_gamma	90.025089
loop_
_atom_site_label
_atom_site_type_symbol
_atom_site_fract_x
_atom_site_fract_y
_atom_site_fract_z
Zn1	Zn	-1.627073	0.312628	0.443696
Zn2	Zn	-1.626978	0.443863	0.312432
Zn3	Zn	-1.449116	0.312617	0.312460
Zn4	Zn	-1.449034	0.443858	0.443672
O5	O	-1.538050	0.378241	0.378065
O6	O	-1.776006	0.330044	0.426281
O7	O	-1.603378	0.426450	0.202589
O8	O	-1.472797	0.202771	0.329890
O9	O	-1.775936	0.426461	0.329842
O10	O	-1.603542	0.202780	0.426308
O11	O	-1.472704	0.330024	0.202610
O12	O	-1.300160	0.330019	0.329868
O13	O	-1.472656	0.426452	0.553522
O14	O	-1.300099	0.426441	0.426269
O15	O	-1.603461	0.330039	0.553539
O16	O	-1.603298	0.553709	0.329820
O17	O	-1.472564	0.553705	0.426241
C18	C	-1.261509	0.378229	0.378069
C19	C	-1.143204	0.378243	0.378090
C20	C	-1.003185	0.430783	0.430426
C21	C	-1.073973	0.449863	0.358783
C22	C	-1.073987	0.359197	0.449725
C23	C	-1.003206	0.397388	0.306387
C24	C	-1.003214	0.306688	0.397377
C25	C	-1.073970	0.325741	0.325685
C26	C	-1.537940	0.582189	0.378042
C27	C	-1.537991	0.669439	0.378058
C28	C	-0.815671	0.378257	0.378063
C29	C	-0.933976	0.378270	0.378068
C30	C	-1.606132	0.710405	0.327907
C31	C	-1.606182	0.792386	0.327931
C32	C	-1.538083	0.833398	0.378102
C33	C	-1.469939	0.792427	0.428259
C34	C	-1.469895	0.710448	0.428239
C35	C	-1.470031	0.963297	0.428295
C36	C	-1.470073	1.045281	0.428315
C37	C	-1.606318	1.045235	0.327988
C38	C	-1.606274	0.963256	0.327968
C39	C	-1.538128	0.922289	0.378123
C40	C	-1.538060	0.378246	0.582809
C41	C	-1.538065	0.378248	0.670059
C42	C	-1.538181	1.173497	0.378116
C43	C	-1.538214	1.086247	0.378163
C44	C	-1.606166	0.328054	0.711059
C45	C	-1.606158	0.328053	0.793040
C46	C	-1.538051	0.378251	0.834018
C47	C	-1.469942	0.428447	0.793012
C48	C	-1.469947	0.428444	0.711033
C49	C	-1.469940	0.428452	0.963882
C50	C	-1.469937	0.428457	1.045867
C51	C	-1.606151	0.328062	1.045889
C52	C	-1.606155	0.328058	0.963910
C53	C	-1.538047	0.378256	0.922909
C54	C	-1.538035	0.378257	1.174117
C55	C	-1.538038	0.378263	1.086867
H56	H	-1.105079	0.343077	0.510314
F57	F	-1.397454	0.481869	0.836627
F58	F	-1.397461	0.481865	0.667398
F59	F	-1.678607	0.666763	0.274503
F60	F	-1.678751	0.919608	0.274569
F61	F	-1.678711	0.835981	0.274555
F62	F	-0.962743	0.418551	0.227169
H63	H	-1.661808	1.078593	0.287151
F64	F	-1.397585	1.088929	0.481705
H65	H	-1.104854	0.281321	0.281365
F66	F	-1.397449	0.481877	0.920249
H67	H	-1.414543	0.929945	0.469140
H68	H	-0.972105	0.475237	0.474639
H69	H	-1.414496	0.825826	0.469112
H70	H	-1.105054	0.510387	0.342455
F71	F	-0.962554	0.227602	0.418746
F72	F	-1.397373	0.666849	0.481618
F73	F	-1.678661	0.274630	0.667454
H74	H	-1.661615	0.287182	0.826419
F75	F	-1.678647	0.274637	0.920299
H76	H	-1.661605	0.287188	1.079275
F77	F	-1.397442	0.481877	1.089478
