data_functionalizedCrystal
_audit_creation_method	'MofGen! by Chris Wilmer'
_symmetry_space_group_name_H-M	'P1'
_symmetry_Int_Tables_number	1
_symmetry_cell_setting	triclinic
loop_
_symmetry_equiv_pos_as_xyz
  x,y,z
_cell_length_a	12.594517
_cell_length_b	13.897448
_cell_length_c	13.897441
_cell_angle_alpha	90.030599
_cell_angle_beta	90.012353
_cell_angle_gamma	90.013579
loop_
_atom_site_label
_atom_site_type_symbol
_atom_site_fract_x
_atom_site_fract_y
_atom_site_fract_z
Zn1	Zn	1.627264	-0.384090	0.545165
Zn2	Zn	2.127264	0.115910	1.045165
Zn3	Zn	1.627147	-0.545412	0.383867
Zn4	Zn	2.127147	-0.045412	0.883867
Zn5	Zn	1.449265	-0.384121	0.383907
Zn6	Zn	1.949265	0.115879	0.883907
Zn7	Zn	1.449245	-0.545333	0.545143
Zn8	Zn	1.949245	-0.045333	1.045143
O9	O	1.538230	-0.464739	0.464521
O10	O	2.038230	0.035261	0.964521
O11	O	1.776194	-0.405510	0.523761
O12	O	2.276194	0.094490	1.023761
O13	O	1.603510	-0.524062	0.248890
O14	O	2.103510	-0.024062	0.748890
O15	O	1.472934	-0.249135	0.405325
O16	O	1.972934	0.250865	0.905325
O17	O	1.776108	-0.524032	0.405256
O18	O	2.276108	-0.024032	0.905256
O19	O	1.603709	-0.249113	0.523801
O20	O	2.103709	0.250887	1.023801
O21	O	1.472821	-0.405562	0.248920
O22	O	1.972821	0.094438	0.748920
O23	O	1.300317	-0.405486	0.405303
O24	O	1.800317	0.094514	0.905303
O25	O	1.472900	-0.523898	0.680128
O26	O	1.972900	-0.023898	1.180128
O27	O	1.300302	-0.523928	0.523762
O28	O	1.800302	-0.023928	1.023762
O29	O	1.603690	-0.405434	0.680144
O30	O	2.103690	0.094566	1.180144
O31	O	1.603490	-0.680383	0.405234
O32	O	2.103490	-0.180383	0.905234
O33	O	1.472787	-0.680325	0.523723
O34	O	1.972787	-0.180325	1.023723
C35	C	1.261689	-0.464703	0.464535
C36	C	1.761689	0.035297	0.964535
C37	C	1.143384	-0.464710	0.464564
C38	C	1.643384	0.035290	0.964564
C39	C	1.538153	-0.715353	0.464493
C40	C	2.038153	-0.215353	0.964493
C41	C	1.538217	-0.822567	0.464513
C42	C	2.038217	-0.322567	0.964513
C43	C	1.538328	-1.018862	0.464574
C44	C	2.038328	-0.518862	0.964574
C45	C	1.538263	-0.909630	0.464543
C46	C	2.038263	-0.409630	0.964543
C47	C	1.074154	-0.529257	0.528870
C48	C	1.574154	-0.029257	1.028870
C49	C	1.003348	-0.441309	0.552597
C50	C	1.503348	0.058691	1.052597
C51	C	1.003390	-0.552730	0.440816
C52	C	1.503390	-0.052730	0.940816
C53	C	1.074137	-0.376716	0.488338
C54	C	1.574137	0.123284	0.988338
C55	C	1.074185	-0.488196	0.376516
C56	C	1.574185	0.011804	0.876516
C57	C	1.003412	-0.400188	0.400209
C58	C	1.503412	0.099812	0.900209
C59	C	1.815851	-0.464776	0.464506
C60	C	2.315851	0.035224	0.964506
C61	C	1.934156	-0.464792	0.464500
C62	C	2.434156	0.035208	0.964500
C63	C	1.538306	-0.464654	0.716114
C64	C	2.038306	0.035346	1.216114
C65	C	1.538338	-0.464617	0.823328
C66	C	2.038338	0.035383	1.323328
C67	C	1.538337	-0.213146	0.464570
C68	C	2.038337	0.286854	0.964570
C69	C	1.538383	-0.105932	0.464591
C70	C	2.038383	0.394068	0.964591
C71	C	1.538216	-0.464754	0.213906
C72	C	2.038216	0.035246	0.713906
C73	C	1.538390	-0.464519	0.106693
C74	C	2.038390	0.035481	0.606693
C75	C	1.538367	-0.464552	1.019623
C76	C	2.038367	0.035448	1.519623
C77	C	1.538347	-0.464591	0.910390
C78	C	2.038347	0.035409	1.410390
H79	H	1.105218	-0.583737	0.583321
H80	H	1.605218	-0.083737	1.083321
C81	C	0.961297	-0.414520	0.653150
C82	C	1.461297	0.085480	1.153150
N83	N	0.929623	-0.394351	0.728888
N84	N	1.429623	0.105649	1.228888
H85	H	1.105083	-0.302291	0.508482
H86	H	1.605083	0.197709	1.008482
C87	C	0.961703	-0.326409	0.326710
C88	C	1.461703	0.173591	0.826710
N89	N	0.930284	-0.270836	0.271356
N90	N	1.430284	0.229164	0.771356
H91	H	1.105324	-0.508058	0.302103
H92	H	1.605324	-0.008058	0.802103
C93	C	0.961421	-0.653248	0.413706
C94	C	1.461421	-0.153248	0.913706
N95	N	0.929818	-0.728961	0.393291
N96	N	1.429818	-0.228961	0.893291
