data_functionalizedCrystal
_audit_creation_method	'MofGen! by Chris Wilmer'
_symmetry_space_group_name_H-M	'P1'
_symmetry_Int_Tables_number	1
_symmetry_cell_setting	triclinic
loop_
_symmetry_equiv_pos_as_xyz
  x,y,z
_cell_length_a	14.044220
_cell_length_b	14.044190
_cell_length_c	11.892095
_cell_angle_alpha	94.240074
_cell_angle_beta	85.750402
_cell_angle_gamma	93.190328
loop_
_atom_site_label
_atom_site_type_symbol
_atom_site_fract_x
_atom_site_fract_y
_atom_site_fract_z
O1	O	1.282756	0.224587	-0.093905
O2	O	1.006086	0.216279	-0.093933
O3	O	1.140263	0.082098	-0.093897
O4	O	1.148579	0.358768	-0.093941
O5	O	1.129074	0.093267	0.094108
O6	O	0.994897	0.227448	0.094072
O7	O	1.271567	0.235756	0.094100
Zn8	Zn	1.131455	0.233375	0.123935
Zn9	Zn	1.146197	0.218660	-0.123769
O10	O	1.137390	0.369937	0.094064
C11	C	0.964870	0.218228	0.000066
C12	C	0.858727	0.207383	0.000057
C13	C	0.664388	0.187558	0.000082
C14	C	0.613260	0.264472	0.000075
C15	C	0.505123	0.253442	0.000089
C16	C	0.772535	0.198587	0.000068
C17	C	1.131032	0.052061	0.000108
C18	C	1.120184	-0.054082	0.000117
C19	C	1.177287	-0.299542	0.000078
C20	C	1.100371	-0.248417	0.000079
C21	C	1.111398	-0.140279	0.000100
C22	C	1.166262	-0.407690	0.000057
C23	C	1.312783	0.233807	0.000098
C24	C	1.418926	0.244652	0.000100
C25	C	1.146621	0.399974	0.000056
C26	C	1.157469	0.506116	0.000040
N27	N	1.121401	0.243418	0.292987
N28	N	1.156259	0.208610	-0.292820
C29	C	1.226215	0.138671	0.529663
C30	C	1.219195	0.145699	0.648003
C31	C	1.100336	0.264495	0.648009
C32	C	1.107356	0.257468	0.529669
C33	C	1.170299	0.194555	0.470500
C34	C	1.177324	0.187533	0.352158
C35	C	1.058461	0.306324	0.352166
C36	C	1.051440	0.313351	0.470506
H37	H	0.626948	0.113431	0.000100
N38	N	1.002172	-0.298006	0.000058
H39	H	1.008109	-0.369347	0.000048
H40	H	0.962216	-0.274750	0.069757
N41	N	1.275478	-0.249952	0.000120
H42	H	1.269534	-0.178611	0.000141
H43	H	1.307124	-0.264964	0.069827
N44	N	0.662851	0.362669	0.000022
H45	H	0.613662	0.412463	0.000011
H46	H	0.699934	0.374736	0.069704
N47	N	0.998135	0.366599	0.288365
H48	H	1.013639	0.436516	0.308953
H49	H	1.012153	0.352528	0.204437
H50	H	1.264726	0.100192	0.696170
H51	H	1.228577	0.136309	0.303983
N52	N	1.294109	0.070831	0.465835
H53	H	1.328472	0.036498	0.521273
H54	H	1.256906	0.022596	0.416745
N55	N	1.032441	0.332334	0.711836
H56	H	1.036477	0.328299	0.795781
H57	H	1.050419	0.399776	0.691153
H58	H	1.000191	0.364572	0.518695
