data_functionalizedCrystal
_audit_creation_method	'MofGen! by Chris Wilmer'
_symmetry_space_group_name_H-M	'P1'
_symmetry_Int_Tables_number	1
_symmetry_cell_setting	triclinic
loop_
_symmetry_equiv_pos_as_xyz
  x,y,z
_cell_length_a	14.908571
_cell_length_b	16.625546
_cell_length_c	14.908308
_cell_angle_alpha	86.735930
_cell_angle_beta	89.824947
_cell_angle_gamma	86.718495
loop_
_atom_site_label
_atom_site_type_symbol
_atom_site_fract_x
_atom_site_fract_y
_atom_site_fract_z
Zn1	Zn	1.345280	-0.420778	0.587557
Zn2	Zn	1.845280	0.079222	1.087557
Zn3	Zn	1.353856	-0.548312	0.437189
Zn4	Zn	1.853856	-0.048312	0.937189
Zn5	Zn	1.203596	-0.405291	0.428555
Zn6	Zn	1.703596	0.094709	0.928555
Zn7	Zn	1.194884	-0.547354	0.578841
Zn8	Zn	1.694884	-0.047354	1.078841
O9	O	1.274404	-0.480434	0.508036
O10	O	1.774404	0.019566	1.008036
O11	O	1.472243	-0.444578	0.574871
O12	O	1.972243	0.055422	1.074871
O13	O	1.341159	-0.523260	0.310220
O14	O	1.841159	-0.023260	0.810220
O15	O	1.222448	-0.294517	0.449681
O16	O	1.722448	0.205483	0.949681
O17	O	1.478544	-0.538277	0.464397
O18	O	1.978544	-0.038277	0.964397
O19	O	1.326543	-0.305896	0.566499
O20	O	1.826543	0.194104	1.066499
O21	O	1.230763	-0.418182	0.303876
O22	O	1.730763	0.081818	0.803876
O23	O	1.076615	-0.417254	0.441230
O24	O	1.576615	0.082746	0.941230
O25	O	1.207599	-0.536644	0.705821
O26	O	1.707599	-0.036644	1.205821
O27	O	1.070214	-0.521627	0.551644
O28	O	1.570214	-0.021627	1.051644
O29	O	1.318095	-0.443649	0.712225
O30	O	1.818095	0.056351	1.212225
O31	O	1.332711	-0.661013	0.455945
O32	O	1.832711	-0.161013	0.955945
O33	O	1.215914	-0.660309	0.560016
O34	O	1.715914	-0.160309	1.060016
C35	C	1.040789	-0.467656	0.494555
C36	C	1.540789	0.032344	0.994555
C37	C	0.940846	-0.462211	0.488810
C38	C	1.440846	0.037789	0.988810
C39	C	0.746435	-0.560814	0.592833
C40	C	1.246435	-0.060814	1.092833
C41	C	0.652530	-0.555700	0.587437
C42	C	1.152530	-0.055700	1.087437
C43	C	0.659128	-0.446865	0.472629
C44	C	1.159128	0.053135	0.972629
C45	C	0.753033	-0.451979	0.478024
C46	C	1.253033	0.048021	0.978024
C47	C	0.796683	-0.508956	0.538127
C48	C	1.296683	-0.008956	1.038127
C49	C	0.890591	-0.514074	0.543517
C50	C	1.390591	-0.014074	1.043517
C51	C	0.897187	-0.405236	0.428714
C52	C	1.397187	0.094764	0.928714
C53	C	0.803282	-0.400121	0.423318
C54	C	1.303282	0.099879	0.923318
C55	C	1.274321	-0.689918	0.507993
C56	C	1.774321	-0.189918	1.007993
C57	C	1.274366	-0.779542	0.508010
C58	C	1.774366	-0.279542	1.008010
C59	C	1.274517	-1.107731	0.508112
C60	C	1.774517	-0.607731	1.008112
C61	C	1.274472	-1.016419	0.508086
C62	C	1.774472	-0.516419	1.008086
C63	C	1.274441	-0.943640	0.508060
C64	C	1.774441	-0.443640	1.008060
C65	C	1.274397	-0.852322	0.508035
C66	C	1.774397	-0.352322	1.008035
C67	C	1.508931	-0.493262	0.521569
C68	C	2.008931	0.006738	1.021569
C69	C	1.608873	-0.498728	0.527336
C70	C	2.108873	0.001272	1.027336
C71	C	1.260918	-0.491767	0.742560
C72	C	1.760918	0.008233	1.242560
C73	C	1.255172	-0.496597	0.842501
C74	C	1.755172	0.003403	1.342501
C75	C	1.274511	-0.270134	0.508099
C76	C	1.774511	0.229866	1.008099
C77	C	1.274556	-0.180516	0.508127
C78	C	1.774556	0.319484	1.008127
C79	C	1.287889	-0.469089	0.274426
C80	C	1.787889	0.030911	0.774426
C81	C	1.293810	-0.464042	0.174497
C82	C	1.793810	0.035958	0.674497
C83	C	1.359429	-0.408817	1.036969
C84	C	1.859429	0.091183	1.536969
C85	C	1.354033	-0.413353	1.130872
C86	C	1.854033	0.086647	1.630872
C87	C	1.238977	-0.510198	1.124211
C88	C	1.738977	-0.010198	1.624211
C89	C	1.244374	-0.505662	1.030308
C90	C	1.744374	-0.005662	1.530308
C91	C	1.304603	-0.454971	0.986690
C92	C	1.804603	0.045029	1.486690
C93	C	1.310004	-0.450441	0.892786
C94	C	1.810004	0.049559	1.392786
C95	C	1.194945	-0.547281	0.886127
C96	C	1.694945	-0.047281	1.386127
C97	C	1.189548	-0.551817	0.980030
C98	C	1.689548	-0.051817	1.480030
H99	H	0.938110	-0.363011	0.384166
H100	H	1.438110	0.136989	0.884166
H101	H	0.926129	-0.560469	0.592455
H102	H	1.426129	-0.060469	1.092455
H103	H	1.189942	-0.551467	1.159741
H104	H	1.689942	-0.051467	1.659741
Br105	Br	0.744034	-0.322794	0.341760
Br106	Br	1.244034	0.177206	0.841760
Br107	Br	1.391746	-0.381652	0.833590
Br108	Br	1.891746	0.118348	1.333590
Br109	Br	0.599872	-0.369531	0.391084
Br110	Br	1.099872	0.130469	0.891084
Br111	Br	0.805680	-0.638148	0.674386
Br112	Br	1.305680	-0.138148	1.174386
Br113	Br	0.584336	-0.626077	0.661688
Br114	Br	1.084336	-0.126077	1.161688
Br115	Br	1.107810	-0.620605	1.039234
Br116	Br	1.607810	-0.120605	1.539234
Br117	Br	1.441179	-0.340037	0.977769
Br118	Br	1.941179	0.159963	1.477769
H119	H	1.398676	-0.375767	1.171805
H120	H	1.898676	0.124233	1.671805
H121	H	1.150303	-0.584866	0.845180
H122	H	1.650303	-0.084866	1.345180
