data_functionalizedCrystal
_audit_creation_method	'MofGen! by Chris Wilmer'
_symmetry_space_group_name_H-M	'P1'
_symmetry_Int_Tables_number	1
_symmetry_cell_setting	triclinic
loop_
_symmetry_equiv_pos_as_xyz
  x,y,z
_cell_length_a	19.077105
_cell_length_b	19.121111
_cell_length_c	19.077174
_cell_angle_alpha	85.193718
_cell_angle_beta	85.483752
_cell_angle_gamma	89.735527
loop_
_atom_site_label
_atom_site_type_symbol
_atom_site_fract_x
_atom_site_fract_y
_atom_site_fract_z
Zn1	Zn	1.079653	0.341256	-0.455855
Zn2	Zn	1.329653	0.591256	-0.205855
Zn3	Zn	1.579653	0.841256	0.044145
Zn4	Zn	1.829653	1.091256	0.294145
Zn5	Zn	1.070204	0.453789	-0.342588
Zn6	Zn	1.320204	0.703789	-0.092588
Zn7	Zn	1.570204	0.953789	0.157412
Zn8	Zn	1.820204	1.203789	0.407412
Zn9	Zn	0.957442	0.331438	-0.332850
Zn10	Zn	1.207442	0.581438	-0.082850
Zn11	Zn	1.457442	0.831438	0.167150
Zn12	Zn	1.707442	1.081438	0.417150
Zn13	Zn	0.957100	0.453743	-0.455704
Zn14	Zn	1.207100	0.703743	-0.205704
Zn15	Zn	1.457100	0.953743	0.044296
Zn16	Zn	1.707100	1.203743	0.294296
O17	O	1.016100	0.395056	-0.396749
O18	O	1.266100	0.645056	-0.146749
O19	O	1.516100	0.895056	0.103251
O20	O	1.766100	1.145056	0.353251
O21	O	1.176880	0.360311	-0.444969
O22	O	1.426880	0.610311	-0.194969
O23	O	1.676880	0.860311	0.055031
O24	O	1.926880	1.110311	0.305031
O25	O	1.051435	0.433469	-0.242478
O26	O	1.301435	0.683469	0.007522
O27	O	1.551435	0.933469	0.257522
O28	O	1.801435	1.183469	0.507522
O29	O	0.977752	0.234459	-0.345154
O30	O	1.227752	0.484459	-0.095154
O31	O	1.477752	0.734459	0.154846
O32	O	1.727752	0.984459	0.404846
O33	O	1.169938	0.442989	-0.361752
O34	O	1.419938	0.692989	-0.111752
O35	O	1.669938	0.942989	0.138248
O36	O	1.919938	1.192989	0.388248
O37	O	1.067539	0.241672	-0.435526
O38	O	1.317539	0.491672	-0.185526
O39	O	1.567539	0.741672	0.064474
O40	O	1.817539	0.991672	0.314474
O41	O	0.968589	0.343578	-0.235324
O42	O	1.218589	0.593578	0.014676
O43	O	1.468589	0.843578	0.264676
O44	O	1.718589	1.093578	0.514676
O45	O	0.858917	0.343534	-0.345008
O46	O	1.108917	0.593534	-0.095008
O47	O	1.358917	0.843534	0.154992
O48	O	1.608917	1.093534	0.404992
O49	O	0.977168	0.442911	-0.554542
O50	O	1.227168	0.692911	-0.304542
O51	O	1.477168	0.942911	-0.054542
O52	O	1.727168	1.192911	0.195458
O53	O	0.858665	0.433391	-0.435268
O54	O	1.108665	0.683391	-0.185268
O55	O	1.358665	0.933391	0.064732
O56	O	1.608665	1.183391	0.314732
O57	O	1.067207	0.360267	-0.554653
O58	O	1.317207	0.610267	-0.304653
O59	O	1.567207	0.860267	-0.054653
O60	O	1.817207	1.110267	0.195347
O61	O	1.051103	0.552064	-0.361605
O62	O	1.301103	0.802064	-0.111605
O63	O	1.551103	1.052064	0.138395
O64	O	1.801103	1.302064	0.388395
O65	O	0.968005	0.552030	-0.444711
O66	O	1.218005	0.802030	-0.194711
O67	O	1.468005	1.052030	0.055289
O68	O	1.718005	1.302030	0.305289
C69	C	0.833256	0.387392	-0.389065
C70	C	1.083256	0.637392	-0.139065
C71	C	1.333256	0.887392	0.110935
C72	C	1.583256	1.137392	0.360935
C73	C	0.755035	0.384131	-0.385795
C74	C	1.005035	0.634131	-0.135795
C75	C	1.255035	0.884131	0.114205
C76	C	1.505035	1.134131	0.364205
C77	C	0.718168	0.429448	-0.431185
C78	C	0.968168	0.679448	-0.181185
C79	C	1.218168	0.929448	0.068815
C80	C	1.468168	1.179448	0.318815
C81	C	0.644671	0.426375	-0.428115
C82	C	0.894671	0.676375	-0.178115
C83	C	1.144671	0.926375	0.071885
C84	C	1.394671	1.176375	0.321885
C85	C	0.608042	0.377988	-0.379653
C86	C	0.858042	0.627988	-0.129653
C87	C	1.108042	0.877988	0.120347
C88	C	1.358042	1.127988	0.370347
C89	C	0.644914	0.332667	-0.334261
C90	C	0.894914	0.582667	-0.084261
C91	C	1.144914	0.832667	0.165739
C92	C	1.394914	1.082667	0.415739
C93	C	0.718410	0.335737	-0.337335
C94	C	0.968410	0.585737	-0.087335
C95	C	1.218410	0.835737	0.162665
C96	C	1.468410	1.085737	0.412665
C97	C	0.388246	0.363778	-0.365433
C98	C	0.638246	0.613778	-0.115433
C99	C	0.888246	0.863778	0.134567
C100	C	1.138246	1.113778	0.384567
C101	C	0.314745	0.360713	-0.362361
C102	C	0.564745	0.610713	-0.112361
C103	C	0.814745	0.860713	0.137639
C104	C	1.064745	1.110713	0.387639
C105	C	0.314508	0.454421	-0.456217
C106	C	0.564508	0.704421	-0.206217
C107	C	0.814508	0.954421	0.043783
C108	C	1.064508	1.204421	0.293783
C109	C	0.388004	0.457490	-0.459283
C110	C	0.638004	0.707490	-0.209283
C111	C	0.888004	0.957490	0.040717
C112	C	1.138004	1.207490	0.290717
C113	C	0.424870	0.412166	-0.413894
C114	C	0.674870	0.662166	-0.163894
C115	C	0.924870	0.912166	0.086106
C116	C	1.174870	1.162166	0.336106
N117	N	0.532917	0.374847	-0.376513
N118	N	0.782917	0.624847	-0.126513
N119	N	1.032917	0.874847	0.123487
N120	N	1.282917	1.124847	0.373487
N121	N	0.499995	0.415304	-0.417038
N122	N	0.749995	0.665304	-0.167038
N123	N	0.999995	0.915304	0.082962
N124	N	1.249995	1.165304	0.332962
C125	C	1.008511	0.577532	-0.404215
C126	C	1.258511	0.827532	-0.154215
C127	C	1.508511	1.077532	0.095785
C128	C	1.758511	1.327532	0.345785
C129	C	1.005330	0.655599	-0.407435
C130	C	1.255330	0.905599	-0.157435
C131	C	1.505330	1.155599	0.092565
C132	C	1.755330	1.405599	0.342565
C133	C	1.047136	0.692273	-0.365718
C134	C	1.297136	0.942273	-0.115718
C135	C	1.547136	1.192273	0.134282
C136	C	1.797136	1.442273	0.384282
C137	C	1.044148	0.765626	-0.368751
C138	C	1.294148	1.015626	-0.118751
C139	C	1.544148	1.265626	0.131249
C140	C	1.794148	1.515626	0.381249
C141	C	0.999351	0.802303	-0.413497
C142	C	1.249351	1.052303	-0.163497
C143	C	1.499351	1.302303	0.086503
C144	C	1.749351	1.552303	0.336503
C145	C	0.957543	0.765625	-0.455219
C146	C	1.207543	1.015625	-0.205219
C147	C	1.457543	1.265625	0.044781
C148	C	1.707543	1.515625	0.294781
C149	C	0.960535	0.692274	-0.452189
C150	C	1.210535	0.942274	-0.202189
C151	C	1.460535	1.192274	0.047811
C152	C	1.710535	1.442274	0.297811
C153	C	0.988155	1.023777	-0.424811
C154	C	1.238155	1.273777	-0.174811
C155	C	1.488155	1.523777	0.075189
C156	C	1.738155	1.773777	0.325189
C157	C	0.985164	1.097134	-0.427836
C158	C	1.235164	1.347134	-0.177836
C159	C	1.485164	1.597134	0.072164
C160	C	1.735164	1.847134	0.322164
C161	C	1.071771	1.097130	-0.341368
C162	C	1.321771	1.347130	-0.091368
C163	C	1.571771	1.597130	0.158632
C164	C	1.821771	1.847130	0.408632
C165	C	1.074756	1.023777	-0.338339
C166	C	1.324756	1.273777	-0.088339
C167	C	1.574756	1.523777	0.161661
C168	C	1.824756	1.773777	0.411661
C169	C	1.032951	0.987105	-0.380064
C170	C	1.282951	1.237105	-0.130064
C171	C	1.532951	1.487105	0.119936
C172	C	1.782951	1.737105	0.369936
C173	C	0.996294	0.877282	-0.416597
C174	C	1.246294	1.127282	-0.166597
C175	C	1.496294	1.377282	0.083403
C176	C	1.746294	1.627282	0.333403
C177	C	1.036012	0.912128	-0.376967
C178	C	1.286012	1.162128	-0.126967
C179	C	1.536012	1.412128	0.123033
C180	C	1.786012	1.662128	0.373033
C181	C	1.199657	0.402751	-0.404464
C182	C	1.449657	0.652751	-0.154464
C183	C	1.699657	0.902751	0.095536
C184	C	1.949657	1.152751	0.345536
C185	C	1.277879	0.406030	-0.407751
C186	C	1.527879	0.656030	-0.157751
C187	C	1.777879	0.906030	0.092249
C188	C	2.027879	1.156030	0.342249
C189	C	1.023203	0.402679	-0.580936
C190	C	1.273203	0.652679	-0.330936
C191	C	1.523203	0.902679	-0.080936
C192	C	1.773203	1.152679	0.169064
C193	C	1.026230	0.405927	-0.659425
C194	C	1.276230	0.655927	-0.409425
C195	C	1.526230	0.905927	-0.159425
C196	C	1.776230	1.155927	0.090575
C197	C	1.023732	1.211870	-0.389279
C198	C	1.273732	1.461870	-0.139279
C199	C	1.523732	1.711870	0.110721
C200	C	1.773732	1.961870	0.360721
C201	C	1.026971	1.133807	-0.386119
C202	C	1.276971	1.383807	-0.136119
C203	C	1.526971	1.633807	0.113881
C204	C	1.776971	1.883807	0.363881
C205	C	0.984521	0.360653	-0.692574
C206	C	1.234521	0.610653	-0.442574
C207	C	1.484521	0.860653	-0.192574
C208	C	1.734521	1.110653	0.057426
C209	C	0.987363	0.363711	-0.766324
C210	C	1.237363	0.613711	-0.516324
C211	C	1.487363	0.863711	-0.266324
C212	C	1.737363	1.113711	-0.016324
C213	C	1.031917	0.412040	-0.806923
C214	C	1.281917	0.662040	-0.556923
C215	C	1.531917	0.912040	-0.306923
C216	C	1.781917	1.162040	-0.056923
C217	C	1.073628	0.457319	-0.773769
C218	C	1.323628	0.707319	-0.523769
C219	C	1.573628	0.957319	-0.273769
C220	C	1.823628	1.207319	-0.023769
C221	C	1.070782	0.454264	-0.700021
C222	C	1.320782	0.704264	-0.450021
C223	C	1.570782	0.954264	-0.200021
C224	C	1.820782	1.204264	0.049979
C225	C	1.045049	0.426198	-1.027885
C226	C	1.295049	0.676198	-0.777885
C227	C	1.545049	0.926198	-0.527885
C228	C	1.795049	1.176198	-0.277885
C229	C	1.047893	0.429248	-1.101638
C230	C	1.297893	0.679248	-0.851638
C231	C	1.547893	0.929248	-0.601638
C232	C	1.797893	1.179248	-0.351638
C233	C	0.961626	0.335640	-1.094188
C234	C	1.211626	0.585640	-0.844188
C235	C	1.461626	0.835640	-0.594188
C236	C	1.711626	1.085640	-0.344188
C237	C	0.958788	0.332587	-1.020439
C238	C	1.208788	0.582587	-0.770439
C239	C	1.458788	0.832587	-0.520439
C240	C	1.708788	1.082587	-0.270439
C241	C	1.000496	0.377868	-0.987291
C242	C	1.250496	0.627868	-0.737291
C243	C	1.500496	0.877868	-0.487291
C244	C	1.750496	1.127868	-0.237291
N245	N	1.034824	0.415165	-0.882306
N246	N	1.284824	0.665165	-0.632306
N247	N	1.534824	0.915165	-0.382306
N248	N	1.784824	1.165165	-0.132306
N249	N	0.997585	0.374746	-0.911909
N250	N	1.247585	0.624746	-0.661909
N251	N	1.497585	0.874746	-0.411909
N252	N	1.747585	1.124746	-0.161909
C253	C	1.009066	0.387414	-0.213279
C254	C	1.259066	0.637414	0.036721
C255	C	1.509066	0.887414	0.286721
C256	C	1.759066	1.137414	0.536721
C257	C	1.006184	0.383974	-0.134787
C258	C	1.256184	0.633974	0.115213
C259	C	1.506184	0.883974	0.365213
C260	C	1.756184	1.133974	0.615213
H261	H	0.417823	0.496893	-0.498745
H262	H	0.667823	0.746893	-0.248745
H263	H	0.917823	0.996893	0.001255
H264	H	1.167823	1.246893	0.251255
H265	H	0.615085	0.293266	-0.294805
H266	H	0.865085	0.543266	-0.044805
H267	H	1.115085	0.793266	0.205195
H268	H	1.365085	1.043266	0.455195
H269	H	0.748426	0.298832	-0.300377
H270	H	0.998426	0.548832	-0.050377
H271	H	1.248426	0.798832	0.199623
H272	H	1.498426	1.048832	0.449623
H273	H	0.926493	0.662415	-0.486161
H274	H	1.176493	0.912415	-0.236161
H275	H	1.426493	1.162415	0.013839
H276	H	1.676493	1.412415	0.263839
H277	H	1.105808	1.126996	-0.307399
H278	H	1.355808	1.376996	-0.057399
H279	H	1.605808	1.626996	0.192601
H280	H	1.855808	1.876996	0.442601
H281	H	0.927670	0.298775	-1.121185
H282	H	1.177670	0.548775	-0.871185
H283	H	1.427670	0.798775	-0.621185
H284	H	1.677670	1.048775	-0.371185
H285	H	1.072489	0.882263	-0.340537
H286	H	1.322489	1.132263	-0.090537
H287	H	1.572489	1.382263	0.159463
H288	H	1.822489	1.632263	0.409463
H289	H	0.948694	1.126996	-0.464287
H290	H	1.198694	1.376996	-0.214287
H291	H	1.448694	1.626996	0.035713
H292	H	1.698694	1.876996	0.285713
H293	H	1.109901	0.496674	-0.806830
H294	H	1.359901	0.746674	-0.556830
H295	H	1.609901	0.996674	-0.306830
H296	H	1.859901	1.246674	-0.056830
H297	H	0.418253	0.326878	-0.328469
H298	H	0.668253	0.576878	-0.078469
H299	H	0.918253	0.826878	0.171531
H300	H	1.168253	1.076878	0.421531
H301	H	0.953396	0.326846	-0.793310
H302	H	1.203396	0.576846	-0.543310
H303	H	1.453396	0.826846	-0.293310
H304	H	1.703396	1.076846	-0.043310
H305	H	0.284484	0.491320	-0.493171
H306	H	0.534484	0.741320	-0.243171
H307	H	0.784484	0.991320	0.006829
H308	H	1.034484	1.241320	0.256829
H309	H	1.079003	0.463077	-1.000906
H310	H	1.329003	0.713077	-0.750906
H311	H	1.579003	0.963077	-0.500906
H312	H	1.829003	1.213077	-0.250906
H313	H	0.922505	0.293234	-0.987388
H314	H	1.172505	0.543234	-0.737388
H315	H	1.422505	0.793234	-0.487388
H316	H	1.672505	1.043234	-0.237388
H317	H	1.084178	0.468605	-1.134692
H318	H	1.334178	0.718605	-0.884692
H319	H	1.584178	0.968605	-0.634692
H320	H	1.834178	1.218605	-0.384692
H321	H	1.104752	0.491127	-0.673032
H322	H	1.354752	0.741127	-0.423032
H323	H	1.604752	0.991127	-0.173032
H324	H	1.854752	1.241127	0.076968
H325	H	1.083612	0.662414	-0.329277
H326	H	1.333612	0.912414	-0.079277
H327	H	1.583612	1.162414	0.170723
H328	H	1.833612	1.412414	0.420723
H329	H	0.954114	0.993925	-0.458783
H330	H	1.204114	1.243925	-0.208783
H331	H	1.454114	1.493925	0.041217
H332	H	1.704114	1.743925	0.291217
H333	H	0.614657	0.463277	-0.465076
H334	H	0.864657	0.713277	-0.215076
H335	H	1.114657	0.963277	0.034924
H336	H	1.364657	1.213277	0.284924
H337	H	0.747986	0.468852	-0.470646
H338	H	0.997986	0.718852	-0.220646
H339	H	1.247986	0.968852	0.029354
H340	H	1.497986	1.218852	0.279354
H341	H	0.921071	0.795494	-0.491656
H342	H	1.171071	1.045494	-0.241656
H343	H	1.421071	1.295494	0.008344
H344	H	1.671071	1.545494	0.258344
H345	H	0.284925	0.321302	-0.322901
H346	H	0.534925	0.571302	-0.072901
H347	H	0.784925	0.821302	0.177099
H348	H	1.034925	1.071302	0.427099
H349	H	1.078191	0.795482	-0.334780
H350	H	1.328191	1.045482	-0.084780
H351	H	1.578191	1.295482	0.165220
H352	H	1.828191	1.545482	0.415220
H353	H	0.948244	0.321294	-0.659523
H354	H	1.198244	0.571294	-0.409523
H355	H	1.448244	0.821294	-0.159523
H356	H	1.698244	1.071294	0.090477
H357	H	1.111234	0.993915	-0.301903
H358	H	1.361234	1.243915	-0.051903
H359	H	1.611234	1.493915	0.198097
H360	H	1.861234	1.743915	0.448097
H361	H	0.959818	0.907153	-0.453028
H362	H	1.209818	1.157153	-0.203028
H363	H	1.459818	1.407153	0.046972
H364	H	1.709818	1.657153	0.296972
