data_functionalizedCrystal
_audit_creation_method	'MofGen! by Chris Wilmer'
_symmetry_space_group_name_H-M	'P1'
_symmetry_Int_Tables_number	1
_symmetry_cell_setting	triclinic
loop_
_symmetry_equiv_pos_as_xyz
  x,y,z
_cell_length_a	6.817900
_cell_length_b	12.908942
_cell_length_c	12.200875
_cell_angle_alpha	94.778059
_cell_angle_beta	107.143593
_cell_angle_gamma	100.860556
loop_
_atom_site_label
_atom_site_type_symbol
_atom_site_fract_x
_atom_site_fract_y
_atom_site_fract_z
V1	V	-4.054744	-0.146091	-0.357022
O2	O	-4.055669	0.006774	-0.350882
O3	O	-3.992658	-0.289438	-0.353948
O4	O	-4.024666	-0.143952	-0.513019
O5	O	-4.023440	-0.139719	-0.190710
V6	V	-4.537771	-0.127794	-0.337206
O7	O	-4.317090	-0.186228	-0.400489
O8	O	-4.725622	-0.087658	-0.293739
O9	O	-4.376650	0.015552	-0.340280
O10	O	-4.654243	-0.280660	-0.343346
O11	O	-4.686472	-0.134167	-0.503518
O12	O	-4.344643	-0.129933	-0.181209
C13	C	-3.833737	-0.324379	-0.348153
C14	C	-3.864384	-0.441567	-0.346680
C15	C	-4.286580	-0.672526	-0.355337
C16	C	-4.315385	-0.782635	-0.353953
C17	C	-3.950805	-0.771898	-0.342538
C18	C	-3.922000	-0.661789	-0.343921
C19	C	-4.089895	-0.612107	-0.350319
C20	C	-4.061083	-0.501995	-0.351695
C21	C	-3.696510	-0.491260	-0.340287
C22	C	-3.725315	-0.601369	-0.338904
C23	C	-3.874565	-0.138797	-0.551063
C24	C	-3.931165	-0.137996	-0.678587
C25	C	-4.034753	-0.136532	-0.912068
C26	C	-3.977101	-0.137346	-0.782143
C27	C	-4.198912	0.050488	-0.346072
C28	C	-4.147504	0.167675	-0.347552
C29	C	-4.158085	-0.135092	-0.143159
C30	C	-4.080723	-0.135887	-0.015633
H31	H	-4.475543	-0.831826	-0.358041
C32	C	-3.490451	-0.317703	-0.337323
C33	C	-3.480291	-0.424843	-0.334764
H34	H	-3.356969	-0.276702	-0.333914
H35	H	-3.527984	-0.292202	-0.272740
H36	H	-3.593271	-0.311543	-0.407064
H37	H	-3.377482	-0.431003	-0.265019
H38	H	-3.442731	-0.450351	-0.399353
C39	C	-3.833114	-0.935929	-0.335367
C40	C	-3.766279	-0.826523	-0.335515
H41	H	-3.719189	-0.969649	-0.331026
H42	H	-3.945373	-0.965838	-0.404642
H43	H	-3.880076	-0.946495	-0.270318
H44	H	-3.719332	-0.815955	-0.400569
H45	H	-3.653984	-0.796604	-0.266231
H46	H	-4.197790	-0.461544	-0.356896
H47	H	-4.423279	-0.632072	-0.360529
H48	H	-3.588629	-0.641836	-0.333699
