data_functionalizedCrystal
_audit_creation_method	'MofGen! by Chris Wilmer'
_symmetry_space_group_name_H-M	'P1'
_symmetry_Int_Tables_number	1
_symmetry_cell_setting	triclinic
loop_
_symmetry_equiv_pos_as_xyz
  x,y,z
_cell_length_a	10.489741
_cell_length_b	10.268362
_cell_length_c	11.792241
_cell_angle_alpha	89.999703
_cell_angle_beta	84.366295
_cell_angle_gamma	89.998119
loop_
_atom_site_label
_atom_site_type_symbol
_atom_site_fract_x
_atom_site_fract_y
_atom_site_fract_z
O1	O	1.693508	-0.108204	0.160138
O2	O	1.322261	-0.108223	0.175169
O3	O	1.516894	-0.108221	0.002507
O4	O	1.498876	-0.108206	0.332799
O5	O	1.516877	0.108380	0.002500
O6	O	1.322244	0.108378	0.175162
O7	O	1.693491	0.108397	0.160130
Cu8	Cu	1.507866	0.128165	0.167645
Cu9	Cu	1.507886	-0.127991	0.167654
O10	O	1.498858	0.108395	0.332792
C11	C	1.274725	0.000075	0.174030
C12	C	1.133107	0.000067	0.170633
N13	N	1.507861	0.308331	0.167639
C14	C	1.515753	0.000075	-0.039791
C15	C	1.512366	0.000060	-0.165813
C16	C	1.065341	0.000075	0.060774
C17	C	0.973046	-0.106716	0.112674
C18	C	0.973063	0.106835	0.112693
C19	C	1.042677	-0.106811	0.222579
C20	C	1.042704	0.106836	0.222583
C21	C	0.950436	0.000019	0.274563
C22	C	1.741027	0.000096	0.161269
C23	C	1.882645	0.000096	0.164666
N24	N	1.507901	-0.308156	0.167652
C25	C	1.507880	0.574001	0.167652
C26	C	1.507865	0.426163	0.167648
C27	C	1.499999	0.000096	0.375090
C28	C	1.503387	0.000102	0.501113
C29	C	1.509616	0.000070	0.731842
C30	C	1.506155	0.000088	0.603447
H31	H	1.115339	-0.000063	-0.029538
H32	H	1.073354	-0.197196	0.269030
H33	H	1.073584	0.197129	0.269026
Br34	Br	0.921633	-0.257209	0.035210
Br35	Br	0.867539	-0.000063	0.425245
Br36	Br	0.921682	0.257314	0.035183
