data_functionalizedCrystal
_audit_creation_method	'MofGen! by Chris Wilmer'
_symmetry_space_group_name_H-M	'P1'
_symmetry_Int_Tables_number	1
_symmetry_cell_setting	triclinic
loop_
_symmetry_equiv_pos_as_xyz
  x,y,z
_cell_length_a	16.992697
_cell_length_b	16.992696
_cell_length_c	15.455322
_cell_angle_alpha	87.160116
_cell_angle_beta	92.857349
_cell_angle_gamma	90.668453
loop_
_atom_site_label
_atom_site_type_symbol
_atom_site_fract_x
_atom_site_fract_y
_atom_site_fract_z
O1	O	-1.054081	-0.163696	-0.072030
O2	O	-0.825683	-0.161863	-0.072059
O3	O	-0.938965	-0.048580	-0.072021
O4	O	-0.940799	-0.276978	-0.072069
O5	O	-0.932484	-0.055031	0.072239
O6	O	-0.819202	-0.168313	0.072201
O7	O	-1.047601	-0.170146	0.072230
Cu8	Cu	-0.932810	-0.169818	0.085387
Cu9	Cu	-0.940474	-0.162190	-0.085217
O10	O	-0.934318	-0.283428	0.072191
C11	C	-0.793082	-0.162732	0.000068
C12	C	-0.705598	-0.155703	0.000058
N13	N	-0.927425	-0.175183	0.205381
C14	C	-0.659608	-0.223520	0.000043
C15	C	-0.577407	-0.216911	0.000055
C16	C	-0.541197	-0.142485	0.000075
C17	C	-0.587193	-0.074662	0.000092
C18	C	-0.669393	-0.081272	0.000087
C19	C	-0.295882	-0.115091	0.000100
C20	C	-0.213676	-0.108486	0.000104
C21	C	-0.203895	-0.250736	0.000068
C22	C	-0.286097	-0.257339	0.000057
C23	C	-0.332086	-0.189517	0.000079
N24	N	-0.457175	-0.135728	0.000085
N25	N	-0.416107	-0.196275	0.000075
C26	C	-0.933369	-0.022446	0.000113
C27	C	-0.926339	0.065039	0.000125
C28	C	-0.080201	-0.169276	0.000097
C29	C	-0.167686	-0.176303	0.000089
C30	C	-0.994156	0.111029	0.000142
C31	C	-0.987547	0.193229	0.000145
C32	C	-0.913120	0.229438	0.000138
C33	C	-0.845298	0.183442	0.000119
C34	C	-0.851908	0.101243	0.000110
C35	C	-0.885724	0.474751	0.000160
C36	C	-0.879118	0.556956	0.000172
C37	C	-1.021369	0.566738	0.000196
C38	C	-1.027972	0.484537	0.000192
C39	C	-0.960150	0.438548	0.000168
N40	N	-0.906362	0.313460	0.000144
N41	N	-0.966909	0.354528	0.000156
C42	C	-0.939912	0.690435	0.000093
C43	C	-0.946936	0.602946	0.000188
C44	C	-0.975570	-0.127077	0.250792
C45	C	-0.971505	-0.131142	0.341598
C46	C	-0.919299	-0.183318	0.386992
C47	C	-0.871149	-0.231426	0.341576
C48	C	-0.875210	-0.227357	0.250771
C49	C	-0.901769	-0.200862	0.658568
C50	C	-0.897713	-0.204930	0.749379
C51	C	-0.998069	-0.104644	0.749395
C52	C	-1.002129	-0.100583	0.658589
C53	C	-0.953976	-0.148688	0.613180
N54	N	-0.915145	-0.187476	0.479811
N55	N	-0.958126	-0.144525	0.520363
N56	N	-0.945858	-0.156824	0.794790
H57	H	-0.689083	-0.284126	0.000026
H58	H	-0.315573	-0.317944	0.000031
H59	H	-0.796684	0.063799	0.000096
H60	H	-0.166443	-0.305952	0.000053
H61	H	-0.539965	-0.272136	0.000043
H62	H	-0.184198	-0.047876	0.000119
H63	H	-0.818507	0.586434	0.000180
H64	H	-0.333316	-0.059865	0.000119
H65	H	-0.836004	-0.266529	0.213798
H66	H	-0.557705	-0.014063	0.000121
H67	H	-0.706838	-0.026048	0.000098
H68	H	-1.054763	0.081554	0.000153
H69	H	-1.042771	0.230671	0.000160
H70	H	-1.076585	0.604190	0.000214
H71	H	-1.088579	0.455062	0.000198
H72	H	-1.018085	-0.084594	0.213837
H73	H	-0.828637	-0.273906	0.378541
H74	H	-1.044640	-0.058097	0.621630
H75	H	-1.037272	-0.065479	0.786376
H76	H	-0.830498	0.437317	0.000141
H77	H	-0.784697	0.212930	0.000108
H78	H	-1.010708	-0.091970	0.378571
H79	H	-0.855198	-0.247421	0.786335
H80	H	-0.862562	-0.240033	0.621603
