data_functionalizedCrystal
_audit_creation_method	'MofGen! by Chris Wilmer'
_symmetry_space_group_name_H-M	'P1'
_symmetry_Int_Tables_number	1
_symmetry_cell_setting	triclinic
loop_
_symmetry_equiv_pos_as_xyz
  x,y,z
_cell_length_a	13.032831
_cell_length_b	16.625546
_cell_length_c	13.033454
_cell_angle_alpha	82.779398
_cell_angle_beta	89.091650
_cell_angle_gamma	82.826778
loop_
_atom_site_label
_atom_site_type_symbol
_atom_site_fract_x
_atom_site_fract_y
_atom_site_fract_z
Zn1	Zn	1.498515	-0.391470	-0.780836
Zn2	Zn	1.748515	-0.141470	-0.530836
Zn3	Zn	1.998515	0.108530	-0.280836
Zn4	Zn	2.248515	0.358530	-0.030836
Zn5	Zn	1.520227	-0.545315	-0.608830
Zn6	Zn	1.770227	-0.295315	-0.358830
Zn7	Zn	2.020227	-0.045315	-0.108830
Zn8	Zn	2.270227	0.204685	0.141170
Zn9	Zn	1.348355	-0.395768	-0.587066
Zn10	Zn	1.598355	-0.145768	-0.337066
Zn11	Zn	1.848355	0.104232	-0.087066
Zn12	Zn	2.098355	0.354232	0.162934
Zn13	Zn	1.326492	-0.511528	-0.758967
Zn14	Zn	1.576492	-0.261528	-0.508967
Zn15	Zn	1.826492	-0.011528	-0.258967
Zn16	Zn	2.076492	0.238472	-0.008967
O17	O	1.423397	-0.461020	-0.683925
O18	O	1.673397	-0.211020	-0.433925
O19	O	1.923397	0.038980	-0.183925
O20	O	2.173397	0.288980	0.066075
O21	O	1.645316	-0.424219	-0.776280
O22	O	1.895316	-0.174219	-0.526280
O23	O	2.145316	0.075781	-0.276280
O24	O	2.395316	0.325781	-0.026280
O25	O	1.515664	-0.541417	-0.462016
O26	O	1.765664	-0.291417	-0.212016
O27	O	2.015664	-0.041417	0.037984
O28	O	2.265664	0.208583	0.287984
O29	O	1.368337	-0.282368	-0.612814
O30	O	1.618337	-0.032368	-0.362814
O31	O	1.868337	0.217632	-0.112814
O32	O	2.118337	0.467632	0.137186
O33	O	1.661268	-0.537249	-0.649907
O34	O	1.911268	-0.287249	-0.399907
O35	O	2.161268	-0.037249	-0.149907
O36	O	2.411268	0.212751	0.100093
O37	O	1.478659	-0.279210	-0.755176
O38	O	1.728659	-0.029210	-0.505176
O39	O	1.978659	0.220790	-0.255176
O40	O	2.228659	0.470790	-0.005176
O41	O	1.389391	-0.431545	-0.446026
O42	O	1.639391	-0.181545	-0.196026
O43	O	1.889391	0.068455	0.053974
O44	O	2.139391	0.318455	0.303974
O45	O	1.201534	-0.398783	-0.591608
O46	O	1.451534	-0.148783	-0.341608
O47	O	1.701534	0.101217	-0.091608
O48	O	1.951534	0.351217	0.158392
O49	O	1.331075	-0.479663	-0.905794
O50	O	1.581075	-0.229663	-0.655794
O51	O	1.831075	0.020337	-0.405794
O52	O	2.081075	0.270337	-0.155794
O53	O	1.185471	-0.483831	-0.717903
O54	O	1.435471	-0.233831	-0.467903
O55	O	1.685471	0.016169	-0.217903
O56	O	1.935471	0.266169	0.032097
O57	O	1.457459	-0.391457	-0.921861
O58	O	1.707459	-0.141457	-0.671861
O59	O	1.957459	0.108543	-0.421861
O60	O	2.207459	0.358543	-0.171861
O61	O	1.494465	-0.653664	-0.628702
O62	O	1.744465	-0.403664	-0.378702
O63	O	1.994465	-0.153664	-0.128702
O64	O	2.244465	0.096336	0.121298
O65	O	1.352128	-0.628840	-0.739007
O66	O	1.602128	-0.378840	-0.489007
O67	O	1.852128	-0.128840	-0.239007
O68	O	2.102128	0.121160	0.010993
C69	C	1.156185	-0.438107	-0.650022
C70	C	1.406185	-0.188107	-0.400022
C71	C	1.656185	0.061893	-0.150022
C72	C	1.906185	0.311893	0.099978
C73	C	1.041868	-0.428321	-0.635542
C74	C	1.291868	-0.178321	-0.385542
C75	C	1.541868	0.071679	-0.135542
C76	C	1.791868	0.321679	0.114458
C77	C	0.982993	-0.466128	-0.691482
C78	C	1.232993	-0.216128	-0.441482
C79	C	1.482993	0.033872	-0.191482
C80	C	1.732993	0.283872	0.058518
C81	C	0.864840	-0.456015	-0.676518
C82	C	1.114840	-0.206015	-0.426518
C83	C	1.364840	0.043985	-0.176518
C84	C	1.614840	0.293985	0.073482
C85	C	1.423305	-0.670508	-0.683869
C86	C	1.673305	-0.420508	-0.433869
C87	C	1.923305	-0.170508	-0.183869
C88	C	2.173305	0.079492	0.066131
C89	C	1.423356	-0.760131	-0.683892
C90	C	1.673356	-0.510131	-0.433892
C91	C	1.923356	-0.260131	-0.183892
C92	C	2.173356	-0.010131	0.066108
C93	C	1.423522	-1.088311	-0.684022
C94	C	1.673522	-0.838311	-0.434022
C95	C	1.923522	-0.588311	-0.184022
C96	C	2.173522	-0.338311	0.065978
C97	C	1.423472	-0.997001	-0.683988
C98	C	1.673472	-0.747001	-0.433988
C99	C	1.923472	-0.497001	-0.183988
C100	C	2.173472	-0.247001	0.066012
C101	C	1.423438	-0.924224	-0.683956
C102	C	1.673438	-0.674224	-0.433956
C103	C	1.923438	-0.424224	-0.183956
C104	C	2.173438	-0.174224	0.066044
C105	C	1.423390	-0.832908	-0.683924
C106	C	1.673390	-0.582908	-0.433924
C107	C	1.923390	-0.332908	-0.183924
C108	C	2.173390	-0.082908	0.066076
C109	C	1.691653	-0.484024	-0.717961
C110	C	1.941653	-0.234024	-0.467961
C111	C	2.191653	0.015976	-0.217961
C112	C	2.441653	0.265976	0.032039
C113	C	1.805967	-0.493826	-0.732465
C114	C	2.055967	-0.243826	-0.482465
C115	C	2.305967	0.006174	-0.232465
C116	C	2.555967	0.256174	0.017535
C117	C	1.389406	-0.431312	-0.952190
C118	C	1.639406	-0.181312	-0.702190
C119	C	1.889406	0.068688	-0.452190
C120	C	2.139406	0.318688	-0.202190
C121	C	1.374921	-0.418651	-1.066508
C122	C	1.624921	-0.168651	-0.816508
C123	C	1.874921	0.081349	-0.566508
C124	C	2.124921	0.331349	-0.316508
C125	C	1.423515	-0.250715	-0.684006
C126	C	1.673515	-0.000715	-0.434006
C127	C	1.923515	0.249285	-0.184006
C128	C	2.173515	0.499285	0.065994
C129	C	1.423565	-0.161095	-0.684041
C130	C	1.673565	0.088905	-0.434041
C131	C	1.923565	0.338905	-0.184041
C132	C	2.173565	0.588905	0.065959
C133	C	1.430941	-0.467369	-1.125387
C134	C	1.680941	-0.217369	-0.875387
C135	C	1.930941	0.032631	-0.625387
C136	C	2.180941	0.282631	-0.375387
C137	C	1.415972	-0.454286	-1.243541
C138	C	1.665972	-0.204286	-0.993541
C139	C	1.915972	0.045714	-0.743541
C140	C	2.165972	0.295714	-0.493541
C141	C	1.457315	-0.490560	-0.416711
C142	C	1.707315	-0.240560	-0.166711
C143	C	1.957315	0.009440	0.083289
C144	C	2.207315	0.259440	0.333289
C145	C	1.471999	-0.503010	-0.302418
C146	C	1.721999	-0.253010	-0.052418
C147	C	1.971999	-0.003010	0.197582
C148	C	2.221999	0.246990	0.447582
H149	H	1.004799	-0.388463	-0.576577
H150	H	1.254799	-0.138463	-0.326577
H151	H	1.504799	0.111537	-0.076577
H152	H	1.754799	0.361537	0.173423
Cl153	Cl	1.522111	-0.546717	-1.068172
Cl154	Cl	1.772111	-0.296717	-0.818172
Cl155	Cl	2.022111	-0.046717	-0.568172
Cl156	Cl	2.272111	0.203283	-0.318172
Cl157	Cl	1.324812	-0.374925	-1.300754
Cl158	Cl	1.574812	-0.124925	-1.050754
Cl159	Cl	1.824812	0.125075	-0.800754
Cl160	Cl	2.074812	0.375075	-0.550754
Cl161	Cl	0.863178	-0.555349	-0.823534
Cl162	Cl	1.113178	-0.305349	-0.573534
Cl163	Cl	1.363178	-0.055349	-0.323534
Cl164	Cl	1.613178	0.194651	-0.073534
Cl165	Cl	1.563168	-0.582367	-1.245209
Cl166	Cl	1.813168	-0.332367	-0.995209
Cl167	Cl	2.063168	-0.082367	-0.745209
Cl168	Cl	2.313168	0.167633	-0.495209
H169	H	0.827776	-0.416154	-0.617548
H170	H	1.077776	-0.166154	-0.367548
H171	H	1.327776	0.083846	-0.117548
H172	H	1.577776	0.333846	0.132452
H173	H	1.315883	-0.367253	-1.103574
H174	H	1.565883	-0.117253	-0.853574
H175	H	1.815883	0.132747	-0.603574
H176	H	2.065883	0.382747	-0.353574
H177	H	1.020061	-0.505979	-0.750455
H178	H	1.270061	-0.255979	-0.500455
H179	H	1.520061	-0.005979	-0.250455
H180	H	1.770061	0.244021	-0.000455
