data_functionalizedCrystal
_audit_creation_method	'MofGen! by Chris Wilmer'
_symmetry_space_group_name_H-M	'P1'
_symmetry_Int_Tables_number	1
_symmetry_cell_setting	triclinic
loop_
_symmetry_equiv_pos_as_xyz
  x,y,z
_cell_length_a	15.944493
_cell_length_b	16.109301
_cell_length_c	14.586319
_cell_angle_alpha	89.994786
_cell_angle_beta	89.997059
_cell_angle_gamma	83.468262
loop_
_atom_site_label
_atom_site_type_symbol
_atom_site_fract_x
_atom_site_fract_y
_atom_site_fract_z
O1	O	1.114518	0.106998	-0.076231
O2	O	0.869957	0.120268	-0.076236
O3	O	0.998956	-0.007397	-0.076224
O4	O	0.985519	0.234663	-0.076243
O5	O	0.998947	-0.007399	0.076257
O6	O	0.869948	0.120266	0.076245
O7	O	1.114509	0.106996	0.076250
Cu8	Cu	0.992228	0.113631	0.090170
Cu9	Cu	0.992239	0.113633	-0.090156
O10	O	0.985510	0.234661	0.076238
C11	C	0.998407	-0.038373	0.000017
C12	C	0.996775	-0.130669	0.000018
C13	C	0.838658	0.119725	0.000004
C14	C	0.745410	0.118099	0.000002
C15	C	1.069526	-0.352933	0.000005
C16	C	1.067987	-0.439653	-0.000003
C17	C	0.914934	-0.419797	-0.000002
C18	C	0.916475	-0.333078	-0.000001
C19	C	0.993773	-0.299648	0.000007
C20	C	0.990693	-0.473088	-0.000001
C21	C	0.989023	-0.567114	-0.000010
C22	C	0.995444	-0.205616	0.000014
C23	C	0.509625	0.193245	-0.000004
C24	C	0.459076	0.152721	0.075184
C25	C	0.574690	0.115086	0.000004
C26	C	0.459089	0.152704	-0.075150
C27	C	0.409781	0.112181	0.000002
C28	C	0.525369	0.074582	0.075255
C29	C	0.525386	0.074577	-0.075147
C30	C	0.474869	0.033995	0.000059
C31	C	0.669689	0.116761	0.000006
C32	C	0.314785	0.110499	0.000007
C33	C	1.145808	0.107539	0.000008
C34	C	1.239056	0.109165	0.000003
C35	C	0.986059	0.265637	-0.000005
C36	C	0.987691	0.357932	-0.000012
N37	N	0.992227	0.113629	0.217002
N38	N	0.992246	0.113628	-0.216988
C39	C	1.049366	0.057117	0.452013
C40	C	1.049368	0.057115	0.547995
C41	C	0.935101	0.170142	0.547994
C42	C	0.935095	0.170140	0.452014
C43	C	0.992232	0.113628	0.404026
C44	C	0.992241	0.113629	0.595987
C45	C	0.992243	0.113627	0.700054
C46	C	0.992229	0.113629	0.299953
H47	H	1.132468	-0.325717	0.000010
H48	H	1.129673	-0.483034	-0.000006
H49	H	0.430144	0.185729	-0.138707
H50	H	0.852000	-0.447026	-0.000007
H51	H	0.525227	0.260572	0.000061
H52	H	0.854784	-0.289691	-0.000002
H53	H	1.095890	0.011101	0.412944
H54	H	0.430124	0.185728	0.138744
H55	H	1.095891	0.011098	0.587063
H56	H	0.554204	0.041593	0.138883
H57	H	0.888582	0.216154	0.587075
H58	H	0.459426	-0.033382	0.000108
H59	H	0.554346	0.041594	-0.138710
H60	H	0.888566	0.216158	0.412940
