data_functionalizedCrystal
_audit_creation_method	'MofGen! by Chris Wilmer'
_symmetry_space_group_name_H-M	'P1'
_symmetry_Int_Tables_number	1
_symmetry_cell_setting	triclinic
loop_
_symmetry_equiv_pos_as_xyz
  x,y,z
_cell_length_a	18.215407
_cell_length_b	16.959454
_cell_length_c	16.959447
_cell_angle_alpha	89.974537
_cell_angle_beta	89.983226
_cell_angle_gamma	90.017519
loop_
_atom_site_label
_atom_site_type_symbol
_atom_site_fract_x
_atom_site_fract_y
_atom_site_fract_z
Zn1	Zn	1.125092	-0.314730	-0.446903
Zn2	Zn	1.125012	-0.446919	-0.314733
Zn3	Zn	1.002026	-0.314753	-0.314743
Zn4	Zn	1.002001	-0.446864	-0.446874
O5	O	1.063533	-0.380817	-0.380813
O6	O	1.228066	-0.332278	-0.429378
O7	O	1.108675	-0.429420	-0.204123
O8	O	1.018395	-0.204139	-0.332291
O9	O	1.228007	-0.429397	-0.332273
O10	O	1.108811	-0.204122	-0.429388
O11	O	1.018317	-0.332318	-0.204131
O12	O	0.899038	-0.332264	-0.332263
O13	O	1.018352	-0.429304	-0.557489
O14	O	0.899020	-0.429326	-0.429339
O15	O	1.108787	-0.332225	-0.557510
O16	O	1.108651	-0.557523	-0.332245
O17	O	1.018275	-0.557482	-0.429329
C18	C	0.872327	-0.380792	-0.380800
C19	C	0.790528	-0.380801	-0.380812
C20	C	0.602363	-0.330335	-0.431455
C21	C	0.525505	-0.330342	-0.431457
C22	C	0.525454	-0.431320	-0.330186
C23	C	0.602312	-0.431309	-0.330180
C24	C	0.640764	-0.380817	-0.380819
C25	C	0.487048	-0.380836	-0.380828
C26	C	0.403714	-0.380843	-0.380830
C27	C	0.724103	-0.380808	-0.380815
C28	C	1.063471	-0.586183	-0.380800
C29	C	1.063512	-0.674039	-0.380821
C30	C	1.016542	-1.045524	-0.431359
C31	C	1.110728	-1.045506	-0.330348
C32	C	1.110703	-0.962960	-0.330341
C33	C	1.063595	-0.921692	-0.380843
C34	C	1.016514	-0.962970	-0.431352
C35	C	1.157778	-0.921676	-0.279826
C36	C	1.157754	-0.839125	-0.279817
C37	C	1.110649	-0.797856	-0.330323
C38	C	1.063567	-0.839139	-0.380835
C39	C	1.016459	-0.797871	-0.431337
C40	C	0.969380	-0.839153	-0.481854
C41	C	0.969410	-0.921701	-0.481859
C42	C	1.110619	-0.715307	-0.330319
C43	C	1.016431	-0.715317	-0.431330
C44	C	1.255486	-0.380842	-0.380828
C45	C	1.337285	-0.380852	-0.380834
C46	C	1.063576	-0.380756	-0.586982
C47	C	1.063594	-0.380730	-0.674838
C48	C	1.063615	-0.174648	-0.380844
C49	C	1.063650	-0.086792	-0.380857
C50	C	1.110648	-0.431273	-0.716110
C51	C	1.016552	-0.330166	-0.716120
C52	C	1.016565	-0.330143	-0.798666
C53	C	1.063619	-0.380687	-0.839938
C54	C	1.110661	-0.431253	-0.798664
C55	C	0.969519	-0.279583	-0.839947
C56	C	0.969529	-0.279559	-0.922498
C57	C	1.016588	-0.330099	-0.963771
C58	C	1.063632	-0.380667	-0.922491
C59	C	1.110686	-0.431210	-0.963763
C60	C	1.157734	-0.481775	-0.922485
C61	C	1.157719	-0.481793	-0.839937
C62	C	1.016603	-0.330080	-1.046319
C63	C	1.110699	-0.431190	-1.046317
C64	C	1.063533	-0.380820	-0.175447
C65	C	1.063657	-0.380623	-0.087591
H66	H	0.978073	-0.681722	-0.472458
N67	N	0.643836	-0.275879	-0.486072
H68	H	0.698353	-0.283535	-0.478391
H69	H	0.630412	-0.288262	-0.542500
N70	N	0.484086	-0.275884	-0.486063
H71	H	0.520110	-0.243896	-0.518136
H72	H	0.452198	-0.308101	-0.522592
H73	H	0.931205	-0.238439	-0.806337
H74	H	0.931079	-0.955320	-0.522986
H75	H	0.978213	-1.079139	-0.472491
N76	N	0.483981	-0.485774	-0.275568
H77	H	0.429464	-0.478123	-0.283255
H78	H	0.497410	-0.542240	-0.287773
N79	N	1.208540	-0.794606	-0.225344
H80	H	1.201378	-0.736049	-0.233004
H81	H	1.197125	-0.809069	-0.168881
H82	H	0.931021	-0.805543	-0.522970
N83	N	0.918798	-0.225017	-0.967020
H84	H	0.884688	-0.257125	-1.001262
H85	H	0.889037	-0.193010	-0.928301
N86	N	0.643737	-0.485754	-0.275557
H87	H	0.607716	-0.517745	-0.243482
H88	H	0.675633	-0.522368	-0.307666
H89	H	0.978239	-0.289021	-0.682512
N90	N	1.161522	-1.090011	-0.275867
H91	H	1.154392	-1.148570	-0.283532
H92	H	1.214073	-1.075545	-0.288212
H93	H	1.196043	-0.522930	-0.956099
H94	H	1.196125	-0.955282	-0.238705
N95	N	1.161388	-0.670776	-0.275841
H96	H	1.149990	-0.685178	-0.219356
H97	H	1.213949	-0.685115	-0.288231
H98	H	1.149019	-0.472346	-1.079914
H99	H	1.196023	-0.522961	-0.806321
H100	H	0.978295	-0.288912	-1.079924
H101	H	1.148956	-0.472439	-0.682498
