data_functionalizedCrystal
_audit_creation_method	'MofGen! by Chris Wilmer'
_symmetry_space_group_name_H-M	'P1'
_symmetry_Int_Tables_number	1
_symmetry_cell_setting	triclinic
loop_
_symmetry_equiv_pos_as_xyz
  x,y,z
_cell_length_a	19.121063
_cell_length_b	12.759401
_cell_length_c	19.121175
_cell_angle_alpha	92.459347
_cell_angle_beta	94.951770
_cell_angle_gamma	87.531822
loop_
_atom_site_label
_atom_site_type_symbol
_atom_site_fract_x
_atom_site_fract_y
_atom_site_fract_z
Zn1	Zn	-0.297125	-1.613287	-0.409816
Zn2	Zn	-0.409773	-1.598783	-0.297165
Zn3	Zn	-0.292125	-1.430419	-0.292163
Zn4	Zn	-0.414750	-1.430348	-0.414783
O5	O	-0.353443	-1.518209	-0.353482
O6	O	-0.312078	-1.758384	-0.394888
O7	O	-0.389991	-1.570409	-0.198040
O8	O	-0.194326	-1.460777	-0.303598
O9	O	-0.394840	-1.747728	-0.312124
O10	O	-0.197999	-1.595129	-0.390037
O11	O	-0.303556	-1.446713	-0.194365
O12	O	-0.308382	-1.283388	-0.308414
O13	O	-0.403322	-1.460656	-0.512585
O14	O	-0.398474	-1.283336	-0.398502
O15	O	-0.316904	-1.595060	-0.508937
O16	O	-0.508896	-1.570340	-0.316940
O17	O	-0.512552	-1.446592	-0.403353
C18	C	-0.353426	-1.245241	-0.353455
C19	C	-0.353436	-1.128464	-0.353460
C20	C	-0.396470	-0.958321	-0.310321
C21	C	-0.396458	-1.068045	-0.310304
C22	C	-0.310418	-1.079155	-0.396631
C23	C	-0.310428	-0.969433	-0.396644
C24	C	-0.446147	-0.951907	-0.260483
C25	C	-0.446134	-1.061631	-0.260466
C26	C	-0.536255	-1.506914	-0.361243
C27	C	-0.614464	-1.502179	-0.364587
C28	C	-0.649281	-1.564438	-0.321205
C29	C	-0.722766	-1.559992	-0.324354
C30	C	-0.761433	-1.493280	-0.370882
C31	C	-0.726611	-1.431018	-0.414269
C32	C	-0.653127	-1.435471	-0.411123
C33	C	-0.983405	-1.476615	-0.382633
C34	C	-1.056894	-1.472164	-0.385774
C35	C	-1.053044	-1.601140	-0.295859
C36	C	-0.979558	-1.605582	-0.292715
C37	C	-0.944743	-1.543324	-0.336104
C38	C	-0.836548	-1.488731	-0.374100
C39	C	-0.869630	-1.547880	-0.332889
C40	C	-0.169918	-1.529579	-0.345706
C41	C	-0.091711	-1.534423	-0.342392
C42	C	-0.361226	-1.529468	-0.537005
C43	C	-0.364542	-1.534266	-0.615211
C44	C	-0.353458	-0.792243	-0.353502
C45	C	-0.353458	-0.909019	-0.353490
C46	C	-0.321099	-1.472121	-0.650039
C47	C	-0.324221	-1.476625	-0.723523
C48	C	-0.370783	-1.543280	-0.762177
C49	C	-0.414231	-1.605427	-0.727345
C50	C	-0.411112	-1.600917	-0.653862
C51	C	-0.382455	-1.560113	-0.984142
C52	C	-0.385569	-1.564621	-1.057629
C53	C	-0.295559	-1.435817	-1.053802
C54	C	-0.292441	-1.431317	-0.980318
C55	C	-0.335892	-1.493460	-0.945492
C56	C	-0.373974	-1.547887	-0.837289
C57	C	-0.332704	-1.488847	-0.870382
C58	C	-0.345640	-1.507058	-0.170671
C59	C	-0.342126	-1.502476	-0.092456
H60	H	-0.275397	-0.929296	-0.431790
H61	H	-0.275384	-1.128358	-0.431764
H62	H	-0.955063	-1.425920	-0.417961
H63	H	-0.838145	-1.602201	-0.295008
C64	C	-0.281483	-1.415535	-0.827859
N65	N	-0.242898	-1.360323	-0.795825
C66	C	-0.465610	-1.678500	-0.769874
N67	N	-0.504364	-1.733453	-0.801908
C68	C	-0.269876	-1.398794	-0.607526
N69	N	-0.231296	-1.343559	-0.575507
C70	C	-0.520609	-1.098540	-0.283194
N71	N	-0.576701	-1.126340	-0.300314
H72	H	-1.088375	-1.417853	-0.423676
H73	H	-0.498768	-0.915884	-0.282122
H74	H	-0.417843	-1.610703	-0.955795
H75	H	-0.411886	-1.602157	-0.868770
H76	H	-0.868038	-1.434412	-0.411983
C77	C	-0.416693	-1.104919	-0.189445
N78	N	-0.394517	-1.137525	-0.135953
H79	H	-0.429162	-0.919668	-0.205393
H80	H	-0.260185	-1.385222	-1.082165
H81	H	-0.617803	-1.618757	-0.283313
C82	C	-0.769148	-1.357631	-0.465449
N83	N	-0.801185	-1.302349	-0.503995
H84	H	-0.254527	-1.377037	-0.948850
C85	C	-0.761062	-1.628475	-0.276625
N86	N	-0.789905	-1.680059	-0.240672
C87	C	-0.937029	-1.678942	-0.241512
N88	N	-0.904996	-1.734185	-0.202936
C89	C	-0.614829	-1.366982	-0.458848
N90	N	-0.585984	-1.315396	-0.494797
C91	C	-0.458900	-1.669287	-0.615552
N92	N	-0.494897	-1.720784	-0.586698
C93	C	-1.091347	-1.669622	-0.248136
N94	N	-1.120197	-1.721207	-0.212191
C95	C	-0.436796	-1.637946	-1.100147
N96	N	-0.475378	-1.693171	-1.132173
H97	H	-0.288847	-1.426015	-0.751876
