data_functionalizedCrystal
_audit_creation_method	'MofGen! by Chris Wilmer'
_symmetry_space_group_name_H-M	'P1'
_symmetry_Int_Tables_number	1
_symmetry_cell_setting	triclinic
loop_
_symmetry_equiv_pos_as_xyz
  x,y,z
_cell_length_a	12.811457
_cell_length_b	10.654550
_cell_length_c	9.130313
_cell_angle_alpha	89.999890
_cell_angle_beta	95.431704
_cell_angle_gamma	84.263143
loop_
_atom_site_label
_atom_site_type_symbol
_atom_site_fract_x
_atom_site_fract_y
_atom_site_fract_z
O1	O	1.393893	0.169145	0.063355
O2	O	1.088444	0.187539	0.022779
O3	O	1.248191	-0.004433	0.044005
O4	O	1.234145	0.361118	0.042129
O5	O	1.248189	-0.004428	0.287604
O6	O	1.088442	0.187545	0.266378
O7	O	1.393891	0.169150	0.306953
Cu8	Cu	1.241166	0.178348	0.308908
Cu9	Cu	1.241168	0.178342	0.020825
O10	O	1.234143	0.361123	0.285727
C11	C	1.247159	-0.051224	0.165666
C12	C	1.244073	-0.190651	0.165251
C13	C	1.049331	0.186511	0.139383
C14	C	0.932792	0.183426	0.123902
C15	C	1.338130	-0.270626	0.177750
C16	C	1.335224	-0.401631	0.177353
C17	C	1.144197	-0.372674	0.151965
C18	C	1.147104	-0.241671	0.152351
C19	C	1.448418	-0.287345	0.192414
C20	C	1.445512	-0.418350	0.192018
C21	C	0.713800	0.177608	0.360413
C22	C	0.604300	0.174708	0.345875
C23	C	0.604293	0.174716	0.080289
C24	C	0.713792	0.177616	0.094827
C25	C	0.768542	0.179064	0.234894
C26	C	0.878042	0.181973	0.249431
C27	C	0.878033	0.181972	-0.016154
C28	C	0.768534	0.179072	-0.030692
C29	C	1.433003	0.170178	0.190346
C30	C	1.549543	0.173264	0.205817
C31	C	1.235176	0.407913	0.164063
C32	C	1.238261	0.547340	0.164469
N33	N	1.241172	0.178351	0.511532
N34	N	1.241171	0.178328	-0.181798
C35	C	1.311927	0.093375	0.597585
C36	C	1.311924	0.093360	0.750921
C37	C	1.170409	0.263309	0.732137
C38	C	1.170407	0.263317	0.578803
C39	C	1.393632	-0.004741	0.608431
C40	C	1.393629	-0.004756	0.761768
H41	H	1.070514	-0.176559	0.142153
C42	C	1.369414	-0.135011	0.548981
H43	H	1.359445	-0.188590	0.628583
H44	H	1.426659	-0.170996	0.498781
H45	H	1.307179	-0.125810	0.482916
C46	C	0.938268	0.183539	0.403495
H47	H	0.889981	0.182237	0.476166
H48	H	0.973522	0.257810	0.413724
H49	H	0.988448	0.111505	0.415654
C50	C	0.774030	0.179177	0.514475
H51	H	0.725745	0.177881	0.587150
H52	H	0.809287	0.253445	0.524695
H53	H	0.824207	0.107140	0.526634
C54	C	1.506683	-0.247979	0.062445
H55	H	1.528664	-0.320687	0.008721
H56	H	1.566574	-0.207508	0.098715
H57	H	1.460741	-0.191466	-0.000303
C58	C	0.544087	0.173115	0.483945
H59	H	0.592379	0.174403	0.569440
H60	H	0.508839	0.098839	0.484788
H61	H	0.493903	0.245144	0.482802
H62	H	1.483537	-0.251898	0.302260
H63	H	1.112785	0.332501	0.508738
H64	H	1.112793	0.332485	0.786926
C65	C	0.544057	0.173117	-0.073766
H66	H	0.471003	0.171185	-0.064441
H67	H	0.569473	0.100448	-0.124958
H68	H	0.554520	0.246752	-0.126937
H69	H	0.723942	0.177887	-0.144730
C70	C	1.491061	-0.480336	0.056321
H71	H	1.513289	-0.417277	-0.003887
H72	H	1.438574	-0.522773	0.001733
H73	H	1.549593	-0.539211	0.087529
C74	C	1.037540	-0.428802	0.137787
H75	H	1.049278	-0.518278	0.139355
H76	H	0.998773	-0.401381	0.047691
H77	H	0.998773	-0.401387	0.217598
C78	C	1.501631	-0.475061	0.337192
H79	H	1.526672	-0.409483	0.397172
H80	H	1.559334	-0.533355	0.316553
H81	H	1.453490	-0.517314	0.387428
C82	C	0.938250	0.183584	-0.154231
H83	H	1.011306	0.185516	-0.125516
H84	H	0.912824	0.256260	-0.212157
H85	H	0.927781	0.109955	-0.210191
H86	H	1.469839	0.025451	0.570995
C87	C	1.359199	-0.127812	0.821442
H88	H	1.343873	-0.182605	0.741912
H89	H	1.298074	-0.109051	0.871890
H90	H	1.414429	-0.167710	0.887326
H91	H	1.474289	0.016343	0.814098
