data_functionalizedCrystal
_audit_creation_method	'MofGen! by Chris Wilmer'
_symmetry_space_group_name_H-M	'P1'
_symmetry_Int_Tables_number	1
_symmetry_cell_setting	triclinic
loop_
_symmetry_equiv_pos_as_xyz
  x,y,z
_cell_length_a	19.288840
_cell_length_b	8.597304
_cell_length_c	7.088906
_cell_angle_alpha	76.028182
_cell_angle_beta	96.173475
_cell_angle_gamma	84.235515
loop_
_atom_site_label
_atom_site_type_symbol
_atom_site_fract_x
_atom_site_fract_y
_atom_site_fract_z
O1	O	0.914359	0.215411	-0.194780
O2	O	0.712120	0.242306	-0.199143
O3	O	0.818905	-0.003534	-0.158680
O4	O	0.807573	0.461252	-0.235244
O5	O	0.833174	-0.036458	0.164715
O6	O	0.726389	0.209382	0.124251
O7	O	0.928628	0.182487	0.128614
Cu8	Cu	0.828811	0.192928	0.155961
Cu9	Cu	0.811936	0.231865	-0.226490
O10	O	0.821842	0.428327	0.088150
C11	C	0.693377	0.224984	-0.037296
C12	C	0.616272	0.222403	-0.036845
C13	C	0.572289	0.239112	-0.212928
C14	C	0.499839	0.236674	-0.212550
C15	C	0.471377	0.217494	-0.036074
C16	C	0.515369	0.200792	0.140031
C17	C	0.587817	0.203247	0.139645
C18	C	0.367932	0.106366	0.114991
C19	C	0.295487	0.103902	0.115371
C20	C	0.247925	0.209930	-0.034877
C21	C	0.272819	0.318404	-0.185536
C22	C	0.345266	0.320858	-0.185922
C23	C	0.392821	0.214831	-0.035636
C24	C	0.125384	0.223998	-0.210563
C25	C	0.052932	0.221569	-0.210179
C26	C	0.068465	0.185671	0.142410
C27	C	0.140914	0.188116	0.142019
C28	C	0.169369	0.207273	-0.034472
C29	C	0.825618	-0.079458	0.012809
C30	C	0.824352	-0.256637	0.041986
C31	C	0.947370	0.199809	-0.033238
C32	C	1.024475	0.202392	-0.033701
C33	C	0.815130	0.504252	-0.083343
C34	C	0.816394	0.681432	-0.112532
N35	N	0.840685	0.165541	0.424957
N36	N	0.800062	0.259252	0.504514
H37	H	0.045291	0.170064	0.286099
H38	H	0.595452	0.254711	-0.356641
H39	H	0.810547	-0.236042	-0.267155
H40	H	0.757963	0.356361	0.406884
H41	H	0.464021	0.250283	-0.355943
Br42	Br	0.910870	0.003696	0.587680
Br43	Br	0.379049	0.468069	-0.390370
Br44	Br	0.164005	0.250007	-0.450081
Br45	Br	0.208280	0.462312	-0.389458
Br46	Br	-0.006763	0.244268	-0.449174
H47	H	0.176726	0.174500	0.285407
H48	H	0.275225	0.015569	0.238038
H49	H	0.406653	0.020020	0.237352
H50	H	0.830190	-0.339168	0.196618
H51	H	0.492191	0.185179	0.283719
H52	H	0.623628	0.189641	0.283038
