data_functionalizedCrystal
_audit_creation_method	'MofGen! by Chris Wilmer'
_symmetry_space_group_name_H-M	'P1'
_symmetry_Int_Tables_number	1
_symmetry_cell_setting	triclinic
loop_
_symmetry_equiv_pos_as_xyz
  x,y,z
_cell_length_a	17.699083
_cell_length_b	27.732048
_cell_length_c	16.776229
_cell_angle_alpha	89.988391
_cell_angle_beta	89.998886
_cell_angle_gamma	82.962835
loop_
_atom_site_label
_atom_site_type_symbol
_atom_site_fract_x
_atom_site_fract_y
_atom_site_fract_z
O1	O	1.003540	0.061127	-0.066185
O2	O	0.783091	0.069080	-0.066212
O3	O	0.900162	-0.005269	-0.066183
O4	O	0.886469	0.135475	-0.066215
O5	O	0.900147	-0.005273	0.066394
O6	O	0.783076	0.069075	0.066364
O7	O	1.003524	0.061122	0.066391
Zn8	Zn	0.893298	0.065098	0.087427
Zn9	Zn	0.893318	0.065104	-0.087248
O10	O	0.886453	0.135471	0.066362
C11	C	0.754889	0.068792	0.000073
C12	C	0.670878	0.067938	0.000063
C13	C	0.621873	0.111579	0.000053
C14	C	0.542936	0.110772	0.000064
C15	C	0.513007	0.066325	0.000078
C16	C	0.562019	0.022680	0.000090
C17	C	0.640954	0.023487	0.000085
C18	C	0.243685	0.019426	0.000111
C19	C	0.164744	0.018623	0.000113
C20	C	0.145667	0.106712	0.000089
C21	C	0.224602	0.107518	0.000084
C22	C	0.273607	0.063874	0.000100
C23	C	0.359199	0.064749	0.000090
C24	C	0.427418	0.065450	0.000082
C25	C	0.899867	-0.023279	0.000108
C26	C	0.899001	-0.076937	0.000114
C27	C	0.962734	-0.415523	0.000081
C28	C	0.959522	-0.617194	0.000070
O29	O	1.017801	-0.648240	0.000042
N30	N	0.890104	-0.636567	0.000062
C31	C	0.821484	-0.605520	0.000051
O32	O	0.762366	-0.626625	0.000036
C33	C	0.824696	-0.403849	0.000057
C34	C	0.894119	-0.384479	0.000073
C35	C	1.032151	-0.396152	0.000096
C36	C	1.032953	-0.345737	0.000103
C37	C	0.964338	-0.314693	0.000095
C38	C	0.894921	-0.334064	0.000080
C39	C	0.756076	-0.372802	0.000041
C40	C	0.756886	-0.322382	0.000041
C41	C	0.826308	-0.303012	0.000057
C42	C	0.827108	-0.252605	0.000080
N43	N	0.896526	-0.233232	0.000088
C44	C	0.965141	-0.264276	0.000095
C45	C	0.819802	-0.711400	0.000050
C46	C	0.818999	-0.761817	0.000050
C47	C	0.957038	-0.773488	0.000067
C48	C	0.957840	-0.723070	0.000072
C49	C	0.889220	-0.692026	0.000058
C50	C	0.966820	-0.158401	0.000111
C51	C	0.967616	-0.107981	0.000122
C52	C	0.829578	-0.096314	0.000101
C53	C	0.828781	-0.146730	0.000095
C54	C	0.897409	-0.177772	0.000097
O55	O	0.768860	-0.221531	0.000099
O56	O	1.024251	-0.243161	0.000093
C57	C	0.961931	-0.465938	0.000074
C58	C	0.892514	-0.485309	0.000059
C59	C	0.823899	-0.454265	0.000051
C60	C	0.891711	-0.535726	0.000059
C61	C	0.960326	-0.566770	0.000067
C62	C	1.029744	-0.547397	0.000074
C63	C	1.030546	-0.496982	0.000082
C64	C	0.754481	-0.473638	0.000043
C65	C	0.753685	-0.524053	0.000037
C66	C	0.822300	-0.555097	0.000045
C67	C	1.031726	0.061410	0.000105
C68	C	1.115737	0.062264	0.000109
C69	C	0.886748	0.153481	0.000069
C70	C	0.887614	0.207139	0.000058
N71	N	0.893289	0.065094	0.206638
N72	N	0.893332	0.065105	-0.206459
C73	C	0.945144	0.032186	0.248368
C74	C	0.945148	0.032185	0.331821
C75	C	0.893301	0.065095	0.373541
C76	C	0.841441	0.098005	0.331805
C77	C	0.841433	0.098003	0.248354
C78	C	0.841468	0.098015	0.668352
C79	C	0.841481	0.098015	0.751809
C80	C	0.945182	0.032197	0.751819
C81	C	0.945175	0.032195	0.668368
C82	C	0.893313	0.065102	0.626639
C83	C	0.893308	0.065102	0.536151
C84	C	0.893309	0.065099	0.464028
H85	H	1.024151	-0.092213	0.000137
O86	O	0.785540	0.133513	0.623354
H87	H	0.748984	0.113196	0.585352
H88	H	0.762468	-0.777584	0.000051
O89	O	1.001116	-0.003303	0.796824
H90	H	0.992408	0.002221	0.861862
O91	O	0.785569	0.133520	0.796813
H92	H	0.749504	0.156403	0.753777
O93	O	0.654151	0.159519	0.000036
H94	H	0.689664	0.161989	0.054066
O95	O	1.001087	-0.003307	0.623370
H96	H	1.037634	0.017005	0.585336
O97	O	1.040839	-0.191877	0.000120
H98	H	1.043766	-0.215135	0.054153
O99	O	1.001052	-0.003322	0.203377
H100	H	0.992337	0.002202	0.138337
O101	O	0.785523	0.133506	0.376798
H102	H	0.748984	0.113193	0.414840
H103	H	0.537645	-0.013510	0.000113
O104	O	0.680468	-0.440161	0.000050
H105	H	0.647217	-0.447034	-0.053984
O106	O	0.490079	0.157843	0.000056
H107	H	0.500645	0.179117	-0.053991
O108	O	0.256885	0.155457	0.000080
H109	H	0.209546	0.185669	0.000087
O110	O	0.092813	0.153788	0.000089
H111	H	0.032896	0.145763	0.000106
O112	O	0.681198	-0.393687	0.000025
H113	H	0.648274	-0.381203	-0.054021
H114	H	0.799207	0.124799	0.214378
H115	H	0.987371	0.005389	0.365797
O116	O	1.107834	-0.324852	0.000098
H117	H	1.140778	-0.337341	0.054129
H118	H	0.140380	-0.017574	0.000126
O119	O	0.296536	-0.027644	0.000128
H120	H	0.262461	-0.058685	0.000132
O121	O	0.693817	-0.023582	0.000098
H122	H	0.683249	-0.044856	-0.053933
O123	O	1.106163	-0.429632	0.000116
H124	H	1.154560	-0.407684	0.000134
H125	H	1.012907	-0.798773	0.000073
O126	O	1.032716	-0.702178	0.000075
H127	H	1.080289	-0.732239	0.000073
O128	O	0.745783	-0.677922	0.000052
H129	H	0.712532	-0.684799	-0.053981
O130	O	0.682873	-0.288898	0.000035
H131	H	0.634470	-0.310842	0.000032
O132	O	0.753907	-0.167627	0.000080
H133	H	0.706331	-0.137568	0.000073
H134	H	1.087078	-0.481215	0.000094
O135	O	0.755573	-0.062827	0.000092
H136	H	0.767801	-0.024516	0.000090
H137	H	1.085613	-0.572682	0.000084
H138	H	0.697148	-0.539820	0.000031
