data_functionalizedCrystal
_audit_creation_method	'MofGen! by Chris Wilmer'
_symmetry_space_group_name_H-M	'P1'
_symmetry_Int_Tables_number	1
_symmetry_cell_setting	triclinic
loop_
_symmetry_equiv_pos_as_xyz
  x,y,z
_cell_length_a	21.395362
_cell_length_b	18.050589
_cell_length_c	21.395356
_cell_angle_alpha	89.979995
_cell_angle_beta	89.964230
_cell_angle_gamma	90.044101
loop_
_atom_site_label
_atom_site_type_symbol
_atom_site_fract_x
_atom_site_fract_y
_atom_site_fract_z
Zn1	Zn	0.957820	-0.295379	-0.354610
Zn2	Zn	1.457820	0.204621	0.145390
Zn3	Zn	0.957742	-0.419566	-0.249843
Zn4	Zn	1.457742	0.080434	0.250157
Zn5	Zn	0.853050	-0.295429	-0.249811
Zn6	Zn	1.353050	0.204571	0.250189
Zn7	Zn	0.853008	-0.419566	-0.354547
Zn8	Zn	1.353008	0.080434	0.145453
O9	O	0.905405	-0.357485	-0.302203
O10	O	1.405405	0.142515	0.197797
O11	O	1.045487	-0.311831	-0.340752
O12	O	1.545487	0.188169	0.159248
O13	O	0.943839	-0.403120	-0.162161
O14	O	1.443839	0.096880	0.337839
O15	O	0.866998	-0.191497	-0.263726
O16	O	1.366998	0.308503	0.236274
O17	O	1.045430	-0.403071	-0.263780
O18	O	1.545430	0.096929	0.236220
O19	O	0.943972	-0.191461	-0.340721
O20	O	1.443972	0.308539	0.159279
O21	O	0.866922	-0.311917	-0.162138
O22	O	1.366922	0.188083	0.337862
O23	O	0.765366	-0.311917	-0.263665
O24	O	1.265366	0.188083	0.236335
O25	O	0.866927	-0.403071	-0.442234
O26	O	1.366927	0.096929	0.057766
O27	O	0.765336	-0.403120	-0.340615
O28	O	1.265336	0.096880	0.159385
O29	O	0.943932	-0.311831	-0.442280
O30	O	1.443932	0.188169	0.057720
O31	O	0.943799	-0.523490	-0.263719
O32	O	1.443799	-0.023490	0.236281
O33	O	0.866852	-0.523490	-0.340645
O34	O	1.366852	-0.023490	0.159355
C35	C	0.742617	-0.357524	-0.302130
C36	C	1.242617	0.142476	0.197870
C37	C	0.672976	-0.357559	-0.302114
C38	C	1.172976	0.142441	0.197886
C39	C	0.640264	-0.405111	-0.342121
C40	C	1.140264	0.094889	0.157879
C41	C	0.574828	-0.405093	-0.342149
C42	C	1.074828	0.094907	0.157851
C43	C	0.542108	-0.357530	-0.302159
C44	C	1.042108	0.142470	0.197841
C45	C	0.574828	-0.309969	-0.262148
C46	C	1.074828	0.190031	0.237852
C47	C	0.640262	-0.309983	-0.262126
C48	C	1.140262	0.190017	0.237874
C49	C	0.438391	-0.351556	-0.245753
C50	C	0.938391	0.148444	0.254247
C51	C	0.372958	-0.351547	-0.245774
C52	C	0.872958	0.148453	0.254226
C53	C	0.340287	-0.357482	-0.302228
C54	C	0.840287	0.142518	0.197772
C55	C	0.373057	-0.363441	-0.358662
C56	C	0.873057	0.136559	0.141338
C57	C	0.438491	-0.363456	-0.358640
C58	C	0.938491	0.136544	0.141360
C59	C	0.471155	-0.357509	-0.302179
C60	C	0.971155	0.142491	0.197821
C61	C	0.236622	-0.405017	-0.342269
C62	C	0.736622	0.094983	0.157731
C63	C	0.171185	-0.404993	-0.342298
C64	C	0.671185	0.095007	0.157702
C65	C	0.171187	-0.309873	-0.262291
C66	C	0.671187	0.190127	0.237709
C67	C	0.236622	-0.309892	-0.262268
C68	C	0.736622	0.190108	0.237732
C69	C	0.269336	-0.357468	-0.302256
C70	C	0.769336	0.142532	0.197744
C71	C	0.905329	-0.550437	-0.302192
C72	C	1.405329	-0.050437	0.197808
C73	C	0.905354	-0.632983	-0.302209
C74	C	1.405354	-0.132983	0.197791
C75	C	0.863552	-0.832460	-0.344027
C76	C	1.363552	-0.332460	0.155973
C77	C	0.848281	-0.881901	-0.286848
C78	C	1.348281	-0.381901	0.213152
C79	C	0.905416	-0.784113	-0.302217
C80	C	1.405416	-0.284113	0.197783
C81	C	0.920717	-0.881754	-0.359402
C82	C	1.420717	-0.381754	0.140598
C83	C	0.905474	-0.930098	-0.302230
C84	C	1.405474	-0.430098	0.197770
C85	C	0.890116	-0.832467	-0.245009
C86	C	1.390116	-0.332467	0.254991
C87	C	0.962577	-0.832315	-0.317601
C88	C	1.462577	-0.332315	0.182399
C89	C	0.947329	-0.881734	-0.260383
C90	C	1.447329	-0.381734	0.239617
C91	C	0.905381	-0.700015	-0.302211
C92	C	1.405381	-0.200015	0.197789
C93	C	0.905509	-1.014195	-0.302230
C94	C	1.405509	-0.514195	0.197770
C95	C	1.068828	-0.357446	-0.302276
C96	C	1.568828	0.142554	0.197724
C97	C	1.138470	-0.357429	-0.302307
C98	C	1.638470	0.142571	0.197693
C99	C	0.905434	-0.357446	-0.465626
C100	C	1.405434	0.142554	0.034374
C101	C	0.905446	-0.357429	-0.535268
C102	C	1.405446	0.142571	-0.035268
C103	C	0.905498	-0.163779	-0.302227
C104	C	1.405498	0.336221	0.197773
C105	C	0.905538	-0.081233	-0.302237
C106	C	1.405538	0.418767	0.197763
C107	C	0.945567	-0.404763	-1.037077
C108	C	1.445567	0.095237	-0.537077
C109	C	0.945556	-0.404786	-0.971641
C110	C	1.445556	0.095214	-0.471641
C111	C	0.905506	-0.357311	-0.938906
C112	C	1.405506	0.142689	-0.438906
C113	C	0.865453	-0.309823	-0.971612
C114	C	1.365453	0.190177	-0.471612
C115	C	0.865461	-0.309806	-1.037046
C116	C	1.365461	0.190194	-0.537046
C117	C	0.900578	-0.290430	-0.835244
C118	C	1.400578	0.209570	-0.335244
C119	C	0.900574	-0.290446	-0.769811
C120	C	1.400574	0.209554	-0.269811
C121	C	0.905477	-0.357364	-0.737085
C122	C	1.405477	0.142636	-0.237085
C123	C	0.910397	-0.424269	-0.769801
C124	C	1.410397	0.075731	-0.269801
C125	C	0.910405	-0.424252	-0.835235
C126	C	1.410405	0.075748	-0.335235
C127	C	0.905492	-0.357325	-0.867954
C128	C	1.405492	0.142675	-0.367954
C129	C	0.945513	-0.404879	-0.633435
C130	C	1.445513	0.095121	-0.133435
C131	C	0.945497	-0.404904	-0.567998
C132	C	1.445497	0.095096	-0.067998
C133	C	0.865397	-0.309933	-0.567970
C134	C	1.365397	0.190067	-0.067970
C135	C	0.865410	-0.309915	-0.633405
C136	C	1.365410	0.190085	-0.133405
C137	C	0.905471	-0.357387	-0.666134
C138	C	1.405471	0.142613	-0.166134
C139	C	0.905412	-0.357470	-0.139415
C140	C	1.405412	0.142530	0.360585
C141	C	0.905522	-0.357277	-0.069774
C142	C	1.405522	0.142723	0.430226
H143	H	0.666896	-0.271258	-0.229547
H144	H	1.166896	0.228742	0.270453
C145	C	0.895163	-0.216857	-0.733827
C146	C	1.395163	0.283143	-0.233827
H147	H	0.895868	-0.226449	-0.690170
H148	H	1.395868	0.273551	-0.190170
H149	H	0.857030	-0.193122	-0.744532
H150	H	1.357030	0.306878	-0.244532
H151	H	0.929263	-0.185602	-0.744572
H152	H	1.429263	0.314398	-0.244572
C153	C	0.815662	-0.803225	-0.391725
C154	C	1.315662	-0.303225	0.108275
H155	H	0.836542	-0.774221	-0.422369
H156	H	1.336542	-0.274221	0.077631
H157	H	0.785509	-0.773598	-0.370831
H158	H	1.285509	-0.273598	0.129169
H159	H	0.795395	-0.843828	-0.411411
H160	H	1.295395	-0.343828	0.088589
H161	H	0.978186	-0.443420	-1.063720
H162	H	1.478186	0.056580	-0.563720
C163	C	0.938196	-0.910964	-0.424728
C164	C	1.438196	-0.410964	0.075272
H165	H	0.975185	-0.939858	-0.421945
H166	H	1.475185	-0.439858	0.078055
H167	H	0.945102	-0.870349	-0.452127
H168	H	1.445102	-0.370349	0.047873
H169	H	0.905086	-0.940706	-0.440413
H170	H	1.405086	-0.440706	0.059587
C171	C	0.474539	-0.370008	-0.420710
C172	C	0.974539	0.129992	0.079290
H173	H	0.518187	-0.369172	-0.412608
H174	H	1.018187	0.130828	0.087392
H175	H	0.463876	-0.329651	-0.447129
H176	H	0.963876	0.170349	0.052871
H177	H	0.463800	-0.415255	-0.440680
H178	H	0.963800	0.084745	0.059320
H179	H	0.832850	-0.271136	-1.063668
H180	H	1.332850	0.228864	-0.563668
H181	H	0.982757	-0.903233	-0.224991
H182	H	1.482757	-0.403233	0.275009
H183	H	0.464986	-0.346719	-0.199778
H184	H	0.964986	0.153281	0.300222
H185	H	0.978131	-0.443535	-0.660084
H186	H	1.478131	0.056465	-0.160084
C187	C	0.783016	-0.911330	-0.269270
C188	C	1.283016	-0.411330	0.230730
H189	H	0.785896	-0.940295	-0.232303
H190	H	1.285896	-0.440295	0.267697
H191	H	0.767307	-0.941034	-0.302373
H192	H	1.267307	-0.441034	0.197627
H193	H	0.755583	-0.870807	-0.262282
H194	H	1.255583	-0.370807	0.237718
H195	H	0.978103	-0.443579	-0.541376
H196	H	1.478103	0.056421	-0.041376
C197	C	0.872582	-0.803347	-0.179668
C198	C	1.372582	-0.303347	0.320332
H199	H	0.872645	-0.750717	-0.180068
H200	H	1.372645	-0.250717	0.319932
H201	H	0.902152	-0.820611	-0.149948
H202	H	1.402152	-0.320611	0.350052
H203	H	0.832120	-0.820739	-0.168685
H204	H	1.332120	-0.320739	0.331315
H205	H	1.010879	-0.810520	-0.330628
H206	H	1.510879	-0.310520	0.169372
C207	C	0.135202	-0.257545	-0.218310
C208	C	0.635202	0.242455	0.281690
H209	H	0.091546	-0.264346	-0.224053
H210	H	0.591546	0.235654	0.275947
H211	H	0.145980	-0.207667	-0.227553
H212	H	0.645980	0.292333	0.272447
H213	H	0.145872	-0.268346	-0.176188
H214	H	0.645872	0.231654	0.323812
C215	C	0.272608	-0.257594	-0.218251
C216	C	0.772608	0.242406	0.281749
H217	H	0.243750	-0.229268	-0.194433
H218	H	0.743750	0.270732	0.305567
H219	H	0.298185	-0.225279	-0.242253
H220	H	0.798185	0.274721	0.257747
H221	H	0.298081	-0.285972	-0.190900
H222	H	0.798081	0.214028	0.309100
H223	H	0.896626	-0.235929	-0.861883
H224	H	1.396626	0.264071	-0.361883
H225	H	0.832786	-0.271280	-0.541318
H226	H	1.332786	0.228720	-0.041318
C227	C	0.989608	-0.457021	-0.935666
C228	C	1.489608	0.042979	-0.435666
H229	H	1.013469	-0.485288	-0.964529
H230	H	1.513469	0.014712	-0.464529
H231	H	0.965624	-0.489393	-0.910123
H232	H	1.465624	0.010607	-0.410123
H233	H	1.016917	-0.428602	-0.910158
H234	H	1.516917	0.071398	-0.410158
C235	C	0.915813	-0.497838	-0.871223
C236	C	1.415813	0.002162	-0.371223
H237	H	0.915120	-0.488240	-0.914879
H238	H	1.415120	0.011760	-0.414879
H239	H	0.881715	-0.529092	-0.860481
H240	H	1.381715	-0.029092	-0.360481
H241	H	0.953949	-0.521575	-0.860518
H242	H	1.453949	-0.021575	-0.360518
H243	H	0.346458	-0.368273	-0.404632
H244	H	0.846458	0.131727	0.095368
H245	H	0.346281	-0.346698	-0.199822
H246	H	0.846281	0.153302	0.300178
C247	C	0.272610	-0.457339	-0.386259
C248	C	0.772610	0.042661	0.113741
H249	H	0.243753	-0.485650	-0.410098
H250	H	0.743753	0.014350	0.089902
H251	H	0.298086	-0.489666	-0.362238
H252	H	0.798086	0.010334	0.137762
H253	H	0.298185	-0.428974	-0.413591
H254	H	0.798185	0.071026	0.086409
C255	C	0.915787	-0.497883	-0.733812
C256	C	1.415787	0.002117	-0.233812
H257	H	0.915070	-0.488315	-0.690156
H258	H	1.415070	0.011685	-0.190156
H259	H	0.953921	-0.521619	-0.744549
H260	H	1.453921	-0.021619	-0.244549
H261	H	0.881686	-0.529126	-0.744519
H262	H	1.381686	-0.029126	-0.244519
H263	H	0.548183	-0.271241	-0.229589
H264	H	1.048183	0.228759	0.270411
C265	C	0.135201	-0.457314	-0.386300
C266	C	0.635201	0.042686	0.113700
H267	H	0.164059	-0.485656	-0.410103
H268	H	0.664059	0.014344	0.089897
H269	H	0.109721	-0.428957	-0.413655
H270	H	0.609721	0.071043	0.086345
H271	H	0.109630	-0.489624	-0.362280
H272	H	0.609630	0.010376	0.137720
H273	H	0.832803	-0.271245	-0.660028
H274	H	1.332803	0.228755	-0.160028
C275	C	0.821401	-0.257599	-0.935606
C276	C	1.321401	0.242401	-0.435606
H277	H	0.827136	-0.264404	-0.891952
H278	H	1.327136	0.235596	-0.391952
H279	H	0.779299	-0.268476	-0.946306
H280	H	1.279299	0.231524	-0.446306
H281	H	0.830598	-0.207693	-0.946342
H282	H	1.330598	0.292307	-0.446342
H283	H	0.666895	-0.443850	-0.374684
H284	H	1.166895	0.056150	0.125316
H285	H	0.548188	-0.443815	-0.374731
H286	H	1.048188	0.056185	0.125269
