data_functionalizedCrystal
_audit_creation_method	'MofGen! by Chris Wilmer'
_symmetry_space_group_name_H-M	'P1'
_symmetry_Int_Tables_number	1
_symmetry_cell_setting	triclinic
loop_
_symmetry_equiv_pos_as_xyz
  x,y,z
_cell_length_a	13.635800
_cell_length_b	15.866870
_cell_length_c	9.582880
_cell_angle_alpha	70.537945
_cell_angle_beta	111.207034
_cell_angle_gamma	77.344085
loop_
_atom_site_label
_atom_site_type_symbol
_atom_site_fract_x
_atom_site_fract_y
_atom_site_fract_z
V1	V	2.077999	-0.132168	0.539510
O2	O	2.050185	0.006767	0.453986
O3	O	2.072877	-0.262466	0.608197
O4	O	2.073056	-0.129952	0.741789
O5	O	2.050006	-0.126664	0.319469
V6	V	2.314845	-0.115571	0.504399
O7	O	2.219409	-0.168574	0.616529
O8	O	2.398533	-0.079165	0.427380
O9	O	2.208363	0.014728	0.435713
O10	O	2.401357	-0.254506	0.589923
O11	O	2.401536	-0.121074	0.724440
O12	O	2.208185	-0.117787	0.302120
V13	V	2.577999	-0.132168	0.539510
O14	O	2.550185	0.006767	0.453986
O15	O	2.572877	-0.262466	0.608197
O16	O	2.573056	-0.129952	0.741789
O17	O	2.550006	-0.126664	0.319469
V18	V	2.814845	-0.115571	0.504399
O19	O	2.719409	-0.168574	0.616529
O20	O	2.898533	-0.079165	0.427380
O21	O	2.708363	0.014728	0.435713
O22	O	2.901357	-0.254506	0.589923
O23	O	2.901536	-0.121074	0.724440
O24	O	2.708185	-0.117787	0.302120
C25	C	1.999396	-0.294236	0.618361
C26	C	2.035981	-0.400756	0.675869
C27	C	1.979648	-0.683302	0.142435
C28	C	2.014034	-0.783398	0.196522
C29	C	2.084696	-0.810500	0.485557
C30	C	2.050311	-0.710404	0.431493
C31	C	1.997789	-0.646813	0.259930
C32	C	2.068451	-0.673915	0.548989
C33	C	2.034074	-0.573828	0.494929
C34	C	1.981555	-0.510230	0.323374
C35	C	1.963411	-0.546726	0.205871
C36	C	2.120981	-0.737509	0.720552
C37	C	2.139121	-0.701019	0.838047
C38	C	2.104736	-0.600930	0.783988
C39	C	2.052218	-0.537332	0.612433
C40	C	2.122880	-0.564435	0.901491
C41	C	2.088502	-0.464347	0.847432
C42	C	2.017840	-0.437245	0.558373
C43	C	1.999623	-0.125200	0.788769
C44	C	2.036349	-0.124250	0.954608
C45	C	2.113516	0.046492	0.425547
C46	C	2.066552	0.153011	0.368049
C47	C	2.113289	-0.122542	0.255134
C48	C	2.066181	-0.123486	0.089291
C49	C	2.499396	-0.294236	0.618361
C50	C	2.535981	-0.400756	0.675869
C51	C	2.499623	-0.125200	0.788769
C52	C	2.536349	-0.124250	0.954608
C53	C	2.613516	0.046492	0.425547
C54	C	2.566552	0.153011	0.368049
C55	C	2.613289	-0.122542	0.255134
C56	C	2.566181	-0.123486	0.089291
C57	C	2.645675	-0.455658	0.713044
C58	C	2.680070	-0.555747	0.767103
C59	C	2.604766	-0.600932	0.783975
C60	C	2.495064	-0.546023	0.746800
C61	C	2.460673	-0.445936	0.692753
C62	C	2.629352	0.207913	0.330879
C63	C	2.585230	0.308001	0.276827
C64	C	2.478310	0.353186	0.259959
C65	C	2.415505	0.298277	0.297129
C66	C	2.459624	0.198192	0.351168
H67	H	1.975055	-0.385464	0.418668
H68	H	2.181892	-0.752809	0.977735
O69	O	2.641849	-0.708882	0.842251
H70	H	2.584551	-0.723019	0.744041
H71	H	2.408480	0.153496	0.381444
O72	O	2.413849	-0.594762	0.765003
H73	H	2.456200	-0.673580	0.808816
H74	H	2.165657	-0.616226	1.041179
O75	O	2.300189	0.347024	0.278938
H76	H	2.263916	0.292041	0.313852
H77	H	2.636385	0.352694	0.246572
H78	H	2.769397	-0.600440	0.797360
H79	H	2.442398	0.434683	0.215955
H80	H	1.953569	-0.428734	0.279362
H81	H	2.371348	-0.401241	0.662480
O82	O	2.108183	-0.424909	0.974057
H83	H	2.025103	-0.376244	0.948799
O84	O	1.906756	-0.478124	0.020826
H85	H	1.899916	-0.520309	-0.051804
O86	O	1.922993	-0.614701	-0.042610
H87	H	1.916153	-0.656886	-0.115240
O88	O	1.994458	-0.822759	0.069787
H89	H	1.952154	-0.761721	-0.058589
O90	O	2.141349	-0.879089	0.670596
H91	H	2.162205	-0.954817	0.688451
H92	H	2.148972	-0.819005	0.764562
H93	H	2.716414	0.171137	0.344606
H94	H	2.707003	-0.418881	0.699305
