data_functionalizedCrystal
_audit_creation_method	'MofGen! by Chris Wilmer'
_symmetry_space_group_name_H-M	'P1'
_symmetry_Int_Tables_number	1
_symmetry_cell_setting	triclinic
loop_
_symmetry_equiv_pos_as_xyz
  x,y,z
_cell_length_a	25.639242
_cell_length_b	25.639240
_cell_length_c	18.215399
_cell_angle_alpha	89.972573
_cell_angle_beta	89.974553
_cell_angle_gamma	90.027587
loop_
_atom_site_label
_atom_site_type_symbol
_atom_site_fract_x
_atom_site_fract_y
_atom_site_fract_z
Zn1	Zn	0.799266	-0.208206	-0.416300
Zn2	Zn	0.799195	-0.295646	-0.293240
Zn3	Zn	0.711837	-0.208219	-0.293229
Zn4	Zn	0.711798	-0.295605	-0.416247
O5	O	0.755524	-0.251919	-0.354754
O6	O	0.872422	-0.219816	-0.400003
O7	O	0.787593	-0.284071	-0.190254
O8	O	0.723482	-0.135052	-0.309572
O9	O	0.872369	-0.284058	-0.309591
O10	O	0.787715	-0.135043	-0.399992
O11	O	0.723412	-0.219839	-0.190246
O12	O	0.638667	-0.219800	-0.309520
O13	O	0.723414	-0.283989	-0.519238
O14	O	0.638638	-0.284002	-0.399901
O15	O	0.787676	-0.219777	-0.519277
O16	O	0.787555	-0.368806	-0.309539
O17	O	0.723345	-0.368776	-0.399912
C18	C	0.755452	-0.387762	-0.354737
C19	C	0.755469	-0.445876	-0.354754
C20	C	0.619681	-0.251899	-0.354704
C21	C	0.561567	-0.251902	-0.354700
C22	C	0.788967	-0.697013	-0.401884
C23	C	0.788952	-0.642408	-0.401878
O24	O	0.817373	-0.614124	-0.441925
N25	N	0.755526	-0.615150	-0.354764
C26	C	0.722117	-0.642498	-0.307646
O27	O	0.693685	-0.614298	-0.267571
C28	C	0.722136	-0.697101	-0.307649
C29	C	0.755560	-0.724357	-0.354772
C30	C	0.822389	-0.724269	-0.449002
C31	C	0.822404	-0.778869	-0.449008
C32	C	0.788997	-0.806214	-0.401896
C33	C	0.755575	-0.778958	-0.354778
C34	C	0.688731	-0.724448	-0.260528
C35	C	0.688753	-0.779055	-0.260534
C36	C	0.722177	-0.806311	-0.307657
C37	C	0.722183	-0.860903	-0.307672
N38	N	0.755609	-0.888162	-0.354787
C39	C	0.789016	-0.860817	-0.401899
C40	C	0.722081	-0.527827	-0.307644
C41	C	0.722059	-0.473225	-0.307645
C42	C	0.788895	-0.473139	-0.401876
C43	C	0.788913	-0.527743	-0.401878
C44	C	0.755507	-0.555086	-0.354758
C45	C	0.789044	-0.975482	-0.401909
C46	C	0.789055	-1.030088	-0.401913
C47	C	0.722222	-1.030168	-0.307680
C48	C	0.722209	-0.975568	-0.307678
C49	C	0.755625	-0.948226	-0.354795
O50	O	0.693778	-0.889222	-0.267644
O51	O	0.817448	-0.889024	-0.441961
C52	C	0.201198	-0.285405	-0.401770
C53	C	0.146594	-0.285408	-0.401782
O54	O	0.118352	-0.313868	-0.441761
N55	N	0.119285	-0.251934	-0.354802
C56	C	0.146583	-0.218450	-0.307812
O57	O	0.118341	-0.189977	-0.267854
C58	C	0.201187	-0.218444	-0.307805
C59	C	0.228493	-0.251925	-0.354783
C60	C	0.228504	-0.318883	-0.448745
C61	C	0.283105	-0.318880	-0.448732
C62	C	0.310399	-0.285400	-0.401745
C63	C	0.283093	-0.251922	-0.354770
C64	C	0.228484	-0.184958	-0.260820
C65	C	0.283091	-0.184955	-0.260817
C66	C	0.310397	-0.218436	-0.307795
C67	C	0.364988	-0.218439	-0.307770
N68	N	0.392297	-0.251914	-0.354750
C69	C	0.365002	-0.285394	-0.401738
C70	C	0.031913	-0.218463	-0.307832
C71	C	-0.022690	-0.218471	-0.307835
C72	C	-0.022676	-0.285429	-0.401806
C73	C	0.031928	-0.285423	-0.401799
C74	C	0.059221	-0.251938	-0.354812
C75	C	0.479667	-0.285387	-0.401707
C76	C	0.534273	-0.285383	-0.401688
C77	C	0.534254	-0.218423	-0.307720
C78	C	0.479653	-0.218428	-0.307736
C79	C	0.452361	-0.251912	-0.354735
O80	O	0.393265	-0.189993	-0.267814
O81	O	0.393251	-0.313858	-0.441696
C82	C	0.891897	-0.251940	-0.354804
C83	C	0.950011	-0.251949	-0.354826
C84	C	0.755549	-0.251877	-0.546707
C85	C	0.755559	-0.251860	-0.628506
C86	C	0.755611	-0.115546	-0.354787
C87	C	0.755648	-0.057432	-0.354801
C88	C	0.722168	-0.218391	-0.816697
C89	C	0.722177	-0.218381	-0.893555
C90	C	0.789013	-0.285265	-0.893553
C91	C	0.789000	-0.285278	-0.816696
C92	C	0.755579	-0.251838	-0.778269
C93	C	0.755600	-0.251815	-0.931986
C94	C	0.755610	-0.251804	-1.015319
C95	C	0.755568	-0.251850	-0.694930
C96	C	0.755529	-0.251923	-0.163548
C97	C	0.755620	-0.251794	-0.081749
H98	H	0.816255	-0.953227	-0.440275
H99	H	0.695021	-1.052442	-0.269324
C100	C	0.825385	-0.321535	-0.935182
C101	C	0.877119	-0.310168	-0.916491
C102	C	0.910641	-0.343573	-0.954816
H103	H	0.820680	-0.316770	-0.986471
H104	H	0.817742	-0.356675	-0.922558
H105	H	0.884760	-0.275037	-0.929120
H106	H	0.881841	-0.314937	-0.865209
H107	H	0.902998	-0.378713	-0.942192
H108	H	0.905931	-0.338805	-1.006103
H109	H	0.945746	-0.335869	-0.942135
H110	H	0.305311	-0.157683	-0.222558
H111	H	0.816128	-0.549931	-0.440253
H112	H	0.816209	-0.312516	-0.785408
H113	H	0.206287	-0.346146	-0.487012
C114	C	0.825085	-0.443378	-0.453066
C115	C	0.795451	-0.412024	-0.500174
C116	C	0.828769	-0.384595	-0.547331
H117	H	0.845009	-0.467369	-0.481200
H118	H	0.847861	-0.422040	-0.424961
H119	H	0.772684	-0.433360	-0.528276
H120	H	0.775529	-0.388024	-0.472060
H121	H	0.851545	-0.363257	-0.519226
H122	H	0.848691	-0.408589	-0.575460
H123	H	0.808668	-0.363314	-0.579294
C124	C	0.825403	-1.059585	-0.453106
C125	C	0.854665	-1.023946	-0.494347
C126	C	0.888158	-1.051098	-0.541504
H127	H	0.805453	-1.080889	-0.485210
H128	H	0.848232	-1.080869	-0.425010
H129	H	0.831840	-1.002671	-0.522441
H130	H	0.874626	-1.002641	-0.462262
H131	H	0.910987	-1.072381	-0.513408
H132	H	0.868204	-1.072401	-0.573603
H133	H	0.908020	-1.026921	-0.569487
H134	H	0.694971	-0.191146	-0.924839
H135	H	0.849625	-0.801057	-0.487375
C136	C	0.685936	-0.182111	-0.774843
C137	C	0.693085	-0.189269	-0.699309
C138	C	0.659720	-0.155852	-0.660733
H139	H	0.650783	-0.189725	-0.787337
H140	H	0.693615	-0.146968	-0.787412
H141	H	0.685402	-0.224403	-0.686745
H142	H	0.728231	-0.181651	-0.686793
H143	H	0.667398	-0.120710	-0.673302
H144	H	0.624569	-0.163469	-0.673233
H145	H	0.664569	-0.160701	-0.609480
H146	H	0.849596	-0.702010	-0.487366
H147	H	0.457453	-0.312651	-0.439980
C148	C	0.652426	-0.694960	-0.209276
C149	C	0.623192	-0.730605	-0.168006
C150	C	0.589748	-0.703460	-0.120772
H151	H	0.629573	-0.673662	-0.237296
H152	H	0.672426	-0.673670	-0.177199
H153	H	0.603193	-0.751885	-0.200079
H154	H	0.646031	-0.751904	-0.139971
H155	H	0.609748	-0.682171	-0.088695
H156	H	0.566899	-0.682163	-0.148797
H157	H	0.569912	-0.727641	-0.092760
H158	H	0.694873	-0.550087	-0.269275
H159	H	0.305332	-0.346142	-0.486988
C160	C	0.685745	-0.443730	-0.256408
C161	C	0.656504	-0.479372	-0.215142
C162	C	0.623052	-0.452223	-0.167924
H163	H	0.662898	-0.422434	-0.284439
H164	H	0.705740	-0.422439	-0.224328
H165	H	0.636510	-0.500654	-0.247219
H166	H	0.679337	-0.500669	-0.187097
H167	H	0.643047	-0.430931	-0.135844
H168	H	0.600208	-0.430927	-0.195961
H169	H	0.603211	-0.476401	-0.139915
H170	H	0.661549	-0.801316	-0.222162
H171	H	0.054132	-0.191195	-0.269565
H172	H	0.694987	-0.953376	-0.269314
H173	H	0.556503	-0.312648	-0.439943
C174	C	0.563800	-0.182057	-0.256623
C175	C	0.528204	-0.152745	-0.215466
C176	C	0.555404	-0.119243	-0.168383
H177	H	0.585126	-0.159255	-0.284746
H178	H	0.585067	-0.202019	-0.224468
H179	H	0.506946	-0.132785	-0.247617
H180	H	0.506878	-0.175533	-0.187328
H181	H	0.576671	-0.139205	-0.136227
H182	H	0.576729	-0.096445	-0.196511
H183	H	0.531257	-0.099355	-0.140448
H184	H	0.054157	-0.312686	-0.440054
H185	H	-0.044909	-0.312689	-0.440068
H186	H	-0.044918	-0.191212	-0.269574
H187	H	0.206261	-0.157696	-0.222563
C188	C	0.449970	-0.182163	-0.256652
C189	C	0.418588	-0.211716	-0.209405
C190	C	0.391243	-0.178319	-0.162342
H191	H	0.428655	-0.159401	-0.284795
H192	H	0.474027	-0.162228	-0.228621
H193	H	0.394534	-0.231642	-0.237433
H194	H	0.439890	-0.234476	-0.181246
H195	H	0.415300	-0.158385	-0.134311
H196	H	0.369932	-0.155560	-0.190491
H197	H	0.369951	-0.198366	-0.130275
