data_functionalizedCrystal
_audit_creation_method	'MofGen! by Chris Wilmer'
_symmetry_space_group_name_H-M	'P1'
_symmetry_Int_Tables_number	1
_symmetry_cell_setting	triclinic
loop_
_symmetry_equiv_pos_as_xyz
  x,y,z
_cell_length_a	6.817900
_cell_length_b	19.551823
_cell_length_c	17.078481
_cell_angle_alpha	96.654550
_cell_angle_beta	99.306161
_cell_angle_gamma	101.663376
loop_
_atom_site_label
_atom_site_type_symbol
_atom_site_fract_x
_atom_site_fract_y
_atom_site_fract_z
V1	V	-3.970599	-0.096512	-0.247732
O2	O	-3.968495	0.004806	-0.242634
O3	O	-3.913543	-0.191528	-0.246405
O4	O	-3.901791	-0.094953	-0.355609
O5	O	-3.980329	-0.092437	-0.132674
V6	V	-4.457993	-0.084402	-0.233926
O7	O	-4.223366	-0.123076	-0.278017
O8	O	-4.655424	-0.057837	-0.203640
O9	O	-4.291843	0.010615	-0.235253
O10	O	-4.577495	-0.185719	-0.239023
O11	O	-4.565661	-0.088476	-0.348983
O12	O	-4.303595	-0.085960	-0.126049
C13	C	-3.757099	-0.214693	-0.242591
C14	C	-3.791599	-0.292369	-0.242225
C15	C	-3.988823	-0.332412	-0.246021
C16	C	-4.021243	-0.405399	-0.245685
C17	C	-3.856423	-0.438337	-0.241537
C18	C	-3.659173	-0.398285	-0.237746
C19	C	-3.626761	-0.325301	-0.238090
C20	C	-3.752711	-0.544858	-0.191229
C21	C	-3.785128	-0.617840	-0.190881
C22	C	-3.956385	-0.663443	-0.240480
C23	C	-4.095251	-0.636055	-0.290418
C24	C	-4.062839	-0.563072	-0.290762
C25	C	-3.891548	-0.517475	-0.241164
C26	C	-4.188775	-0.782627	-0.243912
C27	C	-4.221190	-0.855615	-0.243581
C28	C	-3.859111	-0.848499	-0.235634
C29	C	-3.826705	-0.775513	-0.235974
C30	C	-3.991543	-0.742581	-0.240109
C31	C	-3.742107	-0.091502	-0.381891
C32	C	-3.767075	-0.090857	-0.470084
C33	C	-3.959819	-0.094041	-0.515571
C34	C	-3.983267	-0.093435	-0.598437
C35	C	-3.813970	-0.089648	-0.635814
C36	C	-3.621210	-0.086461	-0.590320
C37	C	-3.597762	-0.087063	-0.507455
C38	C	-3.864685	-0.087470	-0.883209
C39	C	-3.888149	-0.086870	-0.966081
C40	C	-4.250205	-0.093843	-0.974192
C41	C	-4.226742	-0.094449	-0.891326
C42	C	-4.033982	-0.091258	-0.845838
N43	N	-3.837935	-0.089030	-0.720517
N44	N	-4.010018	-0.091871	-0.761136
C45	C	-4.111630	0.033776	-0.239064
C46	C	-4.056366	0.111452	-0.239435
C47	C	-4.126622	-0.089414	-0.099762
C48	C	-4.080893	-0.090055	-0.011569
H49	H	-3.666104	-0.742909	-0.232878
H50	H	-4.097685	-0.097130	-0.485146
H51	H	-3.672062	-0.640132	-0.150213
F52	F	-3.416841	-0.282682	-0.234050
F53	F	-3.683696	-0.883550	-0.231228
F54	F	-3.570423	-0.496329	-0.138439
H55	H	-3.524978	-0.425108	-0.234371
F56	F	-4.210618	-0.533926	-0.343912
H57	H	-4.140214	-0.096024	-0.635470
H58	H	-4.364605	-0.097531	-0.860899
H59	H	-4.407143	-0.096440	-1.011237
F60	F	-3.441031	-0.082430	-0.630102
F61	F	-3.707950	-0.082840	-1.005859
F62	F	-3.392615	-0.083668	-0.459042
H63	H	-4.123052	-0.305605	-0.249393
H64	H	-3.707744	-0.084896	-0.846187
H65	H	-4.234502	-0.673196	-0.330916
H66	H	-4.181851	-0.438008	-0.248775
H67	H	-4.381799	-0.888218	-0.246677
F68	F	-4.364211	-0.747578	-0.248327
