data_functionalizedCrystal
_audit_creation_method	'MofGen! by Chris Wilmer'
_symmetry_space_group_name_H-M	'P1'
_symmetry_Int_Tables_number	1
_symmetry_cell_setting	triclinic
loop_
_symmetry_equiv_pos_as_xyz
  x,y,z
_cell_length_a	14.395555
_cell_length_b	14.560438
_cell_length_c	14.560438
_cell_angle_alpha	60.003603
_cell_angle_beta	89.998732
_cell_angle_gamma	60.001010
loop_
_atom_site_label
_atom_site_type_symbol
_atom_site_fract_x
_atom_site_fract_y
_atom_site_fract_z
Zr1	Zr	0.894899	1.005266	-0.120450
O2	O	0.746583	1.196851	-0.267076
O3	O	0.940363	0.813676	-0.075514
O4	O	0.940372	1.005268	-0.267098
O5	O	0.746572	1.005259	0.075649
O6	O	1.093239	1.005275	-0.267102
O7	O	0.746575	1.005259	-0.075491
O8	O	1.093224	0.662552	0.075608
O9	O	0.746587	1.347981	-0.267061
O10	O	1.073840	0.892487	-0.056337
O11	O	0.959754	0.892481	0.056460
O12	O	0.959764	1.118056	-0.169106
O13	O	0.845679	1.118051	-0.056310
Zr14	Zr	1.138700	1.005276	0.120595
Zr15	Zr	1.138705	1.005277	-0.120456
Zr16	Zr	0.894895	1.005265	0.120601
Zr17	Zr	0.894905	1.246302	-0.120427
Zr18	Zr	1.138695	0.764240	0.120572
O19	O	1.093236	1.196866	0.075659
O20	O	1.093243	1.196866	-0.267084
O21	O	0.746576	1.196850	0.075667
O22	O	1.287016	0.813691	0.267221
O23	O	1.287023	0.813692	-0.075522
O24	O	0.940356	0.813676	0.267229
O25	O	1.287028	1.005283	-0.075504
O26	O	1.093228	1.005274	0.267243
O27	O	0.940361	1.005267	0.267247
O28	O	1.287025	1.005283	0.075636
O29	O	0.940380	1.347990	-0.267066
O30	O	1.093220	0.662552	0.267211
O31	O	1.287013	0.662561	0.267206
O32	O	1.287017	0.662561	0.075603
O33	O	0.746583	1.347981	-0.075458
O34	O	0.940376	1.347990	-0.075463
O35	O	1.073835	0.892486	0.169251
O36	O	1.187921	0.892491	0.056455
O37	O	1.073845	1.118061	-0.056315
O38	O	0.959760	1.118055	0.056482
C39	C	1.016793	0.703772	0.000044
C40	C	1.016790	0.601446	0.000034
C41	C	0.711836	1.005257	0.000080
C42	C	0.608334	1.005253	0.000082
C43	C	0.932592	0.540412	-0.083166
C44	C	0.932580	0.636588	-0.083203
C45	C	1.101012	0.470117	0.083319
C46	C	1.101018	0.373944	0.083360
C47	C	0.835353	0.636523	-0.179309
C48	C	0.835340	0.732700	-0.179346
C49	C	0.609945	0.882263	0.061567
C50	C	0.516929	0.943746	0.106149
C51	C	0.516921	0.943775	-0.044467
C52	C	0.516682	1.066736	0.044725
C53	C	0.516688	1.066748	-0.105949
C54	C	0.423656	1.128321	-0.061394
C55	C	1.321763	1.005285	0.000065
C56	C	1.425265	1.005289	0.000063
C57	C	1.016806	1.005272	-0.301445
C58	C	1.016808	1.005272	-0.403777
C59	C	1.016807	1.306770	0.000101
C60	C	1.016809	1.409096	0.000111
C61	C	1.101018	1.005281	-0.451863
C62	C	1.101013	1.005276	-0.548012
C63	C	0.932577	1.005257	-0.547983
C64	C	0.932588	1.005253	-0.451831
C65	C	1.198261	1.005297	-0.451883
C66	C	1.198256	1.005292	-0.548032
C67	C	1.016794	1.005270	0.301590
C68	C	1.016792	1.005270	0.403922
C69	C	1.321756	0.703786	0.000037
C70	C	1.425256	0.601464	0.000024
C71	C	1.016787	0.703771	0.301561
C72	C	1.016782	0.601445	0.403883
C73	C	1.321750	0.703785	0.301554
C74	C	1.425248	0.601463	0.403874
C75	C	0.711849	1.306757	-0.301409
C76	C	0.608352	1.409079	-0.403729
C77	C	0.711843	1.306756	0.000108
C78	C	0.608344	1.409078	0.000121
C79	C	1.016813	1.306771	-0.301416
C80	C	1.016817	1.409097	-0.403738
C81	C	1.414334	0.553387	-0.058854
C82	C	1.511587	0.457253	-0.058869
C83	C	1.630680	0.457277	0.058881
C84	C	1.533428	0.553416	0.058889
C85	C	1.345578	0.553368	-0.126832
C86	C	1.442830	0.457234	-0.126847
C87	C	1.076331	0.553370	0.510830
C88	C	1.076318	0.457228	0.606969
C89	C	0.957206	0.457243	0.489200
C90	C	0.957213	0.553389	0.393064
C91	C	1.145103	0.553357	0.578824
C92	C	1.145090	0.457216	0.674963
C93	C	1.533422	0.553391	0.393068
C94	C	1.630665	0.457255	0.489213
C95	C	1.511545	0.457269	0.606965
C96	C	1.414304	0.553409	0.510821
C97	C	1.602197	0.553378	0.325086
C98	C	1.699439	0.457243	0.421230
H99	H	1.169587	0.267022	0.151180
Cl100	Cl	1.086057	0.692321	0.578858
H101	H	0.344031	1.232406	-0.113386
Cl102	Cl	1.326491	0.865744	-0.341832
Cl103	Cl	1.780955	0.318261	0.421219
Cl104	Cl	1.185315	1.144856	-0.658106
H105	H	1.718763	0.418146	0.106806
Cl106	Cl	1.778964	0.513018	0.434712
Cl107	Cl	0.882322	0.396823	0.475609
Cl108	Cl	1.456464	0.513008	-0.261243
Cl109	Cl	1.172013	1.149299	-0.477825
Cl110	Cl	0.518195	1.146933	-0.244352
H111	H	0.752297	0.647346	-0.171012
Cl112	Cl	1.588558	0.497600	0.246467
H113	H	0.516010	0.891771	-0.082137
Cl114	Cl	1.075052	0.512980	0.753601
Cl115	Cl	1.266065	0.497584	-0.057567
H116	H	0.689697	0.778263	0.113632
Cl117	Cl	0.826734	1.005216	-0.391366
Cl118	Cl	0.882328	0.613844	0.258615
Cl119	Cl	0.826705	1.005233	-0.608400
Cl120	Cl	1.285667	0.318254	0.755563
Cl121	Cl	0.515493	0.863497	0.244580
Cl122	Cl	0.848288	0.829945	-0.306133
H123	H	0.852352	0.636497	-0.255765
H124	H	1.275603	0.912028	-0.531232
Cl125	Cl	1.547164	0.613870	0.132894
Cl126	Cl	1.278313	0.613860	0.524411
Cl127	Cl	1.442833	0.318247	-0.068463
Cl128	Cl	1.264065	0.692333	-0.265810
H129	H	1.169571	0.441511	0.151099
H130	H	1.233147	0.517229	0.570090
H131	H	1.502649	0.418132	0.694051
H132	H	1.602217	0.643385	0.272897
H133	H	0.757991	0.792367	-0.162548
H134	H	0.517509	1.118680	0.082498
