data_functionalizedCrystal
_audit_creation_method	'MofGen! by Chris Wilmer'
_symmetry_space_group_name_H-M	'P1'
_symmetry_Int_Tables_number	1
_symmetry_cell_setting	triclinic
loop_
_symmetry_equiv_pos_as_xyz
  x,y,z
_cell_length_a	13.032831
_cell_length_b	19.120786
_cell_length_c	13.032268
_cell_angle_alpha	85.590044
_cell_angle_beta	89.113023
_cell_angle_gamma	84.950973
loop_
_atom_site_label
_atom_site_type_symbol
_atom_site_fract_x
_atom_site_fract_y
_atom_site_fract_z
Zn1	Zn	1.472803	-0.469331	0.747724
Zn2	Zn	1.488880	-0.572874	0.568439
Zn3	Zn	1.324249	-0.440300	0.556013
Zn4	Zn	1.295334	-0.569116	0.718829
O5	O	1.395317	-0.512905	0.647751
O6	O	1.618105	-0.496789	0.741234
O7	O	1.485871	-0.544710	0.423620
O8	O	1.349328	-0.346908	0.588336
O9	O	1.629917	-0.572861	0.609514
O10	O	1.458469	-0.368237	0.729185
O11	O	1.364918	-0.447309	0.414491
O12	O	1.177244	-0.443665	0.560318
O13	O	1.300046	-0.566457	0.865833
O14	O	1.156000	-0.538306	0.679938
O15	O	1.430431	-0.493145	0.887061
O16	O	1.457833	-0.669618	0.581496
O17	O	1.315636	-0.666858	0.691987
C18	C	1.129499	-0.487428	0.615645
C19	C	1.015777	-0.476548	0.601933
C20	C	0.954602	-0.518584	0.654907
C21	C	0.837064	-0.507340	0.640737
C22	C	1.385366	-0.693457	0.634980
C23	C	1.381199	-0.770709	0.629562
C24	C	1.436009	-0.818046	0.700397
C25	C	1.432088	-0.890632	0.695308
C26	C	1.373363	-0.915880	0.619378
C27	C	1.318546	-0.868537	0.548540
C28	C	1.322461	-0.795952	0.553635
C29	C	1.358696	-1.134487	0.600329
C30	C	1.354788	-1.207078	0.595237
C31	C	1.468329	-1.229168	0.742006
C32	C	1.472244	-1.156581	0.747090
C33	C	1.417423	-1.109244	0.676256
C34	C	1.369357	-0.990074	0.614172
C35	C	1.421424	-1.035051	0.681467
C36	C	1.662172	-0.538482	0.679983
C37	C	1.775889	-0.549382	0.693719
C38	C	1.360220	-0.532620	0.914607
C39	C	1.345264	-0.541022	1.028326
C40	C	1.405331	-0.331653	0.660597
C41	C	1.409598	-0.254415	0.666072
C42	C	1.430339	-0.493223	0.381944
C43	C	1.445504	-0.484644	0.268264
C44	C	1.403108	-0.508494	1.089528
C45	C	1.387651	-0.517177	1.207062
H46	H	0.810525	-0.593695	0.749574
H47	H	0.802426	-0.463020	0.584893
C48	C	1.305284	-0.563484	1.253805
H49	H	1.270992	-0.582761	1.200165
H50	H	1.337302	-0.600569	1.298082
H51	H	1.256728	-0.535680	1.291994
H52	H	0.981135	-0.432232	0.546093
H53	H	1.483834	-0.797495	0.762223
H54	H	1.506468	-0.450362	1.233654
C55	C	1.290192	-1.234852	0.511711
H56	H	1.295726	-1.284861	0.518816
H57	H	1.220113	-1.217515	0.519151
H58	H	1.314909	-1.219324	0.445629
H59	H	1.476730	-0.929172	0.752982
H60	H	0.989243	-0.562896	0.710756
H61	H	1.520063	-1.136026	0.808918
C62	C	1.528616	-1.281238	0.819925
H63	H	1.517869	-1.328083	0.806025
H64	H	1.599976	-1.274791	0.814155
H65	H	1.505178	-1.272970	0.887675
H66	H	1.314061	-1.095951	0.542651
H67	H	1.270726	-0.889099	0.486721
H68	H	1.284292	-0.575292	1.062941
C69	C	1.262171	-0.743881	0.475716
H70	H	1.226642	-0.769312	0.429760
H71	H	1.213947	-0.714199	0.511417
H72	H	1.308736	-0.716015	0.437886
H73	H	1.469234	-1.014492	0.743292
H74	H	1.321546	-1.010639	0.552348
H75	H	1.464070	-0.474215	1.054912
