data_functionalizedCrystal
_audit_creation_method	'MofGen! by Chris Wilmer'
_symmetry_space_group_name_H-M	'P1'
_symmetry_Int_Tables_number	1
_symmetry_cell_setting	triclinic
loop_
_symmetry_equiv_pos_as_xyz
  x,y,z
_cell_length_a	25.639239
_cell_length_b	19.805407
_cell_length_c	19.805399
_cell_angle_alpha	90.016510
_cell_angle_beta	89.969866
_cell_angle_gamma	89.965164
loop_
_atom_site_label
_atom_site_type_symbol
_atom_site_fract_x
_atom_site_fract_y
_atom_site_fract_z
Zn1	Zn	-0.208209	-1.034660	-0.382707
Zn2	Zn	0.125124	-0.701327	-0.049374
Zn3	Zn	0.458457	-0.367993	0.283959
Zn4	Zn	-0.295646	-1.034556	-0.269517
Zn5	Zn	0.037688	-0.701223	0.063816
Zn6	Zn	0.371021	-0.367889	0.397150
Zn7	Zn	-0.208220	-0.921480	-0.269533
Zn8	Zn	0.125113	-0.588147	0.063801
Zn9	Zn	0.458447	-0.254813	0.397134
Zn10	Zn	-0.295610	-0.921414	-0.382664
Zn11	Zn	0.037724	-0.588081	-0.049331
Zn12	Zn	0.371057	-0.254747	0.284002
O13	O	-0.251921	-0.978027	-0.326105
O14	O	0.081412	-0.644694	0.007228
O15	O	0.414746	-0.311361	0.340561
O16	O	-0.219818	-1.129363	-0.367704
O17	O	0.113515	-0.796029	-0.034370
O18	O	0.446848	-0.462696	0.298963
O19	O	-0.284068	-1.019540	-0.174802
O20	O	0.049266	-0.686207	0.158531
O21	O	0.382599	-0.352873	0.491864
O22	O	-0.135053	-0.936565	-0.284570
O23	O	0.198280	-0.603231	0.048763
O24	O	0.531613	-0.269898	0.382096
O25	O	-0.284057	-1.129286	-0.284543
O26	O	0.049276	-0.795953	0.048790
O27	O	0.382609	-0.462620	0.382123
O28	O	-0.135046	-1.019718	-0.367719
O29	O	0.198288	-0.686384	-0.034386
O30	O	0.531621	-0.353051	0.298947
O31	O	-0.219837	-0.936464	-0.174814
O32	O	0.113497	-0.603130	0.158519
O33	O	0.446830	-0.269797	0.491853
O34	O	-0.219802	-0.826755	-0.284529
O35	O	0.113531	-0.493421	0.048805
O36	O	0.446865	-0.160088	0.382138
O37	O	-0.283996	-0.936452	-0.477387
O38	O	0.049337	-0.603119	-0.144053
O39	O	0.382670	-0.269785	0.189280
O40	O	-0.284007	-0.826706	-0.367646
O41	O	0.049327	-0.493373	-0.034313
O42	O	0.382660	-0.160039	0.299021
O43	O	-0.219784	-1.019654	-0.477418
O44	O	0.113550	-0.686320	-0.144085
O45	O	0.446883	-0.352987	0.189248
O46	O	-0.368806	-1.019476	-0.284502
O47	O	-0.035473	-0.686143	0.048832
O48	O	0.297861	-0.352809	0.382165
O49	O	-0.368780	-0.936351	-0.367630
O50	O	-0.035446	-0.603018	-0.034297
O51	O	0.297887	-0.269685	0.299036
C52	C	-0.251902	-0.802171	-0.326085
C53	C	0.081431	-0.468838	0.007249
C54	C	0.414765	-0.135505	0.340582
C55	C	-0.251906	-0.726939	-0.326092
C56	C	0.081427	-0.393606	0.007242
C57	C	0.414760	-0.060273	0.340575
C58	C	-0.218516	-0.691636	-0.369459
C59	C	0.114818	-0.358302	-0.036125
C60	C	0.448151	-0.024969	0.297208
C61	C	-0.218517	-0.620947	-0.369459
C62	C	0.114816	-0.287614	-0.036126
C63	C	0.448149	0.045719	0.297207
C64	C	-0.251913	-0.585564	-0.326097
C65	C	0.081421	-0.252230	0.007237
C66	C	0.414754	0.081103	0.340570
C67	C	-0.285305	-0.620872	-0.282725
C68	C	0.048029	-0.287539	0.050608
C69	C	0.381362	0.045794	0.383942
C70	C	-0.285300	-0.691560	-0.282721
C71	C	0.048033	-0.358226	0.050612
C72	C	0.381366	-0.024893	0.383945
C73	C	-0.285324	-0.335799	-0.282739
C74	C	0.048009	-0.002466	0.050594
C75	C	0.381343	0.330868	0.383928
C76	C	-0.285327	-0.265107	-0.282747
C77	C	0.048006	0.068226	0.050586
C78	C	0.381340	0.401560	0.383919
C79	C	-0.218541	-0.265187	-0.369477
C80	C	0.114792	0.068147	-0.036144
C81	C	0.448126	0.401480	0.297190
C82	C	-0.218536	-0.335874	-0.369473
C83	C	0.114797	-0.002541	-0.036140
C84	C	0.448130	0.330793	0.297193
C85	C	-0.251926	-0.371176	-0.326100
C86	C	0.081407	-0.037843	0.007234
C87	C	0.414740	0.295490	0.340567
C88	C	-0.251924	-0.447825	-0.326098
C89	C	0.081410	-0.114492	0.007235
C90	C	0.414743	0.218842	0.340568
C91	C	-0.251919	-0.508917	-0.326101
C92	C	0.081415	-0.175583	0.007233
C93	C	0.414748	0.157750	0.340566
C94	C	-0.387764	-0.977914	-0.326074
C95	C	-0.054430	-0.644580	0.007259
C96	C	0.278903	-0.311247	0.340592
C97	C	-0.445878	-0.977927	-0.326084
C98	C	-0.112544	-0.644593	0.007250
C99	C	0.220789	-0.311260	0.340583
C100	C	-0.806242	-1.021423	-0.282894
C101	C	-0.472909	-0.688090	0.050439
C102	C	-0.139575	-0.354757	0.383773
C103	C	-0.860846	-1.021450	-0.282903
C104	C	-0.527513	-0.688116	0.050430
C105	C	-0.194180	-0.354783	0.383764
O106	O	-0.889084	-1.058314	-0.246147
O107	O	-0.555751	-0.724981	0.087186
O108	O	-0.222417	-0.391647	0.420519
N109	N	-0.888160	-0.978146	-0.326150
N110	N	-0.554827	-0.644813	0.007183
N111	N	-0.221494	-0.311480	0.340516
C112	C	-0.860867	-0.934819	-0.369396
C113	C	-0.527534	-0.601485	-0.036063
C114	C	-0.194200	-0.268152	0.297271
O115	O	-0.889114	-0.897989	-0.406183
O116	O	-0.555780	-0.564655	-0.072849
O117	O	-0.222447	-0.231322	0.260484
C118	C	-0.806264	-0.934796	-0.369390
C119	C	-0.472930	-0.601463	-0.036057
C120	C	-0.139597	-0.268130	0.297277
C121	C	-0.778953	-0.978098	-0.326135
C122	C	-0.445619	-0.644764	0.007198
C123	C	-0.112286	-0.311431	0.340532
C124	C	-0.778931	-1.064722	-0.239643
C125	C	-0.445597	-0.731388	0.093690
C126	C	-0.112264	-0.398055	0.427024
C127	C	-0.724330	-1.064695	-0.239633
C128	C	-0.390997	-0.731361	0.093700
C129	C	-0.057664	-0.398028	0.427033
C130	C	-0.697041	-1.021369	-0.282874
C131	C	-0.363708	-0.688036	0.050459
C132	C	-0.030374	-0.354702	0.383792
C133	C	-0.724352	-0.978071	-0.326125
C134	C	-0.391019	-0.644737	0.007208
C135	C	-0.057685	-0.311404	0.340541
C136	C	-0.778972	-0.891473	-0.412639
C137	C	-0.445638	-0.558140	-0.079305
C138	C	-0.112305	-0.224806	0.254028
C139	C	-0.724365	-0.891455	-0.412629
C140	C	-0.391031	-0.558121	-0.079296
C141	C	-0.057698	-0.224788	0.254037
C142	C	-0.697053	-0.934756	-0.369374
C143	C	-0.363720	-0.601423	-0.036041
C144	C	-0.030387	-0.268089	0.297292
C145	C	-0.642462	-0.934718	-0.369357
C146	C	-0.309129	-0.601384	-0.036023
C147	C	0.024204	-0.268051	0.297310
N148	N	-0.615148	-0.978021	-0.326109
N149	N	-0.281815	-0.644688	0.007224
N150	N	0.051518	-0.311354	0.340557
C151	C	-0.642438	-1.021347	-0.282868
C152	C	-0.309104	-0.688013	0.050465
C153	C	0.024229	-0.354680	0.383798
C154	C	-0.975538	-0.934870	-0.369407
C155	C	-0.642204	-0.601536	-0.036073
C156	C	-0.308871	-0.268203	0.297260
C157	C	-1.030140	-0.934888	-0.369410
C158	C	-0.696807	-0.601555	-0.036076
C159	C	-0.363473	-0.268222	0.297257
C160	C	-1.030115	-1.021520	-0.282917
C161	C	-0.696782	-0.688187	0.050416
C162	C	-0.363449	-0.354853	0.383749
C163	C	-0.975512	-1.021498	-0.282911
C164	C	-0.642179	-0.688165	0.050422
C165	C	-0.308845	-0.354831	0.383756
C166	C	-0.948224	-0.978173	-0.326159
C167	C	-0.614890	-0.644840	0.007174
C168	C	-0.281557	-0.311506	0.340507
C169	C	-0.527772	-1.021286	-0.282851
C170	C	-0.194439	-0.687952	0.050483
C171	C	0.138894	-0.354619	0.383816
C172	C	-0.473167	-1.021252	-0.282843
C173	C	-0.139834	-0.687919	0.050491
C174	C	0.193500	-0.354586	0.383824
C175	C	-0.473196	-0.934623	-0.369337
C176	C	-0.139863	-0.601290	-0.036004
C177	C	0.193470	-0.267957	0.297329
C178	C	-0.527797	-0.934654	-0.369343
C179	C	-0.194464	-0.601320	-0.036010
C180	C	0.138870	-0.267987	0.297324
C181	C	-0.555084	-0.977990	-0.326097
C182	C	-0.221750	-0.644657	0.007236
C183	C	0.111583	-0.311324	0.340569
O184	O	-0.614190	-0.897874	-0.406095
O185	O	-0.280856	-0.564541	-0.072762
O186	O	0.052477	-0.231207	0.260571
O187	O	-0.614184	-1.058177	-0.246094
O188	O	-0.280851	-0.724843	0.087239
O189	O	0.052482	-0.391510	0.420572
C190	C	-0.115548	-0.978160	-0.326151
C191	C	0.217785	-0.644827	0.007182
C192	C	0.551119	-0.311493	0.340515
C193	C	-0.057434	-0.978217	-0.326171
C194	C	0.275899	-0.644883	0.007162
C195	C	0.609233	-0.311550	0.340496
C196	C	-0.251885	-0.978057	-0.502648
C197	C	0.081448	-0.644724	-0.169315
C198	C	0.414782	-0.311390	0.164019
C199	C	-0.251869	-0.978070	-0.577880
C200	C	0.081464	-0.644736	-0.244547
C201	C	0.414797	-0.311403	0.088786
C202	C	-0.251937	-0.154570	-0.326120
C203	C	0.081397	0.178763	0.007213
C204	C	0.414730	0.512097	0.340546
C205	C	-0.251933	-0.229802	-0.326111
C206	C	0.081400	0.103531	0.007222
C207	C	0.414733	0.436865	0.340555
C208	C	-0.218421	-0.934824	-0.613230
C209	C	0.114912	-0.601491	-0.279897
C210	C	0.448246	-0.268158	0.053437
C211	C	-0.218411	-0.934834	-0.683918
C212	C	0.114922	-0.601500	-0.350585
C213	C	0.448256	-0.268167	-0.017252
C214	C	-0.251847	-0.978092	-0.719256
C215	C	0.081487	-0.644759	-0.385923
C216	C	0.414820	-0.311426	-0.052589
C217	C	-0.285299	-1.021340	-0.683901
C218	C	0.048035	-0.688006	-0.350568
C219	C	0.381368	-0.354673	-0.017235
C220	C	-0.285311	-1.021327	-0.613214
C221	C	0.048022	-0.687993	-0.279881
C222	C	0.381355	-0.354660	0.053453
C223	C	-0.285250	-1.021393	-0.968975
C224	C	0.048083	-0.688060	-0.635641
C225	C	0.381417	-0.354727	-0.302308
C226	C	-0.285234	-1.021405	-1.039667
C227	C	0.048100	-0.688071	-0.706333
C228	C	0.381433	-0.354738	-0.373000
C229	C	-0.218350	-0.934900	-1.039679
C230	C	0.114984	-0.601567	-0.706346
C231	C	0.448317	-0.268234	-0.373012
C232	C	-0.218362	-0.934887	-0.968992
C233	C	0.114971	-0.601554	-0.635658
C234	C	0.448305	-0.268221	-0.302325
C235	C	-0.251816	-0.978132	-0.933643
C236	C	0.081518	-0.644798	-0.600310
C237	C	0.414851	-0.311465	-0.266977
C238	C	-0.251827	-0.978120	-0.856995
C239	C	0.081506	-0.644787	-0.523662
C240	C	0.414840	-0.311454	-0.190328
C241	C	-0.251833	-0.978108	-0.795903
C242	C	0.081500	-0.644774	-0.462570
C243	C	0.414833	-0.311441	-0.129236
C244	C	-0.251920	-0.978037	-0.150249
C245	C	0.081414	-0.644703	0.183084
C246	C	0.414747	-0.311370	0.516417
C247	C	-0.251788	-0.978155	-0.075018
C248	C	0.081546	-0.644822	0.258316
C249	C	0.414879	-0.311489	0.591649
H250	H	-0.312493	-0.592058	-0.247415
H251	H	0.020840	-0.258724	0.085918
H252	H	0.354173	0.074609	0.419252
O253	O	-0.317828	-1.063384	-0.718121
O254	O	0.015506	-0.730051	-0.384788
O255	O	0.348839	-0.396717	-0.051455
C256	C	-0.347344	-1.101563	-0.671760
C257	C	-0.014010	-0.768229	-0.338427
C258	C	0.319323	-0.434896	-0.005093
H259	H	-0.349161	-1.073826	-0.621369
H260	H	-0.015828	-0.740493	-0.288036
H261	H	0.317505	-0.407160	0.045298
H262	H	-0.388535	-1.108748	-0.692170
H263	H	-0.055201	-0.775415	-0.358836
H264	H	0.278132	-0.442082	-0.025503
H265	H	-0.328204	-1.152985	-0.664252
H266	H	0.005130	-0.819652	-0.330919
H267	H	0.338463	-0.486318	0.002414
H268	H	-0.312544	-1.056547	-0.584433
H269	H	0.020789	-0.723213	-0.251100
H270	H	0.354122	-0.389880	0.082234
O271	O	-0.949089	-0.892808	-0.411508
O272	O	-0.615755	-0.559474	-0.078175
O273	O	-0.282422	-0.226141	0.255159
C274	C	-0.962382	-0.907572	-0.478983
C275	C	-0.629049	-0.574238	-0.145650
C276	C	-0.295715	-0.240905	0.187684
H277	H	-1.002006	-0.933612	-0.480412
H278	H	-0.668673	-0.600279	-0.147079
H279	H	-0.335339	-0.266946	0.186255
H280	H	-0.964277	-0.858703	-0.509285
H281	H	-0.630944	-0.525369	-0.175952
H282	H	-0.297611	-0.192036	0.157382
H283	H	-0.931613	-0.942337	-0.501814
H284	H	-0.598280	-0.609004	-0.168481
H285	H	-0.264946	-0.275670	0.164852
O286	O	-1.056710	-1.063636	-0.241024
O287	O	-0.723377	-0.730302	0.092309
O288	O	-0.390044	-0.396969	0.425643
C289	C	-1.110760	-1.054380	-0.250324
C290	C	-0.777427	-0.721046	0.083009
C291	C	-0.444093	-0.387713	0.416342
H292	H	-1.118190	-1.032116	-0.302516
H293	H	-0.784857	-0.698783	0.030818
H294	H	-0.451524	-0.365449	0.364151
H295	H	-1.131462	-1.105109	-0.245869
H296	H	-0.798129	-0.771775	0.087465
H297	H	-0.464795	-0.438442	0.420798
H298	H	-1.126334	-1.018431	-0.210110
H299	H	-0.793000	-0.685098	0.123224
H300	H	-0.459667	-0.351764	0.456557
O301	O	-0.185900	-0.892915	-0.718337
O302	O	0.147433	-0.559582	-0.385004
O303	O	0.480767	-0.226249	-0.051671
C304	C	-0.152121	-0.931485	-0.759240
C305	C	0.181212	-0.598151	-0.425907
C306	C	0.514545	-0.264818	-0.092573
H307	H	-0.170561	-0.982766	-0.769824
H308	H	0.162772	-0.649433	-0.436491
H309	H	0.496106	-0.316099	-0.103157
H310	H	-0.145114	-0.903929	-0.808949
H311	H	0.188219	-0.570595	-0.475615
H312	H	0.521553	-0.237262	-0.142282
H313	H	-0.113375	-0.938947	-0.732024
H314	H	0.219958	-0.605614	-0.398691
H315	H	0.553291	-0.272281	-0.065357
H316	H	-0.312496	-1.056599	-0.940202
H317	H	0.020838	-0.723265	-0.606869
H318	H	0.354171	-0.389932	-0.273536
H319	H	-0.191344	-0.364680	-0.404786
H320	H	0.141989	-0.031346	-0.071453
H321	H	0.475322	0.301987	0.261881
H322	H	-0.312490	-0.720303	-0.247407
H323	H	0.020843	-0.386970	0.085926
H324	H	0.354177	-0.053636	0.419259
O325	O	-0.446719	-1.063382	-0.240802
O326	O	-0.113385	-0.730049	0.092531
O327	O	0.219948	-0.396716	0.425865
C328	C	-0.482518	-1.101616	-0.202630
C329	C	-0.149185	-0.768283	0.130704
C330	C	0.184148	-0.434950	0.464037
H331	H	-0.521424	-1.103959	-0.230365
H332	H	-0.188091	-0.770626	0.102968
H333	H	0.145242	-0.437292	0.436302
H334	H	-0.466707	-1.154943	-0.195455
H335	H	-0.133373	-0.821609	0.137878
H336	H	0.199960	-0.488276	0.471211
H337	H	-0.488372	-1.076866	-0.151202
H338	H	-0.155039	-0.743533	0.182131
H339	H	0.178295	-0.410199	0.515464
O340	O	-1.056724	-0.892915	-0.411457
O341	O	-0.723390	-0.559581	-0.078124
O342	O	-0.390057	-0.226248	0.255210
C343	C	-1.088246	-0.931435	-0.455230
C344	C	-0.754913	-0.598102	-0.121897
C345	C	-0.421579	-0.264768	0.211437
H346	H	-1.096405	-0.982747	-0.431408
H347	H	-0.763071	-0.649414	-0.098075
H348	H	-0.429738	-0.316080	0.235259
H349	H	-1.126657	-0.903874	-0.464288
H350	H	-0.793323	-0.570541	-0.130954
H351	H	-0.459990	-0.237207	0.202379
H352	H	-1.067167	-0.938832	-0.505389
H353	H	-0.733834	-0.605499	-0.172056
H354	H	-0.400500	-0.272166	0.161277
H355	H	-0.191112	-0.899687	-1.068468
H356	H	0.142222	-0.566353	-0.735135
H357	H	0.475555	-0.233020	-0.401802
H358	H	-0.191133	-0.899664	-0.940224
H359	H	0.142200	-0.566330	-0.606890
H360	H	0.475533	-0.232997	-0.273557
O361	O	-0.446708	-0.892446	-0.411274
O362	O	-0.113374	-0.559113	-0.077941
O363	O	0.219959	-0.225779	0.255392
C364	C	-0.460111	-0.824998	-0.396448
C365	C	-0.126778	-0.491664	-0.063114
C366	C	0.206555	-0.158331	0.270219
H367	H	-0.475150	-0.821607	-0.342375
H368	H	-0.141816	-0.488273	-0.009042
H369	H	0.191517	-0.154940	0.324292
H370	H	-0.424221	-0.791545	-0.402251
H371	H	-0.090888	-0.458212	-0.068917
H372	H	0.242445	-0.124878	0.264416
H373	H	-0.491801	-0.807300	-0.432728
H374	H	-0.158467	-0.473967	-0.099394
H375	H	0.174866	-0.140633	0.233939
O376	O	-0.805360	-1.106923	-0.197668
O377	O	-0.472027	-0.773590	0.135666
O378	O	-0.138693	-0.440257	0.468999
C379	C	-0.791943	-1.174354	-0.212553
C380	C	-0.458610	-0.841021	0.120780
C381	C	-0.125277	-0.507688	0.454113
H382	H	-0.752294	-1.175686	-0.238595
H383	H	-0.418961	-0.842353	0.094738
H384	H	-0.085627	-0.509019	0.428071
H385	H	-0.790043	-1.204743	-0.163739
H386	H	-0.456709	-0.871409	0.169594
H387	H	-0.123376	-0.538076	0.502927
H388	H	-0.822644	-1.197161	-0.247361
H389	H	-0.489311	-0.863828	0.085972
H390	H	-0.155977	-0.530495	0.419305
O391	O	-0.186085	-0.230997	-0.411671
O392	O	0.147249	0.102336	-0.078338
O393	O	0.480582	0.435669	0.254996
C394	C	-0.156602	-0.277387	-0.449933
C395	C	0.176731	0.055946	-0.116599
C396	C	0.510064	0.389280	0.216734
H397	H	-0.178019	-0.327760	-0.452220
H398	H	0.155314	0.005573	-0.118887
H399	H	0.488648	0.338906	0.214446
H400	H	-0.151081	-0.256987	-0.503276
H401	H	0.182252	0.076346	-0.169943
H402	H	0.515586	0.409680	0.163390
H403	H	-0.116867	-0.284925	-0.425243
H404	H	0.216466	0.048408	-0.091909
H405	H	0.549799	0.381741	0.241424
O406	O	-0.697745	-1.106795	-0.197715
O407	O	-0.364412	-0.773462	0.135619
O408	O	-0.031079	-0.440129	0.468952
C409	C	-0.666121	-1.150486	-0.236288
C410	C	-0.332788	-0.817153	0.097046
C411	C	0.000545	-0.483820	0.430379
H412	H	-0.657929	-1.126575	-0.287556
H413	H	-0.324595	-0.793242	0.045778
H414	H	0.008738	-0.459908	0.379111
H415	H	-0.627733	-1.159566	-0.208718
H416	H	-0.294400	-0.826233	0.124615
H417	H	0.038933	-0.492899	0.457948
H418	H	-0.687129	-1.200646	-0.243780
H419	H	-0.353796	-0.867313	0.089553
H420	H	-0.020462	-0.533979	0.422887
H421	H	-0.550035	-0.899396	-0.404567
H422	H	-0.216702	-0.566063	-0.071233
H423	H	0.116632	-0.232730	0.262100
O424	O	-0.949041	-1.063530	-0.240803
O425	O	-0.615708	-0.730196	0.092531
O426	O	-0.282375	-0.396863	0.425864
C427	C	-0.962418	-1.048772	-0.173331
C428	C	-0.629085	-0.715439	0.160002
C429	C	-0.295752	-0.382106	0.493335
H430	H	-1.002081	-1.022765	-0.171912
H431	H	-0.668748	-0.689432	0.161422
H432	H	-0.335415	-0.356099	0.494755
H433	H	-0.964271	-1.097641	-0.143026
H434	H	-0.630937	-0.764307	0.190307
H435	H	-0.297604	-0.430974	0.523640
H436	H	-0.931721	-1.013979	-0.150497
H437	H	-0.598387	-0.680646	0.182837
H438	H	-0.265054	-0.347313	0.516170
O439	O	-0.186027	-0.725900	-0.411606
O440	O	0.147306	-0.392566	-0.078272
O441	O	0.480639	-0.059233	0.255061
C442	C	-0.156566	-0.679578	-0.449894
C443	C	0.176767	-0.346244	-0.116561
C444	C	0.510101	-0.012911	0.216773
H445	H	-0.154731	-0.629182	-0.422175
H446	H	0.178603	-0.295849	-0.088842
H447	H	0.511936	0.037484	0.244491
H448	H	-0.115378	-0.700032	-0.457212
H449	H	0.217956	-0.366698	-0.123879
H450	H	0.551289	-0.033365	0.209455
H451	H	-0.175765	-0.672063	-0.501254
H452	H	0.157568	-0.338729	-0.167920
H453	H	0.490902	-0.005396	0.165413
O454	O	-0.186157	-0.586582	-0.411624
O455	O	0.147177	-0.253248	-0.078291
O456	O	0.480510	0.080085	0.255043
C457	C	-0.215973	-0.545701	-0.455281
C458	C	0.117361	-0.212367	-0.121948
C459	C	0.450694	0.120966	0.211385
H460	H	-0.255569	-0.535071	-0.431311
H461	H	0.077764	-0.201737	-0.097978
H462	H	0.411097	0.131596	0.235355
H463	H	-0.194686	-0.496013	-0.464411
H464	H	0.138647	-0.162680	-0.131078
H465	H	0.471980	0.170653	0.202255
H466	H	-0.221772	-0.572959	-0.505423
H467	H	0.111562	-0.239625	-0.172090
H468	H	0.444895	0.093708	0.161244
H469	H	-0.312463	-1.056633	-1.068437
H470	H	0.020870	-0.723300	-0.735103
H471	H	0.354203	-0.389966	-0.401770
H472	H	-0.801199	-0.856209	-0.447859
H473	H	-0.467866	-0.522876	-0.114525
H474	H	-0.134532	-0.189542	0.218808
O475	O	-0.185925	-0.892737	-0.579011
O476	O	0.147408	-0.559404	-0.245677
O477	O	0.480742	-0.226070	0.087656
C478	C	-0.156393	-0.854580	-0.625373
C479	C	0.176940	-0.521247	-0.292040
C480	C	0.510274	-0.187914	0.041294
H481	H	-0.177799	-0.852228	-0.675753
H482	H	0.155534	-0.518895	-0.342420
H483	H	0.488867	-0.185562	-0.009086
H484	H	-0.150815	-0.801252	-0.604948
H485	H	0.182518	-0.467919	-0.271615
H486	H	0.515851	-0.134586	0.061719
H487	H	-0.116684	-0.879404	-0.632908
H488	H	0.216649	-0.546071	-0.299575
H489	H	0.549982	-0.212737	0.033759
O490	O	-0.317783	-0.230839	-0.240555
O491	O	0.015550	0.102494	0.092778
O492	O	0.348883	0.435828	0.426111
C493	C	-0.347262	-0.277155	-0.202282
C494	C	-0.013929	0.056179	0.131051
C495	C	0.319404	0.389512	0.464385
H496	H	-0.325842	-0.327557	-0.199984
H497	H	0.007491	0.005776	0.133350
H498	H	0.340824	0.339109	0.466683
H499	H	-0.352784	-0.256704	-0.148943
H500	H	-0.019450	0.076630	0.184391
H501	H	0.313883	0.409963	0.517724
H502	H	-0.386997	-0.284655	-0.226969
H503	H	-0.053664	0.048679	0.106364
H504	H	0.279669	0.382012	0.439698
O505	O	-0.317788	-0.370158	-0.240706
O506	O	0.015545	-0.036825	0.092627
O507	O	0.348878	0.296509	0.425961
C508	C	-0.351603	-0.411023	-0.279159
C509	C	-0.018270	-0.077690	0.054174
C510	C	0.315063	0.255643	0.387508
H511	H	-0.333212	-0.421651	-0.330493
H512	H	0.000121	-0.088318	0.002840
H513	H	0.333455	0.245015	0.336174
H514	H	-0.358585	-0.460713	-0.251565
H515	H	-0.025251	-0.127379	0.081768
H516	H	0.308082	0.205954	0.415101
H517	H	-0.390356	-0.383753	-0.286512
H518	H	-0.057023	-0.050420	0.046821
H519	H	0.276310	0.282914	0.380154
H520	H	-0.702149	-0.856175	-0.447849
H521	H	-0.368816	-0.522842	-0.114516
H522	H	-0.035482	-0.189508	0.218817
O523	O	-0.554336	-1.063291	-0.240817
O524	O	-0.221002	-0.729958	0.092516
O525	O	0.112331	-0.396625	0.425850
C526	C	-0.585967	-1.024809	-0.197055
C527	C	-0.252633	-0.691476	0.136278
C528	C	0.080700	-0.358142	0.469611
H529	H	-0.594176	-0.973501	-0.220873
H530	H	-0.260843	-0.640168	0.112460
H531	H	0.072490	-0.306834	0.445793
H532	H	-0.624346	-1.052409	-0.188024
H533	H	-0.291013	-0.719076	0.145310
H534	H	0.042321	-0.385742	0.478643
H535	H	-0.564957	-1.017400	-0.146883
H536	H	-0.231623	-0.684066	0.186450
H537	H	0.101710	-0.350733	0.519784
