data_functionalizedCrystal
_audit_creation_method	'MofGen! by Chris Wilmer'
_symmetry_space_group_name_H-M	'P1'
_symmetry_Int_Tables_number	1
_symmetry_cell_setting	triclinic
loop_
_symmetry_equiv_pos_as_xyz
  x,y,z
_cell_length_a	14.472310
_cell_length_b	15.995350
_cell_length_c	15.995350
_cell_angle_alpha	96.507625
_cell_angle_beta	90.001162
_cell_angle_gamma	90.009379
loop_
_atom_site_label
_atom_site_type_symbol
_atom_site_fract_x
_atom_site_fract_y
_atom_site_fract_z
O1	O	-0.076758	-1.110997	0.107921
O2	O	0.423242	-0.610997	0.607921
O3	O	-0.076776	-0.867221	0.121248
O4	O	0.423224	-0.367221	0.621248
O5	O	-0.076766	-0.995773	-0.007303
O6	O	0.423234	-0.495773	0.492697
O7	O	-0.076769	-0.982445	0.236472
O8	O	0.423231	-0.482445	0.736472
O9	O	0.076916	-0.995740	-0.007296
O10	O	0.576916	-0.495740	0.492704
O11	O	0.076906	-0.867188	0.121256
O12	O	0.576906	-0.367188	0.621256
O13	O	0.076924	-1.110963	0.107928
O14	O	0.576924	-0.610963	0.607928
Cu15	Cu	0.090947	-0.989073	0.114593
Cu16	Cu	0.590947	-0.489073	0.614593
Cu17	Cu	-0.090800	-0.989112	0.114584
Cu18	Cu	0.409200	-0.489112	0.614584
O19	O	0.076913	-0.982412	0.236480
O20	O	0.576913	-0.482412	0.736480
C21	C	0.000062	-0.836010	0.120701
C22	C	0.500062	-0.336010	0.620701
C23	C	0.000055	-0.743060	0.119049
C24	C	0.500055	-0.243060	0.619049
C25	C	0.000073	-0.995205	-0.038494
C26	C	0.500073	-0.495205	0.461506
C27	C	0.000068	-0.993553	-0.131444
C28	C	0.500068	-0.493553	0.368556
N29	N	0.218778	-0.989051	0.114598
N30	N	0.718778	-0.489051	0.614598
N31	N	-0.218631	-0.989140	0.114572
N32	N	0.281369	-0.489140	0.614572
C33	C	0.592869	-0.989111	0.114581
C34	C	1.092869	-0.489111	0.614581
C35	C	0.553698	-0.920095	0.183135
C36	C	1.053698	-0.420095	0.683135
C37	C	0.446610	-0.920254	0.183385
C38	C	0.946610	-0.420254	0.683385
C39	C	0.407278	-0.989081	0.114590
C40	C	0.907278	-0.489081	0.614590
C41	C	0.446122	-1.076445	0.133671
C42	C	0.946122	-0.576445	0.633671
C43	C	0.553243	-1.076057	0.134159
C44	C	1.053243	-0.576057	0.634159
C45	C	0.553398	-0.971542	0.026741
C46	C	1.053398	-0.471542	0.526741
C47	C	0.446270	-0.969538	0.027327
C48	C	0.946270	-0.469538	0.527327
C49	C	0.302390	-0.989069	0.114593
C50	C	0.802390	-0.489069	0.614593
C51	C	0.697757	-0.989128	0.114579
C52	C	1.197757	-0.489128	0.614579
C53	C	0.000083	-1.142175	0.108476
C54	C	0.500083	-0.642175	0.608476
C55	C	0.000084	-1.235125	0.110127
C56	C	0.500084	-0.735125	0.610127
C57	C	0.000074	-0.405312	0.113117
C58	C	0.500074	0.094688	0.613117
C59	C	0.000418	-0.452746	0.021565
C60	C	0.500418	0.047254	0.521565
C61	C	0.000065	-0.549436	0.023217
C62	C	0.500065	-0.049436	0.523217
C63	C	0.000065	-0.572873	0.116060
C64	C	0.500065	-0.072873	0.616060
C65	C	-0.087692	-0.531804	0.161212
C66	C	0.412308	-0.031804	0.661212
C67	C	-0.087759	-0.435169	0.158912
C68	C	0.412241	0.064831	0.658912
C69	C	0.087007	-0.434792	0.160812
C70	C	0.587007	0.065208	0.660812
C71	C	0.088160	-0.531737	0.160790
C72	C	0.588160	-0.031737	0.660790
C73	C	0.000057	-0.667570	0.117727
C74	C	0.500057	-0.167570	0.617727
C75	C	0.000076	-0.310614	0.111452
C76	C	0.500076	0.189386	0.611452
C77	C	0.000071	-0.987621	-0.469192
C78	C	0.500071	-0.487621	0.030808
C79	C	-0.000281	-0.896069	-0.421758
C80	C	0.499719	-0.396069	0.078242
C81	C	0.000066	-0.897721	-0.325068
C82	C	0.500066	-0.397721	0.174932
C83	C	0.000069	-0.990564	-0.301631
C84	C	0.500069	-0.490564	0.198369
C85	C	0.087831	-1.035701	-0.342705
C86	C	0.587831	-0.535701	0.157295
C87	C	0.087904	-1.033401	-0.439340
C88	C	0.587904	-0.533401	0.060660
C89	C	-0.086861	-1.035330	-0.439707
C90	C	0.413139	-0.535330	0.060293
C91	C	-0.088021	-1.035309	-0.342762
C92	C	0.411979	-0.535309	0.157238
C93	C	0.000071	-0.992231	-0.206934
C94	C	0.500071	-0.492231	0.293066
C95	C	0.000075	-0.985956	-0.563890
C96	C	0.500075	-0.485956	-0.063890
C97	C	0.000072	-0.982980	0.267671
C98	C	0.500072	-0.482980	0.767671
C99	C	0.000071	-0.984631	0.360621
C100	C	0.500071	-0.484631	0.860621
H101	H	0.420349	-0.855314	0.172016
H102	H	0.920349	-0.355314	0.672016
H103	H	0.578728	-1.021872	-0.024275
H104	H	1.078728	-0.521872	0.475725
C105	C	0.085038	-0.587833	-0.024737
C106	C	0.585038	-0.087833	0.475263
H107	H	0.084937	-0.647112	-0.023788
H108	H	0.584937	-0.147112	0.476212
H109	H	0.082863	-0.575339	-0.081363
H110	H	0.582863	-0.075339	0.418637
H111	H	0.139743	-0.564740	0.001366
H112	H	0.639743	-0.064740	0.501366
C113	C	0.093304	-1.124198	-0.482909
C114	C	0.593304	-0.624198	0.017091
H115	H	0.095451	-1.162324	-0.441525
H116	H	0.595451	-0.662324	0.058475
H117	H	0.040388	-1.135760	-0.517429
H118	H	0.540388	-0.635760	-0.017429
H119	H	0.147426	-1.130526	-0.516639
H120	H	0.647426	-0.630526	-0.016639
C121	C	0.588537	-0.832082	0.168042
C122	C	1.088537	-0.332082	0.668042
H123	H	0.627289	-0.836634	0.119801
H124	H	1.127289	-0.336634	0.619801
H125	H	0.537299	-0.796995	0.159292
H126	H	1.037299	-0.296995	0.659292
H127	H	0.622540	-0.808322	0.215724
H128	H	1.122540	-0.308322	0.715724
H129	H	0.579154	-1.129018	0.086196
H130	H	1.079154	-0.629018	0.586196
H131	H	-0.063217	-0.859490	-0.440293
H132	H	0.436783	-0.359490	0.059707
H133	H	0.153082	-0.559040	0.127830
H134	H	0.653082	-0.059040	0.627830
H135	H	0.578220	-1.091540	0.198219
H136	H	1.078220	-0.591540	0.698219
H137	H	-0.062951	-0.577308	-0.012521
H138	H	0.437049	-0.077308	0.487479
C139	C	0.411977	-0.882724	0.007753
C140	C	0.911977	-0.382724	0.507753
H141	H	0.435799	-0.871262	-0.045109
H142	H	0.935799	-0.371262	0.454891
H143	H	0.346372	-0.882633	0.005874
H144	H	0.846372	-0.382633	0.505874
H145	H	0.432616	-0.840712	0.050419
H146	H	0.932616	-0.340712	0.550419
C147	C	0.085433	-0.427702	-0.027871
C148	C	0.585433	0.072298	0.472129
H149	H	0.121478	-0.388089	0.006876
H150	H	0.621478	0.111911	0.506876
H151	H	0.121566	-0.476277	-0.044703
H152	H	0.621566	0.023723	0.455297
H153	H	0.065700	-0.403269	-0.076280
H154	H	0.565700	0.096731	0.423720
C155	C	-0.084123	-0.426294	-0.027655
C156	C	0.415877	0.073706	0.472345
H157	H	-0.119630	-0.386471	0.007348
H158	H	0.380370	0.113529	0.507348
H159	H	-0.063941	-0.401747	-0.075851
H160	H	0.436059	0.098253	0.424149
H161	H	-0.120966	-0.474349	-0.044813
H162	H	0.379034	0.025651	0.455187
H163	H	-0.093317	-1.103014	-0.327400
H164	H	0.406683	-0.603014	0.172600
C165	C	0.409876	-1.097868	0.219223
C166	C	0.909876	-0.597868	0.719223
H167	H	0.433765	-1.150855	0.230207
H168	H	0.933765	-0.650855	0.730207
H169	H	0.429201	-1.055718	0.262311
H170	H	0.929201	-0.555718	0.762311
H171	H	0.344295	-1.100260	0.217926
H172	H	0.844295	-0.600260	0.717926
H173	H	0.420643	-1.129029	0.085068
H174	H	0.920643	-0.629029	0.585068
C175	C	-0.084919	-0.849791	-0.286668
C176	C	0.415081	-0.349791	0.213332
H177	H	-0.084824	-0.850743	-0.227389
H178	H	0.415176	-0.350743	0.272611
H179	H	-0.082755	-0.793163	-0.299158
H180	H	0.417245	-0.293163	0.200842
H181	H	-0.139616	-0.875911	-0.309761
H182	H	0.360384	-0.375911	0.190239
H183	H	0.091097	-1.103909	-0.328579
H184	H	0.591097	-0.603909	0.171421
H185	H	0.580461	-0.909219	0.008392
H186	H	1.080461	-0.409219	0.508392
H187	H	0.580608	-0.931159	0.247952
H188	H	1.080608	-0.431159	0.747952
C189	C	0.410120	-1.033039	-0.044821
C190	C	0.910120	-0.533039	0.455179
H191	H	0.370602	-1.072480	-0.022569
H192	H	0.870602	-0.572480	0.477431
H193	H	0.376676	-1.003986	-0.083693
H194	H	0.876676	-0.503986	0.416307
H195	H	0.460790	-1.061847	-0.072703
H196	H	0.960790	-0.561847	0.427297
C197	C	0.176059	-0.993317	-0.304371
C198	C	0.676059	-0.493317	0.195629
H199	H	0.228801	-1.021082	-0.329632
H200	H	0.728801	-0.521082	0.170368
H201	H	0.176845	-0.935895	-0.314342
H202	H	0.676845	-0.435895	0.185658
H203	H	0.176968	-0.996836	-0.245486
H204	H	0.676968	-0.496836	0.254514
H205	H	-0.153359	-0.416874	0.125979
H206	H	0.346641	0.083126	0.625979
C207	C	-0.093163	-0.391601	0.249708
C208	C	0.406837	0.108399	0.749708
H209	H	-0.095315	-0.432985	0.287835
H210	H	0.404685	0.067015	0.787835
H211	H	-0.040248	-0.357073	0.261269
H212	H	0.459752	0.142927	0.761269
H213	H	-0.147285	-0.357877	0.256038
H214	H	0.352715	0.142123	0.756038
C215	C	-0.176725	-0.994919	-0.467453
C216	C	0.323275	-0.494919	0.032547
H217	H	-0.228339	-1.024650	-0.449035
H218	H	0.271661	-0.524650	0.050965
H219	H	-0.179424	-0.937884	-0.443391
H220	H	0.320576	-0.437884	0.056609
H221	H	-0.177852	-0.997301	-0.527060
H222	H	0.322148	-0.497301	-0.027060
H223	H	0.062299	-0.859626	-0.441349
H224	H	0.562299	-0.359626	0.058651
H225	H	0.420976	-0.931473	0.248569
H226	H	0.920976	-0.431473	0.748569
H227	H	-0.090955	-0.545930	0.229421
H228	H	0.409045	-0.045930	0.729421
H229	H	-0.153002	-0.560193	0.129845
H230	H	0.346998	-0.060193	0.629845
C231	C	0.176867	-0.407034	0.120386
C232	C	0.676867	0.092966	0.620386
H233	H	0.162204	-0.377204	0.074035
H234	H	0.662204	0.122796	0.574035
H235	H	0.211129	-0.371555	0.160790
H236	H	0.711129	0.128445	0.660790
H237	H	0.212696	-0.455223	0.101372
H238	H	0.712696	0.044777	0.601372
C239	C	0.095325	-0.552488	0.252253
C240	C	0.595325	-0.052488	0.752253
H241	H	0.044452	-0.586657	0.264413
H242	H	0.544452	-0.086657	0.764413
H243	H	0.151336	-0.581828	0.259342
H244	H	0.651336	-0.081828	0.759342
H245	H	0.094584	-0.501775	0.289436
H246	H	0.594584	-0.001775	0.789436
C247	C	0.087810	-0.391891	0.251999
C248	C	0.587810	0.108109	0.751999
H249	H	0.035456	-0.356180	0.260994
H250	H	0.535456	0.143820	0.760994
H251	H	0.085880	-0.433560	0.289819
H252	H	0.585880	0.066440	0.789819
H253	H	0.142582	-0.359448	0.261432
H254	H	0.642582	0.140552	0.761432
H255	H	0.063079	-0.861973	-0.297200
H256	H	0.563079	-0.361973	0.202800
H257	H	0.153505	-1.000459	-0.457639
H258	H	0.653505	-0.500459	0.042361
H259	H	-0.152945	-1.002307	-0.315516
H260	H	0.347055	-0.502307	0.184484
C261	C	-0.087665	-1.126514	-0.482618
C262	C	0.412335	-0.626514	0.017382
H263	H	-0.035310	-1.135499	-0.518334
H264	H	0.464690	-0.635499	-0.018334
H265	H	-0.085738	-1.164341	-0.440956
H266	H	0.414262	-0.664341	0.059044
H267	H	-0.142436	-1.135946	-0.515057
H268	H	0.357564	-0.635946	-0.015057
