data_functionalizedCrystal
_audit_creation_method	'MofGen! by Chris Wilmer'
_symmetry_space_group_name_H-M	'P1'
_symmetry_Int_Tables_number	1
_symmetry_cell_setting	triclinic
loop_
_symmetry_equiv_pos_as_xyz
  x,y,z
_cell_length_a	16.625546
_cell_length_b	12.759401
_cell_length_c	12.759393
_cell_angle_alpha	89.981433
_cell_angle_beta	89.963806
_cell_angle_gamma	90.021512
loop_
_atom_site_label
_atom_site_type_symbol
_atom_site_fract_x
_atom_site_fract_y
_atom_site_fract_z
Zn1	Zn	-0.320975	1.606199	-0.593950
Zn2	Zn	0.179025	2.106199	-0.093950
Zn3	Zn	-0.455831	1.606069	-0.418255
Zn4	Zn	0.044169	2.106069	0.081745
Zn5	Zn	-0.321014	1.430501	-0.418289
Zn6	Zn	0.178986	1.930501	0.081711
Zn7	Zn	-0.455767	1.430465	-0.593897
Zn8	Zn	0.044233	1.930465	-0.093897
O9	O	-0.388397	1.518308	-0.506098
O10	O	0.111603	2.018308	-0.006098
O11	O	-0.338874	1.753202	-0.570651
O12	O	0.161126	2.253202	-0.070651
O13	O	-0.437991	1.582740	-0.271239
O14	O	0.062009	2.082740	0.228761
O15	O	-0.208177	1.453876	-0.441627
O16	O	0.291823	1.953876	0.058373
O17	O	-0.437953	1.753107	-0.441570
O18	O	0.062047	2.253107	0.058430
O19	O	-0.208147	1.582961	-0.570684
O20	O	0.291853	2.082961	-0.070684
O21	O	-0.338942	1.453751	-0.271263
O22	O	0.161058	1.953751	0.228737
O23	O	-0.338879	1.283475	-0.441575
O24	O	0.161121	1.783475	0.058425
O25	O	-0.437843	1.453816	-0.740925
O26	O	0.062157	1.953816	-0.240925
O27	O	-0.437881	1.283449	-0.570594
O28	O	0.062119	1.783449	-0.070594
O29	O	-0.338811	1.582927	-0.740964
O30	O	0.161189	2.082927	-0.240964
O31	O	-0.568655	1.582706	-0.441519
O32	O	-0.068655	2.082706	0.058481
O33	O	-0.568608	1.453691	-0.570561
O34	O	-0.068608	1.953691	-0.070561
C35	C	-0.388378	1.245341	-0.506083
C36	C	0.111622	1.745341	-0.006083
C37	C	-0.388389	1.128564	-0.506102
C38	C	0.111611	1.628564	-0.006102
C39	C	-0.336896	1.073745	-0.573419
C40	C	0.163104	1.573745	-0.073419
C41	C	-0.336912	0.964021	-0.573425
C42	C	0.163088	1.464021	-0.073425
C43	C	-0.439920	0.963945	-0.438795
C44	C	0.060080	1.463945	0.061205
C45	C	-0.439900	1.073668	-0.438784
C46	C	0.060100	1.573668	0.061216
C47	C	-0.277428	1.073788	-0.651150
C48	C	0.222572	1.573788	-0.151150
C49	C	-0.277443	0.964064	-0.651156
C50	C	0.222557	1.464064	-0.151156
C51	C	-0.597888	1.518209	-0.506054
C52	C	-0.097888	2.018209	-0.006054
C53	C	-0.687509	1.518263	-0.506070
C54	C	-0.187509	2.018263	-0.006070
C55	C	-1.015684	1.518446	-0.506179
C56	C	-0.515684	2.018446	-0.006179
C57	C	-0.924376	1.518392	-0.506152
C58	C	-0.424376	2.018392	-0.006152
C59	C	-0.851599	1.518353	-0.506124
C60	C	-0.351599	2.018353	-0.006124
C61	C	-0.760285	1.518301	-0.506098
C62	C	-0.260285	2.018301	-0.006098
C63	C	-0.178088	1.518437	-0.506165
C64	C	0.321912	2.018437	-0.006165
C65	C	-0.088467	1.518492	-0.506193
C66	C	0.411533	2.018492	-0.006193
C67	C	-0.388315	1.518382	-0.780131
C68	C	0.111685	2.018382	-0.280131
C69	C	-0.388281	1.518413	-0.896908
C70	C	0.111719	2.018413	-0.396908
C71	C	-0.388416	1.792342	-0.506113
C72	C	0.111584	2.292342	-0.006113
C73	C	-0.388425	1.909118	-0.506119
C74	C	0.111575	2.409118	-0.006119
C75	C	-0.336710	1.585650	-0.951792
C76	C	0.163290	2.085650	-0.451792
C77	C	-0.336681	1.585675	-1.061516
C78	C	0.163319	2.085675	-0.561516
C79	C	-0.439800	1.451223	-1.061462
C80	C	0.060200	1.951223	-0.561462
C81	C	-0.439824	1.451194	-0.951740
C82	C	0.060176	1.951194	-0.451740
C83	C	-0.277178	1.663279	-0.951823
C84	C	0.222822	2.163279	-0.451823
C85	C	-0.277149	1.663304	-1.061548
C86	C	0.222851	2.163304	-0.561548
C87	C	-0.388420	1.518296	-0.233130
C88	C	0.111580	2.018296	0.266870
C89	C	-0.388227	1.518468	-0.116354
C90	C	0.111773	2.018468	0.383646
H91	H	-0.218097	0.930033	-0.622163
H92	H	0.281903	1.430033	-0.122163
H93	H	-0.217817	1.634200	-1.095602
H94	H	0.282183	2.134200	-0.595602
H95	H	-0.481815	1.396439	-0.907058
H96	H	0.018185	1.896439	-0.407058
H97	H	-0.293875	1.744671	-1.091324
H98	H	0.206125	2.244671	-0.591324
O99	O	-0.495432	1.132795	-0.366168
O100	O	0.004568	1.632795	0.133832
H101	H	-0.459276	1.182758	-0.312797
H102	H	0.040724	1.682758	0.187203
O103	O	-0.307141	1.118919	-0.753453
O104	O	0.192859	1.618919	-0.253453
H105	H	-0.259157	1.167898	-0.789028
H106	H	0.240843	1.667898	-0.289028
H107	H	-0.294247	0.934316	-0.732490
H108	H	0.205753	1.434316	-0.232490
H109	H	-0.214954	1.103566	-0.629502
H110	H	0.285046	1.603566	-0.129502
O111	O	-0.495392	1.378729	-1.120608
O112	O	0.004608	1.878729	-0.620608
H113	H	-0.481552	1.296278	-1.099551
H114	H	0.018448	1.796278	-0.599551
O115	O	-0.495479	0.904737	-0.366192
O116	O	0.004521	1.404737	0.133808
H117	H	-0.486845	0.819230	-0.377510
H118	H	0.013155	1.319230	0.122490
O119	O	-0.194469	1.634461	-0.912401
O120	O	0.305531	2.134461	-0.412401
H121	H	-0.153958	1.620363	-0.980118
H122	H	0.346042	2.120363	-0.480118
O123	O	-0.306816	1.765629	-0.906720
O124	O	0.193184	2.265629	-0.406720
H125	H	-0.322507	1.819918	-0.971541
H126	H	0.177493	2.319918	-0.471541
