data_functionalizedCrystal
_audit_creation_method	'MofGen! by Chris Wilmer'
_symmetry_space_group_name_H-M	'P1'
_symmetry_Int_Tables_number	1
_symmetry_cell_setting	triclinic
loop_
_symmetry_equiv_pos_as_xyz
  x,y,z
_cell_length_a	13.032831
_cell_length_b	21.295417
_cell_length_c	13.032268
_cell_angle_alpha	82.859352
_cell_angle_beta	89.113023
_cell_angle_gamma	82.834379
loop_
_atom_site_label
_atom_site_type_symbol
_atom_site_fract_x
_atom_site_fract_y
_atom_site_fract_z
Zn1	Zn	1.498336	-0.425102	0.780728
Zn2	Zn	1.998336	0.074898	1.280728
Zn3	Zn	1.520047	-0.518887	0.608724
Zn4	Zn	2.020047	-0.018887	1.108724
Zn5	Zn	1.348204	-0.398806	0.586976
Zn6	Zn	1.848204	0.101194	1.086976
Zn7	Zn	1.326296	-0.515483	0.758850
Zn8	Zn	1.826296	-0.015483	1.258850
O9	O	1.423221	-0.464570	0.683820
O10	O	1.923221	0.035430	1.183820
O11	O	1.645133	-0.449972	0.776169
O12	O	2.145133	0.050028	1.276169
O13	O	1.515506	-0.493377	0.461925
O14	O	2.015506	0.006623	0.961925
O15	O	1.368201	-0.314216	0.612731
O16	O	1.868201	0.185784	1.112731
O17	O	1.661084	-0.518875	0.649799
O18	O	2.161084	-0.018875	1.149799
O19	O	1.478503	-0.333535	0.755080
O20	O	1.978503	0.166465	1.255080
O21	O	1.389253	-0.405155	0.445946
O22	O	1.889253	0.094845	0.945946
O23	O	1.201381	-0.401855	0.591517
O24	O	1.701381	0.098145	1.091517
O25	O	1.330864	-0.513075	0.905667
O26	O	1.830864	-0.013075	1.405667
O27	O	1.185286	-0.487577	0.717793
O28	O	1.685286	0.012423	1.217793
O29	O	1.457261	-0.446672	0.921740
O30	O	1.957261	0.053328	1.421740
O31	O	1.494263	-0.606514	0.628585
O32	O	1.994263	-0.106514	1.128585
O33	O	1.351916	-0.604014	0.738882
O34	O	1.851916	-0.104014	1.238882
C35	C	1.156018	-0.441494	0.649922
C36	C	1.656018	0.058506	1.149922
C37	C	1.041704	-0.431638	0.635445
C38	C	1.541704	0.068362	1.135445
C39	C	0.982815	-0.469713	0.691375
C40	C	1.482815	0.030287	1.191375
C41	C	0.864665	-0.459528	0.676414
C42	C	1.364665	0.040472	1.176414
C43	C	1.423093	-0.628106	0.683746
C44	C	1.923093	-0.128106	1.183746
C45	C	1.423128	-0.698078	0.683760
C46	C	1.923128	-0.198078	1.183760
C47	C	1.497299	-0.732235	0.626403
C48	C	1.997299	-0.232235	1.126403
C49	C	1.497344	-0.797983	0.626433
C50	C	1.997344	-0.297983	1.126433
C51	C	1.423202	-0.829569	0.683806
C52	C	1.923202	-0.329569	1.183806
C53	C	1.349025	-0.795405	0.741175
C54	C	1.849025	-0.295405	1.241175
C55	C	1.348989	-0.729659	0.741152
C56	C	1.848989	-0.229659	1.241152
N57	N	1.332239	-0.925592	0.680232
N58	N	1.832239	-0.425592	1.180232
N59	N	1.332278	-0.988048	0.680248
N60	N	1.832278	-0.488048	1.180248
C61	C	1.423310	-1.027658	0.683879
C62	C	1.923310	-0.527658	1.183879
N63	N	1.514306	-1.002451	0.687474
N64	N	2.014306	-0.502451	1.187474
N65	N	1.514267	-0.939990	0.687452
N66	N	2.014267	-0.439990	1.187452
C67	C	1.423234	-0.900860	0.683837
C68	C	1.923234	-0.400860	1.183837
C69	C	1.497535	-1.133107	0.626551
C70	C	1.997535	-0.633107	1.126551
C71	C	1.497581	-1.198857	0.626588
C72	C	1.997581	-0.698857	1.126588
C73	C	1.349254	-1.196276	0.741323
C74	C	1.849254	-0.696276	1.241323
C75	C	1.349216	-1.130528	0.741293
C76	C	1.849216	-0.630528	1.241293
C77	C	1.423356	-1.098947	0.683901
C78	C	1.923356	-0.598947	1.183901
C79	C	1.691467	-0.487736	0.717850
C80	C	2.191467	0.012264	1.217850
C81	C	1.805778	-0.497609	0.732352
C82	C	2.305778	0.002391	1.232352
C83	C	1.389197	-0.482427	0.952062
C84	C	1.889197	0.017573	1.452062
C85	C	1.374697	-0.490036	1.066371
C86	C	1.874697	0.009964	1.566371
C87	C	1.423374	-0.300399	0.683920
C88	C	1.923374	0.199601	1.183920
C89	C	1.423439	-0.230439	0.683963
C90	C	1.923439	0.269561	1.183963
C91	C	1.457172	-0.446742	0.416628
C92	C	1.957172	0.053258	0.916628
C93	C	1.471870	-0.438972	0.302345
C94	C	1.971870	0.061028	0.802345
C95	C	1.430772	-0.460574	1.125287
C96	C	1.930772	0.039426	1.625287
C97	C	1.415788	-0.468438	1.243431
C98	C	1.915788	0.031562	1.743431
H99	H	1.019867	-0.509849	0.750340
H100	H	1.519867	-0.009849	1.250340
H101	H	1.288816	-1.102715	0.787994
H102	H	1.788816	-0.602715	1.287994
N103	N	1.577335	-0.834841	0.564565
N104	N	2.077335	-0.334841	1.064565
H105	H	1.648771	-0.830768	0.589901
H106	H	2.148771	-0.330768	1.089901
H107	H	1.570638	-0.817144	0.489066
H108	H	2.070638	-0.317144	0.989066
H109	H	0.827617	-0.419386	0.617453
H110	H	1.327617	0.080614	1.117453
N111	N	1.577578	-1.235703	0.564718
N112	N	2.077578	-0.735703	1.064718
H113	H	1.619920	-1.269837	0.612599
H114	H	2.119920	-0.769837	1.112599
H115	H	1.624465	-1.205674	0.528362
H116	H	2.124465	-0.705674	1.028362
N117	N	1.269048	-0.829464	0.803049
N118	N	1.769048	-0.329464	1.303049
H119	H	1.275633	-0.824262	0.878558
H120	H	1.775633	-0.324262	1.378558
H121	H	1.280364	-0.876283	0.794275
H122	H	1.780364	-0.376283	1.294275
N123	N	1.269291	-1.230335	0.803215
N124	N	1.769291	-0.730335	1.303215
H125	H	1.280570	-1.277169	0.794530
H126	H	1.780570	-0.777169	1.294530
H127	H	1.197884	-1.211482	0.777830
H128	H	1.697884	-0.711482	1.277830
N129	N	0.854837	-0.550777	0.810467
N130	N	1.354837	-0.050777	1.310467
H131	H	0.932284	-0.550517	0.810087
H132	H	1.432284	-0.050517	1.310087
H133	H	0.838129	-0.593040	0.791968
H134	H	1.338129	-0.093040	1.291968
H135	H	1.489869	-0.429526	1.088260
H136	H	1.989869	0.070474	1.588260
N137	N	0.992638	-0.378473	0.557335
N138	N	1.492638	0.121527	1.057335
H139	H	0.915191	-0.378735	0.557714
H140	H	1.415191	0.121265	1.057714
H141	H	1.020665	-0.384918	0.486212
H142	H	1.520665	0.115082	0.986212
H143	H	1.356676	-0.499481	1.280452
H144	H	1.856676	0.000519	1.780452
N145	N	1.577273	-0.698175	0.564522
N146	N	2.077273	-0.198175	1.064522
H147	H	1.624272	-0.729795	0.528196
H148	H	2.124272	-0.229795	1.028196
H149	H	1.619500	-0.677759	0.612459
H150	H	2.119500	-0.177759	1.112459
N151	N	1.268986	-0.692813	0.803016
N152	N	1.768986	-0.192813	1.303016
H153	H	1.222023	-0.722796	0.839370
H154	H	1.722023	-0.222796	1.339370
H155	H	1.226726	-0.658680	0.755068
H156	H	1.726726	-0.158680	1.255068
N157	N	1.550157	-0.397839	1.253320
N158	N	2.050157	0.102161	1.753320
H159	H	1.549764	-0.398049	1.175871
H160	H	2.049764	0.101951	1.675871
H161	H	1.621241	-0.415216	1.281354
H162	H	2.121241	0.084784	1.781354
H163	H	1.315590	-0.521077	1.103397
H164	H	1.815590	-0.021077	1.603397
H165	H	1.557907	-1.107393	0.579823
H166	H	2.057907	-0.607393	1.079823
