data_functionalizedCrystal
_audit_creation_method	'MofGen! by Chris Wilmer'
_symmetry_space_group_name_H-M	'P1'
_symmetry_Int_Tables_number	1
_symmetry_cell_setting	triclinic
loop_
_symmetry_equiv_pos_as_xyz
  x,y,z
_cell_length_a	19.077068
_cell_length_b	11.169417
_cell_length_c	11.169409
_cell_angle_alpha	89.980176
_cell_angle_beta	92.259065
_cell_angle_gamma	92.327792
loop_
_atom_site_label
_atom_site_type_symbol
_atom_site_fract_x
_atom_site_fract_y
_atom_site_fract_z
Zn1	Zn	-0.280126	1.815630	-0.697665
Zn2	Zn	0.219874	2.315630	-0.197665
Zn3	Zn	-0.397846	1.807395	-0.505018
Zn4	Zn	0.102154	2.307395	-0.005018
Zn5	Zn	-0.280169	1.614913	-0.497002
Zn6	Zn	0.219831	2.114913	0.002998
Zn7	Zn	-0.397789	1.606803	-0.705659
Zn8	Zn	0.102211	2.106803	-0.205659
O9	O	-0.338983	1.711185	-0.601336
O10	O	0.161017	2.211185	-0.101336
O11	O	-0.295748	1.982486	-0.672119
O12	O	0.204252	2.482486	-0.172119
O13	O	-0.382278	1.781809	-0.336008
O14	O	0.117722	2.281809	0.163992
O15	O	-0.181673	1.648378	-0.516921
O16	O	0.318327	2.148378	-0.016921
O17	O	-0.382237	1.976436	-0.530582
O18	O	0.117763	2.476436	-0.030582
O19	O	-0.181642	1.795844	-0.664347
O20	O	0.318358	2.295844	-0.164347
O21	O	-0.295821	1.640393	-0.330119
O22	O	0.204179	2.140393	0.169881
O23	O	-0.295766	1.445887	-0.524672
O24	O	0.204234	1.945887	-0.024672
O25	O	-0.382139	1.634556	-0.872546
O26	O	0.117861	2.134556	-0.372546
O27	O	-0.382181	1.439929	-0.677971
O28	O	0.117819	1.939929	-0.177971
O29	O	-0.295693	1.787981	-0.866672
O30	O	0.204307	2.287981	-0.366672
O31	O	-0.496329	1.773945	-0.538333
O32	O	0.003671	2.273945	-0.038333
O33	O	-0.496287	1.626571	-0.685743
O34	O	0.003713	2.126571	-0.185743
C35	C	-0.338972	1.399361	-0.601320
C36	C	0.161028	1.899361	-0.101320
C37	C	-0.338984	1.265960	-0.601343
C38	C	0.161016	1.765960	-0.101343
C39	C	-0.521846	1.698517	-0.613802
C40	C	-0.021846	2.198517	-0.113802
C41	C	-0.600075	1.693208	-0.619175
C42	C	-0.100075	2.193208	-0.119175
C43	C	-0.636826	1.767503	-0.545014
C44	C	-0.136826	2.267503	-0.045014
C45	C	-0.710331	1.762516	-0.550075
C46	C	-0.210331	2.262516	-0.050075
C47	C	-0.747084	1.683227	-0.629291
C48	C	-0.247084	2.183227	-0.129291
C49	C	-0.710328	1.608929	-0.703460
C50	C	-0.210328	2.108929	-0.203460
C51	C	-0.636824	1.613923	-0.698404
C52	C	-0.136824	2.113923	-0.198404
C53	C	-0.966916	1.660064	-0.652640
C54	C	-0.466916	2.160064	-0.152640
C55	C	-1.040425	1.655073	-0.657687
C56	C	-0.540425	2.155073	-0.157687
C57	C	-1.040424	1.808662	-0.504303
C58	C	-0.540424	2.308662	-0.004303
C59	C	-0.966918	1.813643	-0.499250
C60	C	-0.466918	2.313643	0.000750
C61	C	-0.930169	1.739350	-0.573423
C62	C	-0.430169	2.239350	-0.073423
N63	N	-0.822218	1.678125	-0.634463
N64	N	-0.322218	2.178125	-0.134463
N65	N	-0.855036	1.744459	-0.568256
N66	N	-0.355036	2.244459	-0.068256
C67	C	-0.155406	1.723935	-0.588848
C68	C	0.344594	2.223935	-0.088848
C69	C	-0.077176	1.729368	-0.583526
C70	C	0.422824	2.229368	-0.083526
C71	C	-0.338905	1.711282	-0.914373
C72	C	0.161095	2.211282	-0.414373
C73	C	-0.338871	1.711324	-1.047771
C74	C	0.161129	2.211324	-0.547771
C75	C	-0.338994	2.024226	-0.601353
C76	C	0.161006	2.524226	-0.101353
C77	C	-0.338999	2.157626	-0.601360
C78	C	0.161001	2.657626	-0.101360
C79	C	-0.339010	1.711160	-0.289513
C80	C	0.160990	2.211160	0.210487
C81	C	-0.338845	1.711365	-0.156103
C82	C	0.161155	2.211365	0.343897
H83	H	-0.606907	1.832062	-0.480503
H84	H	-0.106907	2.332062	0.019497
H85	H	-0.740251	1.823014	-0.489685
H86	H	-0.240251	2.323014	0.010315
F87	F	-0.927809	1.898046	-0.414950
F88	F	-0.427809	2.398046	0.085050
H89	H	-1.070353	1.869149	-0.443917
H90	H	-0.570353	2.369149	0.056083
H91	H	-0.606902	1.553426	-0.758795
H92	H	-0.106902	2.053426	-0.258795
H93	H	-1.070347	1.590521	-0.722215
H94	H	-0.570347	2.090521	-0.222215
F95	F	-0.927814	1.580992	-0.731581
F96	F	-0.427814	2.080992	-0.231581
H97	H	-0.740258	1.544376	-0.767964
H98	H	-0.240258	2.044376	-0.267964
