data_functionalizedCrystal
_audit_creation_method	'MofGen! by Chris Wilmer'
_symmetry_space_group_name_H-M	'P1'
_symmetry_Int_Tables_number	1
_symmetry_cell_setting	triclinic
loop_
_symmetry_equiv_pos_as_xyz
  x,y,z
_cell_length_a	21.295420
_cell_length_b	21.295418
_cell_length_c	21.295411
_cell_angle_alpha	89.972970
_cell_angle_beta	89.983421
_cell_angle_gamma	90.025651
loop_
_atom_site_label
_atom_site_type_symbol
_atom_site_fract_x
_atom_site_fract_y
_atom_site_fract_z
Zn1	Zn	0.962319	-0.250666	-0.355921
Zn2	Zn	0.962242	-0.355931	-0.250650
Zn3	Zn	0.857057	-0.250677	-0.250666
Zn4	Zn	0.857017	-0.355898	-0.355881
O5	O	0.909658	-0.303293	-0.303279
O6	O	1.050398	-0.264639	-0.341966
O7	O	0.948273	-0.341987	-0.162562
O8	O	0.871069	-0.162586	-0.264652
O9	O	1.050341	-0.341977	-0.264624
O10	O	0.948404	-0.162578	-0.341982
O11	O	0.870994	-0.264657	-0.162574
O12	O	0.768962	-0.264625	-0.264613
O13	O	0.871001	-0.341921	-0.443976
O14	O	0.768933	-0.341931	-0.341914
O15	O	0.948366	-0.264608	-0.444005
O16	O	0.948234	-0.444016	-0.264585
O17	O	0.870926	-0.443992	-0.341898
C18	C	0.746107	-0.303276	-0.303261
C19	C	0.676139	-0.303284	-0.303268
C20	C	0.176682	-0.343620	-0.343491
C21	C	0.242425	-0.343621	-0.343484
C22	C	0.275299	-0.303307	-0.303299
C23	C	0.242426	-0.263002	-0.263106
C24	C	0.176685	-0.263008	-0.263109
N25	N	0.378538	-0.248191	-0.298565
N26	N	0.440989	-0.248187	-0.298565
C27	C	0.473374	-0.303290	-0.303286
N28	N	0.440948	-0.358397	-0.308018
N29	N	0.378491	-0.358400	-0.308021
C30	C	0.346585	-0.303297	-0.303291
C31	C	0.577525	-0.343596	-0.343466
C32	C	0.643269	-0.343597	-0.343455
C33	C	0.643269	-0.262973	-0.263080
C34	C	0.577526	-0.262977	-0.263088
C35	C	0.544658	-0.303288	-0.303284
C36	C	0.909585	-0.466845	-0.303249
C37	C	0.909611	-0.536813	-0.303257
C38	C	0.950064	-1.036262	-0.263124
C39	C	0.950040	-0.970520	-0.263109
C40	C	0.909747	-0.937652	-0.303323
C41	C	0.869464	-0.970533	-0.343544
C42	C	0.869484	-1.036274	-0.343554
N43	N	0.904850	-0.834402	-0.358406
N44	N	0.904834	-0.771951	-0.358396
C45	C	0.909681	-0.739578	-0.303297
N46	N	0.914557	-0.772015	-0.248208
N47	N	0.914577	-0.834472	-0.248219
C48	C	0.909720	-0.866367	-0.303318
C49	C	0.949933	-0.635420	-0.263059
C50	C	0.949905	-0.569676	-0.263043
C51	C	0.869332	-0.569690	-0.343484
C52	C	0.869357	-0.635432	-0.343495
C53	C	0.909661	-0.668293	-0.303283
C54	C	1.073849	-0.303311	-0.303298
C55	C	1.143817	-0.303318	-0.303306
C56	C	0.909687	-0.303260	-0.467470
C57	C	0.909700	-0.303245	-0.537438
C58	C	0.909749	-0.139103	-0.303323
C59	C	0.909788	-0.069135	-0.303342
C60	C	0.950009	-0.343381	-1.036890
C61	C	0.949998	-0.343401	-0.971148
C62	C	0.909759	-0.303147	-0.938277
C63	C	0.869518	-0.262882	-0.971155
C64	C	0.869526	-0.262867	-1.036896
N65	N	0.904948	-0.248068	-0.835071
N66	N	0.904944	-0.248083	-0.772619
C67	C	0.909732	-0.303190	-0.740203
N68	N	0.914536	-0.358281	-0.772597
N69	N	0.914543	-0.358265	-0.835054
C70	C	0.909746	-0.303159	-0.866992
C71	C	0.949955	-0.343477	-0.636047
C72	C	0.949939	-0.343498	-0.570304
C73	C	0.869463	-0.262974	-0.570312
C74	C	0.869475	-0.262959	-0.636055
C75	C	0.909725	-0.303209	-0.668918
C76	C	0.909666	-0.303281	-0.139728
C77	C	0.909775	-0.303118	-0.069760
H78	H	0.670035	-0.230151	-0.230358
Cl79	Cl	1.000596	-0.676734	-0.212505
H80	H	0.149925	-0.376447	-0.376220
Cl81	Cl	0.818808	-0.929214	-0.394098
H82	H	0.982699	-0.376291	-0.543542
H83	H	0.982727	-0.376253	-0.662806
H84	H	0.269189	-0.376440	-0.376210
Cl85	Cl	0.283753	-0.212325	-0.212585
H86	H	0.550767	-0.230157	-0.230367
Cl87	Cl	0.135366	-0.212336	-0.212588
Cl88	Cl	0.818884	-0.212349	-0.677379
Cl89	Cl	0.536202	-0.394274	-0.393994
Cl90	Cl	0.684586	-0.394272	-0.393974
H91	H	0.836698	-0.230200	-0.543550
Cl92	Cl	1.000729	-1.077570	-0.212570
H93	H	0.982838	-0.943750	-0.230357
Cl94	Cl	1.000542	-0.528350	-0.212478
Cl95	Cl	0.818850	-1.077601	-0.394120
H96	H	0.836522	-0.542930	-0.376225
H97	H	0.836562	-0.662197	-0.376246
H98	H	0.982782	-0.376158	-1.063644
Cl99	Cl	1.000581	-0.394021	-0.929817
H100	H	0.836754	-0.230108	-0.944388
Cl101	Cl	0.818938	-0.212251	-1.078221
