data_functionalizedCrystal
_audit_creation_method	'MofGen! by Chris Wilmer'
_symmetry_space_group_name_H-M	'P1'
_symmetry_Int_Tables_number	1
_symmetry_cell_setting	triclinic
loop_
_symmetry_equiv_pos_as_xyz
  x,y,z
_cell_length_a	19.288859
_cell_length_b	17.766277
_cell_length_c	19.288864
_cell_angle_alpha	90.028157
_cell_angle_beta	83.134987
_cell_angle_gamma	90.010232
loop_
_atom_site_label
_atom_site_type_symbol
_atom_site_fract_x
_atom_site_fract_y
_atom_site_fract_z
O1	O	0.921356	0.062645	0.086628
O2	O	0.719095	0.062648	0.098322
O3	O	0.826070	0.062600	-0.008656
O4	O	0.814381	0.062693	0.193605
O5	O	0.826051	-0.062589	-0.008661
O6	O	0.719076	-0.062541	0.098316
O7	O	0.921337	-0.062544	0.086623
Cu8	Cu	0.820205	-0.073973	0.092469
Cu9	Cu	0.820227	0.074077	0.092475
O10	O	0.814362	-0.062496	0.193600
C11	C	0.693209	0.000053	0.097943
C12	C	0.616105	0.000052	0.096816
N13	N	0.820194	-0.178103	0.092464
C14	C	0.052064	0.000078	0.151959
C15	C	0.124511	0.000083	0.153025
C16	C	0.169217	0.000053	0.090255
C17	C	0.141472	0.000037	0.026416
C18	C	0.069027	0.000040	0.025353
C19	C	0.290481	-0.043831	0.043440
C20	C	0.362925	-0.043839	0.044507
C21	C	0.392663	0.000046	0.093533
C22	C	0.349948	0.043929	0.141505
C23	C	0.277502	0.043933	0.140441
C24	C	0.247773	0.000050	0.091402
C25	C	0.498955	0.000072	0.158523
C26	C	0.571403	0.000081	0.159586
C27	C	0.588364	0.000028	0.032976
C28	C	0.515917	0.000026	0.031915
C29	C	0.471216	0.000045	0.094691
C30	C	0.867578	-0.217511	0.045118
C31	C	0.867582	-0.296313	0.045115
C32	C	0.820209	-0.335704	0.092470
C33	C	0.772816	-0.296286	0.139820
C34	C	0.772809	-0.217486	0.139817
C35	C	0.810910	-0.460513	0.155758
C36	C	0.810922	-0.539312	0.155761
C37	C	0.820227	-0.578750	0.092478
C38	C	0.829535	-0.539380	0.029188
C39	C	0.829528	-0.460580	0.029186
C40	C	0.820211	-0.421150	0.092478
C41	C	0.867618	-0.703604	0.045124
C42	C	0.867617	-0.782408	0.045120
C43	C	0.772855	-0.782379	0.139831
C44	C	0.772852	-0.703577	0.139829
C45	C	0.820238	-0.664195	0.092477
C46	C	0.947223	0.000053	0.087001
C47	C	1.024327	0.000059	0.088128
C48	C	0.814747	0.000111	0.219479
C49	C	0.815876	0.000146	0.296583
N50	N	0.820243	0.178207	0.092475
C51	C	0.825684	-0.000005	-0.034535
C52	C	0.824555	-0.000036	-0.111638
C53	C	0.753108	0.000132	0.341280
C54	C	0.754169	0.000115	0.413727
C55	C	0.818001	0.000097	0.441474
C56	C	0.880778	0.000116	0.396766
C57	C	0.879715	0.000140	0.324321
C58	C	0.868174	-0.043802	0.549721
C59	C	0.869234	-0.043832	0.622165
C60	C	0.821281	0.000025	0.664919
C61	C	0.772257	0.043901	0.635221
C62	C	0.771194	0.043925	0.562776
C63	C	0.819161	0.000071	0.520028
C64	C	0.759659	-0.000007	0.788173
C65	C	0.760722	-0.000019	0.860621
C66	C	0.887333	-0.000026	0.843658
C67	C	0.886267	-0.000006	0.771211
C68	C	0.822429	-0.000000	0.743473
H69	H	0.015673	0.000097	0.203077
N70	N	0.686460	0.000080	0.461938
H71	H	0.684084	-0.046343	0.492332
H72	H	0.684109	0.046502	0.492370
H73	H	0.906201	-0.814494	0.006561
N74	N	0.718332	0.091257	0.530744
H75	H	0.724938	0.084617	0.478364
H76	H	0.669664	0.074863	0.549935
N77	N	0.258420	-0.091181	-0.009438
H78	H	0.224941	-0.128675	0.015632
H79	H	0.232402	-0.057557	-0.039703
N80	N	0.949626	0.000087	0.426687
H81	H	0.977126	0.046498	0.410410
H82	H	0.940716	0.000037	0.479359
N83	N	0.690809	0.000004	0.758248
H84	H	0.651205	-0.000001	0.797561
H85	H	0.687619	0.046421	0.728590
H86	H	0.709607	-0.000026	0.897014
H87	H	0.906200	-0.671538	0.006565
N88	N	0.800877	-0.581770	0.224020
H89	H	0.843049	-0.614448	0.228044
H90	H	0.794951	-0.544781	0.264066
N91	N	0.189687	0.000007	-0.041286
H92	H	0.239790	0.000006	-0.030927
H93	H	0.180716	-0.046412	-0.069120
H94	H	0.837112	-0.571489	-0.022343
H95	H	0.397698	-0.079575	0.005448
H96	H	0.374158	0.079663	0.181428
N97	N	0.956178	-0.000047	0.873580
H98	H	0.983661	-0.046451	0.857233
H99	H	0.983621	0.046394	0.857291
H100	H	0.733205	0.079608	0.670031
N101	N	0.039105	0.000018	-0.043496
H102	H	0.078417	0.000002	-0.083101
H103	H	0.009410	-0.046392	-0.046698
H104	H	0.937380	0.000001	0.734817
H105	H	0.906169	-0.328405	0.006558
N106	N	0.918682	-0.175035	-0.005955
H107	H	0.948699	-0.211962	-0.035950
H108	H	0.892187	-0.142368	-0.036598
H109	H	0.930830	0.000153	0.287927
N110	N	0.636580	-0.000008	-0.034723
H111	H	0.627672	-0.046427	-0.062586
H112	H	0.627668	0.046418	-0.062526
N113	N	0.684252	0.000136	0.311372
H114	H	0.656766	0.046538	0.327723
H115	H	0.693152	0.000123	0.258700
H116	H	0.734280	-0.814450	0.178386
N117	N	0.721744	-0.661074	0.190900
H118	H	0.729586	-0.674756	0.240179
H119	H	0.728949	-0.605191	0.183655
N120	N	0.231431	0.091267	0.192171
H121	H	0.261257	0.119071	0.223391
H122	H	0.204809	0.128716	0.166164
N123	N	0.800874	-0.417979	0.224017
H124	H	0.794987	-0.454874	0.264109
H125	H	0.843055	-0.385271	0.227960
N126	N	0.721719	-0.338771	0.190891
H127	H	0.748164	-0.371437	0.221582
H128	H	0.691710	-0.301799	0.220839
H129	H	0.909150	-0.079561	0.646339
H130	H	0.734222	-0.185399	0.178373
N131	N	0.919901	-0.091103	0.503609
H132	H	0.951114	-0.118905	0.533414
H133	H	0.893896	-0.128554	0.476948
N134	N	0.839564	-0.418115	-0.039070
H135	H	0.845461	-0.455051	-0.079162
H136	H	0.797378	-0.385436	-0.043016
N137	N	0.154439	0.000105	0.221873
H138	H	0.115129	0.000119	0.261479
H139	H	0.184118	-0.046305	0.225061
H140	H	0.593984	0.000103	0.211567
N141	N	0.450736	0.000100	0.226227
H142	H	0.479304	0.000121	0.266827
H143	H	0.420317	0.046511	0.228543
H144	H	0.493333	0.000006	-0.020063
