data_functionalizedCrystal
_audit_creation_method	'MofGen! by Chris Wilmer'
_symmetry_space_group_name_H-M	'P1'
_symmetry_Int_Tables_number	1
_symmetry_cell_setting	triclinic
loop_
_symmetry_equiv_pos_as_xyz
  x,y,z
_cell_length_a	19.188930
_cell_length_b	19.188930
_cell_length_c	13.596369
_cell_angle_alpha	89.988893
_cell_angle_beta	89.980792
_cell_angle_gamma	83.144779
loop_
_atom_site_label
_atom_site_type_symbol
_atom_site_fract_x
_atom_site_fract_y
_atom_site_fract_z
O1	O	0.926146	0.087169	-0.082119
O2	O	1.426146	0.587169	0.417881
O3	O	0.722834	0.098903	-0.082053
O4	O	1.222834	0.598903	0.417947
O5	O	0.830357	-0.008620	-0.082068
O6	O	1.330357	0.491380	0.417932
O7	O	0.818623	0.194692	-0.082103
O8	O	1.318623	0.694692	0.417897
O9	O	0.830346	-0.008625	0.081515
O10	O	1.330346	0.491375	0.581515
O11	O	0.722824	0.098897	0.081530
O12	O	1.222824	0.598897	0.581530
O13	O	0.926135	0.087163	0.081464
O14	O	1.426135	0.587163	0.581464
Zn15	Zn	0.824478	0.093029	0.107470
Zn16	Zn	1.324478	0.593029	0.607470
Zn17	Zn	0.824492	0.093037	-0.108058
Zn18	Zn	1.324492	0.593037	0.391942
O19	O	0.818612	0.194686	0.081480
O20	O	1.318612	0.694686	0.581480
C21	C	0.696818	0.098520	-0.000252
C22	C	1.196818	0.598520	0.499748
C23	C	0.619313	0.097380	-0.000226
C24	C	1.119313	0.597380	0.499774
C25	C	0.574389	0.160470	-0.000253
C26	C	1.074389	0.660470	0.499747
C27	C	0.501566	0.159399	-0.000263
C28	C	1.001566	0.659399	0.499737
C29	C	0.473669	0.095233	-0.000267
C30	C	0.973669	0.595233	0.499733
C31	C	0.518603	0.032133	-0.000236
C32	C	1.018603	0.532133	0.499764
C33	C	0.591425	0.033207	-0.000215
C34	C	1.091425	0.533207	0.499785
N35	N	0.365693	0.046188	-0.055973
N36	N	0.865693	0.546188	0.444027
N37	N	0.296514	0.045172	-0.055995
N38	N	0.796514	0.545172	0.444005
C39	C	0.254260	0.091994	-0.000327
C40	C	0.754260	0.591994	0.499673
N41	N	0.283798	0.139881	0.055351
N42	N	0.783798	0.639881	0.555351
N43	N	0.352982	0.140899	0.055368
N44	N	0.852982	0.640899	0.555368
C45	C	0.394707	0.094062	-0.000289
C46	C	0.894707	0.594062	0.499711
C47	C	0.130372	0.153928	-0.000363
C48	C	0.630372	0.653928	0.499637
C49	C	0.057547	0.152853	-0.000368
C50	C	0.557547	0.652853	0.499632
C51	C	0.074586	0.025586	-0.000350
C52	C	0.574586	0.525586	0.499650
C53	C	0.147409	0.026662	-0.000336
C54	C	0.647409	0.526662	0.499664
C55	C	0.175298	0.090835	-0.000347
C56	C	0.675298	0.590835	0.499653
C57	C	0.829972	-0.034634	-0.000274
C58	C	1.329972	0.465366	0.499726
C59	C	0.828831	-0.112138	-0.000265
C60	C	1.328831	0.387862	0.499735
C61	C	0.891922	-0.157062	-0.000281
C62	C	1.391922	0.342938	0.499719
C63	C	0.890850	-0.229886	-0.000296
C64	C	1.390850	0.270114	0.499704
C65	C	0.826684	-0.257782	-0.000276
C66	C	1.326684	0.242218	0.499724
C67	C	0.763585	-0.212849	-0.000266
C68	C	1.263585	0.287151	0.499734
C69	C	0.764658	-0.140026	-0.000260
C70	C	1.264658	0.359974	0.499740
N71	N	0.777633	-0.365789	0.055410
N72	N	1.277633	0.134211	0.555410
N73	N	0.776618	-0.434968	0.055407
N74	N	1.276618	0.065032	0.555407
C75	C	0.823446	-0.477191	-0.000295
C76	C	1.323446	0.022809	0.499705
N77	N	0.871339	-0.447624	-0.055981
N78	N	1.371339	0.052376	0.444019
N79	N	0.872356	-0.378439	-0.055974
N80	N	1.372356	0.121561	0.444026
C81	C	0.825513	-0.336745	-0.000283
C82	C	1.325513	0.163255	0.499717
C83	C	0.885379	-0.601079	-0.000329
C84	C	1.385379	-0.101079	0.499671
C85	C	0.884305	-0.673904	-0.000350
C86	C	1.384305	-0.173904	0.499650
C87	C	0.757038	-0.656865	-0.000310
C88	C	1.257038	-0.156865	0.499690
C89	C	0.758114	-0.584042	-0.000298
C90	C	1.258114	-0.084042	0.499702
C91	C	0.822286	-0.556154	-0.000303
C92	C	1.322286	-0.056154	0.499697
C93	C	0.952151	0.087546	-0.000338
C94	C	1.452151	0.587546	0.499662
C95	C	1.029656	0.088687	-0.000370
C96	C	1.529656	0.588687	0.499630
C97	C	0.818997	0.220700	-0.000317
C98	C	1.318997	0.720700	0.499683
C99	C	0.820138	0.298204	-0.000332
C100	C	1.320138	0.798204	0.499668
N101	N	0.824473	0.093024	0.254561
N102	N	1.324473	0.593024	0.754561
N103	N	0.824502	0.093037	-0.255150
N104	N	1.324502	0.593037	0.244850
C105	C	0.824491	0.093038	0.655852
C106	C	1.324491	0.593038	1.155852
C107	C	0.824484	0.093036	0.544201
C108	C	1.324484	0.593036	1.044201
C109	C	0.824482	0.093031	0.455211
C110	C	1.324482	0.593031	0.955211
C111	C	0.824475	0.093029	0.343552
C112	C	1.324475	0.593029	0.843552
H113	H	0.464982	0.210776	-0.000282
H114	H	0.964982	0.710776	0.499718
H115	H	0.706738	-0.547464	-0.000280
H116	H	1.206738	-0.047464	0.499720
H117	H	0.597091	0.212725	-0.000264
H118	H	1.097091	0.712725	0.499736
H119	H	0.495885	-0.020111	-0.000253
H120	H	0.995885	0.479889	0.499747
N121	N	0.158853	0.219481	-0.000369
N122	N	0.658853	0.719481	0.499631
N123	N	0.118730	0.275810	-0.000380
N124	N	0.618730	0.775810	0.499620
H125	H	0.138843	0.322108	-0.000382
H126	H	0.638843	0.822108	0.499618
N127	N	0.955292	-0.275795	-0.000295
N128	N	1.455292	0.224205	0.499705
N129	N	0.954322	-0.340813	-0.000293
N130	N	1.454322	0.159187	0.499707
H131	H	0.999833	-0.373236	-0.000291
H132	H	1.499833	0.126764	0.499709
H133	H	0.020970	0.204232	-0.000384
H134	H	0.520970	0.704232	0.499616
H135	H	0.628003	-0.018171	-0.000194
H136	H	1.128003	0.481829	0.499806
H137	H	0.935683	-0.710481	-0.000369
H138	H	1.435683	-0.210481	0.499631
H139	H	0.944176	-0.134360	-0.000288
H140	H	1.444176	0.365640	0.499712
H141	H	0.183988	-0.024713	-0.000320
H142	H	0.683988	0.475287	0.499680
H143	H	0.051874	-0.026659	-0.000415
H144	H	0.551874	0.473341	0.499585
N145	N	0.698047	-0.241352	-0.000254
N146	N	1.198047	0.258648	0.499746
N147	N	0.697096	-0.306372	-0.000258
N148	N	1.197096	0.193628	0.499742
H149	H	0.650808	-0.326504	-0.000255
H150	H	1.150808	0.173496	0.499745
N151	N	0.700203	-0.094143	-0.000249
N152	N	1.200203	0.405857	0.499751
N153	N	0.642915	-0.119055	-0.000241
N154	N	1.142915	0.380945	0.499759
H155	H	0.597391	-0.086650	-0.000233
H156	H	1.097391	0.413350	0.499767
H157	H	0.704792	-0.679578	-0.000299
H158	H	1.204792	-0.179578	0.499701
H159	H	0.937632	-0.578372	-0.000337
H160	H	1.437632	-0.078372	0.499663
