data_functionalizedCrystal
_audit_creation_method	'MofGen! by Chris Wilmer'
_symmetry_space_group_name_H-M	'P1'
_symmetry_Int_Tables_number	1
_symmetry_cell_setting	triclinic
loop_
_symmetry_equiv_pos_as_xyz
  x,y,z
_cell_length_a	16.120490
_cell_length_b	16.120484
_cell_length_c	13.032268
_cell_angle_alpha	99.642751
_cell_angle_beta	94.644414
_cell_angle_gamma	90.164100
loop_
_atom_site_label
_atom_site_type_symbol
_atom_site_fract_x
_atom_site_fract_y
_atom_site_fract_z
Zn1	Zn	1.180629	-0.462311	-0.695115
Zn2	Zn	1.430629	-0.212311	-0.445115
Zn3	Zn	1.680629	0.037689	-0.195115
Zn4	Zn	1.930629	0.287689	0.054885
Zn5	Zn	1.191135	-0.585432	-0.528856
Zn6	Zn	1.441135	-0.335432	-0.278856
Zn7	Zn	1.691135	-0.085432	-0.028856
Zn8	Zn	1.941135	0.164568	0.221144
Zn9	Zn	1.061103	-0.437644	-0.511240
Zn10	Zn	1.311103	-0.187644	-0.261240
Zn11	Zn	1.561103	0.062356	-0.011240
Zn12	Zn	1.811103	0.312356	0.238760
Zn13	Zn	1.034582	-0.594165	-0.694163
Zn14	Zn	1.284582	-0.344165	-0.444163
Zn15	Zn	1.534582	-0.094165	-0.194163
Zn16	Zn	1.784582	0.155835	0.055837
O17	O	1.116862	-0.519888	-0.607343
O18	O	1.366862	-0.269888	-0.357343
O19	O	1.616862	-0.019888	-0.107343
O20	O	1.866862	0.230112	0.142657
O21	O	1.297563	-0.485312	-0.680830
O22	O	1.547563	-0.235312	-0.430830
O23	O	1.797563	0.014688	-0.180830
O24	O	2.047563	0.264688	0.069170
O25	O	1.189382	-0.551850	-0.380385
O26	O	1.439382	-0.301850	-0.130385
O27	O	1.689382	-0.051850	0.119615
O28	O	1.939382	0.198150	0.369615
O29	O	1.083660	-0.323885	-0.528657
O30	O	1.333660	-0.073885	-0.278657
O31	O	1.583660	0.176115	-0.028657
O32	O	1.833660	0.426115	0.221343
O33	O	1.305282	-0.575769	-0.558681
O34	O	1.555282	-0.325769	-0.308681
O35	O	1.805282	-0.075769	-0.058681
O36	O	2.055282	0.174231	0.191319
O37	O	1.171476	-0.342007	-0.663749
O38	O	1.421476	-0.092007	-0.413749
O39	O	1.671476	0.157993	-0.163749
O40	O	1.921476	0.407993	0.086251
O41	O	1.093847	-0.443270	-0.367443
O42	O	1.343847	-0.193270	-0.117443
O43	O	1.593847	0.056730	0.132557
O44	O	1.843847	0.306730	0.382557
O45	O	0.942045	-0.451738	-0.527735
O46	O	1.192045	-0.201738	-0.277735
O47	O	1.442045	0.048262	-0.027735
O48	O	1.692045	0.298262	0.222265
O49	O	1.038460	-0.590652	-0.840423
O50	O	1.288460	-0.340652	-0.590423
O51	O	1.538460	-0.090652	-0.340423
O52	O	1.788460	0.159348	-0.090423
O53	O	0.922560	-0.566733	-0.662128
O54	O	1.172560	-0.316733	-0.412128
O55	O	1.422560	-0.066733	-0.162128
O56	O	1.672560	0.183267	0.087872
O57	O	1.145760	-0.493779	-0.841122
O58	O	1.395760	-0.243779	-0.591122
O59	O	1.645760	0.006221	-0.341122
O60	O	1.895760	0.256221	-0.091122
O61	O	1.163666	-0.703622	-0.557758
O62	O	1.413666	-0.453622	-0.307758
O63	O	1.663666	-0.203622	-0.057758
O64	O	1.913666	0.046378	0.192242
O65	O	1.048647	-0.710038	-0.679209
O66	O	1.298647	-0.460038	-0.429209
O67	O	1.548647	-0.210038	-0.179209
O68	O	1.798647	0.039962	0.070791
C69	C	0.902344	-0.507507	-0.592917
C70	C	1.152344	-0.257507	-0.342917
C71	C	1.402344	-0.007507	-0.092917
C72	C	1.652344	0.242493	0.157083
C73	C	0.810568	-0.502233	-0.586771
C74	C	1.060568	-0.252233	-0.336771
C75	C	1.310568	-0.002233	-0.086771
C76	C	1.560568	0.247767	0.163229
C77	C	0.592026	-0.547239	-0.639223
C78	C	0.842026	-0.297239	-0.389223
C79	C	1.092026	-0.047239	-0.139223
C80	C	1.342026	0.202761	0.110777
C81	C	0.642537	-0.492611	-0.575550
C82	C	0.892537	-0.242611	-0.325550
C83	C	1.142537	0.007389	-0.075550
C84	C	1.392537	0.257389	0.174450
C85	C	0.736038	-0.497966	-0.581795
C86	C	0.986038	-0.247966	-0.331795
C87	C	1.236038	0.002034	-0.081795
C88	C	1.486038	0.252034	0.168205
C89	C	0.498516	-0.541885	-0.632979
C90	C	0.748516	-0.291885	-0.382979
C91	C	0.998516	-0.041885	-0.132979
C92	C	1.248516	0.208115	0.117021
C93	C	1.104439	-0.737178	-0.620316
C94	C	1.354439	-0.487178	-0.370316
C95	C	1.604439	-0.237178	-0.120316
C96	C	1.854439	0.012822	0.129684
C97	C	1.099196	-0.830144	-0.625906
C98	C	1.349196	-0.580144	-0.375906
C99	C	1.599196	-0.330144	-0.125906
C100	C	1.849196	-0.080144	0.124094
C101	C	1.089626	-1.000355	-0.636133
C102	C	1.339626	-0.750355	-0.386133
C103	C	1.589626	-0.500355	-0.136133
C104	C	1.839626	-0.250355	0.113867
C105	C	1.144245	-1.038591	-0.578581
C106	C	1.394245	-0.788591	-0.328581
C107	C	1.644245	-0.538591	-0.078581
C108	C	1.894245	-0.288591	0.171419
C109	C	1.138920	-1.133302	-0.584271
C110	C	1.388920	-0.883302	-0.334271
C111	C	1.638920	-0.633302	-0.084271
C112	C	1.888920	-0.383302	0.165729
C113	C	1.094949	-0.905635	-0.630444
C114	C	1.344949	-0.655635	-0.380444
C115	C	1.594949	-0.405635	-0.130444
C116	C	1.844949	-0.155635	0.119556
C117	C	1.332218	-0.532318	-0.621827
C118	C	1.582218	-0.282318	-0.371827
C119	C	1.832218	-0.032318	-0.121827
C120	C	2.082218	0.217682	0.128173
C121	C	1.423990	-0.537615	-0.627999
C122	C	1.673990	-0.287615	-0.377999
C123	C	1.923990	-0.037615	-0.127999
C124	C	2.173990	0.212385	0.122001
C125	C	1.087980	-0.545941	-0.879723
C126	C	1.337980	-0.295941	-0.629723
C127	C	1.587980	-0.045941	-0.379723
C128	C	1.837980	0.204059	-0.129723
C129	C	1.075672	-0.557044	-0.995795
C130	C	1.325672	-0.307044	-0.745795
C131	C	1.575672	-0.057044	-0.495795
C132	C	1.825672	0.192956	-0.245795
C133	C	1.129354	-0.301753	-0.594344
C134	C	1.379354	-0.051753	-0.344344
C135	C	1.629354	0.198247	-0.094344
C136	C	1.879354	0.448247	0.155656
C137	C	1.134678	-0.208796	-0.588805
C138	C	1.384678	0.041204	-0.338805
C139	C	1.634678	0.291204	-0.088805
C140	C	1.884678	0.541204	0.161195
C141	C	1.123275	-0.514063	-1.047890
C142	C	1.373275	-0.264063	-0.797890
C143	C	1.623275	-0.014063	-0.547890
C144	C	1.873275	0.235937	-0.297890
C145	C	1.110555	-0.525537	-1.167856
C146	C	1.360555	-0.275537	-0.917856
C147	C	1.610555	-0.025537	-0.667856
C148	C	1.860555	0.224463	-0.417856
C149	C	1.145683	-0.493878	-0.336023
C150	C	1.395683	-0.243878	-0.086023
C151	C	1.645683	0.006122	0.163977
C152	C	1.895683	0.256122	0.413977
C153	C	1.158164	-0.482550	-0.219948
C154	C	1.408164	-0.232550	0.030052
C155	C	1.658164	0.017450	0.280052
C156	C	1.908164	0.267450	0.530052
H157	H	1.195004	-1.000195	-0.525035
H158	H	1.445004	-0.750195	-0.275035
H159	H	1.695004	-0.500195	-0.025035
H160	H	1.945004	-0.250195	0.224965
H161	H	0.619003	-0.598026	-0.698421
H162	H	0.869003	-0.348026	-0.448421
H163	H	1.119003	-0.098026	-0.198421
H164	H	1.369003	0.151974	0.051579
C165	C	0.606103	-0.424000	-0.495563
C166	C	0.856103	-0.174000	-0.245563
C167	C	1.106103	0.076000	0.004437
C168	C	1.356103	0.326000	0.254437
H169	H	0.650092	-0.390427	-0.456437
H170	H	0.900092	-0.140427	-0.206437
H171	H	1.150092	0.109573	0.043563
H172	H	1.400092	0.359573	0.293563
H173	H	0.575455	-0.449692	-0.449705
H174	H	0.825455	-0.199692	-0.199705
H175	H	1.075455	0.050308	0.050295
H176	H	1.325455	0.300308	0.300295
H177	H	0.570290	-0.389544	-0.531210
H178	H	0.820290	-0.139544	-0.281210
H179	H	1.070290	0.110456	-0.031210
H180	H	1.320290	0.360456	0.218790
H181	H	1.173443	-0.468768	-1.003675
H182	H	1.423443	-0.218768	-0.753675
H183	H	1.673443	0.031232	-0.503675
H184	H	1.923443	0.281232	-0.253675
H185	H	1.038870	-1.038747	-0.689673
H186	H	1.288870	-0.788747	-0.439673
H187	H	1.538870	-0.538747	-0.189673
H188	H	1.788870	-0.288747	0.060327
H189	H	1.060376	-0.570826	-1.212066
H190	H	1.310376	-0.320826	-0.962066
H191	H	1.560376	-0.070826	-0.712066
H192	H	1.810376	0.179174	-0.462066
C193	C	1.225946	-0.421359	-1.160234
C194	C	1.475946	-0.171359	-0.910234
C195	C	1.725946	0.078641	-0.660234
C196	C	1.975946	0.328641	-0.410234
H197	H	1.225609	-0.421677	-1.087437
H198	H	1.475609	-0.171677	-0.837437
H199	H	1.725609	0.078323	-0.587437
H200	H	1.975609	0.328323	-0.337437
H201	H	1.215206	-0.366164	-1.173899
H202	H	1.465206	-0.116164	-0.923899
H203	H	1.715206	0.133836	-0.673899
H204	H	1.965206	0.383836	-0.423899
H205	H	1.278847	-0.438500	-1.182518
H206	H	1.528847	-0.188500	-0.932518
H207	H	1.778847	0.061500	-0.682518
H208	H	2.028847	0.311500	-0.432518
H209	H	1.025496	-0.602330	-1.040009
H210	H	1.275496	-0.352330	-0.790009
H211	H	1.525496	-0.102330	-0.540009
H212	H	1.775496	0.147670	-0.290009
