data_functionalizedCrystal
_audit_creation_method	'MofGen! by Chris Wilmer'
_symmetry_space_group_name_H-M	'P1'
_symmetry_Int_Tables_number	1
_symmetry_cell_setting	triclinic
loop_
_symmetry_equiv_pos_as_xyz
  x,y,z
_cell_length_a	17.699083
_cell_length_b	10.654551
_cell_length_c	16.176319
_cell_angle_alpha	89.996057
_cell_angle_beta	89.998611
_cell_angle_gamma	83.884188
loop_
_atom_site_label
_atom_site_type_symbol
_atom_site_fract_x
_atom_site_fract_y
_atom_site_fract_z
O1	O	1.005089	0.158809	-0.068625
O2	O	0.784842	0.179470	-0.068652
O3	O	0.900029	-0.013688	-0.068638
O4	O	0.889902	0.351967	-0.068639
O5	O	0.900013	-0.013701	0.068855
O6	O	0.784826	0.179458	0.068841
O7	O	1.005073	0.158797	0.068868
Cu8	Cu	0.894948	0.169126	0.081409
Cu9	Cu	0.894967	0.169141	-0.081193
O10	O	0.889886	0.351955	0.068854
C11	C	0.756632	0.178724	0.000091
C12	C	0.672600	0.176503	0.000081
C13	C	0.899277	-0.060479	0.000106
C14	C	0.897052	-0.199884	0.000100
C15	C	0.624700	0.289883	0.000081
C16	C	0.545743	0.287788	0.000092
C17	C	0.514688	0.172313	0.000096
C18	C	0.562594	0.058924	0.000099
C19	C	0.641549	0.061020	0.000094
C20	C	0.244177	0.050470	0.000119
C21	C	0.165216	0.048383	0.000122
C22	C	0.148371	0.277238	0.000117
C23	C	0.227327	0.279334	0.000112
C24	C	0.275226	0.165946	0.000119
C25	C	0.360839	0.168218	0.000109
C26	C	0.429076	0.170039	0.000101
C27	C	0.896017	-0.265371	-0.074846
C28	C	0.893919	-0.396354	-0.074842
C29	C	0.893896	-0.396353	0.075060
C30	C	0.895987	-0.265371	0.075056
C31	C	0.897081	-0.199884	-0.149801
C32	C	0.896047	-0.265371	-0.224754
C33	C	0.893949	-0.396355	-0.224750
C34	C	0.892886	-0.461851	-0.149794
C35	C	1.033282	0.159543	0.000123
C36	C	1.117315	0.161764	0.000128
C37	C	0.890638	0.398746	0.000108
C38	C	0.892863	0.538150	0.000108
N39	N	0.894940	0.169115	0.195774
N40	N	0.894981	0.169142	-0.195558
C41	C	0.945960	0.083619	0.239044
C42	C	0.945964	0.083618	0.325591
C43	C	0.894951	0.169119	0.368867
C44	C	0.843925	0.254619	0.325590
C45	C	0.843918	0.254614	0.239045
C46	C	0.843951	0.254643	0.674619
C47	C	0.843963	0.254644	0.761170
C48	C	0.945997	0.083647	0.761165
C49	C	0.945990	0.083642	0.674619
C50	C	0.894962	0.169136	0.631351
C51	C	0.894957	0.169135	0.537507
C52	C	0.894958	0.169128	0.462709
H53	H	0.649978	0.383916	0.000077
O54	O	0.290591	-0.059787	0.000086
C55	C	0.298960	-0.287009	0.000143
C56	C	0.246305	-0.162231	0.000161
H57	H	0.263176	-0.369868	0.000221
H58	H	0.336333	-0.291840	-0.057411
H59	H	0.336360	-0.291686	0.057671
H60	H	0.208858	-0.157471	-0.057328
H61	H	0.208983	-0.157452	0.057752
O62	O	0.892840	-0.459773	0.147941
C63	C	0.893091	-0.445965	0.296624
C64	C	0.894268	-0.373985	0.214145
H65	H	0.894261	-0.376641	0.350171
H66	H	0.839227	-0.495599	0.300424
H67	H	0.944972	-0.518972	0.300332
H68	H	0.842423	-0.300918	0.210381
H69	H	0.948165	-0.324438	0.210380
O70	O	0.892976	-0.459783	-0.297628
C71	C	0.893176	-0.445943	-0.446311
C72	C	0.894294	-0.373962	-0.363834
H73	H	0.894225	-0.376584	-0.499860
H74	H	0.945080	-0.518893	-0.450105
H75	H	0.839334	-0.495642	-0.450021
H76	H	0.948102	-0.324187	-0.360069
H77	H	0.842354	-0.301083	-0.360075
O78	O	0.499105	0.397810	0.000118
C79	C	0.370004	0.496018	0.000058
C80	C	0.422734	0.371321	0.000051
H81	H	0.308247	0.474645	-0.000013
H82	H	0.381316	0.552887	0.057604
H83	H	0.381420	0.552847	-0.057477
H84	H	0.411348	0.314390	0.057548
H85	H	0.411411	0.314547	-0.057533
O86	O	0.101763	0.387305	0.000009
C87	C	0.002873	0.517804	-0.071245
C88	C	0.055597	0.393101	-0.071212
H89	H	-0.034454	0.522543	-0.128830
H90	H	-0.034562	0.522566	-0.013740
H91	H	0.038649	0.600674	-0.071213
H92	H	0.019881	0.310160	-0.071273
H93	H	0.093036	0.388449	-0.128712
O94	O	0.995665	0.000703	0.803158
C95	C	1.126878	-0.073217	0.829583
C96	C	1.070715	0.020802	0.781993
H97	H	1.187567	-0.057018	0.812475
H98	H	1.118188	-0.058543	0.898883
H99	H	1.116448	-0.173767	0.812577
H100	H	1.081110	0.121389	0.798930
H101	H	1.079417	0.006018	0.712705
H102	H	0.802385	0.324232	0.360830
H103	H	0.896814	-0.212046	0.136084
O104	O	0.134923	-0.063687	0.000095
C105	C	0.020750	-0.168329	0.000153
C106	C	0.054957	-0.041333	0.000166
H107	H	-0.043907	-0.150300	0.000228
H108	H	0.040372	-0.224372	-0.057397
H109	H	0.040470	-0.224343	0.057684
H110	H	0.035253	0.014784	-0.057326
H111	H	0.035338	0.014614	0.057754
O112	O	0.995544	0.000441	0.197138
C113	C	1.096780	-0.169125	0.206278
C114	C	1.040656	-0.075008	0.253835
H115	H	1.133278	-0.230132	0.252097
H116	H	1.063814	-0.231884	0.165791
H117	H	1.134834	-0.114964	0.165728
H118	H	1.002588	-0.129066	0.294430
H119	H	1.073669	-0.012250	0.294270
H120	H	0.252607	0.373366	0.000105
H121	H	0.891168	-0.568504	-0.149798
H122	H	0.987508	0.014000	0.360821
H123	H	0.987533	0.014023	0.639387
H124	H	0.802419	0.324272	0.796404
O125	O	0.794360	0.337816	0.632723
C126	C	0.693125	0.507381	0.641869
C127	C	0.749260	0.413270	0.689423
H128	H	0.656636	0.568392	0.687691
H129	H	0.726082	0.570137	0.601363
H130	H	0.655063	0.453216	0.601340
H131	H	0.787337	0.467333	0.729998
H132	H	0.716256	0.350516	0.729878
O133	O	0.794331	0.337789	0.197138
C134	C	0.693093	0.507351	0.206271
C135	C	0.749226	0.413245	0.253832
H136	H	0.656600	0.568364	0.252088
H137	H	0.726051	0.570104	0.165765
H138	H	0.655034	0.453180	0.165740
H139	H	0.787298	0.467313	0.294408
H140	H	0.716220	0.350493	0.294286
H141	H	0.537303	-0.035098	0.000114
H142	H	0.898791	-0.093231	-0.149813
O143	O	0.688051	-0.049150	-0.000057
C144	C	0.726580	-0.244146	-0.071262
C145	C	0.673887	-0.119410	-0.071208
H146	H	0.715136	-0.300997	-0.128772
H147	H	0.788360	-0.222886	-0.071318
H148	H	0.715218	-0.300939	-0.013694
H149	H	0.685181	-0.062555	-0.128766
H150	H	0.612125	-0.140758	-0.071109
O151	O	0.896967	-0.201600	-0.297512
C152	C	0.833846	-0.039360	-0.384546
C153	C	0.832728	-0.111453	-0.302105
H154	H	0.781906	0.033521	-0.388294
H155	H	0.887662	0.010404	-0.388316
H156	H	0.832775	-0.108709	-0.438092
H157	H	0.833770	-0.042188	-0.248512
H158	H	0.778916	-0.161237	-0.298408
