data_functionalizedCrystal
_audit_creation_method	'MofGen! by Chris Wilmer'
_symmetry_space_group_name_H-M	'P1'
_symmetry_Int_Tables_number	1
_symmetry_cell_setting	triclinic
loop_
_symmetry_equiv_pos_as_xyz
  x,y,z
_cell_length_a	18.101395
_cell_length_b	16.959455
_cell_length_c	16.959447
_cell_angle_alpha	90.015228
_cell_angle_beta	89.970532
_cell_angle_gamma	89.974126
loop_
_atom_site_label
_atom_site_type_symbol
_atom_site_fract_x
_atom_site_fract_y
_atom_site_fract_z
Zn1	Zn	-0.294918	-1.208323	-0.446932
Zn2	Zn	-0.418771	-1.208220	-0.314756
Zn3	Zn	-0.294937	-1.076152	-0.314768
Zn4	Zn	-0.418711	-1.076091	-0.446892
O5	O	-0.356834	-1.142196	-0.380837
O6	O	-0.311365	-1.318920	-0.429411
O7	O	-0.402377	-1.190683	-0.204146
O8	O	-0.191302	-1.093753	-0.332322
O9	O	-0.402359	-1.318845	-0.332301
O10	O	-0.191288	-1.190859	-0.429422
O11	O	-0.311397	-1.093653	-0.204155
O12	O	-0.311338	-0.965533	-0.332283
O13	O	-0.402257	-1.093649	-0.557509
O14	O	-0.402275	-0.965488	-0.429354
O15	O	-0.311307	-1.190800	-0.557538
O16	O	-0.522396	-1.190624	-0.332262
O17	O	-0.522352	-1.093550	-0.429342
C18	C	-0.356803	-0.936830	-0.380816
C19	C	-0.356807	-0.848974	-0.380825
C20	C	-0.309421	-0.477497	-0.330387
C21	C	-0.404261	-0.477499	-0.431311
C22	C	-0.404254	-0.560045	-0.431308
C23	C	-0.356830	-0.601321	-0.380842
C24	C	-0.309414	-0.560050	-0.330380
C25	C	-0.451674	-0.601321	-0.481763
C26	C	-0.451669	-0.683872	-0.481761
C27	C	-0.404241	-0.725150	-0.431299
C28	C	-0.356822	-0.683874	-0.380836
C29	C	-0.309399	-0.725150	-0.330370
C30	C	-0.261976	-0.683876	-0.279910
C31	C	-0.261986	-0.601327	-0.279918
C32	C	-0.404231	-0.807698	-0.431291
C33	C	-0.309391	-0.807703	-0.330363
C34	C	-0.549245	-1.142091	-0.380814
C35	C	-0.631559	-1.142118	-0.380830
C36	C	-0.930650	-1.142291	-0.380873
C37	C	-0.899328	-1.081356	-0.442105
C38	C	-0.813710	-1.081066	-0.441913
C39	C	-0.782268	-1.142205	-0.380852
C40	C	-0.813420	-1.119658	-0.297548
C41	C	-0.899065	-1.119266	-0.297914
C42	C	-0.899000	-1.225907	-0.402213
C43	C	-0.813349	-1.225415	-0.404040
C44	C	-0.698408	-1.142158	-0.380836
C45	C	-1.014509	-1.142337	-0.380884
C46	C	-0.163673	-1.142324	-0.380878
C47	C	-0.081358	-1.142379	-0.380895
C48	C	-0.356773	-1.142229	-0.587005
C49	C	-0.356747	-1.142243	-0.674862
C50	C	-0.356858	-0.348365	-0.380855
C51	C	-0.356845	-0.436221	-0.380853
C52	C	-0.404022	-1.091756	-1.046325
C53	C	-0.309315	-1.192920	-1.046351
C54	C	-0.309331	-1.192899	-0.963805
C55	C	-0.356694	-1.142306	-0.922515
C56	C	-0.404041	-1.091735	-0.963771
C57	C	-0.261990	-1.243475	-0.922542
C58	C	-0.262004	-1.243456	-0.839991
C59	C	-0.309364	-1.192859	-0.798700
C60	C	-0.356713	-1.142285	-0.839962
C61	C	-0.404076	-1.091693	-0.798672
C62	C	-0.451421	-1.041114	-0.839932
C63	C	-0.451401	-1.041138	-0.922480
C64	C	-0.309384	-1.192836	-0.716152
C65	C	-0.404094	-1.091672	-0.716118
C66	C	-0.356842	-1.142209	-0.175471
C67	C	-0.356660	-1.142348	-0.087615
H68	H	-0.919875	-1.095322	-0.504074
H69	H	-0.791942	-1.273216	-0.362692
H70	H	-0.793055	-1.162645	-0.250681
C71	C	-0.928481	-0.998134	-0.423257
C72	C	-0.980554	-0.985321	-0.352570
C73	C	-1.009711	-0.902101	-0.333721
C74	C	-0.986795	-0.831694	-0.385561
C75	C	-0.934720	-0.844506	-0.456253
C76	C	-0.905563	-0.927726	-0.475101
H77	H	-0.997521	-1.037442	-0.314191
H78	H	-1.048261	-0.892617	-0.281390
H79	H	-1.008379	-0.770090	-0.371608
H80	H	-0.917753	-0.792385	-0.494631
H81	H	-0.867013	-0.937209	-0.527432
H82	H	-0.442657	-1.050466	-0.682506
C83	C	-0.785837	-1.248387	-0.486861
C84	C	-0.841760	-1.264305	-0.553376
C85	C	-0.814243	-1.287271	-0.636199
C86	C	-0.730804	-1.294320	-0.652507
C87	C	-0.674876	-1.278401	-0.585990
C88	C	-0.702392	-1.255435	-0.503167
H89	H	-0.903531	-1.259088	-0.541306
H90	H	-0.855646	-1.299055	-0.685440
H91	H	-0.710435	-1.311321	-0.713818
H92	H	-0.613104	-1.283619	-0.598060
H93	H	-0.660990	-1.243651	-0.453927
C94	C	-0.503838	-0.555916	-0.537268
C95	C	-0.588019	-0.567219	-0.530655
C96	C	-0.640183	-0.521807	-0.586163
C97	C	-0.608167	-0.465091	-0.648284
C98	C	-0.523981	-0.453786	-0.654899
C99	C	-0.471816	-0.499198	-0.599392
H100	H	-0.611723	-0.609205	-0.484667
H101	H	-0.702503	-0.530176	-0.581265
H102	H	-0.646782	-0.431475	-0.689374
H103	H	-0.500276	-0.411800	-0.700887
H104	H	-0.409496	-0.490829	-0.604290
H105	H	-0.270759	-1.234114	-1.079974
H106	H	-0.792645	-1.095172	-0.503683
C107	C	-0.209900	-1.299126	-0.967964
C108	C	-0.215968	-1.388977	-0.956625
C109	C	-0.163877	-1.444631	-1.002053
C110	C	-0.105717	-1.410433	-1.058820
C111	C	-0.099646	-1.320577	-1.070162
C112	C	-0.151737	-1.264924	-1.024734
H113	H	-0.259024	-1.414297	-0.914600
H114	H	-0.168371	-1.511148	-0.993656
H115	H	-0.067156	-1.451631	-1.092448
H116	H	-0.056590	-1.295258	-1.112187
H117	H	-0.147243	-1.198406	-1.033130
H118	H	-0.792031	-1.059184	-0.279147
H119	H	-0.223453	-1.284640	-0.806405
C120	C	-0.503498	-0.985521	-0.967857
C121	C	-0.497466	-0.895662	-0.956518
C122	C	-0.549572	-0.840052	-1.001893
C123	C	-0.607711	-0.874302	-1.058608
C124	C	-0.613746	-0.964166	-1.069950
C125	C	-0.561639	-1.019776	-1.024575
H126	H	-0.454426	-0.870304	-0.914531
H127	H	-0.545105	-0.773529	-0.993497
H128	H	-0.646283	-0.833137	-1.092198
H129	H	-0.656786	-0.989524	-1.111936
H130	H	-0.566107	-1.086299	-1.032971
H131	H	-0.920548	-1.246464	-0.461923
H132	H	-0.919255	-1.271306	-0.357615
C133	C	-0.503523	-0.985470	-0.794505
C134	C	-0.471437	-0.923430	-0.737752
C135	C	-0.523539	-0.867790	-0.692320
C136	C	-0.607726	-0.874191	-0.703642
C137	C	-0.639816	-0.936234	-0.760398
C138	C	-0.587714	-0.991873	-0.805830
H139	H	-0.409113	-0.918689	-0.729368
H140	H	-0.499783	-0.821862	-0.650306
H141	H	-0.646295	-0.833003	-0.670011
H142	H	-0.702141	-0.940974	-0.768782
H143	H	-0.611470	-1.037802	-0.847844
C144	C	-0.456102	-1.036127	-1.091710
C145	C	-0.514234	-1.070356	-1.148446
C146	C	-0.566314	-1.014729	-1.193834
C147	C	-0.560262	-0.924872	-1.182487
C148	C	-0.502128	-0.890638	-1.125749
C149	C	-0.450048	-0.946265	-1.080360
H150	H	-0.518716	-1.136878	-1.156848
H151	H	-0.609349	-1.040072	-1.235835
H152	H	-0.598815	-0.883694	-1.216086
H153	H	-0.497646	-0.824117	-1.117346
H154	H	-0.407013	-0.920923	-1.038359
H155	H	-0.442844	-0.841299	-0.472372
H156	H	-0.223378	-0.567715	-0.238836
C157	C	-0.786105	-0.997341	-0.422814
C158	C	-0.841991	-0.930535	-0.407684
C159	C	-0.814387	-0.846806	-0.388582
C160	C	-0.730897	-0.829882	-0.384611
C161	C	-0.675006	-0.896689	-0.399741
C162	C	-0.702610	-0.980418	-0.418843
H163	H	-0.903800	-0.943062	-0.410623
H164	H	-0.855761	-0.797351	-0.377381
H165	H	-0.710462	-0.767900	-0.370471
H166	H	-0.613197	-0.884162	-0.396802
H167	H	-0.661235	-1.029873	-0.430044
C168	C	-0.927067	-1.176602	-0.234166
C169	C	-0.871495	-1.222598	-0.183086
C170	C	-0.899493	-1.279924	-0.119330
C171	C	-0.983062	-1.291253	-0.106655
C172	C	-1.038639	-1.245256	-0.157736
C173	C	-1.010641	-1.187930	-0.221492
H174	H	-0.809628	-1.214213	-0.192467
H175	H	-0.858351	-1.313974	-0.081516
H176	H	-1.003788	-1.333689	-0.059459
H177	H	-1.100506	-1.253641	-0.148355
H178	H	-1.051783	-1.153880	-0.259306
C179	C	-0.257312	-1.248465	-0.670765
C180	C	-0.173119	-1.242080	-0.682139
C181	C	-0.121042	-1.297712	-0.636752
C182	C	-0.153159	-1.359730	-0.579990
C183	C	-0.237356	-1.366117	-0.568614
C184	C	-0.289432	-1.310485	-0.614001
H185	H	-0.149340	-1.196169	-0.724159
H186	H	-0.058714	-1.292984	-0.645174
H187	H	-0.114609	-1.400912	-0.546392
H188	H	-0.261134	-1.412028	-0.526593
H189	H	-0.351761	-1.315214	-0.605579
H190	H	-0.270768	-0.841304	-0.289273
H191	H	-0.270809	-0.443888	-0.289306
H192	H	-0.223367	-0.717493	-0.238818
H193	H	-0.490283	-0.717471	-0.522849
H194	H	-0.442876	-0.443888	-0.472393
H195	H	-0.919103	-1.058143	-0.279837
