data_functionalizedCrystal
_audit_creation_method	'MofGen! by Chris Wilmer'
_symmetry_space_group_name_H-M	'P1'
_symmetry_Int_Tables_number	1
_symmetry_cell_setting	triclinic
loop_
_symmetry_equiv_pos_as_xyz
  x,y,z
_cell_length_a	18.101398
_cell_length_b	21.295417
_cell_length_c	18.101390
_cell_angle_alpha	89.962939
_cell_angle_beta	89.975319
_cell_angle_gamma	90.025773
loop_
_atom_site_label
_atom_site_type_symbol
_atom_site_fract_x
_atom_site_fract_y
_atom_site_fract_z
Zn1	Zn	1.132127	-0.250665	-0.418817
Zn2	Zn	1.632127	0.249335	0.081183
Zn3	Zn	1.132023	-0.355945	-0.294967
Zn4	Zn	1.632023	0.144055	0.205033
Zn5	Zn	1.008285	-0.250685	-0.294979
Zn6	Zn	1.508285	0.249315	0.205021
Zn7	Zn	1.008238	-0.355891	-0.418755
Zn8	Zn	1.508238	0.144109	0.081245
O9	O	1.070168	-0.303296	-0.356880
O10	O	1.570168	0.196704	0.143120
O11	O	1.235746	-0.264644	-0.402409
O12	O	1.735746	0.235356	0.097591
O13	O	1.115585	-0.342013	-0.191335
O14	O	1.615585	0.157987	0.308665
O15	O	1.024776	-0.162593	-0.311437
O16	O	1.524776	0.337407	0.188563
O17	O	1.235670	-0.341993	-0.311417
O18	O	1.735670	0.158007	0.188583
O19	O	1.115762	-0.162578	-0.402421
O20	O	1.615762	0.337422	0.097579
O21	O	1.024675	-0.264679	-0.191344
O22	O	1.524675	0.235321	0.308656
O23	O	0.904646	-0.264627	-0.311377
O24	O	1.404646	0.235373	0.188623
O25	O	1.024695	-0.341902	-0.522397
O26	O	1.524695	0.158098	-0.022397
O27	O	0.904611	-0.341921	-0.402315
O28	O	1.404611	0.158079	0.097685
O29	O	1.115716	-0.264592	-0.522442
O30	O	1.615716	0.235408	-0.022442
O31	O	1.115540	-0.444027	-0.311357
O32	O	1.615540	0.055973	0.188643
O33	O	1.024595	-0.443988	-0.402304
O34	O	1.524595	0.056012	0.097696
C35	C	0.877758	-0.303271	-0.356841
C36	C	1.377758	0.196729	0.143159
C37	C	0.795443	-0.303275	-0.356842
C38	C	1.295443	0.196725	0.143158
C39	C	0.496352	-0.303314	-0.356904
C40	C	0.996352	0.196686	0.143096
C41	C	0.527675	-0.254439	-0.299967
C42	C	1.027675	0.245561	0.200033
C43	C	0.613293	-0.254571	-0.299724
C44	C	1.113293	0.245429	0.200276
C45	C	0.644735	-0.303294	-0.356873
C46	C	1.144735	0.196706	0.143127
C47	C	0.613618	-0.369607	-0.335543
C48	C	1.113618	0.130393	0.164457
C49	C	0.527972	-0.369335	-0.335147
C50	C	1.027972	0.130665	0.164853
C51	C	0.527967	-0.286453	-0.435305
C52	C	1.027967	0.213547	0.064695
C53	C	0.613618	-0.284977	-0.434877
C54	C	1.113618	0.215023	0.065123
C55	C	0.728594	-0.303287	-0.356857
C56	C	1.228594	0.196713	0.143143
C57	C	0.412493	-0.303326	-0.356919
C58	C	0.912493	0.196674	0.143081
C59	C	1.070071	-0.466848	-0.356839
C60	C	1.570071	0.033152	0.143161
C61	C	1.070097	-0.536816	-0.356846
C62	C	1.570097	-0.036816	0.143154
C63	C	1.117494	-0.569682	-0.309538
C64	C	1.617494	-0.069682	0.190462
C65	C	1.117529	-0.635425	-0.309555
C66	C	1.617529	-0.135425	0.190445
C67	C	1.070153	-0.668299	-0.356871
C68	C	1.570153	-0.168299	0.143129
C69	C	1.022753	-0.635424	-0.404188
C70	C	1.522753	-0.135424	0.095812
C71	C	1.022725	-0.569683	-0.404175
C72	C	1.522725	-0.069683	0.095825
N73	N	1.005369	-0.771559	-0.362504
N74	N	1.505369	-0.271559	0.137496
N75	N	1.005398	-0.834011	-0.362512
N76	N	1.505398	-0.334011	0.137488
C77	C	1.070236	-0.866373	-0.356914
C78	C	1.570236	-0.366373	0.143086
N79	N	1.135046	-0.833925	-0.351293
N80	N	1.635046	-0.333925	0.148707
N81	N	1.135017	-0.771468	-0.351282
N82	N	1.635017	-0.271468	0.148718
C83	C	1.070179	-0.739584	-0.356891
C84	C	1.570179	-0.239584	0.143109
C85	C	1.117675	-0.970525	-0.309622
C86	C	1.617675	-0.470525	0.190378
C87	C	1.117711	-1.036269	-0.309644
C88	C	1.617711	-0.536269	0.190356
C89	C	1.022929	-1.036267	-0.404273
C90	C	1.522929	-0.536267	0.095727
C91	C	1.022899	-0.970525	-0.404255
C92	C	1.522899	-0.470525	0.095745
C93	C	1.070271	-0.937658	-0.356925
C94	C	1.570271	-0.437658	0.143075
C95	C	1.263330	-0.303322	-0.356919
C96	C	1.763330	0.196678	0.143081
C97	C	1.345644	-0.303334	-0.356936
C98	C	1.845644	0.196666	0.143064
C99	C	1.070212	-0.303239	-0.550042
C100	C	1.570212	0.196761	-0.050042
C101	C	1.070231	-0.303214	-0.632356
C102	C	1.570231	0.196786	-0.132356
C103	C	1.070286	-0.139106	-0.356937
C104	C	1.570286	0.360894	0.143063
C105	C	1.070336	-0.069138	-0.356961
C106	C	1.570336	0.430862	0.143039
C107	C	1.070271	-0.303175	-0.931447
C108	C	1.570271	0.196825	-0.431447
C109	C	1.127727	-0.254705	-0.900150
C110	C	1.627727	0.245295	-0.400150
C111	C	1.127548	-0.254525	-0.814532
C112	C	1.627548	0.245475	-0.314532
C113	C	1.070252	-0.303195	-0.783064
C114	C	1.570252	0.196805	-0.283064
C115	C	0.992235	-0.285166	-0.814132
C116	C	1.492235	0.214834	-0.314132
C117	C	0.992579	-0.284803	-0.899778
C118	C	1.492579	0.215197	-0.399778
C119	C	1.090144	-0.369798	-0.899855
C120	C	1.590144	0.130202	-0.399855
C121	C	1.091857	-0.369458	-0.814205
C122	C	1.591857	0.130542	-0.314205
C123	C	1.070236	-0.303207	-0.699205
C124	C	1.570236	0.196793	-0.199205
C125	C	1.070281	-0.303162	-1.015306
C126	C	1.570281	0.196838	-0.515306
C127	C	1.070167	-0.303308	-0.164469
C128	C	1.570167	0.196692	0.335531
C129	C	1.070292	-0.303155	-0.082155
C130	C	1.570292	0.196845	0.417845
H131	H	0.633983	-0.406998	-0.375715
H132	H	1.133983	0.093002	0.124285
H133	H	0.633746	-0.265717	-0.241630
H134	H	1.133746	0.234283	0.258370
N135	N	1.034718	-0.417638	-0.926666
N136	N	1.534718	0.082362	-0.426666
H137	H	1.047764	-0.460347	-0.906195
H138	H	1.547764	0.039653	-0.406195
H139	H	0.983691	-0.405357	-0.909338
H140	H	1.483691	0.094643	-0.409338
H141	H	0.984181	-0.662194	-0.442715
H142	H	1.484181	-0.162194	0.057285
N143	N	0.970264	-0.220293	-0.926263
N144	N	1.470264	0.279707	-0.426263
H145	H	1.011448	-0.201646	-0.956901
H146	H	1.511448	0.298354	-0.456901
H147	H	0.924082	-0.223701	-0.957296
H148	H	1.424082	0.276299	-0.457296
H149	H	0.507960	-0.383634	-0.277832
H150	H	1.007960	0.116366	0.222168
N151	N	1.110527	-0.189689	-0.928671
N152	N	1.610527	0.310311	-0.428671
H153	H	1.113113	-0.189564	-0.984409
H154	H	1.613113	0.310436	-0.484409
H155	H	1.059256	-0.177140	-0.912359
H156	H	1.559256	0.322860	-0.412359
H157	H	0.984301	-0.943763	-0.442774
H158	H	1.484301	-0.443763	0.057226
N159	N	0.641978	-0.388881	-0.260444
N160	N	1.141978	0.111119	0.239556
H161	H	0.674975	-0.354759	-0.240131
H162	H	1.174975	0.145241	0.259869
H163	H	0.598861	-0.395645	-0.225910
H164	H	1.098861	0.104355	0.274090
N165	N	0.501114	-0.333600	-0.491495
N166	N	1.001114	0.166400	0.008505
H167	H	0.471832	-0.311273	-0.531063
H168	H	0.971832	0.188727	-0.031063
H169	H	0.544908	-0.355379	-0.514684
H170	H	1.044908	0.144621	-0.014684
H171	H	0.506395	-0.238940	-0.454697
H172	H	1.006395	0.261060	0.045303
N173	N	1.110111	-0.189152	-0.787412
N174	N	1.610111	0.310848	-0.287412
H175	H	1.109922	-0.188763	-0.731617
H176	H	1.609922	0.311237	-0.231617
H177	H	1.148801	-0.158925	-0.806232
H178	H	1.648801	0.341075	-0.306232
H179	H	0.984358	-1.063032	-0.442802
H180	H	1.484358	-0.563032	0.057198
N181	N	1.204149	-0.269580	-0.786702
N182	N	1.704149	0.230420	-0.286702
H183	H	1.238339	-0.276381	-0.830070
H184	H	1.738339	0.223619	-0.330070
H185	H	1.222977	-0.233512	-0.755774
H186	H	1.722977	0.266488	-0.255774
N187	N	0.933921	-0.329513	-0.927186
N188	N	1.433921	0.170487	-0.427186
H189	H	0.896837	-0.305747	-0.958097
H190	H	1.396837	0.194253	-0.458097
H191	H	0.957709	-0.363367	-0.958156
H192	H	1.457709	0.136633	-0.458156
N193	N	0.971599	-0.534227	-0.455196
N194	N	1.471599	-0.034227	0.044804
H195	H	0.983074	-0.545620	-0.508124
H196	H	1.483074	-0.045620	-0.008124
H197	H	0.918718	-0.545727	-0.443580
H198	H	1.418718	-0.045727	0.056420
H199	H	0.633962	-0.236178	-0.450961
H200	H	1.133962	0.263822	0.049039
N201	N	0.641962	-0.328693	-0.494088
N202	N	1.141962	0.171307	0.005912
H203	H	0.697670	-0.326491	-0.495922
H204	H	1.197670	0.173509	0.004078
H205	H	0.626094	-0.373082	-0.482434
H206	H	1.126094	0.126918	0.017566
H207	H	1.156069	-0.542924	-0.271002
H208	H	1.656069	-0.042924	0.228998
N209	N	1.168652	-0.670884	-0.258530
N210	N	1.668652	-0.170884	0.241470
H211	H	1.198658	-0.640087	-0.228546
H212	H	1.698658	-0.140087	0.271454
H213	H	1.138533	-0.698204	-0.224237
H214	H	1.638533	-0.198204	0.275763
N215	N	1.168767	-0.935070	-0.258579
N216	N	1.668767	-0.435070	0.241421
H217	H	1.198803	-0.965869	-0.228615
H218	H	1.698803	-0.465869	0.271385
H219	H	1.203008	-0.907745	-0.288752
H220	H	1.703008	-0.407745	0.211248
N221	N	1.167904	-0.387472	-0.787305
N222	N	1.667904	0.112528	-0.287305
H223	H	1.181493	-0.430131	-0.807511
H224	H	1.681493	0.069869	-0.307511
H225	H	1.205020	-0.355325	-0.804848
H226	H	1.705020	0.144675	-0.304848
H227	H	1.156312	-1.063027	-0.271122
H228	H	1.656312	-0.563027	0.228878
N229	N	0.500508	-0.419204	-0.387674
N230	N	1.000508	0.080796	0.112326
H231	H	0.519193	-0.409962	-0.439130
H232	H	1.019193	0.090038	0.060870
H233	H	0.519228	-0.461628	-0.371197
H234	H	1.019228	0.038372	0.128803
N235	N	1.204612	-0.269471	-0.927440
N236	N	1.704612	0.230529	-0.427440
H237	H	1.202948	-0.307721	-0.960359
H238	H	1.702948	0.192279	-0.460359
H239	H	1.224370	-0.232505	-0.956326
H240	H	1.724370	0.267495	-0.456326
N241	N	0.933983	-0.330484	-0.787133
N242	N	1.433983	0.169516	-0.287133
H243	H	0.957663	-0.363215	-0.754424
H244	H	1.457663	0.136785	-0.254424
H245	H	0.895335	-0.306818	-0.758097
H246	H	1.395335	0.193182	-0.258097
N247	N	0.969507	-0.221372	-0.785747
N248	N	1.469507	0.278628	-0.285747
H249	H	1.009628	-0.204059	-0.752771
H250	H	1.509628	0.295941	-0.252771
H251	H	0.961540	-0.192016	-0.828853
H252	H	1.461540	0.307984	-0.328853
H253	H	0.506125	-0.265460	-0.242211
H254	H	1.006125	0.234540	0.257789
N255	N	1.164206	-0.391525	-0.928479
N256	N	1.664206	0.108475	-0.428479
H257	H	1.185627	-0.358396	-0.962220
H258	H	1.685627	0.141604	-0.462220
H259	H	1.198777	-0.398741	-0.885528
H260	H	1.698777	0.101259	-0.385528
N261	N	1.040459	-0.419871	-0.785832
N262	N	1.540459	0.080129	-0.285832
H263	H	1.002267	-0.400383	-0.752241
H264	H	1.502267	0.099617	-0.252241
H265	H	1.014969	-0.440801	-0.828905
H266	H	1.514969	0.059199	-0.328905
H267	H	0.507104	-0.205116	-0.313191
H268	H	1.007104	0.294884	0.186809
N269	N	0.641171	-0.189436	-0.317428
N270	N	1.141171	0.310564	0.182572
H271	H	0.597824	-0.160380	-0.325461
H272	H	1.097824	0.339620	0.174539
H273	H	0.672068	-0.173478	-0.274952
H274	H	1.172068	0.326522	0.225048
