data_functionalizedCrystal
_audit_creation_method	'MofGen! by Chris Wilmer'
_symmetry_space_group_name_H-M	'P1'
_symmetry_Int_Tables_number	1
_symmetry_cell_setting	triclinic
loop_
_symmetry_equiv_pos_as_xyz
  x,y,z
_cell_length_a	14.519731
_cell_length_b	16.109301
_cell_length_c	15.186229
_cell_angle_alpha	90.000638
_cell_angle_beta	89.995270
_cell_angle_gamma	96.424833
loop_
_atom_site_label
_atom_site_type_symbol
_atom_site_fract_x
_atom_site_fract_y
_atom_site_fract_z
O1	O	0.118539	-1.103344	-0.073175
O2	O	0.133291	-0.861309	-0.073189
O3	O	-0.008336	-0.988734	-0.073174
O4	O	0.260165	-0.975918	-0.073190
O5	O	-0.008338	-0.988726	0.073284
O6	O	0.133289	-0.861300	0.073268
O7	O	0.118537	-1.103335	0.073282
Zn8	Zn	0.125912	-0.982316	0.096529
Zn9	Zn	0.125915	-0.982328	-0.096435
O10	O	0.260163	-0.975910	0.073267
C11	C	0.132692	-0.830328	0.000038
C12	C	0.130901	-0.738030	0.000033
C13	C	0.119135	-1.134316	0.000054
C14	C	0.120927	-1.226614	0.000053
C15	C	-0.042695	-0.988129	0.000055
C16	C	-0.145072	-0.986330	0.000056
C17	C	-0.228213	-0.984868	0.000054
C18	C	-0.332518	-0.983041	0.000047
C19	C	-0.415654	-0.981591	0.000041
C20	C	-0.519965	-0.979764	0.000036
C21	C	0.294523	-0.976515	0.000036
C22	C	0.396899	-0.978314	0.000030
N23	N	0.125910	-0.982315	0.228221
C24	C	0.210773	-0.515901	0.000038
C25	C	0.209083	-0.429178	0.000044
C26	C	0.041048	-0.448750	0.000050
C27	C	0.042739	-0.535471	0.000051
C28	C	0.127605	-0.569045	0.000040
C29	C	0.124223	-0.395599	0.000045
C30	C	0.122389	-0.301570	0.000052
C31	C	0.129439	-0.663080	0.000036
N32	N	0.125910	-0.982336	-0.228128
C33	C	0.063219	-1.038758	0.453951
C34	C	0.063217	-1.038761	0.546141
C35	C	0.188604	-0.925886	0.546136
C36	C	0.188601	-0.925880	0.453948
C37	C	0.125910	-0.982321	0.407858
C38	C	0.125910	-0.982330	0.592235
C39	C	0.125908	-0.982332	0.692192
C40	C	0.125910	-0.982318	0.307895
H41	H	0.279876	-0.543233	0.000036
H42	H	0.239648	-0.879935	0.583672
H43	H	0.239652	-0.879919	0.416416
C44	C	-0.004806	-1.099945	0.596344
C45	C	0.008592	-1.087858	0.686944
C46	C	-0.054065	-1.144200	0.733217
H47	H	0.005168	-1.155482	0.581338
H48	H	-0.066378	-1.090815	0.581291
H49	H	0.070150	-1.096995	0.701991
H50	H	-0.001389	-1.032333	0.701976
H51	H	-0.115637	-1.135069	0.718164
H52	H	-0.044086	-1.199732	0.718204
H53	H	-0.044989	-1.136001	0.794694
C54	C	0.299482	-0.371618	-0.000007
C55	C	0.374160	-0.419585	-0.000038
C56	C	0.457452	-0.366590	-0.000095
H57	H	0.302447	-0.337363	0.051053
H58	H	0.302366	-0.337392	-0.051100
H59	H	0.371277	-0.453797	0.051049
H60	H	0.371225	-0.453838	-0.051094
H61	H	0.460337	-0.332364	-0.051188
H62	H	0.460409	-0.332338	0.050965
H63	H	0.508131	-0.399128	-0.000124
H64	H	0.012170	-1.084714	0.416427
C65	C	-0.050995	-0.412135	0.000009
C66	C	-0.034678	-0.324813	-0.000018
C67	C	-0.119447	-0.291058	-0.000071
H68	H	-0.085313	-0.430274	0.051069
H69	H	-0.085243	-0.430324	-0.051084
H70	H	-0.000444	-0.306632	0.051069
H71	H	-0.000374	-0.306651	-0.051074
H72	H	-0.153695	-0.309246	-0.051163
H73	H	-0.153758	-0.309203	0.050990
H74	H	-0.108387	-0.231807	-0.000097
C75	C	-0.047664	-0.593039	0.000008
C76	C	-0.122348	-0.545078	-0.000014
C77	C	-0.205636	-0.598079	-0.000062
H78	H	-0.050629	-0.627293	0.051068
H79	H	-0.050543	-0.627265	-0.051085
H80	H	-0.119471	-0.510866	0.051074
H81	H	-0.119414	-0.510825	-0.051070
H82	H	-0.208515	-0.632306	-0.051154
H83	H	-0.208591	-0.632331	0.050999
H84	H	-0.256319	-0.565546	-0.000085
