data_functionalizedCrystal
_audit_creation_method	'MofGen! by Chris Wilmer'
_symmetry_space_group_name_H-M	'P1'
_symmetry_Int_Tables_number	1
_symmetry_cell_setting	triclinic
loop_
_symmetry_equiv_pos_as_xyz
  x,y,z
_cell_length_a	29.839134
_cell_length_b	21.395361
_cell_length_c	29.839125
_cell_angle_alpha	90.019046
_cell_angle_beta	89.978020
_cell_angle_gamma	89.974432
loop_
_atom_site_label
_atom_site_type_symbol
_atom_site_fract_x
_atom_site_fract_y
_atom_site_fract_z
Zn1	Zn	0.686753	0.249612	-0.254121
Zn2	Zn	0.686699	0.354368	-0.178989
Zn3	Zn	0.611636	0.249598	-0.178990
Zn4	Zn	0.611598	0.354347	-0.254077
O5	O	0.649171	0.301981	-0.216544
O6	O	0.749613	0.263523	-0.244172
O7	O	0.676735	0.340473	-0.116122
O8	O	0.621639	0.161922	-0.188975
O9	O	0.749573	0.340486	-0.188973
O10	O	0.676827	0.161933	-0.244173
O11	O	0.621587	0.263499	-0.116123
O12	O	0.548764	0.263479	-0.188933
O13	O	0.621574	0.340450	-0.316950
O14	O	0.548736	0.340437	-0.244099
O15	O	0.676790	0.263502	-0.316982
O16	O	0.676698	0.442043	-0.188931
O17	O	0.621522	0.442027	-0.244098
C18	C	0.649112	0.464769	-0.216519
C19	C	0.649128	0.534410	-0.216524
C20	C	0.532449	0.301955	-0.216512
C21	C	0.482514	0.301958	-0.216509
C22	C	0.649184	0.301976	-0.333723
C23	C	0.649189	0.301973	-0.383657
C24	C	0.172866	0.342112	-0.245234
C25	C	-0.014807	0.342130	-0.245254
O26	O	-0.039076	0.376241	-0.269658
N27	N	-0.038271	0.302004	-0.216578
C28	C	-0.014813	0.261868	-0.187897
O29	O	-0.039076	0.227734	-0.163510
C30	C	0.172859	0.261848	-0.187880
C31	C	0.196320	0.301981	-0.216555
C32	C	0.196327	0.382242	-0.273907
C33	C	0.243242	0.382239	-0.273900
C34	C	0.266697	0.342108	-0.245220
C35	C	0.243236	0.301978	-0.216548
C36	C	0.196316	0.221709	-0.159202
C37	C	0.243237	0.221706	-0.159201
C38	C	0.266698	0.261839	-0.187875
C39	C	0.313606	0.261844	-0.187861
N40	N	0.337069	0.301970	-0.216537
C41	C	0.313615	0.342102	-0.245217
C42	C	-0.113344	0.261882	-0.187908
C43	C	-0.160261	0.261888	-0.187912
C44	C	-0.160252	0.342150	-0.245269
C45	C	-0.113334	0.342147	-0.245263
C46	C	-0.089880	0.302008	-0.216584
C47	C	0.412141	0.342094	-0.245199
C48	C	0.459060	0.342090	-0.245188
C49	C	0.459047	0.261827	-0.187833
C50	C	0.412131	0.261833	-0.187842
C51	C	0.388679	0.301969	-0.216529
O52	O	0.337904	0.227746	-0.163473
O53	O	0.337886	0.376221	-0.269607
C54	C	0.125950	0.342115	-0.245241
C55	C	0.102489	0.301986	-0.216569
C56	C	0.125944	0.261854	-0.187889
C57	C	0.055572	0.301991	-0.216572
C58	C	0.032117	0.342123	-0.245252
C59	C	0.055581	0.382249	-0.273928
C60	C	0.102496	0.382247	-0.273921
C61	C	0.102480	0.221728	-0.159213
C62	C	0.055565	0.221734	-0.159222
C63	C	0.032110	0.261866	-0.187902
C64	C	0.766350	0.302008	-0.216577
C65	C	0.816284	0.302020	-0.216591
C66	C	0.649243	0.138558	-0.216579
C67	C	0.649274	0.068917	-0.216594
C68	C	0.677884	0.567110	-0.187828
C69	C	0.677905	0.632546	-0.187838
C70	C	0.649162	0.665278	-0.216539
C71	C	0.620404	0.632570	-0.245241
C72	C	0.620387	0.567136	-0.245233
C73	C	0.608710	0.768989	-0.220053
C74	C	0.608726	0.834422	-0.220057
C75	C	0.649214	0.867099	-0.216566
C76	C	0.689687	0.834336	-0.213060
C77	C	0.689670	0.768901	-0.213052
C78	C	0.649177	0.736231	-0.216551
C79	C	0.677995	0.970752	-0.187879
C80	C	0.678017	1.036189	-0.187892
C81	C	0.620512	1.036212	-0.245293
C82	C	0.620494	0.970776	-0.245282
C83	C	0.649235	0.938050	-0.216573
C84	C	0.677970	0.261802	-0.693320
C85	C	0.677992	0.261748	-0.880994
O86	O	0.702430	0.227652	-0.905275
N87	N	0.649248	0.301805	-0.904443
C88	C	0.620495	0.341876	-0.880970
O89	O	0.596043	0.375941	-0.905222
C90	C	0.620470	0.341926	-0.693298
C91	C	0.649220	0.301870	-0.669852
C92	C	0.706717	0.221749	-0.669874
C93	C	0.706713	0.221765	-0.622958
C94	C	0.677962	0.261834	-0.599489
C95	C	0.649215	0.301887	-0.622936
C96	C	0.591715	0.381993	-0.669827
C97	C	0.591710	0.382001	-0.622906
C98	C	0.620459	0.341945	-0.599459
C99	C	0.620461	0.341972	-0.552552
N100	N	0.649205	0.301914	-0.529103
C101	C	0.677955	0.261845	-0.552572
C102	C	0.620510	0.341848	-0.979501
C103	C	0.620516	0.341836	-1.026419
C104	C	0.678014	0.261707	-1.026439
C105	C	0.678009	0.261723	-0.979520
C106	C	0.649254	0.301791	-0.956052
C107	C	0.677945	0.261883	-0.454046
C108	C	0.677939	0.261904	-0.407126
C109	C	0.620441	0.342031	-0.407110
C110	C	0.620447	0.342012	-0.454026
C111	C	0.649201	0.301933	-0.477492
O112	O	0.596032	0.376045	-0.528241
O113	O	0.702396	0.227775	-0.528312
C114	C	0.677974	0.261785	-0.740236
C115	C	0.649228	0.301838	-0.763683
C116	C	0.620477	0.341907	-0.740214
C117	C	0.649234	0.301826	-0.810600
C118	C	0.677985	0.261758	-0.834069
C119	C	0.706729	0.221700	-0.810620
C120	C	0.706725	0.221717	-0.763705
C121	C	0.591733	0.381964	-0.763663
C122	C	0.591740	0.381945	-0.810578
C123	C	0.620491	0.341876	-0.834047
C124	C	0.649185	0.301942	-0.099822
C125	C	0.649267	0.301768	-0.049888
H126	H	0.478160	0.374773	-0.268539
C127	C	-0.087551	0.217728	-0.156354
N128	N	-0.068125	0.184474	-0.132585
H129	H	0.701357	0.229245	-0.473147
H130	H	0.730135	0.189099	-0.744619
H131	H	0.568330	0.414569	-0.829665
H132	H	0.568304	0.414610	-0.688909
H133	H	0.730122	0.189147	-0.603872
H134	H	0.568321	0.414595	-0.744559
C135	C	-0.186063	0.217743	-0.156365
N136	N	-0.205496	0.184487	-0.132605
C137	C	0.170519	0.177552	-0.127662
N138	N	0.151090	0.144287	-0.103906
H139	H	0.597034	0.374656	-0.387994
H140	H	0.262330	0.189016	-0.135849
H141	H	0.393051	0.374775	-0.268560
C142	C	0.484856	0.217677	-0.156292
N143	N	0.504296	0.184417	-0.132539
H144	H	0.596970	0.540511	-0.268602
H145	H	0.121594	0.414927	-0.297271
H146	H	0.730129	0.189117	-0.688977
H147	H	0.597094	0.374480	-0.960398
H148	H	0.701399	0.944106	-0.164503
H149	H	0.730140	0.189077	-0.829737
C150	C	0.386324	0.217690	-0.156295
N151	N	0.366888	0.184436	-0.132536
H152	H	-0.094235	0.374826	-0.268613
H153	H	0.701288	0.540467	-0.164452
H154	H	0.262340	0.414919	-0.297251
C155	C	0.709652	1.072159	-0.156322
N156	N	0.733479	1.099252	-0.132542
C157	C	0.560077	0.426081	-0.597094
N158	N	0.536253	0.459285	-0.577653
C159	C	0.170535	0.426401	-0.305455
N160	N	0.151111	0.459669	-0.329215
H161	H	0.575738	0.742389	-0.222898
H162	H	0.701419	0.229105	-0.960433
H163	H	-0.179357	0.374826	-0.268621
C164	C	0.734189	0.732864	-0.209196
N165	N	0.767721	0.705721	-0.206291
H166	H	0.701323	0.659176	-0.164470
H167	H	0.701352	0.229286	-0.388038
C168	C	0.029772	0.426393	-0.305476
N169	N	0.010330	0.459637	-0.329239
C170	C	0.588784	0.668577	-0.276811
N171	N	0.564968	0.695698	-0.300591
H172	H	0.597111	0.374460	-1.045505
H173	H	0.036467	0.189054	-0.135868
C174	C	0.588825	0.386078	-0.479818
N175	N	0.565003	0.419266	-0.499241
C176	C	0.588894	1.072214	-0.276866
N177	N	0.565080	1.099334	-0.300648
C178	C	0.734227	0.870276	-0.209222
N179	N	0.767774	0.897349	-0.206332
H180	H	0.121572	0.189047	-0.135858
H181	H	0.701424	0.229082	-1.045555
C182	C	0.564206	0.870455	-0.223913
N183	N	0.530672	0.897594	-0.226817
C184	C	0.588869	0.934804	-0.276860
N185	N	0.565052	0.907711	-0.300650
