data_functionalizedCrystal
_audit_creation_method	'MofGen! by Chris Wilmer'
_symmetry_space_group_name_H-M	'P1'
_symmetry_Int_Tables_number	1
_symmetry_cell_setting	triclinic
loop_
_symmetry_equiv_pos_as_xyz
  x,y,z
_cell_length_a	19.805405
_cell_length_b	17.077404
_cell_length_c	17.077396
_cell_angle_alpha	89.981638
_cell_angle_beta	89.968350
_cell_angle_gamma	90.024381
loop_
_atom_site_label
_atom_site_type_symbol
_atom_site_fract_x
_atom_site_fract_y
_atom_site_fract_z
Zn1	Zn	-0.269500	1.200035	-0.443802
Zn2	Zn	-0.382693	1.199934	-0.312528
Zn3	Zn	-0.269519	1.068767	-0.312552
Zn4	Zn	-0.382648	1.068727	-0.443754
O5	O	-0.326090	1.134366	-0.378159
O6	O	-0.284526	1.309869	-0.426398
O7	O	-0.367707	1.182509	-0.202684
O8	O	-0.174800	1.086239	-0.329992
O9	O	-0.367688	1.309795	-0.329952
O10	O	-0.174786	1.182681	-0.426421
O11	O	-0.284559	1.086141	-0.202702
O12	O	-0.284515	0.958915	-0.329947
O13	O	-0.367612	1.086171	-0.553608
O14	O	-0.367631	0.958886	-0.426340
O15	O	-0.284482	1.182643	-0.553642
O16	O	-0.477404	1.182470	-0.329906
O17	O	-0.477371	1.086073	-0.426317
C18	C	-0.326071	0.930418	-0.378141
C19	C	-0.326079	0.843168	-0.378153
C20	C	-0.282853	0.802218	-0.428449
C21	C	-0.282858	0.720237	-0.428452
C22	C	-0.326092	0.679209	-0.378163
C23	C	-0.369319	0.720165	-0.327862
C24	C	-0.369311	0.802144	-0.327855
C25	C	-0.369335	0.549295	-0.327881
C26	C	-0.369344	0.467311	-0.327889
C27	C	-0.282881	0.467388	-0.428479
C28	C	-0.282873	0.549367	-0.428472
C29	C	-0.326102	0.590318	-0.378171
C30	C	-0.501946	1.134278	-0.378121
C31	C	-0.577178	1.134312	-0.378131
C32	C	-0.612517	1.184555	-0.327982
C33	C	-0.683205	1.184588	-0.328000
C34	C	-0.718554	1.134374	-0.378162
C35	C	-0.683210	1.084129	-0.428317
C36	C	-0.612523	1.084100	-0.428303
C37	C	-0.968283	1.084245	-0.428375
C38	C	-1.038975	1.084276	-0.428383
C39	C	-1.038966	1.184733	-0.328072
C40	C	-0.968278	1.184704	-0.328058
C41	C	-0.932941	1.134462	-0.378215
C42	C	-0.856293	1.134427	-0.378196
C43	C	-0.795201	1.134404	-0.378177
C44	C	-0.149547	1.134476	-0.378214
C45	C	-0.074315	1.134523	-0.378238
C46	C	-0.326040	1.134414	-0.582903
C47	C	-0.326019	1.134434	-0.670153
C48	C	-0.326110	1.339110	-0.378177
C49	C	-0.326118	1.426360	-0.378185
C50	C	-0.282730	1.184668	-0.711163
C51	C	-0.282707	1.184678	-0.793143
C52	C	-0.325978	1.134456	-0.834113
C53	C	-0.369269	1.084216	-0.793098
C54	C	-0.369287	1.084203	-0.711119
C55	C	-0.369228	1.084247	-0.963968
C56	C	-0.369211	1.084261	-1.045952
C57	C	-0.282648	1.184722	-1.045992
C58	C	-0.282666	1.184709	-0.964013
C59	C	-0.325959	1.134470	-0.923004
C60	C	-0.326091	1.134364	-0.174211
C61	C	-0.325921	1.134496	-0.086962
H62	H	-0.247672	0.582770	-0.469426
H63	H	-0.939517	1.043334	-0.469213
H64	H	-0.404471	1.043325	-0.930580
F65	F	-0.415371	0.423647	-0.274381
F66	F	-1.076580	1.238209	-0.274693
H67	H	-0.247682	0.434042	-0.469434
F68	F	-0.415329	0.676498	-0.274336
H69	H	-0.711975	1.225500	-0.287163
H70	H	-0.247496	1.225567	-0.677811
F71	F	-0.236840	0.845876	-0.481978
F72	F	-0.415346	0.592876	-0.274348
H73	H	-0.404509	0.835485	-0.286898
F74	F	-0.236573	1.238192	-1.089638
H75	H	-0.404498	1.043322	-0.826462
F76	F	-0.574903	1.237995	-0.274586
F77	F	-0.236617	1.238166	-0.920412
F78	F	-0.930662	1.238148	-0.274667
F79	F	-0.720832	1.030691	-0.481709
F80	F	-0.236852	0.676658	-0.481986
F81	F	-1.076594	1.030829	-0.481777
F82	F	-0.574913	1.030627	-0.481680
H83	H	-0.247458	1.225586	-0.826530
F84	F	-0.415258	1.030803	-1.089554
F85	F	-0.415360	1.030735	-0.667474
