data_functionalizedCrystal
_audit_creation_method	'MofGen! by Chris Wilmer'
_symmetry_space_group_name_H-M	'P1'
_symmetry_Int_Tables_number	1
_symmetry_cell_setting	triclinic
loop_
_symmetry_equiv_pos_as_xyz
  x,y,z
_cell_length_a	13.635800
_cell_length_b	19.452420
_cell_length_c	17.982968
_cell_angle_alpha	83.861480
_cell_angle_beta	102.451960
_cell_angle_gamma	78.303285
loop_
_atom_site_label
_atom_site_type_symbol
_atom_site_fract_x
_atom_site_fract_y
_atom_site_fract_z
V1	V	2.003102	-0.097842	0.237924
O2	O	2.001594	0.004025	0.233011
O3	O	1.974565	-0.193353	0.236665
O4	O	1.976411	-0.096634	0.341522
O5	O	1.999736	-0.093364	0.127428
V6	V	2.245801	-0.085622	0.224663
O7	O	2.131675	-0.124646	0.267013
O8	O	2.342326	-0.058818	0.195574
O9	O	2.162734	0.009889	0.225921
O10	O	2.306008	-0.187489	0.229575
O11	O	2.307866	-0.090100	0.335158
O12	O	2.160889	-0.086830	0.121064
V13	V	2.503102	-0.097842	0.237924
O14	O	2.501594	0.004025	0.233011
O15	O	2.474565	-0.193353	0.236665
O16	O	2.476411	-0.096634	0.341522
O17	O	2.499736	-0.093364	0.127428
V18	V	2.745801	-0.085622	0.224663
O19	O	2.631675	-0.124646	0.267013
O20	O	2.842326	-0.058818	0.195574
O21	O	2.662734	0.009889	0.225921
O22	O	2.806008	-0.187489	0.229575
O23	O	2.807866	-0.090100	0.335158
O24	O	2.660889	-0.086830	0.121064
C25	C	1.896091	-0.216627	0.233007
C26	C	1.913386	-0.294711	0.232669
C27	C	1.903569	-0.321146	0.162690
C28	C	1.919855	-0.394512	0.162349
C29	C	1.945939	-0.441439	0.231990
C30	C	1.955763	-0.414996	0.301978
C31	C	1.939486	-0.341632	0.302317
N32	N	1.928159	-0.562023	0.281036
N33	N	1.943617	-0.631716	0.280709
C34	C	1.994983	-0.662482	0.230971
N35	N	2.030290	-0.620921	0.181560
N36	N	2.014825	-0.551222	0.181885
C37	C	1.963591	-0.520991	0.231629
C38	C	2.002825	-0.768468	0.160617
C39	C	2.019118	-0.841836	0.160279
C40	C	2.055017	-0.862319	0.299909
C41	C	2.038733	-0.788953	0.300246
C42	C	2.012633	-0.742031	0.230597
C43	C	1.898445	-0.093252	0.366761
C44	C	1.917235	-0.092896	0.451456
C45	C	2.072879	0.033159	0.229577
C46	C	2.045204	0.111242	0.229920
C47	C	2.070526	-0.090215	0.095821
C48	C	2.041356	-0.090567	0.011126
C49	C	2.396091	-0.216627	0.233007
C50	C	2.413386	-0.294711	0.232669
C51	C	2.398445	-0.093252	0.366761
C52	C	2.417235	-0.092896	0.451456
C53	C	2.016862	-0.096249	0.495141
C54	C	2.034511	-0.095914	0.574720
C55	C	1.952533	-0.092232	0.610614
C56	C	1.852896	-0.088877	0.566924
C57	C	1.835247	-0.089206	0.487345
C58	C	1.924070	-0.087547	0.887855
C59	C	1.941728	-0.087219	0.967440
C60	C	2.123334	-0.094254	0.975231
C61	C	2.105686	-0.094584	0.895652
C62	C	2.006050	-0.091225	0.851968
C63	C	1.986914	-0.091587	0.765678
C64	C	1.971669	-0.091875	0.696903
C65	C	2.572879	0.033159	0.229577
C66	C	2.545204	0.111242	0.229920
C67	C	2.570526	-0.090215	0.095821
C68	C	2.541356	-0.090567	0.011126
C69	C	2.512318	-0.334971	0.236330
C70	C	2.528585	-0.408341	0.236024
C71	C	2.445918	-0.441448	0.232051
C72	C	2.346979	-0.401182	0.228392
C73	C	2.330714	-0.327814	0.228703
C74	C	2.516868	-0.096242	0.495127
C75	C	2.534534	-0.095898	0.574705
C76	C	2.452568	-0.092214	0.610613
C77	C	2.352926	-0.088866	0.566936
C78	C	2.335260	-0.089204	0.487358
C79	C	2.618766	0.151502	0.226261
C80	C	2.592770	0.224872	0.226571
C81	C	2.493214	0.257978	0.230546
C82	C	2.419646	0.217713	0.234203
C83	C	2.445640	0.144346	0.233888
C84	C	2.441092	-0.094243	-0.024762
C85	C	2.413666	-0.094566	-0.104344
C86	C	2.486508	-0.091217	-0.148035
C87	C	2.586779	-0.087538	-0.112142
C88	C	2.614202	-0.087211	-0.032563
H89	H	1.911858	-0.416039	0.105362
C90	C	2.194567	-0.098616	0.856547
C91	C	2.157792	-0.098207	0.777508
C92	C	2.239643	-0.101928	0.741462
H93	H	2.224009	-0.058851	0.863985
H94	H	2.245591	-0.141195	0.878265
H95	H	2.106786	-0.055633	0.755796
H96	H	2.128358	-0.137969	0.770047
H97	H	2.290667	-0.144507	0.763181
H98	H	2.269080	-0.062162	0.748907
H99	H	2.214704	-0.101657	0.687833
H100	H	2.332015	-0.097561	-0.133556
H101	H	2.646079	-0.084810	-0.147728
C102	C	2.605746	-0.100125	0.456033
C103	C	2.584934	-0.039792	0.400056
C104	C	2.666783	-0.043344	0.364026
H105	H	2.667662	-0.102032	0.493357
H106	H	2.613457	-0.141552	0.432225
H107	H	2.577234	0.001625	0.423863
H108	H	2.523032	-0.037872	0.362716
H109	H	2.674495	-0.084771	0.340218
H110	H	2.728694	-0.045253	0.401356
H111	H	2.652669	-0.002413	0.326037
C112	C	2.464910	0.337611	0.231019
C113	C	2.435243	0.350288	0.299086
C114	C	2.409158	0.423636	0.299546
H115	H	2.522916	0.356925	0.228315
H116	H	2.409315	0.359454	0.187867
H117	H	2.490833	0.328454	0.342227
H118	H	2.377231	0.330991	0.301804
H119	H	2.353562	0.445478	0.256394
H120	H	2.467167	0.442944	0.296839
H121	H	2.389016	0.432247	0.345725
C122	C	2.362094	-0.098019	0.022725
C123	C	2.397882	-0.158784	0.079127
C124	C	2.325121	-0.162285	0.122872
H125	H	2.352101	-0.056916	0.046888
H126	H	2.298452	-0.100290	-0.010025
H127	H	2.461505	-0.156507	0.111872
H128	H	2.407868	-0.199896	0.054985
H129	H	2.261479	-0.164556	0.090122
H130	H	2.315134	-0.121180	0.147030
H131	H	2.349389	-0.203517	0.161141
C132	C	1.815932	-0.083851	0.840341
C133	C	1.784448	-0.023122	0.783890
C134	C	1.684849	-0.019731	0.740095
H135	H	1.816098	-0.124983	0.816218
H136	H	1.769552	-0.081601	0.873051
H137	H	1.830816	-0.025378	0.751184
H138	H	1.784258	0.018020	0.807991
H139	H	1.638469	-0.017480	0.772805
H140	H	1.685025	-0.060865	0.715977
H141	H	1.663471	0.021477	0.701793
C142	C	2.105748	-0.100135	0.456054
C143	C	2.084949	-0.039799	0.400082
C144	C	2.166803	-0.043357	0.364056
H145	H	2.167665	-0.102050	0.493381
H146	H	2.113451	-0.141560	0.432243
H147	H	2.077257	0.001615	0.423894
H148	H	2.023047	-0.037873	0.362740
H149	H	2.174506	-0.084782	0.340244
H150	H	2.228714	-0.045274	0.401388
H151	H	2.152698	-0.002424	0.326070
C152	C	2.365918	0.100532	0.237987
C153	C	2.401911	0.048546	0.303910
C154	C	2.328499	0.008170	0.307706
H155	H	2.302872	0.130671	0.240444
H156	H	2.354763	0.078256	0.193388
H157	H	2.413053	0.070822	0.348498
H158	H	2.464947	0.018391	0.301468
H159	H	2.317344	-0.014106	0.263106
H160	H	2.265458	0.038315	0.310160
H161	H	2.352915	-0.027110	0.352430
C162	C	1.983922	-0.465855	0.377640
C163	C	1.905113	-0.450808	0.416252
C164	C	1.931029	-0.497637	0.485962
H165	H	1.992187	-0.513359	0.367524
H166	H	2.046694	-0.460312	0.408860
H167	H	1.842358	-0.456357	0.385039
H168	H	1.896836	-0.403312	0.426388
H169	H	1.993802	-0.492094	0.517182
H170	H	1.939295	-0.545139	0.475838
H171	H	1.877567	-0.487430	0.512173
H172	H	2.464169	-0.091493	-0.212831
H173	H	2.695849	-0.084221	-0.003349
H174	H	2.046721	-0.767430	0.357230
C175	C	2.635937	-0.452174	0.240014
C176	C	2.632508	-0.523517	0.238912
C177	C	2.731380	-0.563915	0.242592
H178	H	2.659176	-0.435166	0.196980
H179	H	2.682092	-0.448201	0.286306
H180	H	2.586368	-0.527487	0.192626
H181	H	2.609287	-0.540547	0.281943
H182	H	2.777536	-0.559941	0.288883
H183	H	2.754611	-0.546900	0.199556
H184	H	2.729069	-0.612326	0.241851
C185	C	1.974574	-0.717637	0.084925
C186	C	1.969506	-0.756497	0.023567
C187	C	1.943506	-0.709699	-0.046171
H188	H	1.909380	-0.686288	0.079595
H189	H	2.025586	-0.690888	0.084566
H190	H	1.918497	-0.783234	0.023925
H191	H	2.034690	-0.787843	0.028870
H192	H	1.994518	-0.682949	-0.046530
H193	H	1.878314	-0.678352	-0.051493
H194	H	1.940074	-0.736058	-0.087810
H195	H	2.459176	-0.501189	0.231798
C196	C	1.875293	-0.270321	0.086995
C197	C	1.870205	-0.309181	0.025638
C198	C	1.844173	-0.262384	-0.044103
H199	H	1.810099	-0.238976	0.081679
H200	H	1.926296	-0.243566	0.086620
H201	H	1.819205	-0.335924	0.026012
H202	H	1.935389	-0.340523	0.030929
H203	H	1.895176	-0.235630	-0.044478
H204	H	1.778980	-0.231042	-0.049411
H205	H	1.840726	-0.288745	-0.085741
H206	H	2.250151	-0.295039	0.225718
C207	C	1.950330	-0.313033	0.378362
C208	C	2.050807	-0.340436	0.424007
C209	C	2.060828	-0.314113	0.494069
H210	H	1.936974	-0.262627	0.368703
H211	H	1.902333	-0.327007	0.404594
H212	H	2.098789	-0.326457	0.397781
H213	H	2.064185	-0.390839	0.433688
H214	H	2.012831	-0.328087	0.520301
H215	H	2.047468	-0.263707	0.484402
H216	H	2.128998	-0.332707	0.525050
H217	H	2.076256	-0.900527	0.356612
C218	C	2.008696	-0.870581	0.084326
C219	C	2.102703	-0.915443	0.083645
C220	C	2.093151	-0.941927	0.013684
H221	H	1.956282	-0.896548	0.078769
H222	H	1.990878	-0.832143	0.042882
H223	H	2.120508	-0.953875	0.125077
H224	H	2.155131	-0.889493	0.089189
H225	H	2.075333	-0.903489	-0.027760
H226	H	2.040734	-0.967890	0.008133
H227	H	2.156934	-0.972363	0.013210
C228	C	2.642782	-0.099691	0.622104
C229	C	2.709206	-0.162650	0.615609
C230	C	2.808927	-0.166175	0.659268
H231	H	2.666525	-0.060079	0.603580
H232	H	2.641627	-0.099000	0.674657
H233	H	2.710365	-0.163335	0.563067
H234	H	2.685497	-0.202273	0.634138
H235	H	2.807772	-0.165484	0.711821
H236	H	2.832660	-0.126560	0.640741
H237	H	2.854006	-0.208895	0.654873
C238	C	2.257230	-0.437148	0.223913
C239	C	2.244333	-0.469394	0.157608
C240	C	2.161659	-0.502527	0.153446
H241	H	2.271180	-0.472208	0.268233
H242	H	2.195936	-0.402683	0.221732
H243	H	2.305613	-0.503857	0.159796
H244	H	2.230366	-0.434350	0.113277
H245	H	2.100365	-0.468061	0.151265
H246	H	2.175617	-0.537583	0.197769
H247	H	2.152892	-0.524404	0.108455
C248	C	2.602224	-0.299174	0.240686
C249	C	2.692342	-0.350151	0.243848
C250	C	2.775193	-0.317208	0.247873
H251	H	2.588329	-0.264170	0.196324
H252	H	2.611200	-0.277260	0.285647
H253	H	2.683367	-0.372054	0.198892
H254	H	2.706269	-0.385157	0.288208
H255	H	2.784169	-0.295294	0.292834
H256	H	2.761289	-0.282205	0.203510
H257	H	2.836350	-0.351792	0.250026
C258	C	2.726897	0.115706	0.221896
C259	C	2.785731	0.166683	0.218734
C260	C	2.885343	0.133742	0.214697
H261	H	2.758485	0.080699	0.266254
H262	H	2.722969	0.093796	0.176932
H263	H	2.789663	0.188581	0.263694
H264	H	2.754176	0.201693	0.174378
H265	H	2.881415	0.111832	0.169733
H266	H	2.916921	0.098735	0.259056
H267	H	2.925271	0.168326	0.212544
H268	H	2.338586	0.244680	0.237439
C269	C	1.852781	-0.083106	1.006493
C270	C	1.841681	-0.021983	1.041473
C271	C	1.759770	-0.018175	1.077464
H272	H	1.790839	-0.081110	0.969157
H273	H	1.866702	-0.123980	1.044530
H274	H	1.827753	0.018882	1.003440
H275	H	1.903602	-0.023964	1.078820
H276	H	1.773691	-0.059050	1.115502
H277	H	1.697833	-0.016182	1.040123
H278	H	1.752233	0.023293	1.101208
H279	H	2.115636	-0.098640	0.610284
C280	C	2.471660	-0.091704	0.696986
C281	C	2.412090	-0.028931	0.710703
C282	C	2.429668	-0.028435	0.790260
H283	H	2.452932	-0.131452	0.720762
H284	H	2.542725	-0.094187	0.717872
H285	H	2.341040	-0.026455	0.689827
H286	H	2.430807	0.010827	0.686946
H287	H	2.500733	-0.030918	0.811146
H288	H	2.410940	-0.068185	0.814029
H289	H	2.389260	0.014159	0.799577
H290	H	2.204463	-0.096986	1.010808
H291	H	2.286195	-0.085867	0.596184
H292	H	1.786148	-0.085874	0.596154
H293	H	1.754116	-0.086459	0.451774
H294	H	2.254127	-0.086481	0.451807
H295	H	2.652686	0.257646	0.223594
