data_functionalizedCrystal
_audit_creation_method	'MofGen! by Chris Wilmer'
_symmetry_space_group_name_H-M	'P1'
_symmetry_Int_Tables_number	1
_symmetry_cell_setting	triclinic
loop_
_symmetry_equiv_pos_as_xyz
  x,y,z
_cell_length_a	13.635800
_cell_length_b	17.253917
_cell_length_c	9.582880
_cell_angle_alpha	83.284586
_cell_angle_beta	111.207034
_cell_angle_gamma	77.340689
loop_
_atom_site_label
_atom_site_type_symbol
_atom_site_fract_x
_atom_site_fract_y
_atom_site_fract_z
V1	V	2.060133	-0.110944	0.480761
O2	O	2.051100	0.005681	0.456994
O3	O	2.037399	-0.220320	0.491528
O4	O	2.055490	-0.109085	0.684024
O5	O	2.032884	-0.106325	0.263166
V6	V	2.299223	-0.097013	0.453027
O7	O	2.196623	-0.141504	0.541596
O8	O	2.387832	-0.066453	0.392191
O9	O	2.210354	0.012363	0.442259
O10	O	2.366955	-0.213638	0.476793
O11	O	2.385171	-0.101632	0.670622
O12	O	2.192264	-0.098873	0.249763
V13	V	2.560133	-0.110944	0.480761
O14	O	2.551100	0.005681	0.456994
O15	O	2.537399	-0.220320	0.491528
O16	O	2.555490	-0.109085	0.684024
O17	O	2.532884	-0.106325	0.263166
V18	V	2.799223	-0.097013	0.453027
O19	O	2.696623	-0.141504	0.541596
O20	O	2.887832	-0.066453	0.392191
O21	O	2.710354	0.012363	0.442259
O22	O	2.866955	-0.213638	0.476793
O23	O	2.885171	-0.101632	0.670622
O24	O	2.692264	-0.098873	0.249763
C25	C	1.959624	-0.246988	0.487571
C26	C	1.981810	-0.336403	0.497730
C27	C	1.958729	-0.367024	0.364003
C28	C	1.979585	-0.451039	0.373554
C29	C	2.023515	-0.504433	0.516831
C30	C	2.046600	-0.473807	0.650568
C31	C	2.025751	-0.389793	0.641017
C32	C	2.089470	-0.756920	0.560249
C33	C	2.110315	-0.840939	0.569790
C34	C	2.043301	-0.818165	0.292775
C35	C	2.022448	-0.734150	0.283236
C36	C	2.045540	-0.703532	0.416973
N37	N	2.044832	-0.590310	0.526597
N38	N	2.024231	-0.617656	0.407207
C39	C	1.982699	-0.105095	0.733116
C40	C	2.019554	-0.104299	0.899378
C41	C	2.119800	0.039027	0.446213
C42	C	2.087235	0.128441	0.436064
C43	C	2.096725	-0.102864	0.200663
C44	C	2.049489	-0.103657	0.034400
C45	C	2.459624	-0.246988	0.487571
C46	C	2.481810	-0.336403	0.497730
C47	C	2.482699	-0.105095	0.733116
C48	C	2.519554	-0.104299	0.899378
C49	C	2.619800	0.039027	0.446213
C50	C	2.587235	0.128441	0.436064
C51	C	2.596725	-0.102864	0.200663
C52	C	2.549489	-0.103657	0.034400
C53	C	2.584082	-0.382489	0.510500
C54	C	2.604948	-0.466506	0.520069
C55	C	2.523537	-0.504435	0.516856
C56	C	2.421257	-0.458343	0.504088
C57	C	2.400395	-0.374329	0.494531
C58	C	2.657456	0.174526	0.423298
C59	C	2.626863	0.258543	0.413737
C60	C	2.526051	0.296472	0.416953
C61	C	2.455824	0.250380	0.429716
C62	C	2.486414	0.166366	0.439266
H63	H	1.922949	-0.323555	0.247330
O64	O	1.979740	-0.682171	0.144174
C65	C	1.917992	-0.542655	0.006702
C66	C	1.966339	-0.601428	0.164285
H67	H	1.907163	-0.477363	0.022910
H68	H	1.835020	-0.550356	-0.065890
H69	H	1.976079	-0.556747	-0.053579
H70	H	1.908335	-0.587374	0.224697
H71	H	2.049328	-0.593716	0.236765
O72	O	2.048149	-0.359912	0.770771
C73	C	2.045673	-0.240572	0.878822
C74	C	2.020272	-0.274302	0.731752
H75	H	2.023124	-0.171352	0.847325
H76	H	2.136814	-0.265787	0.955148
H77	H	1.995812	-0.259613	0.942876
H78	H	2.070062	-0.255274	0.667573
H79	H	1.929112	-0.249090	0.655537
H80	H	2.650382	-0.351618	0.513109
H81	H	1.960792	-0.475966	0.264660
O82	O	2.704208	-0.511333	0.532245
C83	C	2.802519	-0.600047	0.420581
C84	C	2.690040	-0.549335	0.406633
H85	H	2.791106	-0.630770	0.319022
H86	H	2.842637	-0.648373	0.531720
H87	H	2.857101	-0.558485	0.421280
H88	H	2.635373	-0.590831	0.405867
H89	H	2.650011	-0.501001	0.295508
H90	H	2.373740	0.281275	0.432332
H91	H	2.540538	-0.572846	0.524639
H92	H	2.024504	-0.843104	0.183894
H93	H	2.429229	0.128848	0.449674
H94	H	2.354978	-0.489238	0.501474
O95	O	2.153181	-0.892786	0.709028
C96	C	2.304111	-0.941822	0.956318
C97	C	2.255707	-0.883078	0.798694
H98	H	2.386999	-0.933982	1.028869
H99	H	2.315128	-1.007145	0.940252
H100	H	2.245989	-0.927787	1.016562
H101	H	2.313782	-0.897039	0.738365
H102	H	2.244666	-0.817773	0.814864
O103	O	2.300963	-0.329678	0.482046
C104	C	2.120990	-0.330477	0.467268
C105	C	2.233545	-0.381131	0.481377
H106	H	2.066460	-0.372058	0.466755
H107	H	2.080840	-0.282223	0.356028
H108	H	2.132378	-0.299651	0.568696
H109	H	2.222253	-0.412010	0.380031
H110	H	2.273657	-0.429339	0.592678
H111	H	2.082377	-0.517287	0.767229
O112	O	2.112065	-0.727159	0.690134
C113	C	2.214686	-0.649388	0.847690
C114	C	2.189210	-0.683060	0.700554
H115	H	2.277042	-0.613713	0.856146
H116	H	2.249733	-0.701960	0.951784
H117	H	2.136070	-0.607515	0.844014
H118	H	2.267778	-0.724921	0.704080
H119	H	2.154117	-0.630448	0.596523
H120	H	2.739547	0.143656	0.420678
H121	H	2.684060	0.296059	0.403347
O122	O	2.496402	0.378106	0.407469
C123	C	2.458299	0.511731	0.257723
C124	C	2.491900	0.419301	0.268278
H125	H	2.454627	0.545064	0.145181
H126	H	2.521103	0.527652	0.357844
H127	H	2.374207	0.530904	0.262295
H128	H	2.575968	0.400062	0.263664
H129	H	2.429026	0.403431	0.168166
