data_functionalizedCrystal
_audit_creation_method	'MofGen! by Chris Wilmer'
_symmetry_space_group_name_H-M	'P1'
_symmetry_Int_Tables_number	1
_symmetry_cell_setting	triclinic
loop_
_symmetry_equiv_pos_as_xyz
  x,y,z
_cell_length_a	14.971491
_cell_length_b	13.339070
_cell_length_c	13.448316
_cell_angle_alpha	89.996829
_cell_angle_beta	89.991393
_cell_angle_gamma	99.622765
loop_
_atom_site_label
_atom_site_type_symbol
_atom_site_fract_x
_atom_site_fract_y
_atom_site_fract_z
O1	O	1.219554	0.131899	-0.082732
O2	O	0.963057	0.147685	-0.082725
O3	O	1.061868	-0.007508	-0.082725
O4	O	1.120743	0.287092	-0.082732
O5	O	1.061848	-0.007517	0.082659
O6	O	0.963038	0.147676	0.082659
O7	O	1.219534	0.131889	0.082652
Cu8	Cu	1.091284	0.139782	0.097756
Cu9	Cu	1.091307	0.139793	-0.097829
O10	O	1.120723	0.287082	0.082652
C11	C	0.929548	0.146974	-0.000032
C12	C	0.829727	0.144855	-0.000029
C13	C	0.399773	0.135719	-0.090202
C14	C	0.493564	0.137706	-0.090199
C15	C	0.540447	0.138701	-0.000044
C16	C	0.493531	0.137699	0.090112
C17	C	0.399740	0.135704	0.090107
C18	C	0.689021	0.141859	0.090115
C19	C	0.782819	0.143856	0.090121
C20	C	0.782845	0.143861	-0.090190
C21	C	0.689054	0.141866	-0.090195
C22	C	0.642146	0.140866	-0.000038
C23	C	1.051913	-0.045214	-0.000034
C24	C	1.022269	-0.157552	-0.000037
C25	C	1.252766	-0.522062	-0.000043
C26	C	1.280621	-0.416515	-0.000035
C27	C	1.216035	-0.351769	-0.000036
C28	C	1.123590	-0.392580	-0.000044
C29	C	1.095732	-0.498138	-0.000045
C30	C	1.059002	-0.327845	-0.000037
C31	C	0.966556	-0.368657	-0.000046
C32	C	0.938703	-0.474204	-0.000048
C33	C	1.003289	-0.538949	-0.000047
C34	C	1.086859	-0.222288	-0.000037
C35	C	0.929826	-0.198364	-0.000039
C36	C	0.901971	-0.303911	-0.000047
C37	C	1.253043	0.132601	-0.000043
C38	C	1.352864	0.134719	-0.000053
C39	C	1.130678	0.324788	-0.000041
C40	C	1.160323	0.437127	-0.000045
N41	N	1.091274	0.139773	0.235321
N42	N	1.091322	0.139793	-0.235394
C43	C	1.135053	0.071082	0.287361
C44	C	1.135059	0.071081	0.391464
C45	C	1.091290	0.139777	0.443525
C46	C	1.047505	0.208471	0.391477
C47	C	1.047495	0.208467	0.287376
C48	C	1.047532	0.208478	0.608458
C49	C	1.047543	0.208485	0.712566
C50	C	1.135096	0.071093	0.712546
C51	C	1.135085	0.071088	0.608444
C52	C	1.091302	0.139784	0.556404
H53	H	0.821043	0.144677	-0.163599
H54	H	1.170700	0.015146	0.244980
H55	H	1.011901	0.264423	0.754949
H56	H	0.820989	0.144671	0.163532
Br57	Br	0.336075	0.134333	0.212458
H58	H	1.238720	-0.265828	-0.000028
Br59	Br	0.336157	0.134380	-0.212561
Br60	Br	1.194470	-0.022148	0.462094
Br61	Br	1.194496	-0.022133	0.537786
Br62	Br	1.340407	-0.609932	-0.000018
Br63	Br	0.625430	0.140529	-0.212548
Br64	Br	1.406076	-0.361134	-0.000044
Br65	Br	0.965488	-0.682199	-0.000193
H66	H	0.826700	-0.337155	-0.000054
Br67	Br	0.842167	-0.110504	-0.000028
H68	H	0.650833	0.141056	0.163531
H69	H	0.531709	0.138503	0.163517
Br70	Br	1.194520	-0.022132	0.783175
H71	H	0.531752	0.138514	-0.163607
Br72	Br	0.988104	0.301706	0.537834
Br73	Br	0.813242	-0.529589	-0.000041
Br74	Br	0.988094	0.301697	0.462128
H75	H	1.162129	-0.189070	-0.000029
H76	H	1.011844	0.264401	0.245006
