data_functionalizedCrystal
_audit_creation_method	'MofGen! by Chris Wilmer'
_symmetry_space_group_name_H-M	'P1'
_symmetry_Int_Tables_number	1
_symmetry_cell_setting	triclinic
loop_
_symmetry_equiv_pos_as_xyz
  x,y,z
_cell_length_a	19.188940
_cell_length_b	10.908937
_cell_length_c	9.482900
_cell_angle_alpha	96.963629
_cell_angle_beta	80.697423
_cell_angle_gamma	71.617335
loop_
_atom_site_label
_atom_site_type_symbol
_atom_site_fract_x
_atom_site_fract_y
_atom_site_fract_z
O1	O	-0.121165	1.724533	0.120934
O2	O	-0.066609	1.350368	0.120929
O3	O	-0.196776	1.548240	0.120921
O4	O	0.009002	1.526661	0.120943
O5	O	-0.170249	1.508047	-0.120870
O6	O	-0.040082	1.310175	-0.120862
O7	O	-0.094638	1.684340	-0.120856
Cu8	Cu	-0.064938	1.493588	-0.142936
Cu9	Cu	-0.096309	1.541120	0.143009
O10	O	0.035529	1.486468	-0.120848
C11	C	-0.048247	1.282402	0.000033
C12	C	-0.033064	1.139766	0.000031
C13	C	-0.072782	0.943648	0.000053
C14	C	-0.088474	1.091067	0.000033
C15	C	-0.209443	1.527442	0.000026
C16	C	-0.286707	1.525338	0.000026
C17	C	-0.823796	1.488464	-0.131740
C18	C	-0.751196	1.490426	-0.131748
C19	C	-0.729349	1.513323	0.000051
C20	C	-0.780104	1.534226	0.131867
C21	C	-0.852700	1.532250	0.131871
N22	N	-0.639811	1.605850	0.098152
N23	N	-0.570847	1.607728	0.098139
C24	C	-0.510620	1.519273	0.000046
N25	N	-0.521964	1.428881	-0.098056
N26	N	-0.590935	1.427008	-0.098047
C27	C	-0.650632	1.515466	0.000061
C28	C	-0.381152	1.500489	-0.131771
C29	C	-0.308549	1.502444	-0.131773
C30	C	-0.337461	1.546257	0.131845
C31	C	-0.410060	1.544289	0.131844
C32	C	-0.431901	1.521410	0.000032
C33	C	0.048196	1.507266	0.000050
C34	C	0.125458	1.509372	0.000059
C35	C	-0.113000	1.752306	0.000043
C36	C	-0.128185	1.894944	0.000055
N37	N	-0.042874	1.460165	-0.344055
C38	C	-0.089804	1.531253	-0.416257
C39	C	-0.071443	1.503455	-0.583674
N40	N	-0.118380	1.574553	0.344128
H41	H	-0.841574	1.469834	-0.239071
C42	C	-0.191028	1.684580	-0.571972
H43	H	-0.218092	1.725567	-0.638984
H44	H	-0.178678	1.747883	-0.512573
H45	H	-0.221140	1.648155	-0.512614
H46	H	-0.709866	1.473376	-0.239078
H47	H	0.025990	1.072331	0.000047
H48	H	0.010896	1.378719	-0.406182
H49	H	-0.187235	0.962386	0.000051
C50	C	0.006990	0.852553	0.000066
H51	H	0.007073	0.765420	0.000066
H52	H	0.022308	0.882039	0.084380
H53	H	0.040806	0.853987	-0.084266
H54	H	-0.762311	1.552863	0.239178
H55	H	-0.894019	1.549275	0.239201
H56	H	-0.147528	1.158505	0.000029
H57	H	-0.398934	1.481849	-0.239100
H58	H	-0.267230	1.485414	-0.239104
H59	H	-0.319672	1.564884	0.239158
C60	C	-0.465885	1.567303	0.276825
H61	H	-0.442480	1.581231	0.355320
H62	H	-0.480786	1.492532	0.282303
H63	H	-0.508828	1.642368	0.282307
C64	C	0.001196	1.393409	-0.667577
H65	H	0.028254	1.352402	-0.600568
H66	H	0.031314	1.429800	-0.726956
H67	H	-0.011173	1.330111	-0.726955
H68	H	-0.143579	1.612690	-0.354133
