data_functionalizedCrystal
_audit_creation_method	'MofGen! by Chris Wilmer'
_symmetry_space_group_name_H-M	'P1'
_symmetry_Int_Tables_number	1
_symmetry_cell_setting	triclinic
loop_
_symmetry_equiv_pos_as_xyz
  x,y,z
_cell_length_a	14.044220
_cell_length_b	14.044220
_cell_length_c	13.101039
_cell_angle_alpha	86.332523
_cell_angle_beta	93.659868
_cell_angle_gamma	93.188878
loop_
_atom_site_label
_atom_site_type_symbol
_atom_site_fract_x
_atom_site_fract_y
_atom_site_fract_z
O1	O	-1.281968	-0.225348	-0.085109
O2	O	-0.948635	0.107985	0.248224
O3	O	-0.615302	0.441318	0.581558
O4	O	-1.005298	-0.217041	-0.085135
O5	O	-0.671965	0.116292	0.248198
O6	O	-0.338632	0.449626	0.581532
O7	O	-1.139480	-0.082860	-0.085112
O8	O	-0.806147	0.250474	0.248221
O9	O	-0.472813	0.583807	0.581554
O10	O	-1.147787	-0.359530	-0.085132
O11	O	-0.814454	-0.026197	0.248202
O12	O	-0.481120	0.307137	0.581535
O13	O	-1.129854	-0.092504	0.085316
O14	O	-0.796521	0.240829	0.418649
O15	O	-0.463188	0.574162	0.751983
O16	O	-0.995673	-0.226686	0.085293
O17	O	-0.662339	0.106647	0.418627
O18	O	-0.329006	0.439981	0.751960
O19	O	-1.272343	-0.234993	0.085319
O20	O	-0.939009	0.098340	0.418652
O21	O	-0.605676	0.431674	0.751986
Zn22	Zn	-1.132479	-0.232371	0.112365
Zn23	Zn	-0.799146	0.100963	0.445699
Zn24	Zn	-0.465813	0.434296	0.779032
Zn25	Zn	-1.145162	-0.219663	-0.112181
Zn26	Zn	-0.811828	0.113670	0.221152
Zn27	Zn	-0.478495	0.447003	0.554485
O28	O	-1.138161	-0.369175	0.085296
O29	O	-0.804828	-0.035841	0.418630
O30	O	-0.471494	0.297492	0.751963
C31	C	-1.131031	-0.052060	0.000102
C32	C	-0.797698	0.281273	0.333435
C33	C	-0.464365	0.614607	0.666769
C34	C	-1.120187	0.054083	0.000102
C35	C	-0.786854	0.387416	0.333435
C36	C	-0.453520	0.720749	0.666769
C37	C	-0.964864	-0.218228	0.000076
C38	C	-0.631531	0.115106	0.333409
C39	C	-0.298197	0.448439	0.666743
C40	C	-0.858722	-0.207383	0.000066
C41	C	-0.525388	0.125951	0.333400
C42	C	-0.192055	0.459284	0.666733
C43	C	-1.312777	-0.233806	0.000106
C44	C	-0.979444	0.099527	0.333439
C45	C	-0.646111	0.432860	0.666773
C46	C	-1.418920	-0.244651	0.000109
C47	C	-1.085587	0.088682	0.333442
C48	C	-0.752253	0.422016	0.666775
C49	C	-0.664383	-0.187558	0.000088
C50	C	-0.331049	0.145776	0.333421
C51	C	0.002284	0.479109	0.666755
C52	C	-0.613253	-0.264472	0.000087
C53	C	-0.279920	0.068861	0.333420
C54	C	0.053414	0.402195	0.666754
C55	C	-0.505116	-0.253441	0.000099
C56	C	-0.171783	0.079892	0.333432
C57	C	0.161551	0.413226	0.666766
C58	C	-0.772529	-0.198587	0.000076
C59	C	-0.439196	0.134746	0.333409
C60	C	-0.105863	0.468080	0.666743
C61	C	-1.146610	-0.399974	0.000080
C62	C	-0.813276	-0.066641	0.333413
C63	C	-0.479943	0.266693	0.666747
C64	C	-1.157455	-0.506116	0.000073
C65	C	-0.824121	-0.172783	0.333406
C66	C	-0.490788	0.160550	0.666740
N67	N	-1.123831	-0.241043	0.265612
N68	N	-0.790497	0.092290	0.598946
N69	N	-0.457164	0.425623	0.932279
C70	C	-1.100362	0.248421	0.000086
C71	C	-0.767028	0.581755	0.333419
C72	C	-0.433695	0.915088	0.666752
C73	C	-1.177276	0.299551	0.000090
C74	C	-0.843942	0.632884	0.333423
C75	C	-0.510609	0.966218	0.666756
C76	C	-1.166245	0.407688	0.000080
C77	C	-0.832911	0.741021	0.333414
C78	C	-0.499578	1.074354	0.666747
C79	C	-1.111391	0.140275	0.000095
C80	C	-0.778058	0.473608	0.333428
C81	C	-0.444725	0.806941	0.666761
N82	N	-1.153817	-0.210984	-0.265428
N83	N	-0.820484	0.122349	0.067905
N84	N	-0.487151	0.455683	0.401238
C85	C	-1.112065	-0.252851	0.474653
C86	C	-0.778731	0.080482	0.807986
C87	C	-0.445398	0.413815	1.141320
C88	C	-1.165580	-0.199179	0.525538
C89	C	-0.832247	0.134154	0.858871
C90	C	-0.498914	0.467488	1.192204
C91	C	-1.159034	-0.205749	0.641855
C92	C	-0.825700	0.127584	0.975188
C93	C	-0.492367	0.460918	1.308522
C94	C	-1.118610	-0.246282	0.358325
C95	C	-0.785277	0.087051	0.691658
C96	C	-0.451944	0.420384	1.024992
H97	H	-0.650693	-0.338605	0.000077
H98	H	-0.317359	-0.005271	0.333410
H99	H	0.015974	0.328062	0.666744
N100	N	-1.002165	0.297998	0.000081
N101	N	-0.668832	0.631332	0.333415
N102	N	-0.335498	0.964665	0.666748
H103	H	-0.997731	0.342777	-0.063097
H104	H	-0.664398	0.676110	0.270236
H105	H	-0.331064	1.009444	0.603570
H106	H	-0.990667	0.335581	0.063301
H107	H	-0.657334	0.668914	0.396634
H108	H	-0.324000	1.002248	0.729967
N109	N	-0.614800	-0.089364	0.000107
N110	N	-0.281466	0.243969	0.333440
N111	N	0.051867	0.577302	0.666774
H112	H	-0.543459	-0.095305	0.000114
H113	H	-0.210126	0.238028	0.333447
H114	H	0.123207	0.571362	0.666781
H115	H	-0.637486	-0.049975	-0.063073
H116	H	-0.304153	0.283358	0.270260
H117	H	0.029181	0.616691	0.603594
N118	N	-1.275476	0.249968	0.000104
N119	N	-0.942143	0.583301	0.333437
N120	N	-0.608809	0.916635	0.666771
H121	H	-1.269542	0.178627	0.000111
H122	H	-0.936208	0.511960	0.333444
H123	H	-0.602875	0.845293	0.666777
H124	H	-1.307713	0.265535	0.063289
H125	H	-0.974379	0.598868	0.396623
H126	H	-0.641046	0.932201	0.729956
N127	N	-1.232785	-0.131775	0.467539
N128	N	-0.899452	0.201558	0.800873
N129	N	-0.566119	0.534892	1.134206
H130	H	-1.227999	-0.136576	0.391463
H131	H	-0.894666	0.196758	0.724796
H132	H	-0.561332	0.530091	1.058130
H133	H	-1.300430	-0.149499	0.486227
H134	H	-0.967096	0.183835	0.819561
H135	H	-0.633763	0.517168	1.152894
N136	N	-1.044875	-0.320263	0.532647
N137	N	-0.711541	0.013071	0.865980
N138	N	-0.378208	0.346404	1.199313
H139	H	-0.977192	-0.302590	0.514050
H140	H	-0.643859	0.030744	0.847383
H141	H	-0.310525	0.364077	1.180716
H142	H	-1.049748	-0.315434	0.608704
H143	H	-0.716415	0.017899	0.942037
H144	H	-0.383082	0.351232	1.275370
