data_functionalizedCrystal
_audit_creation_method	'MofGen! by Chris Wilmer'
_symmetry_space_group_name_H-M	'P1'
_symmetry_Int_Tables_number	1
_symmetry_cell_setting	triclinic
loop_
_symmetry_equiv_pos_as_xyz
  x,y,z
_cell_length_a	29.839134
_cell_length_b	29.839131
_cell_length_c	29.839125
_cell_angle_alpha	90.017709
_cell_angle_beta	90.012189
_cell_angle_gamma	90.021992
loop_
_atom_site_label
_atom_site_type_symbol
_atom_site_fract_x
_atom_site_fract_y
_atom_site_fract_z
Zn1	Zn	0.686719	-0.179149	0.254008
Zn2	Zn	1.020053	0.154184	0.587341
Zn3	Zn	1.353386	0.487517	0.920674
Zn4	Zn	0.686652	-0.254261	0.178878
Zn5	Zn	1.019985	0.079072	0.512211
Zn6	Zn	1.353318	0.412405	0.845544
Zn7	Zn	0.611602	-0.179121	0.178890
Zn8	Zn	0.944936	0.154213	0.512223
Zn9	Zn	1.278269	0.487546	0.845557
Zn10	Zn	0.611550	-0.254227	0.253979
Zn11	Zn	0.944883	0.079106	0.587312
Zn12	Zn	1.278217	0.412439	0.920645
O13	O	0.649131	-0.216690	0.216439
O14	O	0.982464	0.116644	0.549772
O15	O	1.315798	0.449977	0.883105
O16	O	0.749578	-0.189139	0.244048
O17	O	1.082911	0.144194	0.577382
O18	O	1.416244	0.477528	0.910715
O19	O	0.676690	-0.244296	0.116012
O20	O	1.010023	0.089038	0.449345
O21	O	1.343356	0.422371	0.782679
O22	O	0.621617	-0.116257	0.188872
O23	O	0.954950	0.217076	0.522205
O24	O	1.288284	0.550409	0.855538
O25	O	0.749528	-0.244324	0.188851
O26	O	1.082861	0.089010	0.522184
O27	O	1.416194	0.422343	0.855517
O28	O	0.676805	-0.116278	0.244060
O29	O	1.010139	0.217055	0.577394
O30	O	1.343472	0.550388	0.910727
O31	O	0.621551	-0.189090	0.116021
O32	O	0.954885	0.144243	0.449355
O33	O	1.288218	0.477576	0.782688
O34	O	0.548728	-0.189058	0.188844
O35	O	0.882062	0.144276	0.522177
O36	O	1.215395	0.477609	0.855511
O37	O	0.621528	-0.244266	0.316850
O38	O	0.954861	0.089067	0.650183
O39	O	1.288195	0.422401	0.983516
O40	O	0.548690	-0.244238	0.244011
O41	O	0.882023	0.089095	0.577345
O42	O	1.215357	0.422428	0.910678
O43	O	0.676755	-0.189106	0.316871
O44	O	1.010088	0.144227	0.650204
O45	O	1.343421	0.477560	0.983538
O46	O	0.676639	-0.317124	0.188823
O47	O	1.009972	0.016209	0.522156
O48	O	1.343306	0.349543	0.855489
O49	O	0.621462	-0.317099	0.243999
O50	O	0.954795	0.016234	0.577333
O51	O	1.288129	0.349568	0.910666
C52	C	0.532408	-0.216641	0.216426
C53	C	0.865742	0.116692	0.549759
C54	C	1.199075	0.450025	0.883093
C55	C	0.482474	-0.216632	0.216431
C56	C	0.815807	0.116702	0.549765
C57	C	1.149141	0.450035	0.883098
C58	C	0.125909	-0.188015	0.245237
C59	C	0.459242	0.145318	0.578570
C60	C	0.792575	0.478652	0.911903
C61	C	0.313582	-0.187979	0.245226
C62	C	0.646915	0.145355	0.578559
C63	C	0.980248	0.478688	0.911893
O64	O	0.337865	-0.163591	0.269715
O65	O	0.671198	0.169743	0.603049
O66	O	1.004531	0.503076	0.936382
N67	N	0.337029	-0.216661	0.216442
N68	N	0.670362	0.116672	0.549775
N69	N	1.003695	0.450006	0.883109
C70	C	0.313555	-0.245357	0.187660
C71	C	0.646888	0.087977	0.520994
C72	C	0.980221	0.421310	0.854327
O73	O	0.337804	-0.269755	0.163181
O74	O	0.671138	0.063578	0.496514
O75	O	1.004471	0.396912	0.829847
C76	C	0.125883	-0.245395	0.187673
C77	C	0.459216	0.087939	0.521007
C78	C	0.792549	0.421272	0.854340
C79	C	0.102438	-0.216707	0.216456
C80	C	0.435771	0.116626	0.549790
C81	C	0.769104	0.449959	0.883123
C82	C	0.102464	-0.159330	0.274017
C83	C	0.435797	0.174003	0.607351
C84	C	0.769130	0.507336	0.940684
C85	C	0.055548	-0.159338	0.274018
C86	C	0.388882	0.173995	0.607351
C87	C	0.722215	0.507329	0.940685
C88	C	0.032078	-0.188030	0.245238
C89	C	0.365411	0.145303	0.578571
C90	C	0.698744	0.478637	0.911904
C91	C	0.055522	-0.216715	0.216457
C92	C	0.388856	0.116619	0.549790
C93	C	0.722189	0.449952	0.883123
C94	C	0.102409	-0.274092	0.158894
C95	C	0.435743	0.059241	0.492228
C96	C	0.769076	0.392575	0.825561
C97	C	0.055488	-0.274100	0.158901
C98	C	0.388822	0.059234	0.492234
C99	C	0.722155	0.392567	0.825568
C100	C	0.032044	-0.245412	0.187684
C101	C	0.365377	0.087921	0.521017
C102	C	0.698710	0.421254	0.854350
C103	C	-0.014864	-0.245415	0.187677
C104	C	0.318470	0.087919	0.521010
C105	C	0.651803	0.421252	0.854344
N106	N	-0.038311	-0.216732	0.216461
N107	N	0.295022	0.116601	0.549795
N108	N	0.628356	0.449934	0.883128
C109	C	-0.014840	-0.188040	0.245242
C110	C	0.318493	0.145293	0.578575
C111	C	0.651826	0.478627	0.911908
C112	C	0.412085	-0.245334	0.187655
C113	C	0.745419	0.087999	0.520988
C114	C	1.078752	0.421333	0.854322
C115	C	0.459003	-0.245324	0.187651
C116	C	0.792337	0.088009	0.520984
C117	C	1.125670	0.421343	0.854318
C118	C	0.459027	-0.187947	0.245218
C119	C	0.792360	0.145387	0.578551
C120	C	1.125693	0.478720	0.911884
C121	C	0.412108	-0.187955	0.245219
C122	C	0.745441	0.145379	0.578552
C123	C	1.078775	0.478712	0.911886
C124	C	0.388638	-0.216652	0.216439
C125	C	0.721972	0.116682	0.549772
C126	C	1.055305	0.450015	0.883106
C127	C	-0.113366	-0.188058	0.245240
C128	C	0.219967	0.145275	0.578574
C129	C	0.553301	0.478609	0.911907
C130	C	-0.160286	-0.188067	0.245237
C131	C	0.173048	0.145267	0.578570
C132	C	0.506381	0.478600	0.911904
C133	C	-0.160305	-0.245445	0.187672
C134	C	0.173028	0.087888	0.521006
C135	C	0.506361	0.421221	0.854339
C136	C	-0.113390	-0.245435	0.187674
C137	C	0.219944	0.087898	0.521007
C138	C	0.553277	0.421231	0.854340
C139	C	-0.089921	-0.216740	0.216461
C140	C	0.243412	0.116593	0.549795
C141	C	0.576745	0.449927	0.883128
O142	O	-0.039176	-0.269794	0.163204
O143	O	0.294157	0.063540	0.496538
O144	O	0.627491	0.396873	0.829871
O145	O	-0.039098	-0.163652	0.269725
O146	O	0.294236	0.169681	0.603058
O147	O	0.627569	0.503014	0.936391
C148	C	0.172824	-0.188007	0.245236
C149	C	0.506157	0.145326	0.578569
C150	C	0.839491	0.478659	0.911903
C151	C	0.196269	-0.216692	0.216455
C152	C	0.529602	0.116641	0.549788
C153	C	0.862935	0.449975	0.883122
C154	C	0.172798	-0.245384	0.187675
C155	C	0.506131	0.087949	0.521008
C156	C	0.839465	0.421282	0.854341
C157	C	0.243187	-0.216682	0.216451
C158	C	0.576520	0.116651	0.549784
C159	C	0.909853	0.449985	0.883118
C160	C	0.266657	-0.187990	0.245231
C161	C	0.599991	0.145344	0.578565
C162	C	0.933324	0.478677	0.911898
C163	C	0.243210	-0.159308	0.274016
C164	C	0.576543	0.174026	0.607349
C165	C	0.909877	0.507359	0.940682
C166	C	0.196295	-0.159315	0.274016
C167	C	0.529628	0.174018	0.607350
C168	C	0.862961	0.507352	0.940683
C169	C	0.196245	-0.274067	0.158891
C170	C	0.529578	0.059267	0.492224
C171	C	0.862912	0.392600	0.825557
C172	C	0.243161	-0.274056	0.158892
C173	C	0.576494	0.059277	0.492225
C174	C	0.909827	0.392610	0.825559
C175	C	0.266631	-0.245364	0.187672
C176	C	0.599965	0.087969	0.521006
C177	C	0.933298	0.421303	0.854339
C178	C	0.649050	-0.333412	0.216416
C179	C	0.982383	-0.000079	0.549750
C180	C	1.315716	0.333255	0.883083
C181	C	0.649056	-0.383347	0.216422
C182	C	0.982389	-0.050013	0.549755
C183	C	1.315723	0.283320	0.883088
C184	C	0.677914	-0.692990	0.187750
C185	C	1.011247	-0.359657	0.521083
C186	C	1.344580	-0.026324	0.854417
C187	C	0.677969	-0.880663	0.187767
C188	C	1.011302	-0.547330	0.521101
C189	C	1.344636	-0.213997	0.854434
O190	O	0.702440	-0.904928	0.163373
O191	O	1.035774	-0.571595	0.496706
O192	O	1.369107	-0.238262	0.830039
N193	N	0.649224	-0.904132	0.216472
N194	N	0.982557	-0.570798	0.549806
N195	N	1.315891	-0.237465	0.883139
C196	C	0.620465	-0.880679	0.245177
C197	C	0.953798	-0.547346	0.578510
C198	C	1.287132	-0.214012	0.911844
O199	O	0.596020	-0.904946	0.269596
O200	O	0.929353	-0.571613	0.602929
O201	O	1.262687	-0.238280	0.936263
C202	C	0.620412	-0.693007	0.245162
C203	C	0.953746	-0.359673	0.578495
C204	C	1.287079	-0.026340	0.911828
C205	C	0.649156	-0.669541	0.216452
C206	C	0.982489	-0.336207	0.549785
C207	C	1.315823	-0.002874	0.883118
C208	C	0.706655	-0.669524	0.159043
C209	C	1.039989	-0.336191	0.492376
C210	C	1.373322	-0.002858	0.825709
C211	C	0.706640	-0.622609	0.159037
C212	C	1.039973	-0.289276	0.492370
C213	C	1.373306	0.044058	0.825704
C214	C	0.677882	-0.599159	0.187738
C215	C	1.011215	-0.265826	0.521072
C216	C	1.344549	0.067507	0.854405
C217	C	0.649140	-0.622625	0.216446
C218	C	0.982473	-0.289292	0.549779
C219	C	1.315807	0.044041	0.883112
C220	C	0.591656	-0.669555	0.273868
C221	C	0.924989	-0.336221	0.607201
C222	C	1.258323	-0.002888	0.940535
C223	C	0.591646	-0.622634	0.273863
C224	C	0.924979	-0.289300	0.607196
C225	C	1.258313	0.044033	0.940529
C226	C	0.620390	-0.599168	0.245153
C227	C	0.953723	-0.265834	0.578486
C228	C	1.287056	0.067499	0.911819
C229	C	0.620367	-0.552260	0.245141
C230	C	0.953700	-0.218927	0.578475
C231	C	1.287033	0.114406	0.911808
N232	N	0.649112	-0.528792	0.216437
N233	N	0.982445	-0.195459	0.549770
N234	N	1.315778	0.137875	0.883103
C235	C	0.677869	-0.552242	0.187735
C236	C	1.011203	-0.218908	0.521068
C237	C	1.344536	0.114425	0.854402
C238	C	0.620494	-0.979209	0.245183
C239	C	0.953828	-0.645876	0.578516
C240	C	1.287161	-0.312543	0.911849
C241	C	0.620507	-1.026127	0.245186
C242	C	0.953840	-0.692794	0.578519
C243	C	1.287173	-0.359461	0.911853
C244	C	0.678012	-1.026109	0.187777
C245	C	1.011345	-0.692775	0.521110
C246	C	1.344678	-0.359442	0.854443
C247	C	0.677996	-0.979190	0.187772
C248	C	1.011330	-0.645857	0.521105
C249	C	1.344663	-0.312523	0.854438
C250	C	0.649239	-0.955741	0.216478
C251	C	0.982573	-0.622408	0.549811
C252	C	1.315906	-0.289074	0.883144
C253	C	0.677834	-0.453716	0.187725
C254	C	1.011167	-0.120382	0.521058
C255	C	1.344500	0.212951	0.854391
C256	C	0.677814	-0.406796	0.187720
C257	C	1.011147	-0.073463	0.521054
C258	C	1.344480	0.259871	0.854387
C259	C	0.620311	-0.406819	0.245131
C260	C	0.953644	-0.073486	0.578464
C261	C	1.286978	0.259848	0.911797
C262	C	0.620329	-0.453734	0.245134
C263	C	0.953662	-0.120401	0.578467
C264	C	1.286995	0.212932	0.911801
C265	C	0.649094	-0.477182	0.216429
C266	C	0.982427	-0.143848	0.549763
C267	C	1.315760	0.189485	0.883096
O268	O	0.595912	-0.527966	0.269527
O269	O	0.929245	-0.194633	0.602860
O270	O	1.262578	0.138700	0.936194
O271	O	0.702318	-0.527966	0.163327
O272	O	1.035651	-0.194633	0.496660
O273	O	1.368984	0.138701	0.829993
C274	C	0.677930	-0.739906	0.187756
C275	C	1.011263	-0.406572	0.521089
C276	C	1.344596	-0.073239	0.854423
C277	C	0.649188	-0.763372	0.216463
C278	C	0.982521	-0.430038	0.549796
C279	C	1.315854	-0.096705	0.883130
C280	C	0.620430	-0.739922	0.245165
C281	C	0.953763	-0.406589	0.578498
C282	C	1.287097	-0.073255	0.911831
C283	C	0.649200	-0.810289	0.216467
C284	C	0.982534	-0.476956	0.549800
C285	C	1.315867	-0.143623	0.883133
C286	C	0.677958	-0.833739	0.187765
C287	C	1.011291	-0.500406	0.521098
C288	C	1.344625	-0.167072	0.854432
C289	C	0.706703	-0.810271	0.159060
C290	C	1.040036	-0.476937	0.492393
C291	C	1.373370	-0.143604	0.825727
C292	C	0.706687	-0.763355	0.159054
C293	C	1.040021	-0.430022	0.492388
C294	C	1.373354	-0.096689	0.825721
C295	C	0.591685	-0.763390	0.273870
C296	C	0.925018	-0.430057	0.607203
C297	C	1.258352	-0.096724	0.940536
C298	C	0.591703	-0.810306	0.273873
C299	C	0.925036	-0.476973	0.607206
C300	C	1.258370	-0.143639	0.940539
C301	C	0.620461	-0.833755	0.245171
C302	C	0.953794	-0.500422	0.578504
C303	C	1.287127	-0.167089	0.911838
C304	C	0.766309	-0.216738	0.216451
C305	C	1.099642	0.116595	0.549785
C306	C	1.432976	0.449928	0.883118
C307	C	0.816244	-0.216759	0.216457
C308	C	1.149577	0.116574	0.549790
C309	C	1.482910	0.449908	0.883123
C310	C	0.649143	-0.216686	0.333617
C311	C	0.982476	0.116648	0.666950
C312	C	1.315810	0.449981	1.000284
C313	C	0.649148	-0.216684	0.383551
C314	C	0.982482	0.116649	0.716885
C315	C	1.315815	0.449983	1.050218
C316	C	0.649225	-0.099511	0.216471
C317	C	0.982558	0.233822	0.549804
C318	C	1.315891	0.567155	0.883137
C319	C	0.649264	-0.049577	0.216484
C320	C	0.982598	0.283757	0.549818
C321	C	1.315931	0.617090	0.883151
C322	C	0.649145	-0.216661	0.099716
C323	C	0.982478	0.116672	0.433049
C324	C	1.315811	0.450005	0.766383
C325	C	0.649227	-0.216536	0.049782
C326	C	0.982560	0.116797	0.383115
C327	C	1.315893	0.450130	0.716449
C328	C	0.677935	-0.187887	0.693209
C329	C	1.011268	0.145446	1.026542
C330	C	1.344602	0.478780	1.359876
C331	C	0.677957	-0.187849	0.880882
C332	C	1.011291	0.145485	1.214215
C333	C	1.344624	0.478818	1.547549
O334	O	0.702399	-0.163407	0.905159
O335	O	1.035733	0.169926	1.238492
O336	O	1.369066	0.503260	1.571825
N337	N	0.649208	-0.216564	0.904337
N338	N	0.982541	0.116770	1.237670
N339	N	1.315874	0.450103	1.571003
C340	C	0.620449	-0.245288	0.880870
C341	C	0.953782	0.088045	1.214203
C342	C	1.287115	0.421379	1.547537
O343	O	0.595993	-0.269708	0.905126
O344	O	0.929326	0.063626	1.238459
O345	O	1.262659	0.396959	1.571793
C346	C	0.620424	-0.245324	0.693198
C347	C	0.953758	0.088010	1.026531
C348	C	1.287091	0.421343	1.359864
C349	C	0.649179	-0.216610	0.669746
C350	C	0.982512	0.116723	1.003079
C351	C	1.315846	0.450057	1.336412
C352	C	0.706687	-0.159175	0.669757
C353	C	1.040020	0.174158	1.003090
C354	C	1.373354	0.507491	1.336423
C355	C	0.706683	-0.159187	0.622841
C356	C	1.040016	0.174146	0.956174
C357	C	1.373349	0.507480	1.289508
C358	C	0.677927	-0.187910	0.599378
C359	C	1.011260	0.145423	0.932711
C360	C	1.344593	0.478756	1.266045
C361	C	0.649175	-0.216622	0.622830
C362	C	0.982508	0.116712	0.956163
C363	C	1.315841	0.450045	1.289497
C364	C	0.591663	-0.274045	0.669732
C365	C	0.924997	0.059288	1.003065
C366	C	1.258330	0.392621	1.336399
C367	C	0.591659	-0.274051	0.622811
C368	C	0.924992	0.059282	0.956144
C369	C	1.258326	0.392616	1.289478
C370	C	0.620414	-0.245337	0.599359
C371	C	0.953747	0.087996	0.932692
C372	C	1.287080	0.421329	1.266026
C373	C	0.620415	-0.245356	0.552451
C374	C	0.953748	0.087977	0.885785
C375	C	1.287081	0.421310	1.219118
N376	N	0.649164	-0.216642	0.528997
N377	N	0.982497	0.116692	0.862330
N378	N	1.315831	0.450025	1.195663
C379	C	0.677920	-0.187918	0.552460
C380	C	1.011253	0.145415	0.885793
C381	C	1.344587	0.478748	1.219127
C382	C	0.620464	-0.245268	0.979401
C383	C	0.953797	0.088066	1.312734
C384	C	1.287131	0.421399	1.646067
C385	C	0.620471	-0.245260	1.026319
C386	C	0.953804	0.088074	1.359652
C387	C	1.287137	0.421407	1.692985
C388	C	0.677979	-0.187820	1.026327
C389	C	1.011312	0.145514	1.359661
C390	C	1.344645	0.478847	1.692994
C391	C	0.677974	-0.187830	0.979409
C392	C	1.011307	0.145503	1.312742
C393	C	1.344641	0.478836	1.646075
C394	C	0.649213	-0.216553	0.955946
C395	C	0.982547	0.116780	1.289279
C396	C	1.315880	0.450114	1.622613
C397	C	0.677910	-0.187945	0.453934
C398	C	1.011243	0.145388	0.787268
C399	C	1.344576	0.478721	1.120601
C400	C	0.677904	-0.187961	0.407015
C401	C	1.011238	0.145373	0.740348
C402	C	1.344571	0.478706	1.073681
C403	C	0.620395	-0.245399	0.407010
C404	C	0.953728	0.087935	0.740343
C405	C	1.287061	0.421268	1.073677
C406	C	0.620401	-0.245385	0.453926
C407	C	0.953735	0.087948	0.787259
C408	C	1.287068	0.421281	1.120592
C409	C	0.649160	-0.216655	0.477386
C410	C	0.982494	0.116679	0.810720
C411	C	1.315827	0.450012	1.144053
O412	O	0.595982	-0.269782	0.528146
O413	O	0.929315	0.063552	0.861479
O414	O	1.262648	0.396885	1.194812
O415	O	0.702365	-0.163495	0.528196
O416	O	1.035699	0.169838	0.861529
O417	O	1.369032	0.503171	1.194863
C418	C	0.677939	-0.187875	0.740124
C419	C	1.011272	0.145458	1.073458
C420	C	1.344606	0.478791	1.406791
C421	C	0.649187	-0.216587	0.763577
C422	C	0.982521	0.116746	1.096910
C423	C	1.315854	0.450080	1.430243
C424	C	0.620431	-0.245310	0.740113
C425	C	0.953765	0.088023	1.073447
C426	C	1.287098	0.421357	1.406780
C427	C	0.649194	-0.216579	0.810494
C428	C	0.982527	0.116755	1.143828
C429	C	1.315860	0.450088	1.477161
C430	C	0.677950	-0.187856	0.833958
C431	C	1.011283	0.145478	1.167291
C432	C	1.344616	0.478811	1.500624
C433	C	0.706699	-0.159141	0.810503
C434	C	1.040033	0.174193	1.143836
C435	C	1.373366	0.507526	1.477170
C436	C	0.706695	-0.159152	0.763588
C437	C	1.040028	0.174181	1.096921
C438	C	1.373362	0.507514	1.430254
C439	C	0.591682	-0.274025	0.763568
C440	C	0.925015	0.059308	1.096901
C441	C	1.258348	0.392642	1.430235
C442	C	0.591689	-0.274011	0.810483
C443	C	0.925022	0.059322	1.143817
C444	C	1.258355	0.392655	1.477150
C445	C	0.620445	-0.245288	0.833947
C446	C	0.953778	0.088045	1.167280
C447	C	1.287111	0.421378	1.500613
H448	H	0.701220	-0.387692	0.164340
H449	H	1.034554	-0.054358	0.497673
H450	H	1.367887	0.278975	0.831006
H451	H	0.392980	-0.268703	0.164217
H452	H	0.726314	0.064630	0.497551
H453	H	1.059647	0.397963	0.830884
H454	H	-0.094264	-0.164691	0.268682
H455	H	0.239070	0.168642	0.602015
H456	H	0.572403	0.501975	0.935348
H457	H	0.036464	-0.135980	0.297458
H458	H	0.369797	0.197354	0.630791
H459	H	0.703130	0.530687	0.964125
O460	O	0.563785	-0.301976	0.599969
O461	O	0.897119	0.031357	0.933302
O462	O	1.230452	0.364690	1.266635
C463	C	0.589339	-0.331017	0.572840
C464	C	0.922672	0.002316	0.906173
C465	C	1.256006	0.335650	1.239507
H466	H	0.623397	-0.315188	0.565818
H467	H	0.956730	0.018145	0.899151
H468	H	1.290064	0.351478	1.232484
H469	H	0.571033	-0.337038	0.539844
H470	H	0.904367	-0.003705	0.873177
H471	H	1.237700	0.329629	1.206511
H472	H	0.594249	-0.364308	0.590920
H473	H	0.927583	-0.030974	0.924254
H474	H	1.260916	0.302359	1.257587
O475	O	0.032641	-0.301914	0.130921
O476	O	0.365975	0.031420	0.464254
O477	O	0.699308	0.364753	0.797587
C478	C	0.005509	-0.276301	0.101940
C479	C	0.338843	0.057032	0.435273
C480	C	0.672176	0.390366	0.768607
H481	H	-0.001511	-0.242279	0.117843
H482	H	0.331822	0.091054	0.451177
H483	H	0.665155	0.424387	0.784510
H484	H	-0.027487	-0.294599	0.095887
H485	H	0.305846	0.038734	0.429220
H486	H	0.639179	0.372068	0.762554
H487	H	0.023586	-0.271314	0.068657
H488	H	0.356919	0.062020	0.401990
H489	H	0.690252	0.395353	0.735323
O490	O	0.563686	-0.301950	0.692437
O491	O	0.897019	0.031383	1.025770
O492	O	1.230352	0.364717	1.359103
C493	C	0.538313	-0.327305	0.661657
C494	C	0.871646	0.006029	0.994991
C495	C	1.204980	0.339362	1.328324
H496	H	0.536778	-0.308906	0.628216
H497	H	0.870111	0.024428	0.961549
H498	H	1.203445	0.357761	1.294883
H499	H	0.502911	-0.332075	0.675202
H500	H	0.836245	0.001258	1.008535
H501	H	1.169578	0.334592	1.341869
H502	H	0.554732	-0.361434	0.656665
H503	H	0.888065	-0.028101	0.989999
H504	H	1.221399	0.305232	1.323332
O505	O	0.592431	-0.273294	0.476640
O506	O	0.925764	0.060039	0.809974
O507	O	1.259098	0.393372	1.143307
C508	C	0.567060	-0.298659	0.445867
C509	C	0.900394	0.034675	0.779201
C510	C	1.233727	0.368008	1.112534
H511	H	0.565519	-0.280266	0.412423
H512	H	0.898852	0.053067	0.745756
H513	H	1.232186	0.386401	1.079090
H514	H	0.531660	-0.303433	0.459416
H515	H	0.864994	0.029900	0.792749
H516	H	1.198327	0.363234	1.126083
H517	H	0.583485	-0.332787	0.440880
H518	H	0.916818	0.000547	0.774213
H519	H	1.250151	0.333880	1.107546
H520	H	0.701388	-0.164449	0.960317
H521	H	1.034721	0.168885	1.293650
H522	H	1.368055	0.502218	1.626984
O523	O	0.592527	-0.273320	0.384159
O524	O	0.925861	0.060013	0.717493
O525	O	1.259194	0.393346	1.050826
C526	C	0.618084	-0.302356	0.357028
C527	C	0.951417	0.030977	0.690362
C528	C	1.284751	0.364311	1.023695
H529	H	0.652144	-0.286527	0.350016
H530	H	0.985477	0.046806	0.683349
H531	H	1.318811	0.380140	1.016682
H532	H	0.599784	-0.308368	0.324028
H533	H	0.933117	0.024965	0.657361
H534	H	1.266450	0.358298	0.990694
H535	H	0.622990	-0.335651	0.375101
H536	H	0.956323	-0.002318	0.708435
H537	H	1.289656	0.331016	1.041768
O538	O	0.481761	-0.160034	0.273192
O539	O	0.815094	0.173299	0.606525
O540	O	1.148428	0.506632	0.939859
C541	C	0.451012	-0.134728	0.298612
C542	C	0.784345	0.198606	0.631946
C543	C	1.117678	0.531939	0.965279
H544	H	0.417561	-0.133144	0.280219
H545	H	0.750894	0.200189	0.613553
H546	H	1.084227	0.533523	0.946886
H547	H	0.464581	-0.099338	0.303472
H548	H	0.797914	0.233995	0.636805
H549	H	1.131247	0.567328	0.970139
H550	H	0.446029	-0.151236	0.332701
H551	H	0.779363	0.182097	0.666034
H552	H	1.112696	0.515431	0.999367
O553	O	0.734668	-0.131319	0.740786
O554	O	1.068001	0.202015	1.074120
O555	O	1.401334	0.535348	1.407453
C556	C	0.763657	-0.156904	0.713634
C557	C	1.096991	0.176430	1.046968
C558	C	1.430324	0.509763	1.380301
H559	H	0.766414	-0.192286	0.727766
H560	H	1.099747	0.141047	1.061099
H561	H	1.433080	0.474381	1.394432
H562	H	0.798240	-0.140662	0.713108
H563	H	1.131573	0.192671	1.046441
H564	H	1.464907	0.526005	1.379774
H565	H	0.749760	-0.158451	0.678075
H566	H	1.083094	0.174882	1.011409
H567	H	1.416427	0.508216	1.344742
H568	H	0.597076	-0.960121	0.268559
H569	H	0.930409	-0.626787	0.601892
H570	H	1.263742	-0.293454	0.935226
O571	O	0.173544	-0.131498	0.302043
O572	O	0.506878	0.201835	0.635376
O573	O	0.840211	0.535168	0.968710
C574	C	0.185033	-0.141376	0.346798
C575	C	0.518366	0.191957	0.680131
C576	C	0.851700	0.525291	1.013464
H577	H	0.197920	-0.177268	0.348998
H578	H	0.531253	0.156065	0.682331
H579	H	0.864587	0.489398	1.015665
H580	H	0.154188	-0.137542	0.369006
H581	H	0.487522	0.195792	0.702339
H582	H	0.820855	0.529125	1.035673
H583	H	0.212279	-0.117306	0.358579
H584	H	0.545613	0.216027	0.691913
H585	H	0.878946	0.549361	1.025246
O586	O	-0.183108	-0.160262	0.273222
O587	O	0.150225	0.173071	0.606555
O588	O	0.483558	0.506404	0.939889
C589	C	-0.210238	-0.185887	0.302201
C590	C	0.123096	0.147446	0.635534
C591	C	0.456429	0.480779	0.968868
H592	H	-0.217280	-0.219910	0.286295
H593	H	0.116053	0.113423	0.619628
H594	H	0.449386	0.446757	0.952962
H595	H	-0.243223	-0.167601	0.308258
H596	H	0.090110	0.165732	0.641591
H597	H	0.423443	0.499065	0.974925
H598	H	-0.192147	-0.190872	0.335483
H599	H	0.141186	0.142461	0.668817
H600	H	0.474520	0.475795	1.002150
H601	H	0.730097	-0.135805	0.603751
H602	H	1.063430	0.197529	0.937084
H603	H	1.396763	0.530862	1.270417
H604	H	0.121569	-0.135965	0.297456
H605	H	0.454902	0.197368	0.630789
H606	H	0.788235	0.530701	0.964123
O607	O	0.266035	-0.131501	0.302022
O608	O	0.599368	0.201833	0.635355
O609	O	0.932701	0.535166	0.968688
C610	C	0.293183	-0.157122	0.330979
C611	C	0.626517	0.176211	0.664312
C612	C	0.959850	0.509545	0.997646
H613	H	0.279032	-0.192510	0.333690
H614	H	0.612366	0.140824	0.667024
H615	H	0.945699	0.474157	1.000357
H616	H	0.293734	-0.140927	0.365583
H617	H	0.627067	0.192406	0.698916
H618	H	0.960401	0.525739	1.032249
H619	H	0.328736	-0.158647	0.317081
H620	H	0.662069	0.174686	0.650414
H621	H	0.995403	0.508020	0.983747
O622	O	0.734654	-0.740633	0.131153
O623	O	1.067987	-0.407300	0.464486
O624	O	1.401320	-0.073967	0.797820
C625	C	0.760028	-0.771399	0.105817
C626	C	1.093361	-0.438066	0.439151
C627	C	1.426694	-0.104733	0.772484
H628	H	0.761575	-0.804833	0.124227
H629	H	1.094909	-0.471500	0.457560
H630	H	1.428242	-0.138167	0.790894
H631	H	0.795425	-0.757826	0.101055
H632	H	1.128758	-0.424493	0.434389
H633	H	1.462092	-0.091160	0.767722
H634	H	0.743602	-0.776416	0.071683
H635	H	1.076935	-0.443083	0.405016
H636	H	1.410268	-0.109749	0.738350
H637	H	0.597044	-0.268660	0.960302
H638	H	0.930377	0.064673	1.293635
H639	H	1.263711	0.398007	1.626969
O640	O	0.734568	-0.131189	0.833319
O641	O	1.067901	0.202144	1.166653
O642	O	1.401235	0.535477	1.499986
C643	C	0.709011	-0.102168	0.860466
C644	C	1.042344	0.231165	1.193799
C645	C	1.375677	0.564498	1.527132
H646	H	0.673630	-0.099384	0.846318
H647	H	1.006963	0.233950	1.179651
H648	H	1.340297	0.567283	1.512985
H649	H	0.725284	-0.067600	0.861008
H650	H	1.058617	0.265733	1.194341
H651	H	1.391950	0.599067	1.527674
H652	H	0.707452	-0.116053	0.896021
H653	H	1.040786	0.217280	1.229354
H654	H	1.374119	0.550614	1.562688
O655	O	0.563712	-0.301921	0.833193
O656	O	0.897046	0.031413	1.166526
O657	O	1.230379	0.364746	1.499859
C658	C	0.538340	-0.327280	0.802417
C659	C	0.871673	0.006053	1.135750
C660	C	1.205007	0.339387	1.469083
H661	H	0.536803	-0.308885	0.768973
H662	H	0.870136	0.024449	1.102307
H663	H	1.203470	0.357782	1.435640
H664	H	0.502939	-0.332051	0.815963
H665	H	0.836272	0.001282	1.149296
H666	H	1.169606	0.334616	1.482630
H667	H	0.554761	-0.361409	0.797427
H668	H	0.888094	-0.028076	1.130761
H669	H	1.221428	0.305257	1.464094
O670	O	0.705867	-0.159928	1.049193
O671	O	1.039200	0.173406	1.382527
O672	O	1.372533	0.506739	1.715860
C673	C	0.699709	-0.166088	1.095632
C674	C	1.033043	0.167245	1.428965
C675	C	1.366376	0.500579	1.762299
H676	H	0.665031	-0.180795	1.102029
H677	H	0.998364	0.152538	1.435362
H678	H	1.331697	0.485872	1.768695
H679	H	0.702774	-0.132435	1.113470
H680	H	1.036108	0.200898	1.446803
H681	H	1.369441	0.534232	1.780136
H682	H	0.726343	-0.190014	1.108949
H683	H	1.059677	0.143319	1.442282
H684	H	1.393010	0.476652	1.775616
H685	H	0.568265	-0.297416	0.744469
H686	H	0.901599	0.035918	1.077802
H687	H	1.234932	0.369251	1.411136
H688	H	0.568229	-0.603544	0.297240
H689	H	0.901562	-0.270211	0.630573
H690	H	1.234896	0.063123	0.963907
O691	O	0.705962	-0.956466	0.159870
O692	O	1.039295	-0.623133	0.493203
O693	O	1.372628	-0.289800	0.826537
C694	C	0.731334	-0.987230	0.134531
C695	C	1.064668	-0.653897	0.467864
C696	C	1.398001	-0.320564	0.801197
H697	H	0.732883	-1.020666	0.152938
H698	H	1.066217	-0.687333	0.486271
H699	H	1.399550	-0.353999	0.819604
H700	H	0.766732	-0.973657	0.129768
H701	H	1.100065	-0.640324	0.463101
H702	H	1.433398	-0.306990	0.796434
H703	H	0.714907	-0.992245	0.100397
H704	H	1.048240	-0.658911	0.433730
H705	H	1.381573	-0.325578	0.767064
O706	O	0.481754	-0.273252	0.159736
O707	O	0.815088	0.060081	0.493069
O708	O	1.148421	0.393415	0.826403
C709	C	0.470272	-0.318042	0.169470
C710	C	0.803606	0.015291	0.502803
C711	C	1.136939	0.348624	0.836136
H712	H	0.457387	-0.320364	0.205358
H713	H	0.790720	0.012970	0.538691
H714	H	1.124053	0.346303	0.872024
H715	H	0.501120	-0.340228	0.165556
H716	H	0.834453	-0.006895	0.498890
H717	H	1.167786	0.326438	0.832223
H718	H	0.443026	-0.329753	0.145367
H719	H	0.776360	0.003580	0.478701
H720	H	1.109693	0.336913	0.812034
O721	O	0.592500	-0.273170	1.049028
O722	O	0.925833	0.060163	1.382361
O723	O	1.259166	0.393497	1.715695
C724	C	0.567127	-0.298528	1.018252
C725	C	0.900460	0.034805	1.351585
C726	C	1.233794	0.368138	1.684918
H727	H	0.565585	-0.280130	0.984810
H728	H	0.898919	0.053203	1.318144
H729	H	1.232252	0.386536	1.651477
H730	H	0.531727	-0.303304	1.031801
H731	H	0.865061	0.030029	1.365134
H732	H	1.198394	0.363363	1.698467
H733	H	0.583551	-0.332656	1.013258
H734	H	0.916884	0.000677	1.346591
H735	H	1.250217	0.334011	1.679925
O736	O	0.592567	-1.048850	0.273114
O737	O	0.925901	-0.715517	0.606447
O738	O	1.259234	-0.382183	0.939780
C739	C	0.567177	-1.018086	0.298436
C740	C	0.900511	-0.684753	0.631769
C741	C	1.233844	-0.351419	0.965103
H742	H	0.585571	-0.984630	0.300002
H743	H	0.918904	-0.651296	0.633336
H744	H	1.252237	-0.317963	0.966669
H745	H	0.562363	-1.031628	0.333830
H746	H	0.895697	-0.698294	0.667164
H747	H	1.229030	-0.364961	1.000497
H748	H	0.533068	-1.013124	0.281953
H749	H	0.866401	-0.679791	0.615286
H750	H	1.199734	-0.346457	0.948620
O751	O	-0.090682	-0.273343	0.159700
O752	O	0.242651	0.059990	0.493033
O753	O	0.575984	0.393324	0.826367
C754	C	-0.121462	-0.298660	0.134289
C755	C	0.211872	0.034674	0.467623
C756	C	0.545205	0.368007	0.800956
H757	H	-0.154904	-0.300242	0.152686
H758	H	0.178429	0.033092	0.486019
H759	H	0.511763	0.366425	0.819352
H760	H	-0.107919	-0.334049	0.129438
H761	H	0.225415	-0.000716	0.462772
H762	H	0.558748	0.332618	0.796105
H763	H	-0.126451	-0.282162	0.100197
H764	H	0.206883	0.051172	0.433530
H765	H	0.540216	0.384505	0.766863
H766	H	0.121490	-0.297452	0.135456
H767	H	0.454823	0.035881	0.468789
H768	H	0.788157	0.369214	0.802123
O769	O	-0.183130	-0.273364	0.159782
O770	O	0.150203	0.059969	0.493115
O771	O	0.483537	0.393302	0.826448
C772	C	-0.210276	-0.302410	0.185315
C773	C	0.123057	0.030923	0.518648
C774	C	0.456390	0.364256	0.851982
H775	H	-0.196124	-0.305232	0.220691
H776	H	0.137209	0.028101	0.554024
H777	H	0.470543	0.361434	0.887358
H778	H	-0.210825	-0.336962	0.169009
H779	H	0.122508	-0.003628	0.502342
H780	H	0.455841	0.329705	0.835676
H781	H	-0.245830	-0.288525	0.186892
H782	H	0.087504	0.044808	0.520226
H783	H	0.420837	0.378141	0.853559
H784	H	0.393023	-0.164594	0.268656
H785	H	0.726356	0.168739	0.601989
H786	H	1.059689	0.502072	0.935323
O787	O	0.173399	-0.301876	0.130910
O788	O	0.506733	0.031457	0.464243
O789	O	0.840066	0.364790	0.797576
C790	C	0.146268	-0.276261	0.101930
C791	C	0.479602	0.057073	0.435264
C792	C	0.812935	0.390406	0.768597
H793	H	0.139247	-0.242241	0.117837
H794	H	0.472580	0.091093	0.451170
H795	H	0.805913	0.424426	0.784504
H796	H	0.113272	-0.294558	0.095874
H797	H	0.446606	0.038775	0.429207
H798	H	0.779939	0.372108	0.762540
H799	H	0.164347	-0.271270	0.068648
H800	H	0.497680	0.062064	0.401982
H801	H	0.831013	0.395397	0.735315
H802	H	0.701258	-0.472801	0.164352
H803	H	1.034591	-0.139468	0.497685
H804	H	1.367924	0.193866	0.831019
O805	O	0.265863	-0.301967	0.130915
O806	O	0.599196	0.031366	0.464248
O807	O	0.932529	0.364699	0.797582
C808	C	0.235080	-0.327284	0.105508
C809	C	0.568413	0.006049	0.438841
C810	C	0.901747	0.339383	0.772175
H811	H	0.201640	-0.328866	0.123909
H812	H	0.534973	0.004468	0.457242
H813	H	0.868306	0.337801	0.790575
H814	H	0.248622	-0.362673	0.100656
H815	H	0.581955	-0.029340	0.433989
H816	H	0.915289	0.303993	0.767322
H817	H	0.230087	-0.310786	0.071416
H818	H	0.563420	0.022548	0.404750
H819	H	0.896753	0.355881	0.738083
O820	O	0.734609	-0.599887	0.131138
O821	O	1.067942	-0.266554	0.464472
O822	O	1.401275	0.066780	0.797805
C823	C	0.759984	-0.630653	0.105804
C824	C	1.093318	-0.297320	0.439137
C825	C	1.426651	0.036014	0.772471
H826	H	0.761528	-0.664088	0.124212
H827	H	1.094861	-0.330755	0.457546
H828	H	1.428195	0.002579	0.790879
H829	H	0.795383	-0.617081	0.101047
H830	H	1.128716	-0.283748	0.434380
H831	H	1.462050	0.049585	0.767714
H832	H	0.743562	-0.635667	0.071668
H833	H	1.076895	-0.302334	0.405001
H834	H	1.410229	0.030999	0.738334
O835	O	0.705960	-1.048961	0.159965
O836	O	1.039293	-0.715628	0.493298
O837	O	1.372627	-0.382294	0.826632
C838	C	0.699810	-1.095403	0.166134
C839	C	1.033143	-0.762069	0.499468
C840	C	1.366476	-0.428736	0.832801
H841	H	0.685033	-1.101792	0.200777
H842	H	1.018366	-0.768459	0.534110
H843	H	1.351699	-0.435126	0.867443
H844	H	0.733478	-1.113203	0.163171
H845	H	1.066811	-0.779869	0.496505
H846	H	1.400144	-0.446536	0.829838
H847	H	0.675946	-1.108767	0.139444
H848	H	1.009279	-0.775434	0.472777
H849	H	1.342613	-0.442100	0.806110
O850	O	0.734544	-0.692363	0.131163
O851	O	1.067877	-0.359030	0.464496
O852	O	1.401211	-0.025696	0.797830
C853	C	0.709019	-0.719540	0.102113
C854	C	1.042352	-0.386206	0.435447
C855	C	1.375685	-0.052873	0.768780
H856	H	0.674952	-0.726578	0.117904
H857	H	1.008285	-0.393245	0.451238
H858	H	1.341618	-0.059911	0.784571
H859	H	0.727338	-0.752525	0.096145
H860	H	1.060671	-0.419192	0.429478
H861	H	1.394004	-0.085858	0.762812
H862	H	0.704126	-0.701493	0.068801
H863	H	1.037459	-0.368160	0.402134
H864	H	1.370793	-0.034826	0.735467
O865	O	0.563721	-0.692273	0.301802
O866	O	0.897054	-0.358939	0.635135
O867	O	1.230388	-0.025606	0.968468
C868	C	0.538335	-0.661505	0.327123
C869	C	0.871668	-0.328172	0.660457
C870	C	1.205001	0.005161	0.993790
H871	H	0.556729	-0.628049	0.328684
H872	H	0.890062	-0.294716	0.662018
H873	H	1.223396	0.038617	0.995351
H874	H	0.533524	-0.675043	0.362520
H875	H	0.866857	-0.341710	0.695853
H876	H	1.200191	-0.008377	1.029186
H877	H	0.504223	-0.656544	0.310643
H878	H	0.837557	-0.323211	0.643977
H879	H	1.170890	0.010122	0.977310
O880	O	0.592392	-0.476463	0.273063
O881	O	0.925725	-0.143129	0.606396
O882	O	1.259059	0.190204	0.939729
C883	C	0.566997	-0.445702	0.298384
C884	C	0.900331	-0.112369	0.631718
C885	C	1.233664	0.220965	0.965051
H886	H	0.585384	-0.412242	0.299948
H887	H	0.918718	-0.078909	0.633281
H888	H	1.252051	0.254425	0.966614
H889	H	0.562188	-0.459242	0.333780
H890	H	0.895521	-0.125909	0.667113
H891	H	1.228854	0.207424	1.000446
H892	H	0.532886	-0.440748	0.281903
H893	H	0.866219	-0.107414	0.615236
H894	H	1.199553	0.225919	0.948569
O895	O	0.592444	-0.384013	0.273059
O896	O	0.925777	-0.050680	0.606392
O897	O	1.259110	0.282653	0.939726
C898	C	0.618001	-0.356838	0.302082
C899	C	0.951335	-0.023504	0.635415
C900	C	1.284668	0.309829	0.968748
H901	H	0.653384	-0.370958	0.304887
H902	H	0.986718	-0.037624	0.638221
H903	H	1.320051	0.295709	0.971554
H904	H	0.601733	-0.356295	0.336643
H905	H	0.935067	-0.022962	0.669976
H906	H	1.268400	0.310371	1.003309
H907	H	0.619552	-0.321286	0.288185
H908	H	0.952886	0.012047	0.621518
H909	H	1.286219	0.345381	0.954851
H910	H	0.730117	-0.829371	0.135689
H911	H	1.063451	-0.496038	0.469022
H912	H	1.396784	-0.162705	0.802356
H913	H	0.568292	-0.829408	0.297251
H914	H	0.901626	-0.496075	0.630585
H915	H	1.234959	-0.162741	0.963918
H916	H	0.568268	-0.744302	0.297242
H917	H	0.901601	-0.410968	0.630576
H918	H	1.234934	-0.077635	0.963909
O919	O	0.705789	-0.159999	0.384256
O920	O	1.039122	0.173334	0.717590
O921	O	1.372455	0.506667	1.050923
C922	C	0.696011	-0.115220	0.395737
C923	C	1.029344	0.218114	0.729070
C924	C	1.362677	0.551447	1.062403
H925	H	0.660122	-0.112938	0.408627
H926	H	0.993456	0.220396	0.741960
H927	H	1.326789	0.553729	1.075293
H928	H	0.699897	-0.093029	0.364887
H929	H	1.033230	0.240304	0.698221
H930	H	1.366564	0.573637	1.031554
H931	H	0.720105	-0.103482	0.422978
H932	H	1.053438	0.229851	0.756312
H933	H	1.386772	0.563184	1.089645
O934	O	0.705869	-0.160101	0.476769
O935	O	1.039202	0.173233	0.810103
O936	O	1.372535	0.506566	1.143436
C937	C	0.734877	-0.185683	0.503901
C938	C	1.068210	0.147650	0.837234
C939	C	1.401543	0.480983	1.170567
H940	H	0.719004	-0.219719	0.510931
H941	H	1.052338	0.113614	0.844264
H942	H	1.385671	0.446948	1.177597
H943	H	0.740920	-0.167376	0.536893
H944	H	1.074254	0.165958	0.870226
H945	H	1.407587	0.499291	1.203559
H946	H	0.768161	-0.190641	0.485818
H947	H	1.101494	0.142692	0.819152
H948	H	1.434828	0.476025	1.152485
O949	O	0.734666	-0.131258	0.692475
O950	O	1.068000	0.202075	1.025808
O951	O	1.401333	0.535408	1.359142
C952	C	0.760029	-0.105914	0.661705
C953	C	1.093363	0.227419	0.995039
C954	C	1.426696	0.560752	1.328372
H955	H	0.761557	-0.124326	0.628260
H956	H	1.094890	0.209007	0.961594
H957	H	1.428224	0.542340	1.294927
H958	H	0.795434	-0.101136	0.675257
H959	H	1.128768	0.232197	1.008590
H960	H	1.462101	0.565531	1.341924
H961	H	0.743607	-0.071787	0.656718
H962	H	1.076940	0.261546	0.990051
H963	H	1.410273	0.594879	1.323385
