data_functionalizedCrystal
_audit_creation_method	'MofGen! by Chris Wilmer'
_symmetry_space_group_name_H-M	'P1'
_symmetry_Int_Tables_number	1
_symmetry_cell_setting	triclinic
loop_
_symmetry_equiv_pos_as_xyz
  x,y,z
_cell_length_a	17.699077
_cell_length_b	15.944493
_cell_length_c	16.176319
_cell_angle_alpha	89.999072
_cell_angle_beta	89.993140
_cell_angle_gamma	83.377810
loop_
_atom_site_label
_atom_site_type_symbol
_atom_site_fract_x
_atom_site_fract_y
_atom_site_fract_z
O1	O	1.004243	0.106201	-0.068725
O2	O	1.504243	0.606201	0.431275
O3	O	0.783885	0.120026	-0.068728
O4	O	1.283885	0.620026	0.431272
O5	O	0.900104	-0.009177	-0.068733
O6	O	1.400104	0.490823	0.431267
O7	O	0.888024	0.235405	-0.068719
O8	O	1.388024	0.735405	0.431281
O9	O	0.900088	-0.009186	0.068760
O10	O	1.400088	0.490814	0.568760
O11	O	0.783869	0.120018	0.068766
O12	O	1.283869	0.620018	0.568766
O13	O	1.004227	0.106193	0.068768
O14	O	1.504227	0.606193	0.568768
Cu15	Cu	0.894047	0.113105	0.081321
Cu16	Cu	1.394047	0.613105	0.581321
Cu17	Cu	0.894066	0.113114	-0.081280
Cu18	Cu	1.394066	0.613114	0.418720
O19	O	0.888008	0.235396	0.068774
O20	O	1.388008	0.735396	0.568774
C21	C	0.755679	0.119528	0.000019
C22	C	1.255679	0.619528	0.500019
C23	C	0.671659	0.118044	0.000017
C24	C	1.171659	0.618044	0.500017
C25	C	0.632181	0.117341	0.074965
C26	C	1.132181	0.617341	0.574965
C27	C	0.553237	0.115933	0.074966
C28	C	1.053237	0.615933	0.574966
C29	C	0.513770	0.115235	0.000018
C30	C	1.013770	0.615235	0.500018
C31	C	0.553253	0.115936	-0.074936
C32	C	1.053253	0.615936	0.425064
C33	C	0.632197	0.117338	-0.074936
C34	C	1.132197	0.617338	0.425064
C35	C	0.234881	0.110284	-0.074938
C36	C	0.734881	0.610284	0.425062
C37	C	0.155931	0.108885	-0.074933
C38	C	0.655931	0.608885	0.425067
C39	C	0.155921	0.108879	0.074964
C40	C	0.655921	0.608879	0.574964
C41	C	0.234865	0.110280	0.074964
C42	C	0.734865	0.610280	0.574964
C43	C	0.274342	0.110977	0.000011
C44	C	0.774342	0.610977	0.500011
C45	C	0.359943	0.112501	0.000011
C46	C	0.859943	0.612501	0.500011
C47	C	0.428170	0.113717	0.000017
C48	C	0.928170	0.613717	0.500017
C49	C	0.899603	-0.040475	0.000010
C50	C	1.399603	0.459525	0.500010
C51	C	0.898122	-0.133721	-0.000000
C52	C	1.398122	0.366279	0.500000
C53	C	0.966532	-0.369626	0.000016
C54	C	1.466532	0.130374	0.500016
C55	C	0.929649	-0.420112	-0.067775
C56	C	1.429649	0.079888	0.432225
C57	C	0.895379	-0.304436	0.000010
C58	C	1.395379	0.195564	0.500010
C59	C	0.929617	-0.420096	0.067782
C60	C	1.429617	0.079904	0.567782
C61	C	0.892735	-0.469340	0.000023
C62	C	1.392735	0.030660	0.500023
C63	C	0.858516	-0.353693	-0.067838
C64	C	1.358516	0.146307	0.432162
C65	C	0.858494	-0.353674	0.067781
C66	C	1.358494	0.146326	0.567781
C67	C	0.821559	-0.404126	-0.000027
C68	C	1.321559	0.095874	0.499973
C69	C	0.896905	-0.209439	0.000001
C70	C	1.396905	0.290561	0.500001
C71	C	0.891204	-0.564334	0.000025
C72	C	1.391204	-0.064334	0.500025
C73	C	1.032433	0.106691	0.000020
C74	C	1.532433	0.606691	0.500020
C75	C	1.116453	0.108175	0.000017
C76	C	1.616453	0.608175	0.500017
C77	C	0.888509	0.266694	0.000029
C78	C	1.388509	0.766694	0.500029
C79	C	0.889990	0.359940	0.000034
C80	C	1.389990	0.859940	0.500034
N81	N	0.894039	0.113097	0.195686
N82	N	1.394039	0.613097	0.695686
N83	N	0.894079	0.113115	-0.195646
N84	N	1.394079	0.613115	0.304354
C85	C	0.945516	0.055909	0.238948
C86	C	1.445516	0.555909	0.738948
C87	C	0.945520	0.055908	0.325495
C88	C	1.445520	0.555908	0.825495
C89	C	0.894050	0.113100	0.368779
C90	C	1.394050	0.613100	0.868779
C91	C	0.842567	0.170291	0.325511
C92	C	1.342567	0.670291	0.825511
C93	C	0.842560	0.170287	0.238966
C94	C	1.342560	0.670287	0.738966
C95	C	0.842593	0.170307	0.674539
C96	C	1.342593	0.670307	1.174539
C97	C	0.842605	0.170308	0.761091
C98	C	1.342605	0.670308	1.261091
C99	C	0.945553	0.055928	0.761069
C100	C	1.445553	0.555928	1.261069
C101	C	0.945546	0.055924	0.674524
C102	C	1.445546	0.555924	1.174524
C103	C	0.894061	0.113112	0.631263
C104	C	1.394061	0.613112	1.131263
C105	C	0.894056	0.113111	0.537419
C106	C	1.394056	0.613111	1.037419
C107	C	0.894057	0.113106	0.462622
C108	C	1.394057	0.613106	0.962622
H109	H	0.266994	0.110853	0.135995
H110	H	0.766994	0.610853	0.635995
H111	H	0.664309	0.117916	0.135997
H112	H	1.164309	0.617916	0.635997
H113	H	0.521114	0.115362	-0.135961
H114	H	1.021114	0.615362	0.364039
Br115	Br	0.499662	0.114992	0.176686
Br116	Br	0.999662	0.614992	0.676686
Br117	Br	0.979740	-0.468459	-0.163300
Br118	Br	1.479740	0.031541	0.336700
H119	H	0.123770	0.108308	0.135995
H120	H	0.623770	0.608308	0.635995
H121	H	0.828491	-0.324806	-0.125211
H122	H	1.328491	0.175194	0.374789
H123	H	0.987461	0.009356	0.639285
H124	H	1.487461	0.509356	1.139285
H125	H	0.123800	0.108316	-0.135968
H126	H	0.623800	0.608316	0.364032
H127	H	0.800654	0.216855	0.360758
H128	H	1.300654	0.716855	0.860758
Br129	Br	0.288447	0.111228	-0.176661
Br130	Br	0.788447	0.611228	0.323339
H131	H	0.800673	0.216872	0.639324
H132	H	1.300673	0.716872	1.139324
Br133	Br	1.068682	-0.343792	-0.000090
Br134	Br	1.568682	0.156208	0.499910
H135	H	0.664338	0.117912	-0.135967
H136	H	1.164338	0.617912	0.364033
H137	H	0.987473	0.009360	0.796301
H138	H	1.487473	0.509360	1.296301
Br139	Br	0.719329	-0.429690	-0.000085
Br140	Br	1.219329	0.070310	0.499915
Br141	Br	0.808459	-0.305279	0.163311
Br142	Br	1.308459	0.194721	0.663311
Br143	Br	0.772748	0.247931	0.819834
Br144	Br	1.272748	0.747931	1.319834
Br145	Br	0.979711	-0.468429	0.163301
Br146	Br	1.479711	0.031571	0.663301
Br147	Br	1.015379	-0.021707	0.180215
Br148	Br	1.515379	0.478293	0.680215
Br149	Br	1.015381	-0.021708	0.384211
Br150	Br	1.515381	0.478292	0.884211
H151	H	0.800641	0.216855	0.203743
H152	H	1.300641	0.716855	0.703743
