data_functionalizedCrystal
_audit_creation_method	'MofGen! by Chris Wilmer'
_symmetry_space_group_name_H-M	'P1'
_symmetry_Int_Tables_number	1
_symmetry_cell_setting	triclinic
loop_
_symmetry_equiv_pos_as_xyz
  x,y,z
_cell_length_a	17.638686
_cell_length_b	17.637651
_cell_length_c	17.640968
_cell_angle_alpha	70.334811
_cell_angle_beta	65.692372
_cell_angle_gamma	87.823829
loop_
_atom_site_label
_atom_site_type_symbol
_atom_site_fract_x
_atom_site_fract_y
_atom_site_fract_z
Zn1	Zn	1.241779	-0.443355	-0.607827
Zn2	Zn	1.174702	-0.597782	-0.430853
Zn3	Zn	1.076116	-0.443318	-0.442231
Zn4	Zn	1.076098	-0.553240	-0.552110
O5	O	1.142174	-0.509424	-0.508255
O6	O	1.343478	-0.482497	-0.602907
O7	O	1.133559	-0.595918	-0.312313
O8	O	1.126171	-0.332692	-0.492278
O9	O	1.294196	-0.595954	-0.472884
O10	O	1.247883	-0.332719	-0.613941
O11	O	1.061128	-0.482433	-0.320673
O12	O	0.965517	-0.439242	-0.438251
O13	O	1.126141	-0.520038	-0.679551
O14	O	0.965504	-0.520001	-0.518979
O15	O	1.247866	-0.439306	-0.720486
O16	O	1.133542	-0.702504	-0.418858
O17	O	1.061099	-0.669779	-0.507945
C18	C	0.936834	-0.474785	-0.473804
C19	C	0.848989	-0.459982	-0.459081
C20	C	0.559946	-0.622017	-0.620275
C21	C	0.477399	-0.608104	-0.606421
C22	C	0.477458	-0.523826	-0.522569
C23	C	0.560006	-0.537736	-0.536413
C24	C	0.601244	-0.586831	-0.585267
C25	C	0.601303	-0.502549	-0.501405
C26	C	0.683845	-0.516454	-0.515251
C27	C	0.725090	-0.565545	-0.564106
C28	C	0.683786	-0.600736	-0.599114
C29	C	0.560066	-0.453450	-0.452556
C30	C	0.601363	-0.418263	-0.417548
C31	C	0.683905	-0.432172	-0.431389
C32	C	0.725149	-0.481264	-0.480243
C33	C	0.725209	-0.396982	-0.396380
C34	C	0.807751	-0.410887	-0.410227
C35	C	0.807691	-0.495168	-0.494089
C36	C	1.090066	-0.714828	-0.456143
C37	C	1.067852	-0.802708	-0.433890
C38	C	1.311501	-1.091435	-0.677666
C39	C	1.290600	-1.174010	-0.656737
C40	C	1.163903	-1.174116	-0.529955
C41	C	1.184796	-1.091540	-0.550871
C42	C	1.258595	-1.050206	-0.624728
C43	C	1.131890	-1.050312	-0.497933
C44	C	1.152779	-0.967742	-0.518850
C45	C	1.226574	-0.926401	-0.592706
C46	C	1.279484	-0.967636	-0.645645
C47	C	1.058088	-1.091646	-0.424080
C48	C	1.005183	-1.050418	-0.371142
C49	C	1.026074	-0.967848	-0.392055
C50	C	1.099869	-0.926507	-0.465910
C51	C	0.973164	-0.926613	-0.339115
C52	C	0.994053	-0.844043	-0.360033
C53	C	1.120758	-0.843937	-0.486828
C54	C	1.348315	-0.544198	-0.542841
C55	C	1.436160	-0.559017	-0.557580
C56	C	1.194484	-0.474707	-0.732016
C57	C	1.216776	-0.459913	-0.827369
C58	C	1.194511	-0.303218	-0.560594
C59	C	1.216814	-0.215346	-0.582897
C60	C	0.973239	-0.621433	-1.034414
C61	C	0.994205	-0.607525	-1.124019
C62	C	1.120947	-0.523466	-1.166630
C63	C	1.099990	-0.537364	-1.077028
C64	C	1.026136	-0.586349	-1.010926
C65	C	1.152886	-0.502280	-1.053540
C66	C	1.131932	-0.516181	-0.963945
C67	C	1.058083	-0.565166	-0.897838
C68	C	1.005182	-0.600250	-0.921331
C69	C	1.226742	-0.453300	-1.119643
C70	C	1.279638	-0.418216	-1.096155
C71	C	1.258682	-0.432112	-1.006559
C72	C	1.184833	-0.481097	-0.940452
C73	C	1.311583	-0.397028	-0.983066
C74	C	1.290630	-0.410928	-0.893471
C75	C	1.163880	-0.494997	-0.850857
C76	C	1.090127	-0.543955	-0.285388
C77	C	1.068045	-0.558552	-0.190117
H78	H	1.180857	-0.810283	-0.546965
C79	C	1.325486	-0.808066	-0.691710
C80	C	1.249540	-0.835638	-0.615704
H81	H	1.339660	-0.752032	-0.705910
H82	H	1.368315	-0.837610	-0.680750
H83	H	1.319982	-0.815845	-0.740020
H84	H	1.255046	-0.827864	-0.567392
H85	H	1.206701	-0.806084	-0.626660
C86	C	0.823111	-0.936077	-0.268298
C87	C	0.892043	-0.972054	-0.257939
H88	H	0.773030	-0.964134	-0.218185
H89	H	0.827983	-0.881011	-0.273169
H90	H	0.821565	-0.938700	-0.320561
H91	H	0.893592	-0.969426	-0.205680
H92	H	0.887169	-1.027134	-0.253058
C93	C	0.350955	-0.465084	-0.464111
C94	C	0.432126	-0.469861	-0.468871
H95	H	0.322970	-0.431771	-0.430955
H96	H	0.353831	-0.442370	-0.522413
H97	H	0.321011	-0.517872	-0.435722
H98	H	0.462072	-0.417073	-0.497266
H99	H	0.429253	-0.492572	-0.410558
H100	H	0.950971	-0.810474	-0.316926
C101	C	0.959054	-0.630854	-0.746295
C102	C	1.035046	-0.580449	-0.799352
H103	H	0.944836	-0.640293	-0.685494
H104	H	0.916273	-0.605432	-0.761483
H105	H	0.964523	-0.681029	-0.755917
H106	H	1.029575	-0.530273	-0.789735
H107	H	1.077837	-0.605870	-0.784158
C108	C	1.434651	-1.099612	-0.800910
C109	C	1.392620	-1.045990	-0.758856
H110	H	1.484723	-1.071552	-0.851035
H111	H	1.448042	-1.142700	-0.760486
H112	H	1.399694	-1.120940	-0.819742
H113	H	1.427574	-1.024667	-0.740018
H114	H	1.379231	-1.002888	-0.799288
H115	H	1.333702	-0.382358	-0.874348
C116	C	1.376256	-1.282846	-0.663113
C117	C	1.348764	-1.219322	-0.714940
H118	H	1.412158	-1.310817	-0.699050
H119	H	1.405936	-1.261524	-0.639010
H120	H	1.329314	-1.319285	-0.616140
H121	H	1.395705	-1.182879	-0.761910
H122	H	1.319084	-1.240643	-0.739058
C123	C	0.882009	-0.681987	-0.888193
C124	C	0.924013	-0.654117	-0.848661
H125	H	0.831910	-0.715252	-0.843328
H126	H	0.868669	-0.637027	-0.926791
H127	H	0.916960	-0.712596	-0.921260
H128	H	0.889065	-0.623503	-0.815601
H129	H	0.937351	-0.699085	-0.810048
H130	H	1.339584	-0.933982	-0.705782
H131	H	0.691623	-0.357002	-0.356611
C132	C	0.819158	-0.618178	-0.497214
C133	C	0.815821	-0.580837	-0.579327
H134	H	0.875171	-0.627622	-0.506614
H135	H	0.800517	-0.583902	-0.463120
H136	H	0.784058	-0.668342	-0.466229
H137	H	0.850916	-0.530670	-0.610310
H138	H	0.834472	-0.615114	-0.613435
H139	H	0.913086	-0.661299	-0.980591
C140	C	0.866807	-0.692018	-1.072893
C141	C	0.936053	-0.646090	-1.149836
H142	H	0.830907	-0.715823	-1.088834
H143	H	0.885395	-0.733487	-1.036050
H144	H	0.837148	-0.657888	-1.041620
H145	H	0.965715	-0.680222	-1.181105
H146	H	0.917464	-0.604616	-1.186693
H147	H	1.103814	-1.207782	-0.469822
H148	H	1.103726	-0.534864	-0.797034
H149	H	1.041077	-1.158878	-0.407058
C150	C	1.209346	-0.464826	-1.322895
C151	C	1.202123	-0.469620	-1.239294
H152	H	1.259459	-0.431578	-1.367752
H153	H	1.210872	-0.517613	-1.326034
H154	H	1.162610	-0.442024	-1.331602
H155	H	1.248856	-0.492429	-1.230584
H156	H	1.200605	-0.416824	-1.236153
C157	C	0.676934	-0.630912	-0.748389
C158	C	0.605285	-0.675989	-0.673971
H159	H	0.704927	-0.664233	-0.781532
H160	H	0.661140	-0.586001	-0.784591
H161	H	0.713334	-0.611943	-0.729511
H162	H	0.568883	-0.694953	-0.692849
H163	H	0.621078	-0.720915	-0.637763
H164	H	0.841379	-0.382228	-0.381728
C165	C	1.368038	-0.359577	-1.252420
C166	C	1.360815	-0.364370	-1.168818
H167	H	1.418151	-0.326329	-1.297277
H168	H	1.369564	-0.412363	-1.255558
H169	H	1.321302	-0.336774	-1.261126
H170	H	1.407548	-0.387179	-1.160109
H171	H	1.359297	-0.311574	-1.165678
C172	C	0.360355	-0.697014	-0.575618
C173	C	0.432008	-0.646787	-0.644909
H174	H	0.332335	-0.720888	-0.599384
H175	H	0.376150	-0.738432	-0.535938
H176	H	0.323981	-0.665781	-0.544547
H177	H	0.468385	-0.678021	-0.675976
H178	H	0.416215	-0.605364	-0.684604
C179	C	0.916904	-1.177041	-0.282772
C180	C	0.924068	-1.095859	-0.289956
H181	H	0.866830	-1.205093	-0.232645
H182	H	0.915336	-1.179660	-0.335019
H183	H	0.963684	-1.201429	-0.275764
H184	H	0.877290	-1.071469	-0.296970
H185	H	0.925629	-1.093235	-0.237696
C186	C	1.390515	-0.265375	-1.051090
C187	C	1.392764	-0.343189	-1.055729
H188	H	1.440637	-0.232141	-1.095946
H189	H	1.343793	-0.242575	-1.059814
H190	H	1.385604	-0.268639	-0.994366
H191	H	1.397669	-0.339926	-1.112451
H192	H	1.439499	-0.365994	-1.047012
H193	H	0.841267	-0.535151	-0.533866
H194	H	0.717362	-0.640719	-0.638891
H195	H	1.243801	-0.441986	-1.192595
H196	H	0.492857	-0.442125	-0.441289
H197	H	0.567777	-0.378287	-0.377773
