data_functionalizedCrystal
_audit_creation_method	'MofGen! by Chris Wilmer'
_symmetry_space_group_name_H-M	'P1'
_symmetry_Int_Tables_number	1
_symmetry_cell_setting	triclinic
loop_
_symmetry_equiv_pos_as_xyz
  x,y,z
_cell_length_a	15.297475
_cell_length_b	25.639239
_cell_length_c	15.299448
_cell_angle_alpha	80.298679
_cell_angle_beta	69.206248
_cell_angle_gamma	80.340538
loop_
_atom_site_label
_atom_site_type_symbol
_atom_site_fract_x
_atom_site_fract_y
_atom_site_fract_z
Zn1	Zn	1.512696	-0.282718	-0.771442
Zn2	Zn	1.485600	-0.383037	-0.615885
Zn3	Zn	1.330244	-0.282702	-0.589069
Zn4	Zn	1.357091	-0.357196	-0.744504
O5	O	1.421408	-0.326413	-0.680225
O6	O	1.639240	-0.306846	-0.773303
O7	O	1.442417	-0.380536	-0.482177
O8	O	1.354550	-0.209544	-0.613312
O9	O	1.619333	-0.380551	-0.659016
O10	O	1.488597	-0.209556	-0.747300
O11	O	1.328277	-0.306820	-0.462475
O12	O	1.203667	-0.281762	-0.587191
O13	O	1.400308	-0.336508	-0.878229
O14	O	1.223392	-0.336493	-0.701389
O15	O	1.514630	-0.281789	-0.898020
O16	O	1.468450	-0.452769	-0.632896
O17	O	1.374035	-0.433783	-0.727392
C18	C	1.179786	-0.306322	-0.638457
C19	C	1.076423	-0.297738	-0.620611
C20	C	0.826177	-0.387770	-0.807777
C21	C	0.923291	-0.395839	-0.824542
C22	C	0.961579	-0.371314	-0.773561
C23	C	0.902743	-0.338719	-0.705812
C24	C	0.805618	-0.330652	-0.689040
C25	C	0.941020	-0.314197	-0.654824
C26	C	0.882184	-0.281601	-0.587075
C27	C	0.785069	-0.273536	-0.570307
C28	C	0.746781	-0.298060	-0.621288
C29	C	1.038145	-0.322264	-0.671596
C30	C	1.017586	-0.265146	-0.552859
C31	C	0.920472	-0.257077	-0.536094
C32	C	1.421244	-0.462246	-0.680155
C33	C	1.421264	-0.520361	-0.680171
C34	C	1.470742	-0.890610	-0.631149
C35	C	1.470781	-0.945217	-0.631168
O36	O	1.512678	-0.981850	-0.589413
N37	N	1.421582	-0.962661	-0.680315
C38	C	1.372350	-0.925495	-0.729454
O39	O	1.330506	-0.945346	-0.771260
C40	C	1.372317	-0.870890	-0.729440
C41	C	1.421512	-0.853449	-0.680282
C42	C	1.519933	-0.873169	-0.581996
C43	C	1.519894	-0.818567	-0.581976
C44	C	1.470663	-0.781405	-0.631109
C45	C	1.421472	-0.798847	-0.680263
C46	C	1.323091	-0.833725	-0.778585
C47	C	1.323064	-0.779117	-0.778567
C48	C	1.372258	-0.761676	-0.729409
C49	C	1.372201	-0.707083	-0.729376
N50	N	1.421400	-0.689639	-0.680229
C51	C	1.470631	-0.726800	-0.631096
C52	C	1.372422	-1.040170	-0.729481
C53	C	1.372448	-1.094774	-0.729489
C54	C	1.470881	-1.114492	-0.631204
C55	C	1.470849	-1.059887	-0.631191
C56	C	1.421621	-1.022726	-0.680334
C57	C	1.470543	-0.612130	-0.631057
C58	C	1.470495	-0.557522	-0.631038
C59	C	1.372067	-0.537809	-0.729327
C60	C	1.372110	-0.592412	-0.729342
C61	C	1.421355	-0.629572	-0.680205
O62	O	1.330328	-0.670419	-0.771113
O63	O	1.512477	-0.706941	-0.589307
C64	C	1.663973	-0.346583	-0.722156
C65	C	1.767340	-0.355178	-0.740025
C66	C	1.463486	-0.306268	-0.922815
C67	C	1.481417	-0.297683	-1.026192
C68	C	1.421601	-0.190050	-0.680320
C69	C	1.421683	-0.131940	-0.680360
C70	C	1.549363	-0.265159	-1.085060
C71	C	1.566202	-0.257086	-1.182187
C72	C	1.515103	-0.281539	-1.220456
C73	C	1.447160	-0.314066	-1.161588
C74	C	1.430314	-0.322137	-1.064451
C75	C	1.396053	-0.338516	-1.199847
C76	C	1.328110	-0.371044	-1.140979
C77	C	1.311268	-0.379113	-1.043851
C78	C	1.362368	-0.354660	-1.005583
C79	C	1.412899	-0.330445	-1.296984
C80	C	1.293850	-0.387423	-1.276374
C81	C	1.277011	-0.395496	-1.179248
C82	C	1.379547	-0.346447	-0.438588
C83	C	1.361796	-0.354899	-0.335243
H84	H	1.510554	-0.543325	-0.591004
Br85	Br	1.586758	-0.923594	-0.515308
H86	H	1.528817	-0.274963	-1.299541
Br87	Br	1.537613	-1.036224	-0.564473
Br88	Br	1.658443	-0.212967	-1.262078
H89	H	1.348663	-0.361233	-0.926495
H90	H	0.794992	-0.407738	-0.849273
Br91	Br	1.093379	-0.382265	-0.796315
Br92	Br	1.256255	-0.728686	-0.845270
Br93	Br	0.614980	-0.287105	-0.598546
Br94	Br	1.618668	-0.231954	-1.033114
Br95	Br	1.586677	-0.794907	-0.515274
H96	H	0.971188	-0.422380	-0.879701
H97	H	1.048759	-0.245177	-0.511344
H98	H	0.737165	-0.247001	-0.515131
Br99	Br	1.537690	-1.164936	-0.564518
H100	H	1.510645	-0.642381	-0.591047
H101	H	1.468217	-0.303960	-1.344905
H102	H	1.255942	-0.405597	-0.995923
H103	H	0.872554	-0.230537	-0.480932
H104	H	1.331980	-0.507543	-0.769327
H105	H	1.332379	-1.108968	-0.769509
Br106	Br	1.305599	-0.989741	-0.796174
H107	H	1.252234	-0.407331	-1.307531
H108	H	1.283027	-0.847914	-0.818609
Br109	Br	1.305320	-0.616082	-0.796030
H110	H	1.086040	-0.348803	-0.726758
Br111	Br	1.184805	-0.439639	-1.099346
