data_functionalizedCrystal
_audit_creation_method	'MofGen! by Chris Wilmer'
_symmetry_space_group_name_H-M	'P1'
_symmetry_Int_Tables_number	1
_symmetry_cell_setting	triclinic
loop_
_symmetry_equiv_pos_as_xyz
  x,y,z
_cell_length_a	6.817900
_cell_length_b	9.514072
_cell_length_c	23.752930
_cell_angle_alpha	93.116994
_cell_angle_beta	100.066047
_cell_angle_gamma	118.843421
loop_
_atom_site_label
_atom_site_type_symbol
_atom_site_fract_x
_atom_site_fract_y
_atom_site_fract_z
V1	V	-4.074217	-0.224327	-0.178846
O2	O	-3.973756	0.008601	-0.174980
O3	O	-4.109151	-0.442707	-0.178066
O4	O	-4.008308	-0.221832	-0.256644
O5	O	-4.075297	-0.213803	-0.095858
V6	V	-4.549316	-0.196353	-0.168866
O7	O	-4.353955	-0.285690	-0.200737
O8	O	-4.719775	-0.134990	-0.146974
O9	O	-4.291175	0.022027	-0.169645
O10	O	-4.767173	-0.429281	-0.172731
O11	O	-4.665632	-0.206877	-0.251853
O12	O	-4.392018	-0.198848	-0.091067
C13	C	-3.974991	-0.495914	-0.175359
C14	C	-4.084724	-0.674449	-0.175240
C15	C	-3.846354	-0.214164	-0.275592
C16	C	-3.874301	-0.213569	-0.339196
C17	C	-4.232285	-0.217785	-0.736529
C18	C	-4.258558	-0.217205	-0.796290
O19	O	-4.429065	-0.223696	-0.829687
N20	N	-4.087143	-0.208874	-0.823249
C21	C	-3.889430	-0.201106	-0.790443
O22	O	-3.746040	-0.193965	-0.818862
C23	C	-3.863151	-0.201674	-0.730682
C24	C	-4.034591	-0.210022	-0.703727
C25	C	-4.403708	-0.226131	-0.709573
C26	C	-4.377437	-0.226713	-0.649816
C27	C	-4.179743	-0.218951	-0.617015
C28	C	-4.008320	-0.210605	-0.643970
C29	C	-3.665434	-0.193894	-0.697877
C30	C	-3.639168	-0.194462	-0.638112
C31	C	-3.810607	-0.202810	-0.611157
C32	C	-3.784355	-0.203425	-0.551412
N33	N	-3.955770	-0.211756	-0.524452
C34	C	-4.153464	-0.219519	-0.557254
C35	C	-3.944629	-0.199910	-0.915945
C36	C	-3.970913	-0.199354	-0.975706
C37	C	-4.340038	-0.215450	-0.981548
C38	C	-4.313759	-0.216018	-0.921787
C39	C	-4.116045	-0.208241	-0.888986
C40	C	-4.098281	-0.220743	-0.431759
C41	C	-4.071995	-0.221332	-0.371997
C42	C	-3.702868	-0.205227	-0.366159
C43	C	-3.729155	-0.204647	-0.425917
C44	C	-3.926874	-0.212400	-0.458715
O45	O	-3.613907	-0.196931	-0.517977
O46	O	-4.296811	-0.226637	-0.528826
C47	C	-4.088681	0.075225	-0.172351
C48	C	-3.958186	0.253758	-0.172473
C49	C	-4.217316	-0.206521	-0.072116
C50	C	-4.168605	-0.207108	-0.008512
H51	H	-4.211614	-0.228135	-0.350054
Br52	Br	-3.738258	-0.188064	-1.012283
Br53	Br	-3.637656	-0.621021	-0.168626
H54	H	-4.517039	-0.233504	-0.627874
Br55	Br	-4.405258	-0.799669	-0.179074
Br56	Br	-4.366608	-0.231262	-0.476262
Br57	Br	-4.672039	-0.236671	-0.754079
Br58	Br	-3.370817	-0.183891	-0.593598
Br59	Br	-4.546437	-0.227348	-0.885212
H60	H	-4.501015	-0.221770	-1.008266
H61	H	-3.783619	-0.193575	-0.889242
Br62	Br	-3.496506	-0.193346	-0.462502
Br63	Br	-3.434582	-0.194701	-0.321632
H64	H	-3.525824	-0.187097	-0.719813
