data_functionalizedCrystal
_audit_creation_method	'MofGen! by Chris Wilmer'
_symmetry_space_group_name_H-M	'P1'
_symmetry_Int_Tables_number	1
_symmetry_cell_setting	triclinic
loop_
_symmetry_equiv_pos_as_xyz
  x,y,z
_cell_length_a	16.956995
_cell_length_b	10.489741
_cell_length_c	15.455313
_cell_angle_alpha	92.692689
_cell_angle_beta	87.515363
_cell_angle_gamma	80.296823
loop_
_atom_site_label
_atom_site_type_symbol
_atom_site_fract_x
_atom_site_fract_y
_atom_site_fract_z
O1	O	1.061804	0.046882	-0.072190
O2	O	0.829903	0.091634	-0.072179
O3	O	0.951130	-0.116973	-0.072180
O4	O	0.940577	0.255489	-0.072190
O5	O	0.944198	-0.105090	0.072082
O6	O	0.822971	0.103517	0.072083
O7	O	1.054872	0.058765	0.072072
Cu8	Cu	0.938288	0.082226	0.085250
Cu9	Cu	0.946487	0.068173	-0.085357
O10	O	0.933645	0.267372	0.072072
C11	C	0.796742	0.099867	-0.000046
C12	C	0.708261	0.106679	-0.000042
C13	C	0.209255	0.157638	-0.000076
C14	C	0.292393	0.151227	-0.000075
C15	C	0.342790	0.030897	-0.000065
C16	C	0.310045	-0.083030	-0.000065
C17	C	0.226908	-0.076619	-0.000072
C18	C	0.592379	-0.000837	-0.000049
C19	C	0.675521	-0.007240	-0.000039
C20	C	0.657863	0.227018	-0.000051
C21	C	0.574725	0.233419	-0.000053
C22	C	0.541988	0.119492	-0.000057
N23	N	0.427771	0.024342	-0.000061
N24	N	0.457009	0.126048	-0.000067
C25	C	0.946867	-0.158468	-0.000049
C26	C	0.944482	-0.299811	-0.000051
C27	C	0.867349	-0.358685	-0.000053
C28	C	0.900368	-0.449326	0.071074
C29	C	0.907221	-0.461019	-0.071157
C30	C	0.977530	-0.388585	0.071135
C31	C	0.984376	-0.400272	-0.071160
C32	C	1.017450	-0.490891	-0.000016
C33	C	1.088033	0.050532	-0.000063
C34	C	1.176515	0.043719	-0.000073
C35	C	0.937908	0.308867	-0.000060
C36	C	0.940293	0.450209	-0.000064
N37	N	0.932528	0.092109	0.205245
N38	N	0.952254	0.058279	-0.205353
C39	C	0.984047	0.003514	0.250639
C40	C	0.979698	0.010998	0.341447
C41	C	0.923833	0.107085	0.386859
C42	C	0.872308	0.195684	0.341459
C43	C	0.876653	0.188193	0.250653
C44	C	0.905074	0.139387	0.658441
C45	C	0.900734	0.146874	0.749254
C46	C	1.008124	-0.037814	0.749235
C47	C	1.012468	-0.045292	0.658427
C48	C	0.960940	0.043303	0.613035
N49	N	0.919388	0.114741	0.479680
N50	N	0.965382	0.035641	0.520216
H51	H	0.319045	0.243991	-0.000085
N52	N	0.869889	-0.501200	-0.146585
N53	N	0.808151	-0.550959	-0.138678
H54	H	0.781780	-0.579335	-0.191944
H55	H	0.834700	0.260335	0.213694
N56	N	1.097079	-0.562444	0.000033
N57	N	1.140582	-0.544523	0.061157
H58	H	1.196820	-0.595057	0.061196
N59	N	0.157780	0.280553	-0.000102
N60	N	0.112351	0.305249	-0.060920
H61	H	0.075999	0.392061	-0.060942
N62	N	0.855802	-0.477134	0.146503
N63	N	0.847345	-0.591070	0.158881
H64	H	0.815866	-0.610708	0.212151
H65	H	0.855239	0.225125	0.786224
H66	H	1.029542	-0.074725	0.213670
N67	N	0.361534	-0.205932	-0.000046
N68	N	0.406963	-0.230621	0.060772
H69	H	0.443329	-0.317423	0.060789
N70	N	1.014810	-0.348593	0.146650
N71	N	1.022634	-0.232841	0.158858
H72	H	1.048960	-0.204590	0.212190
H73	H	1.021649	-0.061143	0.378406
H74	H	0.200254	-0.169384	-0.000072
N75	N	0.852433	0.229887	0.612095
N76	N	0.802558	0.315669	0.652656
H77	H	0.765376	0.379590	0.619922
N78	N	0.523260	0.356345	-0.000059
N79	N	0.552503	0.458052	-0.000060
H80	H	0.516156	0.544872	-0.000061
H81	H	1.057958	-0.123533	0.621454
H82	H	0.803927	-0.301410	0.000022
H83	H	0.684527	0.319772	-0.000048
H84	H	0.716553	-0.105232	-0.000036
H85	H	0.565735	-0.093605	-0.000050
N86	N	1.028906	-0.372465	-0.146609
N87	N	1.006170	-0.397449	-0.220410
H88	H	1.037614	-0.377808	-0.273704
N89	N	0.815229	0.293829	0.387833
N90	N	0.742048	0.298933	0.377712
H91	H	0.701734	0.368249	0.410462
N92	N	1.060749	-0.128296	0.795616
N93	N	1.056865	-0.121599	0.876692
H94	H	1.094032	-0.185507	0.909450
