data_functionalizedCrystal
_audit_creation_method	'MofGen! by Chris Wilmer'
_symmetry_space_group_name_H-M	'P1'
_symmetry_Int_Tables_number	1
_symmetry_cell_setting	triclinic
loop_
_symmetry_equiv_pos_as_xyz
  x,y,z
_cell_length_a	10.654556
_cell_length_b	7.681481
_cell_length_c	10.654550
_cell_angle_alpha	95.797626
_cell_angle_beta	84.486234
_cell_angle_gamma	84.218983
loop_
_atom_site_label
_atom_site_type_symbol
_atom_site_fract_x
_atom_site_fract_y
_atom_site_fract_z
O1	O	1.656071	0.146363	0.188219
O2	O	1.290592	0.146381	0.205018
O3	O	1.481735	0.146361	0.013878
O4	O	1.464927	0.146384	0.379358
O5	O	1.505261	-0.146500	-0.009702
O6	O	1.314118	-0.146479	0.181438
O7	O	1.679597	-0.146497	0.164639
Zn8	Zn	1.500592	-0.192986	0.169295
Zn9	Zn	1.469596	0.192870	0.200362
O10	O	1.488453	-0.146477	0.355778
C11	C	1.255557	-0.000047	0.191993
C12	C	1.116113	-0.000040	0.188298
C13	C	0.906745	0.159584	0.195948
C14	C	1.037766	0.159595	0.199413
C15	C	1.063434	-0.159697	0.173705
C16	C	0.932416	-0.159706	0.170231
N17	N	1.521756	-0.456323	0.148091
C18	C	1.714631	-0.000065	0.177664
C19	C	1.854074	-0.000061	0.181359
C20	C	1.492264	-0.000069	-0.044710
C21	C	1.488572	-0.000066	-0.184153
N22	N	1.448442	0.456206	0.221555
C23	C	1.601113	-0.000071	-0.263636
C24	C	1.597635	-0.000049	-0.394655
C25	C	1.369065	-0.000025	-0.366695
C26	C	1.372543	-0.000034	-0.235678
C27	C	1.477924	-0.000044	0.414366
C28	C	1.481615	-0.000035	0.553811
H29	H	1.127236	-0.289675	0.164647
H30	H	0.842962	0.289578	0.205008
H31	H	1.373603	-0.468589	0.296540
H32	H	1.596609	-0.531536	0.073110
O33	O	1.726249	-0.000069	-0.208052
H34	H	1.803919	-0.000046	-0.285337
O35	O	1.094585	0.331779	0.215146
H36	H	1.052849	0.408328	0.306100
O37	O	1.719027	-0.000073	-0.480379
H38	H	1.713339	0.119305	-0.531112
O39	O	1.243925	-0.000028	-0.422270
H40	H	1.260412	-0.000048	-0.526731
O41	O	1.251156	-0.000048	-0.149935
H42	H	1.169892	-0.000058	-0.207775
H43	H	0.889532	-0.289716	0.158349
