data_functionalizedCrystal
_audit_creation_method	'MofGen! by Chris Wilmer'
_symmetry_space_group_name_H-M	'P1'
_symmetry_Int_Tables_number	1
_symmetry_cell_setting	triclinic
loop_
_symmetry_equiv_pos_as_xyz
  x,y,z
_cell_length_a	27.731994
_cell_length_b	27.732048
_cell_length_c	13.448316
_cell_angle_alpha	89.988441
_cell_angle_beta	89.999318
_cell_angle_gamma	82.631595
loop_
_atom_site_label
_atom_site_type_symbol
_atom_site_fract_x
_atom_site_fract_y
_atom_site_fract_z
O1	O	0.640946	0.057393	-0.082561
O2	O	0.500149	0.066166	-0.082595
O3	O	0.574920	-0.008618	-0.082558
O4	O	0.566174	0.132177	-0.082598
O5	O	0.574911	-0.008622	0.082826
O6	O	0.500139	0.066162	0.082789
O7	O	0.640937	0.057389	0.082823
Cu8	Cu	0.570537	0.061775	0.097907
Cu9	Cu	0.570548	0.061780	-0.097679
O10	O	0.566165	0.132173	0.082786
C11	C	0.482137	0.065984	0.000093
C12	C	0.428480	0.065442	0.000080
C13	C	0.095757	0.062023	0.090270
C14	C	-0.105901	0.059962	0.090282
O15	O	-0.131978	0.059672	0.166952
N16	N	-0.131111	0.059708	0.000132
C17	C	-0.105903	0.059967	-0.090028
O18	O	-0.131972	0.059699	-0.166707
C19	C	0.095755	0.062025	-0.090039
C20	C	0.120961	0.062283	0.000117
C21	C	0.120963	0.062281	0.180419
C22	C	0.171374	0.062799	0.180415
C23	C	0.196579	0.063059	0.090262
C24	C	0.171372	0.062801	0.000113
C25	C	0.120963	0.062280	-0.180198
C26	C	0.171380	0.062793	-0.180193
C27	C	0.196587	0.063052	-0.090036
C28	C	0.246988	0.063580	-0.090044
N29	N	0.272198	0.063833	0.000107
C30	C	0.246993	0.063573	0.090260
C31	C	-0.211776	0.058887	-0.090016
C32	C	-0.262191	0.058374	-0.090014
C33	C	-0.262185	0.058368	0.090297
C34	C	-0.211771	0.058885	0.090293
C35	C	-0.186566	0.059141	0.000134
C36	C	0.352860	0.064661	0.090245
C37	C	0.403276	0.065182	0.090233
C38	C	0.403267	0.065185	-0.090077
C39	C	0.352855	0.064667	-0.090066
C40	C	0.327654	0.064404	0.000103
O41	O	0.273097	0.063864	-0.166673
O42	O	0.273072	0.063830	0.166927
C43	C	0.045346	0.061505	0.090274
C44	C	0.020139	0.061247	0.000125
C45	C	0.045344	0.061507	-0.090028
C46	C	-0.030275	0.060734	0.000127
C47	C	-0.055480	0.060474	0.090280
C48	C	-0.030270	0.060727	0.180431
C49	C	0.020141	0.061245	0.180427
C50	C	0.020134	0.061254	-0.180179
C51	C	-0.030278	0.060736	-0.180167
C52	C	-0.055482	0.060476	-0.090014
C53	C	0.574732	-0.026627	0.000137
C54	C	0.574179	-0.080282	0.000145
C55	C	0.614884	-0.419105	0.000104
C56	C	0.612833	-0.620764	0.000089
O57	O	0.650055	-0.652027	0.000055
N58	N	0.568496	-0.639879	0.000079
C59	C	0.524670	-0.608576	0.000066
O60	O	0.486912	-0.629462	0.000047
C61	C	0.526721	-0.406918	0.000074
C62	C	0.571061	-0.387805	0.000094
C63	C	0.659220	-0.399992	0.000123
C64	C	0.659732	-0.349580	0.000132
C65	C	0.615908	-0.318281	0.000122
C66	C	0.571573	-0.337394	0.000103
C67	C	0.482895	-0.375615	0.000054
C68	C	0.483412	-0.325198	0.000053
C69	C	0.527751	-0.306086	0.000073
C70	C	0.528262	-0.255683	0.000102
N71	N	0.572598	-0.236567	0.000112
C72	C	0.616421	-0.267867	0.000122
C73	C	0.523596	-0.714450	0.000065
C74	C	0.523083	-0.764864	0.000065
C75	C	0.611246	-0.777049	0.000086
C76	C	0.611759	-0.726633	0.000093
C77	C	0.567932	-0.695335	0.000075
C78	C	0.617494	-0.161998	0.000142
C79	C	0.618002	-0.111581	0.000155
C80	C	0.529839	-0.099401	0.000128
C81	C	0.529331	-0.149813	0.000121
C82	C	0.573162	-0.181111	0.000124
O83	O	0.491060	-0.224391	0.000125
O84	O	0.654174	-0.246971	0.000119
C85	C	0.614372	-0.469517	0.000095
C86	C	0.570036	-0.488629	0.000076
C87	C	0.526213	-0.457330	0.000066
C88	C	0.569523	-0.539043	0.000076
C89	C	0.613346	-0.570343	0.000086
C90	C	0.657683	-0.551228	0.000096
C91	C	0.658195	-0.500816	0.000105
C92	C	0.481876	-0.476445	0.000056
C93	C	0.481367	-0.526857	0.000048
C94	C	0.525191	-0.558157	0.000058
C95	C	0.658949	0.057571	0.000133
C96	C	0.712605	0.058114	0.000139
C97	C	0.566353	0.150182	0.000089
C98	C	0.566906	0.203837	0.000075
N99	N	0.570533	0.061771	0.235471
N100	N	0.570556	0.061780	-0.235243
C101	C	0.603652	0.028670	0.287528
C102	C	0.603655	0.028669	0.391631
C103	C	0.570541	0.061773	0.443676
C104	C	0.537418	0.094875	0.391611
C105	C	0.537413	0.094873	0.287510
C106	C	0.537432	0.094878	0.608592
C107	C	0.537437	0.094881	0.712700
C108	C	0.603673	0.028675	0.712713
C109	C	0.603668	0.028673	0.608611
C110	C	0.570546	0.061776	0.556554
H111	H	-0.282711	0.058171	-0.163428
H112	H	0.510454	0.121827	0.433992
H113	H	0.510444	0.121826	0.245126
H114	H	0.630642	0.001721	0.755103
H115	H	0.654110	-0.096023	0.000174
H116	H	0.646929	-0.802541	0.000094
H117	H	0.446189	-0.450966	0.000046
H118	H	0.486977	-0.780420	0.000066
H119	H	0.332347	0.064451	0.163669
H120	H	0.510459	0.121833	0.566210
H121	H	0.332330	0.064465	-0.163479
H122	H	0.630634	0.001720	0.566237
H123	H	0.423796	0.065394	0.163653
H124	H	0.695837	-0.334024	0.000144
H125	H	0.040650	0.061464	-0.253594
H126	H	-0.191251	0.059096	0.163707
H127	H	0.191894	0.063007	0.253830
H128	H	0.487905	-0.688970	0.000050
H129	H	0.100447	0.062068	0.253837
H130	H	0.510472	0.121837	0.755069
H131	H	0.630619	0.001715	0.245160
H132	H	0.493226	-0.165375	0.000132
H133	H	0.446789	-0.391167	0.000031
H134	H	-0.282716	0.058157	0.163703
H135	H	-0.191260	0.059095	-0.163439
H136	H	0.494160	-0.073908	0.000124
H137	H	0.694908	-0.425472	0.000127
H138	H	0.191899	0.063002	-0.253613
H139	H	0.100448	0.062069	-0.253613
H140	H	0.447722	-0.299716	0.000037
H141	H	-0.050797	0.060530	-0.253589
H142	H	0.693365	-0.576720	0.000108
H143	H	0.630622	0.001716	0.434015
H144	H	-0.050801	0.060518	0.253837
H145	H	0.423797	0.065399	-0.163477
H146	H	0.653186	-0.187475	0.000140
H147	H	0.647863	-0.711076	0.000108
H148	H	0.040660	0.061456	0.253842
H149	H	0.694301	-0.485260	0.000121
H150	H	0.445258	-0.542413	0.000040
