data_functionalizedCrystal
_audit_creation_method	'MofGen! by Chris Wilmer'
_symmetry_space_group_name_H-M	'P1'
_symmetry_Int_Tables_number	1
_symmetry_cell_setting	triclinic
loop_
_symmetry_equiv_pos_as_xyz
  x,y,z
_cell_length_a	16.109301
_cell_length_b	13.339070
_cell_length_c	15.186229
_cell_angle_alpha	89.998719
_cell_angle_beta	89.999362
_cell_angle_gamma	99.545388
loop_
_atom_site_label
_atom_site_type_symbol
_atom_site_fract_x
_atom_site_fract_y
_atom_site_fract_z
O1	O	1.133153	0.130020	-0.073168
O2	O	0.894827	0.146201	-0.073182
O3	O	0.986638	-0.009144	-0.073174
O4	O	1.041342	0.285365	-0.073176
O5	O	0.986629	-0.009146	0.073283
O6	O	0.894818	0.146199	0.073275
O7	O	1.133144	0.130018	0.073289
Zn8	Zn	1.013980	0.138108	0.096535
Zn9	Zn	1.013992	0.138111	-0.096428
O10	O	1.041333	0.285363	0.073281
C11	C	0.863697	0.145545	0.000045
C12	C	0.770947	0.143580	0.000040
C13	C	0.568905	0.231189	0.000049
C14	C	0.481756	0.229335	0.000055
C15	C	0.459072	0.045023	0.000053
C16	C	0.546219	0.046879	0.000053
C17	C	0.601133	0.139965	0.000047
C18	C	0.426838	0.136255	0.000052
C19	C	0.332347	0.134244	0.000058
C20	C	0.695630	0.141976	0.000043
C21	C	0.977393	-0.046831	0.000053
C22	C	0.949849	-0.159124	0.000048
C23	C	1.164017	-0.523987	0.000060
C24	C	1.189898	-0.418483	0.000070
C25	C	1.129888	-0.353638	0.000064
C26	C	1.043992	-0.394307	0.000049
C27	C	1.018108	-0.499822	0.000046
C28	C	0.983979	-0.329473	0.000050
C29	C	0.898083	-0.370142	0.000035
C30	C	0.872203	-0.475647	0.000032
C31	C	0.932213	-0.540492	0.000038
C32	C	1.009863	-0.223958	0.000053
C33	C	0.863954	-0.199793	0.000039
C34	C	0.838073	-0.305297	0.000029
C35	C	1.164275	0.130675	0.000060
C36	C	1.257024	0.132640	0.000060
C37	C	1.050578	0.323050	0.000052
C38	C	1.078122	0.435343	0.000052
N39	N	1.013977	0.138106	0.228228
N40	N	1.013998	0.138106	-0.228121
C41	C	1.054656	0.069342	0.453954
C42	C	1.054658	0.069340	0.546144
C43	C	0.973315	0.206873	0.546146
C44	C	0.973308	0.206869	0.453958
C45	C	1.013984	0.138105	0.407865
C46	C	1.013992	0.138106	0.592242
C47	C	1.013994	0.138104	0.692198
C48	C	1.013980	0.138106	0.307902
H49	H	1.079800	-0.190856	0.000066
H50	H	0.613614	0.306986	0.000051
C51	C	0.631074	-0.057953	-0.075236
C52	C	0.581653	-0.053402	0.000049
H53	H	0.652953	-0.119857	-0.075232
H54	H	0.597549	-0.054851	-0.126300
H55	H	0.676246	-0.002244	-0.075225
H56	H	0.536477	-0.109107	0.000034
H57	H	0.615180	-0.056514	0.051126
C58	C	1.127239	-0.195927	0.075361
C59	C	1.158341	-0.237666	0.000076
H60	H	1.144814	-0.124330	0.075368
H61	H	1.067503	-0.210860	0.075343
H62	H	1.148322	-0.224275	0.126431
H63	H	1.137253	-0.209324	-0.050994
H64	H	1.218090	-0.222725	0.000086
C65	C	0.396919	0.334178	0.075343
C66	C	0.446330	0.329612	0.000053
H67	H	0.375054	0.396091	0.075343
H68	H	0.351745	0.278485	0.075340
H69	H	0.430454	0.331071	0.126409
H70	H	0.412793	0.332712	-0.051013
H71	H	0.491510	0.385320	0.000049
H72	H	0.768134	-0.338426	0.000018
C73	C	0.315408	-0.039660	0.000042
C74	C	0.398707	-0.057293	0.000048
H75	H	0.278145	-0.102829	0.000031
H76	H	0.305787	-0.002112	0.051112
H77	H	0.305799	-0.002093	-0.051034
H78	H	0.408319	-0.094853	0.051127
H79	H	0.408332	-0.094857	-0.051028
C80	C	1.331518	-0.452975	0.000085
C81	C	1.284310	-0.373782	0.000084
H82	H	1.389806	-0.425375	0.000088
H83	H	1.318382	-0.493626	0.051151
H84	H	1.318389	-0.493620	-0.050995
H85	H	1.297434	-0.333140	0.051167
H86	H	1.297452	-0.333113	-0.050988
C87	C	0.892909	0.342829	0.463213
C88	C	0.928600	0.282463	0.403289
H89	H	0.865313	0.389496	0.431930
H90	H	0.853292	0.300716	0.499173
H91	H	0.935921	0.379228	0.499166
H92	H	0.885587	0.246058	0.367340
H93	H	0.968221	0.324582	0.367314
H94	H	0.815089	-0.146996	0.000039
C95	C	1.189112	-0.696459	0.000066
C96	C	1.229972	-0.595264	0.000070
H97	H	1.229835	-0.740461	0.000068
H98	H	1.154896	-0.708775	0.051132
H99	H	1.154903	-0.708771	-0.051014
H100	H	1.264177	-0.582949	0.051154
H101	H	1.264203	-0.582942	-0.051001
C102	C	1.135070	-0.066594	0.536876
C103	C	1.099371	-0.006243	0.596806
H104	H	1.162678	-0.113253	0.568154
H105	H	1.092068	-0.102993	0.500925
H106	H	1.174687	-0.024463	0.500914
H107	H	1.059750	-0.048374	0.632763
H108	H	1.142378	0.030158	0.632772
H109	H	0.911145	-0.626403	0.000026
H110	H	0.802261	-0.508756	0.000026
C111	C	1.040876	-0.068362	0.350335
C112	C	1.099325	-0.006296	0.403309
H113	H	1.068445	-0.115070	0.319075
H114	H	0.997872	-0.104705	0.386321
H115	H	1.016679	-0.027400	0.309674
H116	H	1.123517	-0.047258	0.443974
H117	H	1.142344	0.030050	0.367320
H118	H	0.940199	0.262860	0.583685
