data_functionalizedCrystal
_audit_creation_method	'MofGen! by Chris Wilmer'
_symmetry_space_group_name_H-M	'P1'
_symmetry_Int_Tables_number	1
_symmetry_cell_setting	triclinic
loop_
_symmetry_equiv_pos_as_xyz
  x,y,z
_cell_length_a	6.817900
_cell_length_b	11.102269
_cell_length_c	12.200875
_cell_angle_alpha	92.494006
_cell_angle_beta	107.143593
_cell_angle_gamma	108.605385
loop_
_atom_site_label
_atom_site_type_symbol
_atom_site_fract_x
_atom_site_fract_y
_atom_site_fract_z
V1	V	-4.094470	-0.176128	-0.357664
O2	O	-4.053827	0.008167	-0.350852
O3	O	-4.071364	-0.348947	-0.355221
O4	O	-4.063810	-0.173549	-0.513653
O5	O	-4.061433	-0.168445	-0.191325
V6	V	-4.572522	-0.154069	-0.337768
O7	O	-4.367730	-0.224517	-0.401308
O8	O	-4.749459	-0.105680	-0.294125
O9	O	-4.372421	0.018750	-0.340211
O10	O	-4.730562	-0.338364	-0.344580
O11	O	-4.722955	-0.161752	-0.504108
O12	O	-4.379975	-0.156648	-0.181780
C13	C	-3.921944	-0.391073	-0.349580
C14	C	-3.984457	-0.532355	-0.348622
C15	C	-4.127708	-0.749719	-0.452317
C16	C	-4.068989	-0.616970	-0.453222
C17	C	-3.958664	-0.580495	-0.243111
C18	C	-4.017397	-0.713242	-0.242208
C19	C	-4.173092	-0.461627	-0.584346
C20	C	-4.198857	-0.413490	-0.689853
C21	C	-4.148507	-0.468512	-0.778633
C22	C	-4.072344	-0.571667	-0.761908
C23	C	-4.046557	-0.619796	-0.656398
C24	C	-4.096957	-0.564778	-0.567624
C25	C	-3.913283	-0.868588	-0.111092
C26	C	-3.887482	-0.916718	-0.005580
C27	C	-3.937815	-0.861697	0.083210
C28	C	-4.013940	-0.758535	0.066497
C29	C	-4.039741	-0.710404	-0.039014
C30	C	-3.989416	-0.765435	-0.127805
C31	C	-3.912307	-0.167334	-0.551673
C32	C	-3.968690	-0.166369	-0.679194
C33	C	-4.071880	-0.164604	-0.912669
C34	C	-4.014449	-0.165585	-0.782747
C35	C	-4.185183	0.060868	-0.345849
C36	C	-4.101909	0.202150	-0.346814
C37	C	-4.194820	-0.162868	-0.143753
C38	C	-4.117674	-0.163826	-0.016231
H39	H	-4.214127	-0.416828	-0.512067
C40	C	-3.857914	-0.929125	-0.208765
N41	N	-3.816200	-0.974720	-0.282328
C42	C	-4.282645	-0.300025	-0.708248
N43	N	-4.345744	-0.214561	-0.722104
C44	C	-3.865670	-0.487413	-0.128050
N45	N	-3.795614	-0.417304	-0.041383
C46	C	-3.962797	-0.733265	-0.638001
N47	N	-3.899723	-0.818739	-0.624150
C48	C	-4.123501	-0.596928	-0.057400
N49	N	-4.186593	-0.511461	-0.071249
C50	C	-4.176855	-0.415558	-0.894692
N51	N	-4.198219	-0.375671	-0.982107
C52	C	-3.909428	-0.914648	0.199276
N53	N	-3.888059	-0.954530	0.286693
H54	H	-4.196522	-0.818604	-0.537495
H55	H	-4.054896	-0.713721	0.138803
H56	H	-4.031319	-0.616449	-0.834201
C57	C	-3.803740	-1.030202	0.012801
N58	N	-3.740676	-1.115680	0.026644
