data_functionalizedCrystal
_audit_creation_method	'MofGen! by Chris Wilmer'
_symmetry_space_group_name_H-M	'P1'
_symmetry_Int_Tables_number	1
_symmetry_cell_setting	triclinic
loop_
_symmetry_equiv_pos_as_xyz
  x,y,z
_cell_length_a	12.759394
_cell_length_b	12.759395
_cell_length_c	14.908858
_cell_angle_alpha	93.279231
_cell_angle_beta	86.673257
_cell_angle_gamma	90.015525
loop_
_atom_site_label
_atom_site_type_symbol
_atom_site_fract_x
_atom_site_fract_y
_atom_site_fract_z
Zn1	Zn	-0.383943	1.571962	-0.510077
Zn2	Zn	0.116057	2.071962	-0.010077
Zn3	Zn	-0.569789	1.581998	-0.359222
Zn4	Zn	-0.069789	2.081998	0.140778
Zn5	Zn	-0.394126	1.406405	-0.359236
Zn6	Zn	0.105874	1.906405	0.140764
Zn7	Zn	-0.559585	1.396255	-0.510038
Zn8	Zn	-0.059585	1.896255	-0.010038
O9	O	-0.476861	1.489155	-0.434643
O10	O	0.023139	1.989155	0.065357
O11	O	-0.408605	1.720314	-0.490077
O12	O	0.091395	2.220314	0.009923
O13	O	-0.555019	1.567153	-0.232980
O14	O	-0.055019	2.067153	0.267020
O15	O	-0.245753	1.428414	-0.379268
O16	O	0.254247	1.928414	0.120732
O17	O	-0.545145	1.727687	-0.379244
O18	O	-0.045145	2.227687	0.120756
O19	O	-0.238271	1.550048	-0.490090
O20	O	0.261729	2.050048	0.009910
O21	O	-0.425960	1.438146	-0.232990
O22	O	0.074040	1.938146	0.267010
O23	O	-0.416066	1.258038	-0.379230
O24	O	0.083934	1.758038	0.120770
O25	O	-0.527754	1.411115	-0.636287
O26	O	-0.027754	1.911115	-0.136287
O27	O	-0.537628	1.250581	-0.490023
O28	O	-0.037628	1.750581	0.009977
O29	O	-0.398711	1.540206	-0.636316
O30	O	0.101289	2.040206	-0.136316
O31	O	-0.715458	1.557311	-0.379206
O32	O	-0.215458	2.057311	0.120794
O33	O	-0.707962	1.420846	-0.490009
O34	O	-0.207962	1.920846	0.009991
C35	C	-0.476845	1.216189	-0.434624
C36	C	0.023155	1.716189	0.065376
C37	C	-0.476863	1.099411	-0.434637
C38	C	0.023137	1.599411	0.065363
C39	C	-0.603697	0.872271	-0.549854
C40	C	-0.103697	1.372271	-0.049854
C41	C	-0.667094	0.923286	-0.607441
C42	C	-0.167094	1.423286	-0.107441
C43	C	-0.667082	1.033009	-0.607429
C44	C	-0.167082	1.533009	-0.107429
C45	C	-0.603668	1.091719	-0.549823
C46	C	-0.103668	1.591719	-0.049823
C47	C	-0.540272	1.040704	-0.492236
C48	C	-0.040272	1.540704	0.007764
C49	C	-0.540288	0.930978	-0.492255
C50	C	-0.040288	1.430978	0.007745
C51	C	-0.413466	1.048396	-0.377050
C52	C	0.086534	1.548396	0.122950
C53	C	-0.413471	0.938674	-0.377065
C54	C	0.086529	1.438674	0.122935
C55	C	-0.350052	1.107107	-0.319444
C56	C	0.149948	1.607107	0.180556
C57	C	-0.286648	1.056091	-0.261860
C58	C	0.213352	1.556091	0.238140
C59	C	-0.286662	0.946362	-0.261875
C60	C	0.213338	1.446362	0.238125
C61	C	-0.350074	0.887659	-0.319478
C62	C	0.149926	1.387659	0.180522
C63	C	-0.749830	1.489093	-0.434622
C64	C	-0.249830	1.989093	0.065378
C65	C	-0.866605	1.489161	-0.434642
C66	C	-0.366605	1.989161	0.065358
C67	C	-0.874352	1.631357	-0.319349
C68	C	-0.374352	2.131357	0.180651
C69	C	-0.933086	1.702482	-0.261713
C70	C	-0.433086	2.202482	0.238287
C71	C	-1.042806	1.702542	-0.261738
C72	C	-0.542806	2.202542	0.238262
C73	C	-1.093794	1.631471	-0.319406
C74	C	-0.593794	2.131471	0.180594
C75	C	-1.035060	1.560347	-0.377042
C76	C	-0.535060	2.060347	0.122958
C77	C	-0.925339	1.560292	-0.377010
C78	C	-0.425339	2.060292	0.122990
C79	C	-1.027313	1.418158	-0.492339
C80	C	-0.527313	1.918158	0.007661
C81	C	-0.917593	1.418091	-0.492311
C82	C	-0.417593	1.918091	0.007689
C83	C	-1.078301	1.347087	-0.550007
C84	C	-0.578301	1.847087	-0.050007
C85	C	-1.019568	1.275956	-0.607640
C86	C	-0.519568	1.775956	-0.107640
C87	C	-0.909842	1.275898	-0.607612
C88	C	-0.409842	1.775898	-0.107612
C89	C	-0.858860	1.346966	-0.549947
C90	C	-0.358860	1.846966	-0.049947
C91	C	-0.202825	1.489244	-0.434685
C92	C	0.297175	1.989244	0.065315
C93	C	-0.086047	1.489282	-0.434703
C94	C	0.413953	1.989282	0.065297
C95	C	-0.460958	1.473409	-0.669951
C96	C	0.039042	1.973409	-0.169951
C97	C	-0.454182	1.466698	-0.770225
C98	C	0.045818	1.966698	-0.270225
C99	C	-0.476877	1.763187	-0.434663
C100	C	0.023123	2.263187	0.065337
C101	C	-0.476884	1.879963	-0.434672
C102	C	0.023116	2.379963	0.065328
C103	C	-0.377439	1.390081	-0.911561
C104	C	0.122561	1.890081	-0.411561
C105	C	-0.383804	1.396382	-0.817344
C106	C	0.116196	1.896382	-0.317344
C107	C	-0.518196	1.530721	-0.817328
C108	C	-0.018196	2.030721	-0.317328
C109	C	-0.511831	1.524420	-0.911544
C110	C	-0.011831	2.024420	-0.411544
C111	C	-0.441451	1.454097	-0.958657
C112	C	0.058549	1.954097	-0.458657
C113	C	-0.435092	1.447792	-1.052875
C114	C	0.064908	1.947792	-0.552875
C115	C	-0.569478	1.582136	-1.052857
C116	C	-0.069478	2.082136	-0.552857
C117	C	-0.575843	1.588436	-0.958640
C118	C	-0.075843	2.088436	-0.458640
C119	C	-0.492626	1.504901	-0.200252
C120	C	0.007374	2.004901	0.299748
C121	C	-0.499106	1.511814	-0.099978
C122	C	0.000894	2.011814	0.400022
H123	H	-0.603702	0.782928	-0.549878
H124	H	-0.103702	1.282928	-0.049878
Cl125	Cl	-0.350041	1.245045	-0.319425
Cl126	Cl	0.149959	1.745045	0.180575
H127	H	-0.891561	1.760348	-0.214762
H128	H	-0.391561	2.260348	0.285238
Cl129	Cl	-0.206965	0.882239	-0.189469
Cl130	Cl	0.293035	1.382239	0.310531
Cl131	Cl	-1.083672	1.186628	-0.680135
Cl132	Cl	-0.583672	1.686628	-0.180135
H133	H	-0.350086	0.798316	-0.319500
H134	H	0.149914	1.298316	0.180500
Cl135	Cl	-0.746787	1.097145	-0.679820
Cl136	Cl	-0.246787	1.597145	-0.179820
H137	H	-0.862026	1.217984	-0.654550
H138	H	-0.362026	1.717984	-0.154550
H139	H	-0.235027	1.103902	-0.214957
H140	H	0.264973	1.603902	0.285043
Cl141	Cl	-0.603669	1.229657	-0.549799
Cl142	Cl	-0.103669	1.729657	-0.049799
H143	H	-0.621597	1.634267	-1.091212
H144	H	-0.121597	2.134267	-0.591212
Cl145	Cl	-0.346612	1.359390	-1.112102
Cl146	Cl	0.153388	1.859390	-0.612102
Cl147	Cl	-0.746825	0.849476	-0.679844
Cl148	Cl	-0.246825	1.349476	-0.179844
Cl149	Cl	-0.736401	1.631565	-0.319567
Cl150	Cl	-0.236401	2.131565	0.180433
Cl151	Cl	-0.288958	1.301683	-0.970792
Cl152	Cl	0.211042	1.801683	-0.470792
H153	H	-1.090626	1.760462	-0.214810
H154	H	-0.590626	2.260462	0.285190
Cl155	Cl	-0.303326	1.315903	-0.758140
Cl156	Cl	0.196674	1.815903	-0.258140
H157	H	-1.183134	1.631535	-0.319429
H158	H	-0.683134	2.131535	0.180571
Cl159	Cl	-1.216260	1.346744	-0.549656
Cl160	Cl	-0.716260	1.846744	-0.049656
Cl161	Cl	-0.606646	1.619140	-0.758084
Cl162	Cl	-0.106646	2.119140	-0.258084
Cl163	Cl	-0.720909	1.347188	-0.550170
Cl164	Cl	-0.220909	1.847188	-0.050170
H165	H	-0.633142	1.645694	-0.920268
H166	H	-0.133142	2.145694	-0.420268
