data_functionalizedCrystal
_audit_creation_method	'MofGen! by Chris Wilmer'
_symmetry_space_group_name_H-M	'P1'
_symmetry_Int_Tables_number	1
_symmetry_cell_setting	triclinic
loop_
_symmetry_equiv_pos_as_xyz
  x,y,z
_cell_length_a	11.026607
_cell_length_b	19.188930
_cell_length_c	9.482900
_cell_angle_alpha	99.297616
_cell_angle_beta	78.636152
_cell_angle_gamma	95.865399
loop_
_atom_site_label
_atom_site_type_symbol
_atom_site_fract_x
_atom_site_fract_y
_atom_site_fract_z
O1	O	1.627581	0.283622	-0.120957
O2	O	1.274451	0.250352	-0.120952
O3	O	1.461202	0.166632	-0.120926
O4	O	1.440830	0.367342	-0.120983
O5	O	1.423268	0.183725	0.120861
O6	O	1.236517	0.267445	0.120835
O7	O	1.589648	0.300715	0.120830
Cu8	Cu	1.409619	0.285641	0.142910
Cu9	Cu	1.454480	0.265426	-0.143032
O10	O	1.402896	0.384435	0.120804
C11	C	1.210306	0.252761	-0.000057
C12	C	1.075688	0.234464	-0.000054
C13	C	1.001617	0.284984	-0.000069
C14	C	0.862482	0.266075	-0.000066
C15	C	1.441575	0.149084	-0.000029
C16	C	1.439592	0.071328	-0.000016
C17	C	1.549173	0.040370	-0.000011
C18	C	1.547315	-0.032693	-0.000034
C19	C	1.435865	-0.074793	-0.000033
C20	C	1.326271	-0.043828	-0.000047
C21	C	1.328134	0.029233	-0.000038
N22	N	1.337766	-0.187838	0.082253
N23	N	1.336003	-0.257242	0.082248
C24	C	1.430246	-0.294921	-0.000063
N25	N	1.526334	-0.260572	-0.082349
N26	N	1.528099	-0.191161	-0.082338
C27	C	1.433833	-0.154016	-0.000044
C28	C	1.537820	-0.405101	-0.000085
C29	C	1.535959	-0.478166	-0.000117
C30	C	1.314910	-0.489299	-0.000115
C31	C	1.316776	-0.416236	-0.000098
C32	C	1.428234	-0.374141	-0.000075
C33	C	1.653793	0.298306	-0.000068
C34	C	1.788412	0.316602	-0.000081
C35	C	1.422524	0.401983	-0.000097
C36	C	1.424509	0.479738	-0.000119
N37	N	1.378075	0.299859	0.344025
N38	N	1.486034	0.251204	-0.344148
C39	C	1.445167	0.269615	0.416234
C40	C	1.418931	0.281452	0.583648
H41	H	0.822904	0.208818	-0.000087
C42	C	1.316335	0.327659	0.666195
C43	C	1.259502	0.353252	0.567133
C44	C	1.164976	0.395810	0.643123
H45	H	1.350555	0.366365	0.725563
H46	H	1.256530	0.300453	0.725558
H47	H	1.319296	0.380457	0.507795
H48	H	1.225256	0.314562	0.507763
H49	H	1.105171	0.368604	0.702486
H50	H	1.199206	0.434513	0.702488
H51	H	1.126396	0.413175	0.575922
C52	C	1.588256	0.204860	0.572783
C53	C	1.593816	0.202231	0.423249
C54	C	1.687858	0.159472	0.346682
H55	H	1.571032	0.158401	0.597679
H56	H	1.665514	0.224107	0.597369
H57	H	1.516577	0.182982	0.398673
H58	H	1.611057	0.248678	0.398310
H59	H	1.765115	0.178719	0.371268
H60	H	1.670625	0.113017	0.371589
H61	H	1.691650	0.157688	0.245215
H62	H	0.827994	0.373857	-0.000087
C63	C	1.193782	-0.534899	0.000108
C64	C	1.108028	-0.511695	0.124485
C65	C	0.996426	-0.553683	0.124724
H66	H	1.208183	-0.582860	0.000174
H67	H	1.161834	-0.531149	-0.084164
H68	H	1.139970	-0.515451	0.208735
H69	H	1.093591	-0.463740	0.124445
H70	H	0.964477	-0.549933	0.040452
H71	H	1.010839	-0.601642	0.124786
H72	H	0.938224	-0.537941	0.209104
H73	H	1.639931	0.074639	0.000002
C74	C	1.197738	-0.382730	-0.000310
C75	C	1.150104	-0.412655	-0.124685
C76	C	1.040434	-0.381815	-0.124925
H77	H	1.214645	-0.333192	-0.000378
H78	H	1.138735	-0.391060	0.083963
H79	H	1.209094	-0.404319	-0.208936
H80	H	1.133169	-0.462190	-0.124643
H81	H	0.981431	-0.390146	-0.040652
H82	H	1.057353	-0.332278	-0.124990
H83	H	1.008095	-0.402119	-0.209305
H84	H	1.036104	0.177212	-0.000075
H85	H	1.041206	0.342235	-0.000077
H86	H	1.636553	-0.057905	-0.000036
H87	H	1.235528	-0.078111	-0.000050
H88	H	1.238897	0.054438	-0.000042
H89	H	1.628576	-0.370826	-0.000073
H90	H	1.625199	-0.503371	-0.000121
H91	H	1.522028	0.234957	0.354116
H92	H	1.301206	0.334511	0.406145
