data_functionalizedCrystal
_audit_creation_method	'MofGen! by Chris Wilmer'
_symmetry_space_group_name_H-M	'P1'
_symmetry_Int_Tables_number	1
_symmetry_cell_setting	triclinic
loop_
_symmetry_equiv_pos_as_xyz
  x,y,z
_cell_length_a	25.639242
_cell_length_b	25.639239
_cell_length_c	25.639233
_cell_angle_alpha	89.981253
_cell_angle_beta	90.022166
_cell_angle_gamma	89.965787
loop_
_atom_site_label
_atom_site_type_symbol
_atom_site_fract_x
_atom_site_fract_y
_atom_site_fract_z
Zn1	Zn	0.799225	0.208277	0.295742
Zn2	Zn	1.132558	0.541610	0.629076
Zn3	Zn	1.465892	0.874943	0.962409
Zn4	Zn	0.799149	0.295696	0.208307
Zn5	Zn	1.132482	0.629029	0.541640
Zn6	Zn	1.465815	0.962362	0.874973
Zn7	Zn	0.711801	0.208269	0.208306
Zn8	Zn	1.045135	0.541602	0.541640
Zn9	Zn	1.378468	0.874936	0.874973
Zn10	Zn	0.711746	0.295676	0.295696
Zn11	Zn	1.045080	0.629010	0.629030
Zn12	Zn	1.378413	0.962343	0.962363
O13	O	0.755480	0.251979	0.252013
O14	O	1.088814	0.585313	0.585346
O15	O	1.422147	0.918646	0.918680
O16	O	0.872380	0.219884	0.284163
O17	O	1.205713	0.553218	0.617496
O18	O	1.539047	0.886551	0.950830
O19	O	0.787553	0.284103	0.135141
O20	O	1.120886	0.617437	0.468475
O21	O	1.454219	0.950770	0.801808
O22	O	0.723453	0.135105	0.219924
O23	O	1.056787	0.468438	0.553257
O24	O	1.390120	0.801772	0.886591
O25	O	0.872324	0.284111	0.219924
O26	O	1.205657	0.617444	0.553258
O27	O	1.538991	0.950777	0.886591
O28	O	0.787683	0.135111	0.284163
O29	O	1.121016	0.468444	0.617496
O30	O	1.454350	0.801777	0.950829
O31	O	0.723379	0.219871	0.135141
O32	O	1.056712	0.553205	0.468474
O33	O	1.390046	0.886538	0.801808
O34	O	0.638629	0.219853	0.219880
O35	O	0.971962	0.553186	0.553213
O36	O	1.305296	0.886519	0.886546
O37	O	0.723360	0.284078	0.368868
O38	O	1.056693	0.617411	0.702201
O39	O	1.390026	0.950744	1.035534
O40	O	0.638589	0.284070	0.284085
O41	O	0.971922	0.617403	0.617418
O42	O	1.305255	0.950737	0.950751
O43	O	0.787630	0.219866	0.368901
O44	O	1.120963	0.553199	0.702235
O45	O	1.454297	0.886532	1.035568
O46	O	0.787499	0.368858	0.219880
O47	O	1.120833	0.702192	0.553213
O48	O	1.454166	1.035525	0.886547
O49	O	0.723286	0.368844	0.284085
O50	O	1.056619	0.702177	0.617418
O51	O	1.389952	1.035511	0.950752
C52	C	0.619638	0.251959	0.251977
C53	C	0.952971	0.585292	0.585311
C54	C	1.286304	0.918625	0.918644
C55	C	0.561524	0.251963	0.251975
C56	C	0.894857	0.585296	0.585308
C57	C	1.228190	0.918629	0.918641
C58	C	0.755392	0.387822	0.251989
C59	C	1.088726	0.721155	0.585322
C60	C	1.422059	1.054489	0.918656
C61	C	0.755403	0.445936	0.251996
C62	C	1.088736	0.779269	0.585330
C63	C	1.422069	1.112603	0.918663
C64	C	0.201149	0.285473	0.285413
C65	C	0.534482	0.618807	0.618746
C66	C	0.867815	0.952140	0.952080
C67	C	0.146544	0.285477	0.285421
C68	C	0.479878	0.618810	0.618754
C69	C	0.813211	0.952143	0.952088
O70	O	0.118297	0.313943	0.313821
O71	O	0.451631	0.647276	0.647155
O72	O	0.784964	0.980610	0.980488
N73	N	0.119241	0.251994	0.252047
N74	N	0.452575	0.585327	0.585380
N75	N	0.785908	0.918660	0.918714
C76	C	0.146545	0.218502	0.218666
C77	C	0.479879	0.551835	0.552000
C78	C	0.813212	0.885169	0.885333
O79	O	0.118308	0.190022	0.190280
O80	O	0.451641	0.523356	0.523613
O81	O	0.784975	0.856689	0.856947
C82	C	0.201149	0.218496	0.218661
C83	C	0.534482	0.551830	0.551994
C84	C	0.867815	0.885163	0.885328
C85	C	0.228449	0.251985	0.252034
C86	C	0.561782	0.585319	0.585367
C87	C	0.895116	0.918652	0.918700
C88	C	0.228449	0.318959	0.318783
C89	C	0.561782	0.652292	0.652116
C90	C	0.895115	0.985626	0.985450
C91	C	0.283049	0.318956	0.318774
C92	C	0.616383	0.652290	0.652107
C93	C	0.949716	0.985623	0.985441
C94	C	0.310350	0.285468	0.285395
C95	C	0.643683	0.618801	0.618728
C96	C	0.977016	0.952135	0.952061
C97	C	0.283049	0.251983	0.252024
C98	C	0.616383	0.585316	0.585358
C99	C	0.949716	0.918649	0.918691
C100	C	0.228452	0.185002	0.185283
C101	C	0.561785	0.518336	0.518617
C102	C	0.895119	0.851669	0.851950
C103	C	0.283059	0.185000	0.185281
C104	C	0.616392	0.518333	0.518615
C105	C	0.949726	0.851666	0.851948
C106	C	0.310359	0.218488	0.218654
C107	C	0.643692	0.551822	0.551987
C108	C	0.977026	0.885155	0.885320
C109	C	0.364950	0.218492	0.218636
C110	C	0.698284	0.551825	0.551969
C111	C	1.031617	0.885158	0.885303
N112	N	0.392253	0.251974	0.252010
N113	N	0.725587	0.585308	0.585344
N114	N	1.058920	0.918641	0.918677
C115	C	0.364953	0.285463	0.285389
C116	C	0.698286	0.618796	0.618723
C117	C	1.031620	0.952129	0.952056
C118	C	0.031875	0.218515	0.218680
C119	C	0.365208	0.551849	0.552014
C120	C	0.698541	0.885182	0.885347
C121	C	-0.022728	0.218523	0.218683
C122	C	0.310606	0.551856	0.552016
C123	C	0.643939	0.885190	0.885349
C124	C	-0.022725	0.285497	0.285438
C125	C	0.310608	0.618830	0.618772
C126	C	0.643942	0.952164	0.952105
C127	C	0.031878	0.285492	0.285433
C128	C	0.365212	0.618825	0.618766
C129	C	0.698545	0.952158	0.952100
C130	C	0.059178	0.251998	0.252054
C131	C	0.392511	0.585331	0.585388
C132	C	0.725844	0.918665	0.918721
C133	C	0.479618	0.285455	0.285368
C134	C	0.812951	0.618788	0.618701
C135	C	1.146285	0.952122	0.952034
C136	C	0.534223	0.285451	0.285354
C137	C	0.867557	0.618784	0.618687
C138	C	1.200890	0.952117	0.952021
C139	C	0.534216	0.218475	0.218601
C140	C	0.867549	0.551808	0.551934
C141	C	1.200883	0.885142	0.885267
C142	C	0.479615	0.218481	0.218612
C143	C	0.812949	0.551814	0.551945
C144	C	1.146282	0.885147	0.885279
C145	C	0.452318	0.251972	0.252000
C146	C	0.785651	0.585306	0.585333
C147	C	1.118984	0.918639	0.918666
O148	O	0.393232	0.190038	0.190252
O149	O	0.726565	0.523372	0.523585
O150	O	1.059899	0.856705	0.856918
O151	O	0.393197	0.313933	0.313776
O152	O	0.726530	0.647266	0.647109
O153	O	1.059864	0.980599	0.980442
C154	C	0.755497	0.251970	0.388386
C155	C	1.088831	0.585304	0.721719
C156	C	1.422164	0.918637	1.055053
C157	C	0.755504	0.251966	0.446500
C158	C	1.088838	0.585300	0.779833
C159	C	1.422171	0.918633	1.113167
C160	C	0.891853	0.252000	0.252049
C161	C	1.225187	0.585334	0.585382
C162	C	1.558520	0.918667	0.918715
C163	C	0.949967	0.252009	0.252064
C164	C	1.283301	0.585343	0.585397
C165	C	1.616634	0.918676	0.918731
C166	C	0.755583	0.115606	0.252048
C167	C	1.088916	0.448940	0.585382
C168	C	1.422250	0.782273	0.918715
C169	C	0.755627	0.057492	0.252064
C170	C	1.088960	0.390826	0.585397
C171	C	1.422293	0.724159	0.918730
C172	C	0.789004	0.806294	0.218638
C173	C	1.122337	1.139627	0.551972
C174	C	1.455670	1.472961	0.885305
C175	C	0.789024	0.860898	0.218645
C176	C	1.122357	1.194232	0.551979
C177	C	1.455691	1.527565	0.885312
O178	O	0.817502	0.889131	0.190257
O179	O	1.150835	1.222464	0.523590
O180	O	1.484168	1.555797	0.856924
N181	N	0.755572	0.888218	0.252048
N182	N	1.088906	1.221552	0.585381
N183	N	1.422239	1.554885	0.918714
C184	C	0.722102	0.860932	0.285449
C185	C	1.055435	1.194265	0.618782
C186	C	1.388768	1.527598	0.952115
O187	O	0.693651	0.889184	0.313861
O188	O	1.026984	1.222517	0.647194
O189	O	1.360317	1.555850	0.980528
C190	C	0.722085	0.806328	0.285444
C191	C	1.055418	1.139662	0.618777
C192	C	1.388751	1.472995	0.952111
C193	C	0.755535	0.779011	0.252036
C194	C	1.088868	1.112344	0.585369
C195	C	1.422201	1.445678	0.918702
C196	C	0.822452	0.778976	0.185233
C197	C	1.155785	1.112310	0.518567
C198	C	1.489118	1.445643	0.851900
C199	C	0.822431	0.724376	0.185226
C200	C	1.155764	1.057709	0.518559
C201	C	1.489097	1.391043	0.851892
C202	C	0.788962	0.697093	0.218623
C203	C	1.122295	1.030426	0.551957
C204	C	1.455628	1.363760	0.885290
C205	C	0.755514	0.724410	0.252028
C206	C	1.088847	1.057744	0.585362
C207	C	1.422180	1.391077	0.918695
C208	C	0.688617	0.779042	0.318847
C209	C	1.021950	1.112376	0.652181
C210	C	1.355284	1.445709	0.985514
C211	C	0.688603	0.724435	0.318840
C212	C	1.021936	1.057769	0.652173
C213	C	1.355270	1.391102	0.985507
C214	C	0.722053	0.697118	0.285432
C215	C	1.055387	1.030451	0.618765
C216	C	1.388720	1.363785	0.952099
C217	C	0.722024	0.642527	0.285418
C218	C	1.055357	0.975860	0.618751
C219	C	1.388690	1.309193	0.952085
N220	N	0.755475	0.615206	0.252016
N221	N	1.088809	0.948540	0.585349
N222	N	1.422142	1.281873	0.918683
C223	C	0.788944	0.642490	0.218618
C224	C	1.122278	0.975823	0.551952
C225	C	1.455611	1.309156	0.885285
C226	C	0.722141	0.975602	0.285457
C227	C	1.055474	1.308936	0.618790
C228	C	1.388808	1.642269	0.952123
C229	C	0.722155	1.030204	0.285459
C230	C	1.055489	1.363538	0.618793
C231	C	1.388822	1.696871	0.952126
C232	C	0.789078	1.030167	0.218656
C233	C	1.122412	1.363501	0.551990
C234	C	1.455745	1.696834	0.885323
C235	C	0.789061	0.975564	0.218652
C236	C	1.122395	1.308897	0.551985
C237	C	1.455728	1.642231	0.885318
C238	C	0.755593	0.948282	0.252055
C239	C	1.088926	1.281615	0.585388
C240	C	1.422260	1.614949	0.918721
C241	C	0.788897	0.527824	0.218605
C242	C	1.122231	0.861158	0.551938
C243	C	1.455564	1.194491	0.885272
C244	C	0.788872	0.473219	0.218599
C245	C	1.122205	0.806552	0.551932
C246	C	1.455538	1.139886	0.885265
C247	C	0.721951	0.473261	0.285403
C248	C	1.055284	0.806594	0.618737
C249	C	1.388617	1.139928	0.952070
C250	C	0.721974	0.527862	0.285408
C251	C	1.055307	0.861195	0.618741
C252	C	1.388641	1.194528	0.952074
C253	C	0.755452	0.555142	0.252007
C254	C	1.088785	0.888475	0.585340
C255	C	1.422118	1.221809	0.918673
O256	O	0.693562	0.614260	0.313793
O257	O	1.026895	0.947593	0.647127
O258	O	1.360229	1.280926	0.980460
O259	O	0.817396	0.614231	0.190216
O260	O	1.150729	0.947564	0.523549
O261	O	1.484062	1.280898	0.856883
C262	C	0.755494	0.251951	0.116170
C263	C	1.088827	0.585284	0.449504
C264	C	1.422160	0.918617	0.782837
C265	C	0.755588	0.251807	0.058057
C266	C	1.088921	0.585141	0.391390
C267	C	1.422254	0.918474	0.724723
C268	C	0.789012	0.218432	0.806886
C269	C	1.122346	0.551765	1.140220
C270	C	1.455679	0.885098	1.473553
C271	C	0.789019	0.218417	0.861491
C272	C	1.122352	0.551751	1.194824
C273	C	1.455685	0.885084	1.528157
O274	O	0.817466	0.189967	0.889747
O275	O	1.150799	0.523300	1.223080
O276	O	1.484133	0.856633	1.556414
N277	N	0.755562	0.251844	0.888783
N278	N	1.088895	0.585177	1.222116
N279	N	1.422229	0.918510	1.555449
C280	C	0.722093	0.285283	0.861468
C281	C	1.055426	0.618616	1.194801
C282	C	1.388760	0.951950	1.528134
O283	O	0.693636	0.313713	0.889695
O284	O	1.026969	0.647046	1.223029
O285	O	1.360302	0.980380	1.556362
C286	C	0.722084	0.285294	0.806864
C287	C	1.055418	0.618628	1.140198
C288	C	1.388751	0.951961	1.473531
C289	C	0.755547	0.251870	0.779575
C290	C	1.088880	0.585203	1.112908
C291	C	1.422214	0.918536	1.446242
C292	C	0.822472	0.185009	0.779597
C293	C	1.155805	0.518343	1.112930
C294	C	1.489138	0.851676	1.446264
C295	C	0.822466	0.185025	0.724997
C296	C	1.155799	0.518358	1.058330
C297	C	1.489133	0.851691	1.391663
C298	C	0.789000	0.218462	0.697685
C299	C	1.122334	0.551796	1.031019
C300	C	1.455667	0.885129	1.364352
C301	C	0.755541	0.251885	0.724974
C302	C	1.088874	0.585218	1.058308
C303	C	1.422208	0.918552	1.391641
C304	C	0.688613	0.318731	0.779550
C305	C	1.021946	0.652064	1.112883
C306	C	1.355280	0.985397	1.446217
C307	C	0.688607	0.318739	0.724943
C308	C	1.021940	0.652072	1.058276
C309	C	1.355273	0.985406	1.391610
C310	C	0.722069	0.285314	0.697654
C311	C	1.055403	0.618648	1.030987
C312	C	1.388736	0.951981	1.364320
C313	C	0.722070	0.285338	0.643063
C314	C	1.055403	0.618671	0.976396
C315	C	1.388736	0.952005	1.309729
N316	N	0.755526	0.251912	0.615771
N317	N	1.088860	0.585245	0.949104
N318	N	1.422193	0.918578	1.282437
C319	C	0.788992	0.218474	0.643082
C320	C	1.122325	0.551807	0.976415
C321	C	1.455658	0.885140	1.309749
C322	C	0.722113	0.285256	0.976138
C323	C	1.055446	0.618589	1.309472
C324	C	1.388780	0.951923	1.642805
C325	C	0.722124	0.285247	1.030741
C326	C	1.055457	0.618581	1.364074
C327	C	1.388791	0.951914	1.697407
C328	C	0.789049	0.218381	1.030760
C329	C	1.122383	0.551714	1.364093
C330	C	1.455716	0.885048	1.697427
C331	C	0.789041	0.218392	0.976157
C332	C	1.122374	0.551726	1.309490
C333	C	1.455707	0.885059	1.642823
C334	C	0.755570	0.251829	0.948846
C335	C	1.088903	0.585163	1.282180
C336	C	1.422237	0.918496	1.615513
C337	C	0.788977	0.218509	0.528417
C338	C	1.122311	0.551842	0.861750
C339	C	1.455644	0.885175	1.195083
C340	C	0.788970	0.218529	0.473811
C341	C	1.122303	0.551862	0.807145
C342	C	1.455636	0.885195	1.140478
C343	C	0.722043	0.285393	0.473797
C344	C	1.055376	0.618726	0.807130
C345	C	1.388710	0.952060	1.140463
C346	C	0.722052	0.285375	0.528397
C347	C	1.055385	0.618709	0.861731
C348	C	1.388719	0.952042	1.195064
C349	C	0.755521	0.251929	0.555706
C350	C	1.088854	0.585262	0.889039
C351	C	1.422187	0.918596	1.222373
O352	O	0.693635	0.313773	0.614771
O353	O	1.026969	0.647106	0.948105
O354	O	1.360302	0.980439	1.281438
O355	O	0.817439	0.190044	0.614847
O356	O	1.150773	0.523377	0.948181
O357	O	1.484106	0.856710	1.281514
H358	H	0.556449	0.312723	0.312530
H359	H	0.889782	0.646057	0.645864
H360	H	1.223115	0.979390	0.979197
H361	H	0.694883	0.953392	0.312656
H362	H	1.028216	1.286725	0.645989
H363	H	1.361550	1.620058	0.979323
H364	H	0.054103	0.312760	0.312609
H365	H	0.387436	0.646094	0.645942
H366	H	0.720769	0.979427	0.979275
C367	C	0.825898	1.060183	0.181921
C368	C	1.159231	1.393517	0.515255
C369	C	1.492565	1.726850	0.848588
H370	H	0.845817	1.036096	0.162022
H371	H	1.179151	1.369430	0.495355
H372	H	1.512484	1.702763	0.828688
H373	H	0.848669	1.081454	0.201951
H374	H	1.182003	1.414788	0.535285
H375	H	1.515336	1.748121	0.868618
H376	H	0.805916	1.081513	0.159120
H377	H	1.139250	1.414846	0.492454
H378	H	1.472583	1.748179	0.825787
C379	C	-0.052754	0.181687	0.181973
C380	C	0.280579	0.515020	0.515307
C381	C	0.613912	0.848354	0.848640
H382	H	-0.089185	0.186483	0.186754
H383	H	0.244148	0.519816	0.520087
H384	H	0.577482	0.853149	0.853421
H385	H	-0.043778	0.146570	0.189691
H386	H	0.289556	0.479904	0.523024
H387	H	0.622889	0.813237	0.856357
H388	H	-0.043829	0.189287	0.146826
H389	H	0.289505	0.522621	0.480160
H390	H	0.622838	0.855954	0.813493
H391	H	0.661376	0.801275	0.346049
H392	H	0.994709	1.134608	0.679383
H393	H	1.328042	1.467942	1.012716
C394	C	0.825718	0.557825	0.181861
C395	C	1.159051	0.891159	0.515194
C396	C	1.492384	1.224492	0.848528
H397	H	0.845629	0.533729	0.161964
H398	H	1.178962	0.867063	0.495297
H399	H	1.512295	1.200396	0.828631
H400	H	0.848497	0.579097	0.201882
H401	H	1.181830	0.912430	0.535215
H402	H	1.515163	1.245763	0.868548
H403	H	0.805737	0.579153	0.159058
H404	H	1.139070	0.912486	0.492391
H405	H	1.472403	1.245820	0.825725
H406	H	0.694699	0.451039	0.312594
H407	H	1.028032	0.784372	0.645927
H408	H	1.361366	1.117705	0.979260
C409	C	0.061900	0.181676	0.181955
C410	C	0.395233	0.515009	0.515289
C411	C	0.728566	0.848343	0.848622
H412	H	0.037815	0.161742	0.162079
H413	H	0.371148	0.495075	0.495412
H414	H	0.704482	0.828408	0.828746
H415	H	0.083223	0.158920	0.201990
H416	H	0.416556	0.492253	0.535323
H417	H	0.749889	0.825587	0.868657
H418	H	0.083177	0.201644	0.159132
H419	H	0.416510	0.534977	0.492466
H420	H	0.749844	0.868310	0.825799
H421	H	0.694798	0.312619	0.451550
H422	H	1.028131	0.645952	0.784883
H423	H	1.361464	0.979285	1.118217
C424	C	0.859270	0.148252	0.694985
C425	C	1.192603	0.481585	1.028319
C426	C	1.525937	0.814919	1.361652
H427	H	0.879195	0.128335	0.719078
H428	H	1.212528	0.461668	1.052411
H429	H	1.545862	0.795001	1.385744
H430	H	0.882036	0.168255	0.673687
H431	H	1.215370	0.501588	1.007020
H432	H	1.548703	0.834921	1.340353
H433	H	0.839280	0.125469	0.673684
H434	H	1.172614	0.458802	1.007018
H435	H	1.505947	0.792136	1.340351
H436	H	0.457399	0.312726	0.312556
H437	H	0.790732	0.646059	0.645890
H438	H	1.124065	0.979392	0.979223
H439	H	0.816111	0.450979	0.191392
H440	H	1.149444	0.784312	0.524725
H441	H	1.482777	1.117646	0.858059
H442	H	0.305272	0.346225	0.345950
H443	H	0.638606	0.679559	0.679284
H444	H	0.971939	1.012892	1.012617
C445	C	0.685319	0.322018	1.060753
C446	C	1.018652	0.655352	1.394086
C447	C	1.351986	0.988685	1.727419
H448	H	0.665387	0.341930	1.036662
H449	H	0.998720	0.675264	1.369995
H450	H	1.332053	1.008597	1.703329
H451	H	0.705301	0.344798	1.082059
H452	H	1.038634	0.678131	1.415392
H453	H	1.371968	1.011465	1.748725
H454	H	0.662551	0.302006	1.082047
H455	H	0.995885	0.635340	1.415380
H456	H	1.329218	0.968673	1.748713
C457	C	0.198424	0.355800	0.355501
C458	C	0.531758	0.689133	0.688835
C459	C	0.865091	1.022466	1.022168
H460	H	0.161993	0.351011	0.350733
H461	H	0.495326	0.684345	0.684067
H462	H	0.828660	1.017678	1.017400
H463	H	0.207357	0.390914	0.347782
H464	H	0.540691	0.724248	0.681115
H465	H	0.874024	1.057581	1.014449
H466	H	0.207397	0.348196	0.390645
H467	H	0.540730	0.681530	0.723978
H468	H	0.874064	1.014863	1.057312
H469	H	0.661345	0.345963	0.702710
H470	H	0.994678	0.679296	1.036043
H471	H	1.328011	1.012629	1.369376
H472	H	0.849709	0.801185	0.158037
H473	H	1.183042	1.134518	0.491370
H474	H	1.516376	1.467851	0.824704
C475	C	0.825862	0.181601	1.060809
C476	C	1.159196	0.514934	1.394143
C477	C	1.492529	0.848268	1.727476
H478	H	0.821070	0.186381	1.097237
H479	H	1.154403	0.519715	1.430570
H480	H	1.487737	0.853048	1.763903
H481	H	0.860985	0.189261	1.051870
H482	H	1.194318	0.522594	1.385203
H483	H	1.527652	0.855927	1.718537
H484	H	0.818235	0.146469	1.051866
H485	H	1.151569	0.479802	1.385200
H486	H	1.484902	0.813135	1.718533
C487	C	0.859290	0.148228	0.809631
C488	C	1.192623	0.481561	1.142965
C489	C	1.525957	0.814894	1.476298
H490	H	0.879216	0.128330	0.785551
H491	H	1.212549	0.461663	1.118885
H492	H	1.545882	0.794997	1.452218
H493	H	0.839319	0.125434	0.830933
H494	H	1.172652	0.458768	1.164266
H495	H	1.505985	0.792101	1.497599
H496	H	0.882063	0.168231	0.830931
H497	H	1.215397	0.501564	1.164265
H498	H	1.548730	0.834898	1.497598
C499	C	-0.052762	0.322329	0.322160
C500	C	0.280571	0.655663	0.655493
C501	C	0.613904	0.988996	0.988827
H502	H	-0.089191	0.317529	0.317385
H503	H	0.244142	0.650863	0.650718
H504	H	0.577475	0.984196	0.984052
H505	H	-0.043840	0.357449	0.314448
H506	H	0.289493	0.690782	0.647782
H507	H	0.622827	1.024115	0.981115
H508	H	-0.043793	0.314723	0.357304
H509	H	0.289541	0.648056	0.690637
H510	H	0.622874	0.981390	1.023970
H511	H	0.556454	0.191211	0.191422
H512	H	0.889787	0.524545	0.524756
H513	H	1.223121	0.857878	0.858089
C514	C	0.651787	0.694428	0.355584
C515	C	0.985121	1.027761	0.688918
C516	C	1.318454	1.361095	1.022251
H517	H	0.631868	0.718521	0.375477
H518	H	0.965202	1.051854	0.708811
H519	H	1.298535	1.385188	1.042144
H520	H	0.671765	0.673098	0.378383
H521	H	1.005098	1.006431	0.711717
H522	H	1.338431	1.339764	1.045050
H523	H	0.629007	0.673159	0.335557
H524	H	0.962341	1.006492	0.668890
H525	H	1.295674	1.339826	1.002224
C526	C	0.685357	1.060248	0.322205
C527	C	1.018690	1.393581	0.655538
C528	C	1.352024	1.726914	0.988872
H529	H	0.665426	1.036174	0.342095
H530	H	0.998759	1.369507	0.675428
H531	H	1.332092	1.702841	1.008762
H532	H	0.662596	1.081581	0.302186
H533	H	0.995929	1.414914	0.635520
H534	H	1.329263	1.748248	0.968853
H535	H	0.705352	1.081517	0.345014
H536	H	1.038686	1.414850	0.678347
H537	H	1.372019	1.748183	1.011681
H538	H	0.816300	0.953325	0.191448
H539	H	1.149633	1.286659	0.524782
H540	H	1.482966	1.619992	0.858115
H541	H	0.694809	0.312597	0.550617
H542	H	1.028142	0.645931	0.883951
H543	H	1.361475	0.979264	1.217284
C544	C	0.685179	0.557912	0.322155
C545	C	1.018513	0.891245	0.655488
C546	C	1.351846	1.224579	0.988821
H547	H	0.665246	0.533840	0.342045
H548	H	0.998579	0.867174	0.675379
H549	H	1.331912	1.200507	1.008712
H550	H	0.662420	0.579249	0.302138
H551	H	0.995754	0.912582	0.635471
H552	H	1.329087	1.245916	0.968804
H553	H	0.705179	0.579177	0.344963
H554	H	1.038512	0.912511	0.678296
H555	H	1.371846	1.245844	1.011630
H556	H	0.206233	0.157734	0.158106
H557	H	0.539567	0.491067	0.491440
H558	H	0.872900	0.824400	0.824773
H559	H	0.816288	0.191174	0.953941
H560	H	1.149621	0.524507	1.287275
H561	H	1.482955	0.857841	1.620608
C562	C	0.685305	0.322051	0.946101
C563	C	1.018638	0.655384	1.279435
C564	C	1.351971	0.988717	1.612768
H565	H	0.665388	0.341959	0.970179
H566	H	0.998721	0.675292	1.303513
H567	H	1.332054	1.008626	1.636846
H568	H	0.662531	0.302062	0.924793
H569	H	0.995864	0.635395	1.258127
H570	H	1.329197	0.968728	1.591460
H571	H	0.705293	0.344841	0.924808
H572	H	1.038626	0.678174	1.258141
H573	H	1.371960	1.011508	1.591474
H574	H	0.816221	0.191310	0.451595
H575	H	1.149554	0.524643	0.784928
H576	H	1.482888	0.857976	1.118262
H577	H	0.849670	0.702137	0.158024
H578	H	1.183003	1.035471	0.491357
H579	H	1.516337	1.368804	0.824690
C580	C	0.313085	0.148155	0.148564
C581	C	0.646419	0.481489	0.481897
C582	C	0.979752	0.814822	0.815231
H583	H	0.289003	0.128216	0.128690
H584	H	0.622336	0.461549	0.462023
H585	H	0.955669	0.794883	0.795357
H586	H	0.334409	0.125404	0.168603
H587	H	0.667742	0.458737	0.501937
H588	H	1.001075	0.792070	0.835270
H589	H	0.334362	0.168120	0.125739
H590	H	0.667696	0.501454	0.459072
H591	H	1.001029	0.834787	0.792406
H592	H	0.816229	0.191272	0.550645
H593	H	1.149562	0.524605	0.883978
H594	H	1.482896	0.857939	1.217312
C595	C	0.651799	0.355494	0.809556
C596	C	0.985132	0.688827	1.142890
C597	C	1.318465	1.022161	1.476223
H598	H	0.631865	0.375401	0.785463
H599	H	0.965198	0.708734	1.118796
H600	H	1.298531	1.042068	1.452130
H601	H	0.671775	0.378279	0.830863
H602	H	1.005108	0.711612	1.164196
H603	H	1.338442	1.044945	1.497529
H604	H	0.629033	0.335479	0.830849
H605	H	0.962366	0.668812	1.164182
H606	H	1.295700	1.002145	1.497516
H607	H	0.457387	0.191213	0.191436
H608	H	0.790720	0.524546	0.524770
H609	H	1.124053	0.857879	0.858103
