data_functionalizedCrystal
_audit_creation_method	'MofGen! by Chris Wilmer'
_symmetry_space_group_name_H-M	'P1'
_symmetry_Int_Tables_number	1
_symmetry_cell_setting	triclinic
loop_
_symmetry_equiv_pos_as_xyz
  x,y,z
_cell_length_a	8.497374
_cell_length_b	8.497374
_cell_length_c	18.101398
_cell_angle_alpha	90.003639
_cell_angle_beta	90.008882
_cell_angle_gamma	90.005237
loop_
_atom_site_label
_atom_site_type_symbol
_atom_site_fract_x
_atom_site_fract_y
_atom_site_fract_z
Zn1	Zn	0.892408	0.628529	1.132163
Zn2	Zn	0.628673	0.892274	1.132157
Zn3	Zn	0.628602	0.628480	1.008355
Zn4	Zn	0.892372	0.892239	1.008337
O5	O	0.760514	0.760381	1.070253
O6	O	0.857467	0.663550	1.235795
O7	O	0.407901	0.857276	1.115739
O8	O	0.663581	0.407724	1.024788
O9	O	0.663703	0.857323	1.235790
O10	O	0.857398	0.407760	1.115749
O11	O	0.407849	0.663468	1.024782
O12	O	0.663547	0.663433	0.904720
O13	O	1.113139	0.857262	1.024758
O14	O	0.857337	0.857216	0.904707
O15	O	1.113165	0.663516	1.115732
O16	O	0.663668	1.113032	1.115722
O17	O	0.857406	1.113006	1.024752
C18	C	0.760431	0.760317	0.877842
C19	C	0.760434	0.760327	0.795528
C20	C	1.171994	0.760383	1.070247
C21	C	1.350638	0.760400	1.070249
C22	C	0.760536	1.170260	1.070244
C23	C	0.760511	1.348904	1.070263
C24	C	0.760566	0.760426	0.496437
C25	C	0.639233	0.637894	0.527746
C26	C	0.638715	0.638222	0.613364
C27	C	0.760500	0.760375	0.644820
C28	C	0.715123	0.926545	0.613748
C29	C	0.714279	0.925864	0.528103
C30	C	0.927563	0.718232	0.528020
C31	C	0.926650	0.714531	0.613670
C32	C	0.760466	0.760357	0.728679
C33	C	0.760597	0.760455	0.412578
C34	C	0.760597	0.760446	1.263415
C35	C	0.760633	0.760474	1.345729
H36	H	0.667153	0.514999	0.634371
O37	O	0.571202	0.970174	0.639434
C38	C	0.422074	1.160383	0.709047
C39	C	0.585147	1.111151	0.679998
H40	H	0.433288	1.274384	0.741835
H41	H	0.373277	1.063882	0.746322
H42	H	0.338902	1.179379	0.660436
H43	H	0.668437	1.092175	0.728562
H44	H	0.633815	1.207677	0.642701
H45	H	0.800732	1.020284	0.634125
O46	O	0.672706	0.490509	0.503049
C47	C	0.703948	0.320945	0.397359
C48	C	0.665950	0.487920	0.425229
H49	H	0.698532	0.318804	0.334438
H50	H	0.614471	0.234240	0.420716
H51	H	0.827095	0.286197	0.416296
H52	H	0.542845	0.522816	0.406301
H53	H	0.755526	0.574527	0.401878
O54	O	0.967751	0.568743	0.637919
C55	C	1.154468	0.413411	0.706632
C56	C	1.108128	0.578599	0.679204
H57	H	1.267948	0.421328	0.740030
H58	H	1.173175	0.332283	0.657245
H59	H	1.056505	0.364339	0.742972
H60	H	1.206034	0.627812	0.642878
H61	H	1.089367	0.659619	0.728625
O62	O	0.492325	0.670707	0.502221
C63	C	0.225054	0.738337	0.533363
C64	C	0.391362	0.701182	0.562350
H65	H	0.143387	0.763018	0.581962
H66	H	0.178607	0.633454	0.500688
H67	H	0.230082	0.846166	0.495967
H68	H	0.386467	0.593401	0.599775
H69	H	0.437744	0.806151	0.594983
H70	H	0.514971	0.666112	0.633840
H71	H	1.021893	0.797277	0.635084
H72	H	0.968829	0.599173	0.506414
O73	O	0.568743	0.968810	0.504216
C74	C	0.415677	1.154504	0.433795
C75	C	0.580585	1.106066	0.460804
H76	H	0.425199	1.265460	0.398678
H77	H	0.336605	1.178467	0.483410
H78	H	0.363147	1.055357	0.399258
H79	H	0.633254	1.205153	0.495328
H80	H	0.659546	1.082050	0.411157
O81	O	0.815124	1.038570	0.503515
C82	C	0.998641	1.243108	0.536427
C83	C	0.884460	1.115555	0.564368
H84	H	1.054756	1.305364	0.585611
H85	H	0.931380	1.332318	0.501559
H86	H	1.094406	1.185984	0.501415
H87	H	0.788671	1.172541	0.599410
H88	H	0.951831	1.026360	0.599196
H89	H	1.017967	0.807480	0.507774
