data_functionalizedCrystal
_audit_creation_method	'MofGen! by Chris Wilmer'
_symmetry_space_group_name_H-M	'P1'
_symmetry_Int_Tables_number	1
_symmetry_cell_setting	triclinic
loop_
_symmetry_equiv_pos_as_xyz
  x,y,z
_cell_length_a	19.188933
_cell_length_b	15.995350
_cell_length_c	15.072220
_cell_angle_alpha	89.994173
_cell_angle_beta	90.003485
_cell_angle_gamma	96.681028
loop_
_atom_site_label
_atom_site_type_symbol
_atom_site_fract_x
_atom_site_fract_y
_atom_site_fract_z
O1	O	0.926410	-0.104545	0.073749
O2	O	1.259743	0.228788	0.407082
O3	O	1.593077	0.562121	0.740415
O4	O	0.723135	-0.118616	0.073756
O5	O	1.056468	0.214718	0.407090
O6	O	1.389802	0.548051	0.740423
O7	O	0.830329	0.010328	0.073751
O8	O	1.163663	0.343661	0.407085
O9	O	1.496996	0.676994	0.740418
O10	O	0.819216	-0.233488	0.073754
O11	O	1.152549	0.099845	0.407087
O12	O	1.485883	0.433178	0.740420
O13	O	0.830320	0.010339	-0.073814
O14	O	1.163653	0.343673	0.259520
O15	O	1.496987	0.677006	0.592853
O16	O	0.723126	-0.118604	-0.073809
O17	O	1.056459	0.214730	0.259525
O18	O	1.389792	0.548063	0.592858
O19	O	0.926401	-0.104533	-0.073816
O20	O	1.259734	0.228800	0.259517
O21	O	1.593068	0.562133	0.592850
Zn22	Zn	0.824762	-0.111567	-0.097242
Zn23	Zn	1.158095	0.221767	0.236092
Zn24	Zn	1.491428	0.555100	0.569425
Zn25	Zn	0.824774	-0.111582	0.097182
Zn26	Zn	1.158107	0.221751	0.430515
Zn27	Zn	1.491441	0.555084	0.763848
O28	O	0.819207	-0.233476	-0.073812
O29	O	1.152540	0.099857	0.259522
O30	O	1.485873	0.433190	0.592855
C31	C	0.829865	0.041527	-0.000029
C32	C	1.163198	0.374860	0.333304
C33	C	1.496532	0.708193	0.666637
C34	C	0.828488	0.134472	-0.000024
C35	C	1.161821	0.467805	0.333309
C36	C	1.495154	0.801139	0.666642
C37	C	0.697118	-0.118154	-0.000025
C38	C	1.030451	0.215180	0.333308
C39	C	1.363785	0.548513	0.666641
C40	C	0.619610	-0.116785	-0.000022
C41	C	0.952944	0.216548	0.333311
C42	C	1.286277	0.549882	0.666645
N43	N	0.824758	-0.111555	-0.229931
N44	N	1.158092	0.221778	0.103403
N45	N	1.491425	0.555111	0.436736
C46	C	0.066335	-0.107024	0.080406
C47	C	0.399668	0.226310	0.413739
C48	C	0.733002	0.559643	0.747073
C49	C	0.139163	-0.108305	0.080409
C50	C	0.472496	0.225029	0.413743
C51	C	0.805829	0.558362	0.747076
C52	C	0.175576	-0.108942	-0.000028
C53	C	0.508909	0.224391	0.333305
C54	C	0.842243	0.557724	0.666639
C55	C	0.139158	-0.108278	-0.080475
C56	C	0.472492	0.225056	0.252858
C57	C	0.805825	0.558389	0.586192
C58	C	0.066333	-0.106988	-0.080476
C59	C	0.399667	0.226345	0.252857
C60	C	0.733000	0.559678	0.586191
N61	N	0.284719	-0.158608	-0.059901
N62	N	0.618052	0.174726	0.273432
N63	N	0.951385	0.508059	0.606766
N64	N	0.353899	-0.159834	-0.059894
N65	N	0.687233	0.173499	0.273439
N66	N	1.020566	0.506832	0.606772
C67	C	0.394995	-0.112825	-0.000029
C68	C	0.728328	0.220508	0.333304
C69	C	1.061661	0.553841	0.666637
N70	N	0.364294	-0.064554	0.059842
N71	N	0.697628	0.268779	0.393175
N72	N	1.030961	0.602113	0.726509
N73	N	0.295107	-0.063331	0.059838
N74	N	0.628440	0.270002	0.393171
N75	N	0.961774	0.603336	0.726505
C76	C	0.254543	-0.110340	-0.000036
C77	C	0.587876	0.222993	0.333298
C78	C	0.921210	0.556327	0.666631
C79	C	0.510372	-0.114873	0.080416
C80	C	0.843705	0.218460	0.413749
C81	C	1.177039	0.551794	0.747083
C82	C	0.583201	-0.116149	0.080416
C83	C	0.916535	0.217185	0.413749
C84	C	1.249868	0.550518	0.747083
C85	C	0.583195	-0.116130	-0.080471
C86	C	0.916528	0.217203	0.252863
C87	C	1.249862	0.550536	0.586196
C88	C	0.510368	-0.114846	-0.080468
C89	C	0.843701	0.218487	0.252865
C90	C	1.177035	0.551821	0.586198
C91	C	0.473960	-0.114222	-0.000023
C92	C	0.807294	0.219112	0.333311
C93	C	1.140627	0.552445	0.666644
C94	C	0.952418	-0.104995	-0.000033
C95	C	1.285751	0.228338	0.333300
C96	C	1.619084	0.561671	0.666634
C97	C	1.029926	-0.106364	-0.000030
C98	C	1.363259	0.226970	0.333303
C99	C	1.696592	0.560303	0.666636
C100	C	0.819671	-0.264675	-0.000029
C101	C	1.153004	0.068658	0.333305
C102	C	1.486337	0.401991	0.666638
C103	C	0.821048	-0.357621	-0.000028
C104	C	1.154381	-0.024287	0.333305
C105	C	1.487715	0.309046	0.666639
C106	C	0.823541	0.472201	-0.000027
C107	C	1.156874	0.805535	0.333306
C108	C	1.490208	1.138868	0.666640
C109	C	0.747199	0.424488	0.000307
C110	C	1.080533	0.757822	0.333640
C111	C	1.413866	1.091155	0.666973
C112	C	0.748577	0.327803	-0.000026
C113	C	1.081910	0.661136	0.333307
C114	C	1.415244	0.994470	0.666641
C115	C	0.825995	0.304650	-0.000025
C116	C	1.159328	0.637983	0.333308
C117	C	1.492661	0.971316	0.666641
C118	C	0.863644	0.345872	-0.084292
C119	C	1.196977	0.679205	0.249041
C120	C	1.530311	1.012538	0.582375
C121	C	0.861726	0.442500	-0.084362
C122	C	1.195059	0.775834	0.248971
C123	C	1.528393	1.109167	0.582304
C124	C	0.863314	0.442851	0.083447
C125	C	1.196647	0.776184	0.416780
C126	C	1.529980	1.109517	0.750113
C127	C	0.863296	0.345905	0.084560
C128	C	1.196629	0.679239	0.417894
C129	C	1.529962	1.012572	0.751227
C130	C	0.827385	0.209957	-0.000027
C131	C	1.160719	0.543291	0.333306
C132	C	1.494052	0.876624	0.666640
C133	C	0.822153	0.566894	-0.000031
C134	C	1.155486	0.900227	0.333302
C135	C	1.488819	1.233561	0.666635
C136	C	0.824767	-0.111566	-0.410928
C137	C	1.158100	0.221767	-0.077595
C138	C	1.491433	0.555100	0.255739
C139	C	0.882138	-0.042595	-0.448572
C140	C	1.215471	0.290738	-0.115239
C141	C	1.548804	0.624072	0.218095
C142	C	0.882346	-0.042777	-0.551398
C143	C	1.215679	0.290556	-0.218064
C144	C	1.549012	0.623889	0.115269
C145	C	0.824775	-0.111576	-0.589132
C146	C	1.158108	0.221757	-0.255799
C147	C	1.491441	0.555091	0.077535
C148	C	0.840385	-0.198991	-0.551787
C149	C	1.173718	0.134342	-0.218453
C150	C	1.507051	0.467675	0.114880
C151	C	0.840792	-0.198581	-0.448929
C152	C	1.174125	0.134752	-0.115596
C153	C	1.507458	0.468086	0.217738
C154	C	0.751614	-0.093910	-0.448844
C155	C	1.084947	0.239423	-0.115511
C156	C	1.418280	0.572756	0.217822
C157	C	0.752109	-0.091929	-0.551709
C158	C	1.085442	0.241404	-0.218376
C159	C	1.418776	0.574737	0.114958
C160	C	0.824778	-0.111587	-0.689845
C161	C	1.158111	0.221747	-0.356512
C162	C	1.491444	0.555080	-0.023179
C163	C	0.824765	-0.111561	-0.310215
C164	C	1.158098	0.221772	0.023119
C165	C	1.491432	0.555105	0.356452
N166	N	0.824783	-0.111587	0.229870
N167	N	1.158116	0.221746	0.563204
N168	N	1.491449	0.555080	0.896537
H169	H	0.036697	-0.106512	0.145911
H170	H	0.370030	0.226822	0.479245
H171	H	0.703363	0.560155	0.812578
F172	F	0.827594	0.309763	0.166053
F173	F	1.160927	0.643097	0.499387
F174	F	1.494260	0.976430	0.832720
F175	F	0.471616	-0.114155	-0.166081
F176	F	0.804949	0.219178	0.167253
F177	F	1.138282	0.552512	0.500586
H178	H	0.718982	0.299268	0.060380
H179	H	1.052315	0.632601	0.393713
H180	H	1.385649	0.965935	0.727046
H181	H	0.920520	0.331954	-0.087425
H182	H	1.253854	0.665287	0.245908
H183	H	1.587187	0.998621	0.579241
H184	H	0.612843	-0.116646	-0.145964
H185	H	0.946176	0.216687	0.187369
H186	H	1.279509	0.550020	0.520702
H187	H	0.612845	-0.116680	0.145920
H188	H	0.946179	0.216654	0.479253
H189	H	1.279512	0.549987	0.812586
H190	H	0.716690	0.442904	0.060736
H191	H	1.050023	0.776237	0.394069
H192	H	1.383357	1.109570	0.727403
F193	F	0.177920	-0.109008	0.166024
F194	F	0.511253	0.224325	0.499357
F195	F	0.844587	0.557659	0.832691
F196	F	0.825829	0.466299	-0.166694
F197	F	1.159162	0.799633	0.166639
F198	F	1.492496	1.132966	0.499973
F199	F	0.177913	-0.108954	-0.166082
F200	F	0.511247	0.224380	0.167251
F201	F	0.844580	0.557713	0.500585
F202	F	0.707386	0.450241	-0.078020
F203	F	1.040719	0.783574	0.255313
F204	F	1.374052	1.116908	0.588646
F205	F	0.936883	0.484634	0.084190
F206	F	1.270217	0.817967	0.417523
F207	F	1.603550	1.151300	0.750856
F208	F	0.027582	-0.106288	-0.166091
F209	F	0.360916	0.227045	0.167242
F210	F	0.694249	0.560378	0.500575
H211	H	0.718775	0.299834	-0.060533
H212	H	1.052109	0.633168	0.272801
H213	H	1.385442	0.966501	0.606134
F214	F	0.829456	0.308660	-0.166259
F215	F	1.162789	0.641993	0.167075
F216	F	1.496123	0.975326	0.500408
H217	H	0.919752	0.330749	0.089649
H218	H	1.253086	0.664082	0.422982
H219	H	1.586419	0.997416	0.756315
H220	H	0.838358	0.463294	0.147316
H221	H	1.171691	0.796627	0.480649
H222	H	1.505025	1.129961	0.813982
H223	H	0.917775	0.474954	-0.088185
H224	H	1.251108	0.808287	0.245148
H225	H	1.584442	1.141620	0.578481
H226	H	0.873095	0.022200	-0.576649
H227	H	1.206429	0.355533	-0.243315
H228	H	1.539762	0.688867	0.090018
F229	F	0.870246	0.042624	-0.416257
F230	F	1.203580	0.375958	-0.082924
F231	F	1.536913	0.709291	0.250409
H232	H	0.480728	-0.114362	0.145920
H233	H	0.814061	0.218972	0.479253
H234	H	1.147394	0.552305	0.812586
H235	H	0.936122	-0.053713	-0.422708
H236	H	1.269455	0.279620	-0.089375
H237	H	1.602789	0.612954	0.243958
F238	F	0.953309	-0.057541	-0.583559
F239	F	1.286642	0.275792	-0.250226
F240	F	1.619976	0.609126	0.083108
H241	H	0.894132	-0.214129	-0.424934
H242	H	1.227466	0.119204	-0.091600
H243	H	1.560799	0.452538	0.241733
F244	F	0.788638	-0.268114	-0.416377
F245	F	1.121972	0.065219	-0.083044
F246	F	1.455305	0.398553	0.250290
H247	H	0.799698	-0.251557	-0.576227
H248	H	1.133031	0.081776	-0.242894
H249	H	1.466364	0.415110	0.090439
F250	F	0.909307	-0.219814	-0.585450
F251	F	1.242641	0.113519	-0.252116
F252	F	1.575974	0.446853	0.081217
F253	F	0.731911	-0.012365	-0.414953
F254	F	1.065244	0.320969	-0.081620
F255	F	1.398578	0.654302	0.251714
F256	F	0.736607	-0.007885	-0.583630
F257	F	1.069941	0.325448	-0.250297
F258	F	1.403274	0.658782	0.083036
F259	F	0.693720	-0.153335	-0.585273
F260	F	1.027054	0.179998	-0.251940
F261	F	1.360387	0.513332	0.081393
H262	H	0.708924	-0.144208	-0.424499
H263	H	1.042257	0.189126	-0.091166
H264	H	1.375590	0.522459	0.242167
