data_functionalizedCrystal
_audit_creation_method	'MofGen! by Chris Wilmer'
_symmetry_space_group_name_H-M	'P1'
_symmetry_Int_Tables_number	1
_symmetry_cell_setting	triclinic
loop_
_symmetry_equiv_pos_as_xyz
  x,y,z
_cell_length_a	25.639242
_cell_length_b	25.639233
_cell_length_c	25.639239
_cell_angle_alpha	89.981253
_cell_angle_beta	90.034213
_cell_angle_gamma	89.977834
loop_
_atom_site_label
_atom_site_type_symbol
_atom_site_fract_x
_atom_site_fract_y
_atom_site_fract_z
Zn1	Zn	0.799225	-0.295742	-0.208277
Zn2	Zn	0.799149	-0.208307	-0.295696
Zn3	Zn	0.711801	-0.208306	-0.208269
Zn4	Zn	0.711746	-0.295696	-0.295676
O5	O	0.755480	-0.252013	-0.251979
O6	O	0.872380	-0.284163	-0.219884
O7	O	0.787553	-0.135141	-0.284103
O8	O	0.723453	-0.219924	-0.135105
O9	O	0.872324	-0.219924	-0.284111
O10	O	0.787683	-0.284163	-0.135111
O11	O	0.723379	-0.135141	-0.219871
O12	O	0.638629	-0.219880	-0.219853
O13	O	0.723360	-0.368868	-0.284078
O14	O	0.638589	-0.284085	-0.284070
O15	O	0.787630	-0.368901	-0.219866
O16	O	0.787499	-0.219880	-0.368858
O17	O	0.723286	-0.284085	-0.368844
C18	C	0.619638	-0.251977	-0.251959
C19	C	0.561524	-0.251975	-0.251963
C20	C	0.755497	-0.388386	-0.251970
C21	C	0.755504	-0.446500	-0.251966
C22	C	0.201149	-0.285413	-0.285473
C23	C	0.146544	-0.285421	-0.285477
O24	O	0.118297	-0.313821	-0.313943
N25	N	0.119241	-0.252047	-0.251994
C26	C	0.146545	-0.218666	-0.218502
O27	O	0.118308	-0.190280	-0.190022
C28	C	0.201149	-0.218661	-0.218496
C29	C	0.228449	-0.252034	-0.251985
C30	C	0.228449	-0.318783	-0.318959
C31	C	0.283049	-0.318774	-0.318956
C32	C	0.310350	-0.285395	-0.285468
C33	C	0.283049	-0.252024	-0.251983
C34	C	0.228452	-0.185283	-0.185002
C35	C	0.283059	-0.185281	-0.185000
C36	C	0.310359	-0.218654	-0.218488
C37	C	0.364950	-0.218636	-0.218492
N38	N	0.392253	-0.252010	-0.251974
C39	C	0.364953	-0.285389	-0.285463
C40	C	0.031875	-0.218680	-0.218515
C41	C	-0.022728	-0.218683	-0.218523
C42	C	-0.022725	-0.285438	-0.285497
C43	C	0.031878	-0.285433	-0.285492
C44	C	0.059178	-0.252054	-0.251998
C45	C	0.479618	-0.285368	-0.285455
C46	C	0.534223	-0.285354	-0.285451
C47	C	0.534216	-0.218601	-0.218475
C48	C	0.479615	-0.218612	-0.218481
C49	C	0.452318	-0.252000	-0.251972
O50	O	0.393232	-0.190252	-0.190038
O51	O	0.393197	-0.313776	-0.313933
C52	C	0.789012	-0.806886	-0.218432
C53	C	0.789019	-0.861491	-0.218417
O54	O	0.817466	-0.889747	-0.189967
N55	N	0.755562	-0.888783	-0.251844
C56	C	0.722093	-0.861468	-0.285283
O57	O	0.693636	-0.889695	-0.313713
C58	C	0.722084	-0.806864	-0.285294
C59	C	0.755547	-0.779575	-0.251870
C60	C	0.822472	-0.779597	-0.185009
C61	C	0.822466	-0.724997	-0.185025
C62	C	0.789000	-0.697685	-0.218462
C63	C	0.755541	-0.724974	-0.251885
C64	C	0.688613	-0.779550	-0.318731
C65	C	0.688607	-0.724943	-0.318739
C66	C	0.722069	-0.697654	-0.285314
C67	C	0.722070	-0.643063	-0.285338
N68	N	0.755526	-0.615771	-0.251912
C69	C	0.788992	-0.643082	-0.218474
C70	C	0.722113	-0.976138	-0.285256
C71	C	0.722124	-1.030741	-0.285247
C72	C	0.789049	-1.030760	-0.218381
C73	C	0.789041	-0.976157	-0.218392
C74	C	0.755570	-0.948846	-0.251829
C75	C	0.788977	-0.528417	-0.218509
C76	C	0.788970	-0.473811	-0.218529
C77	C	0.722043	-0.473797	-0.285393
C78	C	0.722052	-0.528397	-0.285375
C79	C	0.755521	-0.555706	-0.251929
O80	O	0.693635	-0.614771	-0.313773
O81	O	0.817439	-0.614847	-0.190044
C82	C	0.891853	-0.252049	-0.252000
C83	C	0.949967	-0.252064	-0.252009
C84	C	0.755392	-0.251989	-0.387822
C85	C	0.755403	-0.251996	-0.445936
C86	C	0.755494	-0.116170	-0.251951
C87	C	0.755588	-0.058057	-0.251807
C88	C	0.789004	-0.218638	-0.806294
C89	C	0.789024	-0.218645	-0.860898
O90	O	0.817502	-0.190257	-0.889131
N91	N	0.755572	-0.252048	-0.888218
C92	C	0.722102	-0.285449	-0.860932
O93	O	0.693651	-0.313861	-0.889184
C94	C	0.722085	-0.285444	-0.806328
C95	C	0.755535	-0.252036	-0.779011
C96	C	0.822452	-0.185233	-0.778976
C97	C	0.822431	-0.185226	-0.724376
C98	C	0.788962	-0.218623	-0.697093
C99	C	0.755514	-0.252028	-0.724410
C100	C	0.688617	-0.318847	-0.779042
C101	C	0.688603	-0.318840	-0.724435
C102	C	0.722053	-0.285432	-0.697118
C103	C	0.722024	-0.285418	-0.642527
N104	N	0.755475	-0.252016	-0.615206
C105	C	0.788944	-0.218618	-0.642490
C106	C	0.722141	-0.285457	-0.975602
C107	C	0.722155	-0.285459	-1.030204
C108	C	0.789078	-0.218656	-1.030167
C109	C	0.789061	-0.218652	-0.975564
C110	C	0.755593	-0.252055	-0.948282
C111	C	0.788897	-0.218605	-0.527824
C112	C	0.788872	-0.218599	-0.473219
C113	C	0.721951	-0.285403	-0.473261
C114	C	0.721974	-0.285408	-0.527862
C115	C	0.755452	-0.252007	-0.555142
O116	O	0.693562	-0.313793	-0.614260
O117	O	0.817396	-0.190216	-0.614231
C118	C	0.755583	-0.252048	-0.115606
C119	C	0.755627	-0.252064	-0.057492
H120	H	0.556449	-0.312530	-0.312723
H121	H	0.816333	-0.191464	-1.052391
H122	H	0.206227	-0.345967	-0.346229
H123	H	-0.044951	-0.191502	-0.191258
H124	H	0.849714	-0.702783	-0.157806
C125	C	0.656005	-0.351490	-1.024743
C126	C	0.685383	-0.322180	-1.060228
H127	H	0.633307	-0.374164	-1.043278
H128	H	0.636015	-0.328684	-1.003478
H129	H	0.678771	-0.371507	-1.003413
H130	H	0.662617	-0.302159	-1.081556
H131	H	0.705374	-0.344989	-1.081502
C132	C	0.651720	-0.589779	-0.292608
C133	C	0.685270	-0.558396	-0.322117
H134	H	0.629012	-0.608297	-0.315289
H135	H	0.631743	-0.568469	-0.269835
H136	H	0.671656	-0.613861	-0.272695
H137	H	0.665335	-0.534312	-0.342028
H138	H	0.705250	-0.579708	-0.344899
C139	C	0.026379	-0.152687	-0.152322
C140	C	0.061880	-0.181979	-0.181704
H141	H	0.044902	-0.130028	-0.129600
H142	H	0.005106	-0.175507	-0.132358
H143	H	0.005058	-0.132656	-0.175084
H144	H	0.083198	-0.202013	-0.158942
H145	H	0.083161	-0.159157	-0.201669
C146	C	0.859276	-0.211424	-0.589142
C147	C	0.825704	-0.181894	-0.557800
H148	H	0.882002	-0.188759	-0.607643
H149	H	0.839362	-0.231307	-0.613234
H150	H	0.879240	-0.234227	-0.567802
H151	H	0.805738	-0.159093	-0.579140
H152	H	0.845620	-0.162002	-0.533705
C153	C	0.696522	-0.456953	-0.373929
C154	C	0.685269	-0.443762	-0.322152
H155	H	0.673822	-0.438406	-0.396621
H156	H	0.691725	-0.493372	-0.378707
H157	H	0.731649	-0.448020	-0.381576
H158	H	0.650142	-0.452699	-0.314504
H159	H	0.690061	-0.407335	-0.317371
H160	H	0.816288	-0.953941	-0.191174
H161	H	0.457399	-0.312556	-0.312726
C162	C	0.829834	-0.114948	-0.840441
C163	C	0.859263	-0.148555	-0.808982
H164	H	0.852567	-0.092314	-0.858970
H165	H	0.807081	-0.094893	-0.819182
H166	H	0.809903	-0.134847	-0.864513
H167	H	0.879192	-0.128656	-0.784907
H168	H	0.882026	-0.168611	-0.830243
C169	C	0.658928	-0.348538	-0.862752
C170	C	0.651852	-0.355576	-0.809061
H171	H	0.636228	-0.371214	-0.881282
H172	H	0.694052	-0.356224	-0.871662
H173	H	0.651294	-0.313403	-0.871724
H174	H	0.659490	-0.390710	-0.800087
H175	H	0.616720	-0.347894	-0.800147
H176	H	0.457387	-0.191436	-0.191213
C177	C	0.655971	-0.981612	-0.351360
C178	C	0.685328	-0.946121	-0.322023
H179	H	0.633265	-0.963082	-0.374061
H180	H	0.635990	-1.002903	-0.328572
H181	H	0.678749	-1.002916	-0.371350
H182	H	0.662550	-0.924820	-0.302030
H183	H	0.705310	-0.924821	-0.344814
C184	C	0.622460	-0.384880	-0.729961
C185	C	0.651813	-0.355559	-0.694448
H186	H	0.599746	-0.407545	-0.711448
H187	H	0.645237	-0.404901	-0.751226
H188	H	0.602484	-0.362076	-0.751288
H189	H	0.671792	-0.378363	-0.673123
H190	H	0.629033	-0.335536	-0.673173
C191	C	0.277550	-0.384763	-0.385150
C192	C	0.313053	-0.355464	-0.355763
H193	H	0.296072	-0.407418	-0.407871
H194	H	0.256234	-0.361948	-0.405117
H195	H	0.256273	-0.404799	-0.362392
H196	H	0.334328	-0.335425	-0.378521
H197	H	0.334378	-0.378282	-0.335795
C198	C	0.796361	-1.092171	-0.148033
C199	C	0.825830	-1.060785	-0.181616
H200	H	0.819067	-1.110704	-0.125334
H201	H	0.776441	-1.116234	-0.167941
H202	H	0.773594	-1.070857	-0.128041
H203	H	0.848595	-1.082099	-0.201611
H204	H	0.845759	-1.036718	-0.161706
C205	C	0.026384	-0.351419	-0.351690
C206	C	0.061884	-0.322122	-0.322298
H207	H	0.044907	-0.374072	-0.374410
H208	H	0.005069	-0.328603	-0.371657
H209	H	0.005104	-0.371456	-0.328935
H210	H	0.083161	-0.302081	-0.345053
H211	H	0.083208	-0.344941	-0.302330
C212	C	0.692219	-0.315053	-0.389569
C213	C	0.685165	-0.322115	-0.443264
H214	H	0.669513	-0.337723	-0.371051
H215	H	0.684583	-0.279919	-0.380648
H216	H	0.727343	-0.322737	-0.380594
H217	H	0.650041	-0.314427	-0.452241
H218	H	0.692797	-0.357257	-0.452189
C219	C	0.818558	-0.188915	-0.389502
C220	C	0.825642	-0.181874	-0.443192
H221	H	0.841256	-0.166241	-0.370967
H222	H	0.826184	-0.224046	-0.380531
H223	H	0.783429	-0.181223	-0.380596
H224	H	0.860771	-0.189570	-0.452099
H225	H	0.818020	-0.146735	-0.452167
H226	H	-0.044963	-0.312619	-0.312763
C227	C	0.233957	-0.119313	-0.118791
C228	C	0.198453	-0.148603	-0.148185
H229	H	0.215437	-0.096671	-0.096057
H230	H	0.255229	-0.099269	-0.141540
H231	H	0.255280	-0.142138	-0.098833
H232	H	0.177133	-0.125778	-0.168146
H233	H	0.177173	-0.168649	-0.125433
C234	C	0.888589	-0.119205	-0.729841
C235	C	0.859208	-0.148510	-0.694353
H236	H	0.911299	-0.096541	-0.711308
H237	H	0.865829	-0.099182	-0.751164
H238	H	0.908571	-0.142019	-0.751113
H239	H	0.839223	-0.125696	-0.673084
H240	H	0.881971	-0.168534	-0.673021
H241	H	0.305283	-0.158103	-0.157721
H242	H	0.816300	-0.191448	-0.953325
C243	C	0.617923	-0.188962	-0.188733
C244	C	0.564232	-0.181914	-0.181663
H245	H	0.636453	-0.166317	-0.166002
H246	H	0.626845	-0.181240	-0.223846
H247	H	0.626884	-0.224108	-0.181137
H248	H	0.555270	-0.146769	-0.189262
H249	H	0.555307	-0.189632	-0.146542
H250	H	0.816221	-0.451595	-0.191310
H251	H	0.694881	-1.052955	-0.312471
C252	C	0.855135	-0.522936	-0.152421
C253	C	0.825770	-0.558429	-0.181748
H254	H	0.877853	-0.541466	-0.129731
H255	H	0.832367	-0.501637	-0.132425
H256	H	0.875108	-0.501641	-0.175220
H257	H	0.805794	-0.579722	-0.158949
H258	H	0.848541	-0.579737	-0.201746
C259	C	0.714685	-0.355735	-0.589244
C260	C	0.685203	-0.322125	-0.557895
H261	H	0.691985	-0.378402	-0.607786
H262	H	0.737436	-0.375754	-0.567909
H263	H	0.734621	-0.335841	-0.613306
H264	H	0.665270	-0.342019	-0.533831
H265	H	0.662443	-0.302104	-0.579233
C266	C	0.888627	-0.774117	-0.118926
C267	C	0.859265	-0.809612	-0.148253
H268	H	0.911347	-0.792645	-0.096237
H269	H	0.865857	-0.752821	-0.098928
H270	H	0.908598	-0.752819	-0.141724
H271	H	0.839291	-0.830907	-0.125455
H272	H	0.882038	-0.830917	-0.168253
H273	H	0.661364	-0.801759	-0.345949
H274	H	0.694883	-0.312656	-0.953392
C275	C	0.622461	-0.730413	-0.384840
C276	C	0.651823	-0.694924	-0.355505
H277	H	0.599758	-0.711880	-0.407542
H278	H	0.602477	-0.751700	-0.362052
H279	H	0.645237	-0.751720	-0.404829
H280	H	0.629047	-0.673619	-0.335513
H281	H	0.671808	-0.673628	-0.378296
