data_functionalizedCrystal
_audit_creation_method	'MofGen! by Chris Wilmer'
_symmetry_space_group_name_H-M	'P1'
_symmetry_Int_Tables_number	1
_symmetry_cell_setting	triclinic
loop_
_symmetry_equiv_pos_as_xyz
  x,y,z
_cell_length_a	10.654562
_cell_length_b	12.837942
_cell_length_c	11.295483
_cell_angle_alpha	85.469583
_cell_angle_beta	85.851903
_cell_angle_gamma	90.340478
loop_
_atom_site_label
_atom_site_type_symbol
_atom_site_fract_x
_atom_site_fract_y
_atom_site_fract_z
O1	O	1.691377	-0.138855	-0.099104
O2	O	1.327413	-0.152726	-0.099089
O3	O	1.501324	0.005170	-0.099089
O4	O	1.517466	-0.296751	-0.099104
O5	O	1.486046	-0.008677	0.098962
O6	O	1.312135	-0.166573	0.098962
O7	O	1.676099	-0.152702	0.098947
Cu8	Cu	1.492722	-0.160901	0.117038
Cu9	Cu	1.510790	-0.144526	-0.117180
O10	O	1.502188	-0.310598	0.098947
C11	C	1.272865	-0.158628	-0.000062
C12	C	1.133088	-0.155573	-0.000056
C13	C	1.059075	-0.161696	0.107892
C14	C	0.927742	-0.158832	0.107873
C15	C	0.944448	-0.143728	-0.108053
C16	C	1.075779	-0.146584	-0.108032
C17	C	1.116385	-0.170685	0.215869
C18	C	1.042371	-0.176809	0.323826
C19	C	0.911038	-0.173945	0.323806
C20	C	0.853719	-0.164958	0.215829
C21	C	1.488232	0.036907	-0.000064
C22	C	1.471970	0.152102	-0.000065
C23	C	1.730648	-0.146799	-0.000083
C24	C	1.870425	-0.149853	-0.000097
C25	C	1.515280	-0.342334	-0.000081
C26	C	1.531543	-0.457528	-0.000087
N27	N	1.480024	-0.172418	0.281774
C28	C	1.667477	0.391649	-0.000098
C29	C	1.652203	0.499886	-0.000099
C30	C	1.426150	0.476813	-0.000078
C31	C	1.441424	0.368577	-0.000076
C32	C	1.562091	0.325999	-0.000085
C33	C	1.577363	0.217760	-0.000075
C34	C	1.351312	0.194690	-0.000062
C35	C	1.336038	0.302927	-0.000063
N36	N	1.523497	-0.133001	-0.281916
C37	C	1.614902	-0.050037	0.531064
C38	C	1.605315	-0.058748	0.655728
C39	C	1.451258	-0.198546	0.655767
C40	C	1.460845	-0.189835	0.531104
C41	C	1.542671	-0.115579	0.468756
C42	C	1.552263	-0.106874	0.344090
C43	C	1.398200	-0.246666	0.344133
C44	C	1.388613	-0.255377	0.468796
H45	H	1.223322	-0.173021	0.215897
H46	H	1.089049	-0.184119	0.411736
H47	H	1.681537	0.010418	0.480300
O48	O	1.308937	0.518154	-0.000293
C49	C	1.118955	0.538684	-0.102866
C50	C	1.251682	0.491825	-0.102780
H51	H	1.072615	0.517396	-0.185705
H52	H	1.126087	0.627331	-0.102955
H53	H	1.059866	0.505954	-0.019941
H54	H	1.310845	0.524473	-0.185690
H55	H	1.244455	0.403179	-0.102629
H56	H	0.850779	-0.178924	0.411709
H57	H	0.746778	-0.162624	0.215822
O58	O	1.218744	0.344124	-0.000108
C59	C	0.996137	0.309808	-0.000010
C60	C	1.128904	0.263021	0.000012
H61	H	0.923464	0.244258	0.000113
H62	H	0.989641	0.365656	-0.082915
H63	H	0.977013	0.354155	0.082852
H64	H	1.148115	0.218623	-0.082794
H65	H	1.135334	0.207230	0.082972
O66	O	1.309237	-0.327481	0.529550
C67	C	1.226136	-0.402818	0.721618
C68	C	1.316098	-0.321127	0.652967
H69	H	1.231633	-0.397693	0.821413
H70	H	1.254348	-0.484359	0.697190
H71	H	1.125748	-0.386828	0.697059
H72	H	1.416514	-0.337020	0.677489
H73	H	1.287779	-0.239612	0.677400
O74	O	1.754682	0.563563	-0.000267
C75	C	1.951086	0.623613	-0.102928
C76	C	1.835104	0.551431	-0.102869
H77	H	2.016126	0.613845	-0.185886
H78	H	2.003531	0.602222	-0.020107
H79	H	1.919413	0.708275	-0.102870
H80	H	1.866669	0.466747	-0.102970
H81	H	1.782685	0.572911	-0.185684
O82	O	0.888704	-0.135193	-0.212903
C83	C	0.746586	-0.212908	-0.338203
C84	C	0.809651	-0.222711	-0.219430
H85	H	0.682638	-0.283645	-0.343509
H86	H	0.821989	-0.209086	-0.415405
H87	H	0.688376	-0.138685	-0.343590
H88	H	0.867854	-0.296930	-0.213927
H89	H	0.734187	-0.226474	-0.142285
O90	O	1.675611	0.004971	0.716069
C91	C	1.829361	0.144601	0.702869
C92	C	1.749847	0.072483	0.634384
H93	H	1.889381	0.199217	0.636857
H94	H	1.893111	0.095308	0.761185
H95	H	1.764377	0.192718	0.761279
H96	H	1.814735	0.024352	0.575909
H97	H	1.686084	0.121835	0.576143
O98	O	1.248985	0.130890	-0.000263
C99	C	1.142976	0.002419	-0.102809
C100	C	1.258908	0.074639	-0.102749
H101	H	1.150972	-0.043095	-0.185648
H102	H	1.054079	0.051404	-0.102880
H103	H	1.138091	-0.054573	-0.019884
H104	H	1.263913	0.131644	-0.185661
H105	H	1.347749	0.025588	-0.102616
H106	H	1.136042	-0.141604	-0.195933
O107	O	1.631764	-0.034657	0.283707
C108	C	1.783603	0.103048	0.296832
C109	C	1.693599	0.021320	0.365358
H110	H	1.833640	0.148312	0.362816
H111	H	1.727673	0.159439	0.238515
H112	H	1.856195	0.061837	0.238418
H113	H	1.620988	0.062441	0.423837
H114	H	1.749612	-0.035067	0.423600
O115	O	1.694481	0.176222	-0.000035
C116	C	1.818207	0.019712	-0.000122
C117	C	1.685496	0.066609	-0.000134
H118	H	1.810990	-0.068914	-0.000227
H119	H	1.864584	0.040816	0.082772
H120	H	1.877312	0.052534	-0.082996
H121	H	1.626291	0.033812	0.082684
H122	H	1.639219	0.045513	-0.083083
H123	H	1.765728	0.356981	-0.000093
H124	H	1.384628	-0.258996	0.706547
O125	O	1.328165	-0.310489	0.283664
C126	C	1.278990	-0.487677	0.245609
C127	C	1.358395	-0.415514	0.314140
H128	H	1.303383	-0.572605	0.270243
H129	H	1.299904	-0.468795	0.145783
H130	H	1.174819	-0.475047	0.270131
H131	H	1.462590	-0.428104	0.289718
H132	H	1.337374	-0.434412	0.413949
