data_functionalizedCrystal
_audit_creation_method	'MofGen! by Chris Wilmer'
_symmetry_space_group_name_H-M	'P1'
_symmetry_Int_Tables_number	1
_symmetry_cell_setting	triclinic
loop_
_symmetry_equiv_pos_as_xyz
  x,y,z
_cell_length_a	15.995350
_cell_length_b	18.266242
_cell_length_c	15.995350
_cell_angle_alpha	90.004114
_cell_angle_beta	83.492375
_cell_angle_gamma	90.005389
loop_
_atom_site_label
_atom_site_type_symbol
_atom_site_fract_x
_atom_site_fract_y
_atom_site_fract_z
O1	O	1.110991	0.060815	0.107928
O2	O	0.867216	0.060830	0.121255
O3	O	0.995767	0.060821	-0.007296
O4	O	0.982440	0.060824	0.236479
O5	O	0.995745	-0.060940	-0.007303
O6	O	0.867194	-0.060932	0.121249
O7	O	1.110969	-0.060947	0.107921
Zn8	Zn	0.989078	-0.080272	0.114584
Zn9	Zn	0.989107	0.080155	0.114593
O10	O	0.982418	-0.060938	0.236473
C11	C	0.836010	-0.000049	0.120701
C12	C	0.743060	-0.000043	0.119049
C13	C	0.405312	-0.000059	0.113117
C14	C	0.452746	-0.000331	0.021565
C15	C	0.549436	-0.000052	0.023217
C16	C	0.572873	-0.000052	0.116060
C17	C	0.531798	0.069478	0.161220
C18	C	0.435162	0.069531	0.158920
C19	C	0.434799	-0.068935	0.160804
C20	C	0.531744	-0.069849	0.160782
C21	C	0.667570	-0.000045	0.117727
C22	C	0.310614	-0.000060	0.111452
N23	N	0.989064	-0.189759	0.114577
C24	C	1.046006	-0.228071	0.057683
C25	C	1.046011	-0.304716	0.057679
C26	C	0.989083	-0.343046	0.114584
C27	C	0.932131	-0.304724	0.171483
C28	C	0.932122	-0.228080	0.171480
N29	N	0.978426	-0.463377	0.188673
N30	N	0.978440	-0.536185	0.188673
C31	C	0.989107	-0.573968	0.114596
N32	N	0.999776	-0.536192	0.040516
N33	N	0.999766	-0.463378	0.040517
C34	C	0.989087	-0.426153	0.114594
C35	C	1.046057	-0.695388	0.057693
C36	C	1.046056	-0.772034	0.057688
C37	C	0.932180	-0.772040	0.171499
C38	C	0.932177	-0.695395	0.171497
C39	C	0.989120	-0.657074	0.114595
C40	C	1.142175	-0.000066	0.108476
C41	C	1.235125	-0.000067	0.110127
C42	C	0.995205	-0.000058	-0.038494
C43	C	0.993553	-0.000054	-0.131444
N44	N	0.989127	0.189642	0.114593
C45	C	0.987621	-0.000056	-0.469192
C46	C	0.896069	0.000223	-0.421758
C47	C	0.897721	-0.000052	-0.325068
C48	C	0.990564	-0.000054	-0.301631
C49	C	1.035708	-0.069588	-0.342713
C50	C	1.033408	-0.069646	-0.439348
C51	C	1.035324	0.068820	-0.439699
C52	C	1.035302	0.069739	-0.342754
C53	C	0.992231	-0.000056	-0.206934
C54	C	0.985956	-0.000059	-0.563890
C55	C	0.982980	-0.000057	0.267671
C56	C	0.984631	-0.000057	0.360621
H57	H	0.577303	0.049876	-0.012515
C58	C	1.108684	-0.653230	-0.004905
C59	C	1.172714	-0.600529	0.027845
C60	C	1.235341	-0.558375	-0.034754
C61	C	1.233938	-0.568920	-0.130104
C62	C	1.169906	-0.621623	-0.162859
C63	C	1.107279	-0.663778	-0.100259
H64	H	1.173755	-0.592721	0.098432
H65	H	1.282742	-0.519361	-0.010507
H66	H	1.280299	-0.537715	-0.176443
H67	H	1.168865	-0.629432	-0.233446
H68	H	1.059878	-0.702792	-0.124507
H69	H	0.416863	0.121506	0.125993
C70	C	0.391590	0.073816	0.249719
C71	C	0.444759	0.077181	0.324088
C72	C	0.401192	0.081477	0.414884
C73	C	0.304456	0.082409	0.431312
C74	C	0.251282	0.079044	0.356940
C75	C	0.294849	0.074747	0.266144
H76	H	0.516374	0.076491	0.311929
H77	H	0.440556	0.083969	0.469938
H78	H	0.272205	0.085589	0.498524
H79	H	0.179667	0.079733	0.369099
H80	H	0.255485	0.072256	0.211090
H81	H	0.577856	-0.049894	-0.012281
C82	C	0.550878	0.072979	0.253366
C83	C	0.604105	0.012598	0.288763
C84	C	0.623186	0.016097	0.380909
C85	C	0.589039	0.079976	0.437659
C86	C	0.535809	0.140361	0.402263
C87	C	0.516729	0.136863	0.310117
H88	H	0.629385	-0.034694	0.246752
H89	H	0.662590	-0.028605	0.407111
H90	H	0.603164	0.082566	0.505871
H91	H	0.510529	0.187653	0.444274
H92	H	0.477324	0.181564	0.283915
C93	C	1.108655	-0.346870	-0.004905
C94	C	1.171312	-0.304716	-0.067468
C95	C	1.233957	-0.346867	-0.130051
C96	C	1.233945	-0.431172	-0.130071
C97	C	1.171286	-0.473331	-0.067506
C98	C	1.108641	-0.431180	-0.004923
H99	H	1.171322	-0.242305	-0.067455
H100	H	1.280341	-0.315658	-0.176365
H101	H	1.280319	-0.462374	-0.176398
H102	H	1.171276	-0.535742	-0.067518
H103	H	1.062257	-0.462389	0.041392
H104	H	0.859486	0.050087	-0.440287
C105	C	0.869510	-0.346882	0.234081
C106	C	0.869557	-0.431187	0.234130
C107	C	0.806931	-0.473343	0.296727
C108	C	0.744257	-0.431195	0.359277
C109	C	0.744208	-0.346886	0.359231
C110	C	0.806835	-0.304729	0.296633
H111	H	0.915954	-0.462391	0.187825
H112	H	0.806968	-0.535755	0.296761
H113	H	0.697897	-0.462402	0.405616
H114	H	0.697811	-0.315681	0.405536
H115	H	0.806798	-0.242317	0.296600
H116	H	1.102825	0.069285	-0.471460
H117	H	1.092370	-0.196872	0.011348
H118	H	0.433161	0.049256	-0.014859
H119	H	0.559051	-0.121287	0.127815
C120	C	0.869557	-0.814194	0.234095
C121	C	0.869620	-0.898499	0.234155
C122	C	0.806992	-0.940658	0.296749
C123	C	0.744302	-0.898512	0.359284
C124	C	0.744237	-0.814203	0.359226
C125	C	0.806865	-0.772044	0.296632
H126	H	0.916029	-0.929702	0.187860
H127	H	0.807041	-1.003070	0.296791
H128	H	0.697941	-0.929721	0.405620
H129	H	0.697828	-0.782999	0.405521
H130	H	0.806816	-0.709632	0.296590
H131	H	0.434215	-0.050194	-0.015033
H132	H	0.885752	-0.196886	0.217811
C133	C	0.994899	0.140019	-0.467436
C134	C	0.958766	0.196086	-0.401047
C135	C	0.918331	0.267280	-0.428783
C136	C	0.914028	0.282407	-0.522909
C137	C	0.950162	0.226339	-0.589304
C138	C	0.990598	0.155145	-0.561568
H139	H	0.961950	0.184889	-0.331364
H140	H	0.891582	0.308785	-0.379633
H141	H	0.884095	0.335109	-0.543441
H142	H	0.946978	0.237535	-0.658987
H143	H	1.017347	0.113639	-0.610719
H144	H	0.560182	0.121223	0.129859
C145	C	1.127848	-0.073110	-0.323619
C146	C	1.199772	-0.072844	-0.396284
C147	C	1.291910	-0.076374	-0.377184
C148	C	1.312124	-0.080169	-0.285419
C149	C	1.240198	-0.080436	-0.212749
C150	C	1.148060	-0.076906	-0.231849
H151	H	1.184810	-0.070034	-0.464219
H152	H	1.345154	-0.076177	-0.430980
H153	H	1.380330	-0.082782	-0.271281
H154	H	1.255160	-0.083246	-0.144814
H155	H	1.094816	-0.077104	-0.178053
C156	C	0.407054	-0.140135	0.120365
C157	C	0.357258	-0.136641	0.043517
C158	C	0.329515	-0.207836	0.003067
C159	C	0.351567	-0.282524	0.039465
C160	C	0.401366	-0.286021	0.116317
C161	C	0.429109	-0.214826	0.156767
H162	H	0.340931	-0.081350	0.016569
H163	H	0.292650	-0.205247	-0.053824
H164	H	0.331030	-0.335227	0.009522
H165	H	0.417693	-0.341313	0.143265
H166	H	0.465974	-0.217415	0.213658
C167	C	0.846837	-0.066759	-0.448224
C168	C	0.889399	-0.121630	-0.512662
C169	C	0.840169	-0.188612	-0.539131
C170	C	0.748376	-0.200721	-0.501162
C171	C	0.705809	-0.145848	-0.436720
C172	C	0.755039	-0.078867	-0.410251
H173	H	0.957354	-0.112668	-0.540773
H174	H	0.871681	-0.229233	-0.586835
H175	H	0.711933	-0.250305	-0.520756
H176	H	0.637854	-0.154811	-0.408610
H177	H	0.723527	-0.038246	-0.362547
H178	H	0.547108	-0.074049	0.228486
C179	C	1.124205	-0.073927	-0.482924
C180	C	1.180197	-0.139815	-0.466657
C181	C	1.270991	-0.144104	-0.510231
C182	C	1.305793	-0.082504	-0.570071
C183	C	1.249800	-0.016611	-0.586341
C184	C	1.159006	-0.012322	-0.542768
H185	H	1.154436	-0.185420	-0.422357
H186	H	1.312441	-0.192882	-0.498186
H187	H	1.373004	-0.085678	-0.602326
H188	H	1.275562	0.028994	-0.630641
H189	H	1.117557	0.036456	-0.554812
C190	C	0.993326	-0.139493	-0.304386
C191	C	0.953924	-0.194778	-0.361168
C192	C	0.911537	-0.264681	-0.322843
C193	C	0.908551	-0.279299	-0.227737
C194	C	0.947955	-0.224013	-0.170950
C195	C	0.990342	-0.154110	-0.209274
H196	H	0.956133	-0.183958	-0.431576
H197	H	0.882368	-0.305607	-0.364881
H198	H	0.877174	-0.331046	-0.199366
H199	H	0.945746	-0.234833	-0.100541
H200	H	1.019511	-0.113183	-0.167236
H201	H	0.403037	-0.069405	0.228305
H202	H	1.092422	-0.803229	0.011353
H203	H	0.885813	-0.664199	0.217829
C204	C	0.849443	-0.067501	-0.287420
C205	C	0.809269	-0.121285	-0.345349
C206	C	0.760991	-0.188739	-0.307702
C207	C	0.752888	-0.202409	-0.212126
C208	C	0.793064	-0.148623	-0.154192
C209	C	0.841342	-0.081170	-0.191839
H210	H	0.815266	-0.111167	-0.416104
H211	H	0.731250	-0.228554	-0.350589
H212	H	0.717150	-0.252342	-0.184258
H213	H	0.787067	-0.158742	-0.083437
H214	H	0.871083	-0.041354	-0.148952
C215	C	0.990780	0.139236	-0.305869
C216	C	0.914161	0.132675	-0.238727
C217	C	0.869639	0.202171	-0.201836
C218	C	0.901735	0.278226	-0.232087
C219	C	0.978358	0.284790	-0.299234
C220	C	1.022881	0.215295	-0.336125
H221	H	0.890398	0.076371	-0.216329
H222	H	0.812917	0.197311	-0.152129
H223	H	0.868776	0.329671	-0.204778
H224	H	1.002121	0.341094	-0.321631
H225	H	1.079602	0.220154	-0.385831
H226	H	1.000470	-0.121621	-0.457653
H227	H	0.862234	0.049793	-0.296643
H228	H	1.103008	0.073935	-0.327391
