data_functionalizedCrystal
_audit_creation_method	'MofGen! by Chris Wilmer'
_symmetry_space_group_name_H-M	'P1'
_symmetry_Int_Tables_number	1
_symmetry_cell_setting	triclinic
loop_
_symmetry_equiv_pos_as_xyz
  x,y,z
_cell_length_a	19.077078
_cell_length_b	16.959455
_cell_length_c	19.076919
_cell_angle_alpha	87.727026
_cell_angle_beta	94.468470
_cell_angle_gamma	87.676074
loop_
_atom_site_label
_atom_site_type_symbol
_atom_site_fract_x
_atom_site_fract_y
_atom_site_fract_z
Zn1	Zn	-0.296780	-1.176455	-0.409993
Zn2	Zn	0.036554	-0.843121	-0.076659
Zn3	Zn	0.369887	-0.509788	0.256674
Zn4	Zn	-0.409933	-1.176354	-0.296833
Zn5	Zn	-0.076600	-0.843020	0.036500
Zn6	Zn	0.256734	-0.509687	0.369834
Zn7	Zn	-0.292054	-1.049812	-0.292106
Zn8	Zn	0.041280	-0.716479	0.041227
Zn9	Zn	0.374613	-0.383146	0.374560
Zn10	Zn	-0.414618	-1.038700	-0.414658
Zn11	Zn	-0.081285	-0.705366	-0.081325
Zn12	Zn	0.252049	-0.372033	0.252008
O13	O	-0.353346	-1.110330	-0.353398
O14	O	-0.020013	-0.776997	-0.020064
O15	O	0.313321	-0.443663	0.313269
O16	O	-0.311807	-1.287050	-0.395007
O17	O	0.021526	-0.953717	-0.061674
O18	O	0.354860	-0.620383	0.271659
O19	O	-0.390357	-1.164176	-0.197560
O20	O	-0.057024	-0.830843	0.135774
O21	O	0.276309	-0.497509	0.469107
O22	O	-0.194032	-1.071305	-0.303813
O23	O	0.139301	-0.737971	0.029520
O24	O	0.472635	-0.404638	0.362853
O25	O	-0.394940	-1.286976	-0.311869
O26	O	-0.061607	-0.953643	0.021464
O27	O	0.271727	-0.620309	0.354797
O28	O	-0.197504	-1.164348	-0.390424
O29	O	0.135829	-0.831015	-0.057091
O30	O	0.469162	-0.497682	0.276243
O31	O	-0.303752	-1.071207	-0.194087
O32	O	0.029582	-0.737874	0.139246
O33	O	0.362915	-0.404540	0.472580
O34	O	-0.308295	-0.937729	-0.308337
O35	O	0.025038	-0.604396	0.024996
O36	O	0.358372	-0.271063	0.358329
O37	O	-0.402925	-1.052365	-0.512686
O38	O	-0.069592	-0.719031	-0.179352
O39	O	0.263741	-0.385698	0.153981
O40	O	-0.398343	-0.929565	-0.398376
O41	O	-0.065009	-0.596231	-0.065043
O42	O	0.268324	-0.262898	0.268291
O43	O	-0.316350	-1.153573	-0.509258
O44	O	0.016983	-0.820239	-0.175925
O45	O	0.350317	-0.486906	0.157409
O46	O	-0.509203	-1.153400	-0.316393
O47	O	-0.175870	-0.820067	0.016940
O48	O	0.157464	-0.486734	0.350273
O49	O	-0.512645	-1.052267	-0.402959
O50	O	-0.179312	-0.718933	-0.069626
O51	O	0.154021	-0.385600	0.263707
C52	C	-0.353315	-0.904967	-0.353350
C53	C	-0.019981	-0.571634	-0.020017
C54	C	0.313352	-0.238301	0.313316
C55	C	-0.353319	-0.817111	-0.353348
C56	C	-0.019986	-0.483777	-0.020014
C57	C	0.313348	-0.150444	0.313319
C58	C	-0.396566	-0.445588	-0.310048
C59	C	-0.063232	-0.112255	0.023285
C60	C	0.270101	0.221079	0.356619
C61	C	-0.310144	-0.445673	-0.396766
C62	C	0.023189	-0.112340	-0.063432
C63	C	0.356523	0.220993	0.269901
C64	C	-0.310134	-0.528220	-0.396752
C65	C	0.023199	-0.194887	-0.063419
C66	C	0.356532	0.138446	0.269914
C67	C	-0.353342	-0.569455	-0.353387
C68	C	-0.020009	-0.236122	-0.020054
C69	C	0.313325	0.097212	0.313280
C70	C	-0.396559	-0.528142	-0.310035
C71	C	-0.063226	-0.194809	0.023298
C72	C	0.270108	0.138524	0.356632
C73	C	-0.266924	-0.569539	-0.440109
C74	C	0.066410	-0.236205	-0.106776
C75	C	0.399743	0.097128	0.226558
C76	C	-0.266913	-0.652090	-0.440098
C77	C	0.066421	-0.318757	-0.106765
C78	C	0.399754	0.014576	0.226569
C79	C	-0.310117	-0.693327	-0.396728
C80	C	0.023216	-0.359993	-0.063395
C81	C	0.356550	-0.026660	0.269938
C82	C	-0.353335	-0.652009	-0.353374
C83	C	-0.020002	-0.318676	-0.020041
C84	C	0.313331	0.014657	0.313293
C85	C	-0.396543	-0.693244	-0.310009
C86	C	-0.063209	-0.359910	0.023325
C87	C	0.270124	-0.026577	0.356658
C88	C	-0.439758	-0.651928	-0.266650
C89	C	-0.106424	-0.318595	0.066683
C90	C	0.226909	0.014739	0.400017
C91	C	-0.439763	-0.569379	-0.266665
C92	C	-0.106430	-0.236045	0.066668
C93	C	0.226903	0.097288	0.400001
C94	C	-0.310112	-0.775876	-0.396713
C95	C	0.023222	-0.442543	-0.063380
C96	C	0.356555	-0.109209	0.269954
C97	C	-0.396536	-0.775798	-0.309996
C98	C	-0.063203	-0.442465	0.023338
C99	C	0.270131	-0.109132	0.356671
C100	C	-0.536503	-1.101637	-0.360711
C101	C	-0.203170	-0.768304	-0.027378
C102	C	0.130163	-0.434971	0.305956
C103	C	-0.614860	-1.097990	-0.363863
C104	C	-0.281526	-0.764656	-0.030530
C105	C	0.051807	-0.431323	0.302804
C106	C	-1.056120	-1.071824	-0.386498
C107	C	-0.722787	-0.738491	-0.053165
C108	C	-0.389453	-0.405158	0.280169
C109	C	-0.982496	-1.075252	-0.383528
C110	C	-0.649162	-0.741918	-0.050195
C111	C	-0.315829	-0.408585	0.283138
C112	C	-0.943871	-1.129657	-0.337006
C113	C	-0.610538	-0.796324	-0.003672
C114	C	-0.277205	-0.462990	0.329661
C115	C	-0.978876	-1.180643	-0.293455
C116	C	-0.645542	-0.847310	0.039878
C117	C	-0.312209	-0.513976	0.373212
C118	C	-1.052499	-1.177219	-0.296429
C119	C	-0.719166	-0.843886	0.036905
C120	C	-0.385832	-0.510552	0.370238
C121	C	-0.723487	-1.145552	-0.323286
C122	C	-0.390154	-0.812218	0.010047
C123	C	-0.056820	-0.478885	0.343381
C124	C	-0.649859	-1.148971	-0.320314
C125	C	-0.316525	-0.815637	0.013019
C126	C	0.016808	-0.482304	0.346353
C127	C	-0.653484	-1.043580	-0.410389
C128	C	-0.320150	-0.710247	-0.077056
C129	C	0.013183	-0.376913	0.256278
C130	C	-0.727108	-1.040157	-0.413355
C131	C	-0.393775	-0.706824	-0.080022
C132	C	-0.060441	-0.373491	0.253311
C133	C	-0.762106	-1.091146	-0.369807
C134	C	-0.428773	-0.757813	-0.036474
C135	C	-0.095439	-0.424480	0.296859
N136	N	-0.868615	-1.133160	-0.333967
N137	N	-0.535282	-0.799827	-0.000634
N138	N	-0.201949	-0.466493	0.332699
N139	N	-0.837361	-1.087646	-0.372850
N140	N	-0.504028	-0.754313	-0.039516
N141	N	-0.170694	-0.420980	0.293817
C142	C	-0.169474	-1.119077	-0.346071
C143	C	0.163859	-0.785744	-0.012738
C144	C	0.497192	-0.452411	0.320596
C145	C	-0.091119	-1.122805	-0.342949
C146	C	0.242214	-0.789472	-0.009616
C147	C	0.575547	-0.456138	0.323718
C148	C	-0.360688	-1.101740	-0.537265
C149	C	-0.027354	-0.768407	-0.203932
C150	C	0.305979	-0.435074	0.129402
C151	C	-0.363816	-1.098080	-0.615618
C152	C	-0.030483	-0.764746	-0.282285
C153	C	0.302851	-0.431413	0.051049
C154	C	-0.353370	-0.316496	-0.353432
C155	C	-0.020036	0.016838	-0.020099
C156	C	0.313297	0.350171	0.313234
C157	C	-0.353358	-0.404354	-0.353413
C158	C	-0.020025	-0.071020	-0.020080
C159	C	0.313309	0.262313	0.313253
C160	C	-0.320213	-1.149051	-0.650645
C161	C	0.013121	-0.815718	-0.317312
C162	C	0.346454	-0.482384	0.016021
C163	C	-0.323150	-1.145602	-0.724266
C164	C	0.010184	-0.812269	-0.390933
C165	C	0.343517	-0.478935	-0.057600
C166	C	-0.369694	-1.091185	-0.762859
C167	C	-0.036361	-0.757852	-0.429526
C168	C	0.296973	-0.424519	-0.096193
C169	C	-0.413299	-1.040209	-0.727827
C170	C	-0.079966	-0.706875	-0.394494
C171	C	0.253368	-0.373542	-0.061160
C172	C	-0.410358	-1.043654	-0.654207
C173	C	-0.077025	-0.710321	-0.320874
C174	C	0.256309	-0.376988	0.012460
C175	C	-0.383319	-1.075226	-0.983231
C176	C	-0.049986	-0.741893	-0.649897
C177	C	0.283347	-0.408560	-0.316564
C178	C	-0.386259	-1.071786	-1.056856
C179	C	-0.052925	-0.738453	-0.723522
C180	C	0.280408	-0.405119	-0.390189
C181	C	-0.296108	-1.177179	-1.053290
C182	C	0.037225	-0.843846	-0.719956
C183	C	0.370559	-0.510512	-0.386623
C184	C	-0.293174	-1.180623	-0.979669
C185	C	0.040159	-0.847290	-0.646335
C186	C	0.373492	-0.513956	-0.313002
C187	C	-0.336777	-1.129644	-0.944643
C188	C	-0.003443	-0.796310	-0.611310
C189	C	0.329890	-0.462977	-0.277976
N190	N	-0.372698	-1.087660	-0.838112
N191	N	-0.039365	-0.754327	-0.504779
N192	N	0.293968	-0.420994	-0.171445
N193	N	-0.333768	-1.133165	-0.869391
N194	N	-0.000435	-0.799832	-0.536058
N195	N	0.332899	-0.466499	-0.202725
C196	C	-0.345982	-1.118934	-0.170244
C197	C	-0.012649	-0.785601	0.163090
C198	C	0.320684	-0.452268	0.496423
C199	C	-0.342655	-1.122757	-0.091883
C200	C	-0.009322	-0.789424	0.241451
C201	C	0.324011	-0.456091	0.574784
H202	H	-0.274971	-0.412095	-0.432076
H203	H	0.058363	-0.078762	-0.098743
H204	H	0.391696	0.254572	0.234591
Br205	Br	-0.498407	-0.513304	-0.207828
Br206	Br	-0.165074	-0.179970	0.125506
Br207	Br	0.168259	0.153363	0.458839
Br208	Br	-0.779522	-0.966329	-0.476505
Br209	Br	-0.446189	-0.632995	-0.143171
Br210	Br	-0.112856	-0.299662	0.190162
Br211	Br	-0.455207	-0.389521	-0.251202
Br212	Br	-0.121873	-0.056188	0.082132
Br213	Br	0.211460	0.277145	0.415465
Br214	Br	-0.597440	-1.222798	-0.257160
Br215	Br	-0.264106	-0.889465	0.076173
Br216	Br	0.069227	-0.556132	0.409507
Br217	Br	-0.208301	-0.513574	-0.498971
Br218	Br	0.125032	-0.180241	-0.165638
Br219	Br	0.458366	0.153093	0.167696
Br220	Br	-0.257048	-1.222912	-0.598276
Br221	Br	0.076286	-0.889579	-0.264943
Br222	Br	0.409619	-0.556245	0.068390
H223	H	-0.255275	-1.224937	-0.948251
H224	H	0.078058	-0.891604	-0.614918
H225	H	0.411392	-0.558270	-0.281585
H226	H	-0.451194	-0.995898	-0.759255
H227	H	-0.117860	-0.662565	-0.425922
H228	H	0.215473	-0.329232	-0.092588
H229	H	-0.231724	-0.685723	-0.475403
H230	H	0.101609	-0.352389	-0.142070
H231	H	0.434943	-0.019056	0.191264
Br232	Br	-0.498401	-0.707898	-0.207806
Br233	Br	-0.165068	-0.374565	0.125527
Br234	Br	0.168265	-0.041232	0.458860
H235	H	-0.947424	-1.224945	-0.255578
H236	H	-0.614090	-0.891612	0.077756
H237	H	-0.280757	-0.558278	0.411089
H238	H	-0.274928	-0.809512	-0.432016
H239	H	0.058405	-0.476178	-0.098683
H240	H	0.391739	-0.142845	0.234650
Br241	Br	-1.108531	-0.997978	-0.449633
Br242	Br	-0.775198	-0.664645	-0.116299
Br243	Br	-0.441865	-0.331311	0.217034
Br244	Br	-0.442493	-1.006038	-0.935705
Br245	Br	-0.109160	-0.672705	-0.602371
Br246	Br	0.224173	-0.339371	-0.269038
Br247	Br	-0.469532	-0.974471	-0.606669
Br248	Br	-0.136199	-0.641138	-0.273336
Br249	Br	0.197135	-0.307805	0.059998
Br250	Br	-0.934999	-1.006065	-0.442638
Br251	Br	-0.601666	-0.672731	-0.109304
Br252	Br	-0.268333	-0.339398	0.224029
H253	H	-1.080994	-1.218735	-0.260968
H254	H	-0.747661	-0.885401	0.072365
H255	H	-0.414328	-0.552068	0.405699
Br256	Br	-0.605983	-0.974388	-0.469490
Br257	Br	-0.272650	-0.641055	-0.136157
Br258	Br	0.060683	-0.307721	0.197177
H259	H	-0.751973	-1.187068	-0.287824
H260	H	-0.418640	-0.853735	0.045510
H261	H	-0.085307	-0.520401	0.378843
H262	H	-0.287645	-1.187110	-0.752782
H263	H	0.045688	-0.853777	-0.419449
H264	H	0.379022	-0.520443	-0.086115
Br265	Br	-0.236935	-1.246360	-1.100828
Br266	Br	0.096398	-0.913027	-0.767495
Br267	Br	0.429731	-0.579693	-0.434162
H268	H	-0.424162	-1.027471	-1.088276
H269	H	-0.090829	-0.694137	-0.754943
H270	H	0.242504	-0.360804	-0.421609
H271	H	-0.431719	-0.809366	-0.274679
H272	H	-0.098385	-0.476032	0.058654
H273	H	0.234948	-0.142699	0.391987
