data_functionalizedCrystal
_audit_creation_method	'MofGen! by Chris Wilmer'
_symmetry_space_group_name_H-M	'P1'
_symmetry_Int_Tables_number	1
_symmetry_cell_setting	triclinic
loop_
_symmetry_equiv_pos_as_xyz
  x,y,z
_cell_length_a	12.837943
_cell_length_b	17.038272
_cell_length_c	11.295483
_cell_angle_alpha	94.391706
_cell_angle_beta	85.461227
_cell_angle_gamma	92.970248
loop_
_atom_site_label
_atom_site_type_symbol
_atom_site_fract_x
_atom_site_fract_y
_atom_site_fract_z
O1	O	1.400057	0.199823	-0.099006
O2	O	1.097361	0.189716	-0.099013
O3	O	1.246909	0.080820	-0.099000
O4	O	1.250509	0.308719	-0.099019
O5	O	1.233773	0.090368	0.099049
O6	O	1.084224	0.199264	0.099036
O7	O	1.386921	0.209371	0.099043
Cu8	Cu	1.234373	0.205189	0.117123
Cu9	Cu	1.249908	0.193897	-0.117093
O10	O	1.237372	0.318267	0.099030
C11	C	1.051871	0.191076	0.000011
C12	C	0.935896	0.180893	0.000008
C13	C	0.705733	0.303310	0.000015
C14	C	0.596764	0.293746	0.000014
C15	C	0.608986	0.152201	0.000013
C16	C	0.717955	0.161765	0.000014
C17	C	0.766324	0.237322	0.000014
C18	C	0.875296	0.246885	0.000007
C19	C	0.887516	0.105342	0.000014
C20	C	0.778546	0.095777	0.000013
C21	C	1.237069	0.056221	0.000024
C22	C	1.227305	-0.031301	0.000024
C23	C	1.316945	-0.074719	0.000027
C24	C	1.307766	-0.156956	0.000015
C25	C	1.208945	-0.195773	0.000009
C26	C	1.119299	-0.152349	0.000002
C27	C	1.128480	-0.070114	0.000005
C28	C	1.176511	-0.443954	-0.000008
C29	C	1.167337	-0.526195	-0.000007
C30	C	1.355805	-0.530796	0.000004
C31	C	1.364977	-0.448559	0.000014
C32	C	1.275331	-0.405143	0.000001
C33	C	1.199560	-0.279832	0.000001
C34	C	1.284718	-0.321086	0.000000
C35	C	1.432411	0.208011	0.000017
C36	C	1.548386	0.218194	0.000011
C37	C	1.247213	0.342865	0.000003
C38	C	1.256977	0.430387	-0.000004
N39	N	1.223454	0.213132	0.281859
N40	N	1.260835	0.185950	-0.281829
C41	C	1.339435	0.128734	0.531158
C42	C	1.331191	0.134742	0.655821
C43	C	1.198717	0.231151	0.655850
C44	C	1.206961	0.225143	0.531187
C45	C	1.277323	0.173934	0.468845
C46	C	1.285572	0.167930	0.344180
C47	C	1.153093	0.264335	0.344211
C48	C	1.144849	0.270343	0.468874
H49	H	0.739148	0.034262	0.000027
H50	H	1.102521	0.301142	0.293462
C51	C	0.953264	0.033649	-0.000232
C52	C	0.937214	-0.016270	-0.102140
C53	C	0.997773	-0.082314	-0.102421
H54	H	0.933396	0.006236	0.068750
H55	H	1.025108	0.050127	-0.000299
H56	H	0.865386	-0.032748	-0.102063
H57	H	0.957088	0.011119	-0.171140
H58	H	1.069618	-0.065836	-0.102488
H59	H	0.977900	-0.109720	-0.033434
H60	H	0.986900	-0.116188	-0.171569
H61	H	1.119099	-0.311445	-0.000001
H62	H	0.914677	0.308407	0.000008
H63	H	1.397415	-0.043120	0.000039
C64	C	1.415853	0.073067	0.463680
C65	C	1.468472	0.034757	0.544935
C66	C	1.538868	-0.016536	0.482820
H67	H	1.465091	0.102206	0.415032
H68	H	1.378666	0.035108	0.415085
H69	H	1.505658	0.072711	0.593509
H70	H	1.419262	0.005603	0.593585
H71	H	1.501681	-0.054496	0.434225
H72	H	1.588099	0.012609	0.434174
H73	H	1.574572	-0.042541	0.537941
H74	H	1.103515	-0.408614	-0.000018
H75	H	1.038837	-0.183960	-0.000010
H76	H	1.055485	-0.034764	0.000002
C77	C	1.122147	0.286629	0.723493
C78	C	1.020488	0.264704	0.693213
C79	C	0.949920	0.315782	0.755518
H80	H	1.139309	0.339051	0.703128
H81	H	1.126064	0.283714	0.806671
H82	H	1.016574	0.267627	0.610054
H83	H	1.003294	0.212290	0.713581
H84	H	0.953837	0.312867	0.838696
H85	H	0.967091	0.368201	0.735148
H86	H	0.880936	0.300909	0.734991
H87	H	1.380760	-0.192303	0.000021
C88	C	1.068287	0.325831	0.536506
C89	C	0.966625	0.303917	0.506227
C90	C	0.896068	0.355009	0.568516
H91	H	1.085462	0.378249	0.516127
H92	H	1.072201	0.322925	0.619686
H93	H	0.962715	0.306831	0.423065
H94	H	0.949418	0.251507	0.526609
H95	H	0.899981	0.352103	0.651696
H96	H	0.913252	0.407424	0.548132
H97	H	0.827081	0.340143	0.547989
C98	C	0.758057	0.385406	0.000066
C99	C	0.681668	0.441152	0.000088
C100	C	0.729827	0.516788	0.000150
H101	H	0.804886	0.388859	-0.068979
H102	H	0.795704	0.395451	0.069158
H103	H	0.644038	0.431110	-0.068997
H104	H	0.634834	0.437724	0.069129
H105	H	0.767473	0.526833	0.069242
H106	H	0.776655	0.520232	-0.068897
H107	H	0.678004	0.554621	0.000176
C108	C	1.472220	-0.406329	-0.000173
C109	C	1.489747	-0.364143	-0.102048
C110	C	1.588523	-0.325225	-0.102249
H111	H	1.524390	-0.443884	-0.000236
H112	H	1.475156	-0.370975	0.068857
H113	H	1.486820	-0.399494	-0.171060
H114	H	1.437601	-0.326575	-0.102007
H115	H	1.591460	-0.289871	-0.033219
H116	H	1.640685	-0.362785	-0.102308
H117	H	1.600424	-0.296592	-0.171364
C118	C	0.556604	0.070121	-0.000168
C119	C	0.593560	0.024831	-0.102046
C120	C	0.545338	-0.050788	-0.102246
H121	H	0.483026	0.073768	-0.000226
H122	H	0.572419	0.045893	0.068860
H123	H	0.577737	0.049054	-0.171056
H124	H	0.667132	0.021161	-0.102011
H125	H	0.561154	-0.075016	-0.033219
H126	H	0.471762	-0.047132	-0.102301
H127	H	0.570413	-0.081528	-0.171363
H128	H	0.547433	0.347481	0.000019
H129	H	1.381767	0.097934	0.706553
C130	C	1.391952	-0.278850	-0.000178
C131	C	1.409475	-0.236665	-0.102053
C132	C	1.508242	-0.197731	-0.102245
H133	H	1.444133	-0.316397	-0.000234
H134	H	1.394875	-0.243495	0.068852
H135	H	1.406562	-0.272017	-0.171065
H136	H	1.357320	-0.199105	-0.102019
H137	H	1.511164	-0.162376	-0.033215
H138	H	1.560414	-0.235283	-0.102297
H139	H	1.520140	-0.169098	-0.171360
H140	H	1.086860	-0.557796	0.000007
H141	H	1.428789	-0.566154	0.000012
H142	H	1.342867	0.126235	0.293423
