data_functionalizedCrystal
_audit_creation_method	'MofGen! by Chris Wilmer'
_symmetry_space_group_name_H-M	'P1'
_symmetry_Int_Tables_number	1
_symmetry_cell_setting	triclinic
loop_
_symmetry_equiv_pos_as_xyz
  x,y,z
_cell_length_a	21.295418
_cell_length_b	13.897448
_cell_length_c	13.897441
_cell_angle_alpha	90.030599
_cell_angle_beta	90.041083
_cell_angle_gamma	90.033507
loop_
_atom_site_label
_atom_site_type_symbol
_atom_site_fract_x
_atom_site_fract_y
_atom_site_fract_z
Zn1	Zn	0.962395	-0.383577	0.545905
Zn2	Zn	0.962326	-0.544899	0.384606
Zn3	Zn	0.857123	-0.383664	0.384566
Zn4	Zn	0.857111	-0.544876	0.545802
O5	O	0.909739	-0.464254	0.465220
O6	O	1.050476	-0.404950	0.524569
O7	O	0.948347	-0.523556	0.249619
O8	O	0.871122	-0.248671	0.405995
O9	O	1.050425	-0.523472	0.406063
O10	O	0.948465	-0.248607	0.524530
O11	O	0.871055	-0.405098	0.249590
O12	O	0.769032	-0.405076	0.405894
O13	O	0.871102	-0.523434	0.680797
O14	O	0.769024	-0.523518	0.524353
O15	O	0.948453	-0.404928	0.680873
O16	O	0.948335	-0.679877	0.405963
O17	O	0.871034	-0.679861	0.524393
C18	C	0.746187	-0.464305	0.465109
C19	C	0.676219	-0.464349	0.465084
C20	C	0.909693	-0.714868	0.465192
C21	C	0.909731	-0.822082	0.465212
C22	C	0.909797	-1.018377	0.465273
C23	C	0.909759	-0.909145	0.465242
C24	C	0.643365	-0.526104	0.526674
C25	C	0.577622	-0.526080	0.526717
C26	C	0.544737	-0.464312	0.465154
C27	C	0.577599	-0.402546	0.403560
C28	C	0.643341	-0.402564	0.403525
N29	N	0.441462	-0.456784	0.380787
N30	N	0.379011	-0.456772	0.380822
C31	C	0.346662	-0.464251	0.465256
N32	N	0.379124	-0.471761	0.549654
N33	N	0.441581	-0.471778	0.549618
C34	C	0.473451	-0.464284	0.465185
C35	C	0.242522	-0.525983	0.526898
C36	C	0.176778	-0.525952	0.526943
C37	C	0.176757	-0.402422	0.403777
C38	C	0.242499	-0.402448	0.403740
C39	C	0.275378	-0.464233	0.465300
C40	C	1.073929	-0.464204	0.465332
C41	C	1.143898	-0.464182	0.465380
C42	C	0.909784	-0.464169	0.716813
C43	C	0.909803	-0.464132	0.824027
C44	C	0.909802	-0.212661	0.465269
C45	C	0.909829	-0.105447	0.465290
C46	C	0.909731	-0.464269	0.214606
C47	C	0.909834	-0.464034	0.107392
C48	C	0.909820	-0.464067	1.020322
C49	C	0.909808	-0.464106	0.911090
H50	H	0.670130	-0.576413	0.576801
C51	C	0.278694	-0.593928	0.594618
H52	H	0.322553	-0.585103	0.585769
H53	H	0.267973	-0.579882	0.659458
H54	H	0.267876	-0.658722	0.580393
H55	H	0.149982	-0.352125	0.353655
H56	H	0.670091	-0.352273	0.353371
C57	C	0.541474	-0.593957	0.594524
H58	H	0.570471	-0.630741	0.631195
H59	H	0.515895	-0.557050	0.636611
H60	H	0.515764	-0.635952	0.557608
H61	H	0.550820	-0.352252	0.353436
C62	C	0.140638	-0.593899	0.594681
H63	H	0.169637	-0.630706	0.631325
H64	H	0.115036	-0.557062	0.636797
H65	H	0.114949	-0.635869	0.557700
H66	H	0.269250	-0.352165	0.353583
