data_functionalizedCrystal
_audit_creation_method	'MofGen! by Chris Wilmer'
_symmetry_space_group_name_H-M	'P1'
_symmetry_Int_Tables_number	1
_symmetry_cell_setting	triclinic
loop_
_symmetry_equiv_pos_as_xyz
  x,y,z
_cell_length_a	11.792254
_cell_length_b	11.792241
_cell_length_c	15.455450
_cell_angle_alpha	87.025715
_cell_angle_beta	87.032395
_cell_angle_gamma	84.196007
loop_
_atom_site_label
_atom_site_type_symbol
_atom_site_fract_x
_atom_site_fract_y
_atom_site_fract_z
O1	O	1.502450	0.151173	0.072129
O2	O	2.002450	0.651173	0.572129
O3	O	1.172111	0.167191	0.072131
O4	O	1.672111	0.667191	0.572131
O5	O	1.345297	-0.005988	0.072124
O6	O	1.845297	0.494012	0.572124
O7	O	1.329264	0.324352	0.072136
O8	O	1.829264	0.824352	0.572136
O9	O	1.354182	0.002933	-0.072135
O10	O	1.854182	0.502933	0.427865
O11	O	1.180996	0.176112	-0.072128
O12	O	1.680996	0.676112	0.427872
O13	O	1.511335	0.160094	-0.072130
O14	O	2.011335	0.660094	0.427870
Cu15	Cu	1.346977	0.168918	-0.085301
Cu16	Cu	1.846977	0.668918	0.414699
Cu17	Cu	1.336469	0.158367	0.085302
Cu18	Cu	1.836469	0.658367	0.585302
O19	O	1.338149	0.333273	-0.072123
O20	O	1.838149	0.833273	0.427877
C21	C	1.134263	0.170642	0.000002
C22	C	1.634263	0.670642	0.500002
C23	C	1.008250	0.167622	0.000002
C24	C	1.508250	0.667622	0.500002
C25	C	0.905913	0.165168	0.000006
C26	C	1.405913	0.665168	0.500006
C27	C	0.777526	0.162100	0.000006
C28	C	1.277526	0.662100	0.500006
C29	C	1.348733	-0.043818	-0.000005
C30	C	1.848733	0.456182	0.499995
C31	C	1.345718	-0.169832	-0.000004
C32	C	1.845718	0.330168	0.499996
C33	C	1.340174	-0.400546	0.000010
C34	C	1.840174	0.099454	0.500010
C35	C	1.343255	-0.272160	0.000002
C36	C	1.843255	0.227840	0.500002
C37	C	1.549183	0.156643	0.000001
C38	C	2.049183	0.656643	0.500001
C39	C	1.675196	0.159662	0.000006
C40	C	2.175196	0.659662	0.500006
C41	C	1.334713	0.371103	0.000008
C42	C	1.834713	0.871103	0.500008
C43	C	1.337727	0.497117	0.000013
C44	C	1.837727	0.997117	0.500013
N45	N	1.354376	0.176337	-0.205293
N46	N	1.854376	0.676337	0.294707
C47	C	1.287940	0.109840	-0.250714
C48	C	1.787940	0.609840	0.249286
C49	C	1.293563	0.115464	-0.341520
C50	C	1.793563	0.615464	0.158480
C51	C	1.365629	0.187581	-0.386903
C52	C	1.865629	0.687581	0.113097
C53	C	1.432068	0.254087	-0.341475
C54	C	1.932068	0.754087	0.158525
C55	C	1.426438	0.248467	-0.250671
C56	C	1.926438	0.748467	0.249329
C57	C	1.389888	0.211825	-0.658474
C58	C	1.889888	0.711825	-0.158474
C59	C	1.395515	0.217436	-0.749284
C60	C	1.895515	0.717436	-0.249284
C61	C	1.257008	0.078815	-0.749323
C62	C	1.757008	0.578815	-0.249323
C63	C	1.251389	0.073197	-0.658518
C64	C	1.751389	0.573197	-0.158518
C65	C	1.317824	0.139707	-0.613098
C66	C	1.817824	0.639707	-0.113098
N67	N	1.371382	0.193330	-0.479721
N68	N	1.871382	0.693330	0.020279
N69	N	1.312065	0.133964	-0.520282
N70	N	1.812065	0.633964	-0.020282
N71	N	1.329079	0.150939	0.205294
N72	N	1.829079	0.650939	0.705294
H73	H	1.229259	0.051110	-0.213770
H74	H	1.729259	0.551110	0.286230
C75	C	1.236982	-0.085791	-0.556383
C76	C	1.736982	0.414209	-0.056383
C77	C	1.172143	-0.006034	-0.608619
C78	C	1.672143	0.493966	-0.108619
H79	H	1.188052	-0.134698	-0.525577
H80	H	1.688052	0.365302	-0.025577
H81	H	1.275755	-0.046989	-0.516352
H82	H	1.775755	0.453011	-0.016352
H83	H	1.291102	-0.129789	-0.591796
H84	H	1.791102	0.370211	-0.091796
H85	H	1.118028	0.037970	-0.573205
H86	H	1.618028	0.537970	-0.073205
H87	H	1.133351	-0.044839	-0.648654
H88	H	1.633351	0.455161	-0.148654
H89	H	1.202919	0.024668	-0.786314
H90	H	1.702919	0.524668	-0.286314
H91	H	1.454202	0.276168	-0.786233
H92	H	1.954202	0.776168	-0.286233
C93	C	1.156106	-0.022136	-0.332450
C94	C	1.656106	0.477864	0.167550
C95	C	1.220544	0.042363	-0.391453
C96	C	1.720544	0.542363	0.108547
H97	H	1.111031	-0.067271	-0.363280
H98	H	1.611031	0.432729	0.136720
H99	H	1.107717	0.027584	-0.297041
H100	H	1.607717	0.527584	0.202959
H101	H	1.205872	-0.070481	-0.297024
H102	H	1.705872	0.429519	0.202976
H103	H	1.170777	0.090714	-0.426875
H104	H	1.670777	0.590714	0.073125
H105	H	1.268936	-0.007363	-0.426877
H106	H	1.768936	0.492637	0.073123
C107	C	1.527376	0.349391	-0.667570
C108	C	2.027376	0.849391	-0.167570
C109	C	1.462926	0.284918	-0.608557
C110	C	1.962926	0.784918	-0.108557
H111	H	1.572475	0.394510	-0.636748
H112	H	2.072475	0.894510	-0.136748
H113	H	1.477626	0.397739	-0.702992
H114	H	1.977626	0.897739	-0.202992
H115	H	1.575752	0.299646	-0.702982
H116	H	2.075752	0.799646	-0.202982
H117	H	1.414544	0.334664	-0.573148
H118	H	1.914544	0.834664	-0.073148
H119	H	1.512682	0.236566	-0.573119
H120	H	2.012682	0.736566	-0.073119
C121	C	1.502207	0.324244	-0.480652
C122	C	2.002207	0.824244	0.019348
C123	C	1.511288	0.333358	-0.391358
C124	C	2.011288	0.833358	0.108642
H125	H	1.551123	0.373178	-0.511444
H126	H	2.051123	0.873178	-0.011444
H127	H	1.425615	0.345730	-0.495547
H128	H	1.925615	0.845730	0.004453
H129	H	1.523746	0.247643	-0.495524
H130	H	2.023746	0.747643	0.004476
H131	H	1.489741	0.409959	-0.376485
H132	H	1.989741	0.909959	0.123515
H133	H	1.587897	0.311879	-0.376457
H134	H	2.087897	0.811879	0.123543
H135	H	1.480535	0.302621	-0.213690
H136	H	1.980535	0.802621	0.286310
