data_functionalizedCrystal
_audit_creation_method	'MofGen! by Chris Wilmer'
_symmetry_space_group_name_H-M	'P1'
_symmetry_Int_Tables_number	1
_symmetry_cell_setting	triclinic
loop_
_symmetry_equiv_pos_as_xyz
  x,y,z
_cell_length_a	12.477989
_cell_length_b	14.560438
_cell_length_c	14.560438
_cell_angle_alpha	90.000844
_cell_angle_beta	55.726262
_cell_angle_gamma	64.370240
loop_
_atom_site_label
_atom_site_type_symbol
_atom_site_fract_x
_atom_site_fract_y
_atom_site_fract_z
Zr1	Zr	1.178104	-0.054609	0.818834
O2	O	1.402636	-0.188690	0.659624
O3	O	0.953567	-0.022218	0.876352
O4	O	1.178102	-0.201255	0.863788
O5	O	1.178105	0.141485	0.672189
O6	O	1.178105	-0.201256	1.014926
O7	O	1.178102	-0.009653	0.672188
O8	O	0.776454	0.119008	1.037401
O9	O	1.579756	-0.178779	0.649713
O10	O	1.045926	0.002121	1.003150
O11	O	1.045926	0.114915	0.890358
O12	O	1.310286	-0.095878	0.875565
O13	O	1.310286	0.016916	0.762773
Zr14	Zr	1.178113	0.186438	1.059883
Zr15	Zr	1.178108	-0.054610	1.059882
Zr16	Zr	1.178108	0.186440	0.818835
Zr17	Zr	1.460589	-0.038802	0.803028
Zr18	Zr	0.895628	0.170631	1.075689
O19	O	1.402650	0.154048	1.002364
O20	O	1.402643	-0.188692	1.002363
O21	O	1.402643	0.154050	0.659625
O22	O	0.953581	0.320519	1.219093
O23	O	0.953574	-0.022220	1.219091
O24	O	0.953574	0.320521	0.876354
O25	O	1.178112	-0.009656	1.206528
O26	O	1.178115	0.333085	1.014928
O27	O	1.178112	0.333086	0.863790
O28	O	1.178115	0.141482	1.206528
O29	O	1.579760	-0.178780	0.841314
O30	O	0.776457	0.310610	1.037402
O31	O	0.776461	0.310608	1.229003
O32	O	0.776457	0.119007	1.229002
O33	O	1.579760	0.012822	0.649714
O34	O	1.579763	0.012821	0.841315
O35	O	1.045931	0.227707	1.003151
O36	O	1.045931	0.114914	1.115943
O37	O	1.310291	0.016914	0.988358
O38	O	1.310291	0.129708	0.875566
C39	C	0.824762	0.046143	0.959129
C40	C	0.704840	0.039432	0.965839
C41	C	1.178103	0.065916	0.637844
C42	C	1.178101	0.065917	0.535513
C43	C	1.178114	0.367429	0.939360
C44	C	1.178116	0.469761	0.939360
C45	C	1.531455	0.085686	0.919588
C46	C	1.651377	0.092397	0.912878
C47	C	1.178103	-0.235600	0.939357
C48	C	1.178101	-0.337931	0.939357
C49	C	1.316107	0.466684	0.872764
C50	C	1.316100	0.562839	0.872758
C51	C	1.040099	0.665142	1.005955
C52	C	1.040108	0.568989	1.005953
C53	C	1.040110	0.117068	0.554033
C54	C	1.040117	0.117069	0.457877
C55	C	1.316118	0.014760	0.324685
C56	C	1.316109	0.014766	0.420840
C57	C	1.178114	0.065913	1.240872
C58	C	1.178116	0.065912	1.343203
C59	C	0.824768	0.046141	1.260643
C60	C	0.704848	0.039430	1.369684
C61	C	0.824768	0.347658	0.959130
C62	C	0.704848	0.443279	0.965841
C63	C	0.824774	0.347656	1.260644
C64	C	0.704856	0.443276	1.369686
C65	C	1.531443	-0.215826	0.618072
C66	C	1.651361	-0.311447	0.509031
C67	C	1.531449	0.085688	0.618073
C68	C	1.651369	0.092399	0.509032
C69	C	1.531449	-0.215828	0.919586
C70	C	1.651369	-0.311449	0.912876
C71	C	0.648534	0.547070	1.027869
C72	C	0.535872	0.636926	1.034169
C73	C	0.479518	0.622988	0.978447
C74	C	0.535842	0.519186	0.916411
C75	C	0.648510	0.429333	0.910105
C76	C	0.648541	0.429303	1.479779
C77	C	0.535880	0.519140	1.582244
C78	C	0.479529	0.622949	1.574613
C79	C	0.535855	0.636920	1.464507
C80	C	0.648521	0.547084	1.362045
C81	C	1.707690	-0.297473	0.398936
C82	C	1.820385	-0.387308	0.296470
C83	C	1.876742	-0.491117	0.304101
C84	C	1.820409	-0.505088	0.414207
C85	C	1.707723	-0.415254	0.516670
C86	C	1.707688	-0.297478	0.968611
C87	C	1.820351	-0.387315	0.962329
C88	C	1.876701	-0.491123	0.900304
C89	C	1.820371	-0.505094	0.844567
C90	C	1.707702	-0.415257	0.850857
C91	C	0.550942	0.114085	1.426353
C92	C	0.438248	0.107783	1.528800
C93	C	0.479464	0.026828	1.574581
C94	C	0.633385	-0.047835	1.517902
C95	C	0.746076	-0.041536	1.415453
C96	C	1.610106	0.173366	0.463285
C97	C	1.722768	0.179694	0.360839
C98	C	1.876693	0.105049	0.304139
C99	C	1.917956	0.024078	0.349895
C100	C	1.805294	0.017756	0.452344
H101	H	0.697358	0.142869	0.862394
C102	C	0.888298	0.774299	1.079384
N103	N	0.773958	0.856516	1.134757
H104	H	0.694346	0.344824	0.859599
H105	H	0.927734	0.158730	0.647401
C106	C	1.882319	-0.619295	0.776392
N107	N	1.928967	-0.705316	0.725056
C108	C	1.645756	-0.430644	0.637772
N109	N	1.599085	-0.442244	0.728985
H110	H	0.694405	0.558439	1.073246
H111	H	0.489942	0.507854	0.871045
H112	H	0.927751	0.158722	0.472967
H113	H	0.490031	0.507745	1.671887
C114	C	1.467919	-0.041517	0.198540
N115	N	1.582259	-0.083912	0.103526
C116	C	2.000688	-0.589928	0.191377
N117	N	2.094038	-0.664349	0.106469
C118	C	1.850710	-0.071331	0.502641
N119	N	1.884929	-0.138438	0.540518
H120	H	0.658867	-0.011053	1.016315
C121	C	1.645728	-0.183291	0.390513
N122	N	1.599074	-0.097291	0.384158
C123	C	1.882328	-0.371916	0.175366
N124	N	1.928981	-0.360319	0.084153
H125	H	0.927732	0.571501	1.060184
C126	C	2.087284	-0.058039	0.287496
N127	N	2.214825	-0.119897	0.240485
C128	C	0.473840	0.751119	1.456133
N129	N	0.427118	0.837136	1.449830
C130	C	0.473921	0.751097	1.102428
N131	N	0.427259	0.837088	1.153844
C132	C	0.505568	0.203142	1.376009
N133	N	0.471379	0.270219	1.338092
H134	H	1.866309	-0.589619	0.420406
C135	C	0.268944	0.189928	1.591133
N136	N	0.141427	0.251801	1.638080
H137	H	1.661825	-0.212959	1.019118
C138	C	1.467920	0.357535	0.799494
N139	N	1.582271	0.275325	0.744298
C140	C	0.710514	0.315122	1.488202
N141	N	0.757194	0.229123	1.494555
C142	C	0.355582	0.721760	1.687337
N143	N	0.262218	0.796180	1.772245
H144	H	0.387776	0.696162	0.983591
H145	H	1.661860	-0.426648	0.805465
C146	C	0.710452	0.562473	1.240945
N147	N	0.757095	0.574071	1.149733
C148	C	1.440794	0.255494	0.525642
N149	N	1.313270	0.317362	0.572608
H150	H	0.387688	0.021709	1.658000
H151	H	1.866202	-0.375919	1.007715
C152	C	0.678698	-0.136876	1.568282
N153	N	0.712824	-0.203937	1.606237
H154	H	1.689142	0.245629	0.323598
C155	C	0.915374	-0.123660	1.353136
N156	N	1.042891	-0.185520	1.306206
H157	H	1.428485	-0.026884	0.405751
H158	H	1.428466	0.560324	0.818527
H159	H	1.968443	-0.564265	0.895191
H160	H	1.968414	0.110208	0.220719
