data_functionalizedCrystal
_audit_creation_method	'MofGen! by Chris Wilmer'
_symmetry_space_group_name_H-M	'P1'
_symmetry_Int_Tables_number	1
_symmetry_cell_setting	triclinic
loop_
_symmetry_equiv_pos_as_xyz
  x,y,z
_cell_length_a	11.026607
_cell_length_b	14.853567
_cell_length_c	10.065875
_cell_angle_alpha	98.805381
_cell_angle_beta	79.302338
_cell_angle_gamma	96.110474
loop_
_atom_site_label
_atom_site_type_symbol
_atom_site_fract_x
_atom_site_fract_y
_atom_site_fract_z
O1	O	1.628533	0.367252	-0.113466
O2	O	1.275155	0.324252	-0.113471
O3	O	1.461284	0.216045	-0.113472
O4	O	1.442404	0.475459	-0.113464
O5	O	1.425792	0.236785	0.113517
O6	O	1.239663	0.344992	0.113518
O7	O	1.593041	0.387992	0.113524
Zn8	Zn	1.410717	0.369785	0.149560
Zn9	Zn	1.457479	0.342459	-0.149507
O10	O	1.406912	0.496199	0.113525
C11	C	1.212185	0.326689	0.000023
C12	C	1.077432	0.303041	0.000021
C13	C	1.003736	0.368337	0.000022
C14	C	0.864461	0.343897	0.000019
C15	C	1.442683	0.192688	0.000018
C16	C	1.440122	0.092190	0.000007
C17	C	1.318718	-0.339931	0.000031
C18	C	1.539843	-0.325531	0.000034
C19	C	1.542254	-0.231109	0.000026
C20	C	1.432895	-0.191094	0.000022
C21	C	1.321126	-0.245500	0.000027
C22	C	1.654020	-0.176694	0.000035
C23	C	1.656436	-0.082266	0.000029
C24	C	1.547077	-0.042250	0.000016
C25	C	1.435303	-0.096663	0.000019
C26	C	1.325944	-0.056648	0.000015
C27	C	1.214170	-0.111060	0.000008
C28	C	1.211767	-0.205484	0.000014
C29	C	1.549480	0.052174	0.000010
C30	C	1.328352	0.037783	0.000011
C31	C	1.656012	0.385555	0.000027
C32	C	1.790767	0.409202	0.000020
C33	C	1.425514	0.519556	0.000031
C34	C	1.428077	0.620053	0.000034
N35	N	1.378812	0.388434	0.353666
N36	N	1.489394	0.323804	-0.353613
C37	C	1.446371	0.348941	0.421444
C38	C	1.421825	0.363303	0.578612
H39	H	1.037421	0.229043	-0.000017
H40	H	0.824456	0.269894	-0.000018
O41	O	1.764940	-0.029355	0.000263
C42	C	1.877589	0.096399	0.117790
C43	C	1.754650	0.036531	0.117719
H44	H	1.869303	0.149694	0.212728
H45	H	1.955372	0.051631	0.117881
H46	H	1.899082	0.132232	0.022744
H47	H	1.733041	0.000688	0.212749
H48	H	1.676937	0.081345	0.117557
H49	H	1.565407	0.279353	0.588065
O50	O	1.536930	0.295795	0.351904
C51	C	1.614155	0.146404	0.307863
C52	C	1.511496	0.206475	0.386692
H53	H	1.593642	0.074181	0.335982
H54	H	1.617772	0.144210	0.193495
H55	H	1.707112	0.176376	0.335827
H56	H	1.418486	0.176548	0.358843
H57	H	1.507989	0.208667	0.501041
O58	O	1.222066	0.076529	-0.000176
C59	C	1.052240	0.082409	-0.117825
C60	C	1.172571	0.038440	-0.117767
H61	H	1.012201	0.051646	-0.212902
H62	H	0.982313	0.068943	-0.022900
H63	H	1.073174	0.159248	-0.117756
H64	H	1.151755	-0.038407	-0.117884
H65	H	1.242461	0.051980	-0.212684
H66	H	1.043751	0.442332	0.000032
O67	O	1.107891	-0.072305	-0.000178
C68	C	0.938071	-0.066400	-0.117826
C69	C	1.058391	-0.110385	-0.117769
H70	H	0.898029	-0.097156	-0.212903
H71	H	0.868141	-0.079862	-0.022901
H72	H	0.959021	0.010437	-0.117754
H73	H	1.037560	-0.187231	-0.117889
H74	H	1.128285	-0.096850	-0.212686
O75	O	1.103293	-0.258465	0.000081
C76	C	1.001602	-0.410322	0.000027
C77	C	1.124527	-0.350423	-0.000024
H78	H	1.018732	-0.484684	-0.000087
H79	H	0.932682	-0.386687	0.095044
H80	H	0.962399	-0.403940	-0.094945
H81	H	1.163839	-0.356776	0.094884
H82	H	1.193364	-0.374074	-0.095104
O83	O	1.330977	0.416205	0.648118
C84	C	1.113313	0.439178	0.692090
C85	C	1.216070	0.379178	0.613313
H86	H	1.020390	0.409276	0.663957
H87	H	1.109565	0.441298	0.806466
H88	H	1.133934	0.511428	0.664095
H89	H	1.195521	0.306900	0.641193
H90	H	1.219794	0.377136	0.498956
H91	H	1.640484	0.096473	0.000025
O92	O	1.287968	0.441334	0.423178
C93	C	1.070304	0.464307	0.467150
C94	C	1.173062	0.404306	0.388372
H95	H	0.977382	0.434404	0.439017
H96	H	1.066556	0.466426	0.581526
H97	H	1.090926	0.536556	0.439155
H98	H	1.152513	0.332028	0.416253
H99	H	1.176785	0.402264	0.274016
O100	O	1.646174	-0.364313	-0.000144
C101	C	1.852787	-0.391709	-0.117788
C102	C	1.732445	-0.347723	-0.117735
H103	H	1.922560	-0.378329	-0.212864
H104	H	1.893031	-0.360894	-0.022862
H105	H	1.831823	-0.468534	-0.117714
H106	H	1.753306	-0.270897	-0.117857
H107	H	1.692235	-0.378609	-0.212653
O108	O	1.760349	-0.215479	-0.000144
C109	C	1.966965	-0.242876	-0.117780
C110	C	1.846626	-0.198883	-0.117726
H111	H	2.036743	-0.229490	-0.212849
H112	H	2.007204	-0.212070	-0.022847
H113	H	1.945995	-0.319702	-0.117720
H114	H	1.867492	-0.122056	-0.117834
H115	H	1.806421	-0.229760	-0.212650
H116	H	1.227715	-0.384238	0.000020
H117	H	0.830774	0.483203	0.000032
