data_functionalizedCrystal
_audit_creation_method	'MofGen! by Chris Wilmer'
_symmetry_space_group_name_H-M	'P1'
_symmetry_Int_Tables_number	1
_symmetry_cell_setting	triclinic
loop_
_symmetry_equiv_pos_as_xyz
  x,y,z
_cell_length_a	12.759401
_cell_length_b	12.759399
_cell_length_c	11.169409
_cell_angle_alpha	89.967363
_cell_angle_beta	89.978785
_cell_angle_gamma	90.016228
loop_
_atom_site_label
_atom_site_type_symbol
_atom_site_fract_x
_atom_site_fract_y
_atom_site_fract_z
Zn1	Zn	1.606263	-0.418168	-0.678585
Zn2	Zn	1.606150	-0.593893	-0.477901
Zn3	Zn	1.430561	-0.418231	-0.477914
Zn4	Zn	1.430551	-0.593807	-0.678541
O5	O	1.518381	-0.506025	-0.578235
O6	O	1.753269	-0.441488	-0.651976
O7	O	1.582814	-0.570654	-0.309953
O8	O	1.453920	-0.271201	-0.504558
O9	O	1.753186	-0.570593	-0.504535
O10	O	1.583008	-0.271155	-0.651990
O11	O	1.453810	-0.441595	-0.309963
O12	O	1.283538	-0.441511	-0.504515
O13	O	1.453903	-0.570445	-0.846496
O14	O	1.283531	-0.570506	-0.651914
O15	O	1.582998	-0.441404	-0.846529
O16	O	1.582804	-0.740903	-0.504492
O17	O	1.453793	-0.740839	-0.651901
C18	C	1.245414	-0.506007	-0.578212
C19	C	1.128637	-0.506024	-0.578231
C20	C	0.964003	-0.573158	-0.501377
C21	C	1.073727	-0.573142	-0.501354
C22	C	1.073818	-0.438910	-0.655126
C23	C	0.964096	-0.438921	-0.655142
C24	C	1.223609	-0.610524	-0.359716
C25	C	1.278424	-0.677647	-0.282834
C26	C	1.242786	-0.780147	-0.264213
C27	C	1.152335	-0.815544	-0.322490
C28	C	1.097525	-0.748426	-0.399381
C29	C	1.133161	-0.645912	-0.417980
C30	C	0.814212	-0.401550	-0.796782
C31	C	0.759400	-0.334437	-0.873679
C32	C	0.795035	-0.231936	-0.892313
C33	C	0.885490	-0.196543	-0.834057
C34	C	0.940302	-0.263656	-0.757159
C35	C	0.904659	-0.366156	-0.738523
C36	C	1.518314	-0.778992	-0.578216
C37	C	1.518381	-0.895769	-0.578248
C38	C	1.451194	-0.950636	-0.654949
C39	C	1.451260	-1.060360	-0.654972
C40	C	1.585708	-1.060340	-0.501590
C41	C	1.585636	-0.950618	-0.501562
C42	C	1.327434	-1.210396	-0.697768
C43	C	1.260256	-1.265267	-0.774487
C44	C	1.244051	-1.229590	-0.891569
C45	C	1.295039	-1.139044	-0.931956
C46	C	1.362224	-1.084179	-0.855244
C47	C	1.378409	-1.119854	-0.738145
C48	C	1.709464	-0.800579	-0.458778
C49	C	1.776655	-0.745712	-0.382071
C50	C	1.792871	-0.781387	-0.264987
C51	C	1.741902	-0.871937	-0.224604
C52	C	1.674711	-0.926804	-0.301312
C53	C	1.658493	-0.891121	-0.418395
C54	C	1.792414	-0.506043	-0.578259
C55	C	1.909191	-0.506051	-0.578269
C56	C	1.518462	-0.505908	-0.891278
C57	C	1.518496	-0.505858	-1.024678
C58	C	1.518477	-0.231991	-0.578280
C59	C	1.518518	-0.115215	-0.578299
C60	C	1.518361	-0.506065	-0.266410
C61	C	1.518530	-0.505819	-0.133011
H62	H	0.785190	-0.485017	-0.781618
H63	H	1.403738	-1.010459	-0.888127
O64	O	1.117788	-0.915169	-0.304612
C65	C	1.077051	-1.082009	-0.394253
C66	C	1.116216	-0.969219	-0.414667
H67	H	1.075747	-1.125735	-0.483220
H68	H	1.131766	-1.123972	-0.329352
H69	H	0.994567	-1.079795	-0.355073
H70	H	1.198685	-0.971338	-0.453886
H71	H	1.061429	-0.927302	-0.479525
O72	O	1.258251	-0.510928	-0.377569
C73	C	1.298893	-0.344066	-0.287924
C74	C	1.259660	-0.456836	-0.267537
H75	H	1.300025	-0.300294	-0.198984
H76	H	1.381424	-0.346197	-0.326987
H77	H	1.244198	-0.302199	-0.352925
H78	H	1.314278	-0.498770	-0.202514
H79	H	1.177111	-0.454631	-0.228535
O80	O	1.296128	-0.845200	-0.189449
C81	C	1.444006	-0.865871	-0.057412
C82	C	1.383681	-0.792091	-0.142033
H83	H	1.514817	-0.822968	-0.019072
H84	H	1.390374	-0.891645	0.018774
H85	H	1.471524	-0.937658	-0.109368
H86	H	1.356155	-0.720255	-0.090181
H87	H	1.437352	-0.766401	-0.218220
O88	O	1.858279	-0.728230	-0.190496
C89	C	2.014583	-0.734341	-0.069676
C90	C	1.940614	-0.794650	-0.154042
H91	H	2.081155	-0.788022	-0.040158
H92	H	2.048322	-0.663521	-0.118615
H93	H	1.968979	-0.706844	0.012277
H94	H	1.986144	-0.822217	-0.236012
H95	H	1.906871	-0.865420	-0.105014
O96	O	1.009764	-0.782807	-0.456178
C97	C	0.924973	-0.815440	-0.645260
C98	C	1.024442	-0.776501	-0.581099
H99	H	0.936798	-0.810335	-0.746268
H100	H	0.908902	-0.900257	-0.618853
H101	H	0.855542	-0.764482	-0.618144
H102	H	1.093935	-0.827382	-0.608181
H103	H	1.040422	-0.691669	-0.607507
O104	O	1.279328	-1.104575	-1.045774
C105	C	1.293177	-1.143438	-1.256282
C106	C	1.311003	-1.182618	-1.127445
H107	H	1.318798	-1.206508	-1.322348
H108	H	1.206482	-1.125481	-1.269953
H109	H	1.341127	-1.069276	-1.271921
H110	H	1.263117	-1.256803	-1.111717
H111	H	1.397720	-1.200503	-1.113836
H112	H	1.189353	-1.274274	-0.954035
H113	H	1.352085	-0.648826	-0.235409
H114	H	1.340610	-1.239445	-0.602426
O115	O	1.650994	-1.113785	-0.427205
C116	C	1.710617	-1.282809	-0.359185
C117	C	1.636650	-1.222417	-0.443516
H118	H	1.699030	-1.370648	-0.372325
H119	H	1.795340	-1.261229	-0.380318
H120	H	1.692187	-1.261247	-0.262406
H121	H	1.654986	-1.243946	-0.540323
H122	H	1.551949	-1.244002	-0.422279
O123	O	1.625240	-1.014717	-0.261877
C124	C	1.597900	-1.134166	-0.097620
C125	C	1.653972	-1.034579	-0.142114
H126	H	1.621126	-1.150268	-0.000796
H127	H	1.509459	-1.122493	-0.103240
H128	H	1.621663	-1.203512	-0.155930
H129	H	1.630295	-0.965185	-0.083841
H130	H	1.742402	-1.046340	-0.136521
O131	O	0.671536	-0.368663	-0.930405
C132	C	0.531174	-0.326360	-1.066365
C133	C	0.630677	-0.287477	-1.002227
H134	H	0.498098	-0.260734	-1.124428
H135	H	0.551444	-0.396525	-1.125116
H136	H	0.470272	-0.350592	-0.996954
H137	H	0.691624	-0.263187	-1.071553
H138	H	0.610326	-0.217350	-0.943453
H139	H	1.118534	-0.384257	-0.717715
H140	H	1.818159	-0.671984	-0.414962
H141	H	1.696249	-0.771512	-0.554111
O142	O	0.919938	-0.096922	-0.852234
C143	C	0.891400	0.067569	-0.953165
C144	C	0.852264	-0.045219	-0.932664
H145	H	0.836717	0.109396	-1.018212
H146	H	0.892592	0.111427	-0.864279
H147	H	0.973920	0.065354	-0.992245
H148	H	0.769732	-0.043101	-0.893622
H149	H	0.851150	-0.089032	-1.021579
H150	H	1.218742	-1.338990	-0.741593
H151	H	1.755111	-0.900988	-0.129266
H152	H	1.014093	-0.234908	-0.709943
O153	O	1.386011	-0.897305	-0.729558
C154	C	1.371720	-0.773279	-0.891502
C155	C	1.445664	-0.833625	-0.807103
H156	H	1.419919	-0.721762	-0.954202
H157	H	1.323727	-0.831296	-0.946414
H158	H	1.316757	-0.722045	-0.836306
H159	H	1.500691	-0.884860	-0.862207
H160	H	1.493583	-0.775551	-0.752188
H161	H	0.919302	-0.627818	-0.438781
H162	H	0.750402	-0.177297	-0.954939
