data_functionalizedCrystal
_audit_creation_method	'MofGen! by Chris Wilmer'
_symmetry_space_group_name_H-M	'P1'
_symmetry_Int_Tables_number	1
_symmetry_cell_setting	triclinic
loop_
_symmetry_equiv_pos_as_xyz
  x,y,z
_cell_length_a	23.532407
_cell_length_b	13.339070
_cell_length_c	11.804365
_cell_angle_alpha	74.875130
_cell_angle_beta	78.237636
_cell_angle_gamma	80.761014
loop_
_atom_site_label
_atom_site_type_symbol
_atom_site_fract_x
_atom_site_fract_y
_atom_site_fract_z
O1	O	-0.276801	1.359932	-0.098994
O2	O	-0.239385	1.065781	-0.098997
O3	O	-0.176590	1.221730	-0.099011
O4	O	-0.339596	1.203983	-0.098981
O5	O	-0.193098	1.180675	0.099049
O6	O	-0.255894	1.024726	0.099062
O7	O	-0.293309	1.318877	0.099065
Cu8	Cu	-0.276109	1.168053	0.117148
Cu9	Cu	-0.256586	1.216605	-0.117080
O10	O	-0.356105	1.162928	0.099079
C11	C	-0.241319	1.007628	0.000032
C12	C	-0.222480	0.895516	0.000029
C13	C	-0.368962	0.529250	0.000037
C14	C	-0.386663	0.634585	0.000036
C15	C	-0.345619	0.699822	0.000035
C16	C	-0.286870	0.659715	0.000034
C17	C	-0.269166	0.554372	0.000026
C18	C	-0.245823	0.724945	0.000024
C19	C	-0.187074	0.684837	0.000023
C20	C	-0.169373	0.579504	0.000016
C21	C	-0.210417	0.514266	0.000017
C22	C	-0.263528	0.830288	0.000031
C23	C	-0.163732	0.855410	0.000020
C24	C	-0.146030	0.750075	0.000022
C25	C	-0.369139	1.183907	0.000053
C26	C	-0.432576	1.185262	0.000064
C27	C	-0.818171	1.101509	0.000002
C28	C	-0.877774	1.102772	-0.000006
O29	O	-0.901997	1.025129	-0.000051
N30	N	-0.915345	1.195482	-0.000004
C31	C	-0.893310	1.286936	-0.000005
O32	O	-0.930741	1.365908	-0.000004
C33	C	-0.833708	1.285673	-0.000005
C34	C	-0.796140	1.192955	0.000005
C35	C	-0.780603	1.008799	0.000010
C36	C	-0.721005	1.007536	0.000021
C37	C	-0.698974	1.098982	0.000023
C38	C	-0.736541	1.191692	0.000015
C39	C	-0.811673	1.377128	-0.000015
C40	C	-0.752066	1.375857	-0.000016
C41	C	-0.714498	1.283140	-0.000006
C42	C	-0.654911	1.281875	0.000028
N43	N	-0.617340	1.189166	0.000025
C44	C	-0.639371	1.097719	0.000023
C45	C	-1.018479	1.289581	-0.000006
C46	C	-1.078082	1.290843	0.000002
C47	C	-1.062541	1.106680	-0.000001
C48	C	-1.002938	1.105417	-0.000001
C49	C	-0.980908	1.196872	-0.000009
C50	C	-0.514210	1.095073	0.000046
C51	C	-0.454608	1.093816	0.000062
C52	C	-0.470153	1.277980	0.000059
C53	C	-0.529751	1.279236	0.000050
C54	C	-0.551777	1.187775	0.000039
O55	O	-0.630647	1.359478	0.000068
O56	O	-0.601933	1.018763	0.000007
C57	C	-0.163555	1.200752	0.000013
C58	C	-0.100117	1.199397	-0.000006
C59	C	-0.291375	1.377030	0.000034
C60	C	-0.310213	1.489144	0.000028
N61	N	-0.289841	1.133911	0.281892
N62	N	-0.242850	1.250755	-0.281824
C63	C	-0.209863	1.332742	0.655823
C64	C	-0.199472	1.358569	0.531160
C65	C	-0.222063	1.302406	0.468837
C66	C	-0.255048	1.220413	0.531190
C67	C	-0.265444	1.194588	0.655866
C68	C	-0.277644	1.164253	0.468879
C69	C	-0.310628	1.082260	0.531232
C70	C	-0.321022	1.056439	0.655896
C71	C	-0.298431	1.112602	0.718219
C72	C	-0.267248	1.190077	0.344203
C73	C	-0.322829	1.051924	0.344245
C74	C	-0.333220	1.026097	0.468909
H75	H	-0.121535	0.546855	0.000002
F76	F	-0.083506	0.707377	0.000020
F77	F	-0.232144	1.277337	0.277856
F78	F	-0.191581	0.402153	0.000022
H79	H	-0.306889	1.091571	0.819730
H80	H	-0.311362	0.862932	0.000037
H81	H	-0.347886	0.989683	0.706664
F82	F	-0.364461	0.811929	0.000035
H83	H	-1.000548	1.364058	-0.000004
F84	F	-0.346876	0.992151	0.277921
F85	F	-0.851642	1.475816	-0.000046
F86	F	-0.728623	1.473200	-0.000028
F87	F	-0.569738	1.377908	0.000078
F88	F	-0.368324	0.938835	0.535282
F89	F	-0.414628	0.995129	0.000075
H90	H	-0.532136	1.020596	0.000037
H91	H	-0.402373	0.476127	0.000028
H92	H	-0.434496	0.667234	0.000027
F93	F	-0.446696	1.375297	0.000070
H94	H	-1.080489	1.032219	-0.000002
F95	F	-0.211002	1.329894	0.336157
H96	H	-0.690421	0.932038	0.000018
F97	F	-0.120045	0.924838	0.000011
F98	F	-0.164370	1.445828	0.464803
H99	H	-0.972354	1.029917	0.000011
F100	F	-0.804040	0.911461	0.000004
H101	H	-0.191475	1.378467	0.706575
F102	F	-1.118060	1.389522	0.000009
