data_functionalizedCrystal
_audit_creation_method	'MofGen! by Chris Wilmer'
_symmetry_space_group_name_H-M	'P1'
_symmetry_Int_Tables_number	1
_symmetry_cell_setting	triclinic
loop_
_symmetry_equiv_pos_as_xyz
  x,y,z
_cell_length_a	18.101395
_cell_length_b	29.839134
_cell_length_c	18.101389
_cell_angle_alpha	89.971270
_cell_angle_beta	89.983159
_cell_angle_gamma	90.025965
loop_
_atom_site_label
_atom_site_type_symbol
_atom_site_fract_x
_atom_site_fract_y
_atom_site_fract_z
Zn1	Zn	-0.295009	0.686782	-0.418934
Zn2	Zn	-0.418834	0.686719	-0.295096
Zn3	Zn	-0.295000	0.611656	-0.295085
Zn4	Zn	-0.418802	0.611626	-0.418875
O5	O	-0.356911	0.649195	-0.356997
O6	O	-0.311452	0.749640	-0.402535
O7	O	-0.402418	0.676747	-0.191461
O8	O	-0.191368	0.621660	-0.311535
O9	O	-0.402426	0.749594	-0.311552
O10	O	-0.191375	0.676855	-0.402526
O11	O	-0.311437	0.621599	-0.191454
O12	O	-0.311406	0.548785	-0.311477
O13	O	-0.402370	0.621609	-0.522516
O14	O	-0.402362	0.548763	-0.402425
O15	O	-0.311420	0.676826	-0.522559
O16	O	-0.522463	0.676718	-0.311495
O17	O	-0.522439	0.621548	-0.402435
C18	C	-0.356880	0.532473	-0.356944
C19	C	-0.356884	0.482538	-0.356939
C20	C	-0.549322	0.649135	-0.356976
C21	C	-0.631636	0.649151	-0.356991
C22	C	-0.404342	0.172893	-0.404296
C23	C	-0.404363	-0.014780	-0.404329
O24	O	-0.444679	-0.039046	-0.444562
N25	N	-0.356938	-0.038247	-0.357053
C26	C	-0.309502	-0.014792	-0.309770
O27	O	-0.269159	-0.039058	-0.269565
C28	C	-0.309478	0.172880	-0.309741
C29	C	-0.356911	0.196344	-0.357014
C30	C	-0.451771	0.196357	-0.451566
C31	C	-0.451768	0.243273	-0.451554
C32	C	-0.404337	0.266724	-0.404273
C33	C	-0.356908	0.243260	-0.357003
C34	C	-0.262038	0.196334	-0.262462
C35	C	-0.262034	0.243255	-0.262460
C36	C	-0.309468	0.266719	-0.309733
C37	C	-0.309473	0.313626	-0.309709
N38	N	-0.356898	0.337093	-0.356985
C39	C	-0.404330	0.313642	-0.404267
C40	C	-0.309519	-0.113323	-0.309787
C41	C	-0.309525	-0.160241	-0.309793
C42	C	-0.404386	-0.160225	-0.404353
C43	C	-0.404383	-0.113306	-0.404343
C44	C	-0.356943	-0.089856	-0.357062
C45	C	-0.404321	0.412168	-0.404238
C46	C	-0.404316	0.459087	-0.404220
C47	C	-0.309453	0.459068	-0.309663
C48	C	-0.309460	0.412152	-0.309678
C49	C	-0.356896	0.388703	-0.356971
O50	O	-0.269173	0.337922	-0.269503
O51	O	-0.444655	0.337916	-0.444477
C52	C	-0.404345	0.125978	-0.404307
C53	C	-0.356917	0.102513	-0.357037
C54	C	-0.309485	0.125965	-0.309756
C55	C	-0.356923	0.055596	-0.357043
C56	C	-0.404355	0.032144	-0.404325
C57	C	-0.451780	0.055611	-0.451600
C58	C	-0.451777	0.102527	-0.451589
C59	C	-0.262060	0.102498	-0.262480
C60	C	-0.262067	0.055582	-0.262495
C61	C	-0.309499	0.032131	-0.309777
C62	C	-0.930727	0.649249	-0.357031
C63	C	-0.899418	0.614618	-0.414390
C64	C	-0.813800	0.614454	-0.414211
C65	C	-0.782344	0.649200	-0.357012
C66	C	-0.813480	0.636383	-0.278959
C67	C	-0.899125	0.636160	-0.279302
C68	C	-0.899081	0.696774	-0.377038
C69	C	-0.813430	0.696495	-0.378750
C70	C	-0.698485	0.649174	-0.356996
C71	C	-1.014586	0.649275	-0.357041
C72	C	-0.163749	0.649268	-0.357036
C73	C	-0.081435	0.649299	-0.357052
C74	C	-0.356943	0.766374	-0.357052
C75	C	-0.356957	0.816308	-0.357075
C76	C	-0.356893	0.649221	-0.550159
C77	C	-0.356885	0.649232	-0.632474
C78	C	-0.356746	0.649259	-0.931565
C79	C	-0.413787	0.614398	-0.900212
C80	C	-0.414052	0.614492	-0.814594
C81	C	-0.356815	0.649245	-0.783182
C82	C	-0.378006	0.696578	-0.814294
C83	C	-0.378380	0.696384	-0.899939
C84	C	-0.278386	0.637198	-0.899985
C85	C	-0.278839	0.636145	-0.814334
C86	C	-0.356852	0.649241	-0.699323
C87	C	-0.356710	0.649266	-1.015424
C88	C	-0.356877	0.649195	-0.164587
C89	C	-0.356676	0.649271	-0.082273
H90	H	-0.442944	0.478190	-0.442716
C91	C	-0.785954	0.669382	-0.219642
C92	C	-0.809617	0.663317	-0.138528
C93	C	-0.782089	0.696316	-0.079212
C94	C	-0.730898	0.735380	-0.101012
C95	C	-0.707232	0.741446	-0.182131
C96	C	-0.734760	0.708447	-0.241446
H97	H	-0.847514	0.634398	-0.122387
H98	H	-0.799609	0.691826	-0.019163
H99	H	-0.710520	0.759808	-0.057103
H100	H	-0.669335	0.770365	-0.198271
H101	H	-0.717240	0.712938	-0.301495
C102	C	-0.927113	0.668751	-0.219593
C103	C	-1.010680	0.675194	-0.207726
C104	C	-1.038664	0.707782	-0.148014
C105	C	-0.983082	0.733927	-0.100171
C106	C	-0.899511	0.727485	-0.112037
C107	C	-0.871526	0.694897	-0.171748
H108	H	-1.051829	0.655839	-0.243144
H109	H	-1.100530	0.712551	-0.139231
H110	H	-1.003798	0.758051	-0.055969
H111	H	-0.858361	0.746840	-0.076618
H112	H	-0.809661	0.690128	-0.180532
H113	H	-0.435662	0.706608	-0.919926
C114	C	-0.928199	0.712562	-0.452621
C115	C	-0.904422	0.758407	-0.483686
C116	C	-0.933539	0.774189	-0.559273
C117	C	-0.986435	0.744126	-0.603794
C118	C	-1.010215	0.698278	-0.572730
C119	C	-0.981097	0.682496	-0.497144
H120	H	-0.865263	0.780665	-0.450728
H121	H	-0.915935	0.808129	-0.582268
H122	H	-1.007989	0.755808	-0.659748
H123	H	-1.049374	0.676020	-0.605688
H124	H	-0.998701	0.648556	-0.474148
H125	H	-0.223398	0.262346	-0.223962
C126	C	-0.784590	0.589946	-0.255653
C127	C	-0.732790	0.563618	-0.307303
C128	C	-0.703903	0.517180	-0.284002
C129	C	-0.726816	0.497070	-0.209052
C130	C	-0.778619	0.523398	-0.157397
C131	C	-0.807506	0.569836	-0.180698
H132	H	-0.715826	0.578504	-0.362790
H133	H	-0.665554	0.497690	-0.322241
H134	H	-0.705432	0.462694	-0.191803
H135	H	-0.795583	0.508512	-0.101910
H136	H	-0.845855	0.589326	-0.142459
C137	C	-0.252306	0.591379	-0.929132
C138	C	-0.180549	0.587986	-0.974501
C139	C	-0.154479	0.542165	-1.003650
C140	C	-0.200165	0.499738	-0.987428
C141	C	-0.271926	0.503130	-0.942057
C142	C	-0.297996	0.548950	-0.912909
H143	H	-0.146726	0.619395	-0.986511
H144	H	-0.101357	0.539655	-1.037237
H145	H	-0.180866	0.465819	-1.009006
H146	H	-0.305749	0.471721	-0.930047
H147	H	-0.351118	0.551461	-0.879322
H148	H	-0.338638	0.723238	-0.920682
C149	C	-0.218373	0.667945	-0.785459
C150	C	-0.238835	0.706539	-0.732854
C151	C	-0.178371	0.738344	-0.703981
C152	C	-0.097446	0.731556	-0.727714
C153	C	-0.076980	0.692961	-0.780323
C154	C	-0.137444	0.661155	-0.809195
H155	H	-0.298744	0.711565	-0.715282
H156	H	-0.193522	0.766915	-0.665037
H157	H	-0.052687	0.755100	-0.706341
H158	H	-0.017071	0.687934	-0.797894
H159	H	-0.122293	0.632584	-0.848139
C160	C	-0.456505	0.386378	-0.456256
C161	C	-0.540682	0.392812	-0.450055
C162	C	-0.592869	0.367023	-0.502068
C163	C	-0.560879	0.334800	-0.560283
C164	C	-0.476698	0.328365	-0.566486
C165	C	-0.424510	0.354154	-0.514473
H166	H	-0.564367	0.416667	-0.406959
H167	H	-0.655186	0.371787	-0.497475
H168	H	-0.599512	0.315709	-0.598786
H169	H	-0.453013	0.304510	-0.609582
H170	H	-0.362193	0.349390	-0.519066
C171	C	-0.926433	0.731633	-0.320608
C172	C	-0.870399	0.758153	-0.273864
C173	C	-0.897755	0.793009	-0.217432
C174	C	-0.981145	0.801344	-0.207744
C175	C	-1.037185	0.774824	-0.254489
C176	C	-1.009829	0.739968	-0.310921
H177	H	-0.808663	0.751984	-0.281035
H178	H	-0.856270	0.812641	-0.182828
H179	H	-1.001396	0.827146	-0.165970
H180	H	-1.098920	0.780993	-0.247319
H181	H	-1.051313	0.720336	-0.345525
H182	H	-0.919977	0.622558	-0.472453
H183	H	-0.262859	0.601312	-0.793997
H184	H	-0.270837	0.478170	-0.271165
C185	C	-0.209888	0.128292	-0.210463
C186	C	-0.241898	0.160514	-0.152257
C187	C	-0.189727	0.186307	-0.100232
C188	C	-0.105547	0.179878	-0.106413
C189	C	-0.073533	0.147655	-0.164621
C190	C	-0.125704	0.121862	-0.216646
H191	H	-0.304217	0.165274	-0.147679
H192	H	-0.213427	0.210160	-0.057142
H193	H	-0.066928	0.198972	-0.067901
H194	H	-0.011215	0.142895	-0.169199
H195	H	-0.102005	0.098009	-0.259736
C196	C	-0.503955	0.170567	-0.503579
C197	C	-0.588131	0.177006	-0.497376
C198	C	-0.640324	0.151220	-0.549388
C199	C	-0.608340	0.118994	-0.607602
C200	C	-0.524160	0.112553	-0.613807
C201	C	-0.471967	0.138340	-0.561795
H202	H	-0.611811	0.200863	-0.454281
H203	H	-0.702640	0.155988	-0.544795
H204	H	-0.646977	0.099906	-0.646105
H205	H	-0.500480	0.088697	-0.656902
H206	H	-0.409651	0.133571	-0.566388
C207	C	-0.220968	0.671495	-0.927381
C208	C	-0.177282	0.699887	-0.871379
C209	C	-0.119870	0.734185	-0.898779
C210	C	-0.106144	0.740090	-0.982180
C211	C	-0.149830	0.711697	-1.038187
C212	C	-0.207242	0.677399	-1.010787
H213	H	-0.187442	0.695516	-0.809636
H214	H	-0.087531	0.755203	-0.857318
H215	H	-0.063644	0.765479	-1.002463
H216	H	-0.139670	0.716068	-1.099930
H217	H	-0.239582	0.656381	-1.052247
C218	C	-0.257340	-0.087534	-0.257761
C219	C	-0.173162	-0.093970	-0.263938
C220	C	-0.120988	-0.068184	-0.211906
C221	C	-0.152993	-0.035963	-0.153697
C222	C	-0.237176	-0.029525	-0.147519
C223	C	-0.289350	-0.055310	-0.199551
H224	H	-0.149466	-0.117823	-0.307029
H225	H	-0.058670	-0.072950	-0.216480
H226	H	-0.114371	-0.016875	-0.115180
H227	H	-0.260872	-0.005671	-0.104427
H228	H	-0.351668	-0.050545	-0.194977
H229	H	-0.337765	0.723249	-0.793951
H230	H	-0.490392	0.262373	-0.490051
H231	H	-0.792015	0.723661	-0.340018
C232	C	-0.456555	-0.087498	-0.456348
C233	C	-0.540735	-0.093972	-0.450159
C234	C	-0.592908	-0.068167	-0.502169
C235	C	-0.560900	-0.035886	-0.560367
C236	C	-0.476716	-0.029410	-0.566559
C237	C	-0.424543	-0.055216	-0.514549
H238	H	-0.564432	-0.117869	-0.407075
H239	H	-0.655227	-0.072961	-0.497585
H240	H	-0.599522	-0.016783	-0.598868
H241	H	-0.453018	-0.005513	-0.609643
H242	H	-0.362224	-0.050422	-0.519133
C243	C	-0.257283	0.386335	-0.257684
C244	C	-0.173105	0.392813	-0.263888
C245	C	-0.120918	0.366998	-0.211905
C246	C	-0.152911	0.334705	-0.153717
C247	C	-0.237093	0.328225	-0.147511
C248	C	-0.289279	0.354040	-0.199495
H249	H	-0.149418	0.416720	-0.306964
H250	H	-0.058601	0.371795	-0.216499
H251	H	-0.114279	0.315595	-0.115236
H252	H	-0.260780	0.304318	-0.104436
H253	H	-0.351597	0.349243	-0.194900
C254	C	-0.785935	0.709554	-0.456350
C255	C	-0.841872	0.718604	-0.518672
C256	C	-0.814373	0.731660	-0.596274
C257	C	-0.730937	0.735666	-0.611554
C258	C	-0.674995	0.726616	-0.549230
C259	C	-0.702494	0.713560	-0.471628
H260	H	-0.903641	0.715638	-0.507362
H261	H	-0.855785	0.738359	-0.642409
H262	H	-0.710580	0.745331	-0.668999
H263	H	-0.613226	0.729582	-0.560540
H264	H	-0.661081	0.706861	-0.425493
C265	C	-0.786188	0.566868	-0.396298
C266	C	-0.737443	0.541579	-0.452163
C267	C	-0.709831	0.493992	-0.434246
C268	C	-0.730964	0.471693	-0.360463
C269	C	-0.779711	0.496981	-0.304593
C270	C	-0.807324	0.544568	-0.322511
H271	H	-0.721797	0.558086	-0.506786
H272	H	-0.673744	0.475272	-0.475605
H273	H	-0.710523	0.436465	-0.347200
H274	H	-0.795358	0.480474	-0.249971
H275	H	-0.843410	0.563288	-0.281151
C276	C	-0.785353	0.625283	-0.492396
C277	C	-0.701697	0.627251	-0.507548
C278	C	-0.673255	0.638078	-0.585738
C279	C	-0.728468	0.646937	-0.648776
C280	C	-0.812129	0.644969	-0.633625
C281	C	-0.840571	0.634143	-0.555435
H282	H	-0.660820	0.620692	-0.460883
H283	H	-0.611323	0.639534	-0.596953
H284	H	-0.707413	0.654952	-0.706656
H285	H	-0.853005	0.651528	-0.680291
H286	H	-0.902503	0.632686	-0.544220
C287	C	-0.928567	0.567317	-0.396718
C288	C	-0.980625	0.560032	-0.330488
C289	C	-1.009779	0.512732	-0.312815
C290	C	-0.986874	0.472718	-0.361372
C291	C	-0.934812	0.480002	-0.427607
C292	C	-0.905659	0.527302	-0.445280
H293	H	-0.997584	0.589654	-0.294539
H294	H	-1.048318	0.507340	-0.263784
H295	H	-1.008454	0.437704	-0.348290
H296	H	-0.917854	0.450380	-0.463556
H297	H	-0.867120	0.532694	-0.494311
H298	H	-0.400790	0.579393	-0.793556
C299	C	-0.926196	0.589228	-0.256414
C300	C	-0.974987	0.583561	-0.187330
C301	C	-1.002054	0.536627	-0.164444
C302	C	-0.980330	0.495362	-0.210640
C303	C	-0.931536	0.501027	-0.279728
C304	C	-0.904470	0.547961	-0.302615
H305	H	-0.991071	0.614109	-0.153129
H306	H	-1.038174	0.532433	-0.113300
H307	H	-1.000366	0.460619	-0.193698
H308	H	-0.915452	0.470479	-0.313930
H309	H	-0.868349	0.552155	-0.353759
H310	H	-0.490402	0.121627	-0.490084
C311	C	-0.396058	0.566836	-0.928009
C312	C	-0.329570	0.559066	-0.979518
C313	C	-0.311840	0.511503	-1.007322
C314	C	-0.360599	0.471709	-0.983616
C315	C	-0.427091	0.479477	-0.932104
C316	C	-0.444821	0.527041	-0.904300
H317	H	-0.293472	0.588525	-0.997069
H318	H	-0.262618	0.505753	-1.045454
H319	H	-0.347474	0.436500	-1.004198
H320	H	-0.463189	0.450018	-0.914553
H321	H	-0.494043	0.532791	-0.866167
C322	C	-0.491777	0.625045	-0.929291
C323	C	-0.503841	0.665220	-0.981331
C324	C	-0.581830	0.675868	-1.010411
C325	C	-0.647753	0.646341	-0.987451
C326	C	-0.635690	0.606163	-0.935408
C327	C	-0.557702	0.595515	-0.906328
H328	H	-0.455039	0.687080	-0.998330
H329	H	-0.590759	0.705610	-1.048937
H330	H	-0.705485	0.654223	-1.008978
H331	H	-0.684493	0.584303	-0.918409
H332	H	-0.548773	0.565772	-0.867803
C333	C	-0.454570	0.710631	-0.785340
C334	C	-0.497927	0.679245	-0.733508
C335	C	-0.574493	0.693295	-0.704556
C336	C	-0.607702	0.738732	-0.727437
C337	C	-0.564344	0.770121	-0.779272
C338	C	-0.487778	0.756071	-0.808224
H339	H	-0.473344	0.645607	-0.716568
H340	H	-0.606589	0.670059	-0.666184
H341	H	-0.664380	0.749133	-0.706005
H342	H	-0.588927	0.803759	-0.796212
H343	H	-0.455682	0.779308	-0.846596
H344	H	-0.443007	-0.179327	-0.442852
H345	H	-0.270908	-0.179341	-0.271291
H346	H	-0.223414	0.177237	-0.223965
H347	H	-0.472134	0.622455	-0.794114
H348	H	-0.490402	0.036509	-0.490097
H349	H	-0.223442	0.036482	-0.223993
