data_functionalizedCrystal
_audit_creation_method	'MofGen! by Chris Wilmer'
_symmetry_space_group_name_H-M	'P1'
_symmetry_Int_Tables_number	1
_symmetry_cell_setting	triclinic
loop_
_symmetry_equiv_pos_as_xyz
  x,y,z
_cell_length_a	19.188930
_cell_length_b	17.666332
_cell_length_c	19.188930
_cell_angle_alpha	89.989658
_cell_angle_beta	96.855221
_cell_angle_gamma	90.023133
loop_
_atom_site_label
_atom_site_type_symbol
_atom_site_fract_x
_atom_site_fract_y
_atom_site_fract_z
O1	O	0.926150	0.063200	-0.087168
O2	O	1.426150	0.563200	0.412832
O3	O	0.722838	0.063149	-0.098902
O4	O	1.222838	0.563149	0.401098
O5	O	0.830361	0.063161	0.008621
O6	O	1.330361	0.563161	0.508621
O7	O	0.818627	0.063188	-0.194690
O8	O	1.318627	0.563188	0.305310
O9	O	0.830342	-0.062735	0.008624
O10	O	1.330342	0.437265	0.508624
O11	O	0.722819	-0.062747	-0.098899
O12	O	1.222819	0.437253	0.401101
O13	O	0.926131	-0.062697	-0.087164
O14	O	1.426131	0.437303	0.412836
Cu15	Cu	0.824473	-0.074217	-0.093031
Cu16	Cu	1.324473	0.425783	0.406969
Cu17	Cu	0.824496	0.074670	-0.093035
Cu18	Cu	1.324496	0.574670	0.406965
O19	O	0.818608	-0.062709	-0.194687
O20	O	1.318608	0.437291	0.305313
C21	C	0.696818	0.000194	-0.098520
C22	C	1.196818	0.500194	0.401480
C23	C	0.619313	0.000174	-0.097380
C24	C	1.119313	0.500174	0.402620
N25	N	0.824463	-0.178937	-0.093028
N26	N	1.324463	0.321063	0.406972
C27	C	0.574389	0.000194	-0.160470
C28	C	1.074389	0.500194	0.339530
C29	C	0.501566	0.000203	-0.159399
C30	C	1.001566	0.500203	0.340601
C31	C	0.473669	0.000206	-0.095233
C32	C	0.973669	0.500206	0.404767
C33	C	0.518603	0.000181	-0.032133
C34	C	1.018603	0.500181	0.467867
C35	C	0.591425	0.000166	-0.033207
C36	C	1.091425	0.500166	0.466793
N37	N	0.365695	0.043078	-0.046187
N38	N	0.865695	0.543078	0.453813
N39	N	0.296517	0.043095	-0.045171
N40	N	0.796517	0.543095	0.454829
C41	C	0.254260	0.000252	-0.091994
C42	C	0.754260	0.500252	0.408006
N43	N	0.283795	-0.042599	-0.139882
N44	N	0.783795	0.457401	0.360118
N45	N	0.352979	-0.042612	-0.140900
N46	N	0.852979	0.457388	0.359100
C47	C	0.394707	0.000222	-0.094062
C48	C	0.894707	0.500222	0.405938
C49	C	0.130372	0.000280	-0.153928
C50	C	0.630372	0.500280	0.346072
C51	C	0.057547	0.000283	-0.152853
C52	C	0.557547	0.500283	0.347147
C53	C	0.074586	0.000270	-0.025586
C54	C	0.574586	0.500270	0.474414
C55	C	0.147409	0.000258	-0.026662
C56	C	0.647409	0.500258	0.473338
C57	C	0.175298	0.000267	-0.090835
C58	C	0.675298	0.500267	0.409165
C59	C	0.866672	-0.218523	-0.135274
C60	C	1.366672	0.281477	0.364726
C61	C	0.866683	-0.297771	-0.135272
C62	C	1.366683	0.202229	0.364728
C63	C	0.824472	-0.337429	-0.093032
C64	C	1.324472	0.162571	0.406968
C65	C	0.782261	-0.297833	-0.050778
C66	C	1.282261	0.202167	0.449222
C67	C	0.782256	-0.218587	-0.050776
C68	C	1.282256	0.281413	0.449224
N69	N	0.763324	-0.461884	-0.091312
N70	N	1.263324	0.038116	0.408688
N71	N	0.763330	-0.537165	-0.091318
N72	N	1.263330	-0.037165	0.408682
C73	C	0.824485	-0.576193	-0.093035
C74	C	1.324485	-0.076193	0.406965
N75	N	0.885634	-0.537097	-0.094759
N76	N	1.385634	-0.037097	0.405241
N77	N	0.885627	-0.461809	-0.094757
N78	N	1.385627	0.038191	0.405243
C79	C	0.824473	-0.423358	-0.093029
C80	C	1.324473	0.076642	0.406971
C81	C	0.866710	-0.701709	-0.135280
C82	C	1.366710	-0.201709	0.364720
C83	C	0.866722	-0.780958	-0.135273
C84	C	1.366722	-0.280958	0.364727
C85	C	0.782293	-0.781018	-0.050784
C86	C	1.282293	-0.281018	0.449216
C87	C	0.782287	-0.701771	-0.050787
C88	C	1.282287	-0.201771	0.449213
C89	C	0.824494	-0.662121	-0.093039
C90	C	1.324494	-0.162121	0.406961
C91	C	0.952151	0.000260	-0.087546
C92	C	1.452151	0.500260	0.412454
C93	C	1.029656	0.000285	-0.088687
C94	C	1.529656	0.500285	0.411313
C95	C	0.829972	0.000211	0.034634
C96	C	1.329972	0.500211	0.534634
C97	C	0.828831	0.000204	0.112138
C98	C	1.328831	0.500204	0.612138
N99	N	0.824512	0.179390	-0.093032
N100	N	1.324512	0.679390	0.406968
C101	C	0.818997	0.000244	-0.220700
C102	C	1.318997	0.500244	0.279300
C103	C	0.820138	0.000255	-0.298204
C104	C	1.320138	0.500255	0.201796
C105	C	0.891922	0.000216	0.157062
C106	C	1.391922	0.500216	0.657062
C107	C	0.890850	0.000228	0.229886
C108	C	1.390850	0.500228	0.729886
C109	C	0.826684	0.000212	0.257782
C110	C	1.326684	0.500212	0.757782
C111	C	0.763585	0.000205	0.212849
C112	C	1.263585	0.500205	0.712849
C113	C	0.764658	0.000200	0.140026
C114	C	1.264658	0.500200	0.640026
N115	N	0.777630	-0.042645	0.365788
N116	N	1.277630	0.457355	0.865788
N117	N	0.776615	-0.042642	0.434967
N118	N	1.276615	0.457358	0.934967
C119	C	0.823446	0.000227	0.477191
C120	C	1.323446	0.500227	0.977191
N121	N	0.871341	0.043084	0.447624
N122	N	1.371341	0.543084	0.947624
N123	N	0.872359	0.043079	0.378440
N124	N	1.372359	0.543079	0.878440
C125	C	0.825513	0.000218	0.336745
C126	C	1.325513	0.500218	0.836745
C127	C	0.885379	0.000253	0.601079
C128	C	1.385379	0.500253	1.101079
C129	C	0.884305	0.000270	0.673904
C130	C	1.384305	0.500270	1.173904
C131	C	0.757038	0.000239	0.656865
C132	C	1.257038	0.500239	1.156865
C133	C	0.758114	0.000230	0.584042
C134	C	1.258114	0.500230	1.084042
C135	C	0.822287	0.000233	0.556154
C136	C	1.322287	0.500233	1.056154
H137	H	0.597091	0.000203	-0.212725
H138	H	1.097091	0.500203	0.287275
H139	H	0.935683	0.000284	0.710481
H140	H	1.435683	0.500284	1.210481
H141	H	0.464982	0.000217	-0.210776
H142	H	0.964982	0.500217	0.289224
H143	H	0.495885	0.000194	0.020111
H144	H	0.995885	0.500194	0.520111
N145	N	0.955305	0.000241	0.275775
N146	N	1.455305	0.500241	0.775775
N147	N	1.012595	0.000246	0.250866
N148	N	1.512595	0.500246	0.750866
H149	H	1.058117	0.000254	0.283273
H150	H	1.558117	0.500254	0.783273
H151	H	0.628003	0.000150	0.018171
H152	H	1.128003	0.500150	0.518171
N153	N	0.950920	0.000276	0.572575
N154	N	1.450920	0.500276	1.072575
N155	N	0.951871	0.000272	0.507555
N156	N	1.451871	0.500272	1.007555
H157	H	0.998159	0.000290	0.487424
H158	H	1.498159	0.500290	0.987424
H159	H	0.901055	-0.330008	-0.169675
H160	H	1.401055	0.169992	0.330325
N161	N	0.691499	0.000216	0.685363
N162	N	1.191499	0.500216	1.185363
N163	N	0.676695	-0.052852	0.724111
N164	N	1.176695	0.447148	1.224111
H165	H	0.630406	-0.052867	0.744241
H166	H	1.130406	0.447133	1.244241
H167	H	0.153080	0.000276	-0.206181
H168	H	0.653080	0.500276	0.293819
N169	N	0.693661	0.000215	0.538159
N170	N	1.193661	0.500215	1.038159
N171	N	0.636373	0.000204	0.563072
N172	N	1.136373	0.500204	1.063072
H173	H	0.590849	0.000195	0.530668
H174	H	1.090849	0.500195	1.030668
H175	H	0.020970	0.000295	-0.204232
H176	H	0.520970	0.500295	0.295768
H177	H	0.747883	-0.186356	-0.016374
H178	H	1.247883	0.313644	0.483626
H179	H	0.051874	0.000319	0.026659
H180	H	0.551874	0.500319	0.526659
H181	H	0.901099	-0.813188	-0.169672
H182	H	1.401099	-0.313188	0.330328
H183	H	0.711340	0.000194	0.235567
H184	H	1.211340	0.500194	0.735567
N185	N	0.700203	0.000192	0.094143
N186	N	1.200203	0.500192	0.594143
N187	N	0.642915	0.000186	0.119055
N188	N	1.142915	0.500186	0.619055
H189	H	0.597391	0.000179	0.086650
H190	H	1.097391	0.500179	0.586650
N191	N	0.909839	-0.661193	-0.178412
N192	N	1.409839	-0.161193	0.321588
N193	N	0.956074	-0.616955	-0.151019
N194	N	1.456074	-0.116955	0.348981
H195	H	0.986536	-0.588340	-0.181478
H196	H	1.486536	-0.088340	0.318522
N197	N	0.193292	0.000240	0.037791
N198	N	0.693292	0.500240	0.537791
N199	N	0.168379	0.000240	0.095079
N200	N	0.668379	0.500240	0.595079
H201	H	0.200784	0.000224	0.140602
H202	H	0.700784	0.500224	0.640602
H203	H	0.901043	-0.186245	-0.169676
H204	H	1.401043	0.313755	0.330324
H205	H	0.747893	-0.330128	-0.016386
H206	H	1.247893	0.169872	0.483614
H207	H	0.747913	-0.669539	-0.016389
H208	H	1.247913	-0.169539	0.483611
N209	N	0.739183	-0.821530	-0.007637
N210	N	1.239183	-0.321530	0.492363
N211	N	0.739194	-0.892285	-0.007642
N212	N	1.239194	-0.392285	0.492358
H213	H	0.708747	-0.920901	0.022833
H214	H	1.208747	-0.420901	0.522833
N215	N	0.957476	0.000222	0.128587
N216	N	1.457476	0.500222	0.628587
N217	N	1.013804	0.000235	0.168712
N218	N	1.513804	0.500235	0.668712
H219	H	1.060103	0.000241	0.148602
H220	H	1.560103	0.500241	0.648602
