data_functionalizedCrystal
_audit_creation_method	'MofGen! by Chris Wilmer'
_symmetry_space_group_name_H-M	'P1'
_symmetry_Int_Tables_number	1
_symmetry_cell_setting	triclinic
loop_
_symmetry_equiv_pos_as_xyz
  x,y,z
_cell_length_a	14.908618
_cell_length_b	14.908932
_cell_length_c	14.908308
_cell_angle_alpha	90.209830
_cell_angle_beta	90.173623
_cell_angle_gamma	90.194494
loop_
_atom_site_label
_atom_site_type_symbol
_atom_site_fract_x
_atom_site_fract_y
_atom_site_fract_z
Zn1	Zn	-1.320077	-0.467744	0.559236
Zn2	Zn	-1.321014	-0.609501	0.400274
Zn3	Zn	-1.179320	-0.450525	0.401274
Zn4	Zn	-1.162100	-0.608432	0.541987
O5	O	-1.245628	-0.534051	0.475693
O6	O	-1.445614	-0.494202	0.544949
O7	O	-1.309818	-0.581655	0.274993
O8	O	-1.204806	-0.327399	0.429866
O9	O	-1.446303	-0.598350	0.428161
O10	O	-1.308219	-0.340049	0.545919
O11	O	-1.205716	-0.464856	0.275727
O12	O	-1.051623	-0.463819	0.413140
O13	O	-1.175457	-0.596528	0.669689
O14	O	-1.038971	-0.579832	0.516521
O15	O	-1.291521	-0.493165	0.682362
O16	O	-1.293120	-0.734770	0.411436
O17	O	-1.176366	-0.733984	0.515551
C18	C	-1.012779	-0.519841	0.463068
C19	C	-0.913162	-0.513785	0.457687
C20	C	-1.232999	-0.766897	0.461534
C21	C	-1.227677	-0.866517	0.455511
C22	C	-0.712847	-0.623380	0.555060
C23	C	-0.619248	-0.617692	0.550007
C24	C	-0.632364	-0.496720	0.442533
C25	C	-0.725963	-0.502407	0.447586
C26	C	-0.766201	-0.565740	0.503850
C27	C	-0.859801	-0.571431	0.508898
C28	C	-0.872916	-0.450455	0.401429
C29	C	-0.779317	-0.444768	0.396376
C30	C	-1.231464	-0.546648	0.709453
C31	C	-1.225428	-0.552016	0.809068
C32	C	-0.479387	-0.548309	0.488362
C33	C	-0.579003	-0.554366	0.493744
C34	C	-1.258329	-0.300297	0.489928
C35	C	-1.263741	-0.200686	0.495994
C36	C	-1.166207	-0.000329	0.386548
C37	C	-1.171289	0.093266	0.392244
C38	C	-1.278984	0.080100	0.513087
C39	C	-1.273901	-0.013495	0.507391
C40	C	-1.217512	-0.053706	0.444118
C41	C	-1.212435	-0.147302	0.438418
C42	C	-1.320123	-0.160466	0.559264
C43	C	-1.325206	-0.066871	0.564961
C44	C	-1.259792	-0.521441	0.242848
C45	C	-1.266015	-0.515831	0.143259
C46	C	-1.334942	-0.454450	1.009454
C47	C	-1.329274	-0.459491	1.103051
C48	C	-1.208419	-0.567133	1.089862
C49	C	-1.214087	-0.562092	0.996265
C50	C	-1.277352	-0.505750	0.956064
C51	C	-1.283024	-0.500714	0.862465
C52	C	-1.162165	-0.608351	0.849278
C53	C	-1.156497	-0.613392	0.942875
H54	H	-0.892561	-0.623001	0.554710
H55	H	-0.599586	-0.445152	0.396731
H56	H	-1.104987	-0.659262	0.975619
H57	H	-1.166521	-0.180040	0.386896
H58	H	-1.361902	-0.203936	0.606140
F59	F	-0.755673	-0.690789	0.614932
F60	F	-1.100877	-0.662960	0.792449
F61	F	-0.562467	-0.679038	0.604514
F62	F	-1.338973	0.122911	0.580438
H63	H	-0.746542	-0.393202	0.350569
H64	H	-1.376167	-0.417715	1.146518
F65	F	-1.350357	-0.440753	0.819682
F66	F	-0.929706	-0.389113	0.346917
H67	H	-1.120298	-0.033069	0.335024
H68	H	-1.129511	0.136723	0.345366
H69	H	-1.386459	-0.408578	0.976722
F70	F	-1.385210	-0.024066	0.632302
F71	F	-1.141089	-0.627085	1.132662
