data_functionalizedCrystal
_audit_creation_method	'MofGen! by Chris Wilmer'
_symmetry_space_group_name_H-M	'P1'
_symmetry_Int_Tables_number	1
_symmetry_cell_setting	triclinic
loop_
_symmetry_equiv_pos_as_xyz
  x,y,z
_cell_length_a	10.654562
_cell_length_b	10.654550
_cell_length_c	9.730223
_cell_angle_alpha	90.000193
_cell_angle_beta	90.003039
_cell_angle_gamma	84.487503
loop_
_atom_site_label
_atom_site_type_symbol
_atom_site_fract_x
_atom_site_fract_y
_atom_site_fract_z
O1	O	1.667825	0.176469	0.114377
O2	O	1.302348	0.193259	0.114359
O3	O	1.493489	0.002125	0.114363
O4	O	1.476683	0.367603	0.114373
O5	O	1.493487	0.002130	-0.114217
O6	O	1.302346	0.193264	-0.114221
O7	O	1.667822	0.176474	-0.114203
Zn8	Zn	1.485084	0.184870	-0.150504
Zn9	Zn	1.485087	0.184863	0.150660
O10	O	1.476681	0.367608	-0.114207
C11	C	1.255549	0.192025	0.000067
C12	C	1.116107	0.188327	0.000060
C13	C	1.050575	0.186604	-0.124528
C14	C	0.919553	0.183139	-0.124505
C15	C	0.919605	0.183125	0.124705
C16	C	1.050626	0.186581	0.124681
C17	C	1.050543	0.186618	-0.268408
C18	C	0.919521	0.183153	-0.268385
C19	C	1.492254	-0.044671	0.000075
C20	C	1.488563	-0.184114	0.000079
C21	C	1.601103	-0.263595	0.000081
C22	C	1.597627	-0.394615	0.000090
C23	C	1.369059	-0.366662	0.000091
C24	C	1.372537	-0.235644	0.000092
C25	C	1.733066	-0.279734	0.000074
C26	C	1.729589	-0.410755	0.000083
C27	C	1.714621	0.177708	0.000092
C28	C	1.854064	0.181406	0.000108
C29	C	1.477916	0.414403	0.000084
C30	C	1.481608	0.553847	0.000088
N31	N	1.485091	0.184873	-0.356040
C32	C	1.569750	0.100268	-0.427965
C33	C	1.569747	0.100253	-0.571848
C34	C	1.400421	0.269459	-0.571869
C35	C	1.400419	0.269467	-0.427989
C36	C	1.667513	0.002582	-0.427953
C37	C	1.667510	0.002567	-0.571836
N38	N	1.485089	0.184850	0.356196
H39	H	1.103980	0.187964	0.226133
C40	C	1.797858	0.031739	-0.624591
N41	N	1.896022	0.053748	-0.664326
C42	C	1.638536	-0.127825	-0.375192
N43	N	1.616708	-0.226044	-0.335452
H44	H	0.866275	0.181703	0.226167
H45	H	1.274594	-0.408635	0.000102
C46	C	1.113043	0.069364	-0.343047
N47	N	1.160118	-0.018952	-0.399260
C48	C	1.802788	-0.240065	0.129303
N49	N	1.855300	-0.210186	0.226638
H50	H	0.889932	0.091560	-0.313033
C51	C	1.090503	0.310353	-0.328732
N52	N	1.120602	0.403550	-0.374169
H53	H	1.775086	-0.244103	-0.098620
H54	H	1.769471	-0.456398	0.098780
C55	C	1.626274	-0.120663	-0.632122
N56	N	1.595207	-0.213475	-0.677532
H57	H	1.758696	0.033175	-0.383322
H58	H	0.873234	0.269951	-0.323618
H59	H	1.280895	-0.170935	0.000110
C60	C	1.796746	-0.467170	-0.129147
N61	N	1.847324	-0.509660	-0.226482
H62	H	1.331472	0.338348	-0.369430
C63	C	1.307285	0.362505	-0.651026
N64	N	1.237133	0.432589	-0.710646
