data_functionalizedCrystal
_audit_creation_method	'MofGen! by Chris Wilmer'
_symmetry_space_group_name_H-M	'P1'
_symmetry_Int_Tables_number	1
_symmetry_cell_setting	triclinic
loop_
_symmetry_equiv_pos_as_xyz
  x,y,z
_cell_length_a	27.732048
_cell_length_b	17.038272
_cell_length_c	15.500227
_cell_angle_alpha	86.966746
_cell_angle_beta	92.815382
_cell_angle_gamma	86.877106
loop_
_atom_site_label
_atom_site_type_symbol
_atom_site_fract_x
_atom_site_fract_y
_atom_site_fract_z
O1	O	-0.647275	-0.089334	-0.071833
O2	O	-0.147275	0.410666	0.428167
O3	O	-0.507129	-0.103471	-0.071859
O4	O	-0.007129	0.396529	0.428141
O5	O	-0.576369	0.017402	-0.071839
O6	O	-0.076369	0.517402	0.428161
O7	O	-0.578035	-0.210208	-0.071853
O8	O	-0.078035	0.289792	0.428147
O9	O	-0.572166	0.010096	0.072048
O10	O	-0.072166	0.510096	0.572048
O11	O	-0.502926	-0.110778	0.072029
O12	O	-0.002926	0.389222	0.572029
O13	O	-0.643072	-0.096641	0.072055
O14	O	-0.143072	0.403359	0.572055
Cu15	Cu	-0.572616	-0.104376	0.085180
Cu16	Cu	-0.072616	0.395624	0.585180
Cu17	Cu	-0.577586	-0.095736	-0.084984
Cu18	Cu	-0.077586	0.404264	0.415016
O19	O	-0.573833	-0.217515	0.072035
O20	O	-0.073833	0.282485	0.572035
C21	C	-0.487007	-0.106828	0.000082
C22	C	0.012993	0.393172	0.500082
C23	C	-0.433312	-0.105933	0.000072
C24	C	0.066688	0.394067	0.500072
C25	C	-0.663194	-0.093284	0.000112
C26	C	-0.163194	0.406716	0.500112
C27	C	-0.716890	-0.094178	0.000117
C28	C	-0.216890	0.405822	0.500117
C29	C	-0.097506	-0.171738	0.000105
C30	C	0.402494	0.328262	0.500105
C31	C	0.104306	-0.168423	0.000113
C32	C	0.604306	0.331577	0.500113
O33	O	0.132810	-0.228597	0.000147
O34	O	0.632810	0.271403	0.500147
N35	N	0.126708	-0.096749	0.000116
N36	N	0.626708	0.403251	0.500116
C37	C	0.098654	-0.025900	0.000122
C38	C	0.598654	0.474100	0.500122
O39	O	0.122340	0.035139	0.000134
O40	O	0.622340	0.535139	0.500134
C41	C	-0.103156	-0.029216	0.000121
C42	C	0.396844	0.470784	0.500121
C43	C	-0.125556	-0.100894	0.000109
C44	C	0.374444	0.399106	0.500109
C45	C	-0.119906	-0.243410	0.000095
C46	C	0.380094	0.256590	0.500095
C47	C	-0.170356	-0.244238	0.000088
C48	C	0.329644	0.255762	0.500088
C49	C	-0.198406	-0.173394	0.000092
C50	C	0.301594	0.326606	0.500092
C51	C	-0.176006	-0.101722	0.000102
C52	C	0.323994	0.398278	0.500102
C53	C	-0.131209	0.041632	0.000133
C54	C	0.368791	0.541632	0.500133
C55	C	-0.181664	0.040797	0.000135
C56	C	0.318336	0.540797	0.500135
C57	C	-0.204064	-0.030881	0.000123
C58	C	0.295936	0.469119	0.500123
C59	C	-0.254506	-0.031705	0.000099
C60	C	0.245494	0.468295	0.500099
N61	N	-0.276908	-0.103379	0.000097
N62	N	0.223092	0.396621	0.500097
C63	C	-0.248858	-0.174223	0.000093
C64	C	0.251142	0.325777	0.500093
C65	C	0.204608	-0.024164	0.000121
C66	C	0.704608	0.475836	0.500121
C67	C	0.255060	-0.023334	0.000120
C68	C	0.755060	0.476666	0.500120
C69	C	0.260708	-0.165858	0.000113
C70	C	0.760708	0.334142	0.500113
C71	C	0.210255	-0.166686	0.000108
C72	C	0.710255	0.333314	0.500108
C73	C	0.182205	-0.095837	0.000119
C74	C	0.682205	0.404163	0.500119
C75	C	-0.354807	-0.175956	0.000078
C76	C	0.145193	0.324044	0.500078
C77	C	-0.405262	-0.176778	0.000068
C78	C	0.094738	0.323222	0.500068
C79	C	-0.410905	-0.034255	0.000080
C80	C	0.089095	0.465745	0.500080
C81	C	-0.360455	-0.033433	0.000086
C82	C	0.139545	0.466567	0.500086
C83	C	-0.332407	-0.104290	0.000088
C84	C	0.167593	0.395710	0.500088
O85	O	-0.283040	0.028436	0.000075
O86	O	0.216960	0.528436	0.500075
O87	O	-0.272552	-0.235254	0.000101
O88	O	0.227448	0.264746	0.500101
C89	C	-0.047056	-0.170910	0.000112
C90	C	0.452944	0.329090	0.500112
C91	C	-0.024656	-0.099238	0.000122
C92	C	0.475344	0.400762	0.500122
C93	C	-0.052706	-0.028394	0.000126
C94	C	0.447294	0.471606	0.500126
C95	C	0.025796	-0.098409	0.000121
C96	C	0.525796	0.401591	0.500121
C97	C	0.053846	-0.169253	0.000118
C98	C	0.553846	0.330747	0.500118
C99	C	0.031444	-0.240927	0.000115
C100	C	0.531444	0.259073	0.500115
C101	C	-0.019006	-0.241755	0.000108
C102	C	0.480994	0.258245	0.500108
C103	C	-0.030304	0.043279	0.000129
C104	C	0.469696	0.543279	0.500129
C105	C	0.020147	0.044102	0.000135
C106	C	0.520147	0.544102	0.500135
C107	C	0.048197	-0.026743	0.000131
C108	C	0.548197	0.473257	0.500131
C109	C	-0.572753	0.042860	0.000104
C110	C	-0.072753	0.542860	0.500104
C111	C	-0.568232	0.129600	0.000103
C112	C	-0.068232	0.629600	0.500103
C113	C	-0.577449	-0.242972	0.000090
C114	C	-0.077449	0.257028	0.500090
C115	C	-0.581970	-0.329712	0.000085
C116	C	-0.081970	0.170288	0.500085
N117	N	-0.569123	-0.110453	0.204864
N118	N	-0.069123	0.389547	0.704864
C119	C	-0.609735	0.180198	0.000112
C120	C	-0.109735	0.680198	0.500112
C121	C	-0.605485	0.261699	0.000103
C122	C	-0.105485	0.761699	0.500103
C123	C	-0.559732	0.292601	0.000091
C124	C	-0.059732	0.792601	0.500091
C125	C	-0.518226	0.241997	0.000080
C126	C	-0.018226	0.741997	0.500080
C127	C	-0.522477	0.160498	0.000083
C128	C	-0.022477	0.660498	0.500083
C129	C	-0.544715	0.538185	0.000077
C130	C	-0.044715	1.038185	0.500077
C131	C	-0.540467	0.619691	0.000076
C132	C	-0.040467	1.119691	0.500076
C133	C	-0.627726	0.639387	0.000098
C134	C	-0.127726	1.139387	0.500098
C135	C	-0.631973	0.557885	0.000106
C136	C	-0.131973	1.057885	0.500106
C137	C	-0.590468	0.507288	0.000090
C138	C	-0.090468	1.007288	0.500090
C139	C	-0.555386	0.375908	0.000085
C140	C	-0.055386	0.875908	0.500085
C141	C	-0.594813	0.423983	0.000090
C142	C	-0.094813	0.923983	0.500090
N143	N	-0.581082	-0.089653	-0.204668
N144	N	-0.081082	0.410347	0.295332
C145	C	-0.598474	-0.059253	0.250149
C146	C	-0.098474	0.440747	0.750149
C147	C	-0.595838	-0.063856	0.340721
C148	C	-0.095838	0.436144	0.840721
C149	C	-0.563853	-0.119663	0.386006
C150	C	-0.063853	0.380337	0.886006
C151	C	-0.534498	-0.170866	0.340715
C152	C	-0.034498	0.329134	0.840715
C153	C	-0.537133	-0.166258	0.250144
C154	C	-0.037133	0.333742	0.750144
C155	C	-0.554362	-0.136248	0.659470
C156	C	-0.054362	0.363752	1.159470
C157	C	-0.551731	-0.140853	0.750047
C158	C	-0.051731	0.359147	1.250047
C159	C	-0.613070	-0.033842	0.750047
C160	C	-0.113070	0.466158	1.250047
C161	C	-0.615704	-0.029243	0.659475
C162	C	-0.115704	0.470757	1.159475
C163	C	-0.586348	-0.080442	0.614191
C164	C	-0.086348	0.419558	1.114191
C165	C	-0.561158	-0.124371	0.478585
C166	C	-0.061158	0.375629	0.978585
C167	C	-0.589040	-0.075730	0.521614
C168	C	-0.089040	0.424270	1.021614
H169	H	-0.423497	-0.235149	0.000058
H170	H	0.076503	0.264851	0.500058
Cl171	Cl	0.066717	-0.329987	0.000107
Cl172	Cl	0.566717	0.170013	0.500107
H173	H	-0.513231	-0.207950	0.213274
H174	H	-0.013231	0.292050	0.713274
Cl175	Cl	-0.482944	0.658537	0.000067
Cl176	Cl	0.017056	1.158537	0.500067
Cl177	Cl	-0.460708	0.280846	0.000055
Cl178	Cl	0.039292	0.780846	0.500055
H179	H	-0.669230	0.532731	0.000115
H180	H	-0.169230	1.032731	0.500115
Cl181	Cl	-0.494285	-0.241021	0.397643
Cl182	Cl	0.005715	0.258979	0.897643
H183	H	-0.641749	0.016200	0.622605
H184	H	-0.141749	0.516200	1.122605
H185	H	-0.037239	-0.300122	0.000100
H186	H	0.462761	0.199878	0.500100
H187	H	-0.646992	0.155044	0.000126
H188	H	-0.146992	0.655044	0.500126
H189	H	-0.639281	0.302893	0.000112
H190	H	-0.139281	0.802893	0.500112
Cl191	Cl	-0.652330	0.385133	0.000100
Cl192	Cl	-0.152330	0.885133	0.500100
H193	H	-0.488681	0.119301	0.000076
H194	H	0.011319	0.619301	0.500076
H195	H	-0.615081	-0.030289	0.484740
H196	H	-0.115081	0.469711	0.984740
Cl197	Cl	-0.497870	0.414764	0.000066
Cl198	Cl	0.002130	0.914764	0.500066
Cl199	Cl	0.048299	0.134221	0.000138
Cl200	Cl	0.548299	0.634221	0.500138
Cl201	Cl	-0.679901	0.702998	0.000115
Cl202	Cl	-0.179901	1.202998	0.500115
Cl203	Cl	-0.065559	0.132351	0.000134
Cl204	Cl	0.434441	0.632351	0.500134
H205	H	0.192020	-0.225053	0.000103
H206	H	0.692020	0.274947	0.500103
H207	H	-0.624522	-0.013813	0.213283
H208	H	-0.124522	0.486187	0.713283
H209	H	-0.097072	-0.301104	0.000095
H210	H	0.402928	0.198896	0.500095
H211	H	-0.525683	-0.186301	0.786914
H212	H	-0.025683	0.313699	1.286914
Cl213	Cl	-0.492536	0.474588	0.000055
Cl214	Cl	0.007464	0.974588	0.500055
Cl215	Cl	-0.632736	0.000511	0.397652
Cl216	Cl	-0.132736	0.500511	0.897652
H217	H	-0.433753	0.023425	0.000080
H218	H	0.066247	0.523425	0.500080
H219	H	-0.636970	0.007843	0.786925
H220	H	-0.136970	0.507843	1.286925
H221	H	-0.530460	-0.177938	0.622608
H222	H	-0.030460	0.322062	1.122608
Cl223	Cl	-0.520949	-0.194530	0.535520
Cl224	Cl	-0.020949	0.305470	1.035520
H225	H	-0.331976	-0.233655	0.000083
H226	H	0.168024	0.266345	0.500083
Cl227	Cl	-0.103062	0.131748	0.000133
Cl228	Cl	0.396938	0.631748	0.500133
Cl229	Cl	0.283213	0.066780	0.000113
Cl230	Cl	0.783213	0.566780	0.500113
Cl231	Cl	-0.198508	-0.334353	0.000080
Cl232	Cl	0.301492	0.165647	0.500080
H233	H	0.283555	-0.223542	0.000110
H234	H	0.783555	0.276458	0.500110
H235	H	0.181774	0.033534	0.000130
H236	H	0.681774	0.533534	0.500130
H237	H	-0.204500	0.098492	0.000144
H238	H	0.295500	0.598492	0.500144
H239	H	-0.342217	0.024934	0.000082
H240	H	0.157783	0.524934	0.500082
