data_functionalizedCrystal
_audit_creation_method	'MofGen! by Chris Wilmer'
_symmetry_space_group_name_H-M	'P1'
_symmetry_Int_Tables_number	1
_symmetry_cell_setting	triclinic
loop_
_symmetry_equiv_pos_as_xyz
  x,y,z
_cell_length_a	16.109301
_cell_length_b	8.559649
_cell_length_c	14.586319
_cell_angle_alpha	89.997976
_cell_angle_beta	89.999213
_cell_angle_gamma	76.620073
loop_
_atom_site_label
_atom_site_type_symbol
_atom_site_fract_x
_atom_site_fract_y
_atom_site_fract_z
O1	O	1.090046	0.205389	-0.076179
O2	O	0.846355	0.230950	-0.076193
O3	O	0.989670	-0.014444	-0.076183
O4	O	0.946731	0.450783	-0.076188
O5	O	0.989661	-0.014447	0.076297
O6	O	0.846347	0.230946	0.076288
O7	O	1.090037	0.205386	0.076302
Cu8	Cu	0.968191	0.218165	0.090218
Cu9	Cu	0.968201	0.218170	-0.090108
O10	O	0.946722	0.450779	0.076293
C11	C	0.815442	0.229912	0.000046
C12	C	0.723344	0.226808	0.000040
C13	C	0.492255	0.365202	0.000050
C14	C	0.405721	0.362273	0.000056
C15	C	0.444145	0.071122	0.000054
C16	C	0.530677	0.074053	0.000055
C17	C	0.554729	0.221098	0.000048
C18	C	0.381663	0.215238	0.000053
C19	C	0.287840	0.212061	0.000060
C20	C	0.648558	0.224275	0.000043
C21	C	0.992919	-0.073977	0.000055
C22	C	1.002605	-0.251362	0.000051
C23	C	1.120950	0.206423	0.000062
C24	C	1.213048	0.209527	0.000061
C25	C	0.943473	0.510312	0.000052
C26	C	0.933787	0.687697	0.000051
N27	N	0.968190	0.218161	0.217050
N28	N	0.968210	0.218161	-0.216940
C29	C	1.031666	0.109538	0.452060
C30	C	1.031669	0.109534	0.548041
C31	C	0.904727	0.326790	0.548043
C32	C	0.904722	0.326785	0.452063
C33	C	0.968196	0.218161	0.404074
C34	C	0.968204	0.218162	0.596035
C35	C	0.968206	0.218158	0.700102
C36	C	0.968193	0.218162	0.300001
H37	H	0.424550	-0.048597	0.000066
C38	C	1.092220	-0.364205	0.000060
C39	C	1.154488	-0.357194	-0.079116
C40	C	1.244101	-0.470036	-0.079107
C41	C	1.271447	-0.589888	0.000080
C42	C	1.209178	-0.596904	0.079262
C43	C	1.119564	-0.484062	0.079252
H44	H	1.134246	-0.268468	-0.137740
H45	H	1.290197	-0.464842	-0.137723
H46	H	1.337783	-0.673421	0.000087
H47	H	1.229419	-0.685630	0.137886
H48	H	1.073469	-0.489256	0.137869
C49	C	0.834913	0.446286	0.600831
C50	C	0.834954	0.446393	0.706404
C51	C	0.765139	0.565896	0.759189
C52	C	0.695285	0.685293	0.706400
C53	C	0.695242	0.685190	0.600821
C54	C	0.765056	0.565687	0.548036
H55	H	0.886667	0.358004	0.745487
H56	H	0.765172	0.565971	0.837346
H57	H	0.643604	0.773756	0.745475
H58	H	0.643529	0.773579	0.561738
H59	H	0.765024	0.565612	0.469879
H60	H	0.853033	0.415240	0.412990
H61	H	0.581547	-0.043302	0.000056
H62	H	1.083351	0.021081	0.587109
C63	C	0.337000	0.520792	0.000055
C64	C	0.333048	0.641292	-0.079127
C65	C	0.264326	0.799819	-0.079125
C66	C	0.199558	0.837846	0.000057
C67	C	0.203508	0.717343	0.079245
C68	C	0.272230	0.558816	0.079244
H69	H	0.380995	0.613145	-0.137748
H70	H	0.261402	0.889023	-0.137746
H71	H	0.148686	0.955198	0.000058
H72	H	0.155561	0.745491	0.137866
H73	H	0.275153	0.469612	0.137864
C74	C	0.844176	-0.199468	0.000041
C75	C	0.816833	-0.079615	-0.079145
C76	C	0.727221	0.033232	-0.079155
C77	C	0.664953	0.026225	0.000022
C78	C	0.692295	-0.093633	0.079214
C79	C	0.781907	-0.206479	0.079223
H80	H	0.862929	-0.074424	-0.137762
H81	H	0.706981	0.121959	-0.137778
H82	H	0.598617	0.109761	0.000015
H83	H	0.646199	-0.098824	0.137830
H84	H	0.802147	-0.295206	0.137847
H85	H	0.511835	0.484935	0.000051
C86	C	1.101480	-0.009958	0.399272
C87	C	1.171292	-0.129447	0.452061
C88	C	1.241106	-0.248951	0.399276
C89	C	1.241108	-0.248965	0.293702
C90	C	1.171293	-0.129471	0.240908
C91	C	1.101479	-0.009968	0.293692
H92	H	1.171293	-0.129441	0.530218
H93	H	1.292788	-0.337408	0.438359
H94	H	1.292789	-0.337429	0.254628
H95	H	1.171292	-0.129478	0.162750
H96	H	1.049797	0.078490	0.254610
