data_functionalizedCrystal
_audit_creation_method	'MofGen! by Chris Wilmer'
_symmetry_space_group_name_H-M	'P1'
_symmetry_Int_Tables_number	1
_symmetry_cell_setting	triclinic
loop_
_symmetry_equiv_pos_as_xyz
  x,y,z
_cell_length_a	16.625547
_cell_length_b	25.639240
_cell_length_c	16.625539
_cell_angle_alpha	89.963426
_cell_angle_beta	89.978691
_cell_angle_gamma	90.032694
loop_
_atom_site_label
_atom_site_type_symbol
_atom_site_fract_x
_atom_site_fract_y
_atom_site_fract_z
Zn1	Zn	1.232595	-0.208160	-0.455944
Zn2	Zn	1.482595	0.041840	-0.205944
Zn3	Zn	1.732595	0.291840	0.044056
Zn4	Zn	1.982595	0.541840	0.294056
Zn5	Zn	1.232482	-0.295595	-0.321087
Zn6	Zn	1.482482	-0.045595	-0.071087
Zn7	Zn	1.732482	0.204405	0.178913
Zn8	Zn	1.982482	0.454405	0.428913
Zn9	Zn	1.097765	-0.208176	-0.321115
Zn10	Zn	1.347765	0.041824	-0.071115
Zn11	Zn	1.597765	0.291824	0.178885
Zn12	Zn	1.847765	0.541824	0.428885
Zn13	Zn	1.097703	-0.295566	-0.455867
Zn14	Zn	1.347703	-0.045566	-0.205867
Zn15	Zn	1.597703	0.204434	0.044133
Zn16	Zn	1.847703	0.454434	0.294133
O17	O	1.165136	-0.251874	-0.388503
O18	O	1.415136	-0.001874	-0.138503
O19	O	1.665136	0.248126	0.111497
O20	O	1.915136	0.498126	0.361497
O21	O	1.345412	-0.219764	-0.438076
O22	O	1.595412	0.030236	-0.188076
O23	O	1.845412	0.280236	0.061924
O24	O	2.095412	0.530236	0.311924
O25	O	1.214590	-0.284017	-0.208259
O26	O	1.464590	-0.034017	0.041741
O27	O	1.714590	0.215983	0.291741
O28	O	1.964590	0.465983	0.541741
O29	O	1.115724	-0.135008	-0.339043
O30	O	1.365724	0.114992	-0.089043
O31	O	1.615724	0.364992	0.160957
O32	O	1.865724	0.614992	0.410957
O33	O	1.345329	-0.284003	-0.338997
O34	O	1.595329	-0.034003	-0.088997
O35	O	1.845329	0.215997	0.161003
O36	O	2.095329	0.465997	0.411003
O37	O	1.214783	-0.134997	-0.438102
O38	O	1.464783	0.115003	-0.188102
O39	O	1.714783	0.365003	0.061898
O40	O	1.964783	0.615003	0.311898
O41	O	1.115614	-0.219791	-0.208279
O42	O	1.365614	0.030209	0.041721
O43	O	1.615614	0.280209	0.291721
O44	O	1.865614	0.530209	0.541721
O45	O	0.984924	-0.219763	-0.338969
O46	O	1.234924	0.030237	-0.088969
O47	O	1.484924	0.280237	0.161031
O48	O	1.734924	0.530237	0.411031
O49	O	1.115618	-0.283953	-0.568710
O50	O	1.365618	-0.033953	-0.318710
O51	O	1.615618	0.216047	-0.068710
O52	O	1.865618	0.466047	0.181290
O53	O	0.984879	-0.283968	-0.437971
O54	O	1.234879	-0.033968	-0.187971
O55	O	1.484879	0.216032	0.062029
O56	O	1.734879	0.466032	0.312029
O57	O	1.214722	-0.219736	-0.568766
O58	O	1.464722	0.030264	-0.318766
O59	O	1.714722	0.280264	-0.068766
O60	O	1.964722	0.530264	0.181234
O61	O	1.214530	-0.368757	-0.338923
O62	O	1.464530	-0.118757	-0.088923
O63	O	1.714530	0.131243	0.161077
O64	O	1.964530	0.381243	0.411077
O65	O	1.115508	-0.368736	-0.437945
O66	O	1.365508	-0.118736	-0.187945
O67	O	1.615508	0.131264	0.062055
O68	O	1.865508	0.381264	0.312055
C69	C	0.955645	-0.251864	-0.388465
C70	C	1.205645	-0.001864	-0.138465
C71	C	1.455645	0.248136	0.111535
C72	C	1.705645	0.498136	0.361535
C73	C	0.866024	-0.251873	-0.388468
C74	C	1.116024	-0.001873	-0.138468
C75	C	1.366024	0.248127	0.111532
C76	C	1.616024	0.498127	0.361532
C77	C	0.793242	-0.251874	-0.388478
C78	C	1.043242	-0.001874	-0.138478
C79	C	1.293242	0.248126	0.111522
C80	C	1.543242	0.498126	0.361522
C81	C	0.701933	-0.251876	-0.388498
C82	C	0.951933	-0.001876	-0.138498
C83	C	1.201933	0.248124	0.111502
C84	C	1.451933	0.498124	0.361502
C85	C	0.629157	-0.251881	-0.388519
C86	C	0.879157	-0.001881	-0.138519
C87	C	1.129157	0.248119	0.111481
C88	C	1.379157	0.498119	0.361481
C89	C	0.537843	-0.251885	-0.388538
C90	C	0.787843	-0.001885	-0.138538
C91	C	1.037843	0.248115	0.111462
C92	C	1.287843	0.498115	0.361462
C93	C	1.165022	-0.387717	-0.388440
C94	C	1.415022	-0.137717	-0.138440
C95	C	1.665022	0.112283	0.111560
C96	C	1.915022	0.362283	0.361560
C97	C	1.165047	-0.445831	-0.388440
C98	C	1.415047	-0.195831	-0.138440
C99	C	1.665047	0.054169	0.111560
C100	C	1.915047	0.304169	0.361560
C101	C	1.216742	-0.806150	-0.440176
C102	C	1.466742	-0.556150	-0.190176
C103	C	1.716742	-0.306150	0.059824
C104	C	1.966742	-0.056150	0.309824
C105	C	1.216766	-0.860754	-0.440193
C106	C	1.466766	-0.610754	-0.190193
C107	C	1.716766	-0.360754	0.059807
C108	C	1.966766	-0.110754	0.309807
O109	O	1.260583	-0.888953	-0.484116
O110	O	1.510583	-0.638953	-0.234116
O111	O	1.760583	-0.388953	0.015884
O112	O	2.010583	-0.138953	0.265884
N113	N	1.165248	-0.888113	-0.388581
N114	N	1.415248	-0.638113	-0.138581
N115	N	1.665248	-0.388113	0.111419
N116	N	1.915248	-0.138113	0.361419
C117	C	1.113698	-0.860866	-0.336956
C118	C	1.363698	-0.610866	-0.086956
C119	C	1.613698	-0.360866	0.163044
C120	C	1.863698	-0.110866	0.413044
O121	O	1.069880	-0.889151	-0.293059
O122	O	1.319880	-0.639151	-0.043059
O123	O	1.569880	-0.389151	0.206941
O124	O	1.819880	-0.139151	0.456941
C125	C	1.113670	-0.806262	-0.336944
C126	C	1.363670	-0.556262	-0.086944
C127	C	1.613670	-0.306262	0.163056
C128	C	1.863670	-0.056262	0.413056
C129	C	1.165197	-0.778906	-0.388553
C130	C	1.415197	-0.528906	-0.138553
C131	C	1.665197	-0.278906	0.111447
C132	C	1.915197	-0.028906	0.361447
C133	C	1.268264	-0.778793	-0.491782
C134	C	1.518264	-0.528793	-0.241782
C135	C	1.768264	-0.278793	0.008218
C136	C	2.018264	-0.028793	0.258218
C137	C	1.268241	-0.724193	-0.491764
C138	C	1.518241	-0.474193	-0.241764
C139	C	1.768241	-0.224193	0.008236
C140	C	2.018241	0.025807	0.258236
C141	C	1.216696	-0.696949	-0.440141
C142	C	1.466696	-0.446949	-0.190141
C143	C	1.716696	-0.196949	0.059859
C144	C	1.966696	0.053051	0.309859
C145	C	1.165174	-0.724305	-0.388536
C146	C	1.415174	-0.474305	-0.138536
C147	C	1.665174	-0.224305	0.111464
C148	C	1.915174	0.025695	0.361464
C149	C	1.062116	-0.779016	-0.285324
C150	C	1.312116	-0.529016	-0.035324
C151	C	1.562116	-0.279016	0.214676
C152	C	1.812116	-0.029016	0.464676
C153	C	1.062093	-0.724409	-0.285317
C154	C	1.312093	-0.474409	-0.035317
C155	C	1.562093	-0.224409	0.214683
C156	C	1.812093	0.025591	0.464683
C157	C	1.113620	-0.697052	-0.336926
C158	C	1.363620	-0.447052	-0.086926
C159	C	1.613620	-0.197052	0.163074
C160	C	1.863620	0.052948	0.413074
C161	C	1.113606	-0.642461	-0.336895
C162	C	1.363606	-0.392461	-0.086895
C163	C	1.613606	-0.142461	0.163105
C164	C	1.863606	0.107539	0.413105
N165	N	1.165124	-0.615102	-0.388506
N166	N	1.415124	-0.365102	-0.138506
N167	N	1.665124	-0.115102	0.111494
N168	N	1.915124	0.134898	0.361494
C169	C	1.216669	-0.642345	-0.440129
C170	C	1.466669	-0.392345	-0.190129
C171	C	1.716669	-0.142345	0.059871
C172	C	1.966669	0.107655	0.309871
C173	C	1.113758	-0.975536	-0.336986
C174	C	1.363758	-0.725536	-0.086986
C175	C	1.613758	-0.475536	0.163014
C176	C	1.863758	-0.225536	0.413014
C177	C	1.113789	-1.030139	-0.336993
C178	C	1.363789	-0.780139	-0.086993
C179	C	1.613789	-0.530139	0.163007
C180	C	1.863789	-0.280139	0.413007
C181	C	1.216856	-1.030023	-0.440230
C182	C	1.466856	-0.780023	-0.190230
C183	C	1.716856	-0.530023	0.059770
C184	C	1.966856	-0.280023	0.309770
C185	C	1.216828	-0.975420	-0.440219
C186	C	1.466828	-0.725420	-0.190219
C187	C	1.716828	-0.475420	0.059781
C188	C	1.966828	-0.225420	0.309781
C189	C	1.165275	-0.948177	-0.388597
C190	C	1.415275	-0.698177	-0.138597
C191	C	1.665275	-0.448177	0.111403
C192	C	1.915275	-0.198177	0.361403
C193	C	1.216617	-0.527680	-0.440088
C194	C	1.466617	-0.277680	-0.190088
C195	C	1.716617	-0.027680	0.059912
C196	C	1.966617	0.222320	0.309912
C197	C	1.216592	-0.473075	-0.440063
C198	C	1.466592	-0.223075	-0.190063
C199	C	1.716592	0.026925	0.059937
C200	C	1.966592	0.276925	0.309937
C201	C	1.113522	-0.473195	-0.336829
C202	C	1.363522	-0.223195	-0.086829
C203	C	1.613522	0.026805	0.163171
C204	C	1.863522	0.276805	0.413171
C205	C	1.113550	-0.527796	-0.336850
C206	C	1.363550	-0.277796	-0.086850
C207	C	1.613550	-0.027796	0.163150
C208	C	1.863550	0.222204	0.413150
C209	C	1.165100	-0.555037	-0.388486
C210	C	1.415100	-0.305037	-0.138486
C211	C	1.665100	-0.055037	0.111514
C212	C	1.915100	0.194963	0.361514
O213	O	1.069809	-0.614227	-0.292997
O214	O	1.319809	-0.364227	-0.042997
O215	O	1.569809	-0.114227	0.207003
O216	O	1.819809	0.135773	0.457003
O217	O	1.260472	-0.614053	-0.484027
O218	O	1.510472	-0.364053	-0.234027
O219	O	1.760472	-0.114053	0.015973
O220	O	2.010472	0.135947	0.265973
C221	C	1.375445	-0.251885	-0.388542
C222	C	1.625445	-0.001885	-0.138542
C223	C	1.875445	0.248115	0.111458
C224	C	2.125445	0.498115	0.361458
C225	C	1.465066	-0.251890	-0.388559
C226	C	1.715066	-0.001890	-0.138559
C227	C	1.965066	0.248110	0.111441
C228	C	2.215066	0.498110	0.361441
C229	C	1.165176	-0.251840	-0.598812
C230	C	1.415176	-0.001840	-0.348812
C231	C	1.665176	0.248160	-0.098812
C232	C	1.915176	0.498160	0.151188
C233	C	1.165193	-0.251825	-0.688434
C234	C	1.415193	-0.001825	-0.438434
C235	C	1.665193	0.248175	-0.188434
C236	C	1.915193	0.498175	0.061566
C237	C	1.165273	-0.115501	-0.388584
C238	C	1.415273	0.134499	-0.138584
C239	C	1.665273	0.384499	0.111416
C240	C	1.915273	0.634499	0.361416
C241	C	1.165331	-0.057387	-0.388619
C242	C	1.415331	0.192613	-0.138619
C243	C	1.665331	0.442613	0.111381
C244	C	1.915331	0.692613	0.361381
C245	C	1.165206	-0.251814	-0.761216
C246	C	1.415206	-0.001814	-0.511216
C247	C	1.665206	0.248186	-0.261216
C248	C	1.915206	0.498186	-0.011216
C249	C	1.165225	-0.251794	-0.852525
C250	C	1.415225	-0.001794	-0.602525
C251	C	1.665225	0.248206	-0.352525
C252	C	1.915225	0.498206	-0.102525
C253	C	1.165244	-0.251776	-0.925301
C254	C	1.415244	-0.001776	-0.675301
C255	C	1.665244	0.248224	-0.425301
C256	C	1.915244	0.498224	-0.175301
C257	C	1.165264	-0.251757	-1.016615
C258	C	1.415264	-0.001757	-0.766615
C259	C	1.665264	0.248243	-0.516615
C260	C	1.915264	0.498243	-0.266615
C261	C	1.165143	-0.251871	-0.179013
C262	C	1.415143	-0.001871	0.070987
C263	C	1.665143	0.248129	0.320987
C264	C	1.915143	0.498129	0.570987
C265	C	1.165283	-0.251739	-0.089392
C266	C	1.415283	-0.001739	0.160608
C267	C	1.665283	0.248261	0.410608
C268	C	1.915283	0.498261	0.660608
H269	H	1.258554	-0.450803	-0.482089
H270	H	1.508554	-0.200803	-0.232089
H271	H	1.758554	0.049197	0.017911
H272	H	2.008554	0.299197	0.267911
H273	H	1.258589	-0.549854	-0.482140
H274	H	1.508589	-0.299854	-0.232140
H275	H	1.758589	-0.049854	0.017860
H276	H	2.008589	0.200146	0.267860
N277	N	1.060887	-0.445352	-0.284095
N278	N	1.310887	-0.195352	-0.034095
N279	N	1.560887	0.054648	0.215905
N280	N	1.810887	0.304648	0.465905
N281	N	1.060881	-0.396600	-0.284093
N282	N	1.310881	-0.146600	-0.034093
N283	N	1.560881	0.103400	0.215907
N284	N	1.810881	0.353400	0.465907
H285	H	1.023706	-0.376934	-0.246851
H286	H	1.273706	-0.126934	0.003149
H287	H	1.523706	0.123066	0.253149
H288	H	1.773706	0.373066	0.503149
N289	N	1.269502	-1.057850	-0.492981
N290	N	1.519502	-0.807850	-0.242981
N291	N	1.769502	-0.557850	0.007019
N292	N	2.019502	-0.307850	0.257019
N293	N	1.315498	-1.033423	-0.539065
N294	N	1.565498	-0.783423	-0.289065
N295	N	1.815498	-0.533423	-0.039065
N296	N	2.065498	-0.283423	0.210935
H297	H	1.352677	-1.053076	-0.576319
H298	H	1.602677	-0.803076	-0.326319
H299	H	1.852677	-0.553076	-0.076319
H300	H	2.102677	-0.303076	0.173681
H301	H	1.310196	-0.701922	-0.533791
H302	H	1.560196	-0.451922	-0.283791
H303	H	1.810196	-0.201922	-0.033791
H304	H	2.060196	0.048078	0.216209
H305	H	1.310237	-0.800969	-0.533824
H306	H	1.560237	-0.550969	-0.283824
H307	H	1.810237	-0.300969	-0.033824
H308	H	2.060237	-0.050969	0.216176
H309	H	1.258785	-0.953149	-0.482244
H310	H	1.508785	-0.703149	-0.232244
H311	H	1.758785	-0.453149	0.017756
H312	H	2.008785	-0.203149	0.267756
H313	H	1.071839	-1.052408	-0.294959
H314	H	1.321839	-0.802408	-0.044959
H315	H	1.571839	-0.552408	0.205041
H316	H	1.821839	-0.302408	0.455041
N317	N	1.061091	-0.947719	-0.284243
N318	N	1.311091	-0.697719	-0.034243
N319	N	1.561091	-0.447719	0.215757
N320	N	1.811091	-0.197719	0.465757
N321	N	1.015101	-0.972158	-0.238170
N322	N	1.265101	-0.722158	0.011830
N323	N	1.515101	-0.472158	0.261830
N324	N	1.765101	-0.222158	0.511830
H325	H	0.977903	-0.952515	-0.200921
H326	H	1.227903	-0.702515	0.049079
H327	H	1.477903	-0.452515	0.299079
H328	H	1.727903	-0.202515	0.549079
N329	N	1.009467	-0.806943	-0.232610
N330	N	1.259467	-0.556943	0.017390
N331	N	1.509467	-0.306943	0.267390
N332	N	1.759467	-0.056943	0.517390
N333	N	0.963442	-0.782601	-0.186539
N334	N	1.213442	-0.532601	0.063461
N335	N	1.463442	-0.282601	0.313461
N336	N	1.713442	-0.032601	0.563461
H337	H	0.926250	-0.802323	-0.149311
H338	H	1.176250	-0.552323	0.100689
H339	H	1.426250	-0.302323	0.350689
H340	H	1.676250	-0.052323	0.600689
N341	N	1.009421	-0.696590	-0.232584
N342	N	1.259421	-0.446590	0.017416
N343	N	1.509421	-0.196590	0.267416
N344	N	1.759421	0.053410	0.517416
N345	N	0.963422	-0.721026	-0.186515
N346	N	1.213422	-0.471026	0.063485
N347	N	1.463422	-0.221026	0.313485
N348	N	1.713422	0.028974	0.563485
H349	H	0.926223	-0.701381	-0.149272
H350	H	1.176223	-0.451381	0.100728
H351	H	1.426223	-0.201381	0.350728
H352	H	1.676223	0.048619	0.600728
N353	N	1.060945	-0.555760	-0.284128
N354	N	1.310945	-0.305760	-0.034128
N355	N	1.560945	-0.055760	0.215872
N356	N	1.810945	0.194240	0.465872
N357	N	1.089373	-0.586245	-0.232799
N358	N	1.339373	-0.336245	0.017201
N359	N	1.589373	-0.086245	0.267201
N360	N	1.839373	0.163755	0.517201
H361	H	1.052220	-0.605996	-0.195568
H362	H	1.302220	-0.355996	0.054432
H363	H	1.552220	-0.105996	0.304432
H364	H	1.802220	0.144004	0.554432
