data_functionalizedCrystal
_audit_creation_method	'MofGen! by Chris Wilmer'
_symmetry_space_group_name_H-M	'P1'
_symmetry_Int_Tables_number	1
_symmetry_cell_setting	triclinic
loop_
_symmetry_equiv_pos_as_xyz
  x,y,z
_cell_length_a	19.188905
_cell_length_b	19.188930
_cell_length_c	13.596369
_cell_angle_alpha	89.988893
_cell_angle_beta	89.987547
_cell_angle_gamma	83.139668
loop_
_atom_site_label
_atom_site_type_symbol
_atom_site_fract_x
_atom_site_fract_y
_atom_site_fract_z
O1	O	0.926157	0.087086	-0.081964
O2	O	0.722843	0.098838	-0.081932
O3	O	0.830367	-0.008694	-0.081930
O4	O	0.818633	0.194618	-0.081967
O5	O	0.830356	-0.008700	0.081653
O6	O	0.722832	0.098832	0.081651
O7	O	0.926146	0.087080	0.081618
Zn8	Zn	0.824487	0.092955	0.107607
Zn9	Zn	0.824501	0.092963	-0.107921
O10	O	0.818622	0.194612	0.081616
C11	C	0.696826	0.098458	-0.000136
C12	C	0.619321	0.097324	-0.000123
C13	C	0.582935	0.096782	-0.089295
C14	C	0.510111	0.095709	-0.089307
C15	C	0.473678	0.095164	-0.000142
C16	C	0.510072	0.095709	0.089041
C17	C	0.582894	0.096789	0.089050
N18	N	0.364654	0.053733	0.066222
N19	N	0.295477	0.052705	0.066207
C20	C	0.254272	0.091911	-0.000166
N21	N	0.284858	0.132174	-0.066537
N22	N	0.354042	0.133199	-0.066525
C23	C	0.394716	0.093993	-0.000143
C24	C	0.138922	0.090207	-0.089356
C25	C	0.066096	0.089138	-0.089365
C26	C	0.066060	0.089131	0.088986
C27	C	0.138883	0.090207	0.088992
C28	C	0.175310	0.090742	-0.000182
C29	C	0.829982	-0.034708	-0.000136
C30	C	0.828841	-0.112213	-0.000127
C31	C	0.891933	-0.157142	-0.000132
C32	C	0.890861	-0.229966	-0.000148
C33	C	0.826694	-0.257857	-0.000139
C34	C	0.763594	-0.212917	-0.000139
C35	C	0.764668	-0.140095	-0.000133
N36	N	0.777642	-0.365859	0.055540
N37	N	0.776627	-0.435038	0.055536
C38	C	0.823456	-0.477265	-0.000158
N39	N	0.871349	-0.447702	-0.055836
N40	N	0.872367	-0.378517	-0.055829
C41	C	0.825523	-0.336819	-0.000145
C42	C	0.885390	-0.601159	-0.000181
C43	C	0.884315	-0.673984	-0.000203
C44	C	0.757047	-0.656933	-0.000184
C45	C	0.758123	-0.584110	-0.000172
C46	C	0.822296	-0.556228	-0.000166
C47	C	0.952163	0.087460	-0.000180
C48	C	1.029668	0.088594	-0.000199
C49	C	0.819007	0.220626	-0.000180
C50	C	0.820148	0.298131	-0.000195
N51	N	0.824483	0.092950	0.254699
N52	N	0.824511	0.092963	-0.255013
C53	C	0.824501	0.092963	0.655990
C54	C	0.824494	0.092962	0.544338
C55	C	0.824492	0.092957	0.455348
C56	C	0.824484	0.092955	0.343689
H57	H	0.036471	0.088702	-0.161982
N58	N	0.622224	0.097356	-0.185471
H59	H	0.588119	0.096849	-0.241963
H60	H	0.646640	0.141076	-0.189367
N61	N	0.958912	-0.278438	-0.000156
H62	H	0.999727	-0.249724	-0.000153
H63	H	0.961227	-0.309032	0.060485
H64	H	0.480404	0.095267	0.161639
H65	H	0.480480	0.095269	-0.161923
N66	N	0.690076	-0.535641	-0.000155
H67	H	0.662073	-0.544577	-0.060791
H68	H	0.662122	-0.544620	0.060530
N69	N	0.954601	-0.571080	-0.000175
H70	H	0.957890	-0.541228	-0.060806
H71	H	0.957830	-0.541297	0.060515
H72	H	0.612519	0.097231	0.161667
H73	H	0.935694	-0.710565	-0.000213
H74	H	0.944187	-0.134445	-0.000131
N75	N	0.178217	0.090787	-0.185530
H76	H	0.144112	0.090287	-0.242024
H77	H	0.202635	0.134507	-0.189417
N78	N	0.178133	0.090775	0.185172
H79	H	0.229793	0.091541	0.171649
H80	H	0.159597	0.133857	0.224107
N81	N	0.696620	-0.091625	-0.000120
H82	H	0.668616	-0.100556	-0.060758
H83	H	0.668664	-0.100604	0.060563
N84	N	0.694389	-0.243002	-0.000121
H85	H	0.666752	-0.226610	0.060523
H86	H	0.666815	-0.226588	-0.060798
H87	H	0.036396	0.088692	0.161586
N88	N	0.687836	-0.687005	-0.000185
H89	H	0.696729	-0.739955	-0.000193
H90	H	0.660231	-0.670565	0.060461
