data_functionalizedCrystal
_audit_creation_method	'MofGen! by Chris Wilmer'
_symmetry_space_group_name_H-M	'P1'
_symmetry_Int_Tables_number	1
_symmetry_cell_setting	triclinic
loop_
_symmetry_equiv_pos_as_xyz
  x,y,z
_cell_length_a	14.044220
_cell_length_b	14.044191
_cell_length_c	9.130313
_cell_angle_alpha	90.000368
_cell_angle_beta	90.004952
_cell_angle_gamma	93.190327
loop_
_atom_site_label
_atom_site_type_symbol
_atom_site_fract_x
_atom_site_fract_y
_atom_site_fract_z
O1	O	0.230199	1.277170	0.121735
O2	O	0.221886	1.000498	0.121753
O3	O	0.087707	1.134681	0.121730
O4	O	0.364378	1.142987	0.121758
O5	O	0.087703	1.134673	-0.121869
O6	O	0.221883	1.000489	-0.121845
O7	O	0.230195	1.277162	-0.121864
Cu8	Cu	0.226039	1.138825	-0.144097
Cu9	Cu	0.226043	1.138835	0.143987
O10	O	0.364375	1.142978	-0.121840
C11	C	0.218248	0.964872	-0.000044
C12	C	0.207401	0.858728	-0.000037
C13	C	0.264501	0.613270	-0.000046
C14	C	0.187585	0.664395	-0.000051
C15	C	0.198613	0.772532	-0.000044
C16	C	0.253474	0.505123	-0.000054
C17	C	0.052083	1.131041	-0.000070
C18	C	-0.054060	1.120197	-0.000071
C19	C	-0.248398	1.100370	-0.000048
C20	C	-0.299526	1.177285	-0.000049
C21	C	-0.407663	1.166253	-0.000037
C22	C	-0.140252	1.111400	-0.000061
C23	C	0.399998	1.146618	-0.000037
C24	C	0.506142	1.157463	-0.000027
C25	C	0.233834	1.312788	-0.000063
C26	C	0.244681	1.418931	-0.000060
N27	N	0.226036	1.138825	-0.346720
C28	C	0.166647	1.198269	-0.576729
C29	C	0.166648	1.198264	-0.423392
C30	C	0.285434	1.079395	-0.423392
C31	C	0.285437	1.079406	-0.576726
N32	N	0.226039	1.138842	0.346609
H33	H	0.113452	0.626952	0.000044
C34	C	0.364645	0.663852	-0.000021
N35	N	0.440072	0.701962	0.000004
C36	C	-0.248947	1.277437	-0.000076
N37	N	-0.210846	1.352869	-0.000105
C38	C	-0.298977	1.000225	-0.000061
N39	N	-0.337085	0.924797	-0.000083
C40	C	0.350774	1.014026	-0.661060
N41	N	0.399984	0.964784	-0.724579
C42	C	0.101312	1.263655	-0.661054
N43	N	0.052102	1.312908	-0.724563
H44	H	0.118288	1.246656	-0.360978
H45	H	0.333793	1.031002	-0.360957
