data_functionalizedCrystal
_audit_creation_method	'MofGen! by Chris Wilmer'
_symmetry_space_group_name_H-M	'P1'
_symmetry_Int_Tables_number	1
_symmetry_cell_setting	triclinic
loop_
_symmetry_equiv_pos_as_xyz
  x,y,z
_cell_length_a	38.067023
_cell_length_b	38.077490
_cell_length_c	38.067077
_cell_angle_alpha	59.997704
_cell_angle_beta	89.998734
_cell_angle_gamma	60.000154
loop_
_atom_site_label
_atom_site_type_symbol
_atom_site_fract_x
_atom_site_fract_y
_atom_site_fract_z
O1	O	-0.299412	-0.251366	0.010448
O2	O	-0.248328	-0.179451	-0.010403
O3	O	-0.248326	-0.251365	0.061532
O4	O	-0.299414	-0.179451	-0.061486
O5	O	-0.189899	-0.309776	0.061532
O6	O	-0.189901	-0.237861	-0.010403
O7	O	-0.240985	-0.309777	0.010448
Zn8	Zn	-0.206167	-0.283093	0.000023
Zn9	Zn	-0.283146	-0.206135	0.000023
O10	O	-0.240987	-0.237862	-0.061487
C11	C	-0.128227	-0.039355	-0.025248
C12	C	-0.085950	-0.060389	-0.025544
C13	C	-0.128229	-0.102948	-0.025252
C14	C	-0.085951	-0.123885	-0.025548
C15	C	-0.064614	-0.102951	-0.025248
C16	C	-0.149467	-0.060386	-0.025548
C17	C	-0.191984	0.024217	-0.020086
C18	C	-0.212145	0.064391	-0.016827
C19	C	-0.190407	0.084538	-0.015189
C20	C	-0.212265	0.128095	-0.011653
C21	C	-0.148508	0.064518	-0.016815
C22	C	-0.128349	0.024348	-0.020076
C23	C	-0.150087	0.004198	-0.021710
C24	C	0.004140	-0.107949	-0.020081
C25	C	0.047584	-0.131226	-0.016822
C26	C	0.069372	-0.174739	-0.015188
C27	C	0.116478	-0.199981	-0.011652
C28	C	0.047720	-0.194979	-0.016818
C29	C	0.004278	-0.171702	-0.020080
C30	C	-0.017511	-0.128189	-0.021709
C31	C	-0.191986	-0.107941	-0.020095
C32	C	-0.212147	-0.131219	-0.016834
C33	C	-0.190411	-0.174732	-0.015200
C34	C	-0.212269	-0.199971	-0.011669
C35	C	-0.148514	-0.194974	-0.016824
C36	C	-0.128351	-0.171700	-0.020083
C37	C	-0.150089	-0.128183	-0.021719
C38	C	-0.463698	-0.431923	0.031681
C39	C	-0.442362	-0.474487	0.031979
C40	C	-0.400086	-0.431922	0.031678
C41	C	-0.378847	-0.474485	0.031976
C42	C	-0.400085	-0.495519	0.031681
C43	C	-0.442363	-0.410986	0.031977
C44	C	-0.617099	-0.317399	0.020167
C45	C	-0.660541	-0.293986	0.016912
C46	C	-0.682333	-0.314084	0.015279
C47	C	-0.729438	-0.288695	0.011741
C48	C	-0.660680	-0.357598	0.016905
C49	C	-0.617240	-0.381011	0.020166
C50	C	-0.595450	-0.360909	0.021797
C51	C	-0.361240	-0.637368	0.020169
C52	C	-0.341218	-0.677543	0.016913
C53	C	-0.299325	-0.697695	0.015276
C54	C	-0.277614	-0.741250	0.011740
C55	C	-0.277453	-0.677671	0.016899
C56	C	-0.297472	-0.637503	0.020162
C57	C	-0.339370	-0.617352	0.021794
C58	C	-0.361243	-0.317391	0.020154
C59	C	-0.341223	-0.293973	0.016891
C60	C	-0.299329	-0.314068	0.015255
C61	C	-0.277621	-0.288678	0.011714
C62	C	-0.277458	-0.357579	0.016879
C63	C	-0.297480	-0.380994	0.020141
C64	C	-0.339372	-0.360898	0.021783
C65	C	-0.548347	-0.386298	0.025329
C66	C	-0.510801	-0.406535	0.028146
C67	C	-0.378379	-0.406531	0.028139
C68	C	-0.361077	-0.386292	0.025320
C69	C	-0.378378	-0.539074	0.028145
C70	C	-0.361075	-0.573793	0.025328
C71	C	-0.400366	-0.057316	-0.406377
C72	C	-0.442644	-0.014753	-0.427617
C73	C	-0.400367	-0.057315	-0.342764
C74	C	-0.442645	-0.014752	-0.364100
C75	C	-0.463980	0.006280	-0.406378
C76	C	-0.379128	-0.078252	-0.364099
C77	C	-0.297324	-0.171843	-0.445218
C78	C	-0.277160	-0.195257	-0.465240
C79	C	-0.298897	-0.175161	-0.507135
C80	C	-0.277039	-0.200550	-0.528843
C81	C	-0.340797	-0.131647	-0.529008
C82	C	-0.360956	-0.108233	-0.508988
C83	C	-0.339217	-0.128333	-0.467092
C84	C	-0.617383	0.148127	-0.509421
C85	C	-0.660825	0.188302	-0.529585
C86	C	-0.682620	0.208455	-0.507851
C87	C	-0.729723	0.252009	-0.529707
C88	C	-0.660967	0.188432	-0.465950
C89	C	-0.617524	0.148265	-0.445790
C90	C	-0.595735	0.128112	-0.467530
C91	C	-0.297326	-0.171842	-0.189359
C92	C	-0.277164	-0.195259	-0.145915
C93	C	-0.298901	-0.175162	-0.124123
C94	C	-0.277044	-0.200551	-0.077017
C95	C	-0.340800	-0.131651	-0.145775
C96	C	-0.360960	-0.108238	-0.189218
C97	C	-0.339217	-0.128335	-0.211008
C98	C	-0.361081	-0.102944	-0.445385
C99	C	-0.378507	-0.082705	-0.428083
C100	C	-0.378507	-0.082704	-0.295660
C101	C	-0.361082	-0.102942	-0.258114
C102	C	-0.511083	0.049835	-0.428238
C103	C	-0.548630	0.084554	-0.445664
O104	O	0.255029	-0.309790	0.010469
O105	O	0.132012	-0.237874	-0.010380
O106	O	0.203941	-0.309792	0.061554
O107	O	0.183100	-0.237872	-0.061465
O108	O	0.203942	-0.251384	0.061558
O109	O	0.132013	-0.179466	-0.010377
O110	O	0.255030	-0.251382	0.010473
Zn111	Zn	0.193522	-0.206151	0.000049
Zn112	Zn	0.193520	-0.283106	0.000044
O113	O	0.183101	-0.179464	-0.061461
O114	O	-0.240980	0.244491	0.010471
O115	O	-0.189894	0.142351	-0.010378
O116	O	-0.189896	0.142345	0.061556
O117	O	-0.240977	0.244497	-0.061463
O118	O	-0.248324	0.142347	0.061552
O119	O	-0.248322	0.142354	-0.010382
O120	O	-0.299407	0.244493	0.010467
Zn121	Zn	-0.283141	0.193424	0.000042
Zn122	Zn	-0.206160	0.193421	0.000047
O123	O	-0.299405	0.244499	-0.061467
O124	O	-0.868274	0.368411	-0.558424
O125	O	-0.745257	0.266268	-0.507336
O126	O	-0.817186	0.266266	-0.507334
O127	O	-0.796344	0.368414	-0.558426
O128	O	-0.817185	0.266264	-0.565760
O129	O	-0.745255	0.266267	-0.565762
O130	O	-0.868272	0.368410	-0.616850
Zn131	Zn	-0.806764	0.317338	-0.600583
Zn132	Zn	-0.806765	0.317340	-0.523604
O133	O	-0.796342	0.368413	-0.616852
O134	O	-0.248325	-0.251366	-0.616562
O135	O	-0.299411	-0.179454	-0.565477
O136	O	-0.299410	-0.251368	-0.565474
O137	O	-0.248326	-0.179452	-0.616565
O138	O	-0.240982	-0.309779	-0.507046
O139	O	-0.240984	-0.237866	-0.507050
O140	O	-0.189898	-0.309777	-0.558134
Zn141	Zn	-0.206164	-0.283096	-0.523316
Zn142	Zn	-0.283145	-0.206136	-0.600296
O143	O	-0.189899	-0.237864	-0.558138
C144	C	-0.064616	-0.449882	0.321773
C145	C	-0.085952	-0.428850	0.343012
C146	C	-0.128230	-0.386287	0.258159
C147	C	-0.149469	-0.365351	0.279495
C148	C	-0.128229	-0.386287	0.321772
C149	C	-0.085952	-0.428850	0.279495
C150	C	0.004137	-0.513456	0.321608
C151	C	0.047581	-0.553630	0.341633
C152	C	0.069370	-0.573779	0.383524
C153	C	0.116475	-0.617338	0.405237
C154	C	0.047719	-0.553761	0.405398
C155	C	0.004276	-0.513590	0.385375
C156	C	-0.017513	-0.493437	0.343480
C157	C	-0.128064	-0.381291	0.385528
C158	C	-0.148088	-0.358015	0.405689
C159	C	-0.189980	-0.314501	0.383952
C160	C	-0.211692	-0.289261	0.405809
C161	C	-0.211854	-0.294260	0.342053
C162	C	-0.191832	-0.317536	0.321894
C163	C	-0.149937	-0.361050	0.343631
C164	C	-0.128065	-0.381291	0.189406
C165	C	-0.148087	-0.358011	0.145960
C166	C	-0.189978	-0.314497	0.124170
C167	C	-0.211691	-0.289256	0.077065
C168	C	-0.211851	-0.294255	0.145820
C169	C	-0.191830	-0.317532	0.189264
C170	C	-0.149937	-0.361049	0.211055
C171	C	0.218795	-0.386318	0.321799
C172	C	0.219090	-0.428881	0.343036
C173	C	0.218796	-0.386313	0.258183
C174	C	0.219092	-0.428876	0.279518
C175	C	0.218793	-0.449911	0.321795
C176	C	0.219094	-0.365380	0.279521
C177	C	0.213634	-0.317421	0.321636
C178	C	0.210376	-0.294010	0.341662
C179	C	0.208740	-0.314109	0.383554
C180	C	0.205205	-0.288726	0.405268
C181	C	0.210366	-0.357622	0.405427
C182	C	0.213626	-0.381034	0.385403
C183	C	0.215258	-0.360931	0.343507
C184	C	0.213628	-0.513486	0.385550
C185	C	0.210368	-0.553661	0.405710
C186	C	0.208734	-0.573807	0.383972
C187	C	0.205197	-0.617365	0.405828
C188	C	0.210362	-0.553786	0.342073
C189	C	0.213624	-0.513615	0.321915
C190	C	0.215255	-0.493465	0.343653
C191	C	0.213638	-0.317412	0.189431
C192	C	0.210375	-0.293992	0.145985
C193	C	0.208741	-0.314087	0.124194
C194	C	0.205208	-0.288698	0.077089
C195	C	0.210365	-0.357596	0.145843
C196	C	0.213625	-0.381016	0.189287
C197	C	0.215261	-0.360922	0.211080
C198	C	-0.128228	-0.102999	0.321786
C199	C	-0.085950	-0.123940	0.343026
C200	C	-0.128227	-0.039396	0.258176
C201	C	-0.085949	-0.060433	0.279514
C202	C	-0.064613	-0.103002	0.321790
C203	C	-0.149467	-0.060430	0.279509
C204	C	-0.191985	-0.107991	0.321615
C205	C	-0.212148	-0.131268	0.341636
C206	C	-0.190411	-0.174788	0.383526
C207	C	-0.212269	-0.200030	0.405235
C208	C	-0.148512	-0.195034	0.405402
C209	C	-0.128351	-0.171757	0.385383
C210	C	-0.150088	-0.128237	0.343489
C211	C	0.004140	-0.171911	0.385546
C212	C	0.047584	-0.195328	0.405709
C213	C	0.069374	-0.175229	0.383974
C214	C	0.116479	-0.200619	0.405833
C215	C	0.047722	-0.131710	0.342077
C216	C	0.004280	-0.108293	0.321916
C217	C	-0.017510	-0.128395	0.343651
C218	C	-0.191984	0.024189	0.189422
C219	C	-0.212144	0.064366	0.145977
C220	C	-0.190407	0.084517	0.124191
C221	C	-0.212265	0.128082	0.077087
C222	C	-0.148510	0.064494	0.145842
C223	C	-0.128348	0.024316	0.189286
C224	C	-0.150087	0.004165	0.211074
C225	C	0.161897	0.006009	-0.406354
C226	C	0.161600	-0.015021	-0.427594
C227	C	0.161894	-0.057588	-0.342741
C228	C	0.161597	-0.078522	-0.364078
C229	C	0.161896	-0.057584	-0.406356
C230	C	0.161598	-0.015025	-0.364076
C231	C	0.173418	0.147853	-0.445193
C232	C	0.176676	0.188028	-0.465214
C233	C	0.178312	0.208182	-0.507109
C234	C	0.181853	0.251736	-0.528817
C235	C	0.176687	0.188162	-0.528983
C236	C	0.173424	0.147995	-0.508964
C237	C	0.171789	0.127840	-0.467067
C238	C	0.173414	-0.107925	-0.509401
C239	C	0.176670	-0.131195	-0.529566
C240	C	0.178305	-0.174712	-0.507832
C241	C	0.181842	-0.199951	-0.529689
C242	C	0.176678	-0.194956	-0.465932
C243	C	0.173415	-0.171682	-0.445770
C244	C	0.171785	-0.128164	-0.467510
C245	C	0.173406	-0.107944	-0.189336
C246	C	0.176666	-0.131222	-0.145891
C247	C	0.178299	-0.174739	-0.124100
C248	C	0.181836	-0.199982	-0.076994
C249	C	0.176676	-0.194979	-0.145753
C250	C	0.173417	-0.171701	-0.189195
C251	C	0.171779	-0.128180	-0.210985
C252	C	0.168255	0.084282	-0.445361
C253	C	0.165436	0.049564	-0.428059
C254	C	0.165429	-0.082827	-0.295637
C255	C	0.168246	-0.102944	-0.258091
C256	C	0.165432	-0.082819	-0.428217
C257	C	0.168250	-0.102933	-0.445644
O258	O	0.183071	-0.237904	0.492984
O259	O	0.203929	-0.309818	0.441900
O260	O	0.131993	-0.237903	0.441891
O261	O	0.255007	-0.309819	0.492993
O262	O	0.132000	-0.179493	0.383466
O263	O	0.203936	-0.251408	0.383475
O264	O	0.183078	-0.179494	0.434559
Zn265	Zn	0.193508	-0.206177	0.399741
Zn266	Zn	0.193499	-0.283135	0.476718
O267	O	0.255014	-0.251409	0.434569
C268	C	-0.463698	0.568132	-0.406349
C269	C	-0.442362	0.589070	-0.427585
C270	C	-0.400084	0.504526	-0.342735
C271	C	-0.378845	0.525561	-0.364068
C272	C	-0.400084	0.568130	-0.406344
C273	C	-0.442362	0.525563	-0.364072
C274	C	-0.617102	0.618488	-0.445200
C275	C	-0.660545	0.641764	-0.465223
C276	C	-0.682337	0.685287	-0.507117
C277	C	-0.729443	0.710531	-0.528827
C278	C	-0.660684	0.705530	-0.528986
C279	C	-0.617243	0.682251	-0.508965
C280	C	-0.595452	0.638728	-0.467069
C281	C	-0.361238	0.682666	-0.509374
C282	C	-0.341215	0.706081	-0.529534
C283	C	-0.299321	0.685984	-0.507797
C284	C	-0.277610	0.711371	-0.529649
C285	C	-0.277449	0.642464	-0.465898
C286	C	-0.297468	0.619046	-0.445742
C287	C	-0.339367	0.639154	-0.467484
C288	C	-0.361239	0.362658	-0.189337
C289	C	-0.341219	0.322481	-0.145894
C290	C	-0.299323	0.302324	-0.124100
C291	C	-0.277614	0.258762	-0.076995
C292	C	-0.277452	0.322348	-0.145748
C293	C	-0.297475	0.362526	-0.189190
C294	C	-0.339368	0.382675	-0.210982
C295	C	-0.548348	0.613491	-0.445361
C296	C	-0.510802	0.593373	-0.428057
C297	C	-0.378377	0.460965	-0.295632
C298	C	-0.361074	0.426240	-0.258087
C299	C	-0.378376	0.593521	-0.428200
C300	C	-0.361073	0.613760	-0.445623
H301	H	-0.094238	-0.188182	-0.021409
H302	H	0.214967	-0.301052	0.287524
H303	H	-0.068816	-0.446445	0.262363
H304	H	-0.359032	0.306183	-0.128269
H305	H	-0.344390	-0.112500	-0.346971
O306	O	0.178356	0.207697	-0.569648
C307	C	0.217202	0.203780	-0.569550
H308	H	0.242049	0.172650	-0.535926
H309	H	0.229653	0.195174	-0.593413
H310	H	0.211317	0.240348	-0.579231
O311	O	-0.087655	0.004939	0.210260
C312	C	-0.072788	0.031335	0.181712
H313	H	-0.101452	0.069883	0.154346
H314	H	-0.052327	0.034996	0.199708
H315	H	-0.052564	0.010469	0.167996
O316	O	-0.252867	-0.111521	0.320367
C317	C	-0.280881	-0.063073	0.309676
H318	H	-0.261725	-0.047448	0.308732
H319	H	-0.306246	-0.038367	0.276769
H320	H	-0.297327	-0.064229	0.334880
O321	O	-0.252521	-0.251937	0.320927
C322	C	-0.252425	-0.213197	0.317105
H323	H	-0.218803	-0.221967	0.319588
H324	H	-0.276290	-0.176892	0.284633
H325	H	-0.262103	-0.209405	0.344004
H326	H	-0.068823	-0.158134	-0.026027
O327	O	-0.462765	0.629976	-0.469004
C328	C	-0.464897	0.669169	-0.471339
H329	H	-0.438370	0.653298	-0.442779
H330	H	-0.460473	0.691651	-0.502546
H331	H	-0.497570	0.694250	-0.470578
H332	H	-0.068821	-0.446455	0.377749
O333	O	-0.401652	-0.065963	-0.210192
C334	C	-0.416518	-0.053251	-0.181641
H335	H	-0.387855	-0.070721	-0.154274
H336	H	-0.436979	-0.011141	-0.199635
H337	H	-0.436743	-0.067610	-0.167928
H338	H	-0.068822	-0.042784	-0.026023
O339	O	-0.361921	-0.112194	-0.569673
C340	C	-0.365740	-0.147211	-0.569576
H341	H	-0.363255	-0.174538	-0.535953
H342	H	-0.398212	-0.127194	-0.593440
H343	H	-0.338843	-0.168216	-0.579256
H344	H	0.209033	-0.373958	0.128097
H345	H	0.177999	-0.114746	-0.128261
O346	O	-0.596169	-0.423325	0.021823
C347	C	-0.561244	-0.462140	0.060666
H348	H	-0.567451	-0.453374	0.085523
H349	H	-0.557524	-0.498381	0.073107
H350	H	-0.530517	-0.466053	0.054779
H351	H	0.172095	-0.188183	-0.206823
O352	O	0.178181	-0.237201	-0.124592
C353	C	0.143105	-0.229198	-0.109249
H354	H	0.116291	-0.187755	-0.129224
H355	H	0.130732	-0.249801	-0.111991
H356	H	0.153928	-0.243565	-0.074128
O357	O	-0.213079	-0.065674	0.280945
C358	C	-0.216911	-0.026934	0.281049
H359	H	-0.190794	-0.043341	0.310262
H360	H	-0.213144	-0.002329	0.250421
H361	H	-0.249894	-0.003807	0.282546
H362	H	-0.130815	-0.230473	0.439514
O363	O	-0.463082	0.006335	-0.469084
C364	C	-0.475002	0.055496	-0.495212
H365	H	-0.453509	0.059557	-0.478936
H366	H	-0.471144	0.064476	-0.527754
H367	H	-0.509989	0.082207	-0.500076
O368	O	0.171764	-0.065637	-0.210472
C369	C	0.135590	-0.028555	-0.209701
H370	H	0.125635	-0.046727	-0.181402
H371	H	0.144012	-0.005445	-0.206077
H372	H	0.107872	-0.003507	-0.240997
O373	O	-0.276137	-0.191421	-0.404528
C374	C	-0.234838	-0.234850	-0.389513
H375	H	-0.224829	-0.233672	-0.418099
H376	H	-0.210796	-0.237224	-0.369047
H377	H	-0.235493	-0.268770	-0.369253
O378	O	-0.252542	-0.251974	0.124713
C379	C	-0.267556	-0.239110	0.153142
H380	H	-0.238971	-0.256502	0.180549
H381	H	-0.288026	-0.196987	0.135052
H382	H	-0.287812	-0.253436	0.166813
H383	H	-0.678426	-0.373959	0.015578
O384	O	0.171813	0.128353	-0.404503
C385	C	0.173956	0.154629	-0.389487
H386	H	0.162769	0.193214	-0.418072
H387	H	0.152288	0.158203	-0.369020
H388	H	0.208540	0.133718	-0.369227
H389	H	-0.599361	-0.301028	0.021496
H390	H	-0.395353	-0.620965	0.021500
O391	O	-0.362531	-0.696918	0.015322
C392	C	-0.403796	-0.670527	0.017474
H393	H	-0.413689	-0.631980	0.006283
H394	H	-0.427924	-0.666861	-0.004184
H395	H	-0.403143	-0.691397	0.052064
O396	O	-0.126908	-0.377664	0.124900
C397	C	-0.150166	-0.389483	0.109574
H398	H	-0.185375	-0.366106	0.106269
H399	H	-0.147697	-0.381348	0.076852
H400	H	-0.136234	-0.430550	0.133206
O401	O	-0.236484	-0.237562	-0.444012
C402	C	-0.236504	-0.276386	-0.440086
H403	H	-0.265634	-0.260076	-0.466239
H404	H	-0.205803	-0.301057	-0.443721
H405	H	-0.238090	-0.299419	-0.407123
H406	H	0.214954	-0.497319	0.287802
H407	H	-0.243345	-0.373941	0.015546
O408	O	0.178185	0.207543	-0.444012
C409	C	0.143115	0.257944	-0.467274
H410	H	0.116297	0.264867	-0.488828
H411	H	0.130744	0.267457	-0.443860
H412	H	0.153946	0.282264	-0.487942
H413	H	-0.184204	-0.042827	0.262380
O414	O	0.171810	-0.191265	-0.405081
C415	C	0.168594	-0.161399	-0.391944
H416	H	0.154635	-0.122279	-0.421502
H417	H	0.146637	-0.159809	-0.371579
H418	H	0.201909	-0.177957	-0.372129
O419	O	-0.681635	-0.251678	0.015266
C420	C	-0.716544	-0.212862	-0.023590
H421	H	-0.726375	-0.229181	-0.036400
H422	H	-0.744861	-0.188190	-0.017571
H423	H	-0.706624	-0.189827	-0.048217
O424	O	0.160970	0.005962	-0.343611
C425	C	0.123707	0.020203	-0.331709
H426	H	0.111687	-0.002682	-0.329437
H427	H	0.131645	0.013502	-0.299145
H428	H	0.097658	0.061304	-0.356918
H429	H	-0.243335	0.626096	-0.448202
O430	O	-0.462734	-0.370166	0.032603
C431	C	-0.439721	-0.381272	0.069864
H432	H	-0.404807	-0.413898	0.081884
H433	H	-0.440965	-0.347477	0.061923
H434	H	-0.454781	-0.391422	0.095915
H435	H	-0.094237	-0.188241	0.403196
H436	H	-0.209688	0.007815	-0.021420
O437	O	-0.236457	-0.237508	-0.124953
C438	C	-0.221596	-0.250230	-0.153499
H439	H	-0.240329	-0.215673	-0.188025
H440	H	-0.185904	-0.266132	-0.146486
H441	H	-0.226538	-0.279171	-0.149068
O442	O	0.178317	-0.111621	-0.570240
C443	C	0.217173	-0.146552	-0.570208
H444	H	0.229982	-0.185506	-0.541072
H445	H	0.211156	-0.144175	-0.600904
H446	H	0.241800	-0.138220	-0.568621
H447	H	-0.209689	0.007785	0.207161
H448	H	0.219561	-0.446480	0.377772
H449	H	-0.279616	-0.188204	-0.207101
O450	O	-0.401661	-0.065981	-0.530289
C451	C	-0.416520	-0.053254	-0.571564
H452	H	-0.397791	-0.087810	-0.571524
H453	H	-0.452214	-0.037344	-0.580463
H454	H	-0.411571	-0.024317	-0.596080
O455	O	-0.016969	-0.191488	0.406729
C456	C	0.011459	-0.234922	0.448026
H457	H	0.038866	-0.233746	0.458039
H458	H	-0.006632	-0.237303	0.472070
H459	H	0.025129	-0.268838	0.447365
O460	O	-0.337399	0.504486	-0.343576
C461	C	-0.323149	0.462338	-0.301602
H462	H	-0.343382	0.447817	-0.300286
H463	H	-0.287941	0.432225	-0.292645
H464	H	-0.326602	0.472889	-0.277933
O465	O	-0.236738	-0.697331	0.015367
C466	C	-0.209662	-0.747733	0.050451
H467	H	-0.229816	-0.762749	0.062291
H468	H	-0.185146	-0.769900	0.039843
H469	H	-0.192131	-0.751307	0.077588
O470	O	-0.016687	-0.191437	-0.021639
C471	C	0.011857	-0.234830	-0.019508
H472	H	0.046383	-0.250624	-0.003671
H473	H	0.004840	-0.263500	0.000272
H474	H	0.007428	-0.225455	-0.053401
O475	O	-0.017028	-0.065630	-0.021745
C476	C	-0.016240	-0.028554	-0.057909
H477	H	-0.011103	-0.037266	-0.082848
H478	H	-0.048126	0.009058	-0.072461
H479	H	0.011148	-0.027473	-0.047664
H480	H	-0.209643	-0.301055	0.287780
H481	H	0.209056	-0.258584	0.323852
O482	O	0.208854	-0.251764	0.124927
C483	C	0.243935	-0.259690	0.109599
H484	H	0.255762	-0.291584	0.106292
H485	H	0.233328	-0.224506	0.076877
H486	H	0.271080	-0.269387	0.133231
O487	O	-0.087361	-0.423548	0.210505
C488	C	-0.072354	-0.436427	0.182082
H489	H	-0.091009	-0.401946	0.147515
H490	H	-0.036656	-0.452343	0.189193
H491	H	-0.077261	-0.465406	0.186557
O492	O	-0.596275	0.128629	-0.530608
C493	C	-0.624702	0.154907	-0.571907
H494	H	-0.652110	0.193491	-0.581917
H495	H	-0.606611	0.158482	-0.595950
H496	H	-0.638371	0.133997	-0.571249
O497	O	-0.462854	0.504613	-0.343706
C498	C	-0.504830	0.532337	-0.371611
H499	H	-0.506150	0.553886	-0.406370
H500	H	-0.513791	0.506096	-0.366527
H501	H	-0.528493	0.559445	-0.364502
H502	H	-0.678451	0.204601	-0.563700
O503	O	-0.361874	-0.112095	-0.124612
C504	C	-0.338530	-0.100371	-0.109265
H505	H	-0.317053	-0.095029	-0.129239
H506	H	-0.361884	-0.064661	-0.112002
H507	H	-0.317778	-0.131941	-0.074144
O508	O	-0.213056	-0.297950	0.210353
C509	C	-0.216979	-0.332869	0.245266
H510	H	-0.190827	-0.371829	0.255106
H511	H	-0.213341	-0.330483	0.273578
H512	H	-0.249941	-0.324534	0.235345
O513	O	0.215143	-0.423243	0.210256
C514	C	0.177376	-0.413494	0.189810
H515	H	0.162688	-0.379658	0.155024
H516	H	0.185573	-0.447043	0.190461
H517	H	0.153327	-0.405898	0.207412
H518	H	-0.013347	-0.072862	0.287802
O519	O	-0.127417	-0.237285	-0.015176
C520	C	-0.123579	-0.276034	0.023678
H521	H	-0.149694	-0.259637	0.036486
H522	H	-0.127344	-0.300636	0.017657
H523	H	-0.090595	-0.299163	0.048308
O524	O	-0.401945	0.382190	-0.210436
C525	C	-0.416954	0.355898	-0.182017
H526	H	-0.398300	0.337166	-0.147448
H527	H	-0.452652	0.382779	-0.189128
H528	H	-0.412047	0.326488	-0.186494
H529	H	-0.678172	0.625279	-0.447413
O530	O	0.068612	-0.237553	0.446432
C531	C	0.083953	-0.229640	0.473587
H532	H	0.064056	-0.188203	0.458959
H533	H	0.081099	-0.250198	0.506517
H534	H	0.119108	-0.244121	0.477246
O535	O	-0.087631	0.004812	-0.021600
C536	C	-0.060484	-0.045583	0.013484
H537	H	-0.080565	-0.060707	0.025312
H538	H	-0.035901	-0.067697	0.002881
H539	H	-0.043035	-0.049097	0.040629
O540	O	0.068922	-0.112197	0.321028
C541	C	0.084257	-0.100464	0.344372
H542	H	0.087442	-0.123800	0.379546
H543	H	0.117037	-0.108723	0.342025
H544	H	0.060694	-0.059382	0.330421
H545	H	-0.599615	0.698734	-0.526774
H546	H	0.209032	-0.570197	0.324375
H547	H	0.214949	-0.416463	0.403213
O548	O	-0.127436	0.084140	0.124682
C549	C	-0.150784	0.134546	0.109338
H550	H	-0.172260	0.141384	0.129315
H551	H	-0.127432	0.144175	0.112075
H552	H	-0.171538	0.158838	0.074218
H553	H	-0.678711	0.204846	-0.448256
O554	O	0.171869	0.128594	-0.530264
C555	C	0.174002	0.155002	-0.571538
H556	H	0.189835	0.173689	-0.571498
H557	H	0.193785	0.128213	-0.580434
H558	H	0.140110	0.184456	-0.596056
O559	O	-0.016972	-0.493958	0.280920
C560	C	0.011456	-0.520238	0.265908
H561	H	0.038863	-0.558822	0.294495
H562	H	-0.006635	-0.523813	0.245441
H563	H	0.025126	-0.499329	0.245648
H564	H	0.065205	-0.569926	0.323820
O565	O	0.160993	-0.119359	-0.343594
C566	C	0.160806	-0.133424	-0.301621
H567	H	0.147613	-0.099997	-0.300299
H568	H	0.139625	-0.147443	-0.292675
H569	H	0.195026	-0.164202	-0.277947
H570	H	0.161122	0.002585	-0.462332
O571	O	-0.401928	0.702247	-0.530563
C572	C	-0.416941	0.745680	-0.571860
H573	H	-0.388356	0.744505	-0.581868
H574	H	-0.437408	0.748060	-0.595907
H575	H	-0.437200	0.779597	-0.571201
O576	O	0.171812	-0.065642	-0.530587
C577	C	0.173955	-0.052772	-0.571887
H578	H	0.162767	-0.070163	-0.581898
H579	H	0.152289	-0.010648	-0.595930
H580	H	0.208540	-0.067095	-0.571229
O581	O	-0.337398	-0.495441	0.032573
C582	C	-0.323147	-0.467726	0.032756
H583	H	-0.343387	-0.446171	0.045952
H584	H	-0.287942	-0.493973	0.053931
H585	H	-0.326588	-0.440622	-0.001467
O586	O	-0.462812	-0.495494	0.032619
C587	C	-0.474715	-0.509733	0.069882
H588	H	-0.477007	-0.486828	0.081887
H589	H	-0.507268	-0.503056	0.061951
H590	H	-0.449495	-0.550827	0.095941
O591	O	-0.596561	0.128865	-0.405085
C592	C	-0.625105	0.155273	-0.390226
H593	H	-0.659631	0.173958	-0.408955
H594	H	-0.618089	0.128485	-0.354531
H595	H	-0.620677	0.184730	-0.395176
H596	H	0.178003	-0.230386	-0.448237
H597	H	-0.599364	0.583049	-0.411088
O598	O	-0.362523	-0.251722	0.015334
C599	C	-0.403795	-0.239000	0.017469
H600	H	-0.403753	-0.273558	0.033306
H601	H	-0.412691	-0.223094	0.037252
H602	H	-0.428313	-0.210062	-0.016422
H603	H	-0.279661	-0.621204	0.021484
H604	H	0.209031	-0.373984	0.439539
H605	H	-0.678430	0.740965	-0.563097
O606	O	0.068928	-0.573296	0.446064
C607	C	0.103856	-0.569378	0.445965
H608	H	0.097565	-0.538247	0.412341
H609	H	0.107698	-0.560772	0.469828
H610	H	0.134548	-0.605945	0.455645
O611	O	-0.016687	-0.494188	0.406674
C612	C	0.011857	-0.520593	0.447948
H613	H	0.046383	-0.539279	0.447909
H614	H	0.004841	-0.493802	0.456843
H615	H	0.007428	-0.550049	0.472466
O616	O	-0.362437	0.748394	-0.570206
C617	C	-0.366351	0.787202	-0.570167
H618	H	-0.340196	0.770875	-0.541028
H619	H	-0.362708	0.811878	-0.600861
H620	H	-0.399312	0.810236	-0.568581
H621	H	-0.184205	-0.042780	-0.026030
H622	H	-0.068820	-0.042830	0.262384
O623	O	0.219737	-0.449910	0.259093
C624	C	0.256983	-0.464125	0.247161
H625	H	0.282547	-0.469329	0.268632
H626	H	0.269814	-0.500522	0.251038
H627	H	0.248705	-0.434019	0.212164
H628	H	-0.279656	0.583612	-0.411629
O629	O	-0.276161	0.381901	-0.210160
C630	C	-0.234894	0.355504	-0.181608
H631	H	-0.225003	0.316956	-0.154244
H632	H	-0.210767	0.351841	-0.199601
H633	H	-0.235544	0.376368	-0.167890
O634	O	-0.236777	0.302771	-0.124520
C635	C	-0.236871	0.306696	-0.089596
H636	H	-0.266080	0.309787	-0.079883
H637	H	-0.206241	0.272309	-0.061223
H638	H	-0.238367	0.341167	-0.099443
H639	H	-0.093952	-0.416724	0.403232
O640	O	0.215149	-0.297825	0.210561
C641	C	0.177397	-0.249380	0.190188
H642	H	0.150664	-0.245217	0.171359
H643	H	0.167133	-0.242507	0.215502
H644	H	0.183865	-0.221242	0.167231
O645	O	-0.126771	-0.377732	0.446381
C646	C	-0.085503	-0.421135	0.461248
H647	H	-0.075611	-0.419837	0.432583
H648	H	-0.061377	-0.423599	0.481707
H649	H	-0.086150	-0.455066	0.481475
H650	H	0.214959	-0.497084	0.403255
H651	H	-0.209690	-0.072507	-0.021428
O652	O	-0.252853	-0.111477	-0.015282
C653	C	-0.267714	-0.068081	-0.017419
H654	H	-0.248984	-0.052290	-0.033256
H655	H	-0.303407	-0.039410	-0.037202
H656	H	-0.262769	-0.077451	0.016472
H657	H	0.219572	-0.331129	0.262394
O658	O	0.068617	-0.111540	-0.015315
C659	C	0.083955	-0.099737	-0.050390
H660	H	0.064051	-0.094467	-0.077206
H661	H	0.081108	-0.063966	-0.062763
H662	H	0.119108	-0.131231	-0.039565
H663	H	-0.246258	0.080688	-0.015504
O664	O	0.208771	-0.573031	0.446402
C665	C	0.210918	-0.546639	0.461270
H666	H	0.199730	-0.508093	0.432606
H667	H	0.189255	-0.542974	0.481728
H668	H	0.245505	-0.567510	0.481498
H669	H	-0.130811	0.080929	-0.015481
H670	H	-0.395356	-0.301022	0.021487
O671	O	0.068927	-0.237300	-0.015152
C672	C	0.103855	-0.276045	0.023695
H673	H	0.097567	-0.267277	0.048546
H674	H	0.107694	-0.312347	0.036141
H675	H	0.134548	-0.279840	0.017811
O676	O	-0.276188	-0.423308	0.021799
C677	C	-0.238310	-0.460301	0.057958
H678	H	-0.241966	-0.451589	0.082898
H679	H	-0.232456	-0.497970	0.072510
H680	H	-0.209880	-0.461259	0.047706
O681	O	-0.463012	0.006200	-0.343612
C682	C	-0.435108	-0.021517	-0.301636
H683	H	-0.400350	-0.043065	-0.300317
H684	H	-0.440194	0.004728	-0.292682
H685	H	-0.442215	-0.048628	-0.277969
O686	O	-0.065576	-0.164763	0.384485
C687	C	-0.088592	-0.153665	0.410639
H688	H	-0.123508	-0.121044	0.390024
H689	H	-0.087342	-0.187466	0.436503
H690	H	-0.073539	-0.143512	0.426538
O691	O	-0.252872	0.083855	0.124989
C692	C	-0.280882	0.101152	0.145447
H693	H	-0.266216	0.109130	0.164192
H694	H	-0.313132	0.136660	0.120198
H695	H	-0.285949	0.071653	0.168495
H696	H	-0.184204	-0.331097	0.262361
