data_functionalizedCrystal
_audit_creation_method	'MofGen! by Chris Wilmer'
_symmetry_space_group_name_H-M	'P1'
_symmetry_Int_Tables_number	1
_symmetry_cell_setting	triclinic
loop_
_symmetry_equiv_pos_as_xyz
  x,y,z
_cell_length_a	18.215407
_cell_length_b	18.215405
_cell_length_c	18.215399
_cell_angle_alpha	89.972459
_cell_angle_beta	89.980167
_cell_angle_gamma	90.023180
loop_
_atom_site_label
_atom_site_type_symbol
_atom_site_fract_x
_atom_site_fract_y
_atom_site_fract_z
Zn1	Zn	1.125083	-0.292983	-0.416118
Zn2	Zn	1.625083	0.207017	0.083882
Zn3	Zn	1.124996	-0.416054	-0.293053
Zn4	Zn	1.624996	0.083946	0.206947
Zn5	Zn	1.002016	-0.293007	-0.293065
Zn6	Zn	1.502016	0.206993	0.206935
Zn7	Zn	1.001986	-0.416013	-0.416077
Zn8	Zn	1.501986	0.083987	0.083923
O9	O	1.063520	-0.354514	-0.354578
O10	O	1.563520	0.145486	0.145422
O11	O	1.228056	-0.309316	-0.399805
O12	O	1.728056	0.190684	0.100195
O13	O	1.108658	-0.399759	-0.190070
O14	O	1.608658	0.100241	0.309930
O15	O	1.018389	-0.190020	-0.309411
O16	O	1.518389	0.309980	0.190589
O17	O	1.227992	-0.399736	-0.309389
O18	O	1.727992	0.100264	0.190611
O19	O	1.108807	-0.190002	-0.399817
O20	O	1.608807	0.309998	0.100183
O21	O	1.018305	-0.309357	-0.190079
O22	O	1.518305	0.190643	0.309921
O23	O	0.899027	-0.309317	-0.309372
O24	O	1.399027	0.190683	0.190628
O25	O	1.018339	-0.399666	-0.519067
O26	O	1.518339	0.100334	-0.019067
O27	O	0.899006	-0.399689	-0.399748
O28	O	1.399006	0.100311	0.100252
O29	O	1.108778	-0.309276	-0.519097
O30	O	1.608778	0.190724	-0.019097
O31	O	1.108630	-0.519033	-0.309350
O32	O	1.608630	-0.019033	0.190650
O33	O	1.018255	-0.519003	-0.399736
O34	O	1.518255	-0.019003	0.100264
C35	C	0.872314	-0.354502	-0.354557
C36	C	1.372314	0.145498	0.145443
C37	C	0.790515	-0.354514	-0.354566
C38	C	1.290515	0.145486	0.145434
C39	C	0.602329	-0.401645	-0.401566
C40	C	1.102329	0.098355	0.098434
C41	C	0.525470	-0.401647	-0.401575
C42	C	1.025470	0.098353	0.098425
C43	C	0.525463	-0.307397	-0.307607
C44	C	1.025463	0.192603	0.192393
C45	C	0.602321	-0.307392	-0.307602
C46	C	1.102321	0.192608	0.192398
C47	C	0.640751	-0.354520	-0.354580
C48	C	1.140751	0.145480	0.145420
C49	C	0.487035	-0.354528	-0.354594
C50	C	0.987035	0.145472	0.145406
C51	C	0.403702	-0.354530	-0.354604
C52	C	0.903702	0.145470	0.145396
C53	C	0.724090	-0.354517	-0.354572
C54	C	1.224090	0.145483	0.145428
C55	C	1.063450	-0.545721	-0.354553
C56	C	1.563450	-0.045721	0.145447
C57	C	1.063487	-0.627520	-0.354567
C58	C	1.563487	-0.127520	0.145433
C59	C	1.110589	-0.815643	-0.401705
C60	C	1.610589	-0.315643	0.098295
C61	C	1.110616	-0.892502	-0.401719
C62	C	1.610616	-0.392502	0.098281
C63	C	1.016542	-0.892634	-0.307497
C64	C	1.516542	-0.392634	0.192503
C65	C	1.016512	-0.815776	-0.307488
C66	C	1.516512	-0.315776	0.192512
C67	C	1.063540	-0.777283	-0.354590
C68	C	1.563540	-0.277283	0.145410
C69	C	1.063597	-0.930999	-0.354614
C70	C	1.563597	-0.430999	0.145386
C71	C	1.063625	-1.014333	-0.354628
C72	C	1.563625	-0.514333	0.145372
C73	C	1.063511	-0.693944	-0.354577
C74	C	1.563511	-0.193944	0.145423
C75	C	1.255473	-0.354528	-0.354600
C76	C	1.755473	0.145472	0.145400
C77	C	1.337272	-0.354533	-0.354609
C78	C	1.837272	0.145467	0.145391
C79	C	1.063565	-0.354464	-0.546531
C80	C	1.563565	0.145536	-0.046531
C81	C	1.063584	-0.354442	-0.628330
C82	C	1.563584	0.145558	-0.128330
C83	C	1.063611	-0.162561	-0.354620
C84	C	1.563611	0.337439	0.145380
C85	C	1.063650	-0.080763	-0.354638
C86	C	1.563650	0.419237	0.145362
C87	C	1.110692	-0.307332	-0.816541
C88	C	1.610692	0.192668	-0.316541
C89	C	1.110701	-0.307311	-0.893400
C90	C	1.610701	0.192689	-0.393400
C91	C	1.016528	-0.401438	-0.893358
C92	C	1.516528	0.098562	-0.393358
C93	C	1.016516	-0.401455	-0.816500
C94	C	1.516516	0.098545	-0.316500
C95	C	1.063602	-0.354403	-0.778094
C96	C	1.563602	0.145597	-0.278094
C97	C	1.063623	-0.354365	-0.931810
C98	C	1.563623	0.145635	-0.431810
C99	C	1.063632	-0.354342	-1.015144
C100	C	1.563632	0.145658	-0.515144
C101	C	1.063592	-0.354425	-0.694755
C102	C	1.563592	0.145575	-0.194755
C103	C	1.063518	-0.354512	-0.163372
C104	C	1.563518	0.145488	0.336628
C105	C	1.063641	-0.354326	-0.081574
C106	C	1.563641	0.145674	0.418426
H107	H	0.633605	-0.269012	-0.269341
H108	H	1.133605	0.230988	0.230659
H109	H	0.978255	-0.923984	-0.269147
H110	H	1.478255	-0.423984	0.230853
C111	C	0.923528	-0.823620	-0.214345
C112	C	1.423528	-0.323620	0.285655
C113	C	0.964793	-0.773605	-0.255694
C114	C	1.464793	-0.273605	0.244306
H115	H	0.891603	-0.797583	-0.182371
H116	H	1.391603	-0.297583	0.317629
H117	H	0.895370	-0.853599	-0.246384
H118	H	1.395370	-0.353599	0.253616
H119	H	0.955628	-0.853590	-0.186230
H120	H	1.455628	-0.353590	0.313770
H121	H	0.932693	-0.743638	-0.283814
H122	H	1.432693	-0.243638	0.216186
H123	H	0.992953	-0.743613	-0.223650
H124	H	1.492953	-0.243613	0.276350
H125	H	0.978164	-0.439786	-0.785196
H126	H	1.478164	0.060214	-0.285196
C127	C	1.203772	-0.214283	-0.824305
C128	C	1.703772	0.285717	-0.324305
C129	C	1.162442	-0.255606	-0.774324
C130	C	1.662442	0.244394	-0.274324
H131	H	1.235716	-0.182344	-0.798242
H132	H	1.735716	0.317656	-0.298242
H133	H	1.231914	-0.246340	-0.854277
H134	H	1.731914	0.253660	-0.354277
H135	H	1.171715	-0.186129	-0.854286
H136	H	1.671715	0.313871	-0.354286
H137	H	1.194499	-0.283764	-0.744347
H138	H	1.694499	0.216236	-0.244347
H139	H	1.134298	-0.223545	-0.744340
H140	H	1.634298	0.276455	-0.244340
C141	C	0.626034	-0.437638	-0.526119
C142	C	1.126034	0.062362	-0.026119
C143	C	0.644575	-0.453438	-0.453210
C144	C	1.144575	0.046562	0.046790
H145	H	0.652118	-0.469611	-0.558003
H146	H	1.152118	0.030389	-0.058003
H147	H	0.574768	-0.444389	-0.532841
H148	H	1.074768	0.055611	-0.032841
H149	H	0.638655	-0.388202	-0.536961
H150	H	1.138655	0.111798	-0.036961
H151	H	0.631949	-0.502874	-0.442366
H152	H	1.131949	-0.002874	0.057634
H153	H	0.695853	-0.446695	-0.446485
H154	H	1.195853	0.053305	0.053515
H155	H	0.494190	-0.440020	-0.439836
H156	H	0.994190	0.059980	0.060164
C157	C	0.407642	-0.265556	-0.265891
C158	C	0.907642	0.234444	0.234109
C159	C	0.483217	-0.255599	-0.255968
C160	C	0.983217	0.244401	0.244032
H161	H	0.381564	-0.233580	-0.234006
H162	H	0.881564	0.266420	0.265994
H163	H	0.395075	-0.254849	-0.315352
H164	H	0.895075	0.245151	0.184648
H165	H	0.395033	-0.314992	-0.255032
H166	H	0.895033	0.185008	0.244968
H167	H	0.495827	-0.206164	-0.266832
H168	H	0.995827	0.293836	0.233168
H169	H	0.495789	-0.266301	-0.206495
H170	H	0.995789	0.233699	0.293505
C171	C	1.203569	-0.823236	-0.494850
C172	C	1.703569	-0.323236	0.005150
C173	C	1.162271	-0.773331	-0.453489
C174	C	1.662271	-0.273331	0.046511
H175	H	1.235470	-0.797114	-0.526825
H176	H	1.735470	-0.297114	-0.026825
H177	H	1.231754	-0.853206	-0.462819
H178	H	1.731754	-0.353206	0.037181
H179	H	1.171488	-0.853225	-0.522966
H180	H	1.671488	-0.353225	-0.022966
H181	H	1.194353	-0.743345	-0.425369
H182	H	1.694353	-0.243345	0.074631
H183	H	1.134085	-0.743348	-0.485525
H184	H	1.634085	-0.243348	0.014475
H185	H	1.148927	-0.923731	-0.440086
H186	H	1.648927	-0.423731	0.059914
H187	H	1.149046	-0.268979	-0.924700
H188	H	1.649046	0.231021	-0.424700
C189	C	0.974734	-0.443211	-1.011156
C190	C	1.474734	0.056789	-0.511156
C191	C	0.964778	-0.453162	-0.935577
C192	C	1.464778	0.046838	-0.435577
H193	H	0.942789	-0.475148	-1.037218
H194	H	1.442789	0.024852	-0.537218
H195	H	0.963985	-0.393767	-1.023760
H196	H	1.463985	0.106233	-0.523760
H197	H	1.024181	-0.453981	-1.023750
H198	H	1.524181	0.046019	-0.523750
H199	H	0.915332	-0.442386	-0.922982
H200	H	1.415332	0.057614	-0.422982
H201	H	0.975522	-0.502617	-0.922968
H202	H	1.475522	-0.002617	-0.422968
