data_functionalizedCrystal
_audit_creation_method	'MofGen! by Chris Wilmer'
_symmetry_space_group_name_H-M	'P1'
_symmetry_Int_Tables_number	1
_symmetry_cell_setting	triclinic
loop_
_symmetry_equiv_pos_as_xyz
  x,y,z
_cell_length_a	21.395362
_cell_length_b	16.959454
_cell_length_c	21.395355
_cell_angle_alpha	90.012996
_cell_angle_beta	90.043940
_cell_angle_gamma	90.035955
loop_
_atom_site_label
_atom_site_type_symbol
_atom_site_fract_x
_atom_site_fract_y
_atom_site_fract_z
Zn1	Zn	0.957906	-0.314438	0.354610
Zn2	Zn	1.457906	0.185562	0.854610
Zn3	Zn	0.957828	-0.446599	0.249842
Zn4	Zn	1.457828	0.053401	0.749842
Zn5	Zn	0.853121	-0.314475	0.249811
Zn6	Zn	1.353121	0.185525	0.749811
Zn7	Zn	0.853109	-0.446615	0.354547
Zn8	Zn	1.353109	0.053385	0.854547
O9	O	0.905491	-0.380532	0.302202
O10	O	1.405491	0.119468	0.802202
O11	O	1.045573	-0.331947	0.340751
O12	O	1.545573	0.168053	0.840751
O13	O	0.943910	-0.429081	0.162160
O14	O	1.443910	0.070919	0.662160
O15	O	0.867058	-0.203859	0.263726
O16	O	1.367058	0.296141	0.763726
O17	O	1.045516	-0.429045	0.263779
O18	O	1.545516	0.070955	0.763779
O19	O	0.944043	-0.203832	0.340721
O20	O	1.444043	0.296168	0.840721
O21	O	0.866982	-0.332010	0.162137
O22	O	1.366982	0.167990	0.662137
O23	O	0.765441	-0.332026	0.263665
O24	O	1.265441	0.167974	0.763665
O25	O	0.867039	-0.429073	0.442233
O26	O	1.367039	0.070927	0.942233
O27	O	0.765433	-0.429109	0.340614
O28	O	1.265433	0.070891	0.840614
O29	O	0.944032	-0.331963	0.442279
O30	O	1.444032	0.168037	0.942279
O31	O	0.943899	-0.557212	0.263718
O32	O	1.443899	-0.057212	0.763718
O33	O	0.866963	-0.557224	0.340645
O34	O	1.366963	-0.057224	0.840645
C35	C	0.742703	-0.380574	0.302130
C36	C	1.242703	0.119426	0.802130
C37	C	0.673062	-0.380610	0.302114
C38	C	1.173062	0.119390	0.802114
C39	C	0.640361	-0.431228	0.342121
C40	C	1.140361	0.068772	0.842121
C41	C	0.574925	-0.431209	0.342149
C42	C	1.074925	0.068791	0.842149
C43	C	0.542194	-0.380580	0.302158
C44	C	1.042194	0.119420	0.802158
C45	C	0.574903	-0.329952	0.262148
C46	C	1.074903	0.170048	0.762148
C47	C	0.640337	-0.329967	0.262126
C48	C	1.140337	0.170033	0.762126
C49	C	0.438468	-0.374212	0.245752
C50	C	0.938468	0.125788	0.745752
C51	C	0.373035	-0.374203	0.245774
C52	C	0.873035	0.125797	0.745774
C53	C	0.340373	-0.380528	0.302227
C54	C	0.840373	0.119472	0.802227
C55	C	0.373152	-0.386881	0.358661
C56	C	0.873152	0.113119	0.858661
C57	C	0.438586	-0.386896	0.358639
C58	C	0.938586	0.113104	0.858639
C59	C	0.471241	-0.380557	0.302178
C60	C	0.971241	0.119443	0.802178
C61	C	0.236719	-0.431128	0.342268
C62	C	0.736719	0.068872	0.842268
C63	C	0.171283	-0.431103	0.342297
C64	C	0.671283	0.068897	0.842297
C65	C	0.171261	-0.329850	0.262291
C66	C	0.671261	0.170150	0.762291
C67	C	0.236697	-0.329871	0.262267
C68	C	0.736697	0.170129	0.762267
C69	C	0.269422	-0.380514	0.302255
C70	C	0.769422	0.119486	0.802255
C71	C	0.905438	-0.585898	0.302192
C72	C	1.405438	-0.085898	0.802192
C73	C	0.905473	-0.673755	0.302208
C74	C	1.405473	-0.173755	0.802208
C75	C	0.865488	-1.045266	0.342254
C76	C	1.365488	-0.545266	0.842254
C77	C	0.945668	-1.045194	0.262215
C78	C	1.445668	-0.545194	0.762215
C79	C	0.945646	-0.962648	0.262209
C80	C	1.445646	-0.462648	0.762209
C81	C	0.905544	-0.921407	0.302226
C82	C	1.405544	-0.421407	0.802226
C83	C	0.865464	-0.962713	0.342248
C84	C	1.365464	-0.462713	0.842248
C85	C	0.985721	-0.921337	0.222184
C86	C	1.485721	-0.421337	0.722184
C87	C	0.985700	-0.838786	0.222176
C88	C	1.485700	-0.338786	0.722176
C89	C	0.945601	-0.797544	0.262196
C90	C	1.445601	-0.297544	0.762196
C91	C	0.905520	-0.838854	0.302220
C92	C	1.405520	-0.338854	0.802220
C93	C	0.865418	-0.797613	0.342236
C94	C	1.365418	-0.297613	0.842236
C95	C	0.825339	-0.838922	0.382264
C96	C	1.325339	-0.338922	0.882264
C97	C	0.825365	-0.921471	0.382268
C98	C	1.325365	-0.421471	0.882268
C99	C	0.945575	-0.714995	0.262192
C100	C	1.445575	-0.214995	0.762192
C101	C	0.865393	-0.715060	0.342230
C102	C	1.365393	-0.215060	0.842230
C103	C	1.068914	-0.380490	0.302276
C104	C	1.568914	0.119510	0.802276
C105	C	1.138555	-0.380473	0.302307
C106	C	1.638555	0.119527	0.802307
C107	C	0.905543	-0.380516	0.465626
C108	C	1.405543	0.119484	0.965626
C109	C	0.905565	-0.380509	0.535267
C110	C	1.405565	0.119491	1.035267
C111	C	0.905561	-0.174363	0.302227
C112	C	1.405561	0.325637	0.802227
C113	C	0.905590	-0.086507	0.302237
C114	C	1.405590	0.413493	0.802237
C115	C	0.905475	-0.380491	0.139415
C116	C	1.405475	0.119509	0.639415
C117	C	0.905574	-0.380275	0.069774
C118	C	1.405574	0.119725	0.569774
C119	C	0.945654	-0.329942	0.568005
C120	C	1.445654	0.170058	1.068005
C121	C	0.945653	-0.329908	0.633441
C122	C	1.445653	0.170092	1.133441
C123	C	0.905570	-0.380455	0.666135
C124	C	1.405570	0.119545	1.166135
C125	C	0.865473	-0.431026	0.633389
C126	C	1.365473	0.068974	1.133389
C127	C	0.865471	-0.431053	0.567955
C128	C	1.365471	0.068947	1.067955
C129	C	0.900604	-0.451628	0.769805
C130	C	1.400604	0.048372	1.269805
C131	C	0.900611	-0.451602	0.835238
C132	C	1.400611	0.048398	1.335238
C133	C	0.905574	-0.380371	0.867956
C134	C	1.405574	0.119629	1.367956
C135	C	0.910543	-0.309164	0.835234
C136	C	1.410543	0.190836	1.335234
C137	C	0.910540	-0.309191	0.769800
C138	C	1.410540	0.190809	1.269800
C139	C	0.905568	-0.380431	0.737088
C140	C	1.405568	0.119569	1.237088
C141	C	0.945664	-0.329763	0.971647
C142	C	1.445664	0.170237	1.471647
C143	C	0.945659	-0.329728	1.037084
C144	C	1.445659	0.170272	1.537084
C145	C	0.865482	-0.430853	1.037031
C146	C	1.365482	0.069147	1.537031
C147	C	0.865484	-0.430881	0.971596
C148	C	1.365484	0.069119	1.471596
C149	C	0.905578	-0.380337	0.938908
C150	C	1.405578	0.119663	1.438908
H151	H	0.263322	-0.288656	0.229686
H152	H	0.763322	0.211344	0.729686
H153	H	0.914584	-0.251211	0.743160
H154	H	1.414584	0.248789	1.243160
H155	H	1.018335	-0.805157	0.189584
H156	H	1.518335	-0.305157	0.689584
H157	H	0.896569	-0.509584	0.861875
H158	H	1.396569	-0.009584	1.361875
C159	C	0.675968	-0.486074	0.385580
C160	C	1.175968	0.013926	0.885580
C161	C	0.713615	-0.441401	0.425778
C162	C	1.213615	0.058599	0.925778
C163	C	0.746432	-0.491895	0.465818
C164	C	1.246432	0.008105	0.965818
H165	H	0.647187	-0.516233	0.409472
H166	H	1.147187	-0.016233	0.909472
H167	H	0.701484	-0.520465	0.361579
H168	H	1.201484	-0.020465	0.861579
H169	H	0.688102	-0.407024	0.449777
H170	H	1.188102	0.092976	0.949777
H171	H	0.742408	-0.411244	0.401904
H172	H	1.242408	0.088756	0.901904
H173	H	0.771948	-0.526287	0.441817
H174	H	1.271948	-0.026287	0.941817
H175	H	0.717646	-0.522052	0.489705
H176	H	1.217646	-0.022052	0.989705
H177	H	0.771983	-0.461593	0.493093
H178	H	1.271983	0.038407	0.993093
H179	H	0.832823	-0.472230	0.541300
H180	H	1.332823	0.027770	1.041300
C181	C	0.989256	-1.090026	0.218860
C182	C	1.489256	-0.590026	0.718860
C183	C	1.029420	-1.137363	0.254372
C184	C	1.529420	-0.637363	0.754372
C185	C	1.069577	-1.178677	0.214447
C186	C	1.569577	-0.678677	0.714447
H187	H	0.965357	-1.122320	0.191532
H188	H	1.465357	-0.622320	0.691532
H189	H	1.013160	-1.053642	0.195022
H190	H	1.513160	-0.553642	0.695022
H191	H	1.005518	-1.173743	0.278199
H192	H	1.505518	-0.673743	0.778199
H193	H	1.053332	-1.105089	0.281698
H194	H	1.553332	-0.605089	0.781698
H195	H	1.093482	-1.142292	0.190609
H196	H	1.593482	-0.642292	0.690609
H197	H	1.045674	-1.210965	0.187122
H198	H	1.545674	-0.710965	0.687122
H199	H	1.096837	-1.210794	0.238536
H200	H	1.596837	-0.710794	0.738536
C201	C	0.135744	-0.485932	0.385816
C202	C	0.635744	0.014068	0.885816
C203	C	0.098268	-0.441247	0.426065
C204	C	0.598268	0.058753	0.926065
C205	C	0.065527	-0.491729	0.466168
C206	C	0.565527	0.008271	0.966168
H207	H	0.110117	-0.520334	0.361882
H208	H	0.610117	-0.020334	0.861882
H209	H	0.164590	-0.516080	0.409661
H210	H	0.664590	-0.016080	0.909661
H211	H	0.069426	-0.411113	0.402222
H212	H	0.569426	0.088887	0.902222
H213	H	0.123880	-0.406847	0.450012
H214	H	0.623880	0.093153	0.950012
H215	H	0.094373	-0.521876	0.490013
H216	H	0.594373	-0.021876	0.990013
H217	H	0.039903	-0.526128	0.442229
H218	H	0.539903	-0.026128	0.942229
H219	H	0.040100	-0.461417	0.493485
H220	H	0.540100	0.038583	0.993485
H221	H	0.548295	-0.472428	0.374730
H222	H	1.048295	0.027572	0.874730
C223	C	0.781868	-0.793999	0.425685
C224	C	1.281868	-0.293999	0.925685
C225	C	0.790437	-0.712867	0.417116
C226	C	1.290437	-0.212867	0.917116
C227	C	0.750410	-0.671457	0.457109
C228	C	1.250410	-0.171457	0.957109
H229	H	0.739753	-0.807489	0.416506
H230	H	1.239753	-0.307489	0.916506
H231	H	0.791028	-0.807446	0.467810
H232	H	1.291028	-0.307446	0.967810
H233	H	0.781272	-0.699425	0.375001
H234	H	1.281272	-0.199425	0.875001
H235	H	0.832544	-0.699354	0.426300
H236	H	1.332544	-0.199354	0.926300
H237	H	0.759570	-0.684904	0.499234
H238	H	1.259570	-0.184904	0.999234
H239	H	0.708297	-0.684953	0.447927
H240	H	1.208297	-0.184953	0.947927
H241	H	0.756222	-0.616404	0.451305
H242	H	1.256222	-0.116404	0.951305
C243	C	0.895299	-0.528942	0.734233
C244	C	1.395299	-0.028942	1.234233
C245	C	0.948265	-0.539027	0.696687
C246	C	1.448265	-0.039027	1.196687
C247	C	0.943386	-0.610238	0.663916
C248	C	1.443386	-0.110238	1.163916
H249	H	0.892369	-0.571390	0.763041
H250	H	1.392369	-0.071390	1.263041
H251	H	0.858992	-0.527951	0.708652
H252	H	1.358992	-0.027951	1.208652
H253	H	0.984562	-0.540023	0.722265
H254	H	1.484562	-0.040023	1.222265
H255	H	0.951205	-0.496596	0.667867
H256	H	1.451205	0.003404	1.167867
H257	H	0.907079	-0.609248	0.638336
H258	H	1.407079	-0.109248	1.138336
H259	H	0.940455	-0.652680	0.692729
H260	H	1.440455	-0.152680	1.192729
H261	H	0.979319	-0.617086	0.638433
H262	H	1.479319	-0.117086	1.138433
H263	H	0.978307	-0.288603	0.945031
H264	H	1.478307	0.211397	1.445031
C265	C	0.822036	-0.485712	1.072633
C266	C	1.322036	0.014288	1.572633
C267	C	0.830630	-0.474882	1.136946
C268	C	1.330630	0.025118	1.636946
C269	C	0.790624	-0.525414	1.169765
C270	C	1.290624	-0.025414	1.669765
H271	H	0.779915	-0.474217	1.061956
H272	H	1.279915	0.025783	1.561956
H273	H	0.831200	-0.538837	1.061954
H274	H	1.331200	-0.038837	1.561954
H275	H	0.821462	-0.421769	1.147621
H276	H	1.321462	0.078231	1.647621
H277	H	0.872743	-0.486382	1.147642
H278	H	1.372743	0.013618	1.647642
H279	H	0.799789	-0.578540	1.159086
H280	H	1.299789	-0.078540	1.659086
H281	H	0.748505	-0.513915	1.159082
H282	H	1.248505	-0.013915	1.659082
H283	H	0.796454	-0.518078	1.213404
H284	H	1.296454	-0.018078	1.713404
C285	C	0.989255	-0.274792	1.072518
C286	C	1.489255	0.225208	1.572518
C287	C	1.024376	-0.230553	1.029882
C288	C	1.524376	0.269447	1.529882
C289	C	1.064550	-0.179945	1.062502
C290	C	1.564550	0.320055	1.562502
H291	H	0.965372	-0.240273	1.098024
H292	H	1.465372	0.259727	1.598024
H293	H	1.016575	-0.304996	1.098054
H294	H	1.516575	0.195004	1.598054
H295	H	0.997059	-0.200350	1.004356
H296	H	1.497059	0.299650	1.504356
H297	H	1.048272	-0.265051	1.004374
H298	H	1.548272	0.234949	1.504374
H299	H	1.091871	-0.210150	1.088038
H300	H	1.591871	0.289850	1.588038
H301	H	1.040662	-0.145431	1.088007
H302	H	1.540662	0.354569	1.588007
H303	H	1.088389	-0.149928	1.033578
H304	H	1.588389	0.350072	1.533578
H305	H	0.465272	-0.392066	0.404590
H306	H	0.965272	0.107934	0.904590
C307	C	0.821938	-0.485875	0.936160
C308	C	1.321938	0.014125	1.436160
C309	C	0.786843	-0.530150	0.978796
C310	C	1.286843	-0.030150	1.478796
C311	C	0.746724	-0.580825	0.946176
C312	C	1.246724	-0.080825	1.446176
H313	H	0.794593	-0.455742	0.910610
H314	H	1.294593	0.044258	1.410610
H315	H	0.845878	-0.520363	0.910667
H316	H	1.345878	-0.020363	1.410667
H317	H	0.762905	-0.495666	1.004278
H318	H	1.262905	0.004334	1.504278
H319	H	0.814172	-0.560299	1.004347
H320	H	1.314172	-0.060299	1.504347
H321	H	0.770664	-0.615313	0.920683
H322	H	1.270664	-0.115313	1.420683
H323	H	0.719383	-0.550686	0.920627
H324	H	1.219383	-0.050686	1.420627
H325	H	0.722912	-0.610876	0.975099
H326	H	1.222912	-0.110876	1.475099
H327	H	1.018365	-0.954921	0.189600
H328	H	1.518365	-0.454921	0.689600
C329	C	0.989149	-0.670288	0.218712
C330	C	1.489149	-0.170288	0.718712
C331	C	1.024280	-0.724073	0.183675
C332	C	1.524280	-0.224073	0.683675
C333	C	1.064434	-0.682919	0.143618
C334	C	1.564434	-0.182919	0.643618
H335	H	0.965252	-0.638123	0.191328
H336	H	1.465252	-0.138123	0.691328
H337	H	1.016465	-0.638059	0.242694
H338	H	1.516465	-0.138059	0.742694
H339	H	0.996968	-0.756289	0.159694
H340	H	1.496968	-0.256289	0.659694
H341	H	1.048190	-0.756240	0.211043
H342	H	1.548190	-0.256240	0.711043
H343	H	1.091750	-0.650690	0.167600
H344	H	1.591750	-0.150690	0.667600
H345	H	1.040532	-0.650756	0.116238
H346	H	1.540532	-0.150756	0.616238
H347	H	1.088280	-0.719405	0.119845
H348	H	1.588280	-0.219405	0.619845
H349	H	0.346351	-0.369035	0.199822
H350	H	0.846351	0.130965	0.699822
C351	C	0.821851	-0.485811	0.668851
C352	C	1.321851	0.014189	1.168851
C353	C	0.759863	-0.468607	0.652903
C354	C	1.259863	0.031393	1.152903
C355	C	0.719658	-0.519050	0.685563
C356	C	1.219658	-0.019050	1.185563
H357	H	0.830918	-0.538950	0.658164
H358	H	1.330918	-0.038950	1.158164
H359	H	0.827553	-0.478547	0.712516
H360	H	1.327553	0.021453	1.212516
H361	H	0.754164	-0.475877	0.609248
H362	H	1.254164	0.024123	1.109248
H363	H	0.750776	-0.415477	0.663592
H364	H	1.250776	0.084523	1.163592
H365	H	0.725360	-0.511787	0.729229
H366	H	1.225360	-0.011787	1.229229
H367	H	0.728731	-0.572186	0.674874
H368	H	1.228731	-0.072186	1.174874
H369	H	0.677594	-0.507380	0.674752
H370	H	1.177594	-0.007380	1.174752
C371	C	0.821953	-1.089968	0.385780
C372	C	1.321953	-0.589968	0.885780
C373	C	0.786841	-1.036179	0.420832
C374	C	1.286841	-0.536179	0.920832
C375	C	0.746735	-1.077329	0.460941
C376	C	1.246735	-0.577329	0.960941
H377	H	0.794618	-1.122221	0.361853
H378	H	1.294618	-0.622221	0.861853
H379	H	0.845904	-1.122108	0.413147
H380	H	1.345904	-0.622108	0.913147
H381	H	0.762891	-1.004052	0.393468
H382	H	1.262891	-0.504052	0.893468
H383	H	0.814158	-1.003924	0.444771
H384	H	1.314158	-0.503924	0.944771
H385	H	0.770687	-1.109470	0.488308
H386	H	1.270687	-0.609470	0.988308
H387	H	0.719405	-1.109581	0.437010
H388	H	1.219405	-0.609581	0.937010
H389	H	0.722911	-1.040840	0.484732
H390	H	1.222911	-0.540840	0.984732
H391	H	0.346560	-0.392030	0.404632
H392	H	0.846560	0.107970	0.904632
H393	H	0.144612	-0.288624	0.229733
H394	H	0.644612	0.211376	0.729733
C395	C	0.473813	-0.367387	0.184386
C396	C	0.973813	0.132613	0.684386
C397	C	0.431104	-0.361855	0.134969
C398	C	0.931104	0.138145	0.634969
C399	C	0.463640	-0.355580	0.078431
C400	C	0.963640	0.144420	0.578431
H401	H	0.499375	-0.321582	0.185156
H402	H	0.999375	0.178418	0.685156
H403	H	0.499287	-0.412701	0.178781
H404	H	0.999287	0.087299	0.678781
H405	H	0.405641	-0.316545	0.140572
H406	H	0.905641	0.183455	0.640572
H407	H	0.405541	-0.407654	0.134178
H408	H	0.905541	0.092346	0.634178
H409	H	0.489114	-0.400895	0.072826
H410	H	0.989114	0.099105	0.572826
H411	H	0.489201	-0.309775	0.079208
H412	H	0.989201	0.190225	0.579208
H413	H	0.434667	-0.351833	0.044894
H414	H	0.934667	0.148167	0.544894
H415	H	0.978301	-0.288784	0.541395
H416	H	1.478301	0.211216	1.041395
H417	H	0.978297	-0.288725	0.660101
H418	H	1.478297	0.211275	1.160101
H419	H	0.263366	-0.472361	0.374832
H420	H	0.763366	0.027639	0.874832
C421	C	0.539450	-0.275029	0.218625
C422	C	1.039450	0.224971	0.718625
C423	C	0.555304	-0.292116	0.156606
C424	C	1.055304	0.207884	0.656606
C425	C	0.522665	-0.241526	0.116496
C426	C	1.022665	0.258474	0.616496
H427	H	0.495786	-0.282219	0.224279
H428	H	0.995786	0.217781	0.724279
H429	H	0.550231	-0.221927	0.227826
H430	H	1.050231	0.278073	0.727826
H431	H	0.544519	-0.345205	0.147408
H432	H	1.044519	0.154795	0.647408
H433	H	0.598962	-0.284921	0.150932
H434	H	1.098962	0.215079	0.650932
H435	H	0.533446	-0.188423	0.125697
H436	H	1.033446	0.311577	0.625697
H437	H	0.479003	-0.248719	0.122156
H438	H	0.979003	0.251281	0.622156
H439	H	0.533422	-0.253107	0.074412
H440	H	1.033422	0.246893	0.574412
H441	H	0.914585	-0.251161	0.861872
H442	H	1.414585	0.248839	1.361872
H443	H	0.666962	-0.288746	0.229547
H444	H	1.166962	0.211254	0.729547
H445	H	0.832739	-0.681487	0.374819
H446	H	1.332739	-0.181487	0.874819
H447	H	0.792734	-0.955112	0.414855
H448	H	1.292734	-0.455112	0.914855
