data_functionalizedCrystal
_audit_creation_method	'MofGen! by Chris Wilmer'
_symmetry_space_group_name_H-M	'P1'
_symmetry_Int_Tables_number	1
_symmetry_cell_setting	triclinic
loop_
_symmetry_equiv_pos_as_xyz
  x,y,z
_cell_length_a	15.944551
_cell_length_b	14.519709
_cell_length_c	12.996460
_cell_angle_alpha	89.999966
_cell_angle_beta	89.992903
_cell_angle_gamma	96.410558
loop_
_atom_site_label
_atom_site_type_symbol
_atom_site_fract_x
_atom_site_fract_y
_atom_site_fract_z
O1	O	0.110109	-1.223676	-0.085435
O2	O	0.360109	-0.973676	0.164565
O3	O	0.610109	-0.723676	0.414565
O4	O	0.860109	-0.473676	0.664565
O5	O	0.123076	-0.955177	-0.085467
O6	O	0.373076	-0.705177	0.164533
O7	O	0.623076	-0.455177	0.414533
O8	O	0.873076	-0.205177	0.664533
O9	O	-0.005672	-1.096759	-0.085441
O10	O	0.244328	-0.846759	0.164559
O11	O	0.494328	-0.596759	0.414559
O12	O	0.744328	-0.346759	0.664559
O13	O	0.238857	-1.082094	-0.085461
O14	O	0.488857	-0.832094	0.164539
O15	O	0.738857	-0.582094	0.414539
O16	O	0.988857	-0.332094	0.664539
O17	O	-0.005679	-1.096744	0.085693
O18	O	0.244321	-0.846744	0.335693
O19	O	0.494321	-0.596744	0.585693
O20	O	0.744321	-0.346744	0.835693
O21	O	0.123069	-0.955162	0.085667
O22	O	0.373069	-0.705162	0.335667
O23	O	0.623069	-0.455162	0.585667
O24	O	0.873069	-0.205162	0.835667
O25	O	0.110102	-1.223661	0.085699
O26	O	0.360102	-0.973661	0.335699
O27	O	0.610102	-0.723661	0.585699
O28	O	0.860102	-0.473661	0.835699
Cu29	Cu	0.116585	-1.089410	0.101309
Cu30	Cu	0.366585	-0.839410	0.351309
Cu31	Cu	0.616585	-0.589410	0.601309
Cu32	Cu	0.866585	-0.339410	0.851309
Cu33	Cu	0.116593	-1.089428	-0.101077
Cu34	Cu	0.366593	-0.839428	0.148923
Cu35	Cu	0.616593	-0.589428	0.398923
Cu36	Cu	0.866593	-0.339428	0.648923
O37	O	0.238849	-1.082080	0.085673
O38	O	0.488849	-0.832080	0.335673
O39	O	0.738849	-0.582080	0.585673
O40	O	0.988849	-0.332080	0.835673
C41	C	0.122468	-0.920810	0.000096
C42	C	0.372468	-0.670810	0.250096
C43	C	0.622468	-0.420810	0.500096
C44	C	0.872468	-0.170810	0.750096
C45	C	0.120657	-0.818432	0.000084
C46	C	0.370657	-0.568432	0.250084
C47	C	0.620657	-0.318432	0.500084
C48	C	0.870657	-0.068432	0.750084
C49	C	-0.036970	-1.096142	0.000126
C50	C	0.213030	-0.846142	0.250126
C51	C	0.463030	-0.596142	0.500126
C52	C	0.713030	-0.346142	0.750126
C53	C	-0.130219	-1.094317	0.000126
C54	C	0.119781	-0.844317	0.250126
C55	C	0.369781	-0.594317	0.500126
C56	C	0.619781	-0.344317	0.750126
N57	N	0.116578	-1.089405	0.243656
N58	N	0.366578	-0.839405	0.493656
N59	N	0.616578	-0.589405	0.743656
N60	N	0.866578	-0.339405	0.993656
C61	C	-0.345209	-1.002196	0.000101
C62	C	-0.095209	-0.752196	0.250101
C63	C	0.154791	-0.502196	0.500101
C64	C	0.404791	-0.252196	0.750101
C65	C	-0.406168	-1.044967	0.084486
C66	C	-0.156168	-0.794967	0.334486
C67	C	0.093832	-0.544967	0.584486
C68	C	0.343832	-0.294967	0.834486
C69	C	-0.300950	-1.091015	0.000118
C70	C	-0.050950	-0.841015	0.250118
C71	C	0.199050	-0.591015	0.500118
C72	C	0.449050	-0.341015	0.750118
C73	C	-0.406144	-1.045002	-0.084239
C74	C	-0.156144	-0.795002	0.165761
C75	C	0.093856	-0.545002	0.415761
C76	C	0.343856	-0.295002	0.665761
C77	C	-0.465867	-1.087820	0.000106
C78	C	-0.215867	-0.837820	0.250106
C79	C	0.034133	-0.587820	0.500106
C80	C	0.284133	-0.337820	0.750106
C81	C	-0.360680	-1.133811	0.084572
C82	C	-0.110680	-0.883811	0.334572
C83	C	0.139320	-0.633811	0.584572
C84	C	0.389320	-0.383811	0.834572
C85	C	-0.360650	-1.133834	-0.084228
C86	C	-0.110650	-0.883834	0.165772
C87	C	0.139350	-0.633834	0.415772
C88	C	0.389350	-0.383834	0.665772
C89	C	-0.421591	-1.176669	0.000177
C90	C	-0.171591	-0.926669	0.250177
C91	C	0.078409	-0.676669	0.500177
C92	C	0.328409	-0.426669	0.750177
C93	C	-0.205945	-1.092854	0.000126
C94	C	0.044055	-0.842854	0.250126
C95	C	0.294055	-0.592854	0.500126
C96	C	0.544055	-0.342854	0.750126
C97	C	-0.560871	-1.085988	0.000105
C98	C	-0.310871	-0.835988	0.250105
C99	C	-0.060871	-0.585988	0.500105
C100	C	0.189129	-0.335988	0.750105
C101	C	0.270148	-1.082696	0.000103
C102	C	0.520148	-0.832696	0.250103
C103	C	0.770148	-0.582696	0.500103
C104	C	1.020148	-0.332696	0.750103
C105	C	0.363397	-1.084521	0.000096
C106	C	0.613397	-0.834521	0.250096
C107	C	0.863397	-0.584521	0.500096
C108	C	1.113397	-0.334521	0.750096
C109	C	0.110710	-1.258028	0.000133
C110	C	0.360710	-1.008028	0.250133
C111	C	0.610710	-0.758028	0.500133
C112	C	0.860710	-0.508028	0.750133
C113	C	0.112521	-1.360406	0.000139
C114	C	0.362521	-1.110406	0.250139
C115	C	0.612521	-0.860406	0.500139
C116	C	0.862521	-0.610406	0.750139
C117	C	0.113990	-0.443548	0.000132
C118	C	0.363990	-0.193548	0.250132
C119	C	0.613990	0.056452	0.500132
C120	C	0.863990	0.306452	0.750132
C121	C	0.115842	-0.547853	0.000118
C122	C	0.365842	-0.297853	0.250118
C123	C	0.615842	-0.047853	0.500118
C124	C	0.865842	0.202147	0.750118
C125	C	0.117323	-0.630987	0.000107
C126	C	0.367323	-0.380987	0.250107
C127	C	0.617323	-0.130987	0.500107
C128	C	0.867323	0.119013	0.750107
C129	C	0.119175	-0.735298	0.000095
C130	C	0.369175	-0.485298	0.250095
C131	C	0.619175	-0.235298	0.500095
C132	C	0.869175	0.014702	0.750095
N133	N	0.116593	-1.089441	-0.243424
N134	N	0.366593	-0.839441	0.006576
N135	N	0.616593	-0.589441	0.256576
N136	N	0.866593	-0.339441	0.506576
C137	C	0.116594	-1.089426	0.663470
C138	C	0.366594	-0.839426	0.913470
C139	C	0.616594	-0.589426	1.163470
C140	C	0.866594	-0.339426	1.413470
C141	C	0.116592	-1.089418	0.546665
C142	C	0.366592	-0.839418	0.796665
C143	C	0.616592	-0.589418	1.046665
C144	C	0.866592	-0.339418	1.296665
C145	C	0.116587	-1.089416	0.453567
C146	C	0.366587	-0.839416	0.703567
C147	C	0.616587	-0.589416	0.953567
C148	C	0.866587	-0.339416	1.203567
C149	C	0.116584	-1.089406	0.336754
C150	C	0.366584	-0.839406	0.586754
C151	C	0.616584	-0.589406	0.836754
C152	C	0.866584	-0.339406	1.086754
H153	H	-0.312009	-0.928471	0.000177
H154	H	-0.062009	-0.678471	0.250177
H155	H	0.187991	-0.428471	0.500177
H156	H	0.437991	-0.178471	0.750177
C157	C	-0.333316	-1.184514	-0.180588
C158	C	-0.083316	-0.934514	0.069412
C159	C	0.166684	-0.684514	0.319412
C160	C	0.416684	-0.434514	0.569412
H161	H	-0.306693	-1.236997	-0.160317
H162	H	-0.056693	-0.986997	0.089683
H163	H	0.193307	-0.736997	0.339683
H164	H	0.443307	-0.486997	0.589683
H165	H	-0.294882	-1.143706	-0.219588
H166	H	-0.044882	-0.893706	0.030412
H167	H	0.205118	-0.643706	0.280412
H168	H	0.455118	-0.393706	0.530412
H169	H	-0.381501	-1.204105	-0.221305
H170	H	-0.131501	-0.954105	0.028695
H171	H	0.118499	-0.704105	0.278695
H172	H	0.368499	-0.454105	0.528695
C173	C	-0.466250	-1.276345	0.000252
C174	C	-0.216250	-1.026345	0.250252
C175	C	0.033750	-0.776345	0.500252
C176	C	0.283750	-0.526345	0.750252
H177	H	-0.450695	-1.307738	0.060248
H178	H	-0.200695	-1.057738	0.310248
H179	H	0.049305	-0.807738	0.560248
H180	H	0.299305	-0.557738	0.810248
H181	H	-0.449978	-1.308135	-0.059115
H182	H	-0.199978	-1.058135	0.190885
H183	H	0.050022	-0.808135	0.440885
H184	H	0.300022	-0.558135	0.690885
H185	H	-0.525638	-1.274651	-0.000308
H186	H	-0.275638	-1.024651	0.249692
H187	H	-0.025638	-0.774651	0.499692
H188	H	0.224362	-0.524651	0.749692
H189	H	-0.426273	-1.007429	-0.155584
H190	H	-0.176273	-0.757429	0.094416
H191	H	0.073727	-0.507429	0.344416
H192	H	0.323727	-0.257429	0.594416
C193	C	-0.433416	-0.994212	0.180845
C194	C	-0.183416	-0.744212	0.430845
C195	C	0.066584	-0.494212	0.680845
C196	C	0.316584	-0.244212	0.930845
H197	H	-0.407006	-0.932233	0.180737
H198	H	-0.157006	-0.682233	0.430737
H199	H	0.092994	-0.432233	0.680737
H200	H	0.342994	-0.182233	0.930737
H201	H	-0.417091	-1.025163	0.240767
H202	H	-0.167091	-0.775163	0.490767
H203	H	0.082909	-0.525163	0.740767
H204	H	0.332909	-0.275163	0.990767
H205	H	-0.492966	-0.993912	0.180463
H206	H	-0.242966	-0.743912	0.430463
H207	H	0.007034	-0.493912	0.680463
H208	H	0.257034	-0.243912	0.930463
C209	C	-0.333611	-1.184502	0.181058
C210	C	-0.083611	-0.934502	0.431058
C211	C	0.166389	-0.684502	0.681058
C212	C	0.416389	-0.434502	0.931058
H213	H	-0.274117	-1.185319	0.180493
H214	H	-0.024117	-0.935319	0.430493
H215	H	0.225883	-0.685319	0.680493
H216	H	0.475883	-0.435319	0.930493
H217	H	-0.360451	-1.246293	0.181314
H218	H	-0.110451	-0.996293	0.431314
H219	H	0.139549	-0.746293	0.681314
H220	H	0.389549	-0.496293	0.931314
H221	H	-0.349554	-1.153147	0.240898
H222	H	-0.099554	-0.903147	0.490898
H223	H	0.150446	-0.653147	0.740898
H224	H	0.400446	-0.403147	0.990898
