data_functionalizedCrystal
_audit_creation_method	'MofGen! by Chris Wilmer'
_symmetry_space_group_name_H-M	'P1'
_symmetry_Int_Tables_number	1
_symmetry_cell_setting	triclinic
loop_
_symmetry_equiv_pos_as_xyz
  x,y,z
_cell_length_a	10.685980
_cell_length_b	16.120531
_cell_length_c	10.686551
_cell_angle_alpha	91.295135
_cell_angle_beta	81.591741
_cell_angle_gamma	82.492862
loop_
_atom_site_label
_atom_site_type_symbol
_atom_site_fract_x
_atom_site_fract_y
_atom_site_fract_z
Zn1	Zn	1.982379	0.186870	-0.879971
Zn2	Zn	2.315713	0.520203	-0.546638
Zn3	Zn	2.649046	0.853537	-0.213304
Zn4	Zn	1.955119	0.337907	-0.678431
Zn5	Zn	2.288452	0.671240	-0.345097
Zn6	Zn	2.621786	1.004574	-0.011764
Zn7	Zn	1.752141	0.210075	-0.653083
Zn8	Zn	2.085475	0.543408	-0.319750
Zn9	Zn	2.418808	0.876741	0.013584
Zn10	Zn	1.759249	0.337826	-0.874335
Zn11	Zn	2.092582	0.671159	-0.541002
Zn12	Zn	2.425915	1.004493	-0.207669
O13	O	1.862222	0.268169	-0.771455
O14	O	2.195555	0.601503	-0.438122
O15	O	2.528889	0.934836	-0.104788
O16	O	2.157091	0.197228	-0.866203
O17	O	2.490424	0.530562	-0.532870
O18	O	2.823758	0.863895	-0.199536
O19	O	1.913811	0.330695	-0.498128
O20	O	2.247144	0.664028	-0.164795
O21	O	2.580477	0.997362	0.168539
O22	O	1.791117	0.090323	-0.674931
O23	O	2.124450	0.423656	-0.341597
O24	O	2.457784	0.756989	-0.008264
O25	O	2.137063	0.308194	-0.718132
O26	O	2.470396	0.641528	-0.384799
O27	O	2.803730	0.974861	-0.051465
O28	O	1.960272	0.073274	-0.841624
O29	O	2.293605	0.406608	-0.508291
O30	O	2.626938	0.739941	-0.174958
O31	O	1.764684	0.236777	-0.479505
O32	O	2.098017	0.570110	-0.146172
O33	O	2.431350	0.903444	0.187162
O34	O	1.574756	0.236698	-0.669466
O35	O	1.908089	0.570032	-0.336132
O36	O	2.241423	0.903365	-0.002799
O37	O	1.803230	0.308056	-1.052023
O38	O	2.136564	0.641390	-0.718690
O39	O	2.469897	0.974723	-0.385356
O40	O	1.579978	0.330557	-0.832019
O41	O	1.913311	0.663890	-0.498686
O42	O	2.246645	0.997223	-0.165352
O43	O	1.967163	0.197150	-1.056164
O44	O	2.300497	0.530483	-0.722830
O45	O	2.633830	0.863816	-0.389497
O46	O	1.920702	0.454570	-0.712667
O47	O	2.254036	0.787904	-0.379334
O48	O	2.587369	1.121237	-0.046001
O49	O	1.776797	0.454511	-0.856598
O50	O	2.110130	0.787844	-0.523264
O51	O	2.443464	1.121177	-0.189931
C52	C	1.531129	0.286137	-0.747381
C53	C	1.864462	0.619471	-0.414048
C54	C	2.197795	0.952804	-0.080714
C55	C	1.389486	0.293843	-0.737113
C56	C	1.722820	0.627176	-0.403780
C57	C	2.056153	0.960509	-0.070447
C58	C	1.846600	0.484789	-0.786802
C59	C	2.179933	0.818123	-0.453468
C60	C	2.513266	1.151456	-0.120135
C61	C	1.840036	0.577452	-0.793418
C62	C	2.173370	0.910785	-0.460084
C63	C	2.506703	1.244118	-0.126751
C64	C	1.828063	0.747105	-0.805523
C65	C	2.161396	1.080438	-0.472190
C66	C	2.494730	1.413771	-0.138857
C67	C	1.896423	0.788395	-0.737318
C68	C	2.229757	1.121728	-0.403985
C69	C	2.563090	1.455062	-0.070652
C70	C	1.889761	0.882796	-0.744054
C71	C	2.223095	1.216129	-0.410721
C72	C	2.556428	1.549463	-0.077387
C73	C	1.834723	0.652695	-0.798789
C74	C	2.168057	0.986029	-0.465456
C75	C	2.501390	1.319362	-0.132123
C76	C	2.194608	0.250132	-0.795624
C77	C	2.527942	0.583465	-0.462290
C78	C	2.861275	0.916799	-0.128957
C79	C	2.336252	0.242445	-0.805923
C80	C	2.669585	0.575779	-0.472590
C81	C	3.002918	0.909112	-0.139256
C82	C	1.889030	0.250006	-1.101255
C83	C	2.222364	0.583339	-0.767921
C84	C	2.555697	0.916672	-0.434588
C85	C	1.900455	0.242265	-1.241796
C86	C	2.233788	0.575598	-0.908462
C87	C	2.567121	0.908932	-0.575129
C88	C	1.877895	1.050704	-0.756052
C89	C	2.211228	1.384037	-0.422719
C90	C	2.544562	1.717371	-0.089385
C91	C	1.884453	0.958043	-0.749421
C92	C	2.217787	1.291376	-0.416087
C93	C	2.551120	1.624710	-0.082754
C94	C	1.835596	0.286199	-0.442939
C95	C	2.168929	0.619532	-0.109606
C96	C	2.502262	0.952865	0.223727
C97	C	1.824435	0.293691	-0.302400
C98	C	2.157769	0.627024	0.030933
C99	C	2.491102	0.960357	0.364266
H100	H	1.399036	0.192543	-0.872686
H101	H	1.732369	0.525876	-0.539353
H102	H	2.065702	0.859209	-0.206020
H103	H	1.974288	0.192316	-1.297435
H104	H	2.307621	0.525649	-0.964101
H105	H	2.640955	0.858982	-0.630768
H106	H	1.959951	0.752847	-0.673867
H107	H	2.293284	1.086181	-0.340533
H108	H	2.626617	1.419514	-0.007200
H109	H	1.326695	0.343744	-0.670337
H110	H	1.660028	0.677077	-0.337004
H111	H	1.993362	1.010410	-0.003671
Br112	Br	1.722182	0.806350	-0.911273
Br113	Br	2.055516	1.139683	-0.577939
Br114	Br	2.388849	1.473017	-0.244606
Br115	Br	1.701394	0.376952	-1.209682
Br116	Br	2.034728	0.710285	-0.876349
Br117	Br	2.368061	1.043619	-0.543016
