data_functionalizedCrystal
_audit_creation_method	'MofGen! by Chris Wilmer'
_symmetry_space_group_name_H-M	'P1'
_symmetry_Int_Tables_number	1
_symmetry_cell_setting	triclinic
loop_
_symmetry_equiv_pos_as_xyz
  x,y,z
_cell_length_a	13.897448
_cell_length_b	12.759395
_cell_length_c	12.759387
_cell_angle_alpha	90.022830
_cell_angle_beta	89.967288
_cell_angle_gamma	89.982954
loop_
_atom_site_label
_atom_site_type_symbol
_atom_site_fract_x
_atom_site_fract_y
_atom_site_fract_z
Zn1	Zn	-0.383981	-1.606247	-0.594056
Zn2	Zn	-0.545308	-1.606128	-0.418371
Zn3	Zn	-0.384027	-1.430545	-0.418386
Zn4	Zn	-0.545234	-1.430528	-0.594003
O5	O	-0.464637	-1.518362	-0.506204
O6	O	-0.405393	-1.753252	-0.570767
O7	O	-0.523965	-1.582794	-0.271352
O8	O	-0.249039	-1.453909	-0.441718
O9	O	-0.523920	-1.753165	-0.441692
O10	O	-0.249005	-1.582996	-0.570782
O11	O	-0.405472	-1.453794	-0.271363
O12	O	-0.405400	-1.283522	-0.441666
O13	O	-0.523792	-1.453880	-0.741031
O14	O	-0.523837	-1.283509	-0.570691
O15	O	-0.405320	-1.582980	-0.741070
O16	O	-0.680280	-1.582778	-0.441640
O17	O	-0.680225	-1.453765	-0.570676
C18	C	-0.464616	-1.245395	-0.506175
C19	C	-0.464630	-1.128618	-0.506187
C20	C	-0.588176	-0.909220	-0.640358
C21	C	-0.649933	-0.964105	-0.707423
C22	C	-0.649923	-1.073826	-0.707412
C23	C	-0.588153	-1.128666	-0.640327
C24	C	-0.526396	-1.073781	-0.573263
C25	C	-0.526410	-0.964057	-0.573283
C26	C	-0.402874	-1.073733	-0.439123
C27	C	-0.402877	-0.964012	-0.439137
C28	C	-0.341103	-1.128573	-0.372038
C29	C	-0.279340	-1.073688	-0.304977
C30	C	-0.279352	-0.963960	-0.304991
C31	C	-0.341120	-0.909127	-0.372073
C32	C	-0.715252	-1.518285	-0.506173
C33	C	-0.822466	-1.518349	-0.506196
C34	C	-1.018761	-1.518459	-0.506261
C35	C	-0.909528	-1.518395	-0.506228
C36	C	-0.213044	-1.518468	-0.506257
C37	C	-0.105830	-1.518513	-0.506280
C38	C	-0.464543	-1.518441	-0.780237
C39	C	-0.464503	-1.518475	-0.897014
C40	C	-0.464654	-0.792395	-0.506228
C41	C	-0.464647	-0.909172	-0.506222
C42	C	-0.341146	-1.652916	-0.897075
C43	C	-0.279453	-1.720151	-0.951966
C44	C	-0.279418	-1.720176	-1.061688
C45	C	-0.341080	-1.652958	-1.116521
C46	C	-0.402773	-1.585723	-1.061630
C47	C	-0.402803	-1.585707	-0.951905
C48	C	-0.526123	-1.451278	-1.061569
C49	C	-0.526165	-1.451256	-0.951847
C50	C	-0.587785	-1.384059	-1.116402
C51	C	-0.649484	-1.316828	-1.061511
C52	C	-0.649518	-1.316806	-0.951783
C53	C	-0.587857	-1.384021	-0.896956
C54	C	-0.464662	-1.518344	-0.233236
C55	C	-0.464431	-1.518513	-0.116460
H56	H	-0.588159	-1.218007	-0.640315
H57	H	-0.341104	-1.217914	-0.372029
C58	C	-0.588081	-1.383895	-0.777829
C59	C	-0.655325	-1.310651	-0.741488
C60	C	-0.655568	-1.310522	-0.631755
H61	H	-0.525898	-1.365724	-0.752878
H62	H	-0.604833	-1.451666	-0.752994
H63	H	-0.638567	-1.242895	-0.766313
H64	H	-0.717517	-1.328805	-0.766411
H65	H	-0.672320	-1.378293	-0.606919
H66	H	-0.593382	-1.292354	-0.606814
H67	H	-0.701198	-1.260835	-0.607083
C68	C	-0.340928	-1.653169	-1.235648
C69	C	-0.273715	-1.726448	-1.271983
C70	C	-0.273557	-1.726679	-1.381717
H71	H	-0.324195	-1.585444	-1.260586
H72	H	-0.403152	-1.671362	-1.260500
H73	H	-0.211504	-1.708249	-1.247141
H74	H	-0.290432	-1.794183	-1.247073
H75	H	-0.335781	-1.744872	-1.406569
H76	H	-0.256826	-1.658951	-1.406645
H77	H	-0.227961	-1.776404	-1.406384
H78	H	-0.700213	-1.118513	-0.762019
H79	H	-0.699680	-1.262098	-1.106165
H80	H	-0.587749	-1.384081	-1.205743
C81	C	-0.716616	-1.243776	-0.892379
C82	C	-0.770623	-1.184943	-0.963889
C83	C	-0.832457	-1.117670	-0.909210
H84	H	-0.679840	-1.197914	-0.849565
H85	H	-0.758717	-1.283920	-0.849605
H86	H	-0.728527	-1.144802	-1.006645
H87	H	-0.807418	-1.230777	-1.006705
H88	H	-0.874558	-1.157814	-0.866435
H89	H	-0.795674	-1.071815	-0.866398
H90	H	-0.869115	-1.077751	-0.957720
C91	C	-0.341014	-1.653014	-0.777948
C92	C	-0.273798	-1.726253	-0.741677
C93	C	-0.273640	-1.726364	-0.631943
H94	H	-0.403216	-1.671180	-0.752988
H95	H	-0.324280	-1.585239	-0.753075
H96	H	-0.290537	-1.794013	-0.766539
H97	H	-0.211586	-1.708103	-0.766608
H98	H	-0.256906	-1.658589	-0.607070
H99	H	-0.335845	-1.744528	-0.606993
H100	H	-0.228029	-1.776048	-0.607319
H101	H	-0.700227	-0.919443	-0.762039
H102	H	-0.588181	-0.819879	-0.640384
C103	C	-0.212319	-1.133416	-0.232263
C104	C	-0.225519	-1.241252	-0.246619
C105	C	-0.163786	-1.296310	-0.179663
H106	H	-0.226294	-1.115518	-0.161604
H107	H	-0.147506	-1.115524	-0.247780
H108	H	-0.290318	-1.259136	-0.231094
H109	H	-0.211538	-1.259181	-0.317263
H110	H	-0.098972	-1.278418	-0.195180
H111	H	-0.177765	-1.278403	-0.109009
H112	H	-0.172727	-1.369481	-0.189401
H113	H	-0.229063	-0.919279	-0.250378
H114	H	-0.341131	-0.819786	-0.372096
C115	C	-0.212351	-1.793001	-0.892485
C116	C	-0.116898	-1.770166	-0.919171
C117	C	-0.055057	-1.837242	-0.864390
H118	H	-0.226348	-1.863625	-0.910432
H119	H	-0.221143	-1.783351	-0.819267
H120	H	-0.108111	-1.779825	-0.992372
H121	H	-0.102871	-1.699554	-0.901221
H122	H	-0.063849	-1.827592	-0.791173
H123	H	-0.069063	-1.907862	-0.882342
H124	H	0.009715	-1.821752	-0.882482
H125	H	-0.229176	-1.774918	-1.106380
