data_functionalizedCrystal
_audit_creation_method	'MofGen! by Chris Wilmer'
_symmetry_space_group_name_H-M	'P1'
_symmetry_Int_Tables_number	1
_symmetry_cell_setting	triclinic
loop_
_symmetry_equiv_pos_as_xyz
  x,y,z
_cell_length_a	23.532409
_cell_length_b	17.038272
_cell_length_c	16.098546
_cell_angle_alpha	92.921539
_cell_angle_beta	87.278796
_cell_angle_gamma	86.980558
loop_
_atom_site_label
_atom_site_type_symbol
_atom_site_fract_x
_atom_site_fract_y
_atom_site_fract_z
O1	O	0.121240	1.039956	0.069213
O2	O	0.454573	1.373290	0.402547
O3	O	0.787907	1.706623	0.735880
O4	O	0.119277	0.812340	0.069223
O5	O	0.452610	1.145674	0.402556
O6	O	0.785943	1.479007	0.735889
O7	O	0.037687	0.933011	0.069219
O8	O	0.371021	1.266345	0.402552
O9	O	0.704354	1.599678	0.735885
O10	O	0.202829	0.919285	0.069217
O11	O	0.536162	1.252619	0.402551
O12	O	0.869496	1.585952	0.735884
O13	O	0.042453	0.925989	-0.069294
O14	O	0.375786	1.259323	0.264040
O15	O	0.709120	1.592656	0.597373
O16	O	0.124042	0.805318	-0.069290
O17	O	0.457376	1.138652	0.264043
O18	O	0.790709	1.471985	0.597377
O19	O	0.126006	1.032934	-0.069299
O20	O	0.459339	1.366268	0.264034
O21	O	0.792672	1.699601	0.597368
Zn22	Zn	0.125781	0.918011	-0.091286
Zn23	Zn	0.459114	1.251345	0.242047
Zn24	Zn	0.792447	1.584678	0.575380
Zn25	Zn	0.119502	0.927263	0.091210
Zn26	Zn	0.452835	1.260597	0.424543
Zn27	Zn	0.786168	1.593930	0.757877
O28	O	0.207595	0.912263	-0.069295
O29	O	0.540928	1.245597	0.264038
O30	O	0.874261	1.578930	0.597371
C31	C	0.018836	0.929151	-0.000035
C32	C	0.352169	1.262484	0.333298
C33	C	0.685502	1.595817	0.666631
C34	C	-0.044437	0.928099	-0.000029
C35	C	0.288897	1.261433	0.333304
C36	C	0.622230	1.594766	0.666637
C37	C	0.119874	0.779714	-0.000032
C38	C	0.453207	1.113048	0.333301
C39	C	0.786541	1.446381	0.666634
C40	C	0.114547	0.692961	-0.000029
C41	C	0.447881	1.026294	0.333305
C42	C	0.781214	1.359628	0.666638
C43	C	0.125408	1.065560	-0.000042
C44	C	0.458741	1.398894	0.333291
C45	C	0.792075	1.732227	0.666624
C46	C	0.130735	1.152314	-0.000040
C47	C	0.464068	1.485647	0.333293
C48	C	0.797401	1.818981	0.666626
C49	C	-0.320515	0.927455	0.075478
C50	C	0.012819	1.260788	0.408811
C51	C	0.346152	1.594121	0.742144
C52	C	-0.261063	0.928431	0.075478
C53	C	0.072270	1.261765	0.408811
C54	C	0.405603	1.595098	0.742145
O55	O	-0.232520	0.932219	0.139688
O56	O	0.100814	1.265552	0.473021
O57	O	0.434147	1.598886	0.806355
N58	N	-0.228738	0.925087	-0.000027
N59	N	0.104595	1.258420	0.333307
N60	N	0.437929	1.591754	0.666640
C61	C	-0.255867	0.920774	-0.075536
C62	C	0.077466	1.254107	0.257797
C63	C	0.410799	1.587440	0.591131
O64	O	-0.222913	0.918019	-0.139758
O65	O	0.110420	1.251353	0.193575
O66	O	0.443754	1.584686	0.526908
C67	C	-0.315318	0.919803	-0.075535
C68	C	0.018015	1.253136	0.257798
C69	C	0.351349	1.586469	0.591131
C70	C	-0.347640	0.923139	-0.000026
C71	C	-0.014307	1.256473	0.333307
C72	C	0.319027	1.589806	0.666641
C73	C	-0.352837	0.930792	0.150981
C74	C	-0.019503	1.264125	0.484314
C75	C	0.313830	1.597459	0.817648
C76	C	-0.412284	0.929814	0.150981
C77	C	-0.078951	1.263147	0.484314
C78	C	0.254383	1.596481	0.817647
C79	C	-0.439409	0.925499	0.075477
C80	C	-0.106076	1.258832	0.408810
C81	C	0.227257	1.592165	0.742144
C82	C	-0.407088	0.922161	-0.000026
C83	C	-0.073754	1.255495	0.333307
C84	C	0.259579	1.588828	0.666640
C85	C	-0.342447	0.915495	-0.151044
C86	C	-0.009113	1.248828	0.182289
C87	C	0.324220	1.582162	0.515623
C88	C	-0.401902	0.914525	-0.151037
C89	C	-0.068568	1.247858	0.182297
C90	C	0.264765	1.581192	0.515630
C91	C	-0.434224	0.917862	-0.075527
C92	C	-0.100891	1.251195	0.257806
C93	C	0.232443	1.584528	0.591139
C94	C	-0.493660	0.916868	-0.075531
C95	C	-0.160327	1.250201	0.257803
C96	C	0.173006	1.583535	0.591136
N97	N	-0.525986	0.920212	-0.000026
N98	N	-0.192652	1.253546	0.333307
N99	N	0.140681	1.586879	0.666641
C100	C	-0.498860	0.924528	0.075478
C101	C	-0.165527	1.257861	0.408811
C102	C	0.167806	1.591194	0.742144
C103	C	-0.131017	0.922814	-0.075532
C104	C	0.202316	1.256148	0.257801
C105	C	0.535650	1.589481	0.591135
C106	C	-0.071567	0.923780	-0.075534
C107	C	0.261766	1.257113	0.257800
C108	C	0.595100	1.590446	0.591133
C109	C	-0.076767	0.931439	0.075481
C110	C	0.256566	1.264772	0.408814
C111	C	0.589900	1.598105	0.742147
C112	C	-0.136218	0.930468	0.075482
C113	C	0.197115	1.263801	0.408815
C114	C	0.530449	1.597134	0.742148
C115	C	-0.163342	0.926159	-0.000027
C116	C	0.169991	1.259492	0.333306
C117	C	0.503324	1.592825	0.666639
C118	C	-0.623704	0.922473	0.075471
C119	C	-0.290370	1.255806	0.408804
C120	C	0.042963	1.589139	0.742138
C121	C	-0.683156	0.921491	0.075464
C122	C	-0.349823	1.254824	0.408797
C123	C	-0.016489	1.588158	0.742130
C124	C	-0.677951	0.913836	-0.075550
C125	C	-0.344618	1.247170	0.257783
C126	C	-0.011284	1.580503	0.591117
C127	C	-0.618504	0.914814	-0.075543
C128	C	-0.285170	1.248147	0.257790
C129	C	0.048163	1.581480	0.591123
C130	C	-0.591382	0.919135	-0.000026
C131	C	-0.258049	1.252468	0.333307
C132	C	0.075285	1.585802	0.666641
O133	O	-0.522243	0.913085	-0.139708
O134	O	-0.188910	1.246418	0.193625
O135	O	0.144424	1.579752	0.526959
O136	O	-0.531822	0.927292	0.139689
O137	O	-0.198488	1.260625	0.473023
O138	O	0.134845	1.593958	0.806356
C139	C	0.226446	0.916124	-0.000039
C140	C	0.559780	1.249457	0.333294
C141	C	0.893113	1.582791	0.666627
C142	C	0.289719	0.917176	-0.000040
C143	C	0.623052	1.250509	0.333293
C144	C	0.956385	1.583842	0.666627
N145	N	0.130066	0.911703	-0.215835
N146	N	0.463399	1.245036	0.117498
N147	N	0.796732	1.578370	0.450831
C148	C	0.081830	1.202790	-0.000037
C149	C	0.415163	1.536123	0.333296
C150	C	0.748497	1.869457	0.666630
C151	C	0.086838	1.284303	-0.000040
C152	C	0.420172	1.617637	0.333293
C153	C	0.753505	1.950970	0.666626
C154	C	0.140752	1.315339	-0.000041
C155	C	0.474085	1.648673	0.333293
C156	C	0.807418	1.982006	0.666626
C157	C	0.189660	1.264857	-0.000046
C158	C	0.522994	1.598190	0.333287
C159	C	0.856327	1.931523	0.666620
C160	C	0.184652	1.183345	-0.000049
C161	C	0.517985	1.516678	0.333284
C162	C	0.851318	1.850011	0.666617
C163	C	0.158447	1.560966	-0.000037
C164	C	0.491780	1.894300	0.333296
C165	C	0.825114	2.227633	0.666629
C166	C	0.163452	1.642485	-0.000032
C167	C	0.496785	1.975818	0.333301
C168	C	0.830119	2.309152	0.666635
C169	C	0.060630	1.661926	-0.000027
C170	C	0.393963	1.995259	0.333306
C171	C	0.727296	2.328593	0.666639
C172	C	0.055625	1.580412	-0.000025
C173	C	0.388959	1.913745	0.333308
C174	C	0.722292	2.247078	0.666641
C175	C	0.104534	1.529936	-0.000035
C176	C	0.437867	1.863269	0.333298
C177	C	0.771201	2.196603	0.666631
C178	C	0.145872	1.398659	-0.000041
C179	C	0.479206	1.731992	0.333292
C180	C	0.812539	2.065326	0.666626
C181	C	0.099413	1.446618	-0.000041
C182	C	0.432746	1.779951	0.333292
C183	C	0.766080	2.113284	0.666626
C184	C	0.149832	0.882348	-0.740653
C185	C	0.483166	1.215681	-0.407320
C186	C	0.816499	1.549015	-0.073987
C187	C	0.146846	0.886778	-0.653465
C188	C	0.480180	1.220111	-0.320131
C189	C	0.813513	1.553445	0.013202
C190	C	0.109243	0.942442	-0.609865
C191	C	0.442576	1.275775	-0.276532
C192	C	0.775909	1.609109	0.056801
C193	C	0.074619	0.993674	-0.653459
C194	C	0.407952	1.327007	-0.320126
C195	C	0.741285	1.660341	0.013207
C196	C	0.077602	0.989240	-0.740647
C197	C	0.410936	1.322573	-0.407313
C198	C	0.744269	1.655906	-0.073980
C199	C	0.098425	0.958501	-0.346616
C200	C	0.431759	1.291834	-0.013283
C201	C	0.765092	1.625168	0.320050
C202	C	0.095446	0.962933	-0.259423
C203	C	0.428779	1.296266	0.073910
C204	C	0.762112	1.629599	0.407244
C205	C	0.167673	0.856035	-0.259434
C206	C	0.501006	1.189369	0.073899
C207	C	0.834339	1.522702	0.407232
C208	C	0.170655	0.851609	-0.346623
C209	C	0.503989	1.184942	-0.013290
C210	C	0.837322	1.518276	0.320044
C211	C	0.136029	0.902838	-0.390210
C212	C	0.469363	1.236172	-0.056876
C213	C	0.802696	1.569505	0.276457
C214	C	0.106191	0.946973	-0.520745
C215	C	0.439524	1.280306	-0.187411
C216	C	0.772858	1.613640	0.145922
C217	C	0.139079	0.898303	-0.479329
C218	C	0.472412	1.231636	-0.145995
C219	C	0.805745	1.564970	0.187338
N220	N	0.115212	0.933578	0.215759
N221	N	0.448546	1.266911	0.549092
N222	N	0.781879	1.600244	0.882425
H223	H	-0.709470	0.924205	0.136955
H224	H	-0.376137	1.257539	0.470289
H225	H	-0.042804	1.590872	0.803622
F226	F	0.220837	1.675513	-0.000033
F227	F	0.554170	2.008847	0.333300
F228	F	0.887504	2.342180	0.666634
F229	F	0.042036	1.413585	-0.000045
F230	F	0.375370	1.746918	0.333288
F231	F	0.708703	2.080252	0.666622
H232	H	0.169693	0.852979	-0.514830
H233	H	0.503027	1.186312	-0.181496
H234	H	0.836360	1.519645	0.151837
H235	H	0.201275	0.806283	-0.382120
H236	H	0.534609	1.139617	-0.048787
H237	H	0.867942	1.472950	0.284547
F238	F	-0.594847	0.927072	0.155845
F239	F	-0.261514	1.260405	0.489178
F240	F	0.071820	1.593738	0.822511
F241	F	0.024447	1.169767	-0.000033
F242	F	0.357780	1.503101	0.333300
F243	F	0.691114	1.836434	0.666634
F244	F	-0.323977	0.935387	0.231350
F245	F	0.009356	1.268720	0.564683
F246	F	0.342690	1.602053	0.898016
F247	F	0.236703	1.129624	-0.000057
F248	F	0.570036	1.462957	0.333276
F249	F	0.903370	1.796290	0.666609
H250	H	0.075574	0.992297	-0.485239
H251	H	0.408908	1.325630	-0.151906
H252	H	0.742241	1.658964	0.181428
H253	H	-0.162531	0.933183	0.136968
H254	H	0.170803	1.266517	0.470301
H255	H	0.504136	1.599850	0.803635
H256	H	-0.045254	0.921048	-0.137021
H257	H	0.288079	1.254381	0.196312
H258	H	0.621412	1.587714	0.529646
H259	H	0.011723	1.555149	-0.000025
H260	H	0.345057	1.888482	0.333308
H261	H	0.678390	2.221815	0.666642
F262	F	0.203250	1.431697	-0.000034
F263	F	0.536583	1.765031	0.333300
F264	F	0.869916	2.098364	0.666633
H265	H	0.175036	0.845062	-0.617976
H266	H	0.508370	1.178396	-0.284642
H267	H	0.841703	1.511729	0.048691
H268	H	-0.316140	0.912786	-0.212532
H269	H	0.017193	1.246120	0.120801
H270	H	0.350526	1.579453	0.454135
H271	H	0.233558	1.290132	-0.000052
H272	H	0.566892	1.623466	0.333282
H273	H	0.900225	1.956799	0.666615
F274	F	-0.159879	0.918220	-0.155904
F275	F	0.173454	1.251553	0.177429
F276	F	0.506787	1.584887	0.510762
H277	H	-0.423983	0.911017	-0.212527
H278	H	-0.090650	1.244350	0.120807
H279	H	0.242684	1.577683	0.454140
F280	F	0.204521	0.801515	-0.213041
F281	F	0.537854	1.134849	0.120292
F282	F	0.871187	1.468182	0.453625
F283	F	0.210501	1.507257	-0.000039
F284	F	0.543834	1.840590	0.333294
F285	F	0.877167	2.173924	0.666627
H286	H	0.043998	1.038994	-0.617956
H287	H	0.377331	1.372328	-0.284623
H288	H	0.710665	1.705661	0.048711
H289	H	0.047015	1.325398	-0.000041
H290	H	0.380348	1.658731	0.333292
H291	H	0.713681	1.992065	0.666626
H292	H	0.180456	0.837024	-0.776146
H293	H	0.513789	1.170357	-0.442813
H294	H	0.847122	1.503691	-0.109480
H295	H	0.070232	1.000215	-0.382098
H296	H	0.403566	1.333549	-0.048764
H297	H	0.736899	1.666882	0.284569
H298	H	-0.438596	0.932537	0.212468
H299	H	-0.105263	1.265870	0.545801
H300	H	0.228071	1.599203	0.879135
H301	H	-0.054671	0.934950	0.136960
H302	H	0.278662	1.268283	0.470293
H303	H	0.611996	1.601617	0.803627
H304	H	-0.592184	0.912066	-0.137029
H305	H	-0.258851	1.245399	0.196304
H306	H	0.074483	1.578732	0.529637
H307	H	0.049410	1.030956	-0.776135
H308	H	0.382743	1.364289	-0.442802
H309	H	0.716077	1.697622	-0.109468
F310	F	-0.706830	0.909238	-0.155902
F311	F	-0.373497	1.242571	0.177431
F312	F	-0.040163	1.575904	0.510764
H313	H	0.064823	1.008264	-0.223929
H314	H	0.398156	1.341598	0.109405
H315	H	0.731489	1.674931	0.442738
F316	F	0.008581	1.715651	-0.000021
F317	F	0.341915	2.048984	0.333312
F318	F	0.675248	2.382317	0.666646
