data_functionalizedCrystal
_audit_creation_method	'MofGen! by Chris Wilmer'
_symmetry_space_group_name_H-M	'P1'
_symmetry_Int_Tables_number	1
_symmetry_cell_setting	triclinic
loop_
_symmetry_equiv_pos_as_xyz
  x,y,z
_cell_length_a	16.959455
_cell_length_b	18.215404
_cell_length_c	18.215399
_cell_angle_alpha	90.026844
_cell_angle_beta	89.975385
_cell_angle_gamma	89.979762
loop_
_atom_site_label
_atom_site_type_symbol
_atom_site_fract_x
_atom_site_fract_y
_atom_site_fract_z
Zn1	Zn	1.208400	0.293050	-0.416215
Zn2	Zn	1.208305	0.416122	-0.293151
Zn3	Zn	1.076218	0.293067	-0.293152
Zn4	Zn	1.076185	0.416073	-0.416166
O5	O	1.142277	0.354578	-0.354671
O6	O	1.318998	0.309389	-0.399911
O7	O	1.190758	0.399825	-0.190167
O8	O	1.093806	0.190081	-0.309498
O9	O	1.318929	0.399809	-0.309496
O10	O	1.190919	0.190068	-0.399912
O11	O	1.093714	0.309418	-0.190168
O12	O	0.965603	0.309371	-0.309450
O13	O	1.093750	0.399727	-0.519157
O14	O	0.965579	0.399743	-0.399828
O15	O	1.190887	0.309342	-0.519193
O16	O	1.190726	0.519099	-0.309449
O17	O	1.093658	0.519064	-0.399827
C18	C	0.936911	0.354554	-0.354634
C19	C	0.849054	0.354561	-0.354636
C20	C	0.477532	0.401613	-0.307569
C21	C	0.477626	0.307604	-0.401864
C22	C	0.560171	0.307592	-0.401846
C23	C	0.601401	0.354592	-0.354689
C24	C	0.560085	0.401604	-0.307551
C25	C	0.601494	0.260586	-0.448989
C26	C	0.684044	0.260573	-0.448974
C27	C	0.725276	0.307569	-0.401813
C28	C	0.683955	0.354583	-0.354672
C29	C	0.725185	0.401583	-0.307515
C30	C	0.683865	0.448593	-0.260370
C31	C	0.601317	0.448601	-0.260390
C32	C	0.807824	0.307562	-0.401792
C33	C	0.807738	0.401573	-0.307497
C34	C	1.142200	0.545784	-0.354648
C35	C	1.142239	0.627583	-0.354663
C36	C	1.192933	0.892635	-0.307714
C37	C	1.192900	0.815776	-0.307694
C38	C	1.091730	0.815780	-0.401723
C39	C	1.091760	0.892637	-0.401739
C40	C	1.142366	0.931063	-0.354736
C41	C	1.142303	0.777347	-0.354700
C42	C	1.142266	0.694013	-0.354678
C43	C	1.142402	1.014402	-0.354756
C44	C	1.348445	0.354603	-0.354709
C45	C	1.436302	0.354613	-0.354725
C46	C	1.142325	0.354527	-0.546624
C47	C	1.142346	0.354506	-0.628423
C48	C	1.142379	1.162625	-0.354722
C49	C	1.142430	1.080826	-0.354772
C50	C	1.192943	0.307398	-0.816637
C51	C	1.192953	0.307377	-0.893496
C52	C	1.091804	0.401499	-0.893447
C53	C	1.091791	0.401516	-0.816590
C54	C	1.142365	0.354467	-0.778187
C55	C	1.142388	0.354428	-0.931903
C56	C	1.142398	0.354406	-1.015237
C57	C	1.142355	0.354489	-0.694848
C58	C	1.142275	0.354575	-0.163465
C59	C	1.142407	0.354390	-0.081667
H60	H	0.841302	0.439845	-0.269094
H61	H	0.717445	0.486864	-0.221979
Br62	Br	1.261603	0.243501	-0.945676
Br63	Br	1.023138	0.465393	-0.764402
H64	H	0.841463	0.269288	-0.440179
H65	H	1.234139	0.923918	-0.269441
H66	H	0.567667	0.486873	-0.222006
H67	H	1.050579	0.923926	-0.440031
Br68	Br	1.023060	0.763627	-0.465516
Br69	Br	1.261528	0.763626	-0.243875
Br70	Br	0.421671	0.243832	-0.465869
H71	H	0.443886	0.439886	-0.269182
H72	H	0.567918	0.222326	-0.487386
H73	H	1.234122	0.269086	-0.785372
Br74	Br	1.023174	0.465351	-0.945570
Br75	Br	0.740114	0.196775	-0.512955
