data_functionalizedCrystal
_audit_creation_method	'MofGen! by Chris Wilmer'
_symmetry_space_group_name_H-M	'P1'
_symmetry_Int_Tables_number	1
_symmetry_cell_setting	triclinic
loop_
_symmetry_equiv_pos_as_xyz
  x,y,z
_cell_length_a	23.196402
_cell_length_b	14.395555
_cell_length_c	23.196401
_cell_angle_alpha	90.014661
_cell_angle_beta	60.008822
_cell_angle_gamma	59.999333
loop_
_atom_site_label
_atom_site_type_symbol
_atom_site_fract_x
_atom_site_fract_y
_atom_site_fract_z
Zr1	Zr	0.630963	0.894922	-0.075596
O2	O	0.751236	0.746560	-0.167648
O3	O	0.510696	0.940399	-0.047381
O4	O	0.630963	0.940358	-0.167646
O5	O	0.630967	0.746637	0.047489
O6	O	0.630957	1.093233	-0.167641
O7	O	0.630969	0.746601	-0.047382
O8	O	0.415821	1.093307	0.047492
O9	O	0.846103	0.746564	-0.167644
O10	O	0.560157	1.073888	-0.035339
O11	O	0.560161	0.959826	0.035458
O12	O	0.701760	0.959778	-0.106138
O13	O	0.701763	0.845716	-0.035341
Zr14	Zr	0.630951	1.138799	0.075722
Zr15	Zr	0.630954	1.138740	-0.075587
Zr16	Zr	0.630961	0.894980	0.075713
Zr17	Zr	0.782266	0.894928	-0.075589
Zr18	Zr	0.479649	1.138792	0.075715
O19	O	0.751219	1.093322	0.047506
O20	O	0.751222	1.093239	-0.167635
O21	O	0.751233	0.746642	0.047494
O22	O	0.510679	1.287161	0.167773
O23	O	0.510682	1.287078	-0.047369
O24	O	0.510692	0.940482	0.167761
O25	O	0.630947	1.287083	-0.047363
O26	O	0.630952	1.093363	0.167772
O27	O	0.630958	0.940487	0.167766
O28	O	0.630946	1.287120	0.047508
O29	O	0.846095	0.940367	-0.167637
O30	O	0.415819	1.093353	0.167762
O31	O	0.415811	1.287157	0.167769
O32	O	0.415813	1.287110	0.047499
O33	O	0.846101	0.746610	-0.047373
O34	O	0.846094	0.940414	-0.047366
O35	O	0.560155	1.073943	0.106264
O36	O	0.560151	1.188005	0.035466
O37	O	0.701754	1.073894	-0.035333
O38	O	0.701757	0.959832	0.035465
C39	C	0.441701	1.016852	0.000055
C40	C	0.377469	1.016849	0.000052
C41	C	0.347297	1.076380	-0.036906
C42	C	0.286936	1.076391	-0.036901
C43	C	0.256761	1.016849	0.000054
C44	C	0.286937	0.957315	0.037020
C45	C	0.347291	0.957315	0.037019
C46	C	0.194736	0.917093	-0.005224
C47	C	0.134386	0.917090	-0.005228
C48	C	0.070606	1.016850	0.000061
C49	C	0.067190	1.116613	0.005340
C50	C	0.127544	1.116613	0.005339
C51	C	0.191317	1.016843	0.000059
C52	C	-0.025017	1.076399	-0.036893
C53	C	-0.085383	1.076413	-0.036882
C54	C	-0.085375	0.957325	0.037034
C55	C	-0.025016	0.957322	0.037028
C56	C	0.005162	1.016856	0.000061
C57	C	0.630969	0.711880	0.000052
C58	C	0.630974	0.608372	0.000048
C59	C	0.708167	0.423667	-0.038541
C60	C	0.669589	0.516721	0.028022
C61	C	0.669571	0.516677	-0.066502
C62	C	0.592362	0.517039	0.066679
C63	C	0.592355	0.516981	-0.027893
C64	C	0.553721	0.610053	0.038710
C65	C	0.820213	1.016869	0.000071
C66	C	0.884445	1.016871	0.000074
C67	C	0.630960	1.016787	-0.189202
C68	C	0.630961	1.016762	-0.253436
C69	C	0.630945	1.321840	0.000073
C70	C	0.630941	1.425348	0.000077
C71	C	0.704874	0.957204	-0.320566
C72	C	0.704875	0.957232	-0.380921
C73	C	0.630959	1.016805	-0.374143
C74	C	0.557037	1.076377	-0.307001
C75	C	0.557038	1.076355	-0.246648
C76	C	0.574331	1.008343	-0.441462
C77	C	0.574334	1.008356	-0.501816
C78	C	0.630953	1.016877	-0.560290
C79	C	0.687584	1.025362	-0.558410
C80	C	0.687585	1.025341	-0.498057
C81	C	0.630950	1.016835	-0.439581
C82	C	0.704872	0.957346	-0.692866
C83	C	0.704870	0.957383	-0.753221
C84	C	0.557029	1.076520	-0.679299
C85	C	0.557033	1.076491	-0.618946
C86	C	0.630957	1.016898	-0.625735
C87	C	0.630954	1.016933	0.189327
C88	C	0.630953	1.016958	0.253562
C89	C	0.441689	1.321832	0.000065
C90	C	0.377453	1.425337	0.000066
C91	C	0.441698	1.016925	0.189319
C92	C	0.377465	1.016947	0.253551
C93	C	0.441686	1.321905	0.189330
C94	C	0.377449	1.425434	0.253565
C95	C	0.820229	0.711815	-0.189204
C96	C	0.884466	0.608286	-0.253440
C97	C	0.820226	0.711888	0.000060
C98	C	0.884462	0.608384	0.000059
C99	C	0.820216	1.016796	-0.189193
C100	C	0.884449	1.016774	-0.253425
C101	C	0.347290	1.414376	-0.036899
C102	C	0.286942	1.511620	-0.036913
C103	C	0.256753	1.619824	0.000044
C104	C	0.286922	1.630783	0.037011
C105	C	0.347274	1.533540	0.037020
C106	C	0.347298	1.076525	0.320681
C107	C	0.286953	1.076541	0.381039
C108	C	0.256772	1.016985	0.374266
C109	C	0.286945	0.957400	0.307129
C110	C	0.347293	0.957378	0.246772
C111	C	0.347281	1.533602	0.246775
C112	C	0.286932	1.630889	0.307126
C113	C	0.256748	1.620004	0.374265
C114	C	0.286922	1.511825	0.381054
C115	C	0.347274	1.414541	0.320704
C116	C	0.914641	0.500118	-0.246650
C117	C	0.975009	0.402832	-0.307000
C118	C	1.005196	0.413716	-0.374140
C119	C	0.975018	0.521895	-0.380928
C120	C	0.914655	0.619179	-0.320578
C121	C	0.914631	0.619344	0.037019
C122	C	0.974996	0.522100	0.037015
C123	C	1.005186	0.413896	0.000056
C124	C	0.975014	0.402937	-0.036908
C125	C	0.914655	0.500181	-0.036908
C126	C	0.914611	1.076341	-0.246630
C127	C	0.974956	1.076343	-0.306976
C128	C	1.005143	1.016770	-0.374118
C129	C	0.974976	0.957200	-0.380913
C130	C	0.914627	0.957206	-0.320567
H131	H	0.371858	0.908834	0.067115
H132	H	0.371825	1.542480	0.067126
H133	H	0.262334	1.718895	0.067100
H134	H	0.371864	1.125022	0.326209
O135	O	0.007526	1.140620	-0.076758
H136	H	0.074101	1.080476	-0.117615
H137	H	0.262393	1.125066	0.435699
H138	H	0.999551	0.531045	0.067118
O139	O	0.254402	1.499789	-0.076779
H140	H	0.285526	1.408209	-0.102462
O141	O	0.191668	1.017034	0.439368
H142	H	0.175756	1.068487	0.487183
H143	H	1.054335	0.334724	0.000062
H144	H	0.773445	0.343873	-0.071132
O145	O	0.379794	1.297873	0.328031
H146	H	0.348652	1.306661	0.384857
H147	H	0.207605	1.699228	0.423400
O148	O	0.882096	0.892956	-0.327899
H149	H	0.893680	0.827140	-0.302173
O150	O	0.254353	1.500091	0.453470
H151	H	0.207309	1.585918	0.494288
H152	H	0.371848	1.542486	0.192112
O153	O	0.477320	1.140618	-0.174232
H154	H	0.473780	1.080501	-0.144973
O155	O	0.254361	0.893205	0.299840
H156	H	0.265928	0.827404	0.325578
O157	O	-0.117890	0.893077	0.076886
H158	H	-0.184469	0.953193	0.117741
H159	H	0.124759	1.197844	0.009639
O160	O	0.379716	0.893299	0.174367
H161	H	0.348541	0.851967	0.179805
O162	O	0.882093	0.488365	-0.174239
H163	H	0.913233	0.396798	-0.179668
H164	H	0.999570	0.314757	-0.301459
O165	O	1.007540	0.892979	-0.453341
H166	H	0.956881	0.927407	-0.459488
O167	O	0.191661	1.724700	0.000028
H168	H	0.175736	1.801789	0.031930
H169	H	0.765061	0.908888	-0.807883
O170	O	0.712811	0.517835	-0.141065
H171	H	0.734843	0.440586	-0.178238
H172	H	0.765068	0.908683	-0.326100
H173	H	1.054347	0.334492	-0.423274
H174	H	0.702229	0.517643	0.051670
H175	H	0.262370	1.718964	0.301586
O176	O	0.379853	1.297677	-0.076773
H177	H	0.329195	1.287785	-0.055433
O178	O	1.007583	0.533618	-0.453347
H179	H	0.976468	0.625177	-0.447939
O180	O	0.513257	0.999197	-0.503840
H181	H	0.522776	1.000626	-0.555634
H182	H	0.371864	1.124860	-0.067005
O183	O	0.477306	1.140816	-0.671982
H184	H	0.425907	1.182246	-0.615159
O185	O	0.882099	0.735847	-0.327905
H186	H	0.913229	0.727059	-0.384732
H187	H	0.890054	0.707441	0.067120
O188	O	1.007580	0.286229	-0.076770
H189	H	1.054613	0.220462	-0.070550
H190	H	0.890093	0.491240	-0.067003
H191	H	0.890042	1.124852	-0.191965
O192	O	0.549165	0.516022	0.141283
H193	H	0.549520	0.438636	0.140707
O194	O	1.007491	1.140590	-0.299641
H195	H	0.976367	1.181996	-0.242814
H196	H	-0.109953	1.124897	-0.066975
H197	H	-0.000447	0.908841	0.067120
H198	H	1.054283	1.016774	-0.423250
H199	H	0.246675	0.835845	-0.009546
O200	O	0.254389	1.140590	-0.076771
H201	H	0.285518	1.181979	-0.102481
H202	H	0.137176	0.835856	-0.009530
O203	O	-0.001598	1.224227	0.011052
H204	H	-0.043001	1.207477	0.010176
H205	H	0.262364	0.908836	0.067109
H206	H	0.559746	0.516014	-0.051557
O207	O	0.467173	0.715556	0.082011
H208	H	0.457072	0.767127	0.125954
O209	O	0.784595	0.892993	-0.453340
H210	H	0.820035	0.801448	-0.459501
O211	O	0.748648	1.034516	-0.496018
H212	H	0.788016	1.040457	-0.546812
H213	H	0.765065	0.908823	-0.698395
O214	O	0.748655	1.034564	-0.621469
H215	H	0.739135	1.033171	-0.663750
O216	O	0.477318	1.140719	-0.546533
H217	H	0.441874	1.106310	-0.540404
O218	O	0.513264	0.999143	-0.378395
H219	H	0.473897	0.993226	-0.389845
H220	H	0.496854	1.124882	-0.301485
