data_functionalizedCrystal
_audit_creation_method	'MofGen! by Chris Wilmer'
_symmetry_space_group_name_H-M	'P1'
_symmetry_Int_Tables_number	1
_symmetry_cell_setting	triclinic
loop_
_symmetry_equiv_pos_as_xyz
  x,y,z
_cell_length_a	13.033286
_cell_length_b	13.032868
_cell_length_c	18.215399
_cell_angle_alpha	97.152085
_cell_angle_beta	82.825818
_cell_angle_gamma	90.854779
loop_
_atom_site_label
_atom_site_type_symbol
_atom_site_fract_x
_atom_site_fract_y
_atom_site_fract_z
Zn1	Zn	1.520061	0.608901	0.334282
Zn2	Zn	1.498080	0.780875	0.228560
Zn3	Zn	1.348092	0.587116	0.224698
Zn4	Zn	1.326203	0.759010	0.365038
O5	O	1.423109	0.683975	0.288144
O6	O	1.661046	0.649981	0.309002
O7	O	1.478145	0.755206	0.125070
O8	O	1.389265	0.446096	0.224747
O9	O	1.644897	0.776330	0.231329
O10	O	1.515609	0.462101	0.305258
O11	O	1.367950	0.612852	0.122233
O12	O	1.201288	0.591651	0.254570
O13	O	1.351957	0.739064	0.463936
O14	O	1.185206	0.717940	0.357677
O15	O	1.494384	0.628779	0.441340
O16	O	1.456920	0.921885	0.261151
O17	O	1.330643	0.905820	0.361421
C18	C	1.155935	0.650059	0.309042
C19	C	1.041634	0.635575	0.318002
C20	C	1.389049	0.951170	0.315056
C21	C	1.374572	1.065489	0.326587
C22	C	0.982697	0.691535	0.283486
C23	C	0.864560	0.676566	0.292746
C24	C	1.430652	1.124377	0.282145
C25	C	1.415691	1.242532	0.294061
C26	C	1.691326	0.718024	0.267166
C27	C	1.805625	0.732534	0.258226
C28	C	1.423181	0.683912	0.480085
C29	C	1.423211	0.683886	0.561879
C30	C	1.457297	1.415736	0.261136
C31	C	1.471779	1.301418	0.249613
C32	C	1.423106	0.683971	0.096938
C33	C	1.423312	0.683734	0.015100
C34	C	1.497405	0.626402	0.738301
C35	C	1.497421	0.626373	0.815155
C36	C	1.349111	0.741219	0.838674
C37	C	1.349091	0.741241	0.761820
C38	C	1.423244	0.683835	0.711635
C39	C	1.423280	0.683785	0.865344
C40	C	1.423296	0.683754	0.948673
C41	C	1.423226	0.683863	0.628300
H42	H	1.019698	0.750530	0.247084
H43	H	1.288741	0.787960	0.879544
H44	H	1.557808	0.579604	0.836862
F45	F	1.576322	0.565302	0.684892
H46	H	1.356602	1.279585	0.340937
H47	H	0.827562	0.617574	0.329157
F48	F	0.853975	0.809653	0.210641
H49	H	1.004632	0.576587	0.354411
F50	F	1.507894	1.075947	0.220884
F51	F	1.549024	1.252994	0.188348
F52	F	1.297341	1.113921	0.387854
H53	H	1.288694	0.788008	0.740111
