data_functionalizedCrystal
_audit_creation_method	'MofGen! by Chris Wilmer'
_symmetry_space_group_name_H-M	'P1'
_symmetry_Int_Tables_number	1
_symmetry_cell_setting	triclinic
loop_
_symmetry_equiv_pos_as_xyz
  x,y,z
_cell_length_a	15.021413
_cell_length_b	15.944551
_cell_length_c	15.944551
_cell_angle_alpha	96.501262
_cell_angle_beta	89.996935
_cell_angle_gamma	89.997174
loop_
_atom_site_label
_atom_site_type_symbol
_atom_site_fract_x
_atom_site_fract_y
_atom_site_fract_z
O1	O	0.073941	-1.114529	0.108321
O2	O	0.073964	-0.869979	0.121677
O3	O	0.073944	-0.998932	-0.007276
O4	O	0.073961	-0.985576	0.237274
O5	O	-0.074121	-0.998912	-0.007257
O6	O	-0.074101	-0.869959	0.121695
O7	O	-0.074123	-1.114508	0.108339
Zn8	Zn	-0.097620	-0.992230	0.115020
Zn9	Zn	0.097461	-0.992257	0.114996
O10	O	-0.074103	-0.985555	0.237292
C11	C	-0.000066	-0.838675	0.121132
C12	C	-0.000057	-0.745429	0.119470
N13	N	-0.230758	-0.992218	0.115036
C14	C	-0.000089	-0.998367	-0.038561
C15	C	-0.000089	-0.996705	-0.131807
C16	C	-0.470432	-0.932581	0.174636
C17	C	-0.529772	-1.008481	0.190943
C18	C	-0.412365	-0.992239	0.115015
C19	C	-0.529766	-0.916360	0.098727
C20	C	-0.587789	-0.992253	0.114997
C21	C	-0.470398	-1.068178	0.131360
C22	C	-0.470387	-0.976006	0.039111
C23	C	-0.529701	-1.051962	0.055386
C24	C	-0.311307	-0.992230	0.115028
C25	C	-0.688844	-0.992271	0.114984
N26	N	0.230598	-0.992276	0.114973
C27	C	-0.000092	-1.145813	0.108885
C28	C	-0.000094	-1.239059	0.110547
C29	C	-0.000081	-0.530572	0.035565
C30	C	0.072926	-0.469562	0.074518
C31	C	-0.000068	-0.574703	0.116462
C32	C	-0.073054	-0.469564	0.074556
C33	C	-0.000083	-0.409790	0.113551
C34	C	0.072998	-0.514921	0.155438
C35	C	-0.073047	-0.514930	0.155464
C36	C	-0.000023	-0.453937	0.194476
C37	C	-0.000059	-0.669705	0.118137
C38	C	-0.000085	-0.314789	0.111883
C39	C	-0.000069	-0.912801	-0.346663
C40	C	-0.073077	-0.951753	-0.407672
C41	C	-0.000082	-0.993698	-0.302533
C42	C	0.072903	-0.951792	-0.407673
C43	C	-0.000071	-0.990787	-0.467445
C44	C	-0.073150	-1.032672	-0.362313
C45	C	0.072895	-1.032700	-0.362308
C46	C	-0.000131	-1.071711	-0.423298
C47	C	-0.000089	-0.995372	-0.207530
C48	C	-0.000070	-0.989119	-0.562446
C49	C	-0.000069	-0.986120	0.268577
C50	C	-0.000063	-0.987782	0.361823
H51	H	-0.444409	-0.882181	0.225096
H52	H	-0.444283	-0.962240	-0.025051
N53	N	0.150327	-1.075595	-0.337070
N54	N	0.226077	-1.048033	-0.351355
H55	H	0.280771	-1.078321	-0.333530
H56	H	0.000023	-0.420779	0.261683
H57	H	-0.555561	-1.102474	0.004956
H58	H	-0.555847	-0.852184	0.084959
H59	H	0.000005	-0.563905	-0.031573
H60	H	0.134642	-0.449461	0.040295
N61	N	-0.437815	-1.148703	0.148722
N62	N	-0.355863	-1.161683	0.151559
H63	H	-0.332848	-1.218552	0.163822
N64	N	0.150497	-0.540010	0.198337
N65	N	0.163020	-0.616159	0.206517
H66	H	0.217749	-0.633881	0.236819
N67	N	-0.150505	-0.908826	-0.432884
N68	N	-0.205451	-0.878898	-0.378677
H69	H	-0.260133	-0.848575	-0.396479
H70	H	-0.134767	-0.535052	0.189659
N71	N	-0.150474	-0.444342	0.031625
N72	N	-0.142366	-0.406883	-0.032707
H73	H	-0.197039	-0.389070	-0.063033
H74	H	0.134630	-0.917574	-0.427758
H75	H	-0.000136	-0.845652	-0.313356
H76	H	-0.555856	-1.022224	0.255126
H77	H	-0.134941	-1.066851	-0.342314
H78	H	-0.000178	-1.138919	-0.456457
