data_functionalizedCrystal
_audit_creation_method	'MofGen! by Chris Wilmer'
_symmetry_space_group_name_H-M	'P1'
_symmetry_Int_Tables_number	1
_symmetry_cell_setting	triclinic
loop_
_symmetry_equiv_pos_as_xyz
  x,y,z
_cell_length_a	15.944551
_cell_length_b	15.944551
_cell_length_c	15.021413
_cell_angle_alpha	90.003065
_cell_angle_beta	89.997174
_cell_angle_gamma	83.498738
loop_
_atom_site_label
_atom_site_type_symbol
_atom_site_fract_x
_atom_site_fract_y
_atom_site_fract_z
O1	O	1.114529	0.108321	-0.073941
O2	O	0.869979	0.121677	-0.073964
O3	O	0.998932	-0.007276	-0.073944
O4	O	0.985576	0.237274	-0.073961
O5	O	0.998912	-0.007257	0.074121
O6	O	0.869959	0.121695	0.074101
O7	O	1.114508	0.108339	0.074123
Zn8	Zn	0.992230	0.115020	0.097620
Zn9	Zn	0.992257	0.114996	-0.097461
O10	O	0.985555	0.237292	0.074103
C11	C	0.838675	0.121132	0.000066
C12	C	0.745429	0.119470	0.000057
C13	C	0.530572	0.035565	0.000081
C14	C	0.469562	0.074518	-0.072926
C15	C	0.574703	0.116462	0.000068
C16	C	0.469564	0.074556	0.073054
C17	C	0.409790	0.113551	0.000083
C18	C	0.514921	0.155438	-0.072998
C19	C	0.514930	0.155464	0.073047
C20	C	0.453937	0.194476	0.000023
C21	C	0.669705	0.118137	0.000059
C22	C	0.314789	0.111883	0.000085
C23	C	0.998367	-0.038561	0.000089
C24	C	0.996705	-0.131807	0.000089
C25	C	0.912801	-0.346663	0.000069
C26	C	0.951753	-0.407672	0.073077
C27	C	0.993698	-0.302533	0.000082
C28	C	0.951792	-0.407673	-0.072903
C29	C	0.990787	-0.467445	0.000071
C30	C	1.032672	-0.362313	0.073150
C31	C	1.032700	-0.362308	-0.072895
C32	C	1.071711	-0.423298	0.000131
C33	C	0.995372	-0.207530	0.000089
C34	C	0.989119	-0.562446	0.000070
C35	C	1.145813	0.108885	0.000092
C36	C	1.239059	0.110547	0.000094
C37	C	0.986120	0.268577	0.000069
C38	C	0.987782	0.361823	0.000063
N39	N	0.992218	0.115036	0.230758
N40	N	0.992276	0.114973	-0.230598
C41	C	0.932581	0.174636	0.470432
C42	C	1.008481	0.190943	0.529772
C43	C	0.992239	0.115015	0.412365
C44	C	0.916360	0.098727	0.529766
C45	C	0.992253	0.114997	0.587789
C46	C	1.068178	0.131360	0.470398
C47	C	0.976006	0.039111	0.470387
C48	C	1.051962	0.055386	0.529701
C49	C	0.992230	0.115028	0.311307
C50	C	0.992271	0.114984	0.688844
H51	H	0.449470	0.040332	0.134773
H52	H	0.882181	0.225096	0.444409
H53	H	0.852184	0.084959	0.555847
N54	N	0.442920	0.029192	-0.154673
H55	H	0.460226	0.059141	-0.209814
H56	H	0.471085	-0.030822	-0.154536
N57	N	1.077997	-0.335653	-0.154650
H58	H	1.038537	-0.294734	-0.190589
H59	H	1.128833	-0.307473	-0.135979
H60	H	0.845652	-0.313356	0.000136
N61	N	0.541602	0.200753	0.154799
H62	H	0.569821	0.251588	0.136197
H63	H	0.490297	0.219666	0.192211
H64	H	1.132368	0.145206	0.444430
N65	N	0.410005	0.283494	-0.000040
H66	H	0.346864	0.281889	0.000484
H67	H	0.427296	0.314258	0.054565
N68	N	1.026693	0.275955	0.564326
H69	H	0.981593	0.320963	0.542772
H70	H	1.027127	0.275072	0.631553
N71	N	0.906469	-0.434287	-0.154663
H72	H	0.946237	-0.474341	-0.191242
H73	H	0.856264	-0.463445	-0.135972
N74	N	0.574693	-0.053378	-0.000015
H75	H	0.637814	-0.051635	0.000546
H76	H	0.557444	-0.084212	0.054559
H77	H	0.962240	-0.025051	0.444283
N78	N	1.118863	-0.011416	0.563965
H79	H	1.176128	0.000992	0.542252
H80	H	1.118102	-0.011355	0.631194
N81	N	0.906430	-0.434292	0.154836
H82	H	0.846413	-0.406129	0.154780
H83	H	0.906187	-0.497605	0.154486
H84	H	1.066851	-0.342314	0.134941
N85	N	0.541392	0.200713	-0.154852
H86	H	0.570104	0.251265	-0.136346
H87	H	0.581807	0.161030	-0.191123
N88	N	1.160732	-0.467226	0.000185
H89	H	1.191162	-0.450746	0.055353
H90	H	1.159060	-0.530354	-0.000373
