data_functionalizedCrystal
_audit_creation_method	'MofGen! by Chris Wilmer'
_symmetry_space_group_name_H-M	'P1'
_symmetry_Int_Tables_number	1
_symmetry_cell_setting	triclinic
loop_
_symmetry_equiv_pos_as_xyz
  x,y,z
_cell_length_a	16.109301
_cell_length_b	15.995350
_cell_length_c	14.586319
_cell_angle_alpha	89.998440
_cell_angle_beta	89.999213
_cell_angle_gamma	83.476928
loop_
_atom_site_label
_atom_site_type_symbol
_atom_site_fract_x
_atom_site_fract_y
_atom_site_fract_z
O1	O	1.103160	0.107624	-0.076178
O2	O	1.603160	0.607624	0.423822
O3	O	0.861101	0.121018	-0.076192
O4	O	1.361101	0.621018	0.423808
O5	O	0.988747	-0.007569	-0.076184
O6	O	1.488747	0.492431	0.423816
O7	O	0.975514	0.236210	-0.076186
O8	O	1.475514	0.736210	0.423814
O9	O	0.988739	-0.007570	0.076297
O10	O	1.488739	0.492430	0.576297
O11	O	0.861093	0.121016	0.076289
O12	O	1.361093	0.621016	0.576289
O13	O	1.103151	0.107622	0.076303
O14	O	1.603151	0.607622	0.576303
Cu15	Cu	0.982121	0.114319	0.090219
Cu16	Cu	1.482121	0.614319	0.590219
Cu17	Cu	0.982131	0.114321	-0.090107
Cu18	Cu	1.482131	0.614321	0.409893
O19	O	0.975505	0.236208	0.076295
O20	O	1.475505	0.736208	0.576295
C21	C	0.830122	0.120474	0.000047
C22	C	1.330122	0.620474	0.500047
C23	C	0.737826	0.118848	0.000041
C24	C	1.237826	0.618848	0.500041
C25	C	0.988196	-0.038764	0.000055
C26	C	1.488196	0.461236	0.500055
C27	C	0.986556	-0.131714	0.000050
C28	C	1.486556	0.368286	0.500050
C29	C	0.515573	0.191366	0.000051
C30	C	1.015573	0.691366	0.500051
C31	C	0.428853	0.189831	0.000057
C32	C	0.928853	0.689831	0.500057
C33	C	0.448686	0.037268	0.000055
C34	C	0.948686	0.537268	0.500055
C35	C	0.535405	0.038804	0.000055
C36	C	1.035405	0.538804	0.500055
C37	C	0.568846	0.115855	0.000049
C38	C	1.068846	0.615855	0.500049
C39	C	0.395406	0.112785	0.000054
C40	C	0.895406	0.612785	0.500054
C41	C	0.301380	0.111120	0.000061
C42	C	0.801380	0.611120	0.500061
C43	C	0.662879	0.117520	0.000044
C44	C	1.162879	0.617520	0.500044
C45	C	0.980665	-0.469460	0.000053
C46	C	1.480665	0.030540	0.500053
C47	C	0.889758	-0.422001	-0.000295
C48	C	1.389758	0.077999	0.499705
C49	C	0.891399	-0.325311	0.000049
C50	C	1.391399	0.174689	0.500049
C51	C	0.983587	-0.301900	0.000051
C52	C	1.483587	0.198100	0.500051
C53	C	1.028421	-0.342991	0.087126
C54	C	1.528421	0.157009	0.587126
C55	C	1.026137	-0.439626	0.087198
C56	C	1.526137	0.060374	0.587198
C57	C	1.028025	-0.439983	-0.086201
C58	C	1.528025	0.060017	0.413799
C59	C	1.028003	-0.343037	-0.087351
C60	C	1.528003	0.156963	0.412649
C61	C	0.985243	-0.207203	0.000053
C62	C	1.485243	0.292797	0.500053
C63	C	0.979012	-0.564157	0.000057
C64	C	1.479012	-0.064157	0.500057
C65	C	1.134130	0.108166	0.000062
C66	C	1.634130	0.608166	0.500062
C67	C	1.226426	0.109792	0.000062
C68	C	1.726426	0.609792	0.500062
C69	C	0.976056	0.267404	0.000054
C70	C	1.476056	0.767404	0.500054
C71	C	0.977697	0.360354	0.000053
C72	C	1.477697	0.860354	0.500053
N73	N	0.982120	0.114317	0.217050
N74	N	1.482120	0.614317	0.717050
N75	N	0.982139	0.114317	-0.216939
N76	N	1.482139	0.614317	0.283061
C77	C	1.038660	0.057398	0.452061
C78	C	1.538660	0.557398	0.952061
C79	C	1.038662	0.057396	0.548042
C80	C	1.538662	0.557396	1.048042
C81	C	0.925593	0.171238	0.548044
C82	C	1.425593	0.671238	1.048044
C83	C	0.925587	0.171236	0.452064
C84	C	1.425587	0.671236	0.952064
C85	C	0.982125	0.114316	0.404075
C86	C	1.482125	0.614316	0.904075
C87	C	0.982134	0.114317	0.596036
C88	C	1.482134	0.614317	1.096036
C89	C	0.982136	0.114315	0.700103
C90	C	1.482136	0.614315	1.200103
C91	C	0.982122	0.114317	0.300001
C92	C	1.482122	0.614317	0.800001
H93	H	0.385481	0.251320	0.000061
H94	H	0.885481	0.751320	0.500061
H95	H	0.578782	-0.022690	0.000056
H96	H	1.078782	0.477310	0.500056
C97	C	0.863414	0.233852	0.600835
C98	C	1.363414	0.733852	1.100835
H99	H	0.871519	0.225709	0.664870
H100	H	1.371519	0.725709	1.164870
H101	H	0.807927	0.224746	0.585114
H102	H	1.307927	0.724746	1.085114
H103	H	0.872449	0.289737	0.585098
H104	H	1.372449	0.789737	1.085098
H105	H	0.856156	-0.296879	-0.062370
H106	H	1.356156	0.203121	0.437630
C107	C	1.119916	-0.323942	0.091511
C108	C	1.619916	0.176058	0.591511
H109	H	1.145846	-0.349376	0.144668
H110	H	1.645846	0.150624	0.644668
H111	H	1.121510	-0.264805	0.094119
H112	H	1.621510	0.235195	0.594119
H113	H	1.148846	-0.345910	0.038448
H114	H	1.648846	0.154090	0.538448
C115	C	0.981954	-0.464347	0.175117
C116	C	1.481954	0.035653	0.675117
H117	H	0.980174	-0.523506	0.175939
H118	H	1.480174	-0.023506	0.675939
H119	H	0.926637	-0.436532	0.176468
H120	H	1.426637	0.063468	0.676468
H121	H	1.011806	-0.448262	0.227190
H122	H	1.511806	0.051738	0.727190
H123	H	0.997274	-0.314602	0.151923
H124	H	1.497274	0.185398	0.651923
C125	C	0.840668	-0.447028	-0.084640
C126	C	1.340668	0.052972	0.415360
H127	H	0.875169	-0.486649	-0.120399
H128	H	1.375169	0.013351	0.379601
H129	H	0.823951	-0.398448	-0.120499
H130	H	1.323951	0.101552	0.379501
H131	H	0.792602	-0.471451	-0.065054
H132	H	1.292602	0.028549	0.434946
C133	C	0.411901	-0.047484	0.000051
C134	C	0.911901	0.452516	0.500051
H135	H	0.456051	-0.092235	0.000057
H136	H	0.956051	0.407765	0.500057
H137	H	0.378486	-0.051251	-0.053124
H138	H	0.878486	0.448749	0.446876
H139	H	0.378483	-0.051257	0.053230
H140	H	0.878483	0.448743	0.553230
C141	C	1.100847	-0.005209	0.399271
C142	C	1.600847	0.494791	0.899271
H143	H	1.092756	0.002947	0.335236
H144	H	1.592756	0.502947	0.835236
H145	H	1.091826	-0.061095	0.415002
H146	H	1.591826	0.438905	0.915002
H147	H	1.156333	0.003911	0.415000
H148	H	1.656333	0.503911	0.915000
H149	H	0.853581	-0.441586	0.061797
H150	H	1.353581	0.058414	0.561797
H151	H	0.879546	0.217586	0.412992
H152	H	1.379546	0.717586	0.912992
H153	H	0.542798	0.254106	0.000053
H154	H	1.042798	0.754106	0.500053
H155	H	0.855912	-0.297438	0.062570
H156	H	1.355912	0.202562	0.562570
H157	H	1.092879	-0.471892	0.091150
H158	H	1.592879	0.028108	0.591150
C159	C	0.987884	-0.467712	-0.175361
C160	C	1.487884	0.032288	0.324639
H161	H	1.017398	-0.449299	-0.226572
H162	H	1.517398	0.050701	0.273428
H163	H	0.931250	-0.443634	-0.178039
H164	H	1.431250	0.056366	0.321961
H165	H	0.990249	-0.527320	-0.176480
H166	H	1.490249	-0.027320	0.323520
C167	C	0.983788	-0.306143	-0.174376
C168	C	1.483788	0.193857	0.325624
H169	H	0.938450	-0.265834	-0.157525
H170	H	1.438450	0.234166	0.342475
H171	H	0.963368	-0.350037	-0.208567
H172	H	1.463368	0.149963	0.291433
H173	H	1.022268	-0.279778	-0.210718
H174	H	1.522268	0.220222	0.289282
C175	C	1.118824	-0.322317	-0.094454
C176	C	1.618824	0.177683	0.405546
H177	H	1.130899	-0.288159	-0.043980
H178	H	1.630899	0.211841	0.456020
H179	H	1.125870	-0.292973	-0.150028
H180	H	1.625870	0.207027	0.349972
H181	H	1.155741	-0.373044	-0.093713
H182	H	1.655741	0.126956	0.406287
H183	H	1.084697	0.011047	0.587109
H184	H	1.584697	0.511047	1.087109
H185	H	1.095050	-0.471762	-0.086785
H186	H	1.595050	0.028238	0.413215
