data_functionalizedCrystal
_audit_creation_method	'MofGen! by Chris Wilmer'
_symmetry_space_group_name_H-M	'P1'
_symmetry_Int_Tables_number	1
_symmetry_cell_setting	triclinic
loop_
_symmetry_equiv_pos_as_xyz
  x,y,z
_cell_length_a	16.625548
_cell_length_b	16.625545
_cell_length_c	16.625539
_cell_angle_alpha	90.026370
_cell_angle_beta	90.018832
_cell_angle_gamma	90.023896
loop_
_atom_site_label
_atom_site_type_symbol
_atom_site_fract_x
_atom_site_fract_y
_atom_site_fract_z
Zn1	Zn	-1.232644	0.321018	-0.455948
Zn2	Zn	-0.899310	0.654351	-0.122615
Zn3	Zn	-0.565977	0.987685	0.210719
Zn4	Zn	-1.232552	0.455857	-0.321115
Zn5	Zn	-0.899218	0.789190	0.012218
Zn6	Zn	-0.565885	1.122523	0.345551
Zn7	Zn	-1.097814	0.321042	-0.321124
Zn8	Zn	-0.764480	0.654375	0.012209
Zn9	Zn	-0.431147	0.987708	0.345542
Zn10	Zn	-1.097772	0.455812	-0.455901
Zn11	Zn	-0.764439	0.789145	-0.122568
Zn12	Zn	-0.431106	1.122479	0.210766
O13	O	-1.165195	0.388432	-0.388522
O14	O	-0.831862	0.721765	-0.055189
O15	O	-0.498529	1.055099	0.278145
O16	O	-1.345464	0.338914	-0.438078
O17	O	-1.012131	0.672247	-0.104745
O18	O	-0.678797	1.005580	0.228589
O19	O	-1.214657	0.438002	-0.208284
O20	O	-0.881324	0.771335	0.125049
O21	O	-0.547990	1.104668	0.458383
O22	O	-1.115755	0.208206	-0.339032
O23	O	-0.782422	0.541539	-0.005699
O24	O	-0.449089	0.874873	0.327634
O25	O	-1.345396	0.437979	-0.339017
O26	O	-1.012063	0.771312	-0.005684
O27	O	-0.678729	1.104646	0.327650
O28	O	-1.214814	0.208189	-0.438087
O29	O	-0.881481	0.541522	-0.104753
O30	O	-0.548148	0.874855	0.228580
O31	O	-1.115666	0.338954	-0.208291
O32	O	-0.782333	0.672287	0.125043
O33	O	-0.448999	1.005620	0.458376
O34	O	-0.984976	0.338910	-0.338987
O35	O	-0.651643	0.672244	-0.005653
O36	O	-0.318309	1.005577	0.327680
O37	O	-1.115684	0.437903	-0.568740
O38	O	-0.782351	0.771236	-0.235406
O39	O	-0.449018	1.104569	0.097927
O40	O	-0.984945	0.437926	-0.438007
O41	O	-0.651612	0.771259	-0.104673
O42	O	-0.318279	1.104592	0.228660
O43	O	-1.214774	0.338870	-0.568774
O44	O	-0.881441	0.672204	-0.235441
O45	O	-0.548107	1.005537	0.097892
O46	O	-1.214617	0.568683	-0.338972
O47	O	-0.881283	0.902017	-0.005638
O48	O	-0.547950	1.235350	0.327695
O49	O	-1.115595	0.568650	-0.437998
O50	O	-0.782262	0.901984	-0.104665
O51	O	-0.448928	1.235317	0.228669
C52	C	-0.955704	0.388416	-0.388493
C53	C	-0.622371	0.721749	-0.055160
C54	C	-0.289038	1.055083	0.278174
C55	C	-0.866083	0.388429	-0.388500
C56	C	-0.532750	0.721762	-0.055166
C57	C	-0.199417	1.055095	0.278167
C58	C	-1.165113	0.597923	-0.388496
C59	C	-0.831780	0.931256	-0.055163
C60	C	-0.498447	1.264590	0.278170
C61	C	-1.165152	0.687544	-0.388512
C62	C	-0.831819	1.020877	-0.055179
C63	C	-0.498485	1.354211	0.278154
C64	C	-0.537908	0.388427	-0.388524
C65	C	-0.204574	0.721760	-0.055191
C66	C	0.128759	1.055094	0.278143
C67	C	-0.629216	0.388425	-0.388515
C68	C	-0.295883	0.721759	-0.055181
C69	C	0.037450	1.055092	0.278152
C70	C	-0.701993	0.388428	-0.388511
C71	C	-0.368659	0.721762	-0.055178
C72	C	-0.035326	1.055095	0.278155
C73	C	-0.793307	0.388426	-0.388503
C74	C	-0.459974	0.721759	-0.055170
C75	C	-0.126640	1.055092	0.278163
C76	C	-1.165235	0.388379	-0.598831
C77	C	-0.831902	0.721712	-0.265498
C78	C	-0.498568	1.055046	0.067836
C79	C	-1.165252	0.388356	-0.688452
C80	C	-0.831918	0.721690	-0.355119
C81	C	-0.498585	1.055023	-0.021786
C82	C	-0.375504	0.388443	-0.388544
C83	C	-0.042171	0.721777	-0.055211
C84	C	0.291162	1.055110	0.278123
C85	C	-0.465125	0.388435	-0.388533
C86	C	-0.131792	0.721768	-0.055200
C87	C	0.201541	1.055101	0.278133
C88	C	-1.165284	1.015720	-0.388609
C89	C	-0.831950	1.349053	-0.055275
C90	C	-0.498617	1.682386	0.278058
C91	C	-1.165244	0.924411	-0.388584
C92	C	-0.831911	1.257745	-0.055251
C93	C	-0.498578	1.591078	0.278083
C94	C	-1.165217	0.851635	-0.388560
C95	C	-0.831884	1.184968	-0.055227
C96	C	-0.498550	1.518301	0.278107
C97	C	-1.165179	0.760320	-0.388536
C98	C	-0.831846	1.093654	-0.055203
C99	C	-0.498513	1.426987	0.278130
C100	C	-1.165293	1.178123	-0.388575
C101	C	-0.831959	1.511457	-0.055242
C102	C	-0.498626	1.844790	0.278091
C103	C	-1.165317	1.088502	-0.388622
C104	C	-0.831983	1.421835	-0.055289
C105	C	-0.498650	1.755169	0.278045
C106	C	-1.165265	0.388338	-0.761235
C107	C	-0.831932	0.721672	-0.427901
C108	C	-0.498598	1.055005	-0.094568
C109	C	-1.165284	0.388308	-0.852543
C110	C	-0.831950	0.721642	-0.519210
C111	C	-0.498617	1.054975	-0.185877
C112	C	-1.165303	0.388280	-0.925320
C113	C	-0.831969	0.721613	-0.591986
C114	C	-0.498636	1.054947	-0.258653
C115	C	-1.165323	0.388251	-1.016634
C116	C	-0.831989	0.721584	-0.683301
C117	C	-0.498656	1.054917	-0.349967
C118	C	-1.165202	0.388427	-0.179031
C119	C	-0.831869	0.721760	0.154302
C120	C	-0.498536	1.055094	0.487635
C121	C	-1.165342	0.388222	-0.089411
C122	C	-0.832008	0.721556	0.243923
C123	C	-0.498675	1.054889	0.577256
