data_functionalizedCrystal
_audit_creation_method	'MofGen! by Chris Wilmer'
_symmetry_space_group_name_H-M	'P1'
_symmetry_Int_Tables_number	1
_symmetry_cell_setting	triclinic
loop_
_symmetry_equiv_pos_as_xyz
  x,y,z
_cell_length_a	19.077105
_cell_length_b	12.759400
_cell_length_c	12.759401
_cell_angle_alpha	90.007193
_cell_angle_beta	92.303995
_cell_angle_gamma	87.711168
loop_
_atom_site_label
_atom_site_type_symbol
_atom_site_fract_x
_atom_site_fract_y
_atom_site_fract_z
Zn1	Zn	1.075948	-0.483107	0.658522
Zn2	Zn	1.075906	-0.658749	0.482840
Zn3	Zn	0.958275	-0.476016	0.475803
Zn4	Zn	0.958238	-0.651672	0.651423
O5	O	1.017092	-0.567386	0.567147
O6	O	1.174433	-0.512335	0.641133
O7	O	1.060300	-0.634503	0.334885
O8	O	0.973917	-0.329938	0.500067
O9	O	1.174402	-0.641379	0.512060
O10	O	1.060371	-0.335147	0.634310
O11	O	0.973877	-0.500250	0.329715
O12	O	0.859779	-0.493388	0.493183
O13	O	0.973855	-0.629317	0.799385
O14	O	0.859752	-0.622441	0.622210
O15	O	1.060335	-0.505473	0.804601
O16	O	1.060264	-0.804829	0.505176
O17	O	0.973814	-0.799630	0.629034
C18	C	0.834228	-0.556378	0.556163
C19	C	0.755999	-0.551694	0.551489
C20	C	0.719250	-0.616786	0.616366
C21	C	0.645745	-0.612371	0.611979
C22	C	0.608989	-0.542869	0.542710
C23	C	0.645743	-0.477770	0.477832
C24	C	0.719247	-0.482180	0.482224
C25	C	0.389156	-0.522458	0.522386
C26	C	0.315647	-0.518055	0.517996
C27	C	0.315655	-0.652655	0.652146
C28	C	0.389160	-0.657064	0.656528
C29	C	0.425907	-0.591961	0.591653
N30	N	0.533855	-0.538357	0.538223
N31	N	0.501039	-0.596468	0.596147
C32	C	1.017050	-0.840351	0.567122
C33	C	1.017096	-0.957130	0.567151
C34	C	1.062161	-1.014668	0.502736
C35	C	1.062204	-1.124394	0.502771
C36	C	0.972113	-1.119036	0.631639
C37	C	0.972073	-1.009312	0.631608
C38	C	1.107184	-0.962486	0.438278
C39	C	1.152251	-1.020024	0.373857
C40	C	1.152295	-1.129751	0.373892
C41	C	1.107270	-1.181940	0.438348
C42	C	1.200669	-0.578437	0.578173
C43	C	1.278899	-0.583147	0.582872
C44	C	1.017096	-0.567397	0.841180
C45	C	1.017097	-0.567401	0.957957
C46	C	1.017153	-0.293356	0.567195
C47	C	1.017179	-0.176581	0.567216
C48	C	1.062119	-0.502921	1.125261
C49	C	1.062123	-0.502923	1.015537
C50	C	0.972071	-0.631889	1.010107
C51	C	0.972072	-0.631892	1.119829
C52	C	1.107142	-0.438431	1.182835
C53	C	1.152170	-0.373945	1.130693
C54	C	1.152173	-0.373947	1.020969
C55	C	1.107149	-0.438436	0.963387
C56	C	1.017086	-0.567400	1.294179
C57	C	1.017095	-0.567402	1.177403
H58	H	0.749172	-0.673386	0.672768
N59	N	0.758886	-0.411968	0.412259
H60	H	0.724449	-0.367268	0.367710
H61	H	0.789373	-0.456479	0.365385
N62	N	0.275992	-0.443119	0.443260
H63	H	0.245492	-0.392677	0.484200
H64	H	0.245537	-0.484028	0.392711
H65	H	1.107143	-0.438419	1.272178
H66	H	0.935414	-0.684392	0.963215
N67	N	1.200725	-0.304395	1.192802
H68	H	1.189809	-0.228673	1.173057
H69	H	1.250992	-0.323823	1.176711
N70	N	1.200810	-0.963739	0.304340
H71	H	1.229366	-1.016842	0.263542
H72	H	1.233341	-0.920110	0.349086
H73	H	0.419081	-0.713662	0.712931
H74	H	1.188841	-0.321446	0.978518
N75	N	1.200905	-1.191813	0.304423
H76	H	1.229419	-1.142103	0.263588
H77	H	1.172297	-1.235673	0.254065
N78	N	1.107133	-0.844140	0.438235
H79	H	1.142491	-0.819811	0.387627
H80	H	1.120003	-0.818517	0.511121
N81	N	0.276022	-0.722870	0.722115
H82	H	0.223880	-0.709533	0.708825
H83	H	0.288884	-0.707408	0.797945
H84	H	1.107161	-0.438441	0.874043
N85	N	0.923514	-0.701441	1.176077
H86	H	0.894989	-0.742289	1.122957
H87	H	0.890953	-0.656717	1.219654
N88	N	0.606109	-0.682592	0.681937
H89	H	0.640547	-0.727301	0.726474
H90	H	0.575603	-0.729304	0.637246
H91	H	0.935455	-1.161537	0.684115
H92	H	0.419066	-0.469455	0.469552
N93	N	1.107308	-1.300287	0.438389
H94	H	1.120216	-1.327448	0.511259
H95	H	1.142682	-1.328742	0.387756
H96	H	0.935378	-0.962464	0.684062
H97	H	0.615810	-0.421175	0.421436
