data_functionalizedCrystal
_audit_creation_method	'MofGen! by Chris Wilmer'
_symmetry_space_group_name_H-M	'P1'
_symmetry_Int_Tables_number	1
_symmetry_cell_setting	triclinic
loop_
_symmetry_equiv_pos_as_xyz
  x,y,z
_cell_length_a	27.440280
_cell_length_b	19.377625
_cell_length_c	19.377574
_cell_angle_alpha	90.000410
_cell_angle_beta	68.953917
_cell_angle_gamma	52.473577
loop_
_atom_site_label
_atom_site_type_symbol
_atom_site_fract_x
_atom_site_fract_y
_atom_site_fract_z
Zr1	Zr	0.533390	0.621112	-0.254110
O2	O	0.635061	0.486866	-0.333245
O3	O	0.431722	0.662254	-0.229838
O4	O	0.533390	0.626245	-0.369249
O5	O	0.533392	0.551294	-0.083879
O6	O	0.533386	0.736202	-0.397663
O7	O	0.533393	0.522876	-0.193835
O8	O	0.351521	0.800616	-0.148283
O9	O	0.715257	0.486880	-0.333259
O10	O	0.473535	0.761875	-0.240707
O11	O	0.473537	0.701023	-0.137443
O12	O	0.593238	0.658627	-0.301581
O13	O	0.593240	0.597775	-0.198317
Zr14	Zr	0.533381	0.841806	-0.124061
Zr15	Zr	0.533384	0.796482	-0.299427
Zr16	Zr	0.533387	0.666436	-0.078743
Zr17	Zr	0.661293	0.621134	-0.254132
Zr18	Zr	0.405478	0.841784	-0.124039
O19	O	0.635048	0.800664	-0.148332
O20	O	0.635052	0.736220	-0.397680
O21	O	0.635057	0.551311	-0.083897
O22	O	0.431710	0.976052	-0.044925
O23	O	0.431713	0.911607	-0.294274
O24	O	0.431719	0.726699	0.019510
O25	O	0.533379	0.911624	-0.294291
O26	O	0.533381	0.836674	-0.008922
O27	O	0.533385	0.726716	0.019493
O28	O	0.533378	0.940043	-0.184336
O29	O	0.715252	0.626276	-0.369280
O30	O	0.351519	0.836643	-0.008890
O31	O	0.351514	0.976038	-0.044912
O32	O	0.351516	0.940012	-0.184304
O33	O	0.715255	0.522906	-0.193866
O34	O	0.715250	0.662302	-0.229887
O35	O	0.473533	0.804292	-0.076590
O36	O	0.473531	0.865143	-0.179853
O37	O	0.593234	0.761895	-0.240727
O38	O	0.593236	0.701043	-0.137464
C39	C	0.373398	0.731432	-0.189058
C40	C	0.319100	0.731423	-0.189048
C41	C	0.040214	0.807693	-0.144154
C42	C	0.091236	0.807686	-0.144149
O43	O	0.080057	0.872520	-0.105957
N44	N	0.160930	0.731454	-0.189074
C45	C	0.179602	0.655226	-0.234012
O46	O	0.243567	0.590384	-0.272224
C47	C	0.128581	0.655236	-0.234021
C48	C	0.058886	0.731470	-0.189088
C49	C	-0.029477	0.883922	-0.099225
C50	C	-0.080495	0.883927	-0.099229
C51	C	-0.061823	0.807705	-0.144163
C52	C	0.007868	0.731476	-0.189092
C53	C	0.147253	0.579012	-0.278963
C54	C	0.096225	0.579029	-0.278969
C55	C	0.026530	0.655263	-0.234035
C56	C	-0.024478	0.655259	-0.234029
N57	N	-0.094172	0.731492	-0.189105
C58	C	-0.112844	0.807715	-0.144171
C59	C	0.286747	0.655211	-0.233991
C60	C	0.337769	0.655198	-0.233979
C61	C	0.249398	0.807659	-0.144117
C62	C	0.198377	0.807669	-0.144126
C63	C	0.217053	0.731444	-0.189067
C64	C	-0.219983	0.807721	-0.144183
C65	C	-0.271002	0.807718	-0.144189
C66	C	-0.182628	0.655259	-0.234054
C67	C	-0.131613	0.655259	-0.234045
C68	C	-0.150296	0.731498	-0.189108
O69	O	-0.013350	0.590460	-0.272204
O70	O	-0.176809	0.872551	-0.105974
C71	C	0.533393	0.512098	-0.132400
C72	C	0.533396	0.437649	-0.113162
C73	C	0.533382	0.114521	-0.352720
C74	C	0.533379	0.044575	-0.334618
C75	C	0.533377	0.075905	-0.213475
C76	C	0.533383	0.145852	-0.231569
C77	C	0.533385	0.165154	-0.301192
C78	C	0.533387	0.196486	-0.180041
C79	C	0.533389	0.266430	-0.198132
C80	C	0.533389	0.285740	-0.267750
C81	C	0.533388	0.235098	-0.319283
C82	C	0.533380	0.177186	-0.110415
C83	C	0.533383	0.227820	-0.058887
C84	C	0.533391	0.297761	-0.076980
C85	C	0.533390	0.317072	-0.146599
C86	C	0.533392	0.348403	-0.025448
C87	C	0.533395	0.418347	-0.043538
C88	C	0.533393	0.387016	-0.164690
C89	C	0.693373	0.731486	-0.189113
C90	C	0.747671	0.731495	-0.189122
C91	C	0.533389	0.674766	-0.408442
C92	C	0.533390	0.655525	-0.482889
C93	C	0.533378	0.950820	-0.245770
C94	C	0.533375	1.025269	-0.265009
C95	C	0.533378	0.895104	-0.806019
C96	C	0.533380	0.877002	-0.875969
C97	C	0.533384	0.755856	-0.844646
C98	C	0.533385	0.773945	-0.774693
C99	C	0.533381	0.843570	-0.755386
C100	C	0.533389	0.722412	-0.724060
C101	C	0.533387	0.740502	-0.654112
C102	C	0.533381	0.810126	-0.634797
C103	C	0.533379	0.861661	-0.685438
C104	C	0.533388	0.652791	-0.743366
C105	C	0.533392	0.601257	-0.692733
C106	C	0.533394	0.619343	-0.622786
C107	C	0.533388	0.688967	-0.603471
C108	C	0.533396	0.567809	-0.572145
C109	C	0.533394	0.585899	-0.502197
C110	C	0.533386	0.707058	-0.533523
C111	C	0.533382	0.788152	0.030271
C112	C	0.533381	0.807394	0.104719
C113	C	0.373390	0.950793	-0.245743
C114	C	0.319090	1.025233	-0.264972
C115	C	0.373395	0.788125	0.030299
C116	C	0.319096	0.807357	0.104756
C117	C	0.373387	1.007486	-0.026386
C118	C	0.319085	1.101167	0.028832
C119	C	0.693384	0.455432	-0.351784
C120	C	0.747685	0.361751	-0.407003
C121	C	0.693380	0.512125	-0.132428
C122	C	0.747681	0.437686	-0.113198
C123	C	0.693376	0.674793	-0.408469
C124	C	0.747675	0.655561	-0.482926
C125	C	0.293592	1.006284	-0.305774
C126	C	0.242577	1.076217	-0.323857
C127	C	0.217058	1.165100	-0.301131
C128	C	0.242562	1.184048	-0.260327
C129	C	0.293578	1.114114	-0.242250
C130	C	0.293594	0.870296	0.171494
C131	C	0.242582	0.888365	0.241462
C132	C	0.217068	0.843500	0.244688
C133	C	0.242575	0.780554	0.177944
C134	C	0.293590	0.762481	0.107979
C135	C	0.293584	1.176932	0.000859
C136	C	0.242568	1.264961	0.052734
C137	C	0.217052	1.277222	0.132583
C138	C	0.242559	1.201448	0.160556
C139	C	0.293577	1.113422	0.108681
C140	C	0.773193	0.285986	-0.379029
C141	C	0.824225	0.197958	-0.430905
C142	C	0.849743	0.185697	-0.510753
C143	C	0.824233	0.261470	-0.538727
C144	C	0.773207	0.349497	-0.486852
C145	C	0.773185	0.456633	-0.072403
C146	C	0.824213	0.386695	-0.054340
C147	C	0.849734	0.297811	-0.077068
C148	C	0.824228	0.278864	-0.117869
C149	C	0.773204	0.348800	-0.135936
C150	C	0.773172	0.700442	-0.486129
C151	C	0.824186	0.682389	-0.556087
C152	C	0.849704	0.619450	-0.622839
C153	C	0.824201	0.574569	-0.619635
C154	C	0.773186	0.592627	-0.549679
H155	H	0.141631	0.869746	-0.107537
H156	H	0.844986	0.136271	-0.408113
N157	N	0.533255	0.966312	-0.786178
N158	N	0.484860	1.046510	-0.779846
H159	H	0.484728	1.096831	-0.765786
H160	H	0.845015	0.206486	-0.136370
H161	H	0.533401	0.402725	-0.221388
H162	H	-0.167435	0.593199	-0.270634
H163	H	0.314332	1.129557	-0.209022
N164	N	0.747098	0.764753	-0.417954
N165	N	0.684460	0.833700	-0.383934
H166	H	0.666044	0.879126	-0.335788
N167	N	-0.048548	0.961776	-0.053319
N168	N	-0.002998	0.961773	-0.053302
H169	H	-0.016472	1.016760	-0.020874
N170	N	0.850277	0.510285	-0.687832
N171	N	0.895829	0.494175	-0.750281
H172	H	0.914249	0.448771	-0.798447
H173	H	0.845017	0.251476	-0.603745
N174	N	0.533378	0.357197	-0.286228
N175	N	0.485059	0.437092	-0.242691
H176	H	0.485050	0.487559	-0.255741
N177	N	0.533403	0.328682	0.045664
N178	N	0.533414	0.373891	0.091661
H179	H	0.533426	0.359962	0.141884
N180	N	0.164932	1.236515	-0.319592
N181	N	0.176277	1.279727	-0.360336
H182	H	0.139456	1.330153	-0.373373
H183	H	0.533387	0.638068	-0.800322
N184	N	0.533400	0.530133	-0.712448
N185	N	0.533404	0.484127	-0.667231
H186	H	0.533410	0.433894	-0.681153
H187	H	0.752410	0.529002	-0.053887
H188	H	0.533393	0.511125	-0.587871
N189	N	0.216497	1.213967	0.242118
N190	N	0.256347	1.182885	0.272430
H191	H	0.237937	1.191728	0.330035
N192	N	-0.342191	0.885598	-0.098279
N193	N	-0.358849	0.953647	-0.058165
H194	H	-0.409124	1.008649	-0.025742
H195	H	0.221806	1.326649	0.029944
H196	H	0.314347	0.711234	0.053640
N197	N	0.319639	0.916144	0.168222
N198	N	0.296857	0.972333	0.227825
H199	H	0.315249	1.004715	0.225521
H200	H	0.175528	0.858224	0.301663
N201	N	0.533370	0.056178	-0.142360
N202	N	0.533364	-0.006270	-0.126213
H203	H	0.533360	-0.020203	-0.075988
N204	N	0.533395	0.533255	-0.450479
N205	N	0.533400	0.471092	-0.467727
H206	H	0.533399	0.433912	-0.431201
N207	N	0.216517	0.734720	0.181234
N208	N	0.256371	0.649770	0.164256
H209	H	0.237965	0.617403	0.166580
N210	N	0.164939	1.367148	0.185556
N211	N	0.142178	1.434783	0.160561
H212	H	0.105372	1.498297	0.197969
H213	H	0.533375	0.120235	-0.095688
H214	H	0.891292	0.114015	-0.552984
H215	H	0.844971	0.402140	-0.021116
H216	H	0.533376	0.918973	-0.917194
H217	H	0.752441	0.333361	-0.169151
N218	N	0.319610	1.036023	0.137249
N219	N	0.365150	0.957428	0.090935
H220	H	0.383530	0.902765	0.111115
H221	H	0.533396	0.250808	-0.375981
H222	H	0.203994	0.516938	-0.315560
N223	N	0.747138	0.298481	-0.297471
N224	N	0.769930	0.230813	-0.272518
H225	H	0.751534	0.239629	-0.214918
N226	N	0.319639	0.915504	-0.328991
N227	N	0.296859	0.898613	-0.365422
H228	H	0.315252	0.834500	-0.381824
N229	N	0.305842	0.577334	-0.279902
N230	N	0.368073	0.509281	-0.320007
H231	H	0.381562	0.454280	-0.352434
N232	N	0.533384	0.470097	0.009089
N233	N	0.581685	0.470979	-0.012050
H234	H	0.581665	0.507544	0.025121
H235	H	0.752439	0.411184	-0.509638
H236	H	0.533390	0.130230	-0.409418
N237	N	0.319630	1.164438	-0.080699
N238	N	0.296848	1.232105	-0.105652
H239	H	0.315242	1.223289	-0.163253
H240	H	0.891281	0.240873	-0.062352
N241	N	0.850221	0.728248	-0.559336
N242	N	0.827433	0.784432	-0.499724
H243	H	0.845818	0.816821	-0.502016
N244	N	-0.239083	0.885605	-0.098282
N245	N	-0.301315	0.953656	-0.058174
H246	H	-0.314805	1.008661	-0.025754
N247	N	-0.151679	0.961807	-0.053327
N248	N	-0.168330	1.029852	-0.013216
H249	H	-0.218603	1.084861	0.019204
H250	H	0.891244	0.604755	-0.679797
H251	H	0.533375	0.003350	-0.376584
N252	N	0.230341	0.885514	-0.098221
N253	N	0.275907	0.885487	-0.098228
H254	H	0.262452	0.940468	-0.065817
N255	N	0.533376	0.208093	0.012228
N256	N	0.533370	0.145645	0.028374
H257	H	0.533366	0.131712	0.078600
N258	N	0.216489	1.274840	-0.237098
N259	N	0.239252	1.291761	-0.200660
H260	H	0.220834	1.355886	-0.184250
H261	H	0.394514	0.593114	-0.270557
H262	H	0.752431	0.556073	-0.547081
H263	H	0.111440	0.516957	-0.315569
H264	H	0.221819	1.060772	-0.357080
N265	N	-0.060423	0.577384	-0.279949
N266	N	-0.043764	0.509337	-0.320069
H267	H	0.006512	0.454340	-0.352499
N268	N	0.216542	0.952665	0.309625
N269	N	0.239325	0.992721	0.306724
H270	H	0.220936	1.038134	0.354862
N271	N	0.533263	0.778267	-0.513682
N272	N	0.484868	0.858464	-0.507350
H273	H	0.484736	0.908786	-0.493290
N274	N	0.533385	0.828591	-0.563348
N275	N	0.581705	0.767944	-0.549706
H276	H	0.581709	0.780984	-0.499245
H277	H	0.533383	0.918351	-0.669722
H278	H	0.533385	0.699169	-0.860373
