data_functionalizedCrystal
_audit_creation_method	'MofGen! by Chris Wilmer'
_symmetry_space_group_name_H-M	'P1'
_symmetry_Int_Tables_number	1
_symmetry_cell_setting	triclinic
loop_
_symmetry_equiv_pos_as_xyz
  x,y,z
_cell_length_a	6.394989
_cell_length_b	19.288864
_cell_length_c	17.766277
_cell_angle_alpha	90.023209
_cell_angle_beta	90.003244
_cell_angle_gamma	84.816979
loop_
_atom_site_label
_atom_site_type_symbol
_atom_site_fract_x
_atom_site_fract_y
_atom_site_fract_z
O1	O	-0.260546	-0.923905	-0.062832
O2	O	-0.295693	-0.721989	-0.062780
O3	O	0.025971	-0.825813	-0.062807
O4	O	-0.582211	-0.820081	-0.062804
O5	O	0.025988	-0.825794	0.062382
O6	O	-0.295677	-0.721970	0.062409
O7	O	-0.260530	-0.923886	0.062357
Cu8	Cu	-0.278102	-0.822926	0.073814
Cu9	Cu	-0.278121	-0.822948	-0.074236
O10	O	-0.582195	-0.820062	0.062384
C11	C	-0.294554	-0.696092	-0.000179
C12	C	-0.291159	-0.618955	-0.000159
C13	C	-0.261669	-0.949783	-0.000246
C14	C	-0.265064	-1.026920	-0.000270
N15	N	-0.278087	-0.822915	0.177944
C16	C	0.103790	-0.824670	-0.000215
C17	C	0.339993	-0.821206	-0.000215
N18	N	-0.278120	-0.822964	-0.178367
C19	C	-0.479898	-0.576107	-0.000170
C20	C	-0.476708	-0.503629	-0.000178
C21	C	-0.284770	-0.474001	-0.000191
C22	C	-0.096007	-0.516859	-0.000175
C23	C	-0.099202	-0.589335	-0.000160
C24	C	-0.133891	-0.364268	-0.044076
C25	C	-0.130704	-0.291792	-0.044096
C26	C	-0.274908	-0.250459	-0.000236
C27	C	-0.422335	-0.281609	0.043634
C28	C	-0.425530	-0.354086	0.043650
C29	C	-0.281284	-0.395413	-0.000207
C30	C	-0.460201	-0.129022	-0.000255
C31	C	-0.457004	-0.056542	-0.000259
C32	C	-0.076297	-0.069774	-0.000264
C33	C	-0.079500	-0.142252	-0.000252
C34	C	-0.271458	-0.171871	-0.000252
C35	C	-0.135724	-0.868905	0.217319
C36	C	-0.135714	-0.868909	0.296121
C37	C	-0.278104	-0.822930	0.335545
C38	C	-0.420478	-0.776932	0.296160
C39	C	-0.420470	-0.776925	0.217360
C40	C	-0.468405	-0.815495	0.460385
C41	C	-0.468416	-0.815508	0.539184
C42	C	-0.278129	-0.822949	0.578591
C43	C	-0.087822	-0.830393	0.539190
C44	C	-0.087814	-0.830386	0.460389
C45	C	-0.278128	-0.822933	0.420990
C46	C	-0.135743	-0.868945	0.703412
C47	C	-0.135731	-0.868944	0.782215
C48	C	-0.420513	-0.776971	0.782253
C49	C	-0.420507	-0.776969	0.703451
C50	C	-0.278125	-0.822959	0.664035
H51	H	-0.636205	-0.600218	-0.000171
C52	C	0.020886	-0.919504	0.339444
C53	C	0.177433	-0.970111	0.296086
C54	C	0.334030	-1.020707	0.339405
C55	C	0.334079	-1.020697	0.426082
C56	C	0.177527	-0.970088	0.469445
C57	C	0.020930	-0.919492	0.426126
H58	H	0.177402	-0.970120	0.231918
H59	H	0.449920	-1.058171	0.307305
H60	H	0.450002	-1.058151	0.458150
H61	H	0.177558	-0.970079	0.533613
H62	H	-0.094961	-0.882028	0.458226
C63	C	-0.577142	-0.726393	0.825611
C64	C	-0.577290	-0.726446	0.912288
C65	C	-0.733916	-0.675864	0.955651
C66	C	-0.890394	-0.625229	0.912336
C67	C	-0.890251	-0.625174	0.825654
C68	C	-0.733625	-0.675756	0.782292
H69	H	-0.461451	-0.763930	0.944356
H70	H	-0.734021	-0.675904	1.019819
H71	H	-1.006338	-0.587785	0.944436
H72	H	-1.006090	-0.587689	0.793586
H73	H	-0.733520	-0.675715	0.718124
C74	C	0.020892	-0.919527	0.660050
C75	C	0.258722	-0.916281	0.670892
C76	C	0.415360	-0.966863	0.627534
C77	C	0.334167	-1.020690	0.573333
C78	C	0.096325	-1.023938	0.562488
C79	C	-0.060313	-0.973356	0.605847
H80	H	0.318837	-0.876433	0.711017
H81	H	0.591427	-0.964458	0.635562
H82	H	0.450120	-1.058133	0.541236
H83	H	0.036210	-1.063786	0.522363
H84	H	-0.236380	-0.975761	0.597818
H85	H	-0.623374	-0.809451	0.571258
H86	H	-0.623370	-0.809424	0.428306
C87	C	-0.664628	-0.009404	-0.000271
C88	C	-0.714791	0.042273	0.064728
C89	C	-0.922417	0.089413	0.064716
C90	C	-1.079879	0.084875	-0.000295
C91	C	-1.029721	0.033195	-0.065298
C92	C	-0.822095	-0.013945	-0.065286
H93	H	-0.598224	0.045635	0.112857
H94	H	-0.959546	0.127670	0.112836
H95	H	-1.233576	0.119770	-0.000304
H96	H	-1.146288	0.029833	-0.113427
H97	H	-0.784965	-0.052202	-0.113406
H98	H	-0.545564	-0.379445	0.079374
H99	H	-0.016458	-0.397916	-0.079796
C100	C	0.031454	-0.257533	-0.092357
C101	C	0.267860	-0.275719	-0.078739
C102	C	0.430021	-0.241463	-0.127003
C103	C	0.355774	-0.189022	-0.188885
C104	C	0.119355	-0.170834	-0.202505
C105	C	-0.042805	-0.205090	-0.154241
H106	H	0.322833	-0.314541	-0.032928
H107	H	0.605034	-0.254928	-0.116920
H108	H	0.475815	-0.163664	-0.224612
H109	H	0.064383	-0.132012	-0.248316
H110	H	-0.217818	-0.191625	-0.164324
H111	H	-0.019790	-0.906392	0.814275
C112	C	-0.577114	-0.726356	0.339522
C113	C	-0.577233	-0.726395	0.426199
C114	C	-0.733868	-0.675814	0.469560
C115	C	-0.890382	-0.625194	0.426243
C116	C	-0.890268	-0.625152	0.339561
C117	C	-0.733634	-0.675733	0.296201
H118	H	-0.461367	-0.763869	0.458269
H119	H	-0.733951	-0.675845	0.533728
H120	H	-1.006332	-0.587751	0.458341
H121	H	-1.006134	-0.587678	0.307491
H122	H	-0.733550	-0.675702	0.232033
H123	H	-0.630407	-0.468735	-0.000185
H124	H	0.067140	-0.836445	0.428312
H125	H	-0.539759	-0.247957	0.079350
H126	H	-0.616505	-0.153139	-0.000244
H127	H	0.079983	-0.045652	-0.000320
H128	H	0.067128	-0.836452	0.571273
H129	H	0.074192	-0.177139	-0.000248
H130	H	0.060271	-0.492731	-0.000196
H131	H	0.054497	-0.624223	-0.000151
H132	H	-0.019783	-0.906351	0.185229
H133	H	-0.536441	-0.739523	0.671390
H134	H	-0.536401	-0.739474	0.185300
