data_functionalizedCrystal
_audit_creation_method	'MofGen! by Chris Wilmer'
_symmetry_space_group_name_H-M	'P1'
_symmetry_Int_Tables_number	1
_symmetry_cell_setting	triclinic
loop_
_symmetry_equiv_pos_as_xyz
  x,y,z
_cell_length_a	16.992694
_cell_length_b	12.837942
_cell_length_c	15.455313
_cell_angle_alpha	92.949088
_cell_angle_beta	87.142206
_cell_angle_gamma	92.748582
loop_
_atom_site_label
_atom_site_type_symbol
_atom_site_fract_x
_atom_site_fract_y
_atom_site_fract_z
O1	O	1.060029	0.216906	-0.072020
O2	O	1.560029	0.716906	0.427980
O3	O	0.831564	0.214478	-0.072045
O4	O	1.331564	0.714478	0.427955
O5	O	0.940730	0.064370	-0.072028
O6	O	1.440730	0.564370	0.427972
O7	O	0.950863	0.367014	-0.072037
O8	O	1.450863	0.867014	0.427963
O9	O	0.934485	0.072916	0.072233
O10	O	1.434485	0.572916	0.572233
O11	O	0.825318	0.223024	0.072216
O12	O	1.325318	0.723024	0.572216
O13	O	1.053784	0.225452	0.072241
O14	O	1.553784	0.725452	0.572241
Cu15	Cu	0.938981	0.225018	0.085401
Cu16	Cu	1.438981	0.725018	0.585401
Cu17	Cu	0.946367	0.214912	-0.085205
Cu18	Cu	1.446367	0.714912	0.414795
O19	O	0.944617	0.375560	0.072224
O20	O	1.444617	0.875560	0.572224
C21	C	0.798995	0.215629	0.000082
C22	C	1.298995	0.715629	0.500082
C23	C	0.711256	0.206315	0.000072
C24	C	1.211256	0.706315	0.500072
C25	C	0.667730	0.296178	0.000070
C26	C	1.167730	0.796178	0.500070
C27	C	0.585288	0.287422	0.000082
C28	C	1.085288	0.787422	0.500082
C29	C	0.546375	0.188801	0.000091
C30	C	1.046375	0.688801	0.500091
C31	C	0.589907	0.098931	0.000095
C32	C	1.089907	0.598931	0.500095
C33	C	0.672346	0.107689	0.000089
C34	C	1.172346	0.607689	0.500089
C35	C	0.300064	0.152503	0.000115
C36	C	0.800064	0.652503	0.500115
C37	C	0.217618	0.143751	0.000118
C38	C	0.717618	0.643751	0.500118
C39	C	0.213006	0.332243	0.000107
C40	C	0.713006	0.832243	0.500107
C41	C	0.295447	0.340992	0.000096
C42	C	0.795447	0.840992	0.500096
C43	C	0.338972	0.251123	0.000105
C44	C	0.838972	0.751123	0.500105
N45	N	0.462107	0.179848	0.000100
N46	N	0.962107	0.679848	0.500100
N47	N	0.423238	0.260077	0.000102
N48	N	0.923238	0.760077	0.500102
C49	C	0.934185	0.029739	0.000102
C50	C	1.434185	0.529739	0.500102
C51	C	0.923977	-0.086184	0.000099
C52	C	1.423977	0.413816	0.500099
C53	C	1.046699	-0.316976	0.000095
C54	C	1.546699	0.183024	0.500095
C55	C	1.037111	-0.425897	0.000093
C56	C	1.537111	0.074103	0.500093
C57	C	0.895215	-0.412947	0.000086
C58	C	1.395215	0.087053	0.500086
C59	C	0.904802	-0.304027	0.000088
C60	C	1.404802	0.195973	0.500088
C61	C	0.980547	-0.256046	0.000094
C62	C	1.480547	0.243954	0.500094
C63	C	0.990134	-0.147123	0.000103
C64	C	1.490134	0.352877	0.500103
C65	C	0.848238	-0.134176	0.000090
C66	C	1.348238	0.365824	0.500090
C67	C	0.838650	-0.243096	0.000087
C68	C	1.338650	0.256904	0.500087
C69	C	1.086352	0.224301	0.000112
C70	C	1.586352	0.724301	0.500112
C71	C	1.174092	0.233614	0.000116
C72	C	1.674092	0.733614	0.500116
C73	C	0.951163	0.410191	0.000092
C74	C	1.451163	0.910191	0.500092
C75	C	0.961371	0.526114	0.000089
C76	C	1.461371	1.026114	0.500089
N77	N	0.933792	0.232127	0.205396
N78	N	1.433792	0.732127	0.705396
N79	N	0.951562	0.207795	-0.205199
N80	N	1.451562	0.707795	0.294801
C81	C	0.980189	0.168382	0.250797
C82	C	1.480189	0.668382	0.750797
C83	C	0.976273	0.173768	0.341604
C84	C	1.476273	0.673768	0.841604
C85	C	0.925963	0.242905	0.387008
C86	C	1.425963	0.742905	0.887008
C87	C	0.879560	0.306652	0.341600
C88	C	1.379560	0.806652	0.841600
C89	C	0.883473	0.301260	0.250795
C90	C	1.383473	0.801260	0.750795
C91	C	0.909072	0.266151	0.658587
C92	C	1.409072	0.766151	1.158587
C93	C	0.905164	0.271540	0.749399
C94	C	1.405164	0.771540	1.249399
C95	C	1.001877	0.138654	0.749397
C96	C	1.501877	0.638654	1.249397
C97	C	1.005788	0.133273	0.658589
C98	C	1.505788	0.633273	1.158589
C99	C	0.959383	0.197016	0.613189
C100	C	1.459383	0.697016	1.113189
N101	N	0.921960	0.248414	0.479828
N102	N	1.421960	0.748414	0.979828
N103	N	0.963381	0.191501	0.520371
N104	N	1.463381	0.691501	1.020371
H105	H	0.335492	0.079324	0.000123
H106	H	0.835492	0.579324	0.500123
H107	H	1.039657	0.086756	0.786370
H108	H	1.539657	0.586756	1.286370
Cl109	Cl	0.800002	-0.473287	0.000052
Cl110	Cl	1.300002	0.026713	0.500052
H111	H	1.090979	-0.475503	0.000090
H112	H	1.590979	0.024497	0.500090
Cl113	Cl	0.743434	-0.303427	0.000072
Cl114	Cl	1.243434	0.196573	0.500072
H115	H	0.845690	0.353166	0.213830
H116	H	1.345690	0.853166	0.713830
H117	H	0.794372	-0.084554	0.000096
H118	H	1.294372	0.415446	0.500096
H119	H	0.699407	0.376486	0.000063
H120	H	1.199407	0.876486	0.500063
Cl121	Cl	0.530573	0.400398	0.000074
Cl122	Cl	1.030573	0.900398	0.500074
Cl123	Cl	0.344361	0.464977	0.000080
Cl124	Cl	0.844361	0.964977	0.500080
Cl125	Cl	0.158285	0.445214	0.000099
Cl126	Cl	0.658285	0.945214	0.500099
H127	H	1.021161	0.112088	0.213835
H128	H	1.521161	0.612088	0.713835
Cl129	Cl	0.168699	0.019762	0.000148
Cl130	Cl	0.668699	0.519762	0.500148
H131	H	0.838592	0.362941	0.378574
H132	H	1.338592	0.862941	0.878574
H133	H	1.014053	0.121861	0.378570
H134	H	1.514053	0.621861	0.878570
Cl135	Cl	1.069037	0.046359	0.601510
Cl136	Cl	1.569037	0.546359	1.101510
Cl137	Cl	0.850738	0.346287	0.601519
Cl138	Cl	1.350738	0.846287	1.101519
H139	H	0.558216	0.018632	0.000114
H140	H	1.058216	0.518632	0.500114
Cl141	Cl	1.085353	-0.086804	0.000116
Cl142	Cl	1.585353	0.413196	0.500116
H143	H	0.707784	0.034513	0.000091
H144	H	1.207784	0.534513	0.500091
Cl145	Cl	1.141916	-0.256651	0.000124
Cl146	Cl	1.641916	0.243349	0.500124
Cl147	Cl	0.841912	0.358465	0.806472
Cl148	Cl	1.341912	0.858465	1.306472
