data_functionalizedCrystal
_audit_creation_method	'MofGen! by Chris Wilmer'
_symmetry_space_group_name_H-M	'P1'
_symmetry_Int_Tables_number	1
_symmetry_cell_setting	triclinic
loop_
_symmetry_equiv_pos_as_xyz
  x,y,z
_cell_length_a	19.077312
_cell_length_b	19.120904
_cell_length_c	19.076919
_cell_angle_alpha	89.728756
_cell_angle_beta	94.668947
_cell_angle_gamma	90.276063
loop_
_atom_site_label
_atom_site_type_symbol
_atom_site_fract_x
_atom_site_fract_y
_atom_site_fract_z
Zn1	Zn	-1.047829	0.335278	0.341466
Zn2	Zn	-0.547829	0.835278	0.841466
Zn3	Zn	-1.047844	0.447826	0.218951
Zn4	Zn	-0.547844	0.947826	0.718951
Zn5	Zn	-0.935058	0.326262	0.228705
Zn6	Zn	-0.435058	0.826262	0.728705
Zn7	Zn	-0.925277	0.447797	0.341535
Zn8	Zn	-0.425277	0.947797	0.841535
O9	O	-0.989002	0.389291	0.282664
O10	O	-0.489002	0.889291	0.782664
O11	O	-1.146321	0.353992	0.321103
O12	O	-0.646321	0.853992	0.821103
O13	O	-1.036982	0.427939	0.121752
O14	O	-0.536982	0.927939	0.621752
O15	O	-0.954105	0.229494	0.247715
O16	O	-0.454105	0.729494	0.747715
O17	O	-1.146332	0.436681	0.231092
O18	O	-0.646332	0.936681	0.731092
O19	O	-1.036957	0.236118	0.330561
O20	O	-0.536957	0.736118	0.830561
O21	O	-0.954119	0.338627	0.128918
O22	O	-0.454119	0.838627	0.628918
O23	O	-0.835271	0.338599	0.247783
O24	O	-0.335271	0.838599	0.747783
O25	O	-0.937433	0.436632	0.440019
O26	O	-0.437433	0.936632	0.940019
O27	O	-0.828084	0.427890	0.330679
O28	O	-0.328084	0.927890	0.830679
O29	O	-1.027472	0.353964	0.439968
O30	O	-0.527472	0.853964	0.939968
O31	O	-1.027498	0.545786	0.231160
O32	O	-0.527498	1.045786	0.731160
O33	O	-0.937448	0.545765	0.321222
O34	O	-0.437448	1.045765	0.821222
C35	C	-0.806140	0.382264	0.290297
C36	C	-0.306140	0.882264	0.790297
C37	C	-0.727910	0.379275	0.293579
C38	C	-0.227910	0.879275	0.793579
C39	C	-0.981431	0.571178	0.275154
C40	C	-0.481431	1.071178	0.775154
C41	C	-0.978256	0.648993	0.271962
C42	C	-0.478256	1.148993	0.771962
C43	C	-0.981360	0.396300	0.466246
C44	C	-0.481360	0.896300	0.966246
C45	C	-0.978104	0.399288	0.544477
C46	C	-0.478104	0.899288	1.044477
C47	C	-1.172578	0.396345	0.275002
C48	C	-0.672578	0.896345	0.775002
C49	C	-1.250807	0.399352	0.271737
C50	C	-0.750807	0.899352	0.771737
C51	C	-0.287555	0.357784	0.317123
C52	C	0.212445	0.857784	0.817123
C53	C	-0.361061	0.360605	0.314035
C54	C	0.138939	0.860605	0.814035
C55	C	-0.397816	0.404991	0.265558
C56	C	0.102184	0.904991	0.765558
C57	C	-0.361062	0.446563	0.220170
C58	C	0.138938	0.946563	0.720170
C59	C	-0.287558	0.443745	0.223261
C60	C	0.212442	0.943745	0.723261
C61	C	-0.617651	0.418030	0.251282
C62	C	-0.117651	0.918030	0.751282
C63	C	-0.691161	0.420843	0.248193
C64	C	-0.191161	0.920843	0.748193
C65	C	-0.691154	0.334885	0.342059
C66	C	-0.191154	0.834885	0.842059
C67	C	-0.617649	0.332069	0.345144
C68	C	-0.117649	0.832069	0.845144
C69	C	-0.580901	0.373644	0.299758
C70	C	-0.080901	0.873644	0.799758
N71	N	-0.472951	0.407873	0.262399
N72	N	0.027049	0.907873	0.762399
N73	N	-0.505767	0.370764	0.302921
N74	N	-0.005767	0.870764	0.802921
C75	C	-1.019866	0.688939	0.313634
C76	C	-0.519866	1.188939	0.813634
C77	C	-1.016880	0.762055	0.310636
C78	C	-0.516880	1.262055	0.810636
C79	C	-0.972287	0.795223	0.265963
C80	C	-0.472287	1.295223	0.765963
C81	C	-0.930672	0.755272	0.224290
C82	C	-0.430672	1.255272	0.724290
C83	C	-0.933655	0.682157	0.227292
C84	C	-0.433655	1.182157	0.727292
C85	C	-0.961120	1.015812	0.254742
C86	C	-0.461120	1.515812	0.754742
C87	C	-0.958142	1.088932	0.251742
C88	C	-0.458142	1.588932	0.751742
C89	C	-1.044349	1.095710	0.338089
C90	C	-0.544349	1.595710	0.838089
C91	C	-1.047331	1.022593	0.341084
C92	C	-0.547331	1.522593	0.841084
C93	C	-1.005714	0.982649	0.299414
C94	C	-0.505714	1.482649	0.799414
C95	C	-0.969235	0.869959	0.262896
C96	C	-0.469235	1.369959	0.762896
C97	C	-1.008762	0.907914	0.302485
C98	C	-0.508762	1.407914	0.802485
C99	C	-0.996591	1.206693	0.290212
C100	C	-0.496591	1.706693	0.790212
C101	C	-0.999751	1.128878	0.293413
C102	C	-0.499751	1.628878	0.793413
C103	C	-0.996657	0.382259	0.099798
C104	C	-0.496657	0.882259	0.599798
C105	C	-1.000058	0.379080	0.021569
C106	C	-0.500058	0.879080	0.521569
C107	C	-1.023450	0.357652	0.581205
C108	C	-0.523450	0.857652	1.081205
C109	C	-1.020381	0.360456	0.654712
C110	C	-0.520381	0.860456	1.154712
C111	C	-0.971970	0.404899	0.691490
C112	C	-0.471970	0.904899	1.191490
C113	C	-0.926619	0.446536	0.654757
C114	C	-0.426619	0.946536	1.154757
C115	C	-0.929684	0.443728	0.581251
C116	C	-0.429684	0.943728	1.081251
C117	C	-0.957772	0.417909	0.911331
C118	C	-0.457772	0.917909	1.411331
C119	C	-0.954711	0.420715	0.984841
C120	C	-0.454711	0.920715	1.484841
C121	C	-1.048473	0.334634	0.984791
C122	C	-0.548473	0.834634	1.484791
C123	C	-1.051537	0.331833	0.911284
C124	C	-0.551537	0.831833	1.411284
C125	C	-1.006184	0.373467	0.874558
C126	C	-0.506184	0.873467	1.374558
N127	N	-0.968834	0.407768	0.766626
N128	N	-0.468834	0.907768	1.266626
N129	N	-1.009317	0.370594	0.799424
N130	N	-0.509317	0.870594	1.299424
H131	H	-0.257635	0.321636	0.356595
H132	H	0.242365	0.821636	0.856595
H133	H	-0.390978	0.326759	0.350996
H134	H	0.109022	0.826759	0.850996
H135	H	-0.587727	0.295928	0.384622
H136	H	-0.087727	0.795928	0.884622
H137	H	-1.085396	0.300737	1.014702
H138	H	-0.585396	0.800737	1.514702
C139	C	-0.770328	0.517776	0.230899
C140	C	-0.270328	1.017776	0.730899
C141	C	-0.731570	0.469636	0.194906
C142	C	-0.231570	0.969636	0.694906
H143	H	-0.795279	0.547892	0.198002
H144	H	-0.295279	1.047892	0.698002
H145	H	-0.739273	0.544674	0.261609
H146	H	-0.239273	1.044674	0.761609
H147	H	-0.802727	0.493408	0.257485
H148	H	-0.302727	0.993408	0.757485
H149	H	-0.699167	0.494004	0.168323
H150	H	-0.199167	0.994004	0.668323
H151	H	-0.762628	0.442734	0.164184
H152	H	-0.262628	0.942734	0.664184
H153	H	-0.390994	0.482705	0.180701
H154	H	0.109006	0.982705	0.680701
C155	C	-0.803828	0.301041	0.379006
C156	C	-0.303828	0.801041	0.879006
C157	C	-0.731549	0.289195	0.391952
C158	C	-0.231549	0.789195	0.891952
H159	H	-0.828763	0.272837	0.409814
H160	H	-0.328763	0.772837	0.909814
H161	H	-0.818254	0.289372	0.331661
H162	H	-0.318254	0.789372	0.831661
H163	H	-0.813485	0.348949	0.386776
H164	H	-0.313485	0.848949	0.886776
H165	H	-0.721891	0.241289	0.384176
H166	H	-0.221891	0.741289	0.884176
H167	H	-0.717117	0.300860	0.439308
H168	H	-0.217117	0.800860	0.939308
C169	C	-0.625052	0.503265	0.158180
C170	C	-0.125052	1.003265	0.658180
C171	C	-0.577265	0.463719	0.201386
C172	C	-0.077265	0.963719	0.701386
H173	H	-0.600116	0.531468	0.127371
H174	H	-0.100116	1.031468	0.627371
H175	H	-0.651337	0.532361	0.186485
H176	H	-0.151337	1.032361	0.686485
H177	H	-0.656105	0.472782	0.131372
H178	H	-0.156105	0.972782	0.631372
H179	H	-0.546215	0.494203	0.228198
H180	H	-0.046215	0.994203	0.728198
H181	H	-0.550968	0.434620	0.173078
H182	H	-0.050968	0.934620	0.673078
C183	C	-0.294943	0.528988	0.130164
C184	C	0.205057	1.028988	0.630164
C185	C	-0.247161	0.489436	0.173370
C186	C	0.252839	0.989436	0.673370
H187	H	-0.270003	0.557194	0.099362
H188	H	0.229997	1.057194	0.599362
H189	H	-0.321230	0.558081	0.158470
H190	H	0.178770	1.058081	0.658470
H191	H	-0.325995	0.498509	0.103349
H192	H	0.174005	0.998509	0.603349
H193	H	-0.216112	0.519915	0.200189
H194	H	0.283888	1.019915	0.700189
H195	H	-0.220862	0.460340	0.145060
H196	H	0.279138	0.960340	0.645060
C197	C	-1.111998	0.357519	0.733850
C198	C	-0.611998	0.857519	1.233850
C199	C	-1.070218	0.314687	0.695092
C200	C	-0.570218	0.814687	1.195092
H201	H	-1.142759	0.329259	0.758784
H202	H	-0.642759	0.829259	1.258784
H203	H	-1.138849	0.387951	0.702796
H204	H	-0.638849	0.887951	1.202796
H205	H	-1.082716	0.384389	0.766265
H206	H	-0.582716	0.884389	1.266265
H207	H	-1.099499	0.287822	0.662673
H208	H	-0.599499	0.787822	1.162673
H209	H	-1.043364	0.284244	0.726149
H210	H	-0.543364	0.784244	1.226149
H211	H	-0.921825	1.115935	0.215363
H212	H	-0.421825	1.615935	0.715363
H213	H	-0.920852	0.451821	0.881436
H214	H	-0.420852	0.951821	1.381436
C215	C	-0.862327	0.505516	0.977512
C216	C	-0.362327	1.005516	1.477512
C217	C	-0.901491	0.469567	1.025269
C218	C	-0.401491	0.969567	1.525269
H219	H	-0.829472	0.535671	1.002473
H220	H	-0.329472	1.035671	1.502473
H221	H	-0.893065	0.532379	0.946456
H222	H	-0.393065	1.032379	1.446456
H223	H	-0.837875	0.472876	0.951227
H224	H	-0.337875	0.972876	1.451227
H225	H	-0.925947	0.502207	1.051551
H226	H	-0.425947	1.002207	1.551551
H227	H	-0.870749	0.442703	1.056338
H228	H	-0.370749	0.942703	1.556338
H229	H	-1.056182	0.661938	0.350008
H230	H	-0.556182	1.161938	0.850008
H231	H	-0.887199	0.482720	0.684707
H232	H	-0.387199	0.982720	1.184707
H233	H	-1.045067	0.880906	0.338861
H234	H	-0.545067	1.380906	0.838861
C235	C	-1.129847	1.095064	0.423752
C236	C	-0.629847	1.595064	0.923752
C237	C	-1.090080	1.139618	0.383904
C238	C	-0.590080	1.639618	0.883904
H239	H	-1.158079	1.122172	0.452037
H240	H	-0.658079	1.622172	0.952037
H241	H	-1.099200	1.066411	0.453091
H242	H	-0.599200	1.566411	0.953091
H243	H	-1.159239	1.066401	0.393149
H244	H	-0.659239	1.566401	0.893149
H245	H	-1.060684	1.168278	0.414507
H246	H	-0.560684	1.668278	0.914507
H247	H	-1.120731	1.168283	0.354563
H248	H	-0.620731	1.668283	0.854563
C249	C	-1.102417	0.761410	0.396260
C250	C	-0.602417	1.261410	0.896260
C251	C	-1.062635	0.805963	0.356427
C252	C	-0.562635	1.305963	0.856427
H253	H	-1.130671	0.788519	0.424523
H254	H	-0.630671	1.288519	0.924523
H255	H	-1.071779	0.732768	0.425620
H256	H	-0.571779	1.232768	0.925620
H257	H	-1.131788	0.732737	0.365648
H258	H	-0.631788	1.232737	0.865648
H259	H	-1.033259	0.834634	0.387038
H260	H	-0.533259	1.334634	0.887038
H261	H	-1.093276	0.834618	0.327064
H262	H	-0.593276	1.334618	0.827064
C263	C	-1.056450	0.944317	0.438742
C264	C	-0.556450	1.444317	0.938742
C265	C	-1.096347	0.986139	0.390194
C266	C	-0.596347	1.486139	0.890194
H267	H	-1.086714	0.921810	0.469056
H268	H	-0.586714	1.421810	0.969056
H269	H	-1.023485	0.972707	0.465746
H270	H	-0.523485	1.472707	0.965746
H271	H	-1.032100	0.910062	0.414346
H272	H	-0.532100	1.410062	0.914346
H273	H	-1.120693	1.020398	0.414590
H274	H	-0.620693	1.520398	0.914590
H275	H	-1.129324	0.957748	0.363187
H276	H	-0.629324	1.457748	0.863187
C277	C	-0.875626	1.016467	0.169075
C278	C	-0.375626	1.516467	0.669075
C279	C	-0.915387	0.971911	0.208926
C280	C	-0.415387	1.471911	0.708926
H281	H	-0.847397	0.989360	0.140784
H282	H	-0.347397	1.489360	0.640784
H283	H	-0.846237	1.045128	0.199671
H284	H	-0.346237	1.545128	0.699671
H285	H	-0.906282	1.045121	0.139736
H286	H	-0.406282	1.545121	0.639736
H287	H	-0.884731	0.943259	0.238270
H288	H	-0.384731	1.443259	0.738270
H289	H	-0.944779	0.943237	0.178327
H290	H	-0.444779	1.443237	0.678327
C291	C	-0.887828	0.864340	0.181340
C292	C	-0.387828	1.364340	0.681340
C293	C	-0.881657	0.791729	0.175181
C294	C	-0.381657	1.291729	0.675181
H295	H	-0.857572	0.886844	0.151016
H296	H	-0.357572	1.386844	0.651016
H297	H	-0.875030	0.877721	0.228555
H298	H	-0.375030	1.377721	0.728555
H299	H	-0.935069	0.877698	0.168614
H300	H	-0.435069	1.377698	0.668614
H301	H	-0.834417	0.778370	0.187912
H302	H	-0.334417	1.278370	0.687912
H303	H	-0.894451	0.778342	0.127955
H304	H	-0.394451	1.278342	0.627955
C305	C	-1.143902	0.247020	0.918622
C306	C	-0.643902	0.747020	1.418622
C307	C	-1.104749	0.282976	0.870861
C308	C	-0.604749	0.782976	1.370861
H309	H	-1.176751	0.216856	0.893665
H310	H	-0.676751	0.716856	1.393665
H311	H	-1.168356	0.279650	0.944906
H312	H	-0.668356	0.779650	1.444906
H313	H	-1.113152	0.220160	0.949680
H314	H	-0.613152	0.720160	1.449680
H315	H	-1.135499	0.309841	0.839806
H316	H	-0.635499	0.809841	1.339806
H317	H	-1.080295	0.250342	0.844565
H318	H	-0.580295	0.750342	1.344565
H319	H	-0.892752	0.477624	0.551349
H320	H	-0.392752	0.977624	1.051349
C321	C	-1.115814	0.272842	0.588547
C322	C	-0.615814	0.772842	1.088547
C323	C	-1.076664	0.308797	0.540782
C324	C	-0.576664	0.808797	1.040782
H325	H	-1.148663	0.242676	0.563592
H326	H	-0.648663	0.742676	1.063592
H327	H	-1.140267	0.305472	0.614830
H328	H	-0.640267	0.805472	1.114830
H329	H	-1.085062	0.245984	0.619605
H330	H	-0.585062	0.745984	1.119605
H331	H	-1.107416	0.335659	0.509728
H332	H	-0.607416	0.835659	1.009728
H333	H	-1.052209	0.276162	0.514487
H334	H	-0.552209	0.776162	1.014487
H335	H	-0.899771	0.649634	0.193359
H336	H	-0.399771	1.149634	0.693359
H337	H	-0.932929	0.896973	0.226520
H338	H	-0.432929	1.396973	0.726520
