data_functionalizedCrystal
_audit_creation_method	'MofGen! by Chris Wilmer'
_symmetry_space_group_name_H-M	'P1'
_symmetry_Int_Tables_number	1
_symmetry_cell_setting	triclinic
loop_
_symmetry_equiv_pos_as_xyz
  x,y,z
_cell_length_a	15.625110
_cell_length_b	17.019294
_cell_length_c	14.750779
_cell_angle_alpha	73.621426
_cell_angle_beta	120.099500
_cell_angle_gamma	85.046811
loop_
_atom_site_label
_atom_site_type_symbol
_atom_site_fract_x
_atom_site_fract_y
_atom_site_fract_z
O1	O	1.285854	0.024675	0.365803
O2	O	0.998077	0.059002	0.262775
O3	O	1.152584	-0.075862	0.327720
O4	O	1.131346	0.159539	0.300858
O5	O	1.196261	-0.113983	0.505729
O6	O	1.041754	0.020881	0.440784
O7	O	1.329531	-0.013446	0.543812
Zn8	Zn	1.192577	-0.002335	0.520561
Zn9	Zn	1.135031	0.047891	0.286026
O10	O	1.175024	0.121418	0.478867
C11	C	0.983141	0.042166	0.338793
C12	C	0.873566	0.048785	0.300096
C13	C	1.174479	-0.124846	0.419216
C14	C	1.174634	-0.214008	0.426638
C15	C	0.695316	0.078893	0.148530
C16	C	0.798281	0.072671	0.184902
C17	C	0.845905	0.031116	0.378963
C18	C	0.742941	0.037339	0.342607
C19	C	0.667653	0.061227	0.227389
C20	C	0.715279	0.019673	0.421465
C21	C	0.612324	0.025891	0.385112
C22	C	0.537031	0.049775	0.269899
C23	C	0.564699	0.067445	0.191035
C24	C	0.790569	-0.004221	0.536684
C25	C	0.762907	-0.021887	0.615543
C26	C	0.659949	-0.015663	0.579189
C27	C	0.584657	0.008221	0.463976
C28	C	0.632282	-0.033333	0.658053
C29	C	0.529327	-0.027115	0.621699
C30	C	0.481702	0.014439	0.427622
C31	C	1.150902	-0.235112	0.333094
C32	C	1.151042	-0.318888	0.340068
C33	C	1.174923	-0.381560	0.440591
C34	C	1.198655	-0.360451	0.534141
C35	C	1.198507	-0.276674	0.527163
C36	C	1.176555	-0.635549	0.466512
C37	C	1.176704	-0.719330	0.473484
C38	C	1.129089	-0.677761	0.279410
C39	C	1.128949	-0.593986	0.272443
C40	C	1.152676	-0.572883	0.365991
C41	C	1.175071	-0.467194	0.447723
C42	C	1.152521	-0.487249	0.358855
C43	C	1.344466	0.003390	0.467792
C44	C	1.454040	-0.003227	0.506481
C45	C	1.153128	0.170403	0.387368
C46	C	1.152971	0.259566	0.379940
N47	N	1.231858	-0.036613	0.680627
N48	N	1.095757	0.082162	0.125963
C49	C	0.986051	0.177862	0.929131
C50	C	1.013584	0.153847	1.041201
C51	C	1.150427	0.034463	1.098679
C52	C	1.122902	0.058466	0.986610
C53	C	1.040714	0.130167	0.901844
C54	C	1.177565	0.010771	0.959323
C55	C	1.150046	0.034775	0.847265
C56	C	1.067863	0.106474	0.762493
C57	C	1.013195	0.154171	0.789785
C58	C	1.259758	-0.060927	1.044092
C59	C	1.314421	-0.108622	1.016805
C60	C	1.286897	-0.084622	0.904744
C61	C	1.204714	-0.012922	0.819972
C62	C	1.341566	-0.132318	0.877452
C63	C	1.314046	-0.108314	0.765393
C64	C	1.177195	0.011082	0.707914
H65	H	0.420395	0.033901	0.333799
H66	H	1.109771	-0.694953	0.203247
O67	O	1.221832	-0.421216	0.631859
C68	C	1.242772	-0.384625	0.712936
H69	H	1.204365	-0.313146	0.668141
H70	H	1.329440	-0.396469	0.770849
C71	C	1.247623	-0.513007	0.838800
C72	C	1.200444	-0.425215	0.783781
H73	H	1.221518	-0.538046	0.882504
H74	H	1.233520	-0.537661	0.784179
H75	H	1.319845	-0.522864	0.887051
H76	H	1.128226	-0.415359	0.735520
H77	H	1.214534	-0.400561	0.838396
O78	O	1.127514	-0.174238	0.235350
C79	C	1.027399	-0.166586	0.146918
H80	H	0.981496	-0.190934	0.183881
H81	H	1.032009	-0.205771	0.097506
C82	C	1.030197	-0.042499	0.021739
C83	C	0.973815	-0.072397	0.067137
H84	H	0.997145	0.015601	-0.027478
H85	H	1.097648	-0.047656	0.081315
H86	H	1.034035	-0.075161	-0.019430
H87	H	0.969990	-0.039742	0.108316
H88	H	0.906362	-0.067232	0.007565
H89	H	1.194518	-0.518231	0.529570
H90	H	0.969064	0.192693	1.063408
H91	H	0.693597	-0.052791	0.751865
O92	O	0.919154	0.007814	0.490867
C93	C	0.992943	-0.067509	0.528010
H94	H	0.991967	-0.073900	0.452640
H95	H	0.973997	-0.124709	0.569101
C96	C	1.101658	-0.056036	0.707460
C97	C	1.100464	-0.063882	0.614890
H98	H	1.167982	-0.053802	0.761055
H99	H	1.051943	-0.005292	0.682438
H100	H	1.085864	-0.103704	0.741688
H101	H	1.116245	-0.016209	0.580655
H102	H	1.150184	-0.114619	0.639908
H103	H	1.045461	0.126019	0.671250
H104	H	1.408490	-0.190693	0.946484
H105	H	1.217819	-0.259492	0.603332
H106	H	1.358560	-0.147153	0.743179
O107	O	1.200086	-0.780270	0.571186
C108	C	1.287267	-0.845479	0.612120
H109	H	1.333578	-0.819267	0.576679
H110	H	1.261626	-0.899890	0.584319
C111	C	1.297698	-0.910808	0.785792
C112	C	1.354583	-0.878613	0.742271
H113	H	1.339220	-0.931250	0.866075
H114	H	1.238960	-0.866878	0.758214
H115	H	1.276334	-0.956147	0.762614
H116	H	1.375935	-0.833269	0.765437
H117	H	1.413326	-0.922537	0.769856
O118	O	1.199514	-0.615147	0.557424
C119	C	1.128359	-0.632742	0.587056
H120	H	1.093114	-0.682477	0.554142
H121	H	1.064992	-0.571851	0.547925
C122	C	1.227128	-0.605946	0.757173
C123	C	1.183847	-0.667037	0.716755
H124	H	1.261353	-0.627098	0.837176
H125	H	1.275065	-0.594089	0.737208
H126	H	1.174315	-0.555209	0.724553
H127	H	1.236661	-0.717769	0.749364
H128	H	1.135920	-0.678904	0.736728
H129	H	0.946262	0.212552	0.720761
O130	O	0.622306	0.102085	0.036567
C131	C	0.668788	0.116378	-0.025253
H132	H	0.753845	0.080090	0.032860
H133	H	0.660541	0.187383	-0.060745
C134	C	0.511335	0.129664	-0.194715
C135	C	0.615802	0.085088	-0.123342
H136	H	0.478649	0.110367	-0.255224
H137	H	0.480018	0.120038	-0.153068
H138	H	0.504477	0.188832	-0.224280
H139	H	0.622659	0.025923	-0.093768
H140	H	0.647120	0.094703	-0.164987
H141	H	1.133070	-0.436218	0.277007
H142	H	1.110263	0.069463	0.638890
O143	O	0.502618	-0.044267	0.698443
C144	C	0.591148	-0.066703	0.807934
H145	H	0.652871	-0.039284	0.801642
H146	H	0.621299	-0.139030	0.851174
C147	C	0.487938	-0.064224	0.885351
C148	C	0.563744	-0.030542	0.877624
H149	H	0.471034	-0.041922	0.928343
H150	H	0.428293	-0.049112	0.811586
H151	H	0.513074	-0.124496	0.921382
H152	H	0.538603	0.029727	0.841582
H153	H	0.623384	-0.045643	0.951385
H154	H	0.919118	0.236243	0.860107
O155	O	1.128154	-0.339532	0.249338
C156	C	1.212512	-0.402247	0.278705
H157	H	1.261757	-0.437995	0.374376
H158	H	1.260708	-0.370573	0.249921
C159	C	1.112551	-0.421346	0.102926
C160	C	1.173029	-0.465257	0.220430
H161	H	1.088197	-0.460211	0.066976
H162	H	1.055717	-0.379091	0.083138
H163	H	1.152723	-0.394953	0.078955
H164	H	1.132853	-0.491639	0.244401
H165	H	1.229855	-0.507517	0.240221
O166	O	1.230204	-0.035184	1.181152
C167	C	1.242792	-0.046131	1.285916
H168	H	1.167352	-0.013501	1.270700
H169	H	1.305534	-0.016750	1.333835
C170	C	1.366354	-0.181931	1.374866
C171	C	1.273694	-0.141861	1.356178
H172	H	1.385420	-0.240981	1.418210
H173	H	1.357877	-0.174555	1.304286
H174	H	1.418628	-0.157438	1.414794
H175	H	1.221419	-0.166346	1.316239
H176	H	1.282163	-0.149243	1.426753
O177	O	0.436966	0.055955	0.234427
C178	C	0.376690	0.139905	0.158779
H179	H	0.417845	0.171947	0.119641
H180	H	0.364492	0.177219	0.206458
C181	C	0.221184	0.098564	0.112679
C182	C	0.271728	0.137916	0.064601
H183	H	0.156437	0.097338	0.054588
H184	H	0.261792	0.042006	0.163647
H185	H	0.211029	0.129664	0.152410
H186	H	0.281893	0.106809	0.024883
H187	H	0.231119	0.194468	0.013624
H188	H	1.109504	-0.542963	0.190587
H189	H	1.282164	-0.080465	1.135336
O190	O	1.394128	-0.178351	1.099159
C191	C	1.358340	-0.237920	1.149783
H192	H	1.272218	-0.226249	1.088566
H193	H	1.373426	-0.230544	1.230588
C194	C	1.520978	-0.343050	1.253810
C195	C	1.415204	-0.328721	1.178618
H196	H	1.556057	-0.399061	1.271602
H197	H	1.545092	-0.302917	1.219707
H198	H	1.533536	-0.336899	1.321138
H199	H	1.402647	-0.334862	1.111286
H200	H	1.391089	-0.368857	1.212709
H201	H	0.820795	0.087064	0.120676
H202	H	0.874400	-0.009282	0.566279
H203	H	0.503392	0.086907	0.097212
H204	H	0.824219	-0.041340	0.709354
