data_functionalizedCrystal
_audit_creation_method	'MofGen! by Chris Wilmer'
_symmetry_space_group_name_H-M	'P1'
_symmetry_Int_Tables_number	1
_symmetry_cell_setting	triclinic
loop_
_symmetry_equiv_pos_as_xyz
  x,y,z
_cell_length_a	27.732048
_cell_length_b	27.732048
_cell_length_c	13.596369
_cell_angle_alpha	89.989067
_cell_angle_beta	90.000164
_cell_angle_gamma	82.642655
loop_
_atom_site_label
_atom_site_type_symbol
_atom_site_fract_x
_atom_site_fract_y
_atom_site_fract_z
O1	O	0.640928	0.057518	-0.081675
O2	O	0.974261	0.390851	0.251658
O3	O	1.307594	0.724184	0.584992
O4	O	0.500134	0.066263	-0.081706
O5	O	0.833467	0.399597	0.251627
O6	O	1.166801	0.732930	0.584960
O7	O	0.574904	-0.008506	-0.081671
O8	O	0.908237	0.324827	0.251662
O9	O	1.241570	0.658160	0.584996
O10	O	0.566158	0.132287	-0.081710
O11	O	0.899491	0.465621	0.251623
O12	O	1.232825	0.798954	0.584956
O13	O	0.574896	-0.008510	0.081912
O14	O	0.908230	0.324823	0.415245
O15	O	1.241563	0.658157	0.748579
O16	O	0.500127	0.066259	0.081877
O17	O	0.833460	0.399593	0.415210
O18	O	1.166793	0.732926	0.748543
O19	O	0.640920	0.057514	0.081908
O20	O	0.974254	0.390847	0.415241
O21	O	1.307587	0.724181	0.748574
Zn22	Zn	0.570522	0.061886	0.107864
Zn23	Zn	0.903856	0.395219	0.441198
Zn24	Zn	1.237189	0.728553	0.774531
Zn25	Zn	0.570532	0.061891	-0.107663
Zn26	Zn	0.903865	0.395224	0.225670
Zn27	Zn	1.237199	0.728558	0.559004
O28	O	0.566151	0.132283	0.081872
O29	O	0.899484	0.465617	0.415206
O30	O	1.232817	0.798950	0.748539
C31	C	0.482124	0.066078	0.000081
C32	C	0.815457	0.399411	0.333415
C33	C	1.148790	0.732744	0.666748
C34	C	0.428469	0.065525	0.000070
C35	C	0.761802	0.398858	0.333404
C36	C	1.095135	0.732192	0.666737
C37	C	0.574716	-0.026515	0.000123
C38	C	0.908050	0.306818	0.333456
C39	C	1.241383	0.640152	0.666790
C40	C	0.574164	-0.080170	0.000131
C41	C	0.907497	0.253163	0.333464
C42	C	1.240830	0.586497	0.666798
C43	C	0.089654	0.106229	0.000101
C44	C	0.422987	0.439562	0.333435
C45	C	0.756320	0.772895	0.666768
C46	C	-0.112006	0.104178	0.000111
C47	C	0.221327	0.437511	0.333444
C48	C	0.554661	0.770844	0.666777
O49	O	-0.143262	0.141398	0.000143
O50	O	0.190072	0.474732	0.333476
O51	O	0.523405	0.808065	0.666810
N52	N	-0.131130	0.059843	0.000121
N53	N	0.202204	0.393176	0.333455
N54	N	0.535537	0.726509	0.666788
C55	C	-0.099835	0.016017	0.000136
C56	C	0.233498	0.349350	0.333470
C57	C	0.566832	0.682684	0.666803
O58	O	-0.120728	-0.021740	0.000156
O59	O	0.212605	0.311593	0.333489
O60	O	0.545938	0.644927	0.666822
C61	C	0.101824	0.018068	0.000134
C62	C	0.435157	0.351402	0.333467
C63	C	0.768490	0.684735	0.666801
C64	C	0.120944	0.062407	0.000113
C65	C	0.454278	0.395740	0.333447
C66	C	0.787611	0.729073	0.666780
C67	C	0.108775	0.150563	0.000082
C68	C	0.442108	0.483897	0.333415
C69	C	0.775442	0.817230	0.666749
C70	C	0.159187	0.151075	0.000074
C71	C	0.492520	0.484409	0.333408
C72	C	0.825853	0.817742	0.666741
C73	C	0.190477	0.107253	0.000086
C74	C	0.523811	0.440587	0.333419
C75	C	0.857144	0.773920	0.666753
C76	C	0.171356	0.062919	0.000106
C77	C	0.504690	0.396252	0.333439
C78	C	0.838023	0.729585	0.666772
C79	C	0.133117	-0.025757	0.000156
C80	C	0.466451	0.307577	0.333489
C81	C	0.799784	0.640910	0.666822
C82	C	0.183535	-0.025240	0.000158
C83	C	0.516868	0.308094	0.333491
C84	C	0.850201	0.641427	0.666824
C85	C	0.202655	0.019098	0.000137
C86	C	0.535989	0.352432	0.333470
C87	C	0.869322	0.685765	0.666804
C88	C	0.253059	0.019609	0.000110
C89	C	0.586392	0.352942	0.333443
C90	C	0.919725	0.686276	0.666776
N91	N	0.272183	0.063944	0.000099
N92	N	0.605516	0.397277	0.333432
N93	N	0.938849	0.730611	0.666766
C94	C	0.240892	0.107766	0.000087
C95	C	0.574225	0.441100	0.333421
C96	C	0.907559	0.774433	0.666754
C97	C	-0.205709	0.014943	0.000136
C98	C	0.127624	0.348276	0.333469
C99	C	0.460957	0.681610	0.666802
C100	C	-0.256124	0.014430	0.000134
C101	C	0.077210	0.347763	0.333468
C102	C	0.410543	0.681097	0.666801
C103	C	-0.268291	0.102591	0.000111
C104	C	0.065042	0.435924	0.333444
C105	C	0.398376	0.769258	0.666777
C106	C	-0.217876	0.103104	0.000105
C107	C	0.115458	0.436437	0.333438
C108	C	0.448791	0.769770	0.666772
C109	C	-0.186585	0.059278	0.000125
C110	C	0.146748	0.392612	0.333458
C111	C	0.480081	0.725945	0.666792
C112	C	0.346761	0.108839	0.000070
C113	C	0.680094	0.442172	0.333404
C114	C	1.013428	0.775505	0.666737
C115	C	0.397178	0.109347	0.000058
C116	C	0.730511	0.442681	0.333392
C117	C	1.063845	0.776014	0.666725
C118	C	0.409341	0.021186	0.000087
C119	C	0.742674	0.354520	0.333421
C120	C	1.076008	0.687853	0.666754
C121	C	0.358929	0.020678	0.000094
C122	C	0.692262	0.354011	0.333427
C123	C	1.025595	0.687344	0.666760
C124	C	0.327639	0.064508	0.000089
C125	C	0.660973	0.397841	0.333422
C126	C	0.994306	0.731175	0.666755
O127	O	0.284343	-0.017592	0.000089
O128	O	0.617676	0.315741	0.333422
O129	O	0.951009	0.649075	0.666755
O130	O	0.261794	0.145518	0.000090
O131	O	0.595128	0.478851	0.333423
O132	O	0.928461	0.812184	0.666756
C133	C	0.039242	0.105716	0.000109
C134	C	0.372575	0.439050	0.333442
C135	C	0.705908	0.772383	0.666776
C136	C	0.020120	0.061382	0.000129
C137	C	0.353454	0.394715	0.333462
C138	C	0.686787	0.728049	0.666795
C139	C	0.051411	0.017560	0.000141
C140	C	0.384744	0.350893	0.333474
C141	C	0.718078	0.684226	0.666807
C142	C	-0.030294	0.060869	0.000128
C143	C	0.303039	0.394202	0.333461
C144	C	0.636373	0.727536	0.666794
C145	C	-0.061585	0.104691	0.000116
C146	C	0.271749	0.438025	0.333449
C147	C	0.605082	0.771358	0.666782
C148	C	-0.042461	0.149026	0.000105
C149	C	0.290872	0.482360	0.333438
C150	C	0.624206	0.815693	0.666772
C151	C	0.007951	0.149539	0.000097
C152	C	0.341284	0.482872	0.333431
C153	C	0.674618	0.816205	0.666764
C154	C	0.032287	-0.026775	0.000151
C155	C	0.365621	0.306558	0.333485
C156	C	0.698954	0.639891	0.666818
C157	C	-0.018125	-0.027284	0.000158
C158	C	0.315208	0.306049	0.333491
C159	C	0.648541	0.639383	0.666824
C160	C	-0.049416	0.016538	0.000146
C161	C	0.283917	0.349871	0.333479
C162	C	0.617251	0.683205	0.666813
C163	C	0.614867	-0.418985	0.000090
C164	C	0.948201	-0.085652	0.333423
C165	C	1.281534	0.247682	0.666756
C166	C	0.612816	-0.620645	0.000075
C167	C	0.946150	-0.287311	0.333409
C168	C	1.279483	0.046022	0.666742
O169	O	0.650037	-0.651900	0.000041
O170	O	0.983370	-0.318567	0.333374
O171	O	1.316704	0.014766	0.666707
N172	N	0.568481	-0.639768	0.000067
N173	N	0.901814	-0.306435	0.333400
N174	N	1.235148	0.026898	0.666733
C175	C	0.524656	-0.608474	0.000055
C176	C	0.857989	-0.275140	0.333388
C177	C	1.191322	0.058193	0.666721
O178	O	0.486899	-0.629367	0.000037
O179	O	0.820232	-0.296033	0.333370
O180	O	1.153565	0.037300	0.666703
C181	C	0.526707	-0.406815	0.000062
C182	C	0.860040	-0.073482	0.333395
C183	C	1.193374	0.259852	0.666728
C184	C	0.571045	-0.387694	0.000081
C185	C	0.904378	-0.054361	0.333414
C186	C	1.237712	0.278972	0.666747
C187	C	0.659202	-0.399864	0.000107
C188	C	0.992535	-0.066530	0.333441
C189	C	1.325868	0.266803	0.666774
C190	C	0.659714	-0.349452	0.000116
C191	C	0.993047	-0.016118	0.333450
C192	C	1.326381	0.317215	0.666783
C193	C	0.615892	-0.318161	0.000107
C194	C	0.949225	0.015172	0.333441
C195	C	1.282559	0.348506	0.666774
C196	C	0.571557	-0.337282	0.000090
C197	C	0.904891	-0.003949	0.333423
C198	C	1.238224	0.329384	0.666756
C199	C	0.482882	-0.375521	0.000043
C200	C	0.816215	-0.042188	0.333376
C201	C	1.149549	0.291145	0.666710
C202	C	0.483399	-0.325104	0.000042
C203	C	0.816732	0.008229	0.333376
C204	C	1.150066	0.341563	0.666709
C205	C	0.527737	-0.305983	0.000061
C206	C	0.861070	0.027350	0.333394
C207	C	1.194404	0.360683	0.666728
C208	C	0.528247	-0.255580	0.000090
C209	C	0.861581	0.077754	0.333423
C210	C	1.194914	0.411087	0.666756
N211	N	0.572583	-0.236456	0.000099
N212	N	0.905916	0.096877	0.333432
N213	N	1.239249	0.430211	0.666765
C214	C	0.616405	-0.267747	0.000107
C215	C	0.949738	0.065587	0.333441
C216	C	1.283072	0.398920	0.666774
C217	C	0.523582	-0.714348	0.000053
C218	C	0.856915	-0.381014	0.333386
C219	C	1.190248	-0.047681	0.666720
C220	C	0.523069	-0.764762	0.000053
C221	C	0.856402	-0.431429	0.333386
C222	C	1.189735	-0.098096	0.666720
C223	C	0.611230	-0.776930	0.000072
C224	C	0.944563	-0.443596	0.333405
C225	C	1.277896	-0.110263	0.666738
C226	C	0.611742	-0.726514	0.000079
C227	C	0.945075	-0.393181	0.333412
C228	C	1.278409	-0.059848	0.666745
C229	C	0.567917	-0.695224	0.000062
C230	C	0.901250	-0.361891	0.333395
C231	C	1.234583	-0.028557	0.666728
C232	C	0.617477	-0.161878	0.000127
C233	C	0.950811	0.171456	0.333460
C234	C	1.284144	0.504789	0.666794
C235	C	0.617986	-0.111461	0.000140
C236	C	0.951319	0.221873	0.333473
C237	C	1.284652	0.555206	0.666807
C238	C	0.529825	-0.099298	0.000116
C239	C	0.863158	0.234036	0.333449
C240	C	1.196492	0.567369	0.666782
C241	C	0.529316	-0.149710	0.000108
C242	C	0.862650	0.183623	0.333441
C243	C	1.195983	0.516957	0.666775
C244	C	0.573147	-0.180999	0.000110
C245	C	0.906480	0.152334	0.333444
C246	C	1.239813	0.485667	0.666777
O247	O	0.491047	-0.224296	0.000113
O248	O	0.824380	0.109038	0.333447
O249	O	1.157713	0.442371	0.666780
O250	O	0.654156	-0.246844	0.000104
O251	O	0.987490	0.086489	0.333437
O252	O	1.320823	0.419823	0.666770
C253	C	0.614355	-0.469397	0.000081
C254	C	0.947688	-0.136064	0.333414
C255	C	1.281022	0.197270	0.666747
C256	C	0.570021	-0.488518	0.000063
C257	C	0.903354	-0.155185	0.333396
C258	C	1.236687	0.178148	0.666730
C259	C	0.526198	-0.457228	0.000054
C260	C	0.859532	-0.123894	0.333387
C261	C	1.192865	0.209439	0.666721
C262	C	0.569508	-0.538933	0.000063
C263	C	0.902841	-0.205599	0.333396
C264	C	1.236174	0.127734	0.666730
C265	C	0.613330	-0.570223	0.000072
C266	C	0.946663	-0.236890	0.333405
C267	C	1.279996	0.096443	0.666738
C268	C	0.657665	-0.551100	0.000081
C269	C	0.990998	-0.217766	0.333414
C270	C	1.324332	0.115567	0.666747
C271	C	0.658177	-0.500688	0.000090
C272	C	0.991511	-0.167354	0.333423
C273	C	1.324844	0.165979	0.666756
C274	C	0.481863	-0.476351	0.000045
C275	C	0.815197	-0.143018	0.333378
C276	C	1.148530	0.190315	0.666712
C277	C	0.481355	-0.526764	0.000037
C278	C	0.814688	-0.193430	0.333371
C279	C	1.148021	0.139903	0.666704
C280	C	0.525177	-0.558054	0.000046
C281	C	0.858510	-0.224721	0.333380
C282	C	1.191843	0.108612	0.666713
C283	C	0.658931	0.057699	0.000118
C284	C	0.992264	0.391033	0.333451
C285	C	1.325598	0.724366	0.666785
C286	C	0.712586	0.058252	0.000123
C287	C	1.045919	0.391586	0.333456
C288	C	1.379252	0.724919	0.666789
C289	C	0.566338	0.150292	0.000076
C290	C	0.899671	0.483626	0.333409
C291	C	1.233005	0.816959	0.666743
C292	C	0.566891	0.203947	0.000062
C293	C	0.900224	0.537280	0.333395
C294	C	1.233557	0.870614	0.666728
N295	N	0.570519	0.061882	0.254956
N296	N	0.903853	0.395216	0.588290
N297	N	1.237186	0.728549	0.921623
N298	N	0.570539	0.061891	-0.254755
N299	N	0.903872	0.395224	0.078578
N300	N	1.237206	0.728558	0.411912
C301	C	0.570531	0.061892	0.656247
C302	C	0.903865	0.395225	0.989581
C303	C	1.237198	0.728558	1.322914
C304	C	0.570527	0.061891	0.544596
C305	C	0.903860	0.395224	0.877929
C306	C	1.237193	0.728557	1.211263
C307	C	0.570526	0.061887	0.455605
C308	C	0.903859	0.395221	0.788939
C309	C	1.237192	0.728554	1.122272
C310	C	0.570520	0.061886	0.343947
C311	C	0.903854	0.395219	0.677280
C312	C	1.237187	0.728552	1.010614
H313	H	0.321291	0.144530	0.000069
H314	H	0.654624	0.477863	0.333402
H315	H	0.987957	0.811196	0.666736
O316	O	0.701290	-0.482198	0.000057
O317	O	1.034624	-0.148865	0.333391
O318	O	1.367957	0.184469	0.666724
C319	C	0.739853	-0.520634	0.000088
C320	C	1.073187	-0.187301	0.333421
C321	C	1.406520	0.146032	0.666754
H322	H	0.726560	-0.554781	-0.030886
H323	H	1.059893	-0.221448	0.302447
H324	H	1.393227	0.111885	0.635780
H325	H	0.770835	-0.510325	-0.047398
H326	H	1.104168	-0.176992	0.285935
H327	H	1.437501	0.156342	0.619268
H328	H	0.753349	-0.527877	0.078569
H329	H	1.086682	-0.194544	0.411902
H330	H	1.420016	0.138789	0.745236
H331	H	-0.202311	0.139207	0.000094
H332	H	0.131022	0.472541	0.333427
H333	H	0.464355	0.805874	0.666760
H334	H	0.174750	0.187180	0.000057
H335	H	0.508083	0.520513	0.333390
H336	H	0.841417	0.853847	0.666724
O337	O	0.415670	0.152462	0.000085
O338	O	0.749004	0.485795	0.333418
O339	O	1.082337	0.819129	0.666752
C340	C	0.377238	0.191029	0.000055
C341	C	0.710571	0.524362	0.333388
C342	C	1.043904	0.857696	0.666721
H343	H	0.343087	0.177738	0.031033
H344	H	0.676420	0.511071	0.364367
H345	H	1.009754	0.844404	0.697700
H346	H	0.387548	0.222006	0.047537
H347	H	0.720881	0.555339	0.380870
H348	H	1.054215	0.888672	0.714203
H349	H	0.370001	0.204530	-0.078427
H350	H	0.703334	0.537863	0.254906
H351	H	1.036668	0.871196	0.588239
H352	H	0.446177	-0.450879	0.000036
H353	H	0.779510	-0.117545	0.333369
H354	H	1.112844	0.215788	0.666702
H355	H	0.117558	-0.061861	0.000173
H356	H	0.450892	0.271472	0.333507
H357	H	0.784225	0.604805	0.666840
H358	H	0.434827	-0.014492	0.000093
H359	H	0.768160	0.318841	0.333426
H360	H	1.101494	0.652174	0.666760
O361	O	0.078452	0.193180	0.000023
O362	O	0.411785	0.526513	0.333357
O363	O	0.745119	0.859847	0.666690
C364	C	0.106150	0.232414	0.000033
C365	C	0.439484	0.565748	0.333366
C366	C	0.772817	0.899081	0.666699
H367	H	0.143871	0.219848	-0.030926
H368	H	0.477204	0.553182	0.302408
H369	H	0.810537	0.886515	0.635741
H370	H	0.087336	0.263097	-0.047477
H371	H	0.420669	0.596431	0.285857
H372	H	0.754003	0.929764	0.619190
H373	H	0.109641	0.246023	0.078506
H374	H	0.442975	0.579357	0.411839
H375	H	0.776308	0.912690	0.745172
O376	O	0.661070	-0.092911	-0.000020
O377	O	0.994404	0.240422	0.333313
O378	O	1.327737	0.573756	0.666646
C379	C	0.687768	-0.108933	-0.084726
C380	C	1.021101	0.224400	0.248608
C381	C	1.354435	0.557734	0.581941
H382	H	0.661837	-0.119222	-0.143948
H383	H	0.995170	0.214111	0.189385
H384	H	1.328503	0.547445	0.522719
H385	H	0.708103	-0.078537	-0.113155
H386	H	1.041436	0.254797	0.220179
H387	H	1.374770	0.588130	0.553512
H388	H	0.714953	-0.141995	-0.065571
H389	H	1.048286	0.191339	0.267762
H390	H	1.381619	0.524672	0.601096
O391	O	0.026441	0.192652	0.000127
O392	O	0.359774	0.525985	0.333461
O393	O	0.693107	0.859318	0.666794
C394	C	-0.011996	0.231215	0.000094
C395	C	0.321338	0.564548	0.333428
C396	C	0.654671	0.897881	0.666761
H397	H	-0.046146	0.217919	0.031068
H398	H	0.287188	0.551253	0.364402
H399	H	0.620521	0.884586	0.697735
H400	H	-0.001691	0.262193	0.047578
H401	H	0.331643	0.595526	0.380912
H402	H	0.664976	0.928860	0.714245
H403	H	-0.019232	0.244715	-0.078388
H404	H	0.314102	0.578049	0.254945
H405	H	0.647435	0.911382	0.588279
H406	H	-0.293777	0.138273	0.000101
H407	H	0.039557	0.471606	0.333435
H408	H	0.372890	0.804939	0.666768
H409	H	0.487892	-0.688875	0.000039
H410	H	0.821225	-0.355542	0.333373
H411	H	1.154558	-0.022208	0.666706
H412	H	0.447710	-0.299629	0.000027
H413	H	0.781043	0.033704	0.333360
H414	H	1.114377	0.367037	0.666694
H415	H	0.486964	-0.780325	0.000055
H416	H	0.820297	-0.446992	0.333388
H417	H	1.153631	-0.113659	0.666721
O418	O	-0.274614	-0.028683	0.000186
O419	O	0.058719	0.304651	0.333520
O420	O	0.392053	0.637984	0.666853
C421	C	-0.236179	-0.067248	0.000174
C422	C	0.097154	0.266086	0.333507
C423	C	0.430487	0.599419	0.666841
H424	H	-0.202028	-0.053956	0.031139
H425	H	0.131305	0.279378	0.364472
H426	H	0.464639	0.612711	0.697805
H427	H	-0.246486	-0.098227	0.047677
H428	H	0.086848	0.235106	0.381010
H429	H	0.420181	0.568439	0.714343
H430	H	-0.228946	-0.080745	-0.078301
H431	H	0.104388	0.252589	0.255033
H432	H	0.437721	0.585922	0.588366
O433	O	0.213861	-0.067857	0.000128
O434	O	0.547194	0.265476	0.333461
O435	O	0.880527	0.598809	0.666795
C436	C	0.186168	-0.107096	0.000171
C437	C	0.519502	0.226237	0.333504
C438	C	0.852835	0.559570	0.666837
H439	H	0.148446	-0.094536	-0.030797
H440	H	0.481780	0.238797	0.302536
H441	H	0.815113	0.572131	0.635870
H442	H	0.204986	-0.137778	-0.047315
H443	H	0.538320	0.195556	0.286019
H444	H	0.871653	0.528889	0.619352
H445	H	0.182680	-0.120705	0.078655
H446	H	0.516014	0.212628	0.411988
H447	H	0.849347	0.545961	0.745322
H448	H	0.343360	-0.015426	0.000096
H449	H	0.676693	0.317907	0.333430
H450	H	1.010027	0.651241	0.666763
O451	O	0.653831	-0.807281	-0.000057
O452	O	0.987165	-0.473947	0.333276
O453	O	1.320498	-0.140614	0.666610
C454	C	0.680766	-0.798665	-0.084792
C455	C	1.014099	-0.465332	0.248542
C456	C	1.347432	-0.131998	0.581875
H457	H	0.668608	-0.760326	-0.113032
H458	H	1.001942	-0.426993	0.220301
H459	H	1.335275	-0.093660	0.553635
H460	H	0.721109	-0.802515	-0.065741
H461	H	1.054442	-0.469181	0.267592
H462	H	1.387776	-0.135848	0.600926
H463	H	0.674360	-0.826187	-0.144119
H464	H	1.007694	-0.492853	0.189214
H465	H	1.341027	-0.159520	0.522548
O466	O	0.486205	-0.168206	0.000050
O467	O	0.819538	0.165127	0.333383
O468	O	1.152872	0.498460	0.666716
C469	C	0.447637	-0.129775	0.000072
C470	C	0.780970	0.203558	0.333406
C471	C	1.114303	0.536892	0.666739
H472	H	0.460929	-0.095616	-0.030876
H473	H	0.794262	0.237717	0.302457
H474	H	1.127595	0.571050	0.635791
H475	H	0.416663	-0.140076	-0.047439
H476	H	0.749997	0.193258	0.285894
H477	H	1.083330	0.526591	0.619227
H478	H	0.434131	-0.122557	0.078548
H479	H	0.767464	0.210777	0.411881
H480	H	1.100798	0.544110	0.745215
O481	O	-0.072911	0.191564	-0.000037
O482	O	0.260423	0.524898	0.333296
O483	O	0.593756	0.858231	0.666630
C484	C	-0.102431	0.193910	-0.084767
C485	C	0.230902	0.527244	0.248566
C486	C	0.564235	0.860577	0.581900
H487	H	-0.104695	0.155562	-0.113004
H488	H	0.228638	0.488896	0.220329
H489	H	0.561972	0.822229	0.553663
H490	H	-0.140460	0.212199	-0.065711
H491	H	0.192874	0.545532	0.267622
H492	H	0.526207	0.878865	0.600955
H493	H	-0.086011	0.215867	-0.144099
H494	H	0.247322	0.549200	0.189235
H495	H	0.580655	0.882533	0.522568
O496	O	-0.036754	-0.070327	0.000305
O497	O	0.296580	0.263006	0.333639
O498	O	0.629913	0.596340	0.666972
C499	C	-0.065536	-0.073268	0.085047
C500	C	0.267798	0.260065	0.418380
C501	C	0.601131	0.593398	0.751714
H502	H	-0.078374	-0.035074	0.113277
H503	H	0.254959	0.298259	0.446610
H504	H	0.588293	0.631593	0.779943
H505	H	-0.098411	-0.092289	0.066010
H506	H	0.234923	0.241045	0.399343
H507	H	0.568256	0.574378	0.732676
H508	H	-0.043098	-0.094820	0.144377
H509	H	0.290235	0.238513	0.477710
H510	H	0.623568	0.571846	0.811044
H511	H	0.057760	-0.062462	0.000163
H512	H	0.391093	0.270872	0.333497
H513	H	0.724427	0.604205	0.666830
H514	H	-0.180236	-0.020747	0.000152
H515	H	0.153097	0.312586	0.333485
H516	H	0.486430	0.645920	0.666818
O517	O	0.700222	-0.581520	-0.000088
O518	O	1.033555	-0.248187	0.333246
O519	O	1.366888	0.085147	0.666579
C520	C	0.702554	-0.611042	-0.084801
C521	C	1.035887	-0.277709	0.248532
C522	C	1.369220	0.055624	0.581865
H523	H	0.677697	-0.592385	-0.144016
H524	H	1.011031	-0.259051	0.189317
H525	H	1.344364	0.074282	0.522651
H526	H	0.741534	-0.616999	-0.113236
H527	H	1.074867	-0.283666	0.220098
H528	H	1.408201	0.049668	0.553431
H529	H	0.690316	-0.647616	-0.065655
H530	H	1.023649	-0.314282	0.267678
H531	H	1.356983	0.019051	0.601011
O532	O	0.660022	-0.192316	0.000265
O533	O	0.993355	0.141017	0.333598
O534	O	1.326688	0.474351	0.666931
C535	C	0.662367	-0.221843	0.084996
C536	C	0.995701	0.111490	0.418329
C537	C	1.329034	0.444824	0.751663
H538	H	0.624018	-0.224123	0.113226
H539	H	0.957352	0.109211	0.446559
H540	H	1.290685	0.442544	0.779893
H541	H	0.680671	-0.259865	0.065945
H542	H	1.014004	0.073468	0.399278
H543	H	1.347338	0.406801	0.732612
H544	H	0.684309	-0.205418	0.144331
H545	H	1.017643	0.127915	0.477665
H546	H	1.350976	0.461248	0.810998
H547	H	0.695819	-0.333889	0.000128
H548	H	1.029152	-0.000555	0.333461
H549	H	1.362485	0.332778	0.666794
O550	O	0.701819	-0.430187	0.000163
O551	O	1.035152	-0.096853	0.333496
O552	O	1.368485	0.236480	0.666830
C553	C	0.741053	-0.402488	0.000152
C554	C	1.074386	-0.069155	0.333486
C555	C	1.407720	0.264178	0.666819
H556	H	0.728485	-0.364771	0.031113
H557	H	1.061818	-0.031437	0.364446
H558	H	1.395152	0.301896	0.697779
H559	H	0.771733	-0.421307	0.047660
H560	H	1.105066	-0.087973	0.380993
H561	H	1.438399	0.245360	0.714327
H562	H	0.754667	-0.398990	-0.078321
H563	H	1.088001	-0.065657	0.255012
H564	H	1.421334	0.267676	0.588345
O565	O	0.439769	-0.394007	-0.000024
O566	O	0.773102	-0.060673	0.333310
O567	O	1.106435	0.272660	0.666643
C568	C	0.401207	-0.355569	-0.000013
C569	C	0.734540	-0.022236	0.333320
C570	C	1.067873	0.311098	0.666653
H571	H	0.414506	-0.321416	-0.030971
H572	H	0.747839	0.011917	0.302362
H573	H	1.081172	0.345251	0.635696
H574	H	0.370232	-0.365867	-0.047523
H575	H	0.703565	-0.032534	0.285810
H576	H	1.036898	0.300800	0.619144
H577	H	0.387701	-0.348343	0.078460
H578	H	0.721034	-0.015009	0.411793
H579	H	1.054367	0.318324	0.745127
H580	H	0.647846	-0.710950	0.000093
H581	H	0.981179	-0.377617	0.333427
H582	H	1.314513	-0.044283	0.666760
O583	O	0.487302	-0.068828	0.000062
O584	O	0.820636	0.264505	0.333396
O585	O	1.153969	0.597838	0.666729
C586	C	0.497268	-0.020233	0.000093
C587	C	0.830601	0.313100	0.333427
C588	C	1.163934	0.646434	0.666760
H589	H	0.535224	-0.018580	-0.030859
H590	H	0.868558	0.314754	0.302475
H591	H	1.201891	0.648087	0.635808
H592	H	0.469319	0.002821	-0.047411
H593	H	0.802652	0.336155	0.285923
H594	H	1.135985	0.669488	0.619256
H595	H	0.495318	-0.005645	0.078572
H596	H	0.828652	0.327688	0.411906
H597	H	1.161985	0.661021	0.745239
H598	H	0.445246	-0.542327	0.000030
H599	H	0.778580	-0.208993	0.333364
H600	H	1.111913	0.124340	0.666697
