data_functionalizedCrystal
_audit_creation_method	'MofGen! by Chris Wilmer'
_symmetry_space_group_name_H-M	'P1'
_symmetry_Int_Tables_number	1
_symmetry_cell_setting	triclinic
loop_
_symmetry_equiv_pos_as_xyz
  x,y,z
_cell_length_a	12.827893
_cell_length_b	19.120786
_cell_length_c	12.827885
_cell_angle_alpha	92.476068
_cell_angle_beta	90.019272
_cell_angle_gamma	92.465175
loop_
_atom_site_label
_atom_site_type_symbol
_atom_site_fract_x
_atom_site_fract_y
_atom_site_fract_z
Zn1	Zn	1.579849	-0.279598	0.573054
Zn2	Zn	2.079849	0.220402	1.073054
Zn3	Zn	1.572256	-0.397073	0.390838
Zn4	Zn	2.072256	0.102927	0.890838
Zn5	Zn	1.405089	-0.279632	0.398326
Zn6	Zn	1.905089	0.220368	0.898326
Zn7	Zn	1.397592	-0.397020	0.565541
Zn8	Zn	1.897592	0.102980	1.065541
O9	O	1.488697	-0.338331	0.481940
O10	O	1.988697	0.161669	0.981940
O11	O	1.725078	-0.295189	0.548893
O12	O	2.225078	0.204811	1.048893
O13	O	1.550041	-0.381530	0.245593
O14	O	2.050041	0.118470	0.745593
O15	O	1.434586	-0.181337	0.427781
O16	O	1.934586	0.318663	0.927781
O17	O	1.719499	-0.381497	0.415020
O18	O	2.219499	0.118503	0.915020
O19	O	1.562982	-0.181312	0.556154
O20	O	2.062982	0.318688	1.056154
O21	O	1.427223	-0.295247	0.251094
O22	O	1.927223	0.204753	0.751094
O23	O	1.257859	-0.295196	0.420496
O24	O	1.757859	0.204804	0.920496
O25	O	1.421810	-0.381408	0.712776
O26	O	1.921810	0.118592	1.212776
O27	O	1.252351	-0.381441	0.543349
O28	O	1.752351	0.118559	1.043349
O29	O	1.555713	-0.295138	0.718296
O30	O	2.055713	0.204862	1.218296
O31	O	1.542772	-0.495356	0.407735
O32	O	2.042772	0.004644	0.907735
O33	O	1.414447	-0.495318	0.536089
O34	O	1.914447	0.004682	1.036089
C35	C	1.217188	-0.338317	0.481921
C36	C	1.717188	0.161683	0.981921
C37	C	1.101034	-0.338328	0.481936
C38	C	1.601034	0.161672	0.981936
C39	C	1.046547	-0.381071	0.542625
C40	C	1.546547	0.118929	1.042625
C41	C	0.926496	-0.381084	0.542643
C42	C	1.426496	0.118916	1.042643
C43	C	1.477000	-0.520823	0.470307
C44	C	1.977000	-0.020823	0.970307
C45	C	1.472092	-0.598894	0.465365
C46	C	1.972092	-0.098894	0.965365
C47	C	1.536585	-0.635498	0.529934
C48	C	2.036585	-0.135498	1.029934
C49	C	1.531969	-0.708854	0.525293
C50	C	2.031969	-0.208854	1.025293
C51	C	1.462865	-0.745604	0.456076
C52	C	1.962865	-0.245604	0.956076
C53	C	1.398364	-0.708995	0.391504
C54	C	1.898364	-0.208995	0.891504
C55	C	1.402976	-0.635640	0.396152
C56	C	1.902976	-0.135640	0.896152
C57	C	1.445594	-0.967091	0.438703
C58	C	1.945594	-0.467091	0.938703
C59	C	1.440990	-1.040451	0.434058
C60	C	1.940990	-0.540451	0.934058
C61	C	1.574594	-1.040305	0.567848
C62	C	2.074594	-0.540305	1.067848
C63	C	1.579204	-0.966949	0.572485
C64	C	2.079204	-0.466949	1.072485
C65	C	1.514700	-0.930346	0.507917
C66	C	2.014700	-0.430346	1.007917
C67	C	1.458147	-0.820586	0.451328
C68	C	1.958147	-0.320586	0.951328
C69	C	1.519413	-0.855366	0.512671
C70	C	2.019413	-0.355366	1.012671
C71	C	1.761266	-0.338345	0.481959
C72	C	2.261266	0.161655	0.981959
C73	C	1.877419	-0.338351	0.481968
C74	C	2.377419	0.161649	0.981968
C75	C	1.488772	-0.338263	0.754514
C76	C	1.988772	0.161737	1.254514
C77	C	1.488804	-0.338235	0.870669
C78	C	1.988804	0.161765	1.370669
C79	C	1.500467	-0.155126	0.493641
C80	C	2.000467	0.344874	0.993641
C81	C	1.505483	-0.077055	0.498627
C82	C	2.005483	0.422945	0.998627
C83	C	1.488685	-0.338347	0.210429
C84	C	1.988685	0.161653	0.710429
C85	C	1.488868	-0.338178	0.094287
C86	C	1.988868	0.161822	0.594287
C87	C	1.555071	-0.295537	0.925186
C88	C	2.055071	0.204463	1.425186
C89	C	1.555106	-0.295507	1.045238
C90	C	2.055106	0.204493	1.545238
H91	H	0.879649	-0.417680	0.594598
H92	H	1.379649	0.082320	1.094598
H93	H	1.393075	-0.937295	0.386127
H94	H	1.893075	-0.437295	0.886127
C95	C	1.332029	-0.595376	0.325120
C96	C	1.832029	-0.095376	0.825120
N97	N	1.278587	-0.565049	0.271618
N98	N	1.778587	-0.065049	0.771618
H99	H	1.432090	-0.374762	0.912874
H100	H	1.932090	0.125238	1.412874
C101	C	1.412216	-0.387565	1.030974
C102	C	1.912216	0.112435	1.530974
N103	N	1.354480	-0.424763	0.983279
N104	N	1.854480	0.075237	1.483279
C105	C	1.322412	-0.749422	0.315302
C106	C	1.822412	-0.249422	0.815302
N107	N	1.265229	-0.779872	0.257878
N108	N	1.765229	-0.279872	0.757878
C109	C	1.602931	-0.749115	0.596311
C110	C	2.102931	-0.249115	1.096311
N111	N	1.656387	-0.779440	0.649801
N112	N	2.156387	-0.279440	1.149801
H113	H	1.611843	-0.258954	1.092111
H114	H	2.111843	0.241046	1.592111
C115	C	1.103592	-0.430499	0.612802
C116	C	1.603592	0.069501	1.112802
N117	N	1.146556	-0.467731	0.665658
N118	N	1.646556	0.032269	1.165658
H119	H	1.627108	-1.070115	0.620417
H120	H	2.127108	-0.570115	1.120417
C121	C	0.940697	-0.288908	0.411772
C122	C	1.440697	0.211092	0.911772
N123	N	0.988366	-0.251666	0.358903
N124	N	1.488366	0.248334	0.858903
H125	H	1.058805	-0.301741	0.429995
H126	H	1.558805	0.198259	0.929995
C127	C	1.612608	-0.595080	0.606077
C128	C	2.112608	-0.095080	1.106077
N129	N	1.669868	-0.564638	0.663433
N130	N	2.169868	-0.064638	1.163433
H131	H	1.635474	-0.937029	0.628847
H132	H	2.135474	-0.437029	1.128847
H133	H	1.611776	-0.259003	0.882981
H134	H	2.111776	0.240997	1.382981
C135	C	1.364962	-1.080875	0.357915
C136	C	1.864962	-0.580875	0.857915
N137	N	1.307701	-1.111322	0.300567
N138	N	1.807701	-0.611322	0.800567
H139	H	1.575674	-0.825442	0.569032
H140	H	2.075674	-0.325442	1.069032
H141	H	1.401885	-0.850516	0.394969
H142	H	1.901885	-0.350516	0.894969
