data_functionalizedCrystal
_audit_creation_method	'MofGen! by Chris Wilmer'
_symmetry_space_group_name_H-M	'P1'
_symmetry_Int_Tables_number	1
_symmetry_cell_setting	triclinic
loop_
_symmetry_equiv_pos_as_xyz
  x,y,z
_cell_length_a	23.096457
_cell_length_b	23.096457
_cell_length_c	14.560438
_cell_angle_alpha	89.997174
_cell_angle_beta	60.000511
_cell_angle_gamma	59.998275
loop_
_atom_site_label
_atom_site_type_symbol
_atom_site_fract_x
_atom_site_fract_y
_atom_site_fract_z
Zr1	Zr	0.633761	0.557753	-0.120539
O2	O	0.754549	0.465304	-0.267177
O3	O	0.512971	0.586095	-0.075589
O4	O	0.633761	0.586095	-0.267188
O5	O	0.633759	0.465302	0.075562
O6	O	0.633763	0.681376	-0.267193
O7	O	0.633759	0.465304	-0.075578
O8	O	0.417691	0.681376	0.075543
O9	O	0.849831	0.465302	-0.267174
O10	O	0.562655	0.669288	-0.056419
O11	O	0.562654	0.598179	0.056379
O12	O	0.704869	0.598179	-0.169204
O13	O	0.704868	0.527071	-0.056407
Zr14	Zr	0.633763	0.709711	0.120503
Zr15	Zr	0.633763	0.709714	-0.120547
Zr16	Zr	0.633760	0.557750	0.120512
Zr17	Zr	0.785723	0.557750	-0.120534
Zr18	Zr	0.481800	0.709714	0.120498
O19	O	0.754553	0.681369	0.075553
O20	O	0.754553	0.681373	-0.267190
O21	O	0.754549	0.465299	0.075565
O22	O	0.512974	0.802160	0.267141
O23	O	0.512975	0.802165	-0.075601
O24	O	0.512971	0.586091	0.267154
O25	O	0.633765	0.802162	-0.075598
O26	O	0.633762	0.681369	0.267152
O27	O	0.633761	0.586088	0.267158
O28	O	0.633765	0.802160	0.075542
O29	O	0.849833	0.586091	-0.267181
O30	O	0.417691	0.681373	0.267146
O31	O	0.417693	0.802162	0.267139
O32	O	0.417693	0.802165	0.075536
O33	O	0.849831	0.465299	-0.075572
O34	O	0.849833	0.586088	-0.075579
O35	O	0.562655	0.669285	0.169169
O36	O	0.562656	0.740393	0.056371
O37	O	0.704870	0.669285	-0.056415
O38	O	0.704869	0.598176	0.056383
C39	C	0.443680	0.633736	-0.000024
C40	C	0.379168	0.633737	-0.000025
C41	C	-0.081350	0.670851	-0.058878
C42	C	-0.020729	0.670849	-0.058889
C43	C	0.009582	0.633733	-0.000009
C44	C	-0.020716	0.596600	0.058862
C45	C	-0.081329	0.596597	0.058861
N46	N	0.071976	0.638884	0.095808
N47	N	0.129555	0.638891	0.095806
C48	C	0.192208	0.633738	-0.000006
N49	N	0.195100	0.628592	-0.095815
N50	N	0.137513	0.628589	-0.095811
C51	C	0.075308	0.633731	-0.000003
C52	C	0.288234	0.670862	-0.058891
C53	C	0.348859	0.670855	-0.058904
C54	C	0.348866	0.596611	0.058857
C55	C	0.288248	0.596613	0.058860
C56	C	0.257933	0.633743	-0.000012
C57	C	0.633759	0.443652	-0.000007
C58	C	0.633758	0.379140	-0.000003
C59	C	0.559526	0.385952	0.058859
C60	C	0.559525	0.325337	0.058864
C61	C	0.633760	0.257910	-0.000015
C62	C	0.708001	0.251100	-0.058880
C63	C	0.708000	0.311715	-0.058874
N64	N	0.689017	0.135114	-0.095840
N65	N	0.689013	0.077534	-0.095844
C66	C	0.633767	0.075277	-0.000035
N67	N	0.578513	0.132780	0.095776
N68	N	0.578515	0.190366	0.095777
C69	C	0.633769	0.192178	-0.000028
C70	C	0.559529	0.016365	0.058837
C71	C	0.559531	-0.044253	0.058846
C72	C	0.708009	-0.118489	-0.058909
C73	C	0.708005	-0.057872	-0.058906
C74	C	0.633763	0.009553	-0.000036
C75	C	0.823844	0.633728	-0.000012
C76	C	0.888356	0.633727	-0.000010
C77	C	0.633762	0.633736	-0.301535
C78	C	0.633762	0.633737	-0.403867
C79	C	0.633765	0.823812	-0.000029
C80	C	0.633766	0.888324	-0.000033
C81	C	0.633767	0.686225	-0.451954
C82	C	0.633763	0.686221	-0.548104
C83	C	0.633755	0.581237	-0.548073
C84	C	0.633752	0.581243	-0.451921
C85	C	0.633777	0.738718	-0.403901
C86	C	0.633782	0.791209	-0.451989
C87	C	0.633779	0.791206	-0.548138
C88	C	0.633770	0.738711	-0.596199
C89	C	0.633762	0.633728	0.301499
C90	C	0.633761	0.633727	0.403832
C91	C	0.443683	0.823816	-0.000035
C92	C	0.379172	0.888329	-0.000040
C93	C	0.443679	0.633732	0.301494
C94	C	0.379167	0.633732	0.403824
C95	C	0.443683	0.823812	0.301483
C96	C	0.379171	0.888324	0.403809
C97	C	0.823841	0.443652	-0.301518
C98	C	0.888352	0.379140	-0.403845
C99	C	0.823841	0.443648	-0.000001
C100	C	0.888352	0.379135	0.000004
C101	C	0.823844	0.633732	-0.301529
C102	C	0.888357	0.633732	-0.403860
C103	C	0.348876	0.881509	-0.058928
C104	C	0.288270	0.942120	-0.058956
C105	C	0.257956	1.009550	-0.000089
C106	C	0.288257	1.016369	0.058801
C107	C	0.348867	0.955759	0.058821
C108	C	0.348872	0.670848	0.510765
C109	C	0.288264	0.670846	0.606924
C110	C	0.257949	0.633731	0.596140
C111	C	0.288250	0.596610	0.489188
C112	C	0.348861	0.596609	0.393031
C113	C	0.348877	0.955743	0.392983
C114	C	0.288270	1.016365	0.489121
C115	C	0.257955	1.009565	0.596083
C116	C	0.288255	0.942139	0.606906
C117	C	0.348865	0.881519	0.510770
C118	C	0.918654	0.311721	-0.393019
C119	C	0.979280	0.251099	-0.489157
C120	C	1.009598	0.257899	-0.596119
C121	C	0.979294	0.325325	-0.606942
C122	C	0.918674	0.385945	-0.510806
C123	C	0.918654	0.385955	0.058882
C124	C	0.979277	0.325344	0.058884
C125	C	1.009593	0.257914	0.000013
C126	C	0.979289	0.251095	-0.058872
C127	C	0.918671	0.311705	-0.058879
C128	C	0.918653	0.670854	-0.393040
C129	C	0.979261	0.670868	-0.489181
C130	C	1.009576	0.633755	-0.596141
C131	C	0.979274	0.596631	-0.606958
C132	C	0.918662	0.596622	-0.510818
H133	H	-0.106028	0.701082	-0.106818
H134	H	0.263564	0.936613	0.694008
Br135	Br	0.020393	0.721236	-0.138786
Br136	Br	0.877526	0.721228	-0.247893
H137	H	1.058930	0.633768	-0.674415
H138	H	0.373549	0.566386	0.106792
H139	H	0.499076	0.071266	0.106797
Br140	Br	1.020431	0.546260	-0.752127
Br141	Br	0.877560	0.546230	-0.525523
Br142	Br	0.389983	0.721234	-0.138819
Br143	Br	0.389965	0.546234	0.247901
H144	H	0.894001	0.306142	-0.106822
Br145	Br	0.175691	0.633739	0.726652
H146	H	0.768453	-0.173389	-0.106851
H147	H	0.208603	1.058897	-0.000114
Br148	Br	1.091862	0.175663	0.000034
H149	H	0.373523	0.826625	0.519600
Br150	Br	0.458774	0.334576	0.138750
Br151	Br	1.020439	0.159576	-0.138759
Br152	Br	0.247159	1.107863	0.474405
Br153	Br	1.020376	0.721250	-0.474474
Br154	Br	0.633773	0.862448	-0.613390
H155	H	0.003970	0.566378	0.106799
Br156	Br	0.877553	0.477441	-0.525519
Br157	Br	0.390005	0.790004	-0.138833
Br158	Br	0.247128	0.546230	0.138762
Br159	Br	0.633745	0.509998	-0.613299
H160	H	0.499072	0.440849	0.106789
Br161	Br	0.633790	0.738721	-0.273420
Br162	Br	0.633780	0.862456	-0.386756
Br163	Br	0.877519	0.302473	-0.247868
H164	H	0.373548	0.701072	0.519566
Br165	Br	-0.122445	0.546209	0.138759
H166	H	0.263606	0.936554	-0.106911
H167	H	0.633748	0.538504	-0.412767
H168	H	0.263600	0.701076	0.693999
H169	H	0.373551	0.961293	0.305898
Br170	Br	0.247098	0.546243	0.474573
H171	H	0.263567	1.071279	0.106728
Br172	Br	0.247082	0.721258	-0.138774
H173	H	0.208603	1.058931	0.674354
Br174	Br	1.020392	0.159601	-0.474441
H175	H	0.768444	0.196197	-0.106819
H176	H	1.058959	0.208533	-0.674390
Br177	Br	0.808751	0.302469	-0.138763
H178	H	1.003987	0.330853	-0.694042
Br179	Br	0.458778	-0.035005	0.138755
H180	H	0.768453	-0.063422	-0.106846
Br181	Br	0.389971	0.965028	0.138756
H182	H	0.633759	0.738717	-0.674484
Br183	Br	0.877527	0.477460	0.138784
Br184	Br	1.020390	0.334615	0.138808
