data_functionalizedCrystal
_audit_creation_method	'MofGen! by Chris Wilmer'
_symmetry_space_group_name_H-M	'P1'
_symmetry_Int_Tables_number	1
_symmetry_cell_setting	triclinic
loop_
_symmetry_equiv_pos_as_xyz
  x,y,z
_cell_length_a	12.759401
_cell_length_b	19.076808
_cell_length_c	12.759393
_cell_angle_alpha	87.664746
_cell_angle_beta	89.981504
_cell_angle_gamma	92.323712
loop_
_atom_site_label
_atom_site_type_symbol
_atom_site_fract_x
_atom_site_fract_y
_atom_site_fract_z
Zn1	Zn	1.589374	-0.280174	-0.577138
Zn2	Zn	2.089374	0.219826	-0.077138
Zn3	Zn	1.582176	-0.397897	-0.394381
Zn4	Zn	2.082176	0.102103	0.105619
Zn5	Zn	1.413674	-0.280210	-0.401475
Zn6	Zn	1.913674	0.219790	0.098525
Zn7	Zn	1.406575	-0.397843	-0.570025
Zn8	Zn	1.906575	0.102157	-0.070025
O9	O	1.497950	-0.339031	-0.485755
O10	O	1.997950	0.160969	0.014245
O11	O	1.735440	-0.295797	-0.552902
O12	O	2.235440	0.204203	-0.052902
O13	O	1.559782	-0.382323	-0.248298
O14	O	2.059782	0.117677	0.251702
O15	O	1.442965	-0.181709	-0.430723
O16	O	1.942965	0.318291	0.069277
O17	O	1.730151	-0.382288	-0.418631
O18	O	2.230151	0.117712	0.081369
O19	O	1.572051	-0.181682	-0.559781
O20	O	2.072051	0.318318	-0.059781
O21	O	1.435984	-0.295860	-0.253511
O22	O	1.935984	0.204140	0.246489
O23	O	1.265712	-0.295807	-0.423826
O24	O	1.765712	0.204193	0.076174
O25	O	1.430866	-0.382195	-0.717992
O26	O	1.930866	0.117805	-0.217992
O27	O	1.260496	-0.382231	-0.547659
O28	O	1.760496	0.117769	-0.047659
O29	O	1.565167	-0.295745	-0.723218
O30	O	2.065167	0.204255	-0.223218
O31	O	1.552898	-0.496387	-0.411735
O32	O	2.052898	0.003613	0.088265
O33	O	1.423885	-0.496347	-0.540780
O34	O	1.923885	0.003653	-0.040780
C35	C	1.224983	-0.339018	-0.485741
C36	C	1.724983	0.160982	0.014259
C37	C	1.108206	-0.339029	-0.485759
C38	C	1.608206	0.160971	0.014241
C39	C	1.486869	-0.521906	-0.474739
C40	C	1.986869	-0.021906	0.025261
C41	C	1.482224	-0.600140	-0.470061
C42	C	1.982224	-0.100140	0.029939
C43	C	1.050651	-0.384102	-0.550124
C44	C	1.550651	0.115898	-0.050124
C45	C	0.940927	-0.384111	-0.550135
C46	C	1.440927	0.115889	-0.050135
C47	C	0.946321	-0.293972	-0.421408
C48	C	1.446321	0.206028	0.078592
C49	C	1.056044	-0.293960	-0.421403
C50	C	1.556044	0.206040	0.078597
C51	C	1.047536	-0.436145	-0.624440
C52	C	1.547536	0.063855	-0.124440
C53	C	0.937811	-0.436154	-0.624451
C54	C	1.437811	0.063846	-0.124451
C55	C	1.547200	-0.636821	-0.535112
C56	C	2.047200	-0.136821	-0.035112
C57	C	1.542832	-0.710330	-0.530719
C58	C	2.042832	-0.210330	-0.030719
C59	C	1.473493	-0.747159	-0.461269
C60	C	1.973493	-0.247159	0.038731
C61	C	1.408509	-0.710473	-0.396215
C62	C	1.908509	-0.210473	0.103785
C63	C	1.412873	-0.636965	-0.400614
C64	C	1.912873	-0.136965	0.099386
C65	C	1.453236	-0.967013	-0.440905
C66	C	1.953236	-0.467013	0.059095
C67	C	1.448879	-1.040527	-0.436508
C68	C	1.948879	-0.540527	0.063492
C69	C	1.583201	-1.040379	-0.571014
C70	C	2.083201	-0.540379	-0.071014
C71	C	1.587563	-0.966869	-0.575403
C72	C	2.087563	-0.466869	-0.075403
C73	C	1.522576	-0.930190	-0.510353
C74	C	2.022576	-0.430190	-0.010353
N75	N	1.469028	-0.822297	-0.456774
N76	N	1.969028	-0.322297	0.043226
N77	N	1.527036	-0.855053	-0.514854
N78	N	2.027036	-0.355053	-0.014854
C79	C	1.771982	-0.339044	-0.485769
C80	C	2.271982	0.160956	0.014231
C81	C	1.888758	-0.339050	-0.485775
C82	C	2.388758	0.160950	0.014225
C83	C	1.498028	-0.338960	-0.759792
C84	C	1.998028	0.161040	-0.259792
C85	C	1.498061	-0.338930	-0.876571
C86	C	1.998061	0.161070	-0.376571
C87	C	1.509103	-0.155442	-0.496837
C88	C	2.009103	0.344558	0.003163
C89	C	1.513855	-0.077207	-0.501559
C90	C	2.013855	0.422793	-0.001559
C91	C	1.568001	-0.293910	-0.934156
C92	C	2.068001	0.206090	-0.434156
C93	C	1.568028	-0.293885	-1.043882
C94	C	2.068028	0.206115	-0.543882
C95	C	1.428170	-0.383904	-1.038427
C96	C	1.928170	0.116096	-0.538427
C97	C	1.428139	-0.383925	-0.928704
C98	C	1.928139	0.116075	-0.428704
C99	C	1.648750	-0.241941	-0.937306
C100	C	2.148750	0.258059	-0.437306
C101	C	1.648777	-0.241915	-1.047031
C102	C	2.148777	0.258085	-0.547031
C103	C	1.497936	-0.339051	-0.212786
C104	C	1.997936	0.160949	0.287214
C105	C	1.498118	-0.338883	-0.096020
C106	C	1.998118	0.161117	0.403980
H107	H	1.102901	-0.257253	-0.368999
H108	H	1.602901	0.242747	0.131001
H109	H	1.729268	-0.256515	-1.075932
H110	H	2.229268	0.243485	-0.575932
F111	F	0.890797	-0.246009	-0.352920
F112	F	1.390797	0.253991	0.147080
H113	H	1.078220	-0.421608	-0.706721
H114	H	1.578220	0.078392	-0.206721
H115	H	1.392410	-1.070510	-0.379953
H116	H	1.892410	-0.570510	0.120047
F117	F	1.334703	-0.749671	-0.322310
F118	F	1.834703	-0.249671	0.177690
F119	F	1.087923	-0.503812	-0.582174
F120	F	1.587923	-0.003812	-0.082174
H121	H	0.904986	-0.416696	-0.702973
H122	H	1.404986	0.083304	-0.202973
F123	F	0.894569	-0.507383	-0.591475
F124	F	1.394569	-0.007383	-0.091475
H125	H	1.603669	-0.606840	-0.591661
H126	H	2.103669	-0.106840	-0.091661
F127	F	1.748211	-0.267479	-0.891277
F128	F	2.248211	0.232521	-0.391277
F129	F	1.611978	-0.749365	-0.599966
F130	F	2.111978	-0.249365	-0.099966
F131	F	1.661363	-0.927679	-0.649322
F132	F	2.161363	-0.427679	-0.149322
H133	H	1.359961	-0.607101	-0.347645
H134	H	1.859961	-0.107101	0.152355
F135	F	1.652357	-1.079420	-0.640242
F136	F	2.152357	-0.579420	-0.140242
H137	H	1.400323	-0.937155	-0.387937
H138	H	1.900323	-0.437155	0.112063
H139	H	1.630266	-0.187430	-0.910827
H140	H	2.130266	0.312570	-0.410827
H141	H	1.371183	-0.420582	-0.881822
H142	H	1.871183	0.079418	-0.381822
F143	F	1.353758	-0.431789	-1.093920
F144	F	1.853758	0.068211	-0.593920
H145	H	1.622784	-0.190122	-1.084193
H146	H	2.122784	0.309878	-0.584193
