data_functionalizedCrystal
_audit_creation_method	'MofGen! by Chris Wilmer'
_symmetry_space_group_name_H-M	'P1'
_symmetry_Int_Tables_number	1
_symmetry_cell_setting	triclinic
loop_
_symmetry_equiv_pos_as_xyz
  x,y,z
_cell_length_a	18.050591
_cell_length_b	18.050590
_cell_length_c	12.759393
_cell_angle_alpha	89.964247
_cell_angle_beta	89.972302
_cell_angle_gamma	90.014558
loop_
_atom_site_label
_atom_site_type_symbol
_atom_site_fract_x
_atom_site_fract_y
_atom_site_fract_z
Zn1	Zn	1.135392	-0.295695	-0.594209
Zn2	Zn	1.635392	0.204305	-0.094209
Zn3	Zn	1.135309	-0.419905	-0.418516
Zn4	Zn	1.635309	0.080095	0.081484
Zn5	Zn	1.011197	-0.295725	-0.418520
Zn6	Zn	1.511197	0.204275	0.081480
Zn7	Zn	1.011180	-0.419839	-0.594129
Zn8	Zn	1.511180	0.080161	-0.094129
O9	O	1.073270	-0.357791	-0.506343
O10	O	1.573270	0.142209	-0.006343
O11	O	1.239306	-0.312187	-0.570934
O12	O	1.739306	0.187813	-0.070934
O13	O	1.118817	-0.403472	-0.271495
O14	O	1.618817	0.096528	0.228505
O15	O	1.027713	-0.191796	-0.441860
O16	O	1.527713	0.308204	0.058140
O17	O	1.239245	-0.403443	-0.441854
O18	O	1.739245	0.096557	0.058146
O19	O	1.118959	-0.191774	-0.570938
O20	O	1.618959	0.308226	-0.070938
O21	O	1.027633	-0.312238	-0.271498
O22	O	1.527633	0.187762	0.228502
O23	O	0.907270	-0.312173	-0.441783
O24	O	1.407270	0.187827	0.058217
O25	O	1.027685	-0.403331	-0.741161
O26	O	1.527685	0.096669	-0.241161
O27	O	0.907258	-0.403360	-0.570803
O28	O	1.407258	0.096640	-0.070803
O29	O	1.118943	-0.312122	-0.741219
O30	O	1.618943	0.187878	-0.241219
O31	O	1.118802	-0.523821	-0.441777
O32	O	1.618802	-0.023821	0.058223
O33	O	1.027605	-0.523772	-0.570799
O34	O	1.527605	-0.023772	-0.070799
C35	C	0.880317	-0.357763	-0.506285
C36	C	1.380317	0.142237	-0.006285
C37	C	0.797772	-0.357769	-0.506285
C38	C	1.297772	0.142231	-0.006285
C39	C	1.073212	-0.550743	-0.506302
C40	C	1.573212	-0.050743	-0.006302
C41	C	1.073256	-0.633289	-0.506319
C42	C	1.573256	-0.133289	-0.006319
C43	C	1.122952	-0.832739	-0.436254
C44	C	1.622952	-0.332739	0.063746
C45	C	1.141096	-0.882064	-0.532145
C46	C	1.641096	-0.382064	-0.032145
C47	C	1.073298	-0.784419	-0.506361
C48	C	1.573298	-0.284419	-0.006361
C49	C	1.055230	-0.882175	-0.410513
C50	C	1.555230	-0.382175	0.089487
C51	C	1.073340	-0.930404	-0.506393
C52	C	1.573340	-0.430404	-0.006393
C53	C	1.091476	-0.832657	-0.602302
C54	C	1.591476	-0.332657	-0.102302
C55	C	1.005580	-0.832764	-0.480605
C56	C	1.505580	-0.332764	0.019395
C57	C	1.023697	-0.882067	-0.576562
C58	C	1.523697	-0.382067	-0.076562
C59	C	1.073276	-0.700321	-0.506341
C60	C	1.573276	-0.200321	-0.006341
C61	C	1.073362	-1.014501	-0.506423
C62	C	1.573362	-0.514501	-0.006423
C63	C	0.598306	-0.308125	-0.436286
C64	C	1.098306	0.191875	0.063714
C65	C	0.548896	-0.375864	-0.410430
C66	C	1.048896	0.124136	0.089570
C67	C	0.646641	-0.357792	-0.506333
C68	C	1.146641	0.142208	-0.006333
C69	C	0.548970	-0.290075	-0.532186
C70	C	1.048970	0.209925	-0.032186
C71	C	0.500656	-0.357807	-0.506377
C72	C	1.000656	0.142193	-0.006377
C73	C	0.598318	-0.425567	-0.480427
C74	C	1.098318	0.074433	0.019573
C75	C	0.598397	-0.339732	-0.602228
C76	C	1.098397	0.160268	-0.102228
C77	C	0.549009	-0.407519	-0.576408
C78	C	1.049009	0.092481	-0.076408
C79	C	0.730740	-0.357782	-0.506305
C80	C	1.230740	0.142218	-0.006305
C81	C	0.416560	-0.357825	-0.506405
C82	C	0.916560	0.142175	-0.006405
C83	C	1.266975	-0.357819	-0.506402
C84	C	1.766975	0.142181	-0.006402
C85	C	1.349521	-0.357831	-0.506427
C86	C	1.849521	0.142169	-0.006427
C87	C	1.073322	-0.357716	-0.780377
C88	C	1.573322	0.142284	-0.280377
C89	C	1.073344	-0.357684	-0.897154
C90	C	1.573344	0.142316	-0.397154
C91	C	1.073347	-0.164085	-0.506408
C92	C	1.573347	0.335915	-0.006408
C93	C	1.073380	-0.081539	-0.506436
C94	C	1.573380	0.418461	-0.006436
C95	C	1.120868	-0.310187	-0.952048
C96	C	1.620868	0.189813	-0.452048
C97	C	1.120886	-0.310160	-1.061772
C98	C	1.620886	0.189840	-0.561772
C99	C	1.025852	-0.405133	-1.061698
C100	C	1.525852	0.094867	-0.561698
C101	C	1.025832	-0.405156	-0.951976
C102	C	1.525832	0.094844	-0.451976
C103	C	1.175737	-0.255358	-0.952091
C104	C	1.675737	0.244642	-0.452091
C105	C	1.175755	-0.255331	-1.061815
C106	C	1.675755	0.244669	-0.561815
C107	C	1.073260	-0.357812	-0.233376
C108	C	1.573260	0.142188	0.266624
C109	C	1.073382	-0.357634	-0.116600
C110	C	1.573382	0.142366	0.383400
H111	H	1.164957	-0.811078	-0.377029
H112	H	1.664957	-0.311078	0.122971
H113	H	1.106719	-0.810998	-0.683442
H114	H	1.606719	-0.310998	-0.183442
H115	H	0.987168	-0.443781	-1.106348
H116	H	1.487168	0.056219	-0.606348
H117	H	0.527154	-0.391151	-0.329352
H118	H	1.027154	0.108849	0.170648
H119	H	1.233272	-0.270739	-1.091605
H120	H	1.733272	0.229261	-0.591605
H121	H	0.987130	-0.443829	-0.907285
H122	H	1.487130	0.056171	-0.407285
H123	H	0.527254	-0.232809	-0.553999
H124	H	1.027254	0.267191	-0.053999
H125	H	0.619904	-0.482858	-0.458488
H126	H	1.119904	0.017142	0.041512
H127	H	1.230357	-0.275980	-0.918066
H128	H	1.730357	0.224020	-0.418066
H129	H	0.620157	-0.324425	-0.683281
H130	H	1.120157	0.175575	-0.183281
H131	H	1.160354	-0.197843	-0.922338
H132	H	1.660354	0.302157	-0.422338
H133	H	0.619952	-0.266168	-0.376986
H134	H	1.119952	0.233832	0.123014
H135	H	0.527499	-0.449576	-0.635663
H136	H	1.027499	0.050424	-0.135663
H137	H	1.155179	-0.200682	-1.095864
H138	H	1.655179	0.299318	-0.595864
H139	H	1.198382	-0.903721	-0.553950
H140	H	1.698382	-0.403721	-0.053950
H141	H	0.981725	-0.903590	-0.635931
H142	H	1.481725	-0.403590	-0.135931
H143	H	1.039931	-0.903926	-0.329443
H144	H	1.539931	-0.403926	0.170557
H145	H	0.948310	-0.811091	-0.458772
H146	H	1.448310	-0.311091	0.041228
