data_functionalizedCrystal
_audit_creation_method	'MofGen! by Chris Wilmer'
_symmetry_space_group_name_H-M	'P1'
_symmetry_Int_Tables_number	1
_symmetry_cell_setting	triclinic
loop_
_symmetry_equiv_pos_as_xyz
  x,y,z
_cell_length_a	12.759393
_cell_length_b	13.032831
_cell_length_c	13.032721
_cell_angle_alpha	90.902885
_cell_angle_beta	82.851972
_cell_angle_gamma	97.193671
loop_
_atom_site_label
_atom_site_type_symbol
_atom_site_fract_x
_atom_site_fract_y
_atom_site_fract_z
Zn1	Zn	-0.865594	-1.520295	0.609321
Zn2	Zn	-0.709061	-1.498327	0.781309
Zn3	Zn	-0.665218	-1.348301	0.587502
Zn4	Zn	-0.859985	-1.326443	0.759369
O5	O	-0.774964	-1.423341	0.684375
O6	O	-0.865525	-1.661295	0.650450
O7	O	-0.556224	-1.478380	0.755651
O8	O	-0.675797	-1.389457	0.446492
O9	O	-0.750521	-1.645156	0.776809
O10	O	-0.823013	-1.515821	0.462522
O11	O	-0.524013	-1.368156	0.613262
O12	O	-0.670358	-1.201487	0.591987
O13	O	-1.007749	-1.352203	0.739414
O14	O	-0.813453	-1.185428	0.718256
O15	O	-1.011870	-1.494626	0.629175
O16	O	-0.745082	-1.457185	0.922303
O17	O	-0.855965	-1.330902	0.906184
C18	C	-0.736540	-1.156142	0.650374
C19	C	-0.720129	-1.041829	0.635852
C20	C	-0.804699	-1.389316	0.951560
C21	C	-0.817469	-1.374854	1.065875
C22	C	-1.048996	-1.423427	0.684281
C23	C	-1.165773	-1.423463	0.684240
C24	C	-1.222783	-1.497632	0.626834
C25	C	-1.332506	-1.497661	0.626800
C26	C	-1.328200	-1.349348	0.741587
C27	C	-1.218478	-1.349315	0.741615
C28	C	-1.170078	-1.571780	0.569459
C29	C	-1.227089	-1.645956	0.512049
C30	C	-1.336812	-1.645985	0.512015
C31	C	-1.389525	-1.571838	0.569391
C32	C	-0.501998	-1.423325	0.684403
C33	C	-0.385219	-1.423525	0.684179
C34	C	-0.813539	-1.691584	0.718511
C35	C	-0.829978	-1.805893	0.733057
C36	C	-0.783529	-0.982934	0.691954
C37	C	-0.766569	-0.864787	0.676947
C38	C	-0.745140	-1.457528	0.416151
C39	C	-0.732431	-1.472096	0.301850
C40	C	-0.768355	-1.430944	1.124788
C41	C	-0.781551	-1.415998	1.242938
H42	H	-1.080736	-1.571766	0.569483
C43	C	-0.662420	-1.551925	1.251833
N44	N	-0.609687	-1.612049	1.214159
C45	C	-1.169101	-1.727508	0.448933
N46	N	-1.125426	-1.788935	0.401393
C47	C	-0.873820	-1.032977	0.771856
N48	N	-0.941827	-1.070667	0.832042
C49	C	-1.510224	-1.571870	0.569345
N50	N	-1.601133	-1.571898	0.569312
H51	H	-1.172055	-1.288906	0.788343
H52	H	-0.869292	-1.315772	1.102907
C53	C	-0.920276	-0.855929	0.812961
N54	N	-0.988287	-0.893617	0.873145
C55	C	-0.629837	-0.991787	0.555952
N56	N	-0.561826	-0.954097	0.495770
H57	H	-0.833378	-1.356912	1.279966
H58	H	-0.699734	-0.827745	0.617798
H59	H	-1.383225	-1.706376	0.465260
H60	H	-1.371128	-1.288981	0.788300
C61	C	-0.698348	-1.510767	1.074764
N62	N	-0.645615	-1.570890	1.037088
