data_functionalizedCrystal
_audit_creation_method	'MofGen! by Chris Wilmer'
_symmetry_space_group_name_H-M	'P1'
_symmetry_Int_Tables_number	1
_symmetry_cell_setting	triclinic
loop_
_symmetry_equiv_pos_as_xyz
  x,y,z
_cell_length_a	19.077399
_cell_length_b	19.077068
_cell_length_c	19.077237
_cell_angle_alpha	94.655611
_cell_angle_beta	89.890016
_cell_angle_gamma	94.530727
loop_
_atom_site_label
_atom_site_type_symbol
_atom_site_fract_x
_atom_site_fract_y
_atom_site_fract_z
Zn1	Zn	1.080466	-0.251454	-0.364727
Zn2	Zn	1.580466	0.248546	0.135273
Zn3	Zn	1.071294	-0.364995	-0.251954
Zn4	Zn	1.571294	0.135005	0.248046
Zn5	Zn	0.958236	-0.251857	-0.251961
Zn6	Zn	1.458236	0.248143	0.248039
Zn7	Zn	0.958183	-0.374421	-0.374522
Zn8	Zn	1.458183	0.125579	0.125478
O9	O	1.017045	-0.310682	-0.310791
O10	O	1.517045	0.189318	0.189209
O11	O	1.177740	-0.262402	-0.345665
O12	O	1.677740	0.237598	0.154335
O13	O	1.052481	-0.346212	-0.153467
O14	O	1.552481	0.153788	0.346533
O15	O	0.978311	-0.152993	-0.262824
O16	O	1.478311	0.347007	0.237176
O17	O	1.171002	-0.345820	-0.262812
O18	O	1.671002	0.154180	0.237188
O19	O	1.068112	-0.152697	-0.345672
O20	O	1.568112	0.347303	0.154328
O21	O	0.969417	-0.263090	-0.153473
O22	O	1.469417	0.236910	0.346527
O23	O	0.859738	-0.272229	-0.272322
O24	O	1.359738	0.227771	0.227678
O25	O	0.978221	-0.361885	-0.471711
O26	O	1.478221	0.138115	0.028289
O27	O	0.859700	-0.362276	-0.362366
O28	O	1.359700	0.137724	0.137634
O29	O	1.068061	-0.271542	-0.464514
O30	O	1.568061	0.228458	0.035486
O31	O	1.052429	-0.465056	-0.272310
O32	O	1.552429	0.034944	0.227690
O33	O	0.969327	-0.471981	-0.362360
O34	O	1.469327	0.028019	0.137640
C35	C	0.834181	-0.318320	-0.318408
C36	C	1.334181	0.181680	0.181592
C37	C	0.755952	-0.321605	-0.321684
C38	C	1.255952	0.178395	0.178316
C39	C	0.719204	-0.276201	-0.276413
C40	C	1.219204	0.223799	0.223587
C41	C	0.645699	-0.279293	-0.279491
C42	C	1.145699	0.220707	0.220509
C43	C	0.608942	-0.327788	-0.327844
C44	C	1.108942	0.172212	0.172156
C45	C	0.645695	-0.373197	-0.373118
C46	C	1.145695	0.126803	0.126882
C47	C	0.719199	-0.370107	-0.370036
C48	C	1.219199	0.129893	0.129964
C49	C	0.389109	-0.342067	-0.342078
C50	C	0.889109	0.157933	0.157922
C51	C	0.315600	-0.345152	-0.345158
C52	C	0.815600	0.154848	0.154842
C53	C	0.315609	-0.251249	-0.251530
C54	C	0.815609	0.248751	0.248470
C55	C	0.389114	-0.248160	-0.248455
C56	C	0.889114	0.251840	0.251545
C57	C	0.425860	-0.293572	-0.293726
C58	C	0.925860	0.206428	0.206274
N59	N	0.533808	-0.330949	-0.330993
N60	N	1.033808	0.169051	0.169007
N61	N	0.500993	-0.290414	-0.290573
N62	N	1.000993	0.209586	0.209427
C63	C	1.009897	-0.494139	-0.318411
C64	C	1.509897	0.005861	0.181589
C65	C	1.006905	-0.572621	-0.321692
C66	C	1.506905	-0.072621	0.178308
C67	C	1.048802	-0.605863	-0.276385
C68	C	1.548802	-0.105863	0.223615
C69	C	1.045992	-0.679606	-0.279475
C70	C	1.545992	-0.179606	0.220525
C71	C	1.001280	-0.720105	-0.327869
C72	C	1.501280	-0.220105	0.172131
C73	C	0.959381	-0.686858	-0.373181
C74	C	1.459381	-0.186858	0.126819
C75	C	0.962195	-0.613116	-0.370094
C76	C	1.462195	-0.113116	0.129906
C77	C	0.988222	-0.941036	-0.342127
C78	C	1.488222	-0.441036	0.157873
C79	C	0.985409	-1.014782	-0.345209
C80	C	1.485409	-0.514782	0.154791
C81	C	1.072021	-1.007525	-0.251504
C82	C	1.572021	-0.507525	0.248496
C83	C	1.074829	-0.933783	-0.248419
C84	C	1.574829	-0.433783	0.251581
C85	C	1.032933	-0.900542	-0.293733
C86	C	1.532933	-0.400542	0.206267
N87	N	0.998405	-0.795481	-0.331026
N88	N	1.498405	-0.295481	0.168974
N89	N	1.035812	-0.825167	-0.290578
N90	N	1.535812	-0.325167	0.209422
C91	C	1.200622	-0.303015	-0.303145
C92	C	1.700622	0.196985	0.196855
C93	C	1.278852	-0.299747	-0.299887
C94	C	1.778852	0.200253	0.200113
C95	C	1.024158	-0.317720	-0.494363
C96	C	1.524158	0.182280	0.005637
C97	C	1.027189	-0.320719	-0.572591
C98	C	1.527189	0.179281	-0.072591
C99	C	1.024240	-0.126508	-0.303156
C100	C	1.524240	0.373492	0.196844
C101	C	1.027307	-0.048024	-0.299902
C102	C	1.527307	0.451976	0.200098
C103	C	1.048931	-0.342281	-1.012928
C104	C	1.548931	0.157719	-0.512928
C105	C	1.046073	-0.339459	-0.939425
C106	C	1.546073	0.160541	-0.439425
C107	C	1.001402	-0.294767	-0.902684
C108	C	1.501402	0.205233	-0.402684
C109	C	0.959581	-0.252900	-0.939450
C110	C	1.459581	0.247100	-0.439450
C111	C	0.962436	-0.255726	-1.012951
C112	C	1.462436	0.244274	-0.512951
C113	C	0.988223	-0.281678	-0.682858
C114	C	1.488223	0.218322	-0.182858
C115	C	0.985373	-0.278853	-0.609351
C116	C	1.485373	0.221147	-0.109351
C117	C	1.071864	-0.365413	-0.609332
C118	C	1.571864	0.134587	-0.109332
C119	C	1.074719	-0.368232	-0.682835
C120	C	1.574719	0.131768	-0.182835
C121	C	1.032895	-0.326368	-0.719595
C122	C	1.532895	0.173632	-0.219595
N123	N	0.998481	-0.291880	-0.827552
N124	N	1.498481	0.208120	-0.327552
N125	N	1.035813	-0.329259	-0.794725
N126	N	1.535813	0.170741	-0.294725
C127	C	1.010002	-0.303619	-0.127930
C128	C	1.510002	0.196381	0.372070
C129	C	1.007115	-0.300415	-0.049688
C130	C	1.507115	0.199585	0.450312
H131	H	0.615782	-0.242324	-0.242622
H132	H	1.115782	0.257676	0.257378
H133	H	0.419036	-0.208676	-0.209076
H134	H	0.919036	0.291324	0.290924
O135	O	0.754874	-0.414141	-0.414113
O136	O	1.254874	0.085859	0.085887
C137	C	0.780664	-0.452275	-0.534261
C138	C	1.280664	0.047725	-0.034261
C139	C	0.740238	-0.402353	-0.484424
C140	C	1.240238	0.097647	0.015576
H141	H	0.768834	-0.442773	-0.591118
H142	H	1.268834	0.057227	-0.091118
H143	H	0.839523	-0.441738	-0.523812
H144	H	1.339523	0.058262	-0.023812
H145	H	0.763524	-0.509316	-0.524741
H146	H	1.263524	-0.009316	-0.024741
H147	H	0.757319	-0.345295	-0.493915
H148	H	1.257319	0.154705	0.006085
H149	H	0.681387	-0.412952	-0.494884
H150	H	1.181387	0.087048	0.005116
O151	O	1.092295	-0.566631	-0.229352
O152	O	1.592295	-0.066631	0.270648
C153	C	1.177873	-0.567225	-0.136707
C154	C	1.677873	-0.067225	0.363293
C155	C	1.128659	-0.611737	-0.189950
C156	C	1.628659	-0.111737	0.310050
H157	H	1.207276	-0.603675	-0.104826
H158	H	1.707276	-0.103675	0.395174
H159	H	1.217268	-0.532373	-0.166034
H160	H	1.717268	-0.032373	0.333966
H161	H	1.145468	-0.532667	-0.099811
H162	H	1.645468	-0.032667	0.400189
H163	H	1.161006	-0.646336	-0.226860
H164	H	1.661006	-0.146336	0.273140
H165	H	1.089263	-0.646543	-0.160578
H166	H	1.589263	-0.146543	0.339422
O167	O	1.092423	-0.385653	-1.048532
O168	O	1.592423	0.114347	-0.548532
C169	C	1.211680	-0.415774	-1.067466
C170	C	1.711680	0.084226	-0.567466
C171	C	1.162505	-0.366614	-1.027088
C172	C	1.662505	0.133386	-0.527088
H173	H	1.268353	-0.400391	-1.050155
H174	H	1.768353	0.099609	-0.550155
H175	H	1.196587	-0.472679	-1.055868
H176	H	1.696587	0.027321	-0.555868
H177	H	1.206504	-0.410618	-1.126313
H178	H	1.706504	0.089382	-0.626313
H179	H	1.167655	-0.371709	-0.968230
H180	H	1.667655	0.128291	-0.468230
H181	H	1.177612	-0.309730	-1.038745
H182	H	1.677612	0.190270	-0.538745
H183	H	0.928079	-0.586052	-0.406988
H184	H	1.428079	-0.086052	0.093012
O185	O	0.941933	-0.235538	-0.573585
O186	O	1.441933	0.264462	-0.073585
C187	C	0.844041	-0.226828	-0.494193
C188	C	1.344041	0.273172	0.005807
C189	C	0.893192	-0.275958	-0.534648
C190	C	1.393192	0.224042	-0.034648
H191	H	0.804612	-0.259490	-0.462714
H192	H	1.304612	0.240510	0.037286
H193	H	0.876424	-0.187247	-0.456862
H194	H	1.376424	0.312753	0.043138
H195	H	0.814669	-0.197374	-0.533099
H196	H	1.314669	0.302626	-0.033099
H197	H	0.922575	-0.305460	-0.495794
H198	H	1.422575	0.194540	0.004206
H199	H	0.860771	-0.315495	-0.571989
H200	H	1.360771	0.184505	-0.071989
H201	H	1.111094	-0.404625	-0.712745
H202	H	1.611094	0.095375	-0.212745
H203	H	0.928385	-0.221634	-1.042881
H204	H	1.428385	0.278366	-0.542881
O205	O	0.947446	-0.908865	-0.386164
O206	O	1.447446	-0.408865	0.113836
C207	C	0.861254	-0.923852	-0.479443
C208	C	1.361254	-0.423852	0.020557
C209	C	0.907391	-0.960379	-0.429604
C210	C	1.407391	-0.460379	0.070396
H211	H	0.828869	-0.965484	-0.514587
H212	H	1.328869	-0.465484	-0.014587
H213	H	0.824496	-0.889697	-0.447220
H214	H	1.324496	-0.389697	0.052780
H215	H	0.896285	-0.889323	-0.513453
H216	H	1.396285	-0.389323	-0.013453
H217	H	0.872415	-0.994943	-0.395583
H218	H	1.372415	-0.494943	0.104417
H219	H	0.944153	-0.994491	-0.461869
H220	H	1.444153	-0.494491	0.038131
O221	O	0.279802	-0.207216	-0.207581
O222	O	0.779802	0.292784	0.292419
C223	C	0.166572	-0.170334	-0.170853
C224	C	0.666572	0.329666	0.329147
C225	C	0.207033	-0.220251	-0.220660
C226	C	0.707033	0.279749	0.279340
H227	H	0.107731	-0.180844	-0.181420
H228	H	0.607731	0.319156	0.318580
H229	H	0.178281	-0.179868	-0.113976
H230	H	0.678281	0.320132	0.386024
H231	H	0.183759	-0.113291	-0.180322
H232	H	0.683759	0.386709	0.319678
H233	H	0.189868	-0.277312	-0.211254
H234	H	0.689868	0.222688	0.288746
H235	H	0.195322	-0.210655	-0.277520
H236	H	0.695322	0.289345	0.222480
O237	O	0.916029	-0.726166	-0.420288
O238	O	1.416029	-0.226166	0.079712
C239	C	0.885519	-0.754698	-0.542346
C240	C	1.385519	-0.254698	-0.042346
C241	C	0.934676	-0.710153	-0.489075
C242	C	1.434676	-0.210153	0.010925
H243	H	0.900568	-0.741757	-0.597971
H244	H	1.400568	-0.241757	-0.097971
H245	H	0.890708	-0.813124	-0.536830
H246	H	1.390708	-0.313124	-0.036830
H247	H	0.828850	-0.742156	-0.531665
H248	H	1.328850	-0.242156	-0.031665
H249	H	0.991365	-0.722634	-0.499722
H250	H	1.491365	-0.222634	0.000278
H251	H	0.929427	-0.651740	-0.494603
H252	H	1.429427	-0.151740	0.005397
H253	H	0.954166	-0.247590	-0.712779
H254	H	1.454166	0.252410	-0.212779
O255	O	0.279816	-0.392299	-0.392041
O256	O	0.779816	0.107701	0.107959
C257	C	0.193522	-0.491516	-0.408798
C258	C	0.693522	0.008484	0.091202
C259	C	0.233982	-0.438161	-0.355629
C260	C	0.733982	0.061839	0.144371
H261	H	0.156466	-0.528619	-0.379379
H262	H	0.656466	-0.028619	0.120621
H263	H	0.161759	-0.462054	-0.445746
H264	H	0.661759	0.037946	0.054254
H265	H	0.232432	-0.523406	-0.440635
H266	H	0.732432	-0.023406	0.059365
H267	H	0.195121	-0.406257	-0.323744
H268	H	0.695121	0.093743	0.176256
H269	H	0.265756	-0.467665	-0.318728
H270	H	0.765756	0.032335	0.181272
O271	O	1.086593	-0.380204	-0.903695
O272	O	1.586593	0.119796	-0.403695
C273	C	1.089121	-0.471928	-0.824231
C274	C	1.589121	0.028072	-0.324231
C275	C	1.043147	-0.425838	-0.864667
C276	C	1.543147	0.074162	-0.364667
H277	H	1.054015	-0.508824	-0.792656
H278	H	1.554015	-0.008824	-0.292656
H279	H	1.121526	-0.504401	-0.863091
H280	H	1.621526	-0.004401	-0.363091
H281	H	1.125869	-0.436637	-0.786972
H282	H	1.625869	0.063363	-0.286972
H283	H	1.006359	-0.461076	-0.901927
H284	H	1.506359	0.038924	-0.401927
H285	H	1.010791	-0.393360	-0.825768
H286	H	1.510791	0.106640	-0.325768
O287	O	0.754795	-0.229074	-0.229376
O288	O	1.254795	0.270926	0.270624
C289	C	0.747039	-0.136242	-0.136856
C290	C	1.247039	0.363758	0.363144
C291	C	0.706647	-0.189588	-0.190084
C292	C	1.206647	0.310412	0.309916
H293	H	0.708130	-0.104293	-0.105084
H294	H	1.208130	0.395707	0.394916
H295	H	0.778737	-0.165712	-0.099857
H296	H	1.278737	0.334288	0.400143
H297	H	0.784166	-0.099193	-0.166261
H298	H	1.284166	0.400807	0.333739
H299	H	0.669484	-0.226651	-0.160737
H300	H	1.169484	0.273349	0.339263
H301	H	0.674996	-0.160072	-0.227081
H302	H	1.174996	0.339928	0.272919
O303	O	0.424690	-0.386205	-0.386127
O304	O	0.924690	0.113795	0.113873
C305	C	0.416916	-0.479697	-0.479291
C306	C	0.916916	0.020303	0.020709
C307	C	0.376529	-0.429738	-0.429456
C308	C	0.876529	0.070262	0.070544
H309	H	0.377994	-0.514917	-0.514325
H310	H	0.877994	-0.014917	-0.014325
H311	H	0.454005	-0.447342	-0.513408
H312	H	0.954005	0.052658	-0.013408
H313	H	0.448652	-0.513851	-0.446995
H314	H	0.948652	-0.013851	0.053005
H315	H	0.344753	-0.395573	-0.461697
H316	H	0.844753	0.104427	0.038303
H317	H	0.339482	-0.462135	-0.395337
H318	H	0.839482	0.037865	0.104663
O319	O	0.609964	-0.420206	-0.420161
O320	O	1.109964	0.079794	0.079839
C321	C	0.530274	-0.436974	-0.519018
C322	C	1.030274	0.063026	-0.019018
C323	C	0.570712	-0.383663	-0.465792
C324	C	1.070712	0.116337	0.034208
H325	H	0.498516	-0.407451	-0.555914
H326	H	0.998516	0.092549	-0.055914
H327	H	0.569134	-0.468890	-0.550900
H328	H	1.069134	0.031110	-0.050900
H329	H	0.493195	-0.474061	-0.489605
H330	H	0.993195	0.025939	0.010395
H331	H	0.607791	-0.346531	-0.495148
H332	H	1.107791	0.153469	0.004852
H333	H	0.531812	-0.351799	-0.433911
H334	H	1.031812	0.148201	0.066089
O335	O	1.112446	-0.406186	-0.573705
O336	O	1.612446	0.093814	-0.073705
C337	C	1.140996	-0.524013	-0.554728
C338	C	1.640996	-0.024013	-0.054728
C339	C	1.095005	-0.477915	-0.595135
C340	C	1.595005	0.022085	-0.095135
H341	H	1.126901	-0.582015	-0.572028
H342	H	1.626901	-0.082015	-0.072028
H343	H	1.198805	-0.509865	-0.566312
H344	H	1.698805	-0.009865	-0.066312
H345	H	1.131295	-0.514282	-0.495885
H346	H	1.631295	-0.014282	0.004115
H347	H	1.104645	-0.487621	-0.653989
H348	H	1.604645	0.012379	-0.153989
H349	H	1.037211	-0.492072	-0.583493
H350	H	1.537211	0.007928	-0.083493
O351	O	0.916248	-0.209502	-0.903651
O352	O	1.416248	0.290498	-0.403651
C353	C	0.873489	-0.166813	-0.790431
C354	C	1.373489	0.333187	-0.290431
C355	C	0.922605	-0.215983	-0.830882
C356	C	1.422605	0.284017	-0.330882
H357	H	0.878602	-0.172047	-0.731591
H358	H	1.378602	0.327953	-0.231591
H359	H	0.888638	-0.109900	-0.801961
H360	H	1.388638	0.390100	-0.301961
H361	H	0.816823	-0.182129	-0.807805
H362	H	1.316823	0.317871	-0.307805
H363	H	0.979287	-0.200730	-0.813532
H364	H	1.479287	0.299270	-0.313532
H365	H	0.907397	-0.272884	-0.819350
H366	H	1.407397	0.227116	-0.319350
O367	O	1.086865	-0.711874	-0.235607
O368	O	1.586865	-0.211874	0.264393
C369	C	1.178512	-0.790578	-0.225899
C370	C	1.678512	-0.290578	0.274101
C371	C	1.132211	-0.754103	-0.275630
C372	C	1.632211	-0.254103	0.224370
H373	H	1.215174	-0.824740	-0.258238
H374	H	1.715174	-0.324740	0.241762
H375	H	1.210999	-0.748937	-0.190857
H376	H	1.710999	-0.248937	0.309143
H377	H	1.143597	-0.825098	-0.191780
H378	H	1.643597	-0.325098	0.308220
H379	H	1.167072	-0.719586	-0.309794
H380	H	1.667072	-0.219586	0.190206
H381	H	1.099717	-0.795781	-0.310625
H382	H	1.599717	-0.295781	0.189375
H383	H	1.111237	-0.900810	-0.209013
H384	H	1.611237	-0.400810	0.290987
H385	H	0.949009	-1.047755	-0.384629
H386	H	1.449009	-0.547755	0.115371
H387	H	1.106132	-1.034598	-0.214613
H388	H	1.606132	-0.534598	0.285387
