data_functionalizedCrystal
_audit_creation_method	'MofGen! by Chris Wilmer'
_symmetry_space_group_name_H-M	'P1'
_symmetry_Int_Tables_number	1
_symmetry_cell_setting	triclinic
loop_
_symmetry_equiv_pos_as_xyz
  x,y,z
_cell_length_a	19.188928
_cell_length_b	12.503552
_cell_length_c	19.188920
_cell_angle_alpha	93.497196
_cell_angle_beta	83.142693
_cell_angle_gamma	86.472133
loop_
_atom_site_label
_atom_site_type_symbol
_atom_site_fract_x
_atom_site_fract_y
_atom_site_fract_z
O1	O	-0.930207	0.089762	-0.083092
O2	O	-0.596873	0.423095	0.250242
O3	O	-0.263540	0.756428	0.583575
O4	O	-0.726891	0.089676	-0.094832
O5	O	-0.393558	0.423009	0.238502
O6	O	-0.060224	0.756342	0.571835
O7	O	-0.834417	0.089686	0.012693
O8	O	-0.501084	0.423019	0.346026
O9	O	-0.167751	0.756352	0.679360
O10	O	-0.822680	0.089752	-0.190616
O11	O	-0.489347	0.423085	0.142717
O12	O	-0.156014	0.756418	0.476050
O13	O	-0.826321	-0.088958	0.004599
O14	O	-0.492988	0.244376	0.337933
O15	O	-0.159655	0.577709	0.671266
O16	O	-0.718795	-0.088967	-0.102925
O17	O	-0.385462	0.244366	0.230408
O18	O	-0.052128	0.577699	0.563741
O19	O	-0.922111	-0.088882	-0.091185
O20	O	-0.588777	0.244452	0.242148
O21	O	-0.255444	0.577785	0.575481
Cu22	Cu	-0.819714	-0.105236	-0.097794
Cu23	Cu	-0.486380	0.228097	0.235539
Cu24	Cu	-0.153047	0.561431	0.568872
Cu25	Cu	-0.829288	0.106030	-0.088223
Cu26	Cu	-0.495955	0.439364	0.245111
Cu27	Cu	-0.162621	0.772697	0.578444
O28	O	-0.814584	-0.088892	-0.198710
O29	O	-0.481251	0.244442	0.134623
O30	O	-0.147918	0.577775	0.467957
C31	C	-0.696831	0.000343	-0.098499
C32	C	-0.363498	0.333676	0.234834
C33	C	-0.030165	0.667009	0.568168
C34	C	-0.619325	0.000308	-0.097361
C35	C	-0.285992	0.333642	0.235973
C36	C	0.047341	0.666975	0.569306
N37	N	-0.812985	-0.253830	-0.104526
N38	N	-0.479651	0.079504	0.228807
N39	N	-0.146318	0.412837	0.562141
C40	C	-0.845918	-0.526260	-0.071581
C41	C	-0.512584	-0.192926	0.261753
C42	C	-0.179251	0.140407	0.595086
C43	C	-0.803092	-0.472939	-0.114428
C44	C	-0.469759	-0.139606	0.218905
C45	C	-0.136425	0.193727	0.552238
C46	C	-0.808598	-0.351015	-0.108917
C47	C	-0.475264	-0.017682	0.224416
C48	C	-0.141931	0.315651	0.557749
C49	C	-0.840413	-0.648195	-0.077091
C50	C	-0.507079	-0.314861	0.256242
C51	C	-0.173746	0.018472	0.589576
C52	C	-0.574401	0.000342	-0.160451
C53	C	-0.241068	0.333676	0.172883
C54	C	0.092266	0.667009	0.506216
C55	C	-0.501578	0.000348	-0.159379
C56	C	-0.168244	0.333682	0.173954
C57	C	0.165089	0.667015	0.507287
C58	C	-0.473682	0.000342	-0.095213
C59	C	-0.140349	0.333675	0.238120
C60	C	0.192984	0.667008	0.571453
C61	C	-0.518616	0.000301	-0.032116
C62	C	-0.185283	0.333635	0.301218
C63	C	0.148050	0.666968	0.634551
C64	C	-0.591438	0.000285	-0.033189
C65	C	-0.258104	0.333618	0.300144
C66	C	0.075229	0.666951	0.633478
N67	N	-0.368460	0.061161	-0.043412
N68	N	-0.035126	0.394494	0.289922
N69	N	0.298207	0.727827	0.623255
N70	N	-0.299282	0.061179	-0.042396
N71	N	0.034051	0.394512	0.290937
N72	N	0.367385	0.727845	0.624271
C73	C	-0.254276	0.000390	-0.091975
C74	C	0.079058	0.333723	0.241358
C75	C	0.412391	0.667056	0.574692
N76	N	-0.281060	-0.060405	-0.142618
N77	N	0.052273	0.272928	0.190715
N78	N	0.385607	0.606262	0.524049
N79	N	-0.350244	-0.060418	-0.143636
N80	N	-0.016911	0.272915	0.189698
N81	N	0.316422	0.606248	0.523031
C82	C	-0.394721	0.000359	-0.094042
C83	C	-0.061387	0.333692	0.239291
C84	C	0.271946	0.667026	0.572624
C85	C	-0.130387	0.000429	-0.153908
C86	C	0.202946	0.333762	0.179426
C87	C	0.536279	0.667095	0.512759
C88	C	-0.057562	0.000428	-0.152834
C89	C	0.275771	0.333761	0.180499
C90	C	0.609104	0.667095	0.513833
C91	C	-0.074603	0.000392	-0.025568
C92	C	0.258730	0.333725	0.307765
C93	C	0.592063	0.667058	0.641099
C94	C	-0.147426	0.000382	-0.026644
C95	C	0.185907	0.333715	0.306689
C96	C	0.519241	0.667048	0.640023
C97	C	-0.175314	0.000405	-0.090816
C98	C	0.158020	0.333739	0.242518
C99	C	0.491353	0.667072	0.575851
C100	C	0.047831	0.000435	-0.087521
C101	C	0.381164	0.333768	0.245813
C102	C	0.714497	0.667101	0.579146
C103	C	-0.029672	0.000419	-0.088668
C104	C	0.303661	0.333753	0.244666
C105	C	0.636994	0.667086	0.577999
C106	C	-0.829990	0.000357	0.034657
C107	C	-0.496656	0.333690	0.367990
C108	C	-0.163323	0.667024	0.701324
C109	C	-0.828850	0.000336	0.112161
C110	C	-0.495517	0.333670	0.445494
C111	C	-0.162184	0.667003	0.778827
N112	N	-0.836023	0.254624	-0.081485
N113	N	-0.502689	0.587957	0.251848
N114	N	-0.169356	0.921290	0.585181
C115	C	-0.884314	0.000225	0.673927
C116	C	-0.550981	0.333558	1.007260
C117	C	-0.217647	0.666891	1.340594
C118	C	-0.885391	0.000237	0.601104
C119	C	-0.552057	0.333570	0.934438
C120	C	-0.218724	0.666903	1.267771
C121	C	-0.822297	0.000222	0.556169
C122	C	-0.488964	0.333556	0.889502
C123	C	-0.155631	0.666889	1.222835
C124	C	-0.758122	0.000169	0.584060
C125	C	-0.424788	0.333502	0.917393
C126	C	-0.091455	0.666835	1.250727
C127	C	-0.757047	0.000146	0.656881
C128	C	-0.423713	0.333479	0.990214
C129	C	-0.090380	0.666813	1.323548
N130	N	-0.779376	0.061043	0.438243
N131	N	-0.446043	0.394376	0.771577
N132	N	-0.112710	0.727709	1.104910
N133	N	-0.780402	0.061067	0.369067
N134	N	-0.447069	0.394400	0.702400
N135	N	-0.113735	0.727733	1.035734
C136	C	-0.825532	0.000288	0.336762
C137	C	-0.492199	0.333621	0.670096
C138	C	-0.158866	0.666955	1.003429
N139	N	-0.869610	-0.060502	0.376249
N140	N	-0.536276	0.272832	0.709583
N141	N	-0.202943	0.606165	1.042916
N142	N	-0.868586	-0.060520	0.445432
N143	N	-0.535253	0.272813	0.778766
N144	N	-0.201919	0.606146	1.112099
C145	C	-0.823456	0.000246	0.477206
C146	C	-0.490123	0.333580	0.810539
C147	C	-0.156789	0.666913	1.143872
C148	C	-0.890871	0.000347	0.229916
C149	C	-0.557537	0.333680	0.563250
C150	C	-0.224204	0.667014	0.896583
C151	C	-0.891944	0.000352	0.157092
C152	C	-0.558611	0.333686	0.490425
C153	C	-0.225278	0.667019	0.823758
C154	C	-0.764674	0.000295	0.140049
C155	C	-0.431341	0.333628	0.473382
C156	C	-0.098007	0.666962	0.806715
C157	C	-0.763602	0.000279	0.212872
C158	C	-0.430269	0.333612	0.546205
C159	C	-0.096935	0.666946	0.879538
C160	C	-0.826703	0.000310	0.257802
C161	C	-0.493369	0.333644	0.591135
C162	C	-0.160036	0.666977	0.924468
C163	C	-0.819011	0.000366	0.779323
C164	C	-0.485678	0.333700	1.112657
C165	C	-0.152344	0.667033	1.445990
C166	C	-0.820147	0.000177	0.701811
C167	C	-0.486814	0.333510	1.035144
C168	C	-0.153481	0.666844	1.368478
H169	H	-0.886715	-0.480346	-0.030762
H170	H	-0.553381	-0.147012	0.302572
H171	H	-0.220048	0.186321	0.635905
H172	H	-0.762293	-0.518859	-0.155251
H173	H	-0.428960	-0.185526	0.178082
H174	H	-0.095627	0.147808	0.511416
C175	C	-1.011086	0.000336	0.625260
C176	C	-0.677753	0.333669	0.958593
C177	C	-0.344419	0.667003	1.291926
C178	C	-0.955929	0.000308	0.570445
C179	C	-0.622595	0.333642	0.903778
C180	C	-0.289262	0.666975	1.237111
H181	H	-1.054632	0.000391	0.606332
H182	H	-0.721299	0.333724	0.939665
H183	H	-0.387966	0.667057	1.272999
H184	H	-1.005210	-0.061973	0.650483
H185	H	-0.671877	0.271360	0.983816
H186	H	-0.338544	0.604694	1.317149
H187	H	-1.010828	0.062621	0.656133
H188	H	-0.677494	0.395955	0.989467
H189	H	-0.344161	0.729288	1.322800
H190	H	-0.956184	-0.061981	0.539574
H191	H	-0.622850	0.271352	0.872907
H192	H	-0.289517	0.604685	1.206241
H193	H	-0.961806	0.062624	0.545211
H194	H	-0.628473	0.395957	0.878544
H195	H	-0.295139	0.729290	1.211877
C196	C	-0.382378	0.000400	-0.214235
C197	C	-0.049044	0.333733	0.119098
C198	C	0.284289	0.667066	0.452431
C199	C	-0.452184	0.000390	-0.228732
C200	C	-0.118851	0.333723	0.104602
C201	C	0.214483	0.667056	0.437935
H202	H	-0.351887	0.000419	-0.257052
H203	H	-0.018554	0.333753	0.076282
H204	H	0.314780	0.667086	0.409615
H205	H	-0.376791	0.062684	-0.185093
H206	H	-0.043458	0.396017	0.148240
H207	H	0.289875	0.729351	0.481574
H208	H	-0.371110	-0.061910	-0.190740
H209	H	-0.037777	0.271423	0.142593
H210	H	0.295557	0.604756	0.475926
H211	H	-0.463454	0.062704	-0.252222
H212	H	-0.130120	0.396037	0.081111
H213	H	0.203213	0.729371	0.414445
H214	H	-0.457773	-0.061901	-0.257886
H215	H	-0.124440	0.271432	0.075448
H216	H	0.208893	0.604766	0.408781
C217	C	-0.550237	0.000376	-0.286139
C218	C	-0.216903	0.333709	0.047195
C219	C	0.116430	0.667043	0.380528
C220	C	-0.605053	0.000351	-0.230988
C221	C	-0.271720	0.333684	0.102345
C222	C	0.061613	0.667017	0.435679
H223	H	-0.569163	0.000372	-0.329685
H224	H	-0.235829	0.333705	0.003648
H225	H	0.097504	0.667039	0.336982
H226	H	-0.525033	0.062677	-0.280251
H227	H	-0.191700	0.396011	0.053082
H228	H	0.141634	0.729344	0.386415
H229	H	-0.519344	-0.061917	-0.285888
H230	H	-0.186011	0.271416	0.047446
H231	H	0.147322	0.604750	0.380779
H232	H	-0.635943	0.062648	-0.231236
H233	H	-0.302610	0.395981	0.102098
H234	H	0.030723	0.729315	0.435431
H235	H	-0.630269	-0.061957	-0.236877
H236	H	-0.296935	0.271376	0.096456
H237	H	0.036398	0.604710	0.429790
C238	C	-0.414552	0.000330	0.026038
C239	C	-0.081219	0.333664	0.359371
C240	C	0.252115	0.666997	0.692704
C241	C	-0.487957	0.000300	0.038417
C242	C	-0.154624	0.333634	0.371751
C243	C	0.178710	0.666967	0.705084
H244	H	-0.395627	0.000333	0.069584
H245	H	-0.062294	0.333666	0.402918
H246	H	0.271040	0.667000	0.736251
H247	H	-0.396279	-0.061952	-0.002748
H248	H	-0.062946	0.271382	0.330586
H249	H	0.270387	0.604715	0.663919
H250	H	-0.401968	0.062642	0.002890
H251	H	-0.068635	0.395976	0.336223
H252	H	0.264699	0.729309	0.669557
H253	H	-0.500541	-0.062016	0.061560
H254	H	-0.167208	0.271317	0.394894
H255	H	0.166126	0.604650	0.728227
H256	H	-0.506236	0.062589	0.067214
H257	H	-0.172903	0.395922	0.400547
H258	H	0.160430	0.729255	0.733881
C259	C	-0.645820	-0.091705	0.542947
C260	C	-0.312487	0.241629	0.876280
C261	C	0.020847	0.574962	1.209613
C262	C	-0.688768	0.000155	0.534669
C263	C	-0.355435	0.333489	0.868002
C264	C	-0.022101	0.666822	1.201336
H265	H	-0.603005	-0.091717	0.512451
H266	H	-0.269671	0.241617	0.845785
H267	H	0.063662	0.574950	1.179118
H268	H	-0.635998	-0.091719	0.590302
H269	H	-0.302664	0.241614	0.923635
H270	H	0.030669	0.574947	1.256968
H271	H	-0.669328	-0.153977	0.531689
H272	H	-0.335995	0.179356	0.865022
H273	H	-0.002662	0.512690	1.198355
H274	H	-0.665262	0.062428	0.545932
H275	H	-0.331928	0.395761	0.879265
H276	H	0.001405	0.729095	1.212599
H277	H	-0.698589	0.000180	0.487303
H278	H	-0.365256	0.333513	0.820637
H279	H	-0.031923	0.666847	1.153970
H280	H	-0.051895	0.000453	0.026680
H281	H	0.281438	0.333786	0.360013
H282	H	0.614772	0.667120	0.693347
H283	H	-0.628016	0.000257	0.018188
H284	H	-0.294682	0.333591	0.351521
H285	H	0.038651	0.666924	0.684855
H286	H	-0.153094	0.000432	-0.206161
H287	H	0.180240	0.333765	0.127173
H288	H	0.513573	0.667099	0.460506
H289	H	-0.020985	0.000450	-0.204212
H290	H	0.312349	0.333783	0.129121
H291	H	0.645682	0.667116	0.462455
H292	H	-0.184005	0.000360	0.024731
H293	H	0.149329	0.333693	0.358064
H294	H	0.482662	0.667026	0.691398
H295	H	-0.935695	0.000244	0.710505
H296	H	-0.602362	0.333578	1.043838
H297	H	-0.269029	0.666911	1.377172
C298	C	-0.652401	0.091928	0.668932
C299	C	-0.319068	0.425261	1.002265
C300	C	0.014266	0.758594	1.335599
C301	C	-0.686510	0.000106	0.687536
C302	C	-0.353177	0.333439	1.020870
C303	C	-0.019844	0.666772	1.354203
H304	H	-0.608857	0.091906	0.687863
H305	H	-0.275524	0.425239	1.021196
H306	H	0.057810	0.758572	1.354530
H307	H	-0.644010	0.091925	0.619138
H308	H	-0.310677	0.425258	0.952471
H309	H	0.022656	0.758591	1.285804
H310	H	-0.681200	0.154226	0.687190
H311	H	-0.347867	0.487559	1.020523
H312	H	-0.014534	0.820892	1.353856
H313	H	-0.657713	-0.062193	0.669274
H314	H	-0.324380	0.271140	1.002608
H315	H	0.008954	0.604474	1.335941
H316	H	-0.694898	0.000099	0.737341
H317	H	-0.361565	0.333432	1.070674
H318	H	-0.028232	0.666765	1.404008
C319	C	-1.016778	0.000397	0.239450
C320	C	-0.683445	0.333730	0.572784
C321	C	-0.350112	0.667064	0.906117
C322	C	-0.960228	0.000367	0.279308
C323	C	-0.626895	0.333701	0.612641
C324	C	-0.293561	0.667034	0.945975
H325	H	-1.059595	0.000403	0.269943
H326	H	-0.726262	0.333737	0.603276
H327	H	-0.392929	0.667070	0.936609
H328	H	-1.017373	0.062695	0.213513
H329	H	-0.684040	0.396028	0.546846
H330	H	-0.350707	0.729362	0.880180
H331	H	-1.011723	-0.061899	0.207872
H332	H	-0.678389	0.271434	0.541205
H333	H	-0.345056	0.604767	0.874539
H334	H	-0.965281	0.062668	0.310883
H335	H	-0.631948	0.396002	0.644216
H336	H	-0.298614	0.729335	0.977550
H337	H	-0.959634	-0.061937	0.305257
H338	H	-0.626300	0.271396	0.638591
H339	H	-0.292967	0.604730	0.971924
H340	H	-0.944198	0.000384	0.134391
H341	H	-0.610865	0.333718	0.467724
H342	H	-0.277532	0.667051	0.801058
C343	C	-0.696207	0.092128	0.052435
C344	C	-0.362874	0.425461	0.385768
C345	C	-0.029541	0.758794	0.719101
C346	C	-0.695318	0.000282	0.090666
C347	C	-0.361984	0.333616	0.424000
C348	C	-0.028651	0.666949	0.757333
H349	H	-0.653386	0.092118	0.021949
H350	H	-0.320052	0.425452	0.355283
H351	H	0.013281	0.758785	0.688616
H352	H	-0.734571	0.092145	0.025403
H353	H	-0.401238	0.425478	0.358737
H354	H	-0.067905	0.758811	0.692070
H355	H	-0.701257	0.154410	0.084025
H356	H	-0.367924	0.487743	0.417359
H357	H	-0.034591	0.821076	0.750692
H358	H	-0.690273	-0.062000	0.059076
H359	H	-0.356940	0.271333	0.392409
H360	H	-0.023606	0.604666	0.725742
H361	H	-0.656943	0.000255	0.117699
H362	H	-0.323610	0.333589	0.451033
H363	H	0.009724	0.666922	0.784366
H364	H	-0.711351	0.000248	0.235575
H365	H	-0.378017	0.333581	0.568908
H366	H	-0.044684	0.666915	0.902241
