data_functionalizedCrystal
_audit_creation_method	'MofGen! by Chris Wilmer'
_symmetry_space_group_name_H-M	'P1'
_symmetry_Int_Tables_number	1
_symmetry_cell_setting	triclinic
loop_
_symmetry_equiv_pos_as_xyz
  x,y,z
_cell_length_a	10.654558
_cell_length_b	10.654550
_cell_length_c	9.730223
_cell_angle_alpha	89.999807
_cell_angle_beta	90.000400
_cell_angle_gamma	84.486610
loop_
_atom_site_label
_atom_site_type_symbol
_atom_site_fract_x
_atom_site_fract_y
_atom_site_fract_z
O1	O	1.667828	0.176443	-0.114267
O2	O	1.302351	0.193238	-0.114274
O3	O	1.493492	0.002102	-0.114265
O4	O	1.476686	0.367580	-0.114275
O5	O	1.493490	0.002107	0.114315
O6	O	1.302348	0.193243	0.114306
O7	O	1.667826	0.176448	0.114313
Zn8	Zn	1.485087	0.184846	0.150602
Zn9	Zn	1.485090	0.184840	-0.150562
O10	O	1.476684	0.367585	0.114304
C11	C	1.255552	0.192005	0.000016
C12	C	1.116109	0.188309	0.000013
C13	C	0.919572	0.183111	-0.124586
C14	C	1.050594	0.186573	-0.124587
C15	C	1.050596	0.186571	0.124623
C16	C	0.919577	0.183101	0.124623
C17	C	0.854062	0.181387	-0.249195
C18	C	0.919567	0.183123	-0.373805
C19	C	1.050589	0.186585	-0.373807
C20	C	1.116108	0.188311	-0.249197
C21	C	1.492257	-0.044694	0.000023
C22	C	1.488565	-0.184137	0.000018
C23	C	1.601106	-0.263620	0.000025
C24	C	1.597630	-0.394641	0.000015
C25	C	1.369061	-0.366684	-0.000001
C26	C	1.372539	-0.235666	-0.000002
C27	C	1.717133	-0.212091	0.000045
C28	C	1.829683	-0.291575	0.000052
C29	C	1.826207	-0.422596	0.000043
C30	C	1.710180	-0.474133	0.000025
C31	C	1.714625	0.177681	0.000021
C32	C	1.854067	0.181377	0.000014
C33	C	1.477919	0.414380	0.000013
C34	C	1.481611	0.553823	0.000009
N35	N	1.485094	0.184850	0.356138
N36	N	1.485092	0.184826	-0.356099
C37	C	1.569753	0.100244	0.428068
C38	C	1.569750	0.100228	0.571951
C39	C	1.400424	0.269437	0.571961
C40	C	1.400422	0.269445	0.428081
C41	C	1.654425	0.015648	0.356125
C42	C	1.739093	-0.068964	0.428055
C43	C	1.739089	-0.068979	0.571938
C44	C	1.654419	0.015618	0.643891
H45	H	1.103951	0.187979	0.226074
F46	F	0.849839	0.181261	-0.506415
H47	H	0.866239	0.181712	0.226084
F48	F	1.829190	-0.159002	0.351477
F49	F	1.829187	-0.159038	0.648489
F50	F	1.720842	-0.072649	0.000059
H51	H	1.654415	0.015590	0.761050
F52	F	1.953160	-0.236723	0.000055
F53	F	1.310320	0.359467	0.648542
F54	F	1.945990	-0.507185	0.000036
H55	H	1.707358	-0.580820	0.000003
F56	F	1.120302	0.188416	-0.506425
F57	F	1.255557	0.191977	-0.249205
F58	F	1.654439	0.015663	0.202993
H59	H	1.274597	-0.408657	-0.000013
H60	H	1.331483	0.338338	0.369515
F61	F	0.714616	0.177709	-0.249203
F62	F	1.252760	-0.151070	-0.000008
