data_functionalizedCrystal
_audit_creation_method	'MofGen! by Chris Wilmer'
_symmetry_space_group_name_H-M	'P1'
_symmetry_Int_Tables_number	1
_symmetry_cell_setting	triclinic
loop_
_symmetry_equiv_pos_as_xyz
  x,y,z
_cell_length_a	12.759400
_cell_length_b	12.759401
_cell_length_c	12.759393
_cell_angle_alpha	90.019559
_cell_angle_beta	89.968436
_cell_angle_gamma	89.987166
loop_
_atom_site_label
_atom_site_type_symbol
_atom_site_fract_x
_atom_site_fract_y
_atom_site_fract_z
Zn1	Zn	-0.418256	-1.606255	-0.594011
Zn2	Zn	-0.593975	-1.606150	-0.418331
Zn3	Zn	-0.418305	-1.430557	-0.418347
Zn4	Zn	-0.593888	-1.430546	-0.593969
O5	O	-0.506106	-1.518377	-0.506165
O6	O	-0.441582	-1.753262	-0.570718
O7	O	-0.570729	-1.582818	-0.271312
O8	O	-0.271278	-1.453913	-0.441674
O9	O	-0.570682	-1.753185	-0.441646
O10	O	-0.271242	-1.582998	-0.570733
O11	O	-0.441665	-1.453811	-0.271324
O12	O	-0.441581	-1.283535	-0.441633
O13	O	-0.570533	-1.453894	-0.740996
O14	O	-0.570581	-1.283527	-0.570662
O15	O	-0.441497	-1.582987	-0.741027
O16	O	-0.740985	-1.582807	-0.441606
O17	O	-0.740921	-1.453791	-0.570647
C18	C	-0.506077	-1.245410	-0.506145
C19	C	-0.506090	-1.128633	-0.506162
C20	C	-0.779073	-1.518315	-0.506143
C21	C	-0.895850	-1.518384	-0.506169
C22	C	-0.573366	-1.073794	-0.573235
C23	C	-0.573375	-0.964070	-0.573245
C24	C	-0.438830	-0.964034	-0.439099
C25	C	-0.438816	-1.073756	-0.439095
C26	C	-0.651048	-1.073815	-0.650680
C27	C	-0.651058	-0.964091	-0.650690
C28	C	-0.950710	-1.585637	-0.439051
C29	C	-1.060435	-1.585702	-0.439084
C30	C	-1.060428	-1.451252	-0.573354
C31	C	-0.950706	-1.451193	-0.573326
C32	C	-0.895855	-1.652828	-0.371894
C33	C	-0.950715	-1.720086	-0.304771
C34	C	-1.060439	-1.720150	-0.304803
C35	C	-1.115303	-1.652957	-0.371959
C36	C	-0.232073	-1.518468	-0.506210
C37	C	-0.115296	-1.518507	-0.506229
C38	C	-0.506000	-1.518451	-0.780198
C39	C	-0.505955	-1.518482	-0.896975
C40	C	-0.506127	-0.792410	-0.506180
C41	C	-0.506113	-0.909187	-0.506175
C42	C	-0.438759	-1.585710	-0.951855
C43	C	-0.438722	-1.585735	-1.061579
C44	C	-0.573083	-1.451301	-1.061534
C45	C	-0.573115	-1.451272	-0.951812
C46	C	-0.361190	-1.663328	-0.951881
C47	C	-0.361152	-1.663353	-1.061606
C48	C	-0.506136	-1.518364	-0.233197
C49	C	-0.505885	-1.518537	-0.116421
H50	H	-0.384027	-1.118401	-0.384485
H51	H	-0.732406	-0.934295	-0.628757
H52	H	-0.283842	-1.634239	-1.095653
N53	N	-0.777511	-1.652768	-0.371854
H54	H	-0.751003	-1.672032	-0.443933
H55	H	-0.751240	-1.580674	-0.352431
H56	H	-0.390361	-1.740599	-0.917847
N57	N	-0.891549	-1.792566	-0.232353
H58	H	-0.813715	-1.782322	-0.242514
H59	H	-0.910804	-1.776267	-0.157309
N60	N	-1.119613	-1.792695	-0.232420
H61	H	-1.068209	-1.835249	-0.189876
H62	H	-1.165212	-1.749979	-0.183777
H63	H	-0.622012	-0.930093	-0.728041
H64	H	-0.906038	-1.396431	-0.627980
H65	H	-1.105107	-1.396545	-0.628028
N66	N	-0.390020	-1.771130	-1.101065
H67	H	-0.402938	-1.819206	-1.039533
H68	H	-0.455627	-1.766357	-1.145057
H69	H	-0.728301	-1.107829	-0.621396
H70	H	-0.627761	-1.396579	-1.106195
H71	H	-0.384057	-0.919339	-0.384496
N72	N	-0.622312	-1.113312	-0.758508
H73	H	-0.609490	-1.051797	-0.806628
H74	H	-0.556678	-1.157322	-0.753866
N75	N	-1.233648	-1.653021	-0.372008
H76	H	-1.260006	-1.725097	-0.391392
H77	H	-1.260074	-1.633717	-0.299913
N78	N	-0.645549	-1.378722	-0.892618
H79	H	-0.688080	-1.336144	-0.944008
H80	H	-0.694204	-1.421424	-0.847067
H81	H	-0.279825	-1.641559	-0.922125
