data_functionalizedCrystal
_audit_creation_method	'MofGen! by Chris Wilmer'
_symmetry_space_group_name_H-M	'P1'
_symmetry_Int_Tables_number	1
_symmetry_cell_setting	triclinic
loop_
_symmetry_equiv_pos_as_xyz
  x,y,z
_cell_length_a	10.723024
_cell_length_b	9.065215
_cell_length_c	8.140239
_cell_angle_alpha	90.000939
_cell_angle_beta	90.001994
_cell_angle_gamma	84.741283
loop_
_atom_site_label
_atom_site_type_symbol
_atom_site_fract_x
_atom_site_fract_y
_atom_site_fract_z
O1	O	0.182966	1.959359	0.136590
O2	O	0.682966	2.459359	0.636590
O3	O	0.197979	1.529988	0.136597
O4	O	0.697979	2.029988	0.636597
O5	O	0.008937	1.754578	0.136587
O6	O	0.508937	2.254578	0.636587
O7	O	0.372009	1.734769	0.136600
O8	O	0.872009	2.234769	0.636600
O9	O	0.008935	1.754570	-0.136640
O10	O	0.508935	2.254570	0.363360
O11	O	0.197978	1.529981	-0.136630
O12	O	0.697978	2.029981	0.363370
O13	O	0.182965	1.959352	-0.136637
O14	O	0.682965	2.459352	0.363363
Zn15	Zn	0.190471	1.744665	-0.180014
Zn16	Zn	0.690471	2.244665	0.319986
Zn17	Zn	0.190473	1.744675	0.179974
Zn18	Zn	0.690473	2.244675	0.679974
O19	O	0.372007	1.734762	-0.136628
O20	O	0.872007	2.234762	0.363372
C21	C	0.196537	1.475006	-0.000016
C22	C	0.696537	1.975006	0.499984
C23	C	0.192225	1.311187	-0.000013
C24	C	0.692225	1.811187	0.499987
C25	C	-0.037569	1.753132	-0.000024
C26	C	0.462431	2.253132	0.499976
C27	C	-0.176141	1.748820	-0.000019
C28	C	0.323859	2.248820	0.499981
C29	C	-0.250614	1.874488	-0.000018
C30	C	0.249386	2.374488	0.499982
C31	C	-0.393836	1.870033	-0.000012
C32	C	0.106164	2.370033	0.499988
C33	C	0.418514	1.736207	-0.000012
C34	C	0.918514	2.236207	0.499988
C35	C	0.557085	1.740520	-0.000007
C36	C	1.057085	2.240520	0.499993
C37	C	0.184408	2.014334	-0.000021
C38	C	0.684408	2.514334	0.499979
C39	C	0.188719	2.178152	-0.000013
C40	C	0.688719	2.678152	0.499987
N41	N	0.190469	1.744669	-0.425697
N42	N	0.690469	2.244669	0.074303
N43	N	0.190465	1.744682	0.425657
N44	N	0.690465	2.244682	0.925657
H45	H	-0.208343	1.985375	-0.000030
H46	H	0.291657	2.485375	0.499970
H47	H	-0.457832	1.977615	-0.000020
H48	H	0.042168	2.477615	0.499980
Br49	Br	-0.336265	1.561192	-0.000028
Br50	Br	0.163735	2.061192	0.499972
H51	H	-0.218413	1.637933	-0.000006
H52	H	0.281587	2.137933	0.499994
