data_functionalizedCrystal
_audit_creation_method	'MofGen! by Chris Wilmer'
_symmetry_space_group_name_H-M	'P1'
_symmetry_Int_Tables_number	1
_symmetry_cell_setting	triclinic
loop_
_symmetry_equiv_pos_as_xyz
  x,y,z
_cell_length_a	15.995350
_cell_length_b	15.995350
_cell_length_c	16.776229
_cell_angle_alpha	89.995580
_cell_angle_beta	89.996506
_cell_angle_gamma	83.492375
loop_
_atom_site_label
_atom_site_type_symbol
_atom_site_fract_x
_atom_site_fract_y
_atom_site_fract_z
O1	O	1.110989	0.107929	-0.066217
O2	O	0.867213	0.121256	-0.066233
O3	O	0.995765	-0.007295	-0.066223
O4	O	0.982437	0.236480	-0.066226
O5	O	0.995748	-0.007303	0.066353
O6	O	0.867196	0.121248	0.066344
O7	O	1.110971	0.107921	0.066360
Zn8	Zn	0.989081	0.114583	0.087401
Zn9	Zn	0.989104	0.114594	-0.087274
O10	O	0.982420	0.236472	0.066351
C11	C	0.836010	0.120701	0.000054
C12	C	0.743060	0.119049	0.000047
C13	C	0.405312	0.113117	0.000064
C14	C	0.452746	0.021565	0.000361
C15	C	0.549436	0.023217	0.000056
C16	C	0.572873	0.116060	0.000056
C17	C	0.531795	0.161221	-0.075649
C18	C	0.435159	0.158921	-0.075707
C19	C	0.434801	0.160803	0.075058
C20	C	0.531747	0.160782	0.076053
C21	C	0.667570	0.117727	0.000049
C22	C	0.310614	0.111452	0.000066
C23	C	0.995205	-0.038494	0.000063
C24	C	0.993553	-0.131444	0.000059
C25	C	0.987621	-0.469192	0.000061
C26	C	0.896069	-0.421758	-0.000242
C27	C	0.897721	-0.325068	0.000057
C28	C	0.990564	-0.301631	0.000059
C29	C	1.035711	-0.342713	0.075769
C30	C	1.033411	-0.439349	0.075832
C31	C	1.035321	-0.439698	-0.074932
C32	C	1.035300	-0.342753	-0.075933
C33	C	0.992231	-0.206934	0.000061
C34	C	0.985956	-0.563890	0.000065
C35	C	1.142175	0.108476	0.000072
C36	C	1.235125	0.110127	0.000073
C37	C	0.982980	0.267671	0.000062
C38	C	0.984631	0.360621	0.000062
N39	N	0.989072	0.114576	0.206612
N40	N	0.989119	0.114595	-0.206485
C41	C	1.046012	0.057676	0.248334
C42	C	1.046016	0.057676	0.331786
C43	C	0.989085	0.114579	0.373515
C44	C	0.932139	0.171481	0.331788
C45	C	0.932131	0.171477	0.248338
C46	C	0.932169	0.171497	0.668336
C47	C	0.932183	0.171498	0.751792
C48	C	1.046055	0.057696	0.751784
C49	C	1.046047	0.057692	0.668333
C50	C	0.989098	0.114591	0.626613
C51	C	0.989093	0.114590	0.536125
C52	C	0.989093	0.114584	0.464002
H53	H	0.862232	-0.296642	-0.054215
H54	H	1.092423	0.011363	0.785761
C55	C	0.914002	0.285451	0.845627
C56	C	0.869593	0.234047	0.797662
H57	H	0.875363	0.324066	0.873941
H58	H	0.947912	0.251566	0.882413
H59	H	0.948839	0.315592	0.813053
H60	H	0.834761	0.203901	0.830237
H61	H	0.835669	0.267936	0.760872
C62	C	1.159962	0.039592	0.425626
C63	C	1.108607	-0.004863	0.377653
H64	H	1.198600	0.000980	0.453947
H65	H	1.190072	0.074455	0.393063
H66	H	1.126042	0.073478	0.462414
H67	H	1.142527	-0.038744	0.340862
H68	H	1.078496	-0.039741	0.410220
H69	H	0.885801	0.217827	0.634374
C70	C	0.882957	0.316401	0.222627
C71	C	0.869545	0.234025	0.202473
H72	H	0.844319	0.355013	0.194307
H73	H	0.874811	0.324543	0.278291
H74	H	0.938836	0.325516	0.208936
H75	H	0.813668	0.224908	0.216169
H76	H	0.877684	0.225879	0.146796
H77	H	0.577301	-0.012515	-0.054306
C78	C	0.482660	0.090149	-0.197381
C79	C	0.410448	0.114464	-0.152097
H80	H	0.467406	0.062697	-0.244538
H81	H	0.508917	0.138508	-0.211211
H82	H	0.520624	0.052739	-0.167106
H83	H	0.372486	0.151879	-0.182370
H84	H	0.384178	0.066098	-0.138268
H85	H	1.102822	-0.471459	-0.075439
H86	H	0.402911	0.226137	-0.079142
H87	H	0.414258	0.130869	0.132440
C88	C	1.158568	-0.054821	0.256716
C89	C	1.108593	-0.004876	0.202468
H90	H	1.197198	-0.093444	0.228401
H91	H	1.188685	-0.019949	0.289253
H92	H	1.123710	-0.084955	0.289276
H93	H	1.143450	0.025262	0.169912
H94	H	1.078473	-0.039753	0.169918
H95	H	1.103005	-0.327391	-0.080502
H96	H	0.577858	-0.012281	0.054325
H97	H	0.885779	0.217810	0.365769
H98	H	1.004340	-0.314335	0.132107
C99	C	1.159853	0.039394	0.574298
C100	C	1.108480	-0.004933	0.622386
H101	H	1.198355	0.000705	0.545914
H102	H	1.125932	0.073350	0.537574
H103	H	1.190123	0.074178	0.606797
H104	H	1.078206	-0.039713	0.589886
H105	H	1.142405	-0.038904	0.659115
H106	H	0.433159	-0.014859	-0.053630
C107	C	0.340931	-0.032997	0.072149
C108	C	0.427723	-0.027845	0.073648
H109	H	0.325480	-0.063506	0.117393
H110	H	0.311641	0.022074	0.073082
H111	H	0.326814	-0.061069	0.024959
H112	H	0.441840	0.000232	0.120835
H113	H	0.457023	-0.082927	0.072722
C114	C	0.599901	0.270646	-0.013647
C115	C	0.550867	0.253299	-0.079460
H116	H	0.611679	0.327490	-0.016003
H117	H	0.570099	0.261884	0.034047
H118	H	0.651186	0.234337	-0.014359
H119	H	0.499578	0.289604	-0.078744
H120	H	0.580669	0.262070	-0.127166
C121	C	0.503883	0.085953	0.195470
C122	C	0.568603	0.116269	0.151660
H123	H	0.526645	0.058467	0.242142
H124	H	0.463604	0.131608	0.210122
H125	H	0.477517	0.047211	0.163861
H126	H	0.594965	0.155016	0.183268
H127	H	0.608897	0.070608	0.137010
C128	C	1.140685	-0.279729	0.149902
C129	C	1.127790	-0.323647	0.079584
H130	H	1.197533	-0.267964	0.152257
H131	H	1.104388	-0.228445	0.150596
H132	H	1.128892	-0.313003	0.194544
H133	H	1.139577	-0.290371	0.034942
H134	H	1.164098	-0.374939	0.078883
C135	C	0.418559	0.293919	0.142745
C136	C	0.391926	0.251926	0.075756
H137	H	0.392090	0.350173	0.143167
H138	H	0.403775	0.265843	0.189701
H139	H	0.477877	0.294233	0.140788
H140	H	0.332609	0.251607	0.077715
H141	H	0.406704	0.280010	0.028788
C142	C	0.897890	-0.505150	-0.119351
C143	C	0.846669	-0.446776	-0.073528
H144	H	0.867388	-0.520603	-0.164592
H145	H	0.946290	-0.480717	-0.136373
H146	H	0.914718	-0.553725	-0.088167
H147	H	0.829846	-0.398198	-0.104711
H148	H	0.798253	-0.471208	-0.056508
H149	H	0.560177	0.129860	-0.131990
H150	H	0.547111	0.228485	0.080625
H151	H	0.859632	-0.441355	0.053743
H152	H	0.861980	-0.297206	0.054416
C153	C	0.964615	-0.391856	0.197500
C154	C	0.988939	-0.464065	0.152221
H155	H	0.937154	-0.407113	0.244657
H156	H	1.012971	-0.365600	0.211331
H157	H	0.927211	-0.353890	0.167221
H158	H	1.026348	-0.502029	0.182498
H159	H	0.940576	-0.490335	0.138392
C160	C	0.994129	-0.218817	-0.153589
C161	C	0.990805	-0.305893	-0.151546
H162	H	0.966663	-0.196060	-0.200271
H163	H	0.966783	-0.193712	-0.107828
H164	H	1.051198	-0.207630	-0.154068
H165	H	0.933736	-0.317081	-0.151061
H166	H	1.018149	-0.331007	-0.197320
H167	H	1.100626	-0.471597	0.079269
H168	H	1.005396	-0.460235	-0.132315
