data_functionalizedCrystal
_audit_creation_method	'MofGen! by Chris Wilmer'
_symmetry_space_group_name_H-M	'P1'
_symmetry_Int_Tables_number	1
_symmetry_cell_setting	triclinic
loop_
_symmetry_equiv_pos_as_xyz
  x,y,z
_cell_length_a	16.956984
_cell_length_b	15.455313
_cell_length_c	16.109301
_cell_angle_alpha	87.337130
_cell_angle_beta	79.757450
_cell_angle_gamma	92.481874
loop_
_atom_site_label
_atom_site_type_symbol
_atom_site_fract_x
_atom_site_fract_y
_atom_site_fract_z
O1	O	1.061527	0.072136	0.030571
O2	O	1.561527	0.572136	0.530571
O3	O	0.829362	0.072137	0.059761
O4	O	1.329362	0.572137	0.559761
O5	O	0.951822	0.072128	-0.076301
O6	O	1.451822	0.572128	0.423699
O7	O	0.939067	0.072145	0.166633
O8	O	1.439067	0.572145	0.666633
O9	O	0.944819	-0.072134	-0.068551
O10	O	1.444819	0.427866	0.431449
O11	O	0.822359	-0.072124	0.067512
O12	O	1.322359	0.427876	0.567512
O13	O	1.054524	-0.072126	0.038321
O14	O	1.554524	0.427874	0.538321
Cu15	Cu	0.937802	-0.085297	0.053624
Cu16	Cu	1.437802	0.414703	0.553624
Cu17	Cu	0.946084	0.085309	0.044458
Cu18	Cu	1.446084	0.585309	0.544458
O19	O	0.932064	-0.072116	0.174384
O20	O	1.432064	0.427884	0.674384
C21	C	0.796152	0.000007	0.065131
C22	C	1.296152	0.500007	0.565131
C23	C	0.707630	0.000007	0.069575
C24	C	1.207630	0.500007	0.569575
N25	N	0.931983	-0.205292	0.060070
N26	N	1.431983	0.294708	0.560070
C27	C	0.675565	-0.000000	-0.004727
C28	C	1.175565	0.500000	0.495273
C29	C	0.592389	0.000006	-0.000547
C30	C	1.092389	0.500006	0.499453
C31	C	0.541279	0.000014	0.077937
C32	C	1.041279	0.500014	0.577937
C33	C	0.573350	0.000023	0.152244
C34	C	1.073350	0.500023	0.652244
C35	C	0.656524	0.000023	0.148063
C36	C	1.156524	0.500023	0.648063
C37	C	0.291501	0.000021	0.098633
C38	C	0.791501	0.500021	0.598633
C39	C	0.208321	0.000019	0.102809
C40	C	0.708321	0.500019	0.602809
C41	C	0.227366	0.000004	-0.049983
C42	C	0.727366	0.500004	0.450017
C43	C	0.310542	-0.000002	-0.054157
C44	C	0.810542	0.499998	0.445843
C45	C	0.342605	0.000012	0.020150
C46	C	0.842605	0.500012	0.520150
N47	N	0.456259	0.000018	0.082211
N48	N	0.956259	0.500018	0.582211
N49	N	0.427624	0.000015	0.015874
N50	N	0.927624	0.500015	0.515874
C51	C	0.984026	-0.250691	0.002285
C52	C	1.484026	0.249309	0.502285
C53	C	0.979633	-0.341498	0.007167
C54	C	1.479633	0.158502	0.507167
C55	C	0.923199	-0.386906	0.069838
C56	C	1.423199	0.113094	0.569838
C57	C	0.871151	-0.341501	0.127626
C58	C	1.371151	0.158499	0.627626
C59	C	0.875541	-0.250695	0.122740
C60	C	1.375541	0.249305	0.622740
C61	C	0.904250	-0.658486	0.090907
C62	C	1.404250	-0.158486	0.590907
C63	C	0.899866	-0.749298	0.095791
C64	C	1.399866	-0.249298	0.595791
C65	C	1.008347	-0.749289	-0.024671
C66	C	1.508347	-0.249289	0.475329
C67	C	1.012736	-0.658481	-0.029548
C68	C	1.512736	-0.158481	0.470452
C69	C	0.960684	-0.613084	0.028237
C70	C	1.460684	-0.113084	0.528237
N71	N	0.918709	-0.479726	0.074832
N72	N	1.418709	0.020274	0.574832
N73	N	0.965171	-0.520266	0.023239
N74	N	1.465171	-0.020266	0.523239
C75	C	1.087734	0.000007	0.032951
C76	C	1.587734	0.500007	0.532951
C77	C	1.176256	0.000012	0.028507
C78	C	1.676256	0.500012	0.528507
N79	N	0.951909	0.205304	0.038005
N80	N	1.451909	0.705304	0.538005
C81	C	0.947803	-0.000004	-0.103365
C82	C	1.447803	0.499996	0.396635
C83	C	0.946254	-0.000005	-0.195555
C84	C	1.446254	0.499995	0.304445
C85	C	1.015319	0.000008	-0.422555
C86	C	1.515319	0.500008	0.077445
C87	C	1.013857	0.000016	-0.509176
C88	C	1.513857	0.500016	-0.009176
C89	C	0.868562	0.000013	-0.479356
C90	C	1.368562	0.500013	0.020644
C91	C	0.870024	0.000012	-0.392737
C92	C	1.370024	0.500012	0.107263
C93	C	0.943405	0.000005	-0.364339
C94	C	1.443405	0.500005	0.135661
C95	C	0.940481	0.000013	-0.537579
C96	C	1.440481	0.500013	-0.037579
C97	C	0.938896	0.000021	-0.631497
C98	C	1.438896	0.500021	-0.131497
C99	C	0.944990	-0.000001	-0.270416
C100	C	1.444990	0.499999	0.229584
C101	C	0.936082	0.000017	0.201448
C102	C	1.436082	0.500017	0.701448
C103	C	0.937632	0.000024	0.293637
C104	C	1.437632	0.500024	0.793637
H105	H	0.717173	-0.000010	-0.068637
H106	H	1.217173	0.499990	0.431363
F107	F	1.035022	-0.389815	-0.054336
F108	F	1.535022	0.110185	0.445664
H109	H	0.531730	0.000035	0.216147
H110	H	1.031730	0.500035	0.716147
F111	F	0.558268	0.000019	-0.079631
F112	F	1.058268	0.500019	0.420369
H113	H	0.811460	0.000012	-0.345335
H114	H	1.311460	0.500012	0.154665
H115	H	0.352150	-0.000012	-0.118067
H116	H	0.852150	0.499988	0.381933
H117	H	0.166708	0.000021	0.166724
H118	H	0.666708	0.500021	0.666724
F119	F	0.193236	-0.000008	-0.129061
F120	F	0.693236	0.499992	0.370939
H121	H	0.682630	0.000025	0.208568
H122	H	1.182630	0.500025	0.708568
F123	F	0.839798	-0.797619	0.162500
F124	F	1.339798	-0.297619	0.662500
H125	H	0.825197	-0.378477	0.178653
H126	H	1.325197	0.121523	0.678653
H127	H	1.058688	-0.621512	-0.080580
H128	H	1.558688	-0.121512	0.419420
H129	H	1.029984	-0.213726	-0.048746
H130	H	1.529984	0.286274	0.451254
F131	F	0.848856	-0.610178	0.152408
F132	F	1.348856	-0.110178	0.652408
H133	H	0.833161	-0.213733	0.169794
H134	H	1.333161	0.286267	0.669794
F135	F	1.093416	0.000002	-0.392335
F136	F	1.593416	0.500002	0.107665
F137	F	1.063739	-0.797609	-0.086168
F138	F	1.563739	-0.297609	0.413832
F139	F	1.090398	0.000020	-0.571130
F140	F	1.590398	0.500020	-0.071130
H141	H	0.808818	0.000017	-0.502489
H142	H	1.308818	0.500017	-0.002489
H143	H	0.317597	0.000039	0.159139
H144	H	0.817597	0.500039	0.659139
