data_functionalizedCrystal
_audit_creation_method	'MofGen! by Chris Wilmer'
_symmetry_space_group_name_H-M	'P1'
_symmetry_Int_Tables_number	1
_symmetry_cell_setting	triclinic
loop_
_symmetry_equiv_pos_as_xyz
  x,y,z
_cell_length_a	42.784839
_cell_length_b	42.784841
_cell_length_c	42.784893
_cell_angle_alpha	90.002418
_cell_angle_beta	59.997780
_cell_angle_gamma	119.999863
loop_
_atom_site_label
_atom_site_type_symbol
_atom_site_fract_x
_atom_site_fract_y
_atom_site_fract_z
O1	O	0.275695	-0.214412	-0.009300
O2	O	0.211692	-0.168961	0.009253
O3	O	0.275692	-0.168961	-0.054750
O4	O	0.211694	-0.214412	0.054702
O5	O	0.223708	-0.220945	-0.054749
O6	O	0.159708	-0.220945	0.009253
O7	O	0.223710	-0.266397	-0.009300
Zn8	Zn	0.183455	-0.251924	-0.000023
Zn9	Zn	0.251947	-0.183433	-0.000024
O10	O	0.159710	-0.266396	0.054703
C11	C	0.051021	-0.022778	0.028112
C12	C	0.013142	-0.041761	0.028375
C13	C	0.051018	-0.079378	0.028116
C14	C	0.013139	-0.098275	0.028379
C15	C	-0.005578	-0.079377	0.028112
C16	C	0.069652	-0.041762	0.028379
C17	C	0.152948	0.113708	0.017863
C18	C	0.173786	0.152360	0.014965
C19	C	0.155902	0.171750	0.013509
C20	C	0.178499	0.213661	0.010359
C21	C	0.117177	0.152485	0.014953
C22	C	0.096339	0.113835	0.017857
C23	C	0.114226	0.094447	0.019312
C24	C	-0.131813	-0.113936	0.017859
C25	C	-0.167567	-0.131750	0.014961
C26	C	-0.185502	-0.169024	0.013506
C27	C	-0.224264	-0.188340	0.010358
C28	C	-0.167685	-0.188485	0.014954
C29	C	-0.131938	-0.170675	0.017859
C30	C	-0.114002	-0.133396	0.019309
C31	C	0.152939	-0.113943	0.017877
C32	C	0.173778	-0.131757	0.014977
C33	C	0.155892	-0.169032	0.013523
C34	C	0.178486	-0.188349	0.010377
C35	C	0.117170	-0.188491	0.014967
C36	C	0.096334	-0.170675	0.017865
C37	C	0.114220	-0.133401	0.019323
C38	C	0.091629	0.052537	0.022456
C39	C	0.073617	0.019131	0.024964
C40	C	0.073613	-0.098693	0.024971
C41	C	0.091623	-0.114089	0.022466
C42	C	-0.044339	-0.098690	0.024964
C43	C	-0.075237	-0.114084	0.022456
O44	O	-0.327856	-0.266388	-0.009322
O45	O	-0.236954	-0.220935	0.009228
O46	O	-0.236950	-0.220939	-0.054773
O47	O	-0.327860	-0.266385	0.054680
O48	O	-0.236948	-0.168954	-0.054776
O49	O	-0.236952	-0.168950	0.009225
O50	O	-0.327854	-0.214403	-0.009325
Zn51	Zn	-0.282403	-0.183423	-0.000050
Zn52	Zn	-0.282405	-0.251916	-0.000046
O53	O	-0.327858	-0.214400	0.054676
C54	C	0.384390	-0.079141	-0.361606
C55	C	0.422270	-0.041526	-0.380503
C56	C	0.384390	-0.079141	-0.305008
C57	C	0.422270	-0.041526	-0.323990
C58	C	0.440988	-0.022543	-0.361606
C59	C	0.365758	-0.098038	-0.323991
C60	C	0.282465	-0.170819	-0.396168
C61	C	0.261627	-0.188759	-0.413983
C62	C	0.279513	-0.169420	-0.451257
C63	C	0.256917	-0.188867	-0.470572
C64	C	0.318239	-0.132140	-0.470717
C65	C	0.339076	-0.114205	-0.452905
C66	C	0.321187	-0.133546	-0.415628
C67	C	0.567227	0.113942	-0.453282
C68	C	0.602981	0.152594	-0.471222
C69	C	0.620916	0.171985	-0.451883
C70	C	0.659678	0.213894	-0.471328
C71	C	0.603097	0.152719	-0.414603
C72	C	0.567349	0.114068	-0.396667
C73	C	0.549414	0.094682	-0.416011
C74	C	0.282465	-0.170819	-0.168522
C75	C	0.261624	-0.188757	-0.129868
C76	C	0.279510	-0.169418	-0.110479
C77	C	0.256914	-0.188865	-0.068568
C78	C	0.318233	-0.132140	-0.129742
C79	C	0.339070	-0.114203	-0.168394
C80	C	0.321184	-0.133548	-0.187782
C81	C	0.343783	-0.114094	-0.396315
C82	C	0.361794	-0.098590	-0.380920
C83	C	0.361794	-0.098590	-0.263099
C84	C	0.343783	-0.114094	-0.229693
C85	C	0.479750	0.019366	-0.381054
C86	C	0.510649	0.052771	-0.396557
C87	C	0.440758	-0.356212	-0.028193
C88	C	0.422041	-0.393827	-0.028459
C89	C	0.384158	-0.356213	-0.028190
C90	C	0.365526	-0.393828	-0.028456
C91	C	0.384160	-0.412810	-0.028193
C92	C	0.422038	-0.337315	-0.028456
C93	C	0.567000	-0.264532	-0.017949
C94	C	0.602755	-0.246591	-0.015053
C95	C	0.620692	-0.265931	-0.013601
C96	C	0.659455	-0.246483	-0.010453
C97	C	0.602873	-0.303210	-0.015048
C98	C	0.567125	-0.321146	-0.017949
C99	C	0.549188	-0.301805	-0.019399
C100	C	0.339356	-0.549295	-0.017951
C101	C	0.318645	-0.587947	-0.015055
C102	C	0.279915	-0.607338	-0.013597
C103	C	0.257452	-0.649247	-0.010452
C104	C	0.261899	-0.588073	-0.015042
C105	C	0.282613	-0.549422	-0.017945
C106	C	0.321343	-0.530035	-0.019397
C107	C	0.339344	-0.264537	-0.017936
C108	C	0.318628	-0.246599	-0.015032
C109	C	0.279898	-0.265939	-0.013577
C110	C	0.257433	-0.246493	-0.010426
C111	C	0.261884	-0.303217	-0.015022
C112	C	0.282601	-0.321153	-0.017924
C113	C	0.321334	-0.301808	-0.019385
C114	C	0.510421	-0.321258	-0.022542
C115	C	0.479522	-0.336762	-0.025048
C116	C	0.361696	-0.336765	-0.025041
C117	C	0.343793	-0.321261	-0.022532
C118	C	0.361701	-0.454719	-0.025047
C119	C	0.343799	-0.488125	-0.022541
O120	O	0.223728	0.336934	-0.009323
O121	O	0.159726	0.227482	0.009227
O122	O	0.223729	0.291478	-0.054775
O123	O	0.159725	0.272938	0.054678
O124	O	0.275711	0.291477	-0.054771
O125	O	0.211707	0.227481	0.009230
O126	O	0.275710	0.336932	-0.009320
Zn127	Zn	0.251962	0.282206	-0.000045
Zn128	Zn	0.183474	0.282208	-0.000049
O129	O	0.211707	0.272936	0.054681
O130	O	0.763271	0.337164	-0.496871
O131	O	0.672367	0.227713	-0.451422
O132	O	0.672365	0.291711	-0.451418
O133	O	0.763273	0.273165	-0.496876
O134	O	0.672366	0.291712	-0.503402
O135	O	0.672368	0.227714	-0.503407
O136	O	0.763272	0.337165	-0.548856
Zn137	Zn	0.717820	0.282440	-0.534385
Zn138	Zn	0.717819	0.282438	-0.465893
O139	O	0.763275	0.273167	-0.548860
O140	O	0.211690	-0.214417	-0.548617
O141	O	0.275691	-0.168962	-0.503167
O142	O	0.211689	-0.168964	-0.503163
O143	O	0.275692	-0.214415	-0.548621
O144	O	0.159706	-0.220947	-0.451179
O145	O	0.223708	-0.220945	-0.451183
O146	O	0.159707	-0.266400	-0.496633
Zn147	Zn	0.183454	-0.251926	-0.465654
Zn148	Zn	0.251944	-0.183436	-0.534146
O149	O	0.223709	-0.266398	-0.496637
C150	C	-0.005343	-0.412572	0.361558
C151	C	0.013375	-0.393590	0.380456
C152	C	0.051255	-0.355974	0.304961
C153	C	0.069887	-0.337077	0.323944
C154	C	0.051254	-0.355974	0.361560
C155	C	0.013375	-0.393589	0.323943
C156	C	-0.131582	-0.549057	0.396116
C157	C	-0.167336	-0.587709	0.413930
C158	C	-0.185271	-0.607098	0.451205
C159	C	-0.224034	-0.649009	0.470519
C160	C	-0.167452	-0.587833	0.470666
C161	C	-0.131705	-0.549184	0.452854
C162	C	-0.113770	-0.529796	0.415578
C163	C	0.096061	-0.321414	0.453239
C164	C	0.116773	-0.303600	0.471179
C165	C	0.155502	-0.266327	0.451842
C166	C	0.177965	-0.247011	0.471288
C167	C	0.173517	-0.246866	0.414562
C168	C	0.152802	-0.264677	0.396625
C169	C	0.114073	-0.301955	0.415968
C170	C	0.096064	-0.321412	0.168474
C171	C	0.116779	-0.303599	0.129820
C172	C	0.155508	-0.266324	0.110432
C173	C	0.177972	-0.247009	0.068521
C174	C	0.173522	-0.246865	0.129696
C175	C	0.152807	-0.264680	0.168348
C176	C	0.114075	-0.301953	0.187735
C177	C	-0.075004	-0.487887	0.396265
C178	C	-0.044106	-0.454481	0.380871
C179	C	0.073715	-0.336660	0.263052
C180	C	0.091618	-0.321265	0.229646
C181	C	0.073714	-0.336661	0.381009
C182	C	0.091616	-0.321267	0.396513
C183	C	0.051046	-0.022794	-0.361634
C184	C	0.069679	-0.041778	-0.380530
C185	C	-0.005555	-0.079390	-0.305034
C186	C	0.013163	-0.098288	-0.324016
C187	C	0.051045	-0.079393	-0.361631
C188	C	0.013164	-0.041775	-0.324018
C189	C	0.095858	0.113693	-0.396200
C190	C	0.116571	0.152344	-0.414015
C191	C	0.155302	0.171732	-0.451290
C192	C	0.177767	0.213642	-0.470607
C193	C	0.173317	0.152465	-0.470750
C194	C	0.152600	0.113815	-0.452936
C195	C	0.113869	0.094429	-0.415659
C196	C	0.152973	-0.113959	-0.453306
C197	C	0.173810	-0.131775	-0.471245
C198	C	0.155926	-0.169048	-0.451906
C199	C	0.178519	-0.188366	-0.471350
C200	C	0.117198	-0.188507	-0.414626
C201	C	0.096358	-0.170694	-0.396690
C202	C	0.114251	-0.133416	-0.416035
C203	C	-0.131801	-0.113944	-0.168548
C204	C	-0.167554	-0.131755	-0.129895
C205	C	-0.185491	-0.169029	-0.110504
C206	C	-0.224255	-0.188343	-0.068593
C207	C	-0.167671	-0.188490	-0.129767
C208	C	-0.131918	-0.170677	-0.168418
C209	C	-0.113988	-0.133404	-0.187808
C210	C	0.091411	0.052521	-0.396344
C211	C	0.073508	0.019115	-0.380949
C212	C	-0.044320	-0.098701	-0.263125
C213	C	-0.075220	-0.114094	-0.229719
C214	C	0.073641	-0.098707	-0.381079
C215	C	0.091652	-0.114103	-0.396582
C216	C	-0.615853	-0.356193	0.361535
C217	C	-0.634487	-0.393808	0.380433
C218	C	-0.559253	-0.356195	0.304938
C219	C	-0.577972	-0.393810	0.323921
C220	C	-0.615854	-0.412792	0.361537
C221	C	-0.577972	-0.337297	0.323920
C222	C	-0.660661	-0.264512	0.396093
C223	C	-0.681373	-0.246571	0.413906
C224	C	-0.720104	-0.265909	0.451181
C225	C	-0.742568	-0.246461	0.470495
C226	C	-0.738120	-0.303189	0.470643
C227	C	-0.717405	-0.321125	0.452831
C228	C	-0.678674	-0.301785	0.415554
C229	C	-0.717784	-0.549275	0.453218
C230	C	-0.738622	-0.587926	0.471159
C231	C	-0.720740	-0.607319	0.451822
C232	C	-0.743333	-0.649227	0.471268
C233	C	-0.682012	-0.588055	0.414542
C234	C	-0.661170	-0.549403	0.396604
C235	C	-0.679063	-0.530016	0.415946
C236	C	-0.433006	-0.264522	0.168449
C237	C	-0.397253	-0.246585	0.129796
C238	C	-0.379317	-0.265926	0.110407
C239	C	-0.340553	-0.246480	0.068496
C240	C	-0.397138	-0.303204	0.129672
C241	C	-0.432891	-0.321139	0.168324
C242	C	-0.450820	-0.301793	0.187711
C243	C	-0.656216	-0.321238	0.396242
C244	C	-0.638314	-0.336743	0.380848
C245	C	-0.520488	-0.336748	0.263028
C246	C	-0.489588	-0.321245	0.229622
C247	C	-0.638451	-0.454700	0.380987
C248	C	-0.656463	-0.488106	0.396492
C249	C	0.440756	0.310302	-0.361620
C250	C	0.422038	0.310564	-0.380518
C251	C	0.384160	0.310312	-0.305026
C252	C	0.365528	0.310574	-0.324010
C253	C	0.384159	0.310303	-0.361624
C254	C	0.422038	0.310573	-0.324006
C255	C	0.566989	0.300046	-0.396172
C256	C	0.602741	0.297145	-0.413984
C257	C	0.620675	0.295684	-0.451257
C258	C	0.659436	0.292531	-0.470569
C259	C	0.602857	0.297127	-0.470719
C260	C	0.567111	0.300033	-0.452909
C261	C	0.549177	0.301493	-0.415634
C262	C	0.339351	0.300042	-0.453303
C263	C	0.318640	0.297142	-0.471244
C264	C	0.279912	0.295690	-0.451908
C265	C	0.257449	0.292541	-0.471354
C266	C	0.261899	0.297143	-0.414629
C267	C	0.282613	0.300049	-0.396692
C268	C	0.321341	0.301496	-0.416033
C269	C	0.339354	0.300088	-0.168540
C270	C	0.318640	0.297192	-0.129888
C271	C	0.279912	0.295742	-0.110501
C272	C	0.257450	0.292601	-0.068591
C273	C	0.261898	0.297184	-0.129766
C274	C	0.282612	0.300078	-0.168417
C275	C	0.321344	0.301533	-0.187802
C276	C	0.510413	0.304640	-0.396323
C277	C	0.479516	0.307151	-0.380931
C278	C	0.361701	0.307173	-0.263117
C279	C	0.343799	0.304671	-0.229712
C280	C	0.361700	0.307154	-0.381073
C281	C	0.343798	0.304644	-0.396578
O282	O	0.275503	0.336913	-0.548651
O283	O	0.211494	0.227461	-0.503201
O284	O	0.275490	0.291455	-0.503192
O285	O	0.211507	0.272919	-0.548659
O286	O	0.223502	0.291457	-0.451211
O287	O	0.159506	0.227463	-0.451219
O288	O	0.223515	0.336915	-0.496669
Zn289	Zn	0.183256	0.282189	-0.465691
Zn290	Zn	0.251753	0.282187	-0.534179
O291	O	0.159519	0.272921	-0.496677
C292	C	0.051032	0.254111	0.361530
C293	C	0.013154	0.253851	0.380425
C294	C	0.051031	0.254102	0.304932
C295	C	0.013153	0.253842	0.323913
C296	C	-0.005564	0.254113	0.361527
C297	C	0.069663	0.253840	0.323916
C298	C	0.152954	0.264360	0.396096
C299	C	0.173791	0.267260	0.413911
C300	C	0.155906	0.268721	0.451185
C301	C	0.178502	0.271871	0.470501
C302	C	0.117182	0.267279	0.470643
C303	C	0.096345	0.264374	0.452830
C304	C	0.114233	0.262915	0.415555
C305	C	-0.131796	0.264379	0.453195
C306	C	-0.167548	0.267281	0.471133
C307	C	-0.185483	0.268734	0.451793
C308	C	-0.224243	0.271886	0.471236
C309	C	-0.167664	0.267282	0.414515
C310	C	-0.131919	0.264374	0.396581
C311	C	-0.113984	0.262925	0.415925
C312	C	0.152952	0.264325	0.168451
C313	C	0.173792	0.267221	0.129798
C314	C	0.155907	0.268673	0.110407
C315	C	0.178502	0.271814	0.068498
C316	C	0.117186	0.267232	0.129669
C317	C	0.096350	0.264339	0.168320
C318	C	0.114234	0.262881	0.187709
C319	C	0.091638	0.259769	0.396240
C320	C	0.073627	0.257260	0.380845
C321	C	0.073626	0.257242	0.263024
C322	C	0.091636	0.259743	0.229619
C323	C	-0.044324	0.257264	0.380973
C324	C	-0.075221	0.259775	0.396474
H325	H	0.437930	-0.026285	-0.308746
O326	O	-0.005593	-0.135164	-0.305785
C327	C	-0.043101	-0.147841	-0.268439
H328	H	-0.056023	-0.129837	-0.267266
H329	H	-0.069902	-0.179166	-0.260470
H330	H	-0.033709	-0.144770	-0.247381
H331	H	0.333315	-0.603629	-0.013877
H332	H	-0.002510	0.253416	0.308669
H333	H	0.230365	-0.603862	-0.013858
O334	O	-0.114461	-0.077753	0.019340
C335	C	-0.147342	-0.076935	0.051517
H336	H	-0.174101	-0.106877	0.073703
H337	H	-0.131921	-0.056409	0.064466
H338	H	-0.162593	-0.066856	0.042400
O339	O	0.211104	-0.210641	0.395833
C340	C	0.203978	-0.186551	0.416600
H341	H	0.175515	-0.204482	0.447896
H342	H	0.235231	-0.164736	0.414513
H343	H	0.195428	-0.170955	0.404185
H344	H	0.205307	-0.115910	0.013801
H345	H	0.267943	-0.533739	-0.019121
O346	O	0.210967	0.171270	-0.506938
C347	C	0.243967	0.170583	-0.507751
H348	H	0.227793	0.145407	-0.482721
H349	H	0.264536	0.167357	-0.535810
H350	H	0.266258	0.198428	-0.505381
H351	H	0.064321	0.097912	-0.365848
H352	H	-0.002512	0.253428	0.411332
O353	O	-0.005250	-0.411784	0.305722
C354	C	0.025658	-0.413671	0.272727
H355	H	0.051471	-0.411195	0.276190
H356	H	0.007898	-0.442162	0.268658
H357	H	0.042597	-0.389183	0.246653
H358	H	-0.117435	-0.186523	0.019040
O359	O	0.170238	-0.245767	0.360440
C360	C	0.139147	-0.242298	0.360459
H361	H	0.114752	-0.244577	0.390378
H362	H	0.157020	-0.213356	0.339275
H363	H	0.120527	-0.266155	0.351740
O364	O	0.440782	-0.411955	-0.028963
C365	C	0.478307	-0.387118	-0.029151
H366	H	0.475301	-0.364385	-0.016783
H367	H	0.480702	-0.404195	-0.011032
H368	H	0.509261	-0.372691	-0.059789
O369	O	0.440652	0.311014	-0.417372
C370	C	0.409758	0.278213	-0.419463
H371	H	0.374865	0.266926	-0.394062
H372	H	0.413598	0.285976	-0.447237
H373	H	0.415829	0.255215	-0.418780
O374	O	0.106059	-0.023574	0.028821
C375	C	0.140948	-0.021687	-0.003967
H376	H	0.135026	-0.024153	-0.027315
H377	H	0.173506	0.006799	-0.014685
H378	H	0.142524	-0.046181	0.003587
H379	H	0.167269	0.098131	-0.468782
H380	H	-0.182070	-0.115902	0.013781
O381	O	-0.005598	-0.135141	0.028873
C382	C	-0.043123	-0.147823	0.029062
H383	H	-0.040120	-0.122081	0.016707
H384	H	-0.045512	-0.167285	0.010931
H385	H	-0.074078	-0.164358	0.059698
H386	H	0.230368	0.295965	-0.398887
H387	H	-0.117212	-0.083598	-0.184336
O388	O	0.265179	-0.357343	-0.019387
C389	C	0.296263	-0.357320	-0.053958
H390	H	0.330932	-0.331398	-0.065359
H391	H	0.294147	-0.384631	-0.048602
H392	H	0.288845	-0.355912	-0.075867
O393	O	0.224306	-0.321967	-0.013679
C394	C	0.231426	-0.301193	-0.044884
H395	H	0.268307	-0.282083	-0.068745
H396	H	0.213086	-0.321969	-0.055891
H397	H	0.218641	-0.282730	-0.035251
H398	H	0.100368	-0.306171	0.308703
O399	O	-0.185072	-0.224668	0.013475
C400	C	-0.181587	-0.224586	-0.021087
H401	H	-0.153881	-0.194673	-0.043198
H402	H	-0.173930	-0.245821	-0.032162
H403	H	-0.214131	-0.233197	-0.015851
O404	O	-0.005378	-0.411821	0.417331
C405	C	-0.042909	-0.449154	0.430021
H406	H	-0.039896	-0.458525	0.404284
H407	H	-0.045323	-0.469668	0.449511
H408	H	-0.073856	-0.449459	0.446529
O409	O	-0.450392	-0.245724	0.187316
C410	C	-0.446911	-0.242323	0.218396
H411	H	-0.419205	-0.244530	0.212801
H412	H	-0.439257	-0.213433	0.221815
H413	H	-0.479455	-0.266255	0.245702
H414	H	0.333308	0.295959	-0.501595
O415	O	0.211438	-0.112812	-0.507448
C416	C	0.222753	-0.076096	-0.520676
H417	H	0.207200	-0.067295	-0.495173
H418	H	0.260229	-0.054629	-0.538876
H419	H	0.209981	-0.076673	-0.538676
H420	H	-0.002500	-0.026531	-0.308780
O421	O	0.440893	-0.023393	-0.417368
C422	C	0.416240	-0.048228	-0.430054
H423	H	0.381144	-0.070968	-0.404313
H424	H	0.415183	-0.031151	-0.449511
H425	H	0.432455	-0.062646	-0.446595
O426	O	0.058711	-0.189638	0.019283
C427	C	0.047397	-0.226354	0.017370
H428	H	0.062944	-0.235156	0.027327
H429	H	0.009920	-0.247821	0.036642
H430	H	0.060177	-0.225777	-0.013404
H431	H	0.370885	0.301223	-0.469054
O432	O	0.620485	0.171589	-0.395809
C433	C	0.617000	0.202666	-0.392411
H434	H	0.589293	0.197069	-0.394619
H435	H	0.609344	0.206088	-0.363521
H436	H	0.649543	0.229972	-0.416345
O437	O	0.099028	0.171006	-0.395052
C438	C	0.060397	0.145606	-0.358335
H439	H	0.061549	0.121255	-0.349535
H440	H	0.058203	0.161615	-0.336868
H441	H	0.030202	0.133408	-0.358913
H442	H	0.335046	0.310999	-0.308768
O443	O	0.099865	-0.224681	0.013501
C444	C	0.131020	-0.224598	-0.021067
H445	H	0.165651	-0.198611	-0.032462
H446	H	0.129011	-0.251851	-0.015710
H447	H	0.123589	-0.223267	-0.042982
H448	H	0.205322	0.268398	0.114116
O449	O	-0.735111	-0.530389	0.471948
C450	C	-0.708409	-0.492142	0.448126
H451	H	-0.688844	-0.490104	0.416929
H452	H	-0.730225	-0.482295	0.452614
H453	H	-0.684568	-0.473100	0.455573
O454	O	-0.184853	0.268751	0.507320
C455	C	-0.181336	0.303325	0.507285
H456	H	-0.178681	0.314719	0.481359
H457	H	-0.211886	0.297976	0.534594
H458	H	-0.150599	0.325236	0.505873
H459	H	0.267897	-0.186572	-0.184305
H460	H	-0.002524	-0.026519	0.028802
O461	O	0.058701	0.262882	0.187085
C462	C	0.024151	0.228317	0.218149
H463	H	0.038669	0.216915	0.226900
H464	H	0.002199	0.233680	0.243340
H465	H	0.003648	0.206405	0.209325
O466	O	0.106035	0.253344	0.305674
C467	C	0.118526	0.253147	0.268340
H468	H	0.105139	0.265499	0.258986
H469	H	0.156118	0.271275	0.247819
H470	H	0.104425	0.222510	0.268027
O471	O	0.335670	-0.113361	-0.506947
C472	C	0.378787	-0.103832	-0.531941
H473	H	0.382495	-0.123914	-0.518902
H474	H	0.384904	-0.106839	-0.560583
H475	H	0.403825	-0.073038	-0.536551
H476	H	-0.770155	-0.603608	0.501511
O477	O	0.058395	-0.357596	0.472075
C478	C	0.025407	-0.358404	0.505772
H479	H	0.033169	-0.328459	0.502580
H480	H	-0.008070	-0.378930	0.510881
H481	H	0.024449	-0.368477	0.531100
H482	H	-0.382532	-0.318952	0.113884
H483	H	-0.382753	-0.216236	0.114110
H484	H	0.267896	-0.186572	-0.365817
O485	O	0.099883	0.268697	0.110782
C486	C	0.131039	0.303262	0.079710
H487	H	0.165670	0.314656	0.071067
H488	H	0.129032	0.297903	0.054465
H489	H	0.123610	0.325179	0.088471
H490	H	0.617482	-0.318952	-0.013867
O491	O	0.099212	-0.322548	0.111170
C492	C	0.060591	-0.359269	0.136568
H493	H	0.046539	-0.359234	0.167287
H494	H	0.035074	-0.367183	0.130329
H495	H	0.068931	-0.381084	0.132625
O496	O	-0.775727	-0.322021	0.506857
C497	C	-0.787191	-0.358771	0.520210
H498	H	-0.756504	-0.358840	0.503615
H499	H	-0.801361	-0.366610	0.551973
H500	H	-0.812978	-0.380580	0.515840
H501	H	0.167543	-0.083608	-0.469060
O502	O	0.440793	0.311100	-0.305884
C503	C	0.478298	0.311256	-0.330709
H504	H	0.491220	0.322999	-0.361636
H505	H	0.505100	0.330090	-0.326186
H506	H	0.468901	0.280805	-0.324381
O507	O	-0.184833	-0.606606	0.506880
C508	C	-0.161435	-0.581318	0.520232
H509	H	-0.144772	-0.550563	0.503638
H510	H	-0.185358	-0.587646	0.551995
H511	H	-0.135255	-0.585296	0.515861
H512	H	0.102623	0.268466	0.500992
O513	O	-0.623030	-0.245663	0.359889
C514	C	-0.611576	-0.208919	0.346530
H515	H	-0.627057	-0.200012	0.371963
H516	H	-0.574088	-0.187528	0.328320
H517	H	-0.624322	-0.209503	0.328504
H518	H	0.167518	0.263140	0.184235
H519	H	0.552621	-0.351498	-0.019128
O520	O	0.058398	-0.357594	0.187344
C521	C	0.023923	-0.357504	0.218423
H522	H	0.031728	-0.327591	0.212825
H523	H	-0.008389	-0.378740	0.221847
H524	H	0.020553	-0.366111	0.245729
O525	O	0.170376	0.262926	0.359895
C526	C	0.209024	0.264828	0.346539
H527	H	0.207975	0.254879	0.371974
H528	H	0.211135	0.245546	0.328333
H529	H	0.239214	0.295597	0.328510
H530	H	0.102633	-0.218858	-0.398880
H531	H	0.335269	-0.128941	-0.308748
O532	O	0.170351	-0.245717	0.187008
C533	C	0.208981	-0.209001	0.161607
H534	H	0.207827	-0.200200	0.137258
H535	H	0.211175	-0.187534	0.177616
H536	H	0.239177	-0.209580	0.149406
O537	O	0.211102	-0.210632	0.110867
C538	C	0.203987	-0.186542	0.097212
H539	H	0.167106	-0.199559	0.114984
H540	H	0.222331	-0.157196	0.099647
H541	H	0.216771	-0.183391	0.065965
H542	H	0.230091	-0.219108	-0.114185
H543	H	0.064825	-0.186540	-0.366338
H544	H	0.370598	-0.083850	-0.184076
H545	H	0.370892	-0.533512	-0.019136
O546	O	0.265191	0.301536	-0.187185
C547	C	0.296276	0.336102	-0.218249
H548	H	0.330946	0.347501	-0.226997
H549	H	0.294158	0.330741	-0.243443
H550	H	0.288862	0.358015	-0.209428
O551	O	-0.114230	-0.530278	0.359913
C552	C	-0.137616	-0.555569	0.346555
H553	H	-0.171955	-0.579955	0.371988
H554	H	-0.140798	-0.539473	0.328346
H555	H	-0.119006	-0.567731	0.328528
H556	H	0.267945	0.301232	-0.366341
H557	H	-0.181841	-0.603391	0.398082
H558	H	0.205320	0.268435	0.398066
H559	H	-0.117201	-0.533500	0.468702
H560	H	0.167506	-0.083593	0.019063
H561	H	-0.732075	-0.351477	0.468678
H562	H	0.370881	-0.248784	-0.019122
O563	O	-0.184938	-0.112909	-0.111157
C564	C	-0.229786	-0.133599	-0.097524
H565	H	-0.243251	-0.164927	-0.094583
H566	H	-0.249466	-0.131401	-0.068412
H567	H	-0.232907	-0.121202	-0.118554
H568	H	-0.667447	-0.603843	0.398798
O569	O	0.170369	0.094927	0.019295
C570	C	0.209018	0.120219	0.017391
H571	H	0.207971	0.144606	0.027342
H572	H	0.211128	0.104123	0.036672
H573	H	0.239207	0.132378	-0.013379
H574	H	0.437704	-0.306410	-0.028878
O575	O	0.224002	-0.224963	-0.395018
C576	C	0.212689	-0.238189	-0.358303
H577	H	0.228239	-0.212686	-0.349502
H578	H	0.175212	-0.256391	-0.336834
H579	H	0.225465	-0.256186	-0.358882
O580	O	0.058755	0.095095	0.019211
C581	C	0.065817	0.081462	-0.012005
H582	H	0.094205	0.078524	-0.022529
H583	H	0.034509	0.052350	-0.002573
H584	H	0.074447	0.102489	-0.036155
H585	H	0.370607	-0.083853	-0.468752
O586	O	0.211361	0.171071	0.013624
C587	C	0.204315	0.184725	0.044827
H588	H	0.167436	0.167025	0.068688
H589	H	0.222605	0.182186	0.055835
H590	H	0.217205	0.216004	0.035191
H591	H	0.552629	0.098160	-0.469035
O592	O	0.224321	0.295844	-0.110938
C593	C	0.231443	0.327053	-0.097288
H594	H	0.268325	0.350912	-0.115062
H595	H	0.213103	0.338058	-0.099725
H596	H	0.218661	0.317426	-0.066040
O597	O	0.549523	-0.245777	-0.019299
C598	C	0.504661	-0.266542	0.011905
H599	H	0.498565	-0.285652	0.035771
H600	H	0.496098	-0.245760	0.022904
H601	H	0.483046	-0.285006	0.002273
O602	O	0.099306	-0.322545	0.507363
C603	C	0.097781	-0.356243	0.508107
H604	H	0.123224	-0.352987	0.478160
H605	H	0.105524	-0.361451	0.528680
H606	H	0.063364	-0.381540	0.518082
H607	H	-0.117197	0.263199	0.468949
O608	O	0.099813	0.171346	0.013589
C609	C	0.089362	0.184987	0.044804
H610	H	0.110125	0.187820	0.055336
H611	H	0.096712	0.214152	0.035366
H612	H	0.052799	0.164022	0.068949
O613	O	-0.623567	-0.530754	0.360386
C614	C	-0.612241	-0.556151	0.347166
H615	H	-0.642995	-0.586870	0.363832
H616	H	-0.598084	-0.549913	0.315408
H617	H	-0.586487	-0.552209	0.351566
H618	H	-0.182279	-0.218843	-0.113977
O619	O	0.620220	0.171254	-0.507425
C620	C	0.596731	0.145852	-0.520652
H621	H	0.562428	0.121502	-0.495149
H622	H	0.593465	0.161860	-0.538853
H623	H	0.615307	0.133654	-0.538651
O624	O	0.549837	0.301504	-0.471821
C625	C	0.553328	0.336065	-0.475298
H626	H	0.580968	0.358182	-0.473020
H627	H	0.561087	0.347129	-0.504242
H628	H	0.520753	0.330832	-0.451443
H629	H	0.552845	0.098385	-0.366316
O630	O	0.336207	0.295813	-0.111237
C631	C	0.374826	0.297707	-0.136633
H632	H	0.388878	0.311790	-0.167353
H633	H	0.400344	0.315312	-0.130395
H634	H	0.366485	0.267553	-0.132688
H635	H	0.100165	-0.026535	-0.411435
O636	O	0.335533	-0.113355	-0.110859
C637	C	0.304371	-0.109939	-0.079799
H638	H	0.269742	-0.133189	-0.071152
H639	H	0.306381	-0.113266	-0.054552
H640	H	0.311790	-0.080602	-0.088577
H641	H	0.617258	-0.216240	-0.013873
O642	O	0.329212	-0.411973	-0.029036
C643	C	0.339091	-0.391482	-0.062176
H644	H	0.376311	-0.373365	-0.084915
H645	H	0.321574	-0.412454	-0.073601
H646	H	0.327378	-0.372058	-0.054810
H647	H	0.333296	-0.216247	-0.013853
H648	H	-0.117412	-0.186525	-0.184100
O649	O	-0.559210	-0.411929	0.305696
C650	C	-0.521698	-0.387101	0.268351
H651	H	-0.508784	-0.356177	0.267176
H652	H	-0.494893	-0.391618	0.260392
H653	H	-0.531082	-0.393431	0.247289
H654	H	-0.664969	-0.409045	0.411340
H655	H	-0.562326	-0.306401	0.308670
H656	H	-0.666703	-0.216219	0.398058
H657	H	-0.447397	-0.351491	0.184007
H658	H	0.370892	0.301275	-0.184323
H659	H	0.552391	0.301235	-0.365822
O660	O	0.619982	0.295728	-0.395019
C661	C	0.596495	0.297649	-0.358305
H662	H	0.562191	0.287696	-0.349505
H663	H	0.593230	0.278380	-0.336835
H664	H	0.615072	0.328424	-0.358889
H665	H	0.617463	0.295940	-0.501068
O666	O	0.058746	0.262996	0.471777
C667	C	0.047422	0.264898	0.508498
H668	H	0.078175	0.278984	0.508464
H669	H	0.033271	0.282504	0.516409
H670	H	0.021663	0.234746	0.530315
O671	O	-0.185050	0.268759	0.395718
C672	C	-0.181564	0.303323	0.392314
H673	H	-0.153858	0.325433	0.394521
H674	H	-0.173906	0.314394	0.363421
H675	H	-0.214107	0.298089	0.416245
O676	O	-0.114652	0.262985	0.360364
C677	C	-0.138151	0.264879	0.347141
H678	H	-0.154782	0.278970	0.363804
H679	H	-0.114309	0.282477	0.315383
H680	H	-0.164366	0.234725	0.351543
