data_functionalizedCrystal
_audit_creation_method	'MofGen! by Chris Wilmer'
_symmetry_space_group_name_H-M	'P1'
_symmetry_Int_Tables_number	1
_symmetry_cell_setting	triclinic
loop_
_symmetry_equiv_pos_as_xyz
  x,y,z
_cell_length_a	10.654550
_cell_length_b	9.065215
_cell_length_c	9.730223
_cell_angle_alpha	89.996553
_cell_angle_beta	89.999957
_cell_angle_gamma	84.749814
loop_
_atom_site_label
_atom_site_type_symbol
_atom_site_fract_x
_atom_site_fract_y
_atom_site_fract_z
O1	O	1.668658	0.207235	-0.114184
O2	O	1.303258	0.226979	-0.114209
O3	O	1.493512	0.002423	-0.114190
O4	O	1.478403	0.431791	-0.114203
O5	O	1.493500	0.002417	0.114390
O6	O	1.303245	0.226973	0.114371
O7	O	1.668646	0.207229	0.114396
Zn8	Zn	1.485943	0.217100	0.150675
Zn9	Zn	1.485960	0.217108	-0.150489
O10	O	1.478391	0.431785	0.114377
C11	C	1.256448	0.225526	0.000078
C12	C	1.116987	0.221189	0.000068
C13	C	1.038024	0.353404	0.000068
C14	C	0.906987	0.349320	0.000092
C15	C	0.933889	0.080794	0.000111
C16	C	1.064924	0.084879	0.000096
C17	C	1.492055	-0.052559	0.000098
C18	C	1.487716	-0.216378	0.000094
C19	C	1.715455	0.208682	0.000106
C20	C	1.854916	0.213019	0.000106
C21	C	1.479848	0.486767	0.000085
C22	C	1.484187	0.650586	0.000081
N23	N	1.485941	0.217093	0.356212
N24	N	1.485972	0.217103	-0.356025
C25	C	1.570216	0.117702	0.428146
C26	C	1.570228	0.117703	0.572029
C27	C	1.401688	0.316498	0.572031
C28	C	1.401671	0.316490	0.428150
H29	H	0.842700	0.456983	0.000095
O30	O	1.141585	-0.043603	-0.000150
C31	C	1.117722	-0.126300	-0.118507
H32	H	1.073822	-0.048870	-0.201254
H33	H	1.050055	-0.212391	-0.091730
C34	C	1.296284	-0.300035	-0.070561
C35	C	1.242375	-0.204932	-0.172195
H36	H	1.373174	-0.348546	-0.103676
H37	H	1.312359	-0.244325	0.009182
H38	H	1.239883	-0.371765	-0.048255
H39	H	1.298769	-0.133194	-0.194486
H40	H	1.226312	-0.260633	-0.251943
O41	O	1.651920	0.021010	0.641967
C42	C	1.583647	-0.070734	0.725235
H43	H	1.484569	-0.074316	0.681889
H44	H	1.577597	-0.024627	0.834277
C45	C	1.772767	-0.223996	0.780685
C46	C	1.651081	-0.228405	0.727440
H47	H	1.814365	-0.321253	0.782052
H48	H	1.818766	-0.162184	0.724590
H49	H	1.767709	-0.185567	0.871548
H50	H	1.656141	-0.266815	0.636574
H51	H	1.605085	-0.290227	0.783520
O52	O	1.319680	0.412844	0.358200
C53	C	1.241321	0.332969	0.274968
H54	H	1.237884	0.216590	0.318348
H55	H	1.280533	0.325651	0.165922
C56	C	1.111617	0.555754	0.219474
C57	C	1.107388	0.412818	0.272761
H58	H	1.029002	0.605010	0.218106
H59	H	1.164411	0.609569	0.275545
H60	H	1.144299	0.549636	0.128607
H61	H	1.074721	0.418939	0.363631
H62	H	1.054584	0.359006	0.216705
H63	H	1.333079	0.397427	0.630617
H64	H	1.638832	0.036766	0.369577
H65	H	0.891483	-0.030185	0.000142
H66	H	1.080410	0.464395	0.000056
