data_functionalizedCrystal
_audit_creation_method	'MofGen! by Chris Wilmer'
_symmetry_space_group_name_H-M	'P1'
_symmetry_Int_Tables_number	1
_symmetry_cell_setting	triclinic
loop_
_symmetry_equiv_pos_as_xyz
  x,y,z
_cell_length_a	21.883469
_cell_length_b	21.882911
_cell_length_c	21.879399
_cell_angle_alpha	60.006540
_cell_angle_beta	60.013207
_cell_angle_gamma	59.992231
loop_
_atom_site_label
_atom_site_type_symbol
_atom_site_fract_x
_atom_site_fract_y
_atom_site_fract_z
O1	O	0.084645	-0.892842	0.746620
O2	O	0.584645	-0.392842	1.246620
O3	O	0.031867	-0.695139	0.601571
O4	O	0.531867	-0.195139	1.101571
O5	O	0.157054	-0.820237	0.601476
O6	O	0.657054	-0.320237	1.101476
O7	O	-0.040542	-0.767744	0.746716
O8	O	0.459458	-0.267744	1.246716
O9	O	0.198586	-0.778715	0.642912
O10	O	0.698586	-0.278715	1.142912
O11	O	0.073399	-0.653617	0.643007
O12	O	0.573399	-0.153617	1.143007
O13	O	0.126177	-0.851320	0.788056
O14	O	0.626177	-0.351320	1.288056
Cu15	Cu	0.103580	-0.748677	0.719315
Cu16	Cu	0.603580	-0.248677	1.219315
Cu17	Cu	0.054464	-0.797782	0.670313
Cu18	Cu	0.554464	-0.297782	1.170313
O19	O	0.000990	-0.726222	0.788151
O20	O	0.500990	-0.226222	1.288151
N21	N	0.138128	-0.714145	0.753785
N22	N	0.638128	-0.214145	1.253785
N23	N	0.019923	-0.832320	0.635843
N24	N	0.519923	-0.332320	1.135843
C25	C	0.190018	-0.547369	0.805644
C26	C	0.690018	-0.047369	1.305644
C27	C	0.190029	-0.662289	0.805630
C28	C	0.690029	-0.162289	1.305630
C29	C	0.218780	-0.633565	0.834353
C30	C	0.718780	-0.133565	1.334353
C31	C	0.344122	-0.611968	0.768360
C32	C	0.844122	-0.111968	1.268360
C33	C	0.422474	-0.638085	0.742222
C34	C	0.922474	-0.138085	1.242222
C35	C	0.422504	-0.764859	0.790561
C36	C	0.922504	-0.264859	1.290561
C37	C	0.344154	-0.738739	0.816702
C38	C	0.844154	-0.238739	1.316702
C39	C	0.208899	-0.508180	0.728617
C40	C	0.708899	-0.008180	1.228617
C41	C	0.182748	-0.429822	0.702522
C42	C	0.682748	0.070178	1.202522
C43	C	0.118843	-0.429847	0.830485
C44	C	0.618843	0.070153	1.330485
C45	C	0.144993	-0.508205	0.856580
C46	C	0.644993	-0.008205	1.356580
C47	C	0.112994	-0.643364	0.824587
C48	C	0.612994	-0.143364	1.324587
C49	C	0.086865	-0.669476	0.798467
C50	C	0.586865	-0.169476	1.298467
C51	C	0.214799	-0.733437	0.734451
C52	C	0.714799	-0.233437	1.234451
C53	C	0.240932	-0.707325	0.760562
C54	C	0.740932	-0.207325	1.260562
C55	C	0.113084	-0.643389	0.959747
C56	C	0.613084	-0.143389	1.459747
C57	C	0.087018	-0.669524	1.038102
C58	C	0.587018	-0.169524	1.538102
C59	C	0.214996	-0.733501	1.038048
C60	C	0.714996	-0.233501	1.538048
C61	C	0.241061	-0.707367	0.959690
C62	C	0.741061	-0.207367	1.459690
C63	C	0.190103	-0.662308	0.920542
C64	C	0.690103	-0.162308	1.420542
C65	C	0.304966	-0.662293	0.805598
C66	C	0.804966	-0.162293	1.305598
C67	C	-0.117460	-0.854702	0.612901
C68	C	0.382540	-0.354702	1.112901
C69	C	-0.002405	-0.854864	0.498145
C70	C	0.497595	-0.354864	0.998145
C71	C	-0.002621	-0.969735	0.613108
C72	C	0.497379	-0.469735	1.113108
C73	C	-0.002603	-0.854858	0.613180
C74	C	0.497397	-0.354858	1.113180
C75	C	-0.031272	-0.883541	0.584334
C76	C	0.468728	-0.383541	1.084334
N77	N	0.460550	-0.714150	0.753681
N78	N	0.960550	-0.214150	1.253681
O79	O	0.699805	-0.721060	0.574973
O80	O	1.199805	-0.221060	1.074973
O81	O	0.700047	-0.866553	0.772482
O82	O	1.200047	-0.366553	1.272482
O83	O	0.699952	-0.866219	0.647213
O84	O	1.199952	-0.366219	1.147213
O85	O	0.699900	-0.721394	0.700242
O86	O	1.199900	-0.221394	1.200242
O87	O	0.575478	-0.824800	0.688791
O88	O	1.075478	-0.324800	1.188791
O89	O	0.575573	-0.825134	0.814060
O90	O	1.075573	-0.325134	1.314060
O91	O	0.575331	-0.679641	0.616551
O92	O	1.075331	-0.179641	1.116551
Cu93	Cu	0.564087	-0.748606	0.719102
Cu94	Cu	1.064087	-0.248606	1.219102
Cu95	Cu	0.711292	-0.797588	0.669931
Cu96	Cu	1.211292	-0.297588	1.169931
O97	O	0.575426	-0.679975	0.741820
O98	O	1.075426	-0.179975	1.241820
N99	N	0.814828	-0.832044	0.635345
N100	N	1.314828	-0.332044	1.135345
N101	N	0.138106	-0.391772	0.753815
N102	N	0.638106	0.108228	1.253815
O103	O	-0.040520	-0.152377	0.746758
O104	O	0.459480	0.347623	1.246758
O105	O	0.156993	-0.152371	0.601281
O106	O	0.656993	0.347629	1.101281
O107	O	0.031698	-0.152390	0.601639
O108	O	0.531698	0.347610	1.101639
O109	O	0.084775	-0.152358	0.746401
O110	O	0.584775	0.347642	1.246401
O111	O	0.073234	-0.276876	0.643130
O112	O	0.573234	0.223124	1.143130
O113	O	0.198529	-0.276856	0.642772
O114	O	0.698529	0.223144	1.142772
O115	O	0.001015	-0.276863	0.788249
O116	O	0.501015	0.223137	1.288249
Cu117	Cu	0.103564	-0.288226	0.719299
Cu118	Cu	0.603564	0.211774	1.219299
Cu119	Cu	0.054444	-0.141007	0.670231
Cu120	Cu	0.554444	0.358993	1.170231
O121	O	0.126310	-0.276844	0.787892
O122	O	0.626310	0.223156	1.287892
N123	N	0.019892	-0.037461	0.635717
N124	N	0.519892	0.462539	1.135717
N125	N	0.138332	-0.714192	1.076133
N126	N	0.638332	-0.214192	1.576133
O127	O	0.131293	-0.892804	1.315506
O128	O	0.631293	-0.392804	1.815506
O129	O	-0.014162	-0.695219	1.315533
O130	O	0.485838	-0.195219	1.815533
O131	O	-0.013826	-0.820490	1.315480
O132	O	0.486174	-0.320490	1.815480
O133	O	0.130957	-0.767533	1.315559
O134	O	0.630957	-0.267533	1.815559
O135	O	0.027651	-0.778981	1.191001
O136	O	0.527651	-0.278981	1.691001
O137	O	0.027314	-0.653710	1.191054
O138	O	0.527314	-0.153710	1.691054
O139	O	0.172770	-0.851295	1.191026
O140	O	0.672770	-0.351295	1.691026
Cu141	Cu	0.103829	-0.748713	1.179674
Cu142	Cu	0.603829	-0.248713	1.679674
Cu143	Cu	0.054778	-0.797802	1.326885
Cu144	Cu	0.554778	-0.297802	1.826885
O145	O	0.172434	-0.726024	1.191079
O146	O	0.672434	-0.226024	1.691079
N147	N	0.020275	-0.832331	1.430426
N148	N	0.520275	-0.332331	1.930426
C149	C	0.047687	-0.649466	0.602306
C150	C	0.547687	-0.149466	1.102306
C151	C	0.202716	-0.804385	0.602188
C152	C	0.702716	-0.304385	1.102188
C153	C	0.110357	-0.896993	0.787321
C154	C	0.610357	-0.396993	1.287321
C155	C	-0.044672	-0.742074	0.787439
C156	C	0.455328	-0.242074	1.287439
C157	C	0.637839	-0.865879	0.818154
C158	C	1.137839	-0.365879	1.318154
C159	C	0.637724	-0.865466	0.663023
C160	C	1.137724	-0.365466	1.163023
C161	C	0.637536	-0.680313	0.570880
C162	C	1.137536	-0.180313	1.070880
C163	C	0.637655	-0.680728	0.726010
C164	C	1.137655	-0.180728	1.226010
C165	C	0.202592	-0.214459	0.601942
C166	C	0.702592	0.285541	1.101942
C167	C	0.047481	-0.214636	0.602435
C168	C	0.547481	0.285364	1.102435
C169	C	-0.044635	-0.214620	0.787537
C170	C	0.455365	0.285380	1.287537
C171	C	0.110528	-0.214598	0.787096
C172	C	0.610528	0.285402	1.287096
C173	C	-0.013455	-0.649572	1.253296
C174	C	0.486545	-0.149572	1.753296
C175	C	-0.013030	-0.804697	1.253206
C176	C	0.486970	-0.304697	1.753206
C177	C	0.172063	-0.896942	1.253263
C178	C	0.672063	-0.396942	1.753263
C179	C	0.171648	-0.741808	1.253325
C180	C	0.671648	-0.241808	1.753325
H181	H	0.024299	-0.654107	1.070013
H182	H	0.524299	-0.154107	1.570013
H183	H	0.637745	-0.910963	0.651673
H184	H	1.137745	-0.410963	1.151673
H185	H	0.082193	-0.397958	0.871963
H186	H	0.582193	0.102042	1.371963
N187	N	0.277886	-0.819201	0.541766
N188	N	0.777886	-0.319201	1.041766
H189	H	0.311297	-0.871868	0.561036
H190	H	0.811297	-0.371868	1.061036
H191	H	0.301699	-0.782396	0.527271
H192	H	0.801699	-0.282396	1.027271
N193	N	0.277572	-0.214001	0.541289
N194	N	0.777572	0.285999	1.041289
H195	H	0.311011	-0.213890	0.560432
H196	H	0.811011	0.286110	1.060432
H197	H	0.270285	-0.167754	0.496219
H198	H	0.770285	0.332246	0.996219
H199	H	0.121632	-0.953785	0.832877
H200	H	0.621632	-0.453785	1.332877
H201	H	-0.101428	-0.730886	0.833046
H202	H	0.398572	-0.230886	1.333046
N203	N	0.032436	-0.214654	0.542194
N204	N	0.532436	0.285346	1.042194
H205	H	0.078399	-0.214655	0.495862
H206	H	0.578399	0.285345	0.995862
H207	H	-0.011005	-0.168509	0.529860
H208	H	0.488995	0.331491	1.029860
H209	H	0.637644	-0.635235	0.737357
H210	H	1.137644	-0.135235	1.237357
H211	H	0.217732	-0.953686	1.253245
H212	H	0.717732	-0.453686	1.753245
N213	N	0.231901	-0.726812	1.253353
N214	N	0.731901	-0.226812	1.753353
H215	H	0.212485	-0.674124	1.253367
H216	H	0.712485	-0.174124	1.753367
H217	H	0.277146	-0.732786	1.207207
H218	H	0.777146	-0.232786	1.707207
H219	H	-0.101359	-0.214623	0.833209
H220	H	0.398641	0.285377	1.333209
H221	H	0.071582	-0.606692	0.927876
H222	H	0.571582	-0.106692	1.427876
N223	N	0.637433	-0.619800	0.495749
N224	N	1.137433	-0.119800	0.995749
H225	H	0.637419	-0.638991	0.462287
H226	H	1.137419	-0.138991	0.962287
H227	H	0.683552	-0.605310	0.471960
H228	H	1.183552	-0.105310	0.971960
N229	N	-0.073946	-0.574405	1.253304
N230	N	0.426054	-0.074405	1.753304
H231	H	-0.119179	-0.581337	1.299440
H232	H	0.380821	-0.081337	1.799440
H233	H	-0.088364	-0.550604	1.207120
H234	H	0.411636	-0.050604	1.707120
H235	H	0.121892	-0.214588	0.832572
H236	H	0.621892	0.285412	1.332572
H237	H	0.637900	-0.911553	0.874882
H238	H	1.137900	-0.411553	1.374882
H239	H	-0.058496	-0.816008	1.253133
H240	H	0.441504	-0.316008	1.753133
N241	N	0.269958	-0.782076	1.080267
N242	N	0.769958	-0.282076	1.580267
H243	H	0.322704	-0.790089	1.043538
H244	H	0.822704	-0.290089	1.543538
H245	H	0.261945	-0.831994	1.112775
H246	H	0.761945	-0.331994	1.612775
N247	N	0.324136	-0.727781	0.917406
N248	N	0.824136	-0.227781	1.417406
H249	H	0.352459	-0.760287	0.954098
H250	H	0.852459	-0.260287	1.454098
H251	H	0.337738	-0.680655	0.884898
H252	H	0.837738	-0.180655	1.384898
H253	H	0.024137	-0.654049	0.813885
H254	H	0.524137	-0.154049	1.313885
N255	N	0.058094	-0.594780	0.873183
N256	N	0.558094	-0.094780	1.373183
H257	H	0.005328	-0.586748	0.881219
H258	H	0.505328	-0.086748	1.381219
H259	H	0.066132	-0.544872	0.847734
H260	H	0.566132	-0.044872	1.347734
H261	H	0.303660	-0.722726	0.745118
H262	H	0.803660	-0.222726	1.245118
N263	N	0.269702	-0.782020	0.685854
N264	N	0.769702	-0.282020	1.185854
H265	H	0.322465	-0.789738	0.677508
H266	H	0.822465	-0.289738	1.177508
H267	H	0.261376	-0.756738	0.636090
H268	H	0.761376	-0.256738	1.136090
N269	N	0.301918	-0.793021	0.856869
N270	N	0.801918	-0.293021	1.356869
H271	H	0.338635	-0.845411	0.859931
H272	H	0.838635	-0.345411	1.359931
H273	H	0.269384	-0.779036	0.828492
H274	H	0.769384	-0.279036	1.328492
H275	H	0.454413	-0.827107	0.799589
H276	H	0.954413	-0.327107	1.299589
H277	H	0.312222	-0.549720	0.759316
H278	H	0.812222	-0.049720	1.259316
N279	N	0.464702	-0.583801	0.702064
N280	N	0.964702	-0.083801	1.202064
H281	H	0.451036	-0.545637	0.655769
H282	H	0.951036	-0.045637	1.155769
H283	H	0.520270	-0.612001	0.687242
H284	H	1.020270	-0.112001	1.187242
N285	N	0.257463	-0.550424	0.673684
N286	N	0.757463	-0.050424	1.173684
H287	H	0.265449	-0.513706	0.620926
H288	H	0.765449	-0.013706	1.120926
H289	H	0.232021	-0.582938	0.681740
H290	H	0.732021	-0.082938	1.181740
H291	H	0.129609	-0.540114	0.919306
H292	H	0.629609	-0.040114	1.419306
N293	N	0.203104	-0.387547	0.619439
N294	N	0.703104	0.112453	1.119439
H295	H	0.235595	-0.424247	0.591131
H296	H	0.735595	0.075753	1.091131
H297	H	0.231330	-0.355035	0.605814
H298	H	0.731330	0.144965	1.105814
H299	H	0.036413	-0.592673	0.556752
H300	H	0.536413	-0.092673	1.056752
