data_functionalizedCrystal
_audit_creation_method	'MofGen! by Chris Wilmer'
_symmetry_space_group_name_H-M	'P1'
_symmetry_Int_Tables_number	1
_symmetry_cell_setting	triclinic
loop_
_symmetry_equiv_pos_as_xyz
  x,y,z
_cell_length_a	15.995292
_cell_length_b	27.732048
_cell_length_c	14.472310
_cell_angle_alpha	89.993924
_cell_angle_beta	89.985801
_cell_angle_gamma	83.055635
loop_
_atom_site_label
_atom_site_type_symbol
_atom_site_fract_x
_atom_site_fract_y
_atom_site_fract_z
O1	O	1.110222	0.062168	-0.076876
O2	O	0.866341	0.069891	-0.076874
O3	O	0.995856	-0.004336	-0.076857
O4	O	0.980707	0.136394	-0.076892
O5	O	0.995823	-0.004332	0.076825
O6	O	0.866307	0.069895	0.076808
O7	O	1.110189	0.062172	0.076806
Cu8	Cu	0.988245	0.066034	0.090839
Cu9	Cu	0.988285	0.066029	-0.090907
O10	O	0.980674	0.136398	0.076790
C11	C	0.835133	0.069579	-0.000032
C12	C	0.742192	0.068636	-0.000031
C13	C	0.404498	0.065172	-0.000040
C14	C	0.427117	0.118746	-0.000397
C15	C	0.523780	0.119765	-0.000047
C16	C	0.572032	0.066891	-0.000036
C17	C	0.543258	0.040108	0.087728
C18	C	0.446475	0.039463	0.087797
C19	C	0.446672	0.038365	-0.086968
C20	C	0.543139	0.040350	-0.088124
C21	C	0.666715	0.067859	-0.000030
C22	C	0.309815	0.064201	-0.000039
C23	C	0.995521	-0.022342	-0.000014
C24	C	0.994564	-0.076001	-0.000006
C25	C	1.065071	-0.414520	-0.000054
C26	C	1.061518	-0.616195	-0.000067
O27	O	1.125992	-0.647180	-0.000108
N28	N	0.984721	-0.635641	-0.000066
C29	C	0.908806	-0.604664	-0.000067
O30	O	0.843404	-0.625831	-0.000075
C31	C	0.912360	-0.402991	-0.000061
C32	C	0.989162	-0.383548	-0.000053
C33	C	1.141867	-0.395077	-0.000048
C34	C	1.142754	-0.344662	-0.000039
C35	C	1.066845	-0.313689	-0.000038
C36	C	0.990049	-0.333132	-0.000045
C37	C	0.836446	-0.372015	-0.000069
C38	C	0.837342	-0.321594	-0.000069
C39	C	0.914144	-0.302151	-0.000062
C40	C	0.915028	-0.251744	-0.000035
N41	N	0.991825	-0.232298	-0.000036
C42	C	1.067734	-0.263271	-0.000038
C43	C	0.906946	-0.710546	-0.000068
C44	C	0.906057	-0.760964	-0.000068
C45	C	1.058770	-0.772492	-0.000070
C46	C	1.059657	-0.722072	-0.000064
C47	C	0.983743	-0.691100	-0.000070
C48	C	1.069592	-0.157394	-0.000020
C49	C	1.070473	-0.106973	-0.000008
C50	C	0.917761	-0.095450	-0.000011
C51	C	0.916880	-0.145867	-0.000018
C52	C	0.992802	-0.176838	-0.000026
O53	O	0.850589	-0.220730	-0.000004
O54	O	1.133127	-0.242094	-0.000050
C55	C	1.064183	-0.464936	-0.000063
C56	C	0.987387	-0.484379	-0.000069
C57	C	0.911479	-0.453407	-0.000068
C58	C	0.986499	-0.534797	-0.000069
C59	C	1.062407	-0.565770	-0.000071
C60	C	1.139205	-0.546324	-0.000072
C61	C	1.140092	-0.495909	-0.000064
C62	C	0.834682	-0.472852	-0.000066
C63	C	0.833800	-0.523269	-0.000073
C64	C	0.909709	-0.554241	-0.000075
C65	C	1.141397	0.062484	-0.000038
C66	C	1.234338	0.063426	-0.000045
C67	C	0.981008	0.154404	-0.000056
C68	C	0.981966	0.208063	-0.000070
N69	N	0.988224	0.066037	0.218670
N70	N	0.988313	0.066022	-0.218738
C71	C	0.988283	0.066027	0.592762
C72	C	0.918753	0.105611	0.553587
C73	C	0.918911	0.105755	0.446499
C74	C	0.988253	0.066032	0.407171
C75	C	1.075478	0.077037	0.446003
C76	C	1.075086	0.077318	0.553125
C77	C	0.971370	0.015320	0.553304
C78	C	0.969362	0.015659	0.446176
C79	C	0.988242	0.066034	0.302282
C80	C	0.988301	0.066026	0.697650
H81	H	0.419404	0.058015	0.153395
C82	C	1.039876	-0.024476	0.587534
N83	N	1.091475	-0.054446	0.613322
H84	H	1.016765	-0.015177	0.419409
C85	C	0.821569	-0.782345	-0.000065
N86	N	0.757929	-0.798447	-0.000069
H87	H	0.541896	0.140870	0.062963
H88	H	1.201012	-0.571551	-0.000070
C89	C	0.882681	0.004376	0.411897
N90	N	0.817392	-0.004121	0.386073
H91	H	0.775522	-0.296378	-0.000076
H92	H	0.398868	0.139395	-0.063337
H93	H	0.418142	0.055108	-0.153487
H94	H	0.542548	0.140737	-0.062962
H95	H	0.563062	0.058711	0.153033
H96	H	0.575629	0.001200	0.090999
H97	H	1.202632	-0.480083	-0.000058
H98	H	0.854054	0.099200	0.420246
H99	H	0.909182	0.004735	0.580375
C100	C	0.834266	-0.061371	-0.000015
N101	N	0.771376	-0.035702	-0.000028
H102	H	0.853685	0.099163	0.579378
C103	C	0.933045	0.156160	0.589926
N104	N	0.943813	0.194234	0.617297
C105	C	0.749306	-0.544649	-0.000081
N106	N	0.685666	-0.560751	-0.000096
H107	H	1.128427	0.048973	0.420526
C108	C	0.832394	-0.167254	-0.000020
N109	N	0.768758	-0.183360	-0.000032
H110	H	1.120577	-0.797718	-0.000071
C111	C	0.387543	0.146492	0.084144
N112	N	0.357735	0.167388	0.147821
C113	C	0.751171	-0.438789	-0.000066
N114	N	0.688265	-0.413134	-0.000063
C115	C	0.933415	0.156589	0.411851
N116	N	0.944345	0.194879	0.385755
H117	H	0.432432	0.000182	0.091792
C118	C	1.096251	0.126429	0.409748
N119	N	1.111891	0.163633	0.382445
C120	C	0.567911	0.066690	-0.175840
N121	N	0.586577	0.086530	-0.241906
H122	H	1.090090	0.114298	0.578091
H123	H	0.576610	0.001757	-0.093417
C124	C	1.147055	0.039862	0.588133
N125	N	1.201270	0.011657	0.614498
H126	H	0.433189	-0.001070	-0.087553
H127	H	1.133017	-0.091146	0.000001
H128	H	1.131415	-0.182605	-0.000030
H129	H	1.205294	-0.328836	-0.000037
C130	C	1.225380	-0.429140	-0.000039
N131	N	1.288288	-0.454793	-0.000023
C132	C	1.144145	-0.700691	-0.000063
N133	N	1.207784	-0.684588	-0.000066
H134	H	0.845124	-0.685332	-0.000073
H135	H	0.773906	-0.387836	-0.000080
