data_functionalizedCrystal
_audit_creation_method	'MofGen! by Chris Wilmer'
_symmetry_space_group_name_H-M	'P1'
_symmetry_Int_Tables_number	1
_symmetry_cell_setting	triclinic
loop_
_symmetry_equiv_pos_as_xyz
  x,y,z
_cell_length_a	14.519709
_cell_length_b	11.792241
_cell_length_c	12.996460
_cell_angle_alpha	89.995297
_cell_angle_beta	89.992910
_cell_angle_gamma	83.936780
loop_
_atom_site_label
_atom_site_type_symbol
_atom_site_fract_x
_atom_site_fract_y
_atom_site_fract_z
O1	O	0.126406	1.506210	-0.085549
O2	O	0.139433	1.175796	-0.085556
O3	O	-0.001287	1.349763	-0.085543
O4	O	0.267126	1.332242	-0.085562
O5	O	-0.001295	1.349745	0.085591
O6	O	0.139425	1.175778	0.085578
O7	O	0.126398	1.506191	0.085585
Cu8	Cu	0.132911	1.340983	0.101207
Cu9	Cu	0.132920	1.341005	-0.101178
O10	O	0.267118	1.332224	0.085572
C11	C	-0.035654	1.348938	0.000024
C12	C	-0.138044	1.346491	0.000025
C13	C	0.138611	1.133501	0.000010
C14	C	0.136161	1.007501	0.000008
C15	C	0.127220	1.548487	0.000017
C16	C	0.129669	1.674487	0.000012
C17	C	-0.512973	1.337483	-0.000002
C18	C	-0.408656	1.339984	0.000006
C19	C	-0.325512	1.341987	0.000012
C20	C	-0.221188	1.344489	0.000018
C21	C	0.301484	1.333050	0.000003
C22	C	0.403875	1.335497	-0.000004
N23	N	0.132903	1.340976	0.243555
C24	C	0.134173	1.905174	0.000012
C25	C	0.131671	1.776803	0.000012
N26	N	0.132920	1.341020	-0.243525
C27	C	0.132921	1.341003	0.663369
C28	C	0.132919	1.340992	0.546564
C29	C	0.132913	1.340990	0.453465
C30	C	0.132910	1.340978	0.336653
