data_functionalizedCrystal
_audit_creation_method	'MofGen! by Chris Wilmer'
_symmetry_space_group_name_H-M	'P1'
_symmetry_Int_Tables_number	1
_symmetry_cell_setting	triclinic
loop_
_symmetry_equiv_pos_as_xyz
  x,y,z
_cell_length_a	21.295418
_cell_length_b	21.395364
_cell_length_c	21.395355
_cell_angle_alpha	89.975448
_cell_angle_beta	89.982705
_cell_angle_gamma	90.043338
loop_
_atom_site_label
_atom_site_type_symbol
_atom_site_fract_x
_atom_site_fract_y
_atom_site_fract_z
Zn1	Zn	-0.250431	0.957869	-0.354267
Zn2	Zn	0.249569	1.457869	0.145733
Zn3	Zn	-0.355682	0.957776	-0.249492
Zn4	Zn	0.144318	1.457776	0.250508
Zn5	Zn	-0.250459	0.853084	-0.249504
Zn6	Zn	0.249541	1.353084	0.250496
Zn7	Zn	-0.355694	0.853058	-0.354232
Zn8	Zn	0.144306	1.353058	0.145768
O9	O	-0.303066	0.905447	-0.301873
O10	O	0.196934	1.405447	0.198127
O11	O	-0.264377	1.045535	-0.340378
O12	O	0.235623	1.545535	0.159622
O13	O	-0.341731	0.943861	-0.161815
O14	O	0.158269	1.443861	0.338185
O15	O	-0.162366	0.867034	-0.263420
O16	O	0.337634	1.367034	0.236580
O17	O	-0.341704	1.045466	-0.263400
O18	O	0.158296	1.545466	0.236600
O19	O	-0.162345	0.944020	-0.340389
O20	O	0.337655	1.444020	0.159611
O21	O	-0.264424	0.866944	-0.161824
O22	O	0.235576	1.366944	0.338176
O23	O	-0.264434	0.765403	-0.263386
O24	O	0.235566	1.265403	0.236614
O25	O	-0.341724	0.866989	-0.441914
O26	O	0.158276	1.366989	0.058086
O27	O	-0.341750	0.765383	-0.340330
O28	O	0.158250	1.265383	0.159670
O29	O	-0.264387	0.943994	-0.441940
O30	O	0.235613	1.443994	0.058060
O31	O	-0.443773	0.943835	-0.263366
O32	O	0.056227	1.443835	0.236634
O33	O	-0.443782	0.866899	-0.340318
O34	O	0.056218	1.366899	0.159682
C35	C	-0.303097	0.742659	-0.301856
C36	C	0.196903	1.242659	0.198144
C37	C	-0.303125	0.673018	-0.301863
C38	C	0.196875	1.173018	0.198137
C39	C	-0.466618	0.905371	-0.301851
C40	C	0.033382	1.405371	0.198149
C41	C	-0.536586	0.905395	-0.301862
C42	C	-0.036586	1.405395	0.198138
C43	C	-0.262927	0.640363	-0.342007
C44	C	0.237073	1.140363	0.157993
C45	C	-0.262910	0.574927	-0.342010
C46	C	0.237090	1.074927	0.157990
C47	C	-0.303103	0.542150	-0.301875
C48	C	0.196897	1.042150	0.198125
C49	C	-0.343305	0.574813	-0.261722
C50	C	0.156695	1.074813	0.238278
C51	C	-0.343316	0.640247	-0.261717
C52	C	0.156684	1.140247	0.238283
C53	C	-0.359793	0.438428	-0.296838
C54	C	0.140207	0.938428	0.203162
C55	C	-0.359783	0.372995	-0.296848
C56	C	0.140217	0.872995	0.203152
C57	C	-0.303068	0.340329	-0.301888
C58	C	0.196932	0.840329	0.198112
C59	C	-0.246363	0.373104	-0.306932
C60	C	0.253637	0.873104	0.193068
C61	C	-0.246374	0.438538	-0.306926
C62	C	0.253626	0.938538	0.193074
C63	C	-0.303095	0.471197	-0.301876
C64	C	0.196905	0.971197	0.198124
C65	C	-0.262848	0.236721	-0.342038
C66	C	0.237152	0.736721	0.157962
C67	C	-0.262830	0.171285	-0.342036
C68	C	0.237170	0.671285	0.157964
C69	C	-0.343231	0.171171	-0.261751
C70	C	0.156769	0.671171	0.238249
C71	C	-0.343243	0.236606	-0.261750
C72	C	0.156757	0.736606	0.238250
C73	C	-0.303053	0.269378	-0.301897
C74	C	0.196947	0.769378	0.198103
C75	C	-1.035980	0.945611	-0.342032
C76	C	-0.535980	1.445611	0.157968
C77	C	-0.970238	0.945593	-0.342022
C78	C	-0.470238	1.445593	0.157978
C79	C	-0.937426	0.905532	-0.301912
C80	C	-0.437426	1.405532	0.198088
C81	C	-0.970361	0.865499	-0.261799
C82	C	-0.470361	1.365499	0.238201
C83	C	-1.036102	0.865523	-0.261805
C84	C	-0.536102	1.365523	0.238195
N85	N	-0.834270	0.850652	-0.297045
N86	N	-0.334270	1.350652	0.202955
N87	N	-0.771818	0.850631	-0.297042
N88	N	-0.271818	1.350631	0.202958
C89	C	-0.739351	0.905459	-0.301889
C90	C	-0.239351	1.405459	0.198111
N91	N	-0.771694	0.960309	-0.306751
N92	N	-0.271694	1.460309	0.193249
N93	N	-0.834152	0.960329	-0.306757
N94	N	-0.334152	1.460329	0.193243
C95	C	-0.866140	0.905502	-0.301901
C96	C	-0.366140	1.405502	0.198099
C97	C	-0.635138	0.945473	-0.341986
C98	C	-0.135138	1.445473	0.158014
C99	C	-0.569394	0.945456	-0.341972
C100	C	-0.069394	1.445456	0.158028
C101	C	-0.569519	0.865356	-0.261752
C102	C	-0.069519	1.365356	0.238248
C103	C	-0.635261	0.865379	-0.261763
C104	C	-0.135261	1.365379	0.238237
C105	C	-0.668067	0.905436	-0.301884
C106	C	-0.168067	1.405436	0.198116
C107	C	-0.138876	0.905540	-0.301910
C108	C	0.361124	1.405540	0.198090
C109	C	-0.068908	0.905580	-0.301926
C110	C	0.431092	1.405580	0.198074
C111	C	-0.303054	0.905499	-0.465297
C112	C	0.196946	1.405499	0.034703
C113	C	-0.303048	0.905521	-0.534938
C114	C	0.196952	1.405521	-0.034938
C115	C	-0.303036	1.068870	-0.301891
C116	C	0.196964	1.568870	0.198109
C117	C	-0.303023	1.138511	-0.301899
C118	C	0.196977	1.638511	0.198101
C119	C	-0.262778	0.945616	-0.567666
C120	C	0.237222	1.445616	-0.067666
C121	C	-0.262751	0.945615	-0.633101
C122	C	0.237249	1.445615	-0.133101
C123	C	-0.303005	0.905526	-0.665806
C124	C	0.196995	1.405526	-0.165806
C125	C	-0.343279	0.865424	-0.633071
C126	C	0.156721	1.365424	-0.133071
C127	C	-0.343300	0.865421	-0.567637
C128	C	0.156700	1.365421	-0.067637
C129	C	-0.359687	0.900552	-0.769473
C130	C	0.140313	1.400552	-0.269473
C131	C	-0.359666	0.900559	-0.834906
C132	C	0.140334	1.400559	-0.334906
C133	C	-0.302939	0.905530	-0.867627
C134	C	0.197061	1.405530	-0.367627
C135	C	-0.246230	0.910507	-0.834907
C136	C	0.253770	1.410507	-0.334907
C137	C	-0.246251	0.910504	-0.769473
C138	C	0.253749	1.410504	-0.269473
C139	C	-0.302986	0.905524	-0.736759
C140	C	0.197014	1.405524	-0.236759
C141	C	-0.262635	0.945626	-0.971307
C142	C	0.237365	1.445626	-0.471307
C143	C	-0.262607	0.945620	-1.036744
C144	C	0.237393	1.445620	-0.536744
C145	C	-0.343141	0.865432	-1.036713
C146	C	0.156859	1.365432	-0.536713
C147	C	-0.343164	0.865434	-0.971277
C148	C	0.156836	1.365434	-0.471277
C149	C	-0.302912	0.905534	-0.938579
C150	C	0.197088	1.405534	-0.438579
C151	C	-0.303034	0.905431	-0.139086
C152	C	0.196966	1.405431	0.360914
C153	C	-0.302862	0.905530	-0.069445
C154	C	0.197138	1.405530	0.430555
H155	H	-0.230172	0.548335	-0.374699
H156	H	0.269828	1.048335	0.125301
C157	C	-0.422041	0.895092	-0.870895
C158	C	0.077959	1.395092	-0.370895
H159	H	-0.413906	0.895816	-0.914551
H160	H	0.086094	1.395816	-0.414551
H161	H	-0.442182	0.856937	-0.860161
H162	H	0.057818	1.356937	-0.360161
H163	H	-0.448516	0.929165	-0.860181
H164	H	0.051484	1.429165	-0.360181
H165	H	-1.062912	0.832923	-0.229146
H166	H	-0.562912	1.332923	0.270854
H167	H	-0.229954	0.978263	-0.659753
H168	H	0.270046	1.478263	-0.159753
C169	C	-0.218711	0.676408	-0.386159
C170	C	0.281289	1.176408	0.113841
H171	H	-0.194763	0.647584	-0.410063
H172	H	0.305237	1.147584	0.089937
H173	H	-0.242832	0.701929	-0.413414
H174	H	0.257168	1.201929	0.086586
H175	H	-0.191249	0.701943	-0.362231
H176	H	0.308751	1.201943	0.137769
C177	C	-0.387445	0.135123	-0.217606
C178	C	0.112555	0.635123	0.282394
H179	H	-0.381685	0.091476	-0.223361
H180	H	0.118315	0.591476	0.276639
H181	H	-0.378177	0.145833	-0.175523
H182	H	0.121823	0.645833	0.324477
H183	H	-0.429757	0.145814	-0.226708
H184	H	0.070243	0.645814	0.273292
C185	C	-0.422089	0.895084	-0.733483
C186	C	0.077911	1.395084	-0.233483
H187	H	-0.413981	0.895789	-0.689827
H188	H	0.086019	1.395789	-0.189827
H189	H	-0.448558	0.929153	-0.744221
H190	H	0.051442	1.429153	-0.244221
H191	H	-0.442221	0.856926	-0.744192
H192	H	0.057779	1.356926	-0.244192
C193	C	-0.184003	0.474589	-0.312464
C194	C	0.315997	0.974589	0.187536
H195	H	-0.150221	0.445768	-0.315462
H196	H	0.349779	0.945768	0.184538
H197	H	-0.184877	0.500136	-0.348777
H198	H	0.315123	1.000136	0.151223
H199	H	-0.178426	0.500099	-0.276557
H200	H	0.321574	1.000099	0.223443
C201	C	-0.387601	0.821319	-0.531632
C202	C	0.112399	1.321319	-0.031632
H203	H	-0.381847	0.827058	-0.487978
H204	H	0.118153	1.327058	0.012022
H205	H	-0.429891	0.830462	-0.542361
H206	H	0.070109	1.330462	-0.042361
H207	H	-0.378387	0.779224	-0.542336
H208	H	0.121613	1.279224	-0.042336
C209	C	-0.387466	0.821336	-0.935272
C210	C	0.112534	1.321336	-0.435272
H211	H	-0.381711	0.827073	-0.891619
H212	H	0.118289	1.327073	-0.391619
H213	H	-0.429756	0.830481	-0.946001
H214	H	0.070244	1.330481	-0.446001
H215	H	-0.378253	0.779242	-0.945979
H216	H	0.121747	1.279242	-0.445979
H217	H	-0.375980	0.263195	-0.229063
H218	H	0.124020	0.763195	0.270937
H219	H	-0.405956	0.346314	-0.292745
H220	H	0.094044	0.846314	0.207255
C221	C	-0.422180	0.474357	-0.291290
C222	C	0.077820	0.974357	0.208710
H223	H	-0.414066	0.518020	-0.292002
H224	H	0.085934	1.018020	0.207998
H225	H	-0.448710	0.463628	-0.325326
H226	H	0.051290	0.963628	0.174674
H227	H	-0.442247	0.463593	-0.253107
H228	H	0.057753	0.963593	0.246893
H229	H	-0.542803	0.832740	-0.229092
H230	H	-0.042803	1.332740	0.270908
H231	H	-0.200181	0.346509	-0.311036
H232	H	0.299819	0.846509	0.188964
H233	H	-0.375911	0.832785	-1.063341
H234	H	0.124089	1.332785	-0.563341
H235	H	-0.376030	0.548121	-0.229043
H236	H	0.123970	1.048121	0.270957
C237	C	-0.387561	0.821330	-0.669044
C238	C	0.112439	1.321330	-0.169044
H239	H	-0.381786	0.827079	-0.712702
H240	H	0.118214	1.327079	-0.212702
H241	H	-0.378361	0.779236	-0.658306
H242	H	0.121639	1.279236	-0.158306
H243	H	-0.429859	0.830480	-0.658322
H244	H	0.070141	1.330480	-0.158322
C245	C	-0.218637	0.272772	-0.386191
C246	C	0.281363	0.772772	0.113809
H247	H	-0.194686	0.243950	-0.410094
H248	H	0.305314	0.743950	0.089906
H249	H	-0.242761	0.298288	-0.413447
H250	H	0.257239	0.798288	0.086553
H251	H	-0.191177	0.298312	-0.362266
H252	H	0.308823	0.798312	0.137734
H253	H	-0.230092	0.144698	-0.374725
H254	H	0.269908	0.644698	0.125275
H255	H	-0.376051	0.666834	-0.229025
H256	H	0.123949	1.166834	0.270975
C257	C	-1.072063	0.989678	-0.386156
C258	C	-0.572063	1.489678	0.113844
H259	H	-1.043033	1.013521	-0.410037
H260	H	-0.543033	1.513521	0.089963
H261	H	-1.097727	0.965708	-0.413435
H262	H	-0.597727	1.465708	0.086565
H263	H	-1.097685	1.017004	-0.362213
H264	H	-0.597685	1.517004	0.137787
H265	H	-0.943423	0.978192	-0.374682
H266	H	-0.443423	1.478192	0.125318
C267	C	-0.183877	0.915969	-0.733483
C268	C	0.316123	1.415969	-0.233483
H269	H	-0.150086	0.918925	-0.762338
H270	H	0.349914	1.418925	-0.262338
H271	H	-0.184694	0.952283	-0.707969
H272	H	0.315306	1.452283	-0.207969
H273	H	-0.178365	0.880056	-0.707947
H274	H	0.321635	1.380056	-0.207947
C275	C	-0.934271	0.821431	-0.217682
C276	C	-0.434271	1.321431	0.282318
H277	H	-0.890401	0.827145	-0.223427
H278	H	-0.390401	1.327145	0.276573
H279	H	-0.945049	0.830626	-0.175594
H280	H	-0.445049	1.330626	0.324406
H281	H	-0.945091	0.779331	-0.226817
H282	H	-0.445091	1.279331	0.273183
H283	H	-0.661849	0.978086	-0.374659
H284	H	-0.161849	1.478086	0.125341
C285	C	-0.183864	0.916382	-0.870891
C286	C	0.316136	1.416382	-0.370891
H287	H	-0.191981	0.915788	-0.914547
H288	H	0.308019	1.415788	-0.414547
H289	H	-0.164008	0.954636	-0.860030
H290	H	0.335992	1.454636	-0.360030
H291	H	-0.157142	0.882458	-0.860303
H292	H	0.342858	1.382458	-0.360303
C293	C	-0.533173	0.989494	-0.386089
C294	C	-0.033173	1.489494	0.113911
H295	H	-0.562129	1.013348	-0.409986
H296	H	-0.062129	1.513348	0.090014
H297	H	-0.507508	1.016800	-0.362147
H298	H	-0.007508	1.516800	0.137853
H299	H	-0.507542	0.965497	-0.413362
H300	H	-0.007542	1.465497	0.086638
C301	C	-0.218358	0.989727	-0.935333
C302	C	0.281642	1.489727	-0.435333
H303	H	-0.224144	0.983989	-0.891675
H304	H	0.275856	1.483989	-0.391675
H305	H	-0.176060	0.980582	-0.946049
H306	H	0.323940	1.480582	-0.446049
H307	H	-0.227563	1.031821	-0.946076
H308	H	0.272437	1.531821	-0.446076
C309	C	-0.671483	0.821337	-0.217654
C310	C	-0.171483	1.321337	0.282346
H311	H	-0.642528	0.797471	-0.193768
H312	H	-0.142528	1.297471	0.306232
H313	H	-0.697115	0.845326	-0.190380
H314	H	-0.197115	1.345326	0.309620
H315	H	-0.697148	0.794032	-0.241604
H316	H	-0.197148	1.294032	0.258396
C317	C	-0.218497	0.989719	-0.531700
C318	C	0.281503	1.489719	-0.031700
H319	H	-0.194506	1.013594	-0.560567
H320	H	0.305494	1.513594	-0.060567
H321	H	-0.242579	1.017003	-0.506184
H322	H	0.257421	1.517003	-0.006184
H323	H	-0.191078	0.965762	-0.506167
H324	H	0.308922	1.465762	-0.006167
C325	C	-0.218308	0.989727	-1.072745
C326	C	0.281692	1.489727	-0.572745
H327	H	-0.194345	1.013611	-1.043896
H328	H	0.305655	1.513611	-0.543896
H329	H	-0.190873	0.965780	-1.098260
H330	H	0.309127	1.465780	-0.598260
H331	H	-0.242381	1.017013	-1.098282
H332	H	0.257619	1.517013	-0.598282
