data_functionalizedCrystal
_audit_creation_method	'MofGen! by Chris Wilmer'
_symmetry_space_group_name_H-M	'P1'
_symmetry_Int_Tables_number	1
_symmetry_cell_setting	triclinic
loop_
_symmetry_equiv_pos_as_xyz
  x,y,z
_cell_length_a	13.033293
_cell_length_b	25.639240
_cell_length_c	13.032268
_cell_angle_alpha	82.864661
_cell_angle_beta	90.920818
_cell_angle_gamma	97.200942
loop_
_atom_site_label
_atom_site_type_symbol
_atom_site_fract_x
_atom_site_fract_y
_atom_site_fract_z
Zn1	Zn	1.498386	-0.162665	0.781409
Zn2	Zn	1.520093	-0.237801	0.609402
Zn3	Zn	1.348247	-0.159904	0.587586
Zn4	Zn	1.326334	-0.259596	0.759432
O5	O	1.423265	-0.204991	0.684457
O6	O	1.645188	-0.164666	0.776919
O7	O	1.515553	-0.217190	0.462604
O8	O	1.368250	-0.087103	0.613364
O9	O	1.661136	-0.219868	0.650546
O10	O	1.478556	-0.089132	0.755765
O11	O	1.389298	-0.159960	0.446576
O12	O	1.201418	-0.181094	0.592054
O13	O	1.330901	-0.257015	0.906251
O14	O	1.185318	-0.254338	0.718309
O15	O	1.457307	-0.185800	0.922397
O16	O	1.494304	-0.313858	0.629236
O17	O	1.351950	-0.329872	0.739463
C18	C	1.156050	-0.219782	0.650430
C19	C	1.041732	-0.226124	0.635897
C20	C	0.982861	-0.201695	0.692041
C21	C	0.864707	-0.208249	0.677023
C22	C	1.423130	-0.340836	0.684358
C23	C	1.423162	-0.398948	0.684362
C24	C	1.480719	-0.760335	0.758728
C25	C	1.480747	-0.814940	0.758753
O26	O	1.529521	-0.844051	0.821877
N27	N	1.423395	-0.841230	0.684574
C28	C	1.366004	-0.812913	0.610373
O29	O	1.317223	-0.840289	0.547282
C30	C	1.365971	-0.758311	0.610354
C31	C	1.423334	-0.732023	0.684530
C32	C	1.538077	-0.734047	0.832899
C33	C	1.538050	-0.679447	0.832873
C34	C	1.480666	-0.651134	0.758675
C35	C	1.423308	-0.677422	0.684504
C36	C	1.308574	-0.729997	0.536158
C37	C	1.308546	-0.675391	0.536145
C38	C	1.365909	-0.649103	0.610322
C39	C	1.365897	-0.594510	0.610280
N40	N	1.423249	-0.568219	0.684459
C41	C	1.480633	-0.596532	0.758656
C42	C	1.366076	-0.927583	0.610421
C43	C	1.366114	-0.982183	0.610434
C44	C	1.480855	-0.984206	0.758816
C45	C	1.480822	-0.929603	0.758796
C46	C	1.423427	-0.901293	0.684599
C47	C	1.480574	-0.481867	0.758595
C48	C	1.480546	-0.427261	0.758559
C49	C	1.365801	-0.425244	0.610182
C50	C	1.365833	-0.479844	0.610214
C51	C	1.423222	-0.508155	0.684429
O52	O	1.317144	-0.565365	0.547191
O53	O	1.529394	-0.569151	0.821745
C54	C	1.691523	-0.190143	0.718618
C55	C	1.805838	-0.183816	0.733175
C56	C	1.389238	-0.224147	0.952680
C57	C	1.374738	-0.232310	1.066981
C58	C	1.423426	-0.068616	0.684582
C59	C	1.423494	-0.010501	0.684636
C60	C	1.457218	-0.185869	0.417285
C61	C	1.471918	-0.177548	0.303010
C62	C	1.430817	-0.200713	1.125928
C63	C	1.415831	-0.209149	1.244064
H64	H	1.004660	-0.251890	0.576709
H65	H	1.527262	-0.405859	0.818963
H66	H	1.489918	-0.167415	1.088936
H67	H	1.527298	-0.504912	0.819034
N68	N	1.596675	-0.652609	0.908640
N69	N	1.692438	-0.652948	0.913965
H70	H	1.733852	-0.634001	0.967481
H71	H	1.356716	-0.242445	1.281051
N72	N	1.029344	-0.169361	0.766286
N73	N	1.018304	-0.121291	0.758145
H74	H	1.051129	-0.098453	0.810581
H75	H	1.531021	-0.144247	1.266023
H76	H	1.584805	-0.757094	0.893326
H77	H	1.315627	-0.265603	1.103972
N78	N	1.539426	-0.902761	0.834570
N79	N	1.590660	-0.928052	0.900805
H80	H	1.632051	-0.909098	0.954325
N81	N	0.818201	-0.240568	0.602762
N82	N	0.722286	-0.245844	0.590663
H83	H	0.689438	-0.268669	0.538216
H84	H	1.261804	-0.652343	0.475725
H85	H	1.319415	-1.003581	0.550023
N86	N	1.539473	-1.013140	0.834598
N87	N	1.539486	-1.061891	0.834597
H88	H	1.580884	-1.082327	0.888113
N89	N	0.852345	-0.151485	0.807417
N90	N	0.948260	-0.146203	0.819509
H91	H	0.981108	-0.123368	0.871940
H92	H	1.319342	-0.904534	0.549992
H93	H	1.319132	-0.501248	0.549806
H94	H	1.319082	-0.402183	0.549768
H95	H	1.261863	-0.751391	0.475755
