data_functionalizedCrystal
_audit_creation_method	'MofGen! by Chris Wilmer'
_symmetry_space_group_name_H-M	'P1'
_symmetry_Int_Tables_number	1
_symmetry_cell_setting	triclinic
loop_
_symmetry_equiv_pos_as_xyz
  x,y,z
_cell_length_a	14.044220
_cell_length_b	10.654549
_cell_length_c	9.730217
_cell_angle_alpha	89.999023
_cell_angle_beta	89.995579
_cell_angle_gamma	88.837898
loop_
_atom_site_label
_atom_site_type_symbol
_atom_site_fract_x
_atom_site_fract_y
_atom_site_fract_z
O1	O	0.133252	1.681224	-0.114281
O2	O	0.145941	1.317021	-0.114287
O3	O	0.001576	1.493656	-0.114271
O4	O	0.277617	1.504589	-0.114298
O5	O	0.001575	1.493650	0.114310
O6	O	0.145940	1.317015	0.114293
O7	O	0.133251	1.681218	0.114299
Zn8	Zn	0.139595	1.499115	0.150588
Zn9	Zn	0.139597	1.499123	-0.150576
O10	O	0.277616	1.504583	0.114283
C11	C	-0.033771	1.488867	0.000020
C12	C	-0.139090	1.474591	0.000021
C13	C	0.145008	1.270126	0.000002
C14	C	0.142217	1.130403	0.000000
C15	C	0.134184	1.728112	0.000007
C16	C	0.136975	1.867836	-0.000001
C17	C	-0.331924	1.448492	0.000001
C18	C	-0.388890	1.549740	-0.000001
C19	C	-0.496189	1.535219	-0.000013
C20	C	-0.224615	1.463012	0.000012
C21	C	0.312963	1.509372	-0.000011
C22	C	0.418282	1.523647	-0.000021
C23	C	-0.030415	2.140999	0.000001
C24	C	-0.118042	2.080657	0.000009
C25	C	-0.120667	1.949375	0.000016
C26	C	-0.035655	1.878432	0.000010
C27	C	0.051972	1.938775	0.000001
C28	C	0.054588	2.070060	-0.000001
C29	C	0.224602	1.928178	-0.000009
C30	C	0.227229	2.059460	-0.000005
C31	C	0.309614	1.857236	-0.000015
C32	C	0.397243	1.917578	-0.000013
C33	C	0.399865	2.048868	-0.000018
C34	C	0.314857	2.119803	-0.000014
N35	N	0.139593	1.499119	0.356125
N36	N	0.139591	1.499129	-0.356113
C37	C	0.011796	1.655603	0.356130
C38	C	-0.052100	1.733853	0.428072
C39	C	-0.052101	1.733866	0.571952
C40	C	0.011800	1.655617	0.643893
C41	C	0.075696	1.577366	0.571950
C42	C	0.075691	1.577365	0.428067
C43	C	0.203487	1.420878	0.571945
C44	C	0.203494	1.420870	0.428065
C45	C	0.267388	1.342629	0.643885
C46	C	0.331290	1.264383	0.571943
C47	C	0.331288	1.264375	0.428054
C48	C	0.267390	1.342620	0.356123
H49	H	-0.357076	1.647328	-0.000092
H50	H	0.471222	2.097991	-0.000026
H51	H	0.466453	1.859807	-0.000027
F52	F	-0.038453	1.738710	-0.000010
F53	F	-0.373504	1.320947	-0.000008
H54	H	-0.028286	2.247896	0.000012
F55	F	-0.208513	2.156167	0.000015
H56	H	0.383317	1.200649	0.369486
H57	H	-0.192021	1.900244	0.000015
F58	F	0.306818	1.717514	-0.000022
H59	H	0.316983	2.226700	-0.000011
H60	H	0.011798	1.655611	0.238975
F61	F	-0.120108	1.817124	0.351502
H62	H	-0.104134	1.797579	0.630528
H63	H	0.011787	1.655621	0.761047
F64	F	0.267383	1.342636	0.797016
F65	F	0.399284	1.181107	0.648512
F66	F	0.267386	1.342623	0.202993
