data_functionalizedCrystal
_audit_creation_method	'MofGen! by Chris Wilmer'
_symmetry_space_group_name_H-M	'P1'
_symmetry_Int_Tables_number	1
_symmetry_cell_setting	triclinic
loop_
_symmetry_equiv_pos_as_xyz
  x,y,z
_cell_length_a	14.044220
_cell_length_b	14.044220
_cell_length_c	12.503572
_cell_angle_alpha	93.835250
_cell_angle_beta	93.843168
_cell_angle_gamma	86.811122
loop_
_atom_site_label
_atom_site_type_symbol
_atom_site_fract_x
_atom_site_fract_y
_atom_site_fract_z
O1	O	0.225116	-1.282200	-0.089210
O2	O	0.725116	-0.782200	0.410790
O3	O	0.216809	-1.005530	-0.089237
O4	O	0.716809	-0.505530	0.410763
O5	O	0.082627	-1.139712	-0.089213
O6	O	0.582627	-0.639712	0.410787
O7	O	0.359298	-1.148019	-0.089234
O8	O	0.859298	-0.648019	0.410766
O9	O	0.092737	-1.129622	0.089427
O10	O	0.592737	-0.629622	0.589427
O11	O	0.226918	-0.995440	0.089403
O12	O	0.726918	-0.495440	0.589403
O13	O	0.235226	-1.272110	0.089430
O14	O	0.735226	-0.772110	0.589430
Cu15	Cu	0.231995	-1.132854	0.105728
Cu16	Cu	0.731995	-0.632854	0.605728
Cu17	Cu	0.220040	-1.144786	-0.105535
Cu18	Cu	0.720040	-0.644786	0.394465
O19	O	0.369407	-1.137929	0.089406
O20	O	0.869407	-0.637929	0.589406
C21	C	0.218228	-0.964864	0.000080
C22	C	0.718228	-0.464864	0.500080
C23	C	0.207383	-0.858721	0.000070
C24	C	0.707383	-0.358721	0.500070
C25	C	0.052060	-1.131031	0.000107
C26	C	0.552060	-0.631031	0.500107
C27	C	-0.054082	-1.120187	0.000107
C28	C	0.445918	-0.620187	0.500107
C29	C	0.233807	-1.312777	0.000111
C30	C	0.733807	-0.812777	0.500111
C31	C	0.244651	-1.418920	0.000114
C32	C	0.744651	-0.918920	0.500114
C33	C	-0.248421	-1.100361	0.000090
C34	C	0.251579	-0.600361	0.500090
C35	C	-0.299551	-1.177275	0.000094
C36	C	0.200449	-0.677275	0.500094
C37	C	-0.407687	-1.166244	0.000084
C38	C	0.092313	-0.666244	0.500084
C39	C	-0.140274	-1.111391	0.000099
C40	C	0.359726	-0.611391	0.500099
C41	C	0.399974	-1.146609	0.000084
C42	C	0.899974	-0.646609	0.500084
C43	C	0.506117	-1.157454	0.000077
C44	C	1.006117	-0.657454	0.500077
N45	N	0.240404	-1.124469	0.254319
N46	N	0.740404	-0.624469	0.754319
C47	C	0.187558	-0.664382	0.000092
C48	C	0.687558	-0.164382	0.500092
C49	C	0.264472	-0.613253	0.000091
C50	C	0.764472	-0.113253	0.500091
C51	C	0.253441	-0.505116	0.000104
C52	C	0.753441	-0.005116	0.500104
C53	C	0.198587	-0.772529	0.000080
C54	C	0.698587	-0.272529	0.500080
N55	N	0.211624	-1.153179	-0.254126
N56	N	0.711624	-0.653179	0.245874
C57	C	0.252782	-1.112134	0.473432
C58	C	0.752782	-0.612134	0.973432
C59	C	0.199249	-1.165511	0.526768
C60	C	0.699249	-0.665511	1.026768
C61	C	0.206136	-1.158648	0.648690
C62	C	0.706136	-0.658648	1.148690
C63	C	0.245896	-1.118996	0.351499
C64	C	0.745896	-0.618996	0.851499
H65	H	-0.262115	-1.251413	0.000029
H66	H	0.237885	-0.751413	0.500029
C67	C	0.320665	-1.044175	0.534576
C68	C	0.820665	-0.544175	1.034576
C69	C	0.295834	-0.950524	0.507349
C70	C	0.795834	-0.450524	1.007349
C71	C	0.358337	-0.887898	0.563679
C72	C	0.858337	-0.387898	1.063679
H73	H	0.384257	-1.060929	0.516257
H74	H	0.884257	-0.560929	1.016257
H75	H	0.316301	-1.048455	0.609583
H76	H	0.816301	-0.548455	1.109583
H77	H	0.300206	-0.946249	0.432358
H78	H	0.800206	-0.446249	0.932358
H79	H	0.232252	-0.933741	0.525671
H80	H	0.732252	-0.433741	1.025671
H81	H	0.353974	-0.892177	0.638687
H82	H	0.853974	-0.392177	1.138687
H83	H	0.421926	-0.904660	0.545356
H84	H	0.921926	-0.404660	1.045356
H85	H	0.341493	-0.824348	0.545222
H86	H	0.841493	-0.324348	1.045222
C87	C	-0.298297	-1.001506	-0.000138
C88	C	0.201703	-0.501506	0.499862
C89	C	-0.276906	-0.957238	-0.092057
C90	C	0.223094	-0.457238	0.407943
C91	C	-0.322858	-0.866179	-0.092307
C92	C	0.177142	-0.366179	0.407693
H93	H	-0.276878	-0.964175	0.062085
H94	H	0.223122	-0.464175	0.562085
H95	H	-0.365406	-1.007101	-0.000199
H96	H	0.134594	-0.507101	0.499801
H97	H	-0.209811	-0.951638	-0.091986
H98	H	0.290189	-0.451638	0.408014
H99	H	-0.298327	-0.994541	-0.154295
H100	H	0.201673	-0.494541	0.345705
H101	H	-0.389967	-0.871774	-0.092368
H102	H	0.110033	-0.371774	0.407632
H103	H	-0.301435	-0.828856	-0.030079
H104	H	0.198565	-0.328856	0.469921
H105	H	-0.308358	-0.836135	-0.154677
H106	H	0.191642	-0.336135	0.345323
C107	C	0.363236	-0.663348	-0.000010
C108	C	0.863236	-0.163348	0.499990
C109	C	0.354685	-0.762203	-0.000061
C110	C	0.854685	-0.262203	0.499939
C111	C	0.445640	-0.808387	-0.000184
C112	C	0.945640	-0.308387	0.499816
H113	H	0.400566	-0.642019	0.062256
H114	H	0.900566	-0.142019	0.562256
H115	H	0.393402	-0.648959	-0.062343
H116	H	0.893402	-0.148959	0.437657
H117	H	0.324534	-0.776585	0.062266
H118	H	0.824534	-0.276585	0.562266
H119	H	0.317372	-0.783560	-0.062323
H120	H	0.817372	-0.283560	0.437677
H121	H	0.475805	-0.793999	-0.062517
H122	H	0.975805	-0.293999	0.437483
H123	H	0.482963	-0.787050	0.062084
H124	H	0.982963	-0.287050	0.562084
H125	H	0.439850	-0.875465	-0.000228
H126	H	0.939850	-0.375465	0.499772
H127	H	0.113431	-0.626945	0.000104
H128	H	0.613431	-0.126945	0.500104
H129	H	0.148245	-1.216364	0.480864
H130	H	0.648245	-0.716364	0.980864
