data_functionalizedCrystal
_audit_creation_method	'MofGen! by Chris Wilmer'
_symmetry_space_group_name_H-M	'P1'
_symmetry_Int_Tables_number	1
_symmetry_cell_setting	triclinic
loop_
_symmetry_equiv_pos_as_xyz
  x,y,z
_cell_length_a	14.044191
_cell_length_b	14.044190
_cell_length_c	13.930277
_cell_angle_alpha	89.990896
_cell_angle_beta	89.995225
_cell_angle_gamma	93.191777
loop_
_atom_site_label
_atom_site_type_symbol
_atom_site_fract_x
_atom_site_fract_y
_atom_site_fract_z
O1	O	1.277182	0.230200	-0.079804
O2	O	1.000509	0.221888	-0.079816
O3	O	1.134689	0.087708	-0.079791
O4	O	1.143002	0.364380	-0.079829
O5	O	1.134669	0.087703	0.079870
O6	O	1.000489	0.221883	0.079846
O7	O	1.277161	0.230195	0.079857
Zn8	Zn	1.138822	0.226038	0.105202
Zn9	Zn	1.138849	0.226045	-0.105160
O10	O	1.142982	0.364375	0.079833
C11	C	0.964877	0.218249	0.000014
C12	C	0.858734	0.207401	0.000010
C13	C	0.613277	0.264502	0.000012
C14	C	0.664400	0.187585	0.000021
C15	C	0.772537	0.198614	0.000015
C16	C	0.505130	0.253475	0.000018
C17	C	1.131043	0.052083	0.000042
C18	C	1.120195	-0.054060	0.000050
C19	C	1.177296	-0.299517	0.000015
C20	C	1.100379	-0.248394	0.000018
C21	C	1.111408	-0.140257	0.000036
C22	C	1.166269	-0.407664	-0.000003
C23	C	1.312794	0.233834	0.000026
C24	C	1.418937	0.244682	0.000023
C25	C	1.146628	0.400000	-0.000003
C26	C	1.157476	0.506143	-0.000017
N27	N	1.138810	0.226034	0.248768
N28	N	1.138868	0.226042	-0.248726
C29	C	1.079430	0.285434	0.701026
C30	C	1.198294	0.166650	0.701017
C31	C	1.198283	0.166646	0.600521
C32	C	1.138845	0.226038	0.550273
C33	C	1.079418	0.285434	0.600521
C34	C	1.257715	0.107259	0.550266
C35	C	1.257707	0.107253	0.449764
C36	C	1.198263	0.166641	0.399514
C37	C	1.138833	0.226038	0.449768
C38	C	1.079395	0.285430	0.399520
C39	C	1.019960	0.344823	0.449772
C40	C	1.019974	0.344821	0.550271
C41	C	1.198248	0.166642	0.299016
C42	C	1.079384	0.285430	0.299015
H43	H	0.626955	0.113453	-0.000037
H44	H	0.650720	0.338629	-0.000001
H45	H	1.251423	-0.262074	0.000028
N46	N	1.258863	0.105881	0.247700
N47	N	1.311866	0.052796	0.292575
H48	H	1.354639	0.009840	0.256335
H49	H	1.030978	0.333790	0.258109
N50	N	1.007385	-0.295375	0.000005
N51	N	0.998439	-0.384427	-0.000007
H52	H	0.932765	-0.417613	-0.000014
H53	H	0.971569	0.393185	0.408849
H54	H	0.971585	0.393178	0.591193
N55	N	1.259023	0.106016	0.752355
N56	N	1.259039	0.106041	0.842086
H57	H	1.301937	0.063221	0.878348
N58	N	1.018707	0.346084	0.752352
N59	N	0.956888	0.310739	0.808442
H60	H	0.914000	0.353572	0.844693
N61	N	1.318461	0.046643	0.601606
N62	N	1.318480	0.046675	0.691337
H63	H	1.361396	0.003875	0.727601
H64	H	1.306101	0.058892	0.408855
