data_functionalizedCrystal
_audit_creation_method	'MofGen! by Chris Wilmer'
_symmetry_space_group_name_H-M	'P1'
_symmetry_Int_Tables_number	1
_symmetry_cell_setting	triclinic
loop_
_symmetry_equiv_pos_as_xyz
  x,y,z
_cell_length_a	14.519709
_cell_length_b	10.654550
_cell_length_c	9.730223
_cell_angle_alpha	89.993622
_cell_angle_beta	90.000973
_cell_angle_gamma	95.917476
loop_
_atom_site_label
_atom_site_type_symbol
_atom_site_fract_x
_atom_site_fract_y
_atom_site_fract_z
O1	O	0.129526	-1.666594	0.114406
O2	O	0.141867	-1.300997	0.114384
O3	O	0.001508	-1.493488	0.114384
O4	O	0.269885	-1.474102	0.114407
O5	O	0.001516	-1.493476	-0.114196
O6	O	0.141875	-1.300984	-0.114195
O7	O	0.129534	-1.666581	-0.114174
Zn8	Zn	0.135706	-1.483781	-0.150477
Zn9	Zn	0.135695	-1.483797	0.150687
O10	O	0.269893	-1.474089	-0.114173
C11	C	-0.032852	-1.492579	0.000093
C12	C	-0.135247	-1.489871	0.000092
C13	C	0.140965	-1.254201	0.000092
C14	C	0.138254	-1.114784	0.000083
C15	C	0.130436	-1.713377	0.000122
C16	C	0.133147	-1.852794	0.000140
C17	C	-0.510195	-1.479904	0.000127
C18	C	-0.405873	-1.482672	0.000117
C19	C	-0.322725	-1.484887	0.000109
C20	C	-0.218396	-1.487656	0.000101
C21	C	0.304253	-1.474999	0.000120
C22	C	0.406648	-1.477707	0.000130
N23	N	0.135712	-1.483779	-0.356013
C24	C	0.220895	-1.034504	0.000110
C25	C	0.218342	-0.903507	0.000134
C26	C	0.050500	-0.933085	0.000108
C27	C	0.053054	-1.064078	0.000075
C28	C	0.306095	-1.085209	0.000118
C29	C	0.388743	-1.004928	0.000147
C30	C	0.386190	-0.873931	0.000170
C31	C	0.300989	-0.823217	0.000165
C32	C	0.192162	-1.560066	-0.427942
C33	C	0.192145	-1.560085	-0.571825
C34	C	0.079225	-1.407519	-0.571837
C35	C	0.079238	-1.407508	-0.427957
C36	C	0.248636	-1.636337	-0.355999
C37	C	0.305092	-1.712629	-0.427928
C38	C	0.305075	-1.712647	-0.571811
C39	C	0.248602	-1.636374	-0.643764
N40	N	0.135682	-1.483809	0.356224
H41	H	0.308183	-1.191871	0.000105
H42	H	0.248659	-1.636327	-0.238842
H43	H	0.298917	-0.716549	0.000163
H44	H	0.453485	-0.808569	0.000180
C45	C	-0.043211	-0.877300	0.000122
H46	H	-0.032896	-0.787787	0.000161
H47	H	-0.077276	-0.904814	-0.079594
H48	H	-0.077271	-0.904871	0.079838
C49	C	-0.037849	-1.152391	0.000064
H50	H	-0.088957	-1.103434	0.000088
H51	H	-0.040342	-1.204087	-0.079655
H52	H	-0.040336	-1.204124	0.079776
H53	H	0.351065	-1.774734	-0.369334
H54	H	0.351037	-1.774777	-0.630372
C55	C	0.248574	-1.636400	-0.802033
H56	H	0.206855	-1.580054	-0.834579
H57	H	0.309165	-1.610041	-0.834609
H58	H	0.229667	-1.719125	-0.834549
H59	H	0.033249	-1.345419	-0.630433
C60	C	0.017149	-1.323588	-0.348829
H61	H	-0.016476	-1.278151	-0.412281
H62	H	-0.024937	-1.374953	-0.292682
H63	H	0.054560	-1.265868	-0.292722
H64	H	0.458110	-1.046228	0.000140
