data_functionalizedCrystal
_audit_creation_method	'MofGen! by Chris Wilmer'
_symmetry_space_group_name_H-M	'P1'
_symmetry_Int_Tables_number	1
_symmetry_cell_setting	triclinic
loop_
_symmetry_equiv_pos_as_xyz
  x,y,z
_cell_length_a	14.044220
_cell_length_b	17.699083
_cell_length_c	16.776229
_cell_angle_alpha	89.999799
_cell_angle_beta	90.002022
_cell_angle_gamma	91.764054
loop_
_atom_site_label
_atom_site_type_symbol
_atom_site_fract_x
_atom_site_fract_y
_atom_site_fract_z
O1	O	-1.257290	0.182444	-0.066182
O2	O	-0.981336	0.175860	-0.066203
O3	O	-1.127109	0.069500	-0.066200
O4	O	-1.111516	0.288803	-0.066185
O5	O	-1.127090	0.069492	0.066377
O6	O	-0.981317	0.175852	0.066374
O7	O	-1.257271	0.182435	0.066395
Zn8	Zn	-1.119290	0.179142	0.087433
Zn9	Zn	-1.119316	0.179153	-0.087242
O10	O	-1.111497	0.288795	0.066391
C11	C	-0.946018	0.172974	0.000082
C12	C	-0.840812	0.164378	0.000074
C13	C	-1.292588	0.185321	0.000107
C14	C	-1.397794	0.193917	0.000111
C15	C	-1.126541	0.041261	0.000085
C16	C	-1.124865	-0.042873	0.000074
C17	C	-0.648187	0.148663	0.000089
C18	C	-0.590414	0.209629	0.000096
C19	C	-0.483230	0.200885	0.000104
C20	C	-0.755381	0.157406	0.000080
N21	N	-1.119280	0.179134	0.206645
C22	C	-1.112066	0.317035	0.000105
C23	C	-1.113742	0.401168	0.000111
C24	C	-1.028176	0.443887	0.000105
C25	C	-1.029756	0.522939	0.000095
C26	C	-1.116904	0.559271	0.000098
C27	C	-1.202476	0.516547	0.000102
C28	C	-1.200895	0.437496	0.000106
C29	C	-1.208857	0.835350	0.000087
C30	C	-1.210432	0.914407	0.000086
C31	C	-1.037718	0.920793	0.000076
C32	C	-1.036137	0.841742	0.000080
C33	C	-1.121709	0.799025	0.000080
C34	C	-1.119994	0.713307	0.000088
C35	C	-1.118620	0.644987	0.000095
N36	N	-1.119334	0.179155	-0.206453
C37	C	-1.183848	0.132061	0.248363
C38	C	-1.183853	0.132061	0.331815
C39	C	-1.119294	0.179138	0.373548
C40	C	-1.054719	0.226214	0.331823
C41	C	-1.054710	0.226210	0.248373
C42	C	-1.054754	0.226231	0.668370
C43	C	-1.054770	0.226233	0.751827
C44	C	-1.183897	0.132082	0.751813
C45	C	-1.183888	0.132078	0.668363
C46	C	-1.119310	0.179150	0.626646
C47	C	-1.119304	0.179149	0.536157
C48	C	-1.119304	0.179144	0.464034
H49	H	-0.621449	0.268391	0.000096
H50	H	-1.273433	0.546135	0.000106
H51	H	-0.617153	0.089906	0.000089
N52	N	-0.937468	0.569015	0.000087
H53	H	-0.882021	0.534003	0.000091
H54	H	-0.934359	0.601957	0.049232
N55	N	-0.942143	0.802555	0.000089
H56	H	-0.888175	0.841613	0.000084
H57	H	-0.937728	0.769891	-0.049056
H58	H	-0.957210	0.414311	0.000111
H59	H	-0.968041	0.955583	0.000073
H60	H	-1.236461	0.093745	0.634387
H61	H	-1.281402	0.943986	0.000087
H62	H	-1.270571	0.402716	0.000108
H63	H	-1.278535	0.800579	0.000092
N64	N	-1.253550	0.081308	0.796808
H65	H	-1.243762	0.088449	0.856006
H66	H	-1.242734	0.026878	0.782223
H67	H	-1.236423	0.093728	0.214390
H68	H	-1.236429	0.093729	0.365782
H69	H	-1.002194	0.264571	0.785804
H70	H	-1.002174	0.264561	0.634411
N71	N	-0.985080	0.276986	0.376830
H72	H	-0.994883	0.269848	0.436026
H73	H	-0.995895	0.331415	0.362238
N74	N	-0.985065	0.276977	0.203372
H75	H	-0.944168	0.306802	0.242470
H76	H	-1.021258	0.312898	0.168739
