data_functionalizedCrystal
_audit_creation_method	'MofGen! by Chris Wilmer'
_symmetry_space_group_name_H-M	'P1'
_symmetry_Int_Tables_number	1
_symmetry_cell_setting	triclinic
loop_
_symmetry_equiv_pos_as_xyz
  x,y,z
_cell_length_a	10.654550
_cell_length_b	16.992695
_cell_length_c	16.053789
_cell_angle_alpha	87.278479
_cell_angle_beta	92.869384
_cell_angle_gamma	92.423437
loop_
_atom_site_label
_atom_site_type_symbol
_atom_site_fract_x
_atom_site_fract_y
_atom_site_fract_z
O1	O	1.682390	-0.113169	0.069500
O2	O	2.182390	0.386831	0.569500
O3	O	1.317818	-0.123666	0.069487
O4	O	1.817818	0.376334	0.569487
O5	O	1.498642	-0.004266	0.069487
O6	O	1.998642	0.495734	0.569487
O7	O	1.501566	-0.232568	0.069500
O8	O	2.001566	0.267432	0.569500
O9	O	1.488582	0.001689	-0.069373
O10	O	1.988582	0.501689	0.430627
O11	O	1.307758	-0.117711	-0.069373
O12	O	1.807758	0.382289	0.430627
O13	O	1.672330	-0.107213	-0.069360
O14	O	2.172330	0.392787	0.430640
Zn15	Zn	1.488447	-0.111517	-0.091414
Zn16	Zn	1.988447	0.388483	0.408586
Zn17	Zn	1.501701	-0.119363	0.091541
Zn18	Zn	2.001701	0.380637	0.591541
O19	O	1.491506	-0.226613	-0.069360
O20	O	1.991506	0.273387	0.430640
C21	C	1.265923	-0.119918	0.000055
C22	C	1.765923	0.380082	0.500055
C23	C	1.126280	-0.117611	0.000050
C24	C	1.626280	0.382389	0.500050
C25	C	1.489852	0.027944	0.000057
C26	C	1.989852	0.527944	0.500057
C27	C	1.478632	0.115049	0.000057
C28	C	1.978632	0.615049	0.500057
N29	N	1.479410	-0.106161	-0.216275
N30	N	1.979410	0.393839	0.283725
C31	C	1.052871	-0.187913	0.000066
C32	C	1.552871	0.312087	0.500066
C33	C	0.921663	-0.185742	0.000080
C34	C	1.421663	0.314258	0.500080
C35	C	0.937287	-0.042962	0.000066
C36	C	1.437287	0.457038	0.500066
C37	C	1.068492	-0.045133	0.000045
C38	C	1.568492	0.454867	0.500045
C39	C	1.110659	-0.260390	0.000071
C40	C	1.610659	0.239610	0.500071
C41	C	1.037249	-0.330698	0.000088
C42	C	1.537249	0.169302	0.500088
C43	C	0.906042	-0.328527	0.000102
C44	C	1.406042	0.171473	0.500102
C45	C	0.848244	-0.256048	0.000099
C46	C	1.348244	0.243952	0.500099
C47	C	1.724225	-0.110962	0.000074
C48	C	2.224225	0.389038	0.500074
C49	C	1.863868	-0.113269	0.000084
C50	C	2.363868	0.386731	0.500084
C51	C	1.500296	-0.258824	0.000072
C52	C	2.000296	0.241176	0.500072
C53	C	1.511516	-0.345929	0.000078
C54	C	2.011516	0.154071	0.500078
C55	C	1.586883	0.164701	0.000060
C56	C	2.086883	0.664701	0.500060
C57	C	1.576335	0.246545	0.000067
C58	C	2.076335	0.746545	0.500067
C59	C	1.457534	0.278735	0.000066
C60	C	1.957534	0.778735	0.500066
C61	C	1.349275	0.229077	0.000065
C62	C	1.849275	0.729077	0.500065
C63	C	1.359825	0.147235	0.000064
C64	C	1.859825	0.647235	0.500064
C65	C	1.413807	0.522570	0.000076
C66	C	1.913807	1.022570	0.500076
C67	C	1.403265	0.604419	0.000075
C68	C	1.903265	1.104419	0.500075
C69	C	1.630326	0.621881	0.000078
C70	C	2.130326	1.121881	0.500078
C71	C	1.640866	0.540037	0.000072
C72	C	2.140866	1.040037	0.500072
C73	C	1.532607	0.490385	0.000076
C74	C	2.032607	0.990385	0.500076
N75	N	1.446748	0.362393	0.000071
N76	N	1.946748	0.862393	0.500071
N77	N	1.543394	0.406729	0.000076
N78	N	2.043394	0.906729	0.500076
C79	C	1.557230	-0.152314	-0.259960
C80	C	2.057230	0.347686	0.240040
C81	C	1.550925	-0.148563	-0.347367
C82	C	2.050925	0.351437	0.152633
C83	C	1.466792	-0.098663	-0.391088
C84	C	1.966792	0.401337	0.108912
C85	C	1.388969	-0.052505	-0.347397
C86	C	1.888969	0.447495	0.152603
C87	C	1.395281	-0.056252	-0.259992
C88	C	1.895281	0.443748	0.240008
C89	C	1.439236	-0.082301	-0.652501
C90	C	1.939236	0.417699	-0.152501
C91	C	1.432927	-0.078559	-0.739913
C92	C	1.932927	0.421441	-0.239913
C93	C	1.594886	-0.174617	-0.739877
C94	C	2.094886	0.325383	-0.239877
C95	C	1.601185	-0.178363	-0.652469
C96	C	2.101185	0.321637	-0.152469
C97	C	1.523367	-0.132202	-0.608786
C98	C	2.023367	0.367798	-0.108786
N99	N	1.460343	-0.094829	-0.480433
N100	N	1.960343	0.405171	0.019567
N101	N	1.529823	-0.136032	-0.519443
N102	N	2.029823	0.363968	-0.019443
N103	N	1.510748	-0.124712	0.216402
N104	N	2.010748	0.375288	0.716402
H105	H	1.217494	-0.262166	0.000063
H106	H	1.717494	0.237834	0.500063
F107	F	1.356378	-0.033196	-0.606021
F108	F	1.856378	0.466804	-0.106021
F109	F	1.343379	-0.025445	-0.786443
F110	F	1.843379	0.474555	-0.286443
H111	H	1.614297	-0.186144	-0.382932
H112	H	2.114297	0.313856	0.117068
F113	F	0.827916	-0.403352	0.000112
F114	F	1.327916	0.096648	0.500112
F115	F	1.691551	0.299385	0.000069
F116	F	2.191551	0.799385	0.500069
H117	H	1.325655	0.482154	0.000078
H118	H	1.825655	0.982154	0.500078
H119	H	0.741405	-0.254286	0.000098
H120	H	1.241405	0.245714	0.500098
H121	H	0.890219	0.016046	0.000077
H122	H	1.390219	0.516046	0.500077
H123	H	1.306517	0.630626	0.000060
H124	H	1.806517	1.130626	0.500060
H125	H	1.625733	-0.192953	-0.224368
H126	H	2.125733	0.307047	0.275632
H127	H	1.669698	-0.218995	-0.616878
H128	H	2.169698	0.281005	-0.116878
F129	F	1.222837	0.263338	0.000073
F130	F	1.722837	0.763338	0.500073
F131	F	1.146624	0.029689	0.000027
F132	F	1.646624	0.529689	0.500027
H133	H	1.683624	0.138498	0.000056
H134	H	2.183624	0.638498	0.500056
F135	F	1.767312	0.505782	0.000094
F136	F	2.267312	1.005782	0.500094
H137	H	1.320472	-0.011871	-0.383002
H138	H	1.820472	0.488129	0.116998
H139	H	1.658242	-0.212198	-0.775453
H140	H	2.158242	0.287802	-0.275453
H141	H	1.718464	0.662315	0.000077
H142	H	2.218464	1.162315	0.500077
F143	F	1.312463	-0.007123	-0.213499
F144	F	1.812463	0.492877	0.286501
H145	H	1.084316	-0.389706	0.000083
H146	H	1.584316	0.110294	0.500083
H147	H	1.271675	0.106808	0.000061
H148	H	1.771675	0.606808	0.500061
