data_functionalizedCrystal
_audit_creation_method	'MofGen! by Chris Wilmer'
_symmetry_space_group_name_H-M	'P1'
_symmetry_Int_Tables_number	1
_symmetry_cell_setting	triclinic
loop_
_symmetry_equiv_pos_as_xyz
  x,y,z
_cell_length_a	13.033293
_cell_length_b	12.759400
_cell_length_c	13.032268
_cell_angle_alpha	97.150187
_cell_angle_beta	89.079182
_cell_angle_gamma	97.184613
loop_
_atom_site_label
_atom_site_type_symbol
_atom_site_fract_x
_atom_site_fract_y
_atom_site_fract_z
Zn1	Zn	1.498478	-0.326864	-0.781492
Zn2	Zn	1.520228	-0.477844	-0.609524
Zn3	Zn	1.348338	-0.321316	-0.587668
Zn4	Zn	1.326480	-0.521641	-0.759565
O5	O	1.423381	-0.411916	-0.684562
O6	O	1.645281	-0.330884	-0.777004
O7	O	1.515676	-0.436429	-0.462716
O8	O	1.368299	-0.175029	-0.613409
O9	O	1.661260	-0.441809	-0.650659
O10	O	1.478606	-0.179105	-0.755811
O11	O	1.389389	-0.321428	-0.446658
O12	O	1.201520	-0.363896	-0.592147
O13	O	1.331046	-0.516455	-0.906383
O14	O	1.185462	-0.511075	-0.718439
O15	O	1.457412	-0.373352	-0.922493
O16	O	1.494482	-0.630677	-0.629397
O17	O	1.352136	-0.662855	-0.739632
C18	C	1.156175	-0.441637	-0.650543
C19	C	1.041860	-0.454381	-0.636013
C20	C	0.982975	-0.405292	-0.692145
C21	C	0.864825	-0.418462	-0.677130
C22	C	1.423322	-0.684887	-0.684533
C23	C	1.423387	-0.801660	-0.684567
C24	C	1.497570	-0.839735	-0.627250
C25	C	1.497629	-0.949456	-0.627289
C26	C	1.349313	-0.983020	-0.741965
C27	C	1.349260	-0.873301	-0.741931
C28	C	1.571698	-0.768094	-0.569886
C29	C	1.645886	-0.806167	-0.512563
C30	C	1.645945	-0.915889	-0.512603
C31	C	1.571816	-0.987537	-0.569965
C32	C	1.691630	-0.382080	-0.718715
C33	C	1.805942	-0.369366	-0.733269
C34	C	1.389365	-0.450408	-0.952795
C35	C	1.374869	-0.466811	-1.067100
C36	C	1.423464	-0.137879	-0.684618
C37	C	1.423500	-0.021101	-0.684641
C38	C	1.430930	-0.403319	-1.126032
C39	C	1.415950	-0.420271	-1.244172
C40	C	1.457323	-0.373492	-0.417380
C41	C	1.472018	-0.356771	-0.303102
H42	H	0.842994	-0.317579	-0.792442
H43	H	1.020033	-0.353510	-0.751314
H44	H	0.827772	-0.470239	-0.617951
H45	H	1.288854	-0.842301	-0.788605
H46	H	1.356853	-0.487177	-1.281176
C47	C	1.727427	-0.727366	-0.449473
H48	H	1.771623	-0.765759	-0.415352
H49	H	1.693787	-0.682557	-0.399614
H50	H	1.767193	-0.685177	-0.494541
C51	C	0.991808	-0.524332	-0.556078
H52	H	0.918962	-0.524015	-0.556479
H53	H	1.018108	-0.497001	-0.489219
H54	H	1.007464	-0.595152	-0.573236
C55	C	1.571639	-0.647404	-0.569844
H56	H	1.626414	-0.610189	-0.527478
H57	H	1.507533	-0.627473	-0.543558
H58	H	1.580953	-0.630092	-0.638475
H59	H	1.706359	-0.946885	-0.465936
H60	H	1.571877	-1.076879	-0.570002
C61	C	1.267773	-1.061828	-0.805049
H62	H	1.278424	-1.132626	-0.796852
H63	H	1.273991	-1.052058	-0.876061
H64	H	1.200589	-1.049429	-0.781131
C65	C	1.295052	-0.557202	-1.117087
H66	H	1.295462	-0.556743	-1.189934
H67	H	1.228164	-0.547020	-1.090740
H68	H	1.312305	-0.623620	-1.101435
H69	H	1.490012	-0.336409	-1.089022
C70	C	1.551844	-0.266378	-1.253123
H71	H	1.551447	-0.266844	-1.180276
H72	H	1.534607	-0.199961	-1.268777
H73	H	1.618734	-0.276577	-1.279471
