data_functionalizedCrystal
_audit_creation_method	'MofGen! by Chris Wilmer'
_symmetry_space_group_name_H-M	'P1'
_symmetry_Int_Tables_number	1
_symmetry_cell_setting	triclinic
loop_
_symmetry_equiv_pos_as_xyz
  x,y,z
_cell_length_a	11.026607
_cell_length_b	10.908937
_cell_length_c	15.455313
_cell_angle_alpha	92.001545
_cell_angle_beta	86.732703
_cell_angle_gamma	84.335986
loop_
_atom_site_label
_atom_site_type_symbol
_atom_site_fract_x
_atom_site_fract_y
_atom_site_fract_z
O1	O	1.512653	0.509566	-0.072128
O2	O	2.012653	1.009566	0.427872
O3	O	1.171153	0.451064	-0.072130
O4	O	1.671153	0.951064	0.427870
O5	O	1.387171	0.303849	-0.072126
O6	O	1.887171	0.803849	0.427874
O7	O	1.296635	0.656781	-0.072132
O8	O	1.796635	1.156781	0.427868
O9	O	1.374827	0.312223	0.072136
O10	O	1.874827	0.812223	0.572136
O11	O	1.158809	0.459438	0.072132
O12	O	1.658809	0.959438	0.572132
O13	O	1.500309	0.517940	0.072134
O14	O	2.000309	1.017940	0.572134
Cu15	Cu	1.328432	0.489454	0.085305
Cu16	Cu	1.828432	0.989454	0.585305
Cu17	Cu	1.343030	0.479550	-0.085301
Cu18	Cu	1.843030	0.979550	0.414699
O19	O	1.284291	0.665155	0.072130
O20	O	1.784291	1.165155	0.572130
C21	C	1.389460	0.262150	0.000004
C22	C	1.889460	0.762150	0.500004
C23	C	1.414657	0.125423	0.000000
C24	C	1.914657	0.625423	0.500000
C25	C	1.121948	0.444459	0.000001
C26	C	1.621948	0.944459	0.500001
C27	C	0.993726	0.412286	0.000000
C28	C	1.493726	0.912286	0.500000
C29	C	1.348747	-0.086154	-0.000003
C30	C	1.848747	0.413846	0.499997
C31	C	1.322702	0.055160	-0.000001
C32	C	1.822702	0.555160	0.499999
C33	C	0.901994	0.501120	-0.000002
C34	C	1.401994	1.001120	0.499998
C35	C	0.769470	0.467870	-0.000002
C36	C	1.269470	0.967870	0.499998
C37	C	1.549514	0.524545	0.000001
C38	C	2.049514	1.024545	0.500001
C39	C	1.677736	0.556717	-0.000004
C40	C	2.177736	1.056717	0.499996
C41	C	1.282002	0.706853	-0.000002
C42	C	1.782002	1.206853	0.499998
C43	C	1.256805	0.843580	-0.000004
C44	C	1.756805	1.343580	0.499996
N45	N	1.318173	0.496420	0.205300
N46	N	1.818173	0.996420	0.705300
N47	N	1.353300	0.472576	-0.205297
N48	N	1.853300	0.972576	0.294703
C49	C	1.409965	0.433913	0.250696
C50	C	1.909965	0.933913	0.750696
C51	C	1.402215	0.439196	0.341504
C52	C	1.902215	0.939196	0.841504
C53	C	1.302676	0.506993	0.386914
C54	C	1.802676	1.006993	0.886914
C55	C	1.210875	0.569501	0.341512
C56	C	1.710875	1.069501	0.841512
C57	C	1.218622	0.564211	0.250706
C58	C	1.718622	1.064211	0.750706
C59	C	1.269246	0.529794	0.658495
C60	C	1.769246	1.029794	1.158495
C61	C	1.261508	0.535083	0.749308
C62	C	1.761508	1.035083	1.249308
C63	C	1.452848	0.404775	0.749293
C64	C	1.952848	0.904775	1.249293
C65	C	1.460589	0.399497	0.658485
C66	C	1.960589	0.899497	1.158485
C67	C	1.368785	0.462000	0.613091
C68	C	1.868785	0.962000	1.113091
N69	N	1.294754	0.512397	0.479734
N70	N	1.794754	1.012397	0.979734
N71	N	1.376704	0.456588	0.520273
N72	N	1.876704	0.956588	1.020273
H73	H	1.446744	-0.130616	0.000002
H74	H	1.946744	0.369384	0.500002
Br75	Br	1.093462	-0.082327	0.000007
Br76	Br	1.593462	0.417673	0.500007
H77	H	1.491024	0.378712	0.213729
H78	H	1.991024	0.878712	0.713729
H79	H	0.697304	0.657395	-0.000000
H80	H	1.197304	1.157395	0.500000
H81	H	1.512662	0.080969	0.000003
H82	H	2.012662	0.580969	0.500003
Br83	Br	0.961112	0.244490	0.000013
Br84	Br	1.461112	0.744490	0.500013
H85	H	1.541642	0.344291	0.621514
H86	H	2.041642	0.844291	1.121514
H87	H	1.224698	0.099617	0.000005
H88	H	1.724698	0.599617	0.500005
H89	H	0.921570	0.601790	0.000002
H90	H	1.421570	1.101790	0.500002
Br91	Br	1.577432	0.319951	0.810902
Br92	Br	2.077432	0.819951	1.310902
Br93	Br	1.526789	0.354359	0.403115
Br94	Br	2.026789	0.854359	0.903115
H95	H	0.749902	0.367192	-0.000023
H96	H	1.249902	0.867192	0.499977
Br97	Br	1.126410	0.627108	0.810931
Br98	Br	1.626410	1.127108	1.310931
Br99	Br	1.144660	0.614620	0.596894
Br100	Br	1.644660	1.114620	1.096894
H101	H	1.129823	0.624698	0.378491
H102	H	1.629823	1.124698	0.878491
H103	H	1.143873	0.615109	0.213746
H104	H	1.643873	1.115109	0.713746
