data_functionalizedCrystal
_audit_creation_method	'MofGen! by Chris Wilmer'
_symmetry_space_group_name_H-M	'P1'
_symmetry_Int_Tables_number	1
_symmetry_cell_setting	triclinic
loop_
_symmetry_equiv_pos_as_xyz
  x,y,z
_cell_length_a	27.732048
_cell_length_b	10.908937
_cell_length_c	9.483290
_cell_angle_alpha	77.876970
_cell_angle_beta	79.459755
_cell_angle_gamma	71.364305
loop_
_atom_site_label
_atom_site_type_symbol
_atom_site_fract_x
_atom_site_fract_y
_atom_site_fract_z
O1	O	0.623734	0.135316	0.120702
O2	O	0.481133	0.158579	0.120746
O3	O	0.571336	-0.040357	0.120713
O4	O	0.533530	0.334251	0.120734
O5	O	0.581991	-0.004867	-0.121065
O6	O	0.491788	0.194068	-0.121032
O7	O	0.634389	0.170805	-0.121076
Cu8	Cu	0.564061	0.185677	-0.143131
Cu9	Cu	0.551460	0.143707	0.142800
O10	O	0.544185	0.369741	-0.121044
C11	C	0.468491	0.175834	-0.000138
C12	C	0.414950	0.174361	-0.000121
C13	C	0.580197	-0.070523	-0.000175
C14	C	0.590718	-0.213284	-0.000172
C15	C	0.563196	-0.409082	-0.000159
C16	C	0.552320	-0.261531	-0.000159
C17	C	0.067736	0.282670	-0.000178
C18	C	-0.133500	0.277215	-0.000192
O19	O	-0.172435	0.376257	-0.000249
N20	N	-0.143472	0.159252	-0.000195
C21	C	-0.103132	0.042647	-0.000206
O22	O	-0.116231	-0.057811	-0.000224
C23	C	0.098103	0.048105	-0.000203
C24	C	0.108072	0.166073	-0.000184
C25	C	0.077706	0.400629	-0.000161
C26	C	0.128012	0.401990	-0.000150
C27	C	0.168348	0.285393	-0.000156
C28	C	0.158378	0.167434	-0.000173
C29	C	0.138443	-0.068498	-0.000223
C30	C	0.188754	-0.067123	-0.000226
C31	C	0.198723	0.050846	-0.000208
C32	C	0.249019	0.052198	-0.000167
N33	N	0.258992	0.170161	-0.000163
C34	C	0.218656	0.286758	-0.000158
C35	C	-0.208784	0.039789	-0.000204
C36	C	-0.259093	0.038424	-0.000202
C37	C	-0.289457	0.272993	-0.000191
C38	C	-0.239148	0.274356	-0.000183
C39	C	-0.198811	0.157752	-0.000200
C40	C	0.324303	0.289608	-0.000133
C41	C	0.374614	0.290958	-0.000115
C42	C	0.404974	0.056391	-0.000135
C43	C	0.354667	0.055039	-0.000144
C44	C	0.314332	0.171659	-0.000148
O45	O	0.287979	-0.046788	-0.000126
O46	O	0.231768	0.387206	-0.000171
C47	C	0.017430	0.281309	-0.000190
C48	C	0.007460	0.163350	-0.000207
C49	C	0.047796	0.046753	-0.000212
C50	C	-0.042848	0.161985	-0.000205
C51	C	-0.083184	0.278582	-0.000199
C52	C	-0.073211	0.396545	-0.000195
C53	C	-0.022905	0.397906	-0.000184
C54	C	0.037823	-0.071210	-0.000216
C55	C	-0.012484	-0.072562	-0.000226
C56	C	-0.052820	0.044035	-0.000220
C57	C	0.647030	0.153549	-0.000190
C58	C	0.700571	0.155021	-0.000197
C59	C	0.535325	0.399907	-0.000153
C60	C	0.524803	0.542666	-0.000146
N61	N	0.572928	0.215196	-0.344239
C62	C	0.554071	0.152407	-0.416463
C63	C	0.561459	0.176976	-0.583871
N64	N	0.542599	0.114178	0.343908
H65	H	0.604117	-0.477005	-0.000179
Br66	Br	0.484112	-0.148332	-0.000157
Br67	Br	-0.026006	-0.232681	-0.000227
H68	H	0.631642	-0.281203	-0.000189
Br69	Br	0.456597	-0.344131	-0.000144
H70	H	0.382726	0.387026	-0.000099
Br71	Br	0.518039	0.032504	-0.312971
Br72	Br	0.269570	0.447880	-0.000141
H73	H	0.583071	0.248931	-0.645968
H74	H	0.136122	0.498052	-0.000134
H75	H	0.044868	0.495583	-0.000162
Br76	Br	-0.225625	0.434460	-0.000158
H77	H	-0.322308	0.367931	-0.000187
H78	H	0.594538	0.287147	-0.406342
Br79	Br	-0.272617	-0.121688	-0.000184
H80	H	0.130337	-0.164560	-0.000240
H81	H	0.520980	0.042237	-0.593997
H82	H	-0.175945	-0.055169	-0.000219
Br83	Br	-0.127963	0.554781	-0.000176
Br84	Br	0.243495	-0.225379	-0.000258
Br85	Br	-0.009385	0.558014	-0.000156
Br86	Br	0.341137	-0.105061	-0.000174
Br87	Br	0.092559	-0.229466	-0.000229
H88	H	0.437824	-0.038540	-0.000134
