data_functionalizedCrystal
_audit_creation_method	'MofGen! by Chris Wilmer'
_symmetry_space_group_name_H-M	'P1'
_symmetry_Int_Tables_number	1
_symmetry_cell_setting	triclinic
loop_
_symmetry_equiv_pos_as_xyz
  x,y,z
_cell_length_a	15.995350
_cell_length_b	16.974885
_cell_length_c	15.455341
_cell_angle_alpha	96.643788
_cell_angle_beta	92.999898
_cell_angle_gamma	83.443776
loop_
_atom_site_label
_atom_site_type_symbol
_atom_site_fract_x
_atom_site_fract_y
_atom_site_fract_z
O1	O	-1.107913	-0.099130	0.065102
O2	O	-0.607913	0.400870	0.565102
O3	O	-0.864162	-0.111753	0.064234
O4	O	-0.364162	0.388247	0.564234
O5	O	-0.992467	0.010007	0.072762
O6	O	-0.492467	0.510007	0.572762
O7	O	-0.979608	-0.220890	0.056573
O8	O	-0.479608	0.279110	0.556573
O9	O	-0.999024	0.003814	-0.071934
O10	O	-0.499024	0.503814	0.428066
O11	O	-0.870719	-0.117945	-0.080462
O12	O	-0.370719	0.382055	0.419538
O13	O	-1.114470	-0.105323	-0.079594
O14	O	-0.614470	0.394677	0.420406
Cu15	Cu	-0.993193	-0.112199	-0.093240
Cu16	Cu	-0.493193	0.387801	0.406760
Cu17	Cu	-0.985439	-0.104876	0.077880
Cu18	Cu	-0.485439	0.395124	0.577880
O19	O	-0.986165	-0.227082	-0.088123
O20	O	-0.486165	0.272918	0.411877
C21	C	-0.836245	-0.114327	-0.008075
C22	C	-0.336245	0.385673	0.491925
C23	C	-0.743291	-0.112762	-0.007959
C24	C	-0.243291	0.387238	0.492041
C25	C	-0.995134	0.036457	0.002488
C26	C	-0.495134	0.536457	0.502488
C27	C	-0.993303	0.124498	0.008666
C28	C	-0.493303	0.624498	0.508666
C29	C	-1.142387	-0.102748	-0.007283
C30	C	-0.642387	0.397252	0.492717
C31	C	-1.235341	-0.104313	-0.007394
C32	C	-0.735341	0.395687	0.492606
C33	C	-0.405533	-0.107144	-0.007583
C34	C	0.094467	0.392856	0.492417
C35	C	-0.452806	-0.020443	-0.001826
C36	C	0.047194	0.479557	0.498174
C37	C	-0.549484	-0.021993	-0.001603
C38	C	-0.049484	0.478007	0.498397
C39	C	-0.573099	-0.109931	-0.007770
C40	C	-0.073099	0.390069	0.492230
C41	C	-0.528354	-0.149166	0.071856
C42	C	-0.028354	0.350834	0.571856
C43	C	-0.431711	-0.146985	0.072072
C44	C	0.068289	0.353015	0.572072
C45	C	-0.438833	-0.155818	-0.092600
C46	C	0.061167	0.344182	0.407400
C47	C	-0.535827	-0.155844	-0.093684
C48	C	-0.035827	0.344156	0.406316
C49	C	-0.667799	-0.111510	-0.007873
C50	C	-0.167799	0.388490	0.492127
C51	C	-0.310832	-0.105567	-0.007474
C52	C	0.189168	0.394433	0.492526
C53	C	-0.983498	-0.253533	-0.017846
C54	C	-0.483498	0.246467	0.482154
C55	C	-0.985329	-0.341573	-0.024019
C56	C	-0.485329	0.158427	0.475981
C57	C	-0.996015	0.162491	-0.067301
C58	C	-0.496015	0.662491	0.432699
C59	C	-0.994300	0.245215	-0.061488
C60	C	-0.494300	0.745215	0.438512
C61	C	-0.989866	0.289943	0.020294
C62	C	-0.489866	0.789943	0.520294
C63	C	-0.987157	0.251945	0.096266
C64	C	-0.487157	0.751945	0.596266
C65	C	-0.988878	0.169223	0.090452
C66	C	-0.488878	0.669223	0.590452
C67	C	-0.984341	0.537707	0.046140
C68	C	-0.484341	1.037707	0.546140
C69	C	-0.982617	0.620434	0.051948
C70	C	-0.482617	1.120434	0.551948
C71	C	-0.989761	0.613698	-0.105807
C72	C	-0.489761	1.113698	0.394193
C73	C	-0.991477	0.530974	-0.111614
C74	C	-0.491477	1.030974	0.388386
C75	C	-0.988772	0.492984	-0.035641
C76	C	-0.488772	0.992984	0.464359
N77	N	-0.988110	0.374500	0.026238
N78	N	-0.488110	0.874500	0.526238
N79	N	-0.990534	0.408429	-0.041586
N80	N	-0.490534	0.908429	0.458414
N81	N	-0.998654	-0.117350	-0.213596
N82	N	-0.498654	0.382650	0.286404
C83	C	-1.028797	-0.145898	-0.759604
C84	C	-0.528797	0.354102	-0.259604
C85	C	-1.024673	-0.141997	-0.668523
C86	C	-0.524673	0.358003	-0.168523
C87	C	-0.971740	-0.091913	-0.619603
C88	C	-0.471740	0.408087	-0.119603
C89	C	-0.922923	-0.045733	-0.661768
C90	C	-0.422923	0.454267	-0.161768
C91	C	-0.927043	-0.049638	-0.752848
C92	C	-0.427043	0.450362	-0.252848
C93	C	-0.953957	-0.075075	-0.346842
C94	C	-0.453957	0.424925	0.153158
C95	C	-0.949842	-0.071171	-0.255756
C96	C	-0.449842	0.428829	0.244244
C97	C	-1.051591	-0.167437	-0.262517
C98	C	-0.551591	0.332563	0.237483
C99	C	-1.055711	-0.171335	-0.353598
C100	C	-0.555711	0.328665	0.146402
C101	C	-1.006890	-0.125158	-0.395756
C102	C	-0.506890	0.374842	0.104244
N103	N	-0.967525	-0.087923	-0.526503
N104	N	-0.467525	0.412077	-0.026503
N105	N	-1.011101	-0.129153	-0.488854
N106	N	-0.511101	0.370847	0.011146
N107	N	-0.979985	-0.099719	0.198236
N108	N	-0.479985	0.400281	0.698236
H109	H	-0.580528	0.009092	-0.058476
H110	H	-0.080528	0.509092	0.441524
H111	H	-0.436898	0.011684	-0.058649
H112	H	0.063102	0.511684	0.441351
H113	H	-1.098815	-0.212117	-0.393423
H114	H	-0.598815	0.287883	0.106577
H115	H	-0.991965	0.644639	-0.167659
H116	H	-0.491965	1.144639	0.332341
N117	N	-0.977831	0.668658	0.140172
N118	N	-0.477831	1.168658	0.640172
H119	H	-1.028809	0.709564	0.146559
H120	H	-0.528809	1.209564	0.646559
H121	H	-0.925061	0.696640	0.145605
H122	H	-0.425061	1.196640	0.645605
H123	H	-0.887293	-0.012036	-0.787173
H124	H	-0.387293	0.487964	-0.287173
H125	H	-0.574584	0.014393	0.060102
H126	H	-0.074584	0.514393	0.560102
N127	N	-0.556641	-0.241074	-0.106255
N128	N	-0.056641	0.258926	0.393745
H129	H	-0.590406	-0.250641	-0.162820
H130	H	-0.090406	0.249359	0.337180
H131	H	-0.590647	-0.251120	-0.056167
H132	H	-0.090647	0.248880	0.443833
H133	H	-0.407226	-0.219777	-0.097642
H134	H	0.092774	0.280223	0.402358
N135	N	-0.997210	0.286179	-0.143432
N136	N	-0.497210	0.786179	0.356568
H137	H	-0.944795	0.313921	-0.144977
H138	H	-0.444795	0.813921	0.355023
H139	H	-1.048546	0.326740	-0.144058
H140	H	-0.548546	0.826740	0.355942
H141	H	-0.914206	-0.037472	-0.381155
H142	H	-0.414206	0.462528	0.118845
N143	N	-0.423206	0.028616	0.079414
N144	N	0.076794	0.528616	0.579414
H145	H	-0.379310	-0.005078	0.112506
H146	H	0.120690	0.494922	0.612506
H147	H	-0.472597	0.047496	0.117471
H148	H	0.027403	0.547496	0.617471
N149	N	-0.415325	-0.121810	-0.172923
N150	N	0.084675	0.378190	0.327077
H151	H	-0.468136	-0.104192	-0.207467
H152	H	0.031864	0.395808	0.292533
H153	H	-0.379225	-0.163973	-0.210038
H154	H	0.120775	0.336027	0.289962
H155	H	-0.982136	0.506785	0.108002
H156	H	-0.482136	1.006785	0.608002
H157	H	-0.879820	-0.004956	-0.621930
H158	H	-0.379820	0.495044	-0.121930
H159	H	-1.091337	-0.205033	-0.228182
H160	H	-0.591337	0.294967	0.271818
H161	H	-0.410541	-0.113151	0.136024
H162	H	0.089459	0.386849	0.636024
N163	N	-0.575590	-0.117958	-0.171758
N164	N	-0.075590	0.382042	0.328242
H165	H	-0.617573	-0.071248	-0.151570
H166	H	-0.117573	0.428752	0.348430
H167	H	-0.605332	-0.158588	-0.211145
H168	H	-0.105332	0.341412	0.288855
H169	H	-0.399422	-0.210489	0.071358
H170	H	0.100578	0.289511	0.571358
N171	N	-1.000791	0.114249	-0.155508
N172	N	-0.500791	0.614249	0.344492
H173	H	-1.002250	0.150874	-0.202750
H174	H	-0.502250	0.650874	0.297250
H175	H	-1.053521	0.086209	-0.160910
H176	H	-0.553521	0.586209	0.339090
H177	H	-0.995105	0.494564	-0.178208
H178	H	-0.495105	0.994564	0.321792
N179	N	-0.982383	0.300185	0.184475
N180	N	-0.482383	0.800185	0.684475
H181	H	-0.981702	0.358354	0.176633
H182	H	-0.481702	0.858354	0.676633
H183	H	-0.929264	0.280765	0.217457
H184	H	-0.429264	0.780765	0.717457
N185	N	-0.547060	-0.234564	0.069943
N186	N	-0.047060	0.265436	0.569943
H187	H	-0.526231	-0.266227	0.014359
H188	H	-0.026231	0.233773	0.514359
H189	H	-0.609823	-0.236011	0.072503
H190	H	-0.109823	0.263989	0.572503
N191	N	-0.892754	-0.017142	-0.202991
N192	N	-0.392754	0.482858	0.297009
H193	H	-0.897562	-0.021669	-0.138895
H194	H	-0.397562	0.478331	0.361105
H195	H	-0.909915	0.039842	-0.214884
H196	H	-0.409915	0.539842	0.285116
N197	N	-0.562161	-0.106336	0.156073
N198	N	-0.062161	0.393664	0.656073
H199	H	-0.606442	-0.061519	0.142834
H200	H	-0.106442	0.438481	0.642834
H201	H	-0.514640	-0.083771	0.192953
H202	H	-0.014640	0.416229	0.692953
H203	H	-1.064422	-0.179600	-0.634202
H204	H	-0.564422	0.320400	-0.134202
N205	N	-0.985959	0.128242	0.172388
N206	N	-0.485959	0.628242	0.672388
H207	H	-0.982888	0.169128	0.225078
H208	H	-0.482888	0.669128	0.725078
H209	H	-0.934659	0.087635	0.172967
H210	H	-0.434659	0.587635	0.672967
H211	H	-1.071904	-0.186679	-0.799429
H212	H	-0.571904	0.313321	-0.299429
