data_functionalizedCrystal
_audit_creation_method	'MofGen! by Chris Wilmer'
_symmetry_space_group_name_H-M	'P1'
_symmetry_Int_Tables_number	1
_symmetry_cell_setting	triclinic
loop_
_symmetry_equiv_pos_as_xyz
  x,y,z
_cell_length_a	21.395362
_cell_length_b	16.625546
_cell_length_c	21.395364
_cell_angle_alpha	90.015968
_cell_angle_beta	90.025888
_cell_angle_gamma	90.038346
loop_
_atom_site_label
_atom_site_type_symbol
_atom_site_fract_x
_atom_site_fract_y
_atom_site_fract_z
Zn1	Zn	0.957784	-0.320773	0.354586
Zn2	Zn	1.291117	0.012560	0.687919
Zn3	Zn	1.624450	0.345893	1.021252
Zn4	Zn	0.957734	-0.455583	0.249808
Zn5	Zn	1.291068	-0.122249	0.583142
Zn6	Zn	1.624401	0.211084	0.916475
Zn7	Zn	0.853032	-0.320805	0.249787
Zn8	Zn	1.186365	0.012528	0.583120
Zn9	Zn	1.519698	0.345862	0.916454
Zn10	Zn	0.852983	-0.455605	0.354513
Zn11	Zn	1.186316	-0.122272	0.687846
Zn12	Zn	1.519649	0.211062	1.021180
O13	O	0.905383	-0.388191	0.302173
O14	O	1.238716	-0.054858	0.635507
O15	O	1.572050	0.278475	0.968840
O16	O	1.045455	-0.338633	0.340726
O17	O	1.378788	-0.005300	0.674059
O18	O	1.712122	0.328033	1.007393
O19	O	0.943845	-0.437708	0.162128
O20	O	1.277178	-0.104374	0.495461
O21	O	1.610512	0.228959	0.828794
O22	O	0.866968	-0.207968	0.263710
O23	O	1.200302	0.125365	0.597044
O24	O	1.533635	0.458698	0.930377
O25	O	1.045419	-0.437677	0.263747
O26	O	1.378752	-0.104344	0.597080
O27	O	1.712085	0.228990	0.930413
O28	O	0.943929	-0.207945	0.340705
O29	O	1.277262	0.125388	0.674039
O30	O	1.610596	0.458722	1.007372
O31	O	0.866920	-0.338687	0.162112
O32	O	1.200254	-0.005354	0.495445
O33	O	1.533587	0.327979	0.828779
O34	O	0.765347	-0.338709	0.263640
O35	O	1.098681	-0.005376	0.596973
O36	O	1.432014	0.327958	0.930306
O37	O	0.866885	-0.437716	0.442200
O38	O	1.200218	-0.104382	0.775534
O39	O	1.533552	0.228951	1.108867
O40	O	0.765311	-0.437746	0.340581
O41	O	1.098645	-0.104413	0.673915
O42	O	1.431978	0.228921	1.007248
O43	O	0.943882	-0.338655	0.442254
O44	O	1.277215	-0.005322	0.775587
O45	O	1.610549	0.328011	1.108920
O46	O	0.943798	-0.568418	0.263676
O47	O	1.277131	-0.235085	0.597009
O48	O	1.610464	0.098249	0.930343
O49	O	0.866837	-0.568434	0.340602
O50	O	1.200171	-0.235101	0.673935
O51	O	1.533504	0.098232	1.007269
C52	C	0.742595	-0.388234	0.302101
C53	C	1.075929	-0.054901	0.635434
C54	C	1.409262	0.278433	0.968767
C55	C	0.672954	-0.388272	0.302084
C56	C	1.006287	-0.054938	0.635418
C57	C	1.339621	0.278395	0.968751
C58	C	0.640239	-0.439909	0.342088
C59	C	0.973572	-0.106575	0.675421
C60	C	1.306905	0.226758	1.008755
C61	C	0.574803	-0.439889	0.342116
C62	C	0.908137	-0.106556	0.675449
C63	C	1.241470	0.226778	1.008783
C64	C	0.542086	-0.388241	0.302129
C65	C	0.875419	-0.054907	0.635462
C66	C	1.208752	0.278426	0.968796
C67	C	0.574809	-0.336594	0.262123
C68	C	0.908142	-0.003260	0.595456
C69	C	1.241476	0.330073	0.928789
C70	C	0.640243	-0.336609	0.262100
C71	C	0.973577	-0.003276	0.595434
C72	C	1.306910	0.330057	0.928767
C73	C	0.438378	-0.381742	0.245724
C74	C	0.771711	-0.048409	0.579057
C75	C	1.105045	0.284925	0.912391
C76	C	0.372945	-0.381732	0.245745
C77	C	0.706279	-0.048399	0.579079
C78	C	1.039612	0.284935	0.912412
C79	C	0.340265	-0.388188	0.302198
C80	C	0.673598	-0.054855	0.635532
C81	C	1.006932	0.278479	0.968865
C82	C	0.373026	-0.394671	0.358632
C83	C	0.706359	-0.061338	0.691965
C84	C	1.039693	0.271996	1.025299
C85	C	0.438460	-0.394686	0.358610
C86	C	0.771794	-0.061353	0.691943
C87	C	1.105127	0.271980	1.025276
C88	C	0.471133	-0.388218	0.302149
C89	C	0.804467	-0.054884	0.635482
C90	C	1.137800	0.278449	0.968816
C91	C	0.236597	-0.439806	0.342236
C92	C	0.569931	-0.106473	0.675569
C93	C	0.903264	0.226860	1.008902
C94	C	0.171161	-0.439781	0.342264
C95	C	0.504494	-0.106448	0.675598
C96	C	0.837827	0.226886	1.008931
C97	C	0.171168	-0.336490	0.262266
C98	C	0.504501	-0.003157	0.595599
C99	C	0.837834	0.330177	0.928932
C100	C	0.236603	-0.336511	0.262242
C101	C	0.569936	-0.003178	0.595576
C102	C	0.903270	0.330155	0.928909
C103	C	0.269314	-0.388174	0.302226
C104	C	0.602647	-0.054840	0.635560
C105	C	0.935981	0.278493	0.968893
C106	C	0.905324	-0.597682	0.302147
C107	C	1.238657	-0.264349	0.635480
C108	C	1.571990	0.068984	0.968814
C109	C	0.905356	-0.687303	0.302157
C110	C	1.238689	-0.353970	0.635490
C111	C	1.572022	-0.020637	0.968824
C112	C	0.905465	-1.015479	0.302222
C113	C	1.238798	-0.682146	0.635556
C114	C	1.572132	-0.348812	0.968889
C115	C	0.905433	-0.924171	0.302206
C116	C	1.238766	-0.590837	0.635539
C117	C	1.572099	-0.257504	0.968872
C118	C	0.905410	-0.851394	0.302189
C119	C	1.238743	-0.518061	0.635523
C120	C	1.572077	-0.184727	0.968856
C121	C	0.905378	-0.760080	0.302173
C122	C	1.238712	-0.426747	0.635507
C123	C	1.572045	-0.093413	0.968840
C124	C	1.068806	-0.388149	0.302247
C125	C	1.402140	-0.054816	0.635580
C126	C	1.735473	0.278517	0.968913
C127	C	1.138448	-0.388131	0.302278
C128	C	1.471781	-0.054798	0.635611
C129	C	1.805114	0.278535	0.968945
C130	C	0.905384	-0.388184	0.465597
C131	C	1.238717	-0.054851	0.798930
C132	C	1.572050	0.278482	1.132263
C133	C	0.905384	-0.388181	0.535238
C134	C	1.238717	-0.054848	0.868571
C135	C	1.572050	0.278485	1.201905
C136	C	0.905460	-0.177883	0.302213
C137	C	1.238793	0.155451	0.635547
C138	C	1.572126	0.488784	0.968880
C139	C	0.905492	-0.088261	0.302231
C140	C	1.238826	0.245072	0.635564
C141	C	1.572159	0.578405	0.968897
C142	C	0.945447	-0.336610	1.037063
C143	C	1.278781	-0.003276	1.370396
C144	C	1.612114	0.330057	1.703730
C145	C	0.945454	-0.336611	0.971627
C146	C	1.278787	-0.003278	1.304961
C147	C	1.612120	0.330056	1.638294
C148	C	0.905367	-0.388184	0.938876
C149	C	1.238700	-0.054851	1.272210
C150	C	1.572034	0.278482	1.605543
C151	C	0.865282	-0.439775	0.971566
C152	C	1.198616	-0.106441	1.304899
C153	C	1.531949	0.226892	1.638232
C154	C	0.865281	-0.439777	1.037000
C155	C	1.198615	-0.106444	1.370333
C156	C	1.531948	0.226889	1.703667
C157	C	0.848917	-0.394562	0.835181
C158	C	1.182250	-0.061228	1.168514
C159	C	1.515583	0.272105	1.501848
C160	C	0.848917	-0.394553	0.769748
C161	C	1.182250	-0.061220	1.103082
C162	C	1.515583	0.272113	1.436415
C163	C	0.905370	-0.388181	0.737055
C164	C	1.238704	-0.054847	1.070389
C165	C	1.572037	0.278486	1.403722
C166	C	0.961826	-0.381800	0.769804
C167	C	1.295159	-0.048466	1.103137
C168	C	1.628492	0.284867	1.436470
C169	C	0.961825	-0.381802	0.835238
C170	C	1.295158	-0.048469	1.168571
C171	C	1.628491	0.284864	1.501905
C172	C	0.905364	-0.388188	0.867924
C173	C	1.238697	-0.054854	1.201257
C174	C	1.572031	0.278479	1.534591
C175	C	0.945463	-0.336599	0.633421
C176	C	1.278796	-0.003266	0.966755
C177	C	1.612129	0.330067	1.300088
C178	C	0.945470	-0.336607	0.567985
C179	C	1.278804	-0.003273	0.901318
C180	C	1.612137	0.330060	1.234651
C181	C	0.865293	-0.439766	0.567924
C182	C	1.198626	-0.106433	0.901258
C183	C	1.531960	0.226901	1.234591
C184	C	0.865291	-0.439763	0.633360
C185	C	1.198624	-0.106430	0.966693
C186	C	1.531958	0.226904	1.300026
C187	C	0.905375	-0.388175	0.666104
C188	C	1.238708	-0.054842	0.999438
C189	C	1.572042	0.278491	1.332771
C190	C	0.905375	-0.388209	1.139386
C191	C	1.238708	-0.054876	1.472719
C192	C	1.572041	0.278458	1.806052
C193	C	0.905365	-0.388190	1.069745
C194	C	1.238699	-0.054857	1.403078
C195	C	1.572032	0.278477	1.736411
H196	H	0.144530	-0.294433	0.229711
H197	H	0.477863	0.038900	0.563044
H198	H	0.811196	0.372233	0.896377
H199	H	0.263240	-0.294467	0.229664
H200	H	0.596573	0.038867	0.562997
H201	H	0.929907	0.372200	0.896331
Cl202	Cl	0.814888	-0.504627	1.078088
Cl203	Cl	1.148221	-0.171293	1.411421
Cl204	Cl	1.481555	0.162040	1.744754
Cl205	Cl	0.130032	-0.504698	0.392563
Cl206	Cl	0.463365	-0.171364	0.725896
Cl207	Cl	0.796699	0.161969	1.059230
Cl208	Cl	0.995842	-0.271734	0.674589
Cl209	Cl	1.329175	0.061599	1.007922
Cl210	Cl	1.662509	0.394933	1.341255
H211	H	0.802948	-0.399749	0.743090
H212	H	1.136281	-0.066415	1.076423
H213	H	1.469614	0.266918	1.409756
Cl214	Cl	0.479643	-0.402831	0.429551
Cl215	Cl	0.812977	-0.069497	0.762884
Cl216	Cl	1.146310	0.263836	1.096218
Cl217	Cl	0.331767	-0.373581	0.174801
Cl218	Cl	0.665100	-0.040248	0.508135
Cl219	Cl	0.998433	0.293085	0.841468
H220	H	0.464981	-0.376481	0.199750
H221	H	0.798314	-0.043148	0.533083
H222	H	1.131648	0.290185	0.866417
Cl223	Cl	0.533679	-0.271661	0.211857
Cl224	Cl	0.867013	0.061673	0.545190
Cl225	Cl	1.200346	0.395006	0.878523
Cl226	Cl	0.995868	-0.271761	0.526898
Cl227	Cl	1.329201	0.061572	0.860232
Cl228	Cl	1.662534	0.394905	1.193565
H229	H	0.802942	-0.399752	0.861794
H230	H	1.136276	-0.066418	1.195127
H231	H	1.469609	0.266915	1.528461
H232	H	0.666880	-0.294558	0.229525
H233	H	1.000213	0.038775	0.562858
H234	H	1.333546	0.372109	0.896191
Cl235	Cl	0.814904	-0.504611	0.526757
Cl236	Cl	1.148238	-0.171277	0.860091
Cl237	Cl	1.481571	0.162056	1.193424
Cl238	Cl	0.814898	-0.504609	0.674447
Cl239	Cl	1.148231	-0.171276	1.007781
Cl240	Cl	1.481564	0.162058	1.341114
H241	H	1.007793	-0.376609	0.861899
H242	H	1.341126	-0.043275	1.195232
H243	H	1.674459	0.290058	1.528566
H244	H	0.666868	-0.481975	0.374647
H245	H	1.000201	-0.148642	0.707980
H246	H	1.333535	0.184691	1.041314
H247	H	0.548161	-0.481938	0.374694
H248	H	0.881495	-0.148604	0.708027
H249	H	1.214828	0.184729	1.041361
Cl250	Cl	0.331950	-0.402783	0.429607
Cl251	Cl	0.665283	-0.069449	0.762940
Cl252	Cl	0.998617	0.263884	1.096274
H253	H	0.263232	-0.481869	0.374796
H254	H	0.596565	-0.148536	0.708129
H255	H	0.929899	0.184798	1.041463
H256	H	0.978090	-0.294606	1.063719
H257	H	1.311423	0.038727	1.397053
H258	H	1.644756	0.372060	1.730386
H259	H	0.978093	-0.294605	0.945013
H260	H	1.311426	0.038728	1.278346
H261	H	1.644760	0.372061	1.611679
H262	H	1.007795	-0.376608	0.743187
H263	H	1.341129	-0.043274	1.076520
H264	H	1.674462	0.290059	1.409853
H265	H	0.832644	-0.481767	0.944896
H266	H	1.165978	-0.148434	1.278229
H267	H	1.499311	0.184899	1.611562
