data_functionalizedCrystal
_audit_creation_method	'MofGen! by Chris Wilmer'
_symmetry_space_group_name_H-M	'P1'
_symmetry_Int_Tables_number	1
_symmetry_cell_setting	triclinic
loop_
_symmetry_equiv_pos_as_xyz
  x,y,z
_cell_length_a	31.640172
_cell_length_b	19.851628
_cell_length_c	31.640172
_cell_angle_alpha	60.008355
_cell_angle_beta	89.999175
_cell_angle_gamma	59.987434
loop_
_atom_site_label
_atom_site_type_symbol
_atom_site_fract_x
_atom_site_fract_y
_atom_site_fract_z
Zr1	Zr	0.407118	0.737312	-0.055481
O2	O	0.339617	0.877853	-0.122961
O3	O	0.427818	0.596770	-0.034795
O4	O	0.427806	0.737295	-0.122963
O5	O	0.339630	0.737341	0.034756
O6	O	0.497362	0.737284	-0.122966
O7	O	0.339629	0.737327	-0.034792
O8	O	0.497384	0.485909	0.034751
O9	O	0.339608	0.988715	-0.122961
O10	O	0.488546	0.654569	-0.025975
O11	O	0.436638	0.654588	0.025930
O12	O	0.436623	0.820038	-0.077877
O13	O	0.384715	0.820057	-0.025972
Zr14	Zr	0.518053	0.737316	0.055436
Zr15	Zr	0.518052	0.737294	-0.055486
Zr16	Zr	0.407119	0.737334	0.055440
Zr17	Zr	0.407104	0.914125	-0.055482
Zr18	Zr	0.518068	0.560503	0.055437
O19	O	0.497353	0.877858	0.034749
O20	O	0.497351	0.877827	-0.122967
O21	O	0.339619	0.877884	0.034755
O22	O	0.585555	0.596776	0.122915
O23	O	0.585552	0.596744	-0.034801
O24	O	0.427820	0.596801	0.122921
O25	O	0.585541	0.737287	-0.034802
O26	O	0.497365	0.737333	0.122918
O27	O	0.427809	0.737345	0.122920
O28	O	0.585542	0.737301	0.034746
O29	O	0.427786	0.988701	-0.122965
O30	O	0.497385	0.485927	0.122919
O31	O	0.585563	0.485913	0.122916
O32	O	0.585562	0.485895	0.034748
O33	O	0.339609	0.988733	-0.034794
O34	O	0.427787	0.988719	-0.034797
O35	O	0.488548	0.654590	0.077831
O36	O	0.540456	0.654571	0.025926
O37	O	0.488533	0.820040	-0.025976
O38	O	0.436625	0.820059	0.025929
C39	C	0.462603	0.516147	-0.000022
C40	C	0.462609	0.441086	-0.000021
C41	C	0.490894	0.259738	-0.028327
C42	C	0.511411	0.159590	0.020474
C43	C	0.462594	0.303679	-0.000021
C44	C	0.442086	0.270078	-0.048817
C45	C	0.462579	0.170953	-0.000025
C46	C	0.483139	0.204474	0.048809
C47	C	0.413787	0.315015	-0.020518
C48	C	0.434292	0.214874	0.028313
C49	C	0.462603	0.380138	-0.000019
C50	C	0.462570	0.094491	-0.000022
C51	C	0.323824	0.737337	-0.000017
C52	C	0.276729	0.737345	-0.000015
C53	C	-0.015277	0.737289	-0.038337
C54	C	-0.192263	0.737277	-0.038340
O55	O	-0.215136	0.737228	-0.070913
N56	N	-0.214393	0.737287	-0.000026
C57	C	-0.192272	0.737293	0.038294
O58	O	-0.215153	0.737291	0.070885
C59	C	-0.015284	0.737298	0.038299
C60	C	0.006841	0.737298	-0.000021
C61	C	0.006849	0.737288	-0.076653
C62	C	0.051091	0.737296	-0.076653
C63	C	0.073208	0.737306	-0.038337
C64	C	0.051083	0.737307	-0.000021
C65	C	0.006838	0.737298	0.076621
C66	C	0.051089	0.737297	0.076619
C67	C	0.073214	0.737297	0.038300
C68	C	0.117442	0.737324	0.038295
N69	N	0.139573	0.737314	-0.000019
C70	C	0.117455	0.737305	-0.038335
C71	C	-0.285194	0.737292	0.038287
C72	C	-0.329441	0.737293	0.038286
C73	C	-0.329428	0.737275	-0.038348
C74	C	-0.285182	0.737282	-0.038348
C75	C	-0.263064	0.737283	-0.000027
C76	C	0.210367	0.737323	-0.038333
C77	C	0.254612	0.737335	-0.038331
C78	C	0.254597	0.737348	0.038303
C79	C	0.210355	0.737341	0.038300
C80	C	0.188242	0.737325	-0.000021
O81	O	0.140346	0.737362	0.070854
O82	O	0.140351	0.737286	-0.070915
C83	C	-0.059519	0.737281	-0.038336
C84	C	-0.081644	0.737282	-0.000020
C85	C	-0.059527	0.737291	0.038296
C86	C	-0.125891	0.737283	-0.000022
C87	C	-0.148009	0.737273	-0.038338
C88	C	-0.125878	0.737264	-0.076652
C89	C	-0.081636	0.737272	-0.076652
C90	C	-0.081657	0.737301	0.076610
C91	C	-0.125900	0.737294	0.076607
C92	C	-0.148017	0.737285	0.038291
C93	C	0.601347	0.737291	-0.000028
C94	C	0.648442	0.737284	-0.000030
C95	C	0.462584	0.737286	-0.138769
C96	C	0.462583	0.737277	-0.185858
C97	C	0.462568	0.958481	-0.000024
C98	C	0.462562	1.033543	-0.000025
C99	C	0.435487	0.823696	-0.504985
C100	C	0.435488	0.823713	-0.681981
O101	O	0.412456	0.897171	-0.727908
N102	N	0.462590	0.737340	-0.677018
C103	C	0.489697	0.650957	-0.627803
O104	O	0.512753	0.577492	-0.627643
C105	C	0.489699	0.650942	-0.450808
C106	C	0.462591	0.737320	-0.455775
C107	C	0.408382	0.910068	-0.509949
C108	C	0.408379	0.910063	-0.465703
C109	C	0.435483	0.823686	-0.416492
C110	C	0.462588	0.737315	-0.411528
C111	C	0.516808	0.564560	-0.401594
C112	C	0.516808	0.564564	-0.357345
C113	C	0.489699	0.650942	-0.362311
C114	C	0.489690	0.650934	-0.318071
N115	N	0.462587	0.737306	-0.323033
C116	C	0.435484	0.823683	-0.372244
C117	C	0.489693	0.650972	-0.720729
C118	C	0.489692	0.650975	-0.764978
C119	C	0.435483	0.823731	-0.819152
C120	C	0.435482	0.823727	-0.774903
C121	C	0.462591	0.737344	-0.725691
C122	C	0.435481	0.823666	-0.279321
C123	C	0.435480	0.823653	-0.235068
C124	C	0.489690	0.650898	-0.180897
C125	C	0.489689	0.650910	-0.225146
C126	C	0.462584	0.737302	-0.274359
O127	O	0.512714	0.577514	-0.272129
O128	O	0.412440	0.897137	-0.372392
C129	C	0.435489	0.823701	-0.549232
C130	C	0.462595	0.737330	-0.544268
C131	C	0.489698	0.650954	-0.495057
C132	C	0.462594	0.737334	-0.588516
C133	C	0.435490	0.823710	-0.637726
C134	C	0.408388	0.910083	-0.642689
C135	C	0.408386	0.910078	-0.598442
C136	C	0.516801	0.564581	-0.490095
C137	C	0.516800	0.564593	-0.534344
C138	C	0.489697	0.650969	-0.583554
C139	C	0.462588	0.737342	0.138723
C140	C	0.462588	0.737351	0.185812
C141	C	0.601365	0.516125	-0.000027
C142	C	0.648465	0.441055	-0.000029
C143	C	0.462605	0.516175	0.138724
C144	C	0.462612	0.441123	0.185814
C145	C	0.601367	0.516153	0.138719
C146	C	0.648468	0.441092	0.185806
C147	C	0.323804	0.958476	-0.138764
C148	C	0.276703	1.033536	-0.185852
C149	C	0.323806	0.958503	-0.000019
C150	C	0.276706	1.033573	-0.000017
C151	C	0.462566	0.958453	-0.138770
C152	C	0.462559	1.033505	-0.185860
C153	C	0.643488	0.405801	-0.027126
C154	C	0.687739	0.335274	-0.027137
C155	C	0.736968	0.299999	-0.000049
C156	C	0.741945	0.335261	0.027049
C157	C	0.697693	0.405790	0.027058
C158	C	0.489711	0.405879	0.235024
C159	C	0.489716	0.335369	0.279274
C160	C	0.462623	0.300100	0.274312
C161	C	0.435520	0.335351	0.225097
C162	C	0.435513	0.405864	0.180848
C163	C	0.697687	0.405834	0.180825
C164	C	0.741948	0.335316	0.225065
C165	C	0.736988	0.300055	0.274285
C166	C	0.687764	0.335320	0.279265
C167	C	0.643504	0.405841	0.235026
C168	C	0.227484	1.068803	-0.180871
C169	C	0.183223	1.139342	-0.225111
C170	C	0.188183	1.174608	-0.274331
C171	C	0.237408	1.139337	-0.279311
C172	C	0.281667	1.068804	-0.235072
C173	C	0.281683	1.068835	0.027075
C174	C	0.237432	1.139381	0.027075
C175	C	0.188203	1.174658	-0.000015
C176	C	0.183227	1.139393	-0.027111
C177	C	0.227478	1.068854	-0.027114
C178	C	0.489657	1.068752	-0.180882
C179	C	0.489661	1.139262	-0.225123
C180	C	0.462564	1.174530	-0.274342
C181	C	0.435465	1.139276	-0.279319
C182	C	0.435465	1.068762	-0.235078
H183	H	0.552680	0.093138	0.037812
H184	H	0.424748	0.297049	-0.090082
C185	C	0.796090	0.296528	0.219575
N186	N	0.836869	0.267313	0.215439
C187	C	0.242855	1.178131	-0.333458
N188	N	0.246956	1.207347	-0.374243
H189	H	0.413403	1.168002	-0.319399
H190	H	0.152140	1.232040	-0.310349
C191	C	0.519472	1.029966	-0.126745
N192	N	0.541933	1.000752	-0.085970
C193	C	0.785681	0.222472	0.322945
N194	N	0.822358	0.164034	0.359593
H195	H	0.701736	0.434533	0.140752
C196	C	0.506631	0.167844	0.104582
N197	N	0.524327	0.140256	0.146589
H198	H	0.603429	0.434540	0.239089
H199	H	0.372527	0.381483	-0.037867
C200	C	0.519512	0.555938	-0.666598
N201	N	0.541970	0.484357	-0.625828
C202	C	0.335808	1.030007	-0.240560
N203	N	0.376586	1.000786	-0.244697
C204	C	0.401962	0.188398	0.060693
N205	N	0.377614	0.168450	0.085085
H206	H	0.701753	0.434486	0.049126
C207	C	0.519514	0.444667	0.240494
N208	N	0.541960	0.473882	0.244619
C209	C	0.221994	1.030063	-0.056912
N210	N	0.217859	1.000847	-0.079358
C211	C	0.335831	1.030047	0.056876
N212	N	0.376614	1.000842	0.079321
C213	C	0.519470	1.178033	-0.219636
N214	N	0.541921	1.207233	-0.215503
C215	C	0.682317	0.296514	0.333412
N216	N	0.678215	0.267278	0.374197
C217	C	0.462569	1.252099	-0.323003
N218	N	0.462573	1.310526	-0.359653
H219	H	0.514861	0.279368	-0.052222
C220	C	0.405723	0.296539	0.219648
N221	N	0.383283	0.267300	0.215545
C222	C	-0.017471	0.737271	-0.118805
N223	N	-0.035787	0.737262	-0.150558
C224	C	0.129070	1.178196	-0.056900
N225	N	0.088278	1.207417	-0.079332
H226	H	0.241494	1.168081	0.049141
C227	C	0.129081	1.178125	-0.219621
N228	N	0.088303	1.207334	-0.215484
C229	C	0.519538	0.296596	0.333406
N230	N	0.542002	0.267392	0.374177
C231	C	0.546615	0.469555	-0.435966
N232	N	0.569070	0.397975	-0.395195
C233	C	0.139530	1.252250	-0.000005
N234	N	0.102872	1.310689	0.000006
H235	H	0.413396	1.040072	-0.239138
H236	H	0.192368	0.737309	-0.069537
C237	C	0.278949	0.737330	-0.080486
N238	N	0.297278	0.737323	-0.112235
C239	C	0.796101	0.296441	0.056849
N240	N	0.836893	0.267194	0.079298
H241	H	0.069104	0.737292	-0.107855
C242	C	0.405706	0.444615	0.126718
N243	N	0.383255	0.473798	0.085947
C244	C	-0.260846	0.737272	-0.080499
N245	N	-0.242517	0.737261	-0.112248
H246	H	-0.347444	0.737270	-0.069547
H247	H	-0.267188	0.737294	0.069494
C248	C	-0.353777	0.737303	0.080437
N249	N	-0.372103	0.737304	0.112189
H250	H	-0.011169	0.737297	0.107824
C251	C	0.519508	0.555890	-0.219683
N252	N	0.541974	0.484319	-0.215564
C253	C	0.075416	0.737300	0.118777
N254	N	0.093738	0.737304	0.150528
H255	H	0.272611	0.737360	0.069499
C256	C	0.186014	0.737349	0.080451
N257	N	0.167687	0.737345	0.112203
H258	H	-0.063625	0.737272	-0.107856
H259	H	0.223436	1.040094	-0.140797
H260	H	-0.143895	0.737261	-0.107852
C261	C	-0.150232	0.737293	0.118765
N262	N	-0.168554	0.737282	0.150521
C263	C	0.462641	0.222523	0.322993
N264	N	0.462660	0.164088	0.359661
C265	C	-0.057328	0.737290	0.118770
N266	N	-0.039004	0.737279	0.150528
C267	C	0.405658	0.918701	-0.333451
N268	N	0.383192	0.990282	-0.374221
H269	H	0.511755	0.580572	-0.140823
H270	H	0.413402	0.893996	-0.239118
H271	H	0.386311	0.980410	-0.550016
C272	C	0.378565	1.005087	-0.471174
N273	N	0.356110	1.076664	-0.475299
C274	C	0.378568	1.005102	-0.603913
N275	N	0.356110	1.076679	-0.608038
C276	C	0.546628	0.469533	-0.303212
N277	N	0.569088	0.397957	-0.262440
C278	C	0.378575	1.005097	-0.696829
N279	N	0.356125	1.076658	-0.737608
C280	C	0.405665	0.918748	-0.780372
N281	N	0.383208	0.990323	-0.784494
C282	C	0.589340	0.444595	-0.056931
N283	N	0.548557	0.473816	-0.079385
C284	C	0.546622	0.469563	-0.528872
N285	N	0.569086	0.397988	-0.524749
C286	C	0.785641	0.222408	-0.000059
N287	N	0.822300	0.163962	-0.000067
H288	H	0.413412	0.894062	-0.859228
C289	C	0.682254	0.296491	-0.056943
N290	N	0.678120	0.267280	-0.079391
H291	H	0.511759	0.580637	-0.760928
H292	H	0.538884	0.494221	-0.397540
