data_functionalizedCrystal
_audit_creation_method	'MofGen! by Chris Wilmer'
_symmetry_space_group_name_H-M	'P1'
_symmetry_Int_Tables_number	1
_symmetry_cell_setting	triclinic
loop_
_symmetry_equiv_pos_as_xyz
  x,y,z
_cell_length_a	12.827892
_cell_length_b	12.827893
_cell_length_c	12.827885
_cell_angle_alpha	89.978811
_cell_angle_beta	90.029976
_cell_angle_gamma	89.986589
loop_
_atom_site_label
_atom_site_type_symbol
_atom_site_fract_x
_atom_site_fract_y
_atom_site_fract_z
Zn1	Zn	-0.416032	-1.597671	0.590901
Zn2	Zn	-0.590810	-1.597566	0.416160
Zn3	Zn	-0.416078	-1.422912	0.416169
Zn4	Zn	-0.590727	-1.422898	0.590855
O5	O	-0.503412	-1.510262	0.503521
O6	O	-0.439233	-1.743893	0.567737
O7	O	-0.567685	-1.574359	0.269925
O8	O	-0.269836	-1.446144	0.439370
O9	O	-0.567641	-1.743816	0.439356
O10	O	-0.269802	-1.574539	0.567745
O11	O	-0.439310	-1.446042	0.269931
O12	O	-0.439230	-1.276674	0.439325
O13	O	-0.567499	-1.446120	0.737097
O14	O	-0.567543	-1.276664	0.567666
O15	O	-0.439152	-1.574525	0.737131
O16	O	-0.737035	-1.574346	0.439311
O17	O	-0.736974	-1.446018	0.567658
C18	C	-0.503383	-1.238752	0.503492
C19	C	-0.503396	-1.122599	0.503504
C20	C	-0.439967	-1.070852	0.567129
C21	C	-0.439979	-0.950802	0.567143
C22	C	-0.774922	-1.510197	0.503502
C23	C	-0.891075	-1.510265	0.503528
C24	C	-0.942864	-1.446750	0.566992
C25	C	-1.062914	-1.446819	0.567021
C26	C	-0.230841	-1.510355	0.503563
C27	C	-0.114688	-1.510395	0.503581
C28	C	-0.503311	-1.510333	0.776091
C29	C	-0.503269	-1.510363	0.892245
C30	C	-0.503432	-0.782832	0.503542
C31	C	-0.503419	-0.898985	0.503530
C32	C	-0.503436	-1.510251	0.232011
C33	C	-0.503185	-1.510423	0.115859
C34	C	-0.439746	-1.573909	0.944046
C35	C	-0.439700	-1.573942	1.064097
H36	H	-0.557732	-0.943479	0.449062
H37	H	-0.385678	-0.906301	0.621617
O38	O	-0.950068	-1.582380	0.431601
H39	H	-0.999889	-1.535630	0.378452
H40	H	-0.385650	-1.115427	0.621585
H41	H	-0.557575	-1.456020	1.071317
O42	O	-0.575261	-1.438318	0.951212
H43	H	-0.628377	-1.485126	1.000934
H44	H	-0.898328	-1.392316	0.621301
H45	H	-0.557707	-1.078024	0.449042
O46	O	-1.121895	-1.374774	0.638990
H47	H	-1.206931	-1.386124	0.627710
H48	H	-1.070159	-1.564780	0.449249
H49	H	-0.385392	-1.628285	0.899519
O50	O	-0.367637	-1.645994	1.123092
H51	H	-0.378895	-1.634699	1.208125
