data_functionalizedCrystal
_audit_creation_method	'MofGen! by Chris Wilmer'
_symmetry_space_group_name_H-M	'P1'
_symmetry_Int_Tables_number	1
_symmetry_cell_setting	triclinic
loop_
_symmetry_equiv_pos_as_xyz
  x,y,z
_cell_length_a	16.992701
_cell_length_b	26.809956
_cell_length_c	16.992695
_cell_angle_alpha	89.995583
_cell_angle_beta	90.667696
_cell_angle_gamma	90.009475
loop_
_atom_site_label
_atom_site_type_symbol
_atom_site_fract_x
_atom_site_fract_y
_atom_site_fract_z
O1	O	1.050856	0.041484	0.166896
O2	O	1.550856	0.541484	0.666896
O3	O	0.822456	0.041484	0.165067
O4	O	1.322456	0.541484	0.665067
O5	O	0.935740	0.041480	0.051782
O6	O	1.435740	0.541480	0.551782
O7	O	0.937571	0.041488	0.280182
O8	O	1.437571	0.541488	0.780182
O9	O	0.935718	-0.041479	0.051799
O10	O	1.435718	0.458521	0.551799
O11	O	0.822434	-0.041475	0.165084
O12	O	1.322434	0.458525	0.665084
O13	O	1.050834	-0.041475	0.166913
O14	O	1.550834	0.458525	0.666913
Zn15	Zn	0.936631	-0.054646	0.166001
Zn16	Zn	1.436631	0.445354	0.666001
Zn17	Zn	0.936659	0.054656	0.165979
Zn18	Zn	1.436659	0.554656	0.665979
O19	O	0.937550	-0.041471	0.280199
O20	O	1.437550	0.458529	0.780199
C21	C	0.793085	0.000005	0.162720
C22	C	1.293085	0.500005	0.662720
C23	C	0.705600	0.000005	0.155692
C24	C	1.205600	0.500005	0.655692
C25	C	0.213682	0.000005	0.108471
C26	C	0.713682	0.500005	0.608471
C27	C	0.295882	0.000002	0.115080
C28	C	0.795882	0.500002	0.615080
C29	C	0.332089	0.000007	0.189508
C30	C	0.832089	0.500007	0.689508
C31	C	0.286091	0.000010	0.257331
C32	C	0.786091	0.500010	0.757331
C33	C	0.203892	0.000009	0.250720
C34	C	0.703892	0.500009	0.750720
C35	C	0.577403	0.000007	0.216905
C36	C	1.077403	0.500007	0.716905
C37	C	0.659608	0.000009	0.223510
C38	C	1.159608	0.500009	0.723510
C39	C	0.669394	0.000001	0.081258
C40	C	1.169394	0.500001	0.581258
C41	C	0.587192	0.000003	0.074655
C42	C	1.087192	0.500003	0.574655
C43	C	0.541202	0.000003	0.142477
C44	C	1.041202	0.500003	0.642477
N45	N	0.416111	0.000006	0.196266
N46	N	0.916111	0.500006	0.696266
N47	N	0.457181	0.000000	0.135719
N48	N	0.957181	0.500000	0.635719
N49	N	0.936617	-0.129242	0.166017
N50	N	1.436617	0.370758	0.666017
C51	C	0.986815	-0.473870	0.115829
C52	C	1.486815	0.026130	0.615829
C53	C	0.986833	-0.682748	0.115818
C54	C	1.486833	-0.182748	0.615818
O55	O	1.029482	-0.709753	0.073150
O56	O	1.529482	-0.209753	0.573150
N57	N	0.936662	-0.708870	0.165962
N58	N	1.436662	-0.208870	0.665962
C59	C	0.886480	-0.682768	0.216108
C60	C	1.386480	-0.182768	0.716108
O61	O	0.843801	-0.709779	0.258753
O62	O	1.343801	-0.209779	0.758753
C63	C	0.886458	-0.473892	0.216114
C64	C	1.386458	0.026108	0.716114
C65	C	0.936638	-0.447773	0.165973
C66	C	1.436638	0.052227	0.665973
C67	C	1.036991	-0.447751	0.065691
C68	C	1.536991	0.052249	0.565691
C69	C	1.036989	-0.395535	0.065697
C70	C	1.536989	0.104465	0.565697
C71	C	0.986812	-0.369438	0.115842
C72	C	1.486812	0.130562	0.615842
C73	C	0.936636	-0.395557	0.165979
C74	C	1.436636	0.104443	0.665979
C75	C	0.836272	-0.447792	0.266256
C76	C	1.336272	0.052208	0.766256
C77	C	0.836270	-0.395569	0.266252
C78	C	1.336270	0.104431	0.766252
C79	C	0.886450	-0.369450	0.216111
C80	C	1.386450	0.130550	0.716111
C81	C	0.886457	-0.317243	0.216130
C82	C	1.386457	0.182757	0.716130
N83	N	0.936628	-0.291121	0.165986
N84	N	1.436628	0.208879	0.665986
C85	C	0.986805	-0.317219	0.115842
C86	C	1.486805	0.182781	0.615842
C87	C	0.886495	-0.792432	0.216103
C88	C	1.386495	-0.292432	0.716103
C89	C	0.886502	-0.844651	0.216102
C90	C	1.386502	-0.344651	0.716102
C91	C	0.986854	-0.844627	0.115811
C92	C	1.486854	-0.344627	0.615811
C93	C	0.986852	-0.792407	0.115816
C94	C	1.486852	-0.292407	0.615816
C95	C	0.936666	-0.766310	0.165959
C96	C	1.436666	-0.266310	0.665959
C97	C	0.986798	-0.207561	0.115859
C98	C	1.486798	0.292439	0.615859
C99	C	0.986794	-0.155340	0.115872
C100	C	1.486794	0.344660	0.615872
C101	C	0.886438	-0.155369	0.216160
C102	C	1.386438	0.344631	0.716160
C103	C	0.886445	-0.207585	0.216151
C104	C	1.386445	0.292415	0.716151
C105	C	0.936627	-0.233680	0.165994
C106	C	1.436627	0.266320	0.665994
O107	O	0.843824	-0.290205	0.258770
O108	O	1.343824	0.209795	0.758770
O109	O	1.029465	-0.290199	0.073192
O110	O	1.529465	0.209801	0.573192
C111	C	0.986817	-0.526087	0.115823
C112	C	1.486817	-0.026087	0.615823
C113	C	0.936642	-0.552205	0.165961
C114	C	1.436642	-0.052205	0.665961
C115	C	0.886465	-0.526108	0.216105
C116	C	1.386465	-0.026108	0.716105
C117	C	0.936648	-0.604424	0.165960
C118	C	1.436648	-0.104424	0.665960
C119	C	0.986825	-0.630522	0.115816
C120	C	1.486825	-0.130522	0.615816
C121	C	1.036996	-0.604400	0.065672
C122	C	1.536996	-0.104400	0.565672
C123	C	1.036994	-0.552184	0.065679
C124	C	1.536994	-0.052184	0.565679
C125	C	0.836294	-0.552230	0.266248
C126	C	1.336294	-0.052230	0.766248
C127	C	0.836301	-0.604446	0.266239
C128	C	1.336301	-0.104446	0.766239
C129	C	0.886478	-0.630543	0.216095
C130	C	1.386478	-0.130543	0.716095
C131	C	1.080205	0.000006	0.169260
C132	C	1.580205	0.500006	0.669260
C133	C	1.167689	0.000009	0.176288
C134	C	1.667689	0.500009	0.676288
N135	N	0.936679	0.129252	0.165958
N136	N	1.436679	0.629252	0.665958
C137	C	0.933373	0.000001	0.022430
C138	C	1.433373	0.500001	0.522430
C139	C	0.926345	0.000001	-0.065055
C140	C	1.426345	0.500001	0.434945
C141	C	0.994163	0.000000	-0.111046
C142	C	1.494163	0.500000	0.388954
C143	C	0.987554	0.000005	-0.193247
C144	C	1.487554	0.500005	0.306753
C145	C	0.913126	0.000007	-0.229454
C146	C	1.413126	0.500007	0.270546
C147	C	0.845303	0.000009	-0.183457
C148	C	1.345303	0.500009	0.316543
C149	C	0.851913	0.000008	-0.101258
C150	C	1.351913	0.500008	0.398742
C151	C	0.885732	0.000014	-0.474768
C152	C	1.385732	0.500014	0.025232
C153	C	0.879127	0.000013	-0.556974
C154	C	1.379127	0.500013	-0.056974
C155	C	1.021378	0.000011	-0.566758
C156	C	1.521378	0.500011	-0.066758
C157	C	1.027981	0.000006	-0.484557
C158	C	1.527981	0.500006	0.015443
C159	C	0.960158	0.000011	-0.438566
C160	C	1.460158	0.500011	0.061434
N161	N	0.906369	0.000010	-0.313476
N162	N	1.406369	0.500010	0.186524
N163	N	0.966916	0.000011	-0.354546
N164	N	1.466916	0.500011	0.145454
C165	C	0.939916	0.000010	0.309550
C166	C	1.439916	0.500010	0.809550
C167	C	0.946945	0.000013	0.397035
C168	C	1.446945	0.500013	0.897035
H169	H	0.539967	0.000009	0.272131
H170	H	1.039967	0.500009	0.772131
H171	H	0.830505	0.000017	-0.437333
H172	H	1.330505	0.500017	0.062667
O173	O	0.698660	0.000012	0.303791
O174	O	1.198660	0.500012	0.803791
H175	H	0.735876	-0.033797	0.310205
H176	H	1.235876	0.466203	0.810205
O177	O	1.060706	0.000001	-0.242845
O178	O	1.560706	0.500001	0.257155
H179	H	1.061119	0.033818	-0.280525
H180	H	1.561119	0.533818	0.219475
O181	O	0.325137	0.000015	0.337610
O182	O	0.825137	0.500015	0.837610
H183	H	0.390022	0.000020	0.330815
H184	H	0.890022	0.500020	0.830815
O185	O	1.091104	-0.367371	0.011603
O186	O	1.591104	0.132629	0.511603
H187	H	1.131448	-0.343579	0.047150
H188	H	1.631448	0.156421	0.547150
H189	H	1.076596	0.000008	-0.604212
H190	H	1.576596	0.500008	-0.104212
H191	H	1.088588	0.000005	-0.455083
H192	H	1.588588	0.500005	0.044917
H193	H	0.845592	-0.228851	0.256988
H194	H	1.345592	0.271149	0.756988
O195	O	0.778768	0.000003	-0.051646
O196	O	1.278768	0.500003	0.448354
H197	H	0.725902	-0.000001	-0.090631
H198	H	1.225902	0.499999	0.409369
H199	H	0.184208	0.000004	0.047863
H200	H	0.684208	0.500004	0.547863
O201	O	1.091116	-0.632552	0.011583
O202	O	1.591116	-0.132552	0.511583
H203	H	1.082676	-0.673250	0.020005
H204	H	1.582676	-0.173250	0.520005
H205	H	0.166446	0.000010	0.305945
H206	H	0.666446	0.500010	0.805945
H207	H	1.027659	-0.134075	0.075041
H208	H	1.527659	0.365925	0.575041
O209	O	1.040932	-0.235703	0.061774
O210	O	1.540932	0.264297	0.561774
H211	H	1.075824	-0.208761	0.026923
H212	H	1.575824	0.291239	0.526923
H213	H	0.818516	0.000007	-0.586451
H214	H	1.318516	0.500007	-0.086451
O215	O	1.040952	-0.764235	0.061717
O216	O	1.540952	-0.264235	0.561717
H217	H	1.081291	-0.740436	0.097258
H218	H	1.581291	-0.240436	0.597258
H219	H	0.845587	-0.134112	0.256990
H220	H	1.345587	0.365888	0.756990
H221	H	0.795440	-0.625708	0.307077
H222	H	1.295440	-0.125708	0.807077
H223	H	1.077851	-0.468995	0.024854
H224	H	1.577851	0.031005	0.524854
O225	O	0.832363	-0.764287	0.270188
O226	O	1.332363	-0.264287	0.770188
H227	H	0.867887	-0.740490	0.310542
H228	H	1.367887	-0.240490	0.810542
H229	H	0.795432	-0.530985	0.307081
H230	H	1.295432	-0.030985	0.807081
O231	O	0.345491	-0.000005	0.041935
O232	O	0.845491	0.499995	0.541935
H233	H	0.306504	-0.000003	-0.010929
H234	H	0.806504	0.499997	0.489071
O235	O	0.548140	-0.000012	-0.005621
O236	O	1.048140	0.499988	0.494379
H237	H	0.593932	-0.000022	-0.051670
H238	H	1.093932	0.499978	0.448330
O239	O	0.782132	-0.367419	0.320324
O240	O	1.282132	0.132581	0.820324
H241	H	0.817651	-0.343620	0.360681
H242	H	1.317651	0.156380	0.860681
O243	O	0.718995	-0.000009	0.008109
O244	O	1.218995	0.499991	0.508109
H245	H	0.782237	-0.000014	0.025205
H246	H	1.282237	0.499986	0.525205
H247	H	0.784702	0.000014	-0.212943
H248	H	1.284702	0.500014	0.287057
O249	O	1.074439	0.000003	-0.071994
O250	O	1.574439	0.500003	0.428006
H251	H	1.120485	0.000010	-0.117788
H252	H	1.620485	0.500010	0.382212
O253	O	0.782166	-0.475944	0.320369
O254	O	1.282166	0.024056	0.820369
H255	H	0.720170	-0.465929	0.306470
H256	H	1.220170	0.034071	0.806470
O257	O	1.040971	-0.872778	0.061718
O258	O	1.540971	-0.372778	0.561718
H259	H	1.032534	-0.913476	0.070142
H260	H	1.532534	-0.413476	0.570142
H261	H	1.077855	-0.530922	0.024849
H262	H	1.577855	-0.030922	0.524849
O263	O	0.832407	-0.872820	0.270210
O264	O	1.332407	-0.372820	0.770210
H265	H	0.797520	-0.845895	0.305077
H266	H	1.297520	-0.345895	0.805077
