data_functionalizedCrystal
_audit_creation_method	'MofGen! by Chris Wilmer'
_symmetry_space_group_name_H-M	'P1'
_symmetry_Int_Tables_number	1
_symmetry_cell_setting	triclinic
loop_
_symmetry_equiv_pos_as_xyz
  x,y,z
_cell_length_a	14.853567
_cell_length_b	14.853559
_cell_length_c	13.330367
_cell_angle_alpha	89.997552
_cell_angle_beta	89.995418
_cell_angle_gamma	83.633192
loop_
_atom_site_label
_atom_site_type_symbol
_atom_site_fract_x
_atom_site_fract_y
_atom_site_fract_z
O1	O	1.196365	0.117704	-0.083349
O2	O	0.933905	0.131725	-0.083366
O3	O	1.072150	-0.006515	-0.083356
O4	O	1.058121	0.255945	-0.083359
O5	O	1.072130	-0.006519	0.083491
O6	O	0.933885	0.131722	0.083481
O7	O	1.196345	0.117701	0.083498
Cu8	Cu	1.065113	0.124711	0.098724
Cu9	Cu	1.065137	0.124715	-0.098592
O10	O	1.058100	0.255942	0.083488
C11	C	0.900307	0.131089	0.000055
C12	C	0.800223	0.129185	0.000049
C13	C	0.387692	0.039019	0.000072
C14	C	0.366406	0.203252	0.000070
C15	C	0.460440	0.205042	0.000066
C16	C	0.518104	0.123819	0.000065
C17	C	0.481735	0.040806	0.000066
C18	C	0.496816	0.288054	0.000055
C19	C	0.590855	0.289847	0.000050
C20	C	0.648521	0.208623	0.000056
C21	C	0.612147	0.125607	0.000058
C22	C	0.669811	0.044384	0.000057
C23	C	0.633438	-0.038633	0.000067
C24	C	0.539401	-0.040418	0.000072
C25	C	0.742559	0.210408	0.000051
C26	C	0.763854	0.046172	0.000050
C27	C	1.071506	-0.040106	0.000066
C28	C	1.069605	-0.140190	0.000060
C29	C	1.061552	-0.563363	-0.090889
C30	C	1.061530	-0.563361	0.091014
C31	C	1.063323	-0.469328	0.091015
C32	C	1.064230	-0.422308	0.000062
C33	C	1.063343	-0.469321	-0.090891
C34	C	1.064201	-0.422307	0.181967
C35	C	1.065994	-0.328268	0.181971
C36	C	1.066907	-0.281247	0.091018
C37	C	1.066021	-0.328266	0.000061
C38	C	1.066927	-0.281245	-0.090892
C39	C	1.066047	-0.328264	-0.181850
C40	C	1.064256	-0.422300	-0.181845
C41	C	1.068698	-0.187210	0.091012
C42	C	1.068718	-0.187203	-0.090894
C43	C	1.229944	0.118338	0.000074
C44	C	1.330027	0.120242	0.000074
C45	C	1.058745	0.289532	0.000064
C46	C	1.060646	0.389616	0.000063
N47	N	1.065103	0.124708	0.237505
N48	N	1.065154	0.124711	-0.237374
C49	C	1.003920	0.185904	0.710124
C50	C	1.126379	0.063519	0.710101
C51	C	1.126369	0.063516	0.605082
C52	C	1.065134	0.124709	0.552580
C53	C	1.003909	0.185905	0.605096
C54	C	1.187598	0.002328	0.552559
C55	C	1.187591	0.002323	0.447534
C56	C	1.126351	0.063513	0.395029
C57	C	1.065124	0.124710	0.447552
C58	C	1.003889	0.185903	0.395050
C59	C	0.942656	0.247097	0.447570
C60	C	0.942670	0.247094	0.552592
C61	C	1.126338	0.063515	0.290008
C62	C	1.003879	0.185904	0.290021
H63	H	0.772169	0.277999	0.000044
O64	O	1.069687	-0.136487	-0.188994
H65	H	1.068766	-0.184981	-0.252236
O66	O	1.060547	-0.614076	0.189106
H67	H	1.061458	-0.565583	0.252350
H68	H	1.176239	0.013702	0.752851
O69	O	0.630086	0.379381	0.000047
H70	H	0.672421	0.384114	0.068048
H71	H	1.237449	-0.047505	0.404778
H72	H	1.176197	0.013696	0.247250
O73	O	0.434618	0.375650	0.000068
H74	H	0.391254	0.378759	-0.067923
O75	O	1.060590	-0.614068	-0.188990
H76	H	1.122337	-0.603983	-0.232601
O77	O	1.063242	-0.473031	0.280054
H78	H	1.001040	-0.507933	0.284400
H79	H	0.892802	0.296925	0.404811
H80	H	1.066713	-0.289994	0.256035
H81	H	0.892817	0.296917	0.595360
H82	H	0.954062	0.235725	0.752889
O83	O	1.253644	-0.063669	0.609180
H84	H	1.243355	-0.053395	0.691032
O85	O	0.500173	-0.129953	0.000077
H86	H	0.425096	-0.117548	0.000070
O87	O	1.069648	-0.136502	0.189108
H88	H	1.071043	-0.063212	0.173828
H89	H	0.954011	0.235732	0.247280
H90	H	1.066779	-0.289967	-0.255904
H91	H	0.810799	-0.019971	0.000053
O92	O	1.063289	-0.473010	-0.279942
H93	H	1.123863	-0.523826	-0.284289
O94	O	0.695635	-0.126238	0.000072
H95	H	0.767133	-0.111042	0.000071
H96	H	0.358073	-0.028572	0.000084
H97	H	0.319450	0.269380	0.000063
