data_functionalizedCrystal
_audit_creation_method	'MofGen! by Chris Wilmer'
_symmetry_space_group_name_H-M	'P1'
_symmetry_Int_Tables_number	1
_symmetry_cell_setting	triclinic
loop_
_symmetry_equiv_pos_as_xyz
  x,y,z
_cell_length_a	23.532355
_cell_length_b	17.699083
_cell_length_c	22.610064
_cell_angle_alpha	89.988418
_cell_angle_beta	89.986942
_cell_angle_gamma	96.944743
loop_
_atom_site_label
_atom_site_type_symbol
_atom_site_fract_x
_atom_site_fract_y
_atom_site_fract_z
O1	O	0.755532	-0.091699	0.049105
O2	O	0.589702	-0.105034	0.049124
O3	O	0.677302	0.011848	0.049109
O4	O	0.667932	-0.208580	0.049121
O5	O	0.677315	0.011868	-0.049260
O6	O	0.589716	-0.105014	-0.049245
O7	O	0.755545	-0.091679	-0.049264
Zn8	Zn	0.672632	-0.098343	-0.064873
Zn9	Zn	0.672615	-0.098369	0.064733
O10	O	0.667945	-0.208560	-0.049249
C11	C	0.568492	-0.104690	-0.000058
C12	C	0.505270	-0.103688	-0.000051
C13	C	0.113245	-0.097380	-0.053697
C14	C	0.053843	-0.096427	-0.053699
O15	O	0.023129	-0.095899	-0.099301
N16	N	0.024126	-0.095965	-0.000078
C17	C	0.053815	-0.096449	0.053548
O18	O	0.023084	-0.095968	0.099157
C19	C	0.113217	-0.097397	0.053550
C20	C	0.142930	-0.097867	-0.000074
C21	C	0.142959	-0.097849	-0.107317
C22	C	0.202357	-0.098804	-0.107314
C23	C	0.232041	-0.099290	-0.053692
C24	C	0.202328	-0.098821	-0.000072
C25	C	0.142905	-0.097875	0.107176
C26	C	0.202311	-0.098823	0.107173
C27	C	0.232024	-0.099292	0.053549
C28	C	0.291410	-0.100262	0.053553
N29	N	0.321127	-0.100724	-0.000068
C30	C	0.291443	-0.100238	-0.053690
C31	C	-0.070932	-0.094457	0.053541
C32	C	-0.130333	-0.093514	0.053539
C33	C	-0.130301	-0.093491	-0.053708
C34	C	-0.070899	-0.094439	-0.053707
C35	C	-0.041215	-0.094919	-0.000080
C36	C	0.416183	-0.102244	-0.053681
C37	C	0.475586	-0.103202	-0.053673
C38	C	0.475548	-0.103221	0.053574
C39	C	0.416150	-0.102267	0.053567
C40	C	0.386469	-0.101776	-0.000065
O41	O	0.322162	-0.100788	0.099132
O42	O	0.322182	-0.100709	-0.099291
C43	C	0.676973	0.040053	-0.000076
C44	C	0.675966	0.124066	-0.000076
C45	C	0.776756	-0.092022	-0.000080
C46	C	0.839977	-0.093024	-0.000084
N47	N	0.672649	-0.098325	-0.153325
C48	C	0.668274	-0.236765	-0.000063
C49	C	0.669282	-0.320778	-0.000059
C50	C	0.727385	0.172961	-0.000082
C51	C	0.726435	0.251899	-0.000077
C52	C	0.674066	0.281941	-0.000069
C53	C	0.622642	0.233040	-0.000061
C54	C	0.623593	0.154103	-0.000062
C55	C	0.618808	0.551383	-0.000055
C56	C	0.617862	0.630326	-0.000056
C57	C	0.721651	0.649178	-0.000071
C58	C	0.722601	0.570241	-0.000072
C59	C	0.671178	0.521348	-0.000060
C60	C	0.672209	0.435754	-0.000065
C61	C	0.673034	0.367533	-0.000069
N62	N	0.672603	-0.098382	0.153185
C63	C	0.711502	-0.046701	0.561820
C64	C	0.711507	-0.046697	0.623740
O65	O	0.744571	-0.002787	0.655753
N66	N	0.672644	-0.098344	0.654723
C67	C	0.633779	-0.150002	0.623782
O68	O	0.600724	-0.193932	0.655821
C69	C	0.633778	-0.150009	0.561863
C70	C	0.672639	-0.098354	0.530884
C71	C	0.750361	0.004950	0.530841
C72	C	0.750356	0.004947	0.468925
C73	C	0.711492	-0.046706	0.437989
C74	C	0.672634	-0.098357	0.468968
C75	C	0.594916	-0.201671	0.530924
C76	C	0.594918	-0.201674	0.469001
C77	C	0.633779	-0.150018	0.438022
C78	C	0.633765	-0.150013	0.376116
N79	N	0.672628	-0.098366	0.345134
C80	C	0.711491	-0.046713	0.376070
C81	C	0.633785	-0.149985	0.753816
C82	C	0.633783	-0.149976	0.815733
C83	C	0.711511	-0.046671	0.815687
C84	C	0.711510	-0.046677	0.753768
C85	C	0.672647	-0.098339	0.722833
C86	C	0.711477	-0.046723	0.246043
C87	C	0.711467	-0.046728	0.184122
C88	C	0.633741	-0.150035	0.184173
C89	C	0.633748	-0.150028	0.246089
C90	C	0.672621	-0.098368	0.277022
O91	O	0.600720	-0.193903	0.344064
O92	O	0.744545	-0.002797	0.344024
H93	H	-0.154481	-0.093094	-0.097371
C94	C	0.753726	0.009391	0.150595
C95	C	0.787771	0.054611	0.190945
C96	C	0.826710	0.106306	0.160084
H97	H	0.733400	0.040887	0.126439
H98	H	0.777380	-0.017717	0.126450
H99	H	0.764120	0.081716	0.215080
H100	H	0.808109	0.023136	0.215102
H101	H	0.850365	0.079199	0.135940
H102	H	0.806380	0.137797	0.135930
H103	H	0.849818	0.136989	0.187457
C104	C	-0.038662	-0.094836	0.111750
C105	C	0.001932	-0.030249	0.114898
C106	C	0.031661	-0.030567	0.168514
H107	H	-0.019847	-0.139299	0.114041
H108	H	-0.064850	-0.094386	0.143698
H109	H	0.028116	-0.030706	0.082959
H110	H	-0.016868	0.014225	0.112617
H111	H	0.005472	-0.030117	0.200462
H112	H	0.050472	-0.075033	0.170800
H113	H	0.059203	0.013258	0.170659
H114	H	0.743132	-0.004658	0.271222
H115	H	0.226544	-0.099182	-0.150981
C116	C	0.110763	-0.097318	0.165460
C117	C	0.149488	-0.097919	0.212413
C118	C	0.119902	-0.097392	0.266117
H119	H	0.083179	-0.141074	0.167788
H120	H	0.092015	-0.052784	0.167716
H121	H	0.168226	-0.142449	0.210159
H122	H	0.177073	-0.054166	0.210105
H123	H	0.101154	-0.052858	0.268372
H124	H	0.092319	-0.141149	0.268439
H125	H	0.146173	-0.097793	0.297980
H126	H	0.602099	-0.192083	0.271313
C127	C	0.234600	-0.099468	0.165354
C128	C	0.262208	-0.165131	0.168489
C129	C	0.291963	-0.165748	0.222072
H130	H	0.208455	-0.099093	0.197337
H131	H	0.262211	-0.055721	0.167587
H132	H	0.234600	-0.208866	0.166262
H133	H	0.288362	-0.165520	0.136519
H134	H	0.319574	-0.122002	0.224304
H135	H	0.265814	-0.165371	0.254050
H136	H	0.310703	-0.210296	0.224203
H137	H	0.563272	-0.243745	0.443817
H138	H	0.499728	-0.103620	0.097232
H139	H	0.576937	0.511582	-0.000046
C140	C	0.753733	0.009282	0.720062
C141	C	0.788467	-0.030888	0.684505
C142	C	0.827367	0.020639	0.653446
H143	H	0.776931	0.040066	0.747293
H144	H	0.733358	0.040694	0.695871
H145	H	0.808840	-0.062286	0.708695
H146	H	0.765286	-0.061668	0.657264
H147	H	0.806992	0.052050	0.629254
H148	H	0.850560	0.051419	0.680681
H149	H	0.850935	-0.006609	0.629313
C150	C	0.591522	-0.205994	0.150500
C151	C	0.556793	-0.165825	0.114941
C152	C	0.517903	-0.217352	0.083905
H153	H	0.568320	-0.236783	0.177745
H154	H	0.611904	-0.237400	0.126312
H155	H	0.536412	-0.134432	0.139127
H156	H	0.579979	-0.135039	0.087685
H157	H	0.538286	-0.248758	0.059717
H158	H	0.494706	-0.248138	0.111154
H159	H	0.494338	-0.190105	0.059770
H160	H	0.118796	-0.097452	-0.150985
C161	C	0.567704	0.101140	-0.000084
C162	C	0.521637	0.144343	-0.000093
C163	C	0.470142	0.095580	-0.000117
H164	H	0.565834	0.069929	0.034211
H165	H	0.565889	0.069974	-0.034401
H166	H	0.523451	0.175496	0.034220
H167	H	0.523488	0.175552	-0.034385
H168	H	0.468327	0.064413	-0.034434
H169	H	0.468278	0.064371	0.034178
H170	H	0.438880	0.124885	-0.000128
C171	C	0.753646	0.009598	0.849190
C172	C	0.744561	0.083907	0.834059
C173	C	0.783356	0.135789	0.864889
H174	H	0.791646	0.001667	0.839041
H175	H	0.748115	0.002323	0.890520
H176	H	0.750096	0.091179	0.792738
H177	H	0.706568	0.091862	0.844209
H178	H	0.777825	0.128514	0.906219
H179	H	0.821354	0.127851	0.854738
H180	H	0.777193	0.186213	0.854632
H181	H	0.575214	0.654782	-0.000051
C182	C	0.792464	0.061111	0.435267
C183	C	0.762277	0.107341	0.399727
C184	C	0.801053	0.159095	0.368724
H185	H	0.816105	0.034072	0.411065
H186	H	0.815600	0.091911	0.462549
H187	H	0.739152	0.076545	0.372448
H188	H	0.738639	0.134397	0.423914
H189	H	0.824188	0.189895	0.396007
H190	H	0.824691	0.132049	0.344526
H191	H	0.780577	0.190472	0.344612
C192	C	0.792583	0.061124	0.564315
C193	C	0.826598	0.106361	0.523920
C194	C	0.865494	0.158132	0.554729
H195	H	0.816267	0.034099	0.588473
H196	H	0.772206	0.092595	0.588452
H197	H	0.846974	0.074895	0.499793
H198	H	0.802930	0.133403	0.499760
H199	H	0.845117	0.189602	0.578866
H200	H	0.889174	0.131100	0.578887
H201	H	0.888574	0.188836	0.527326
H202	H	0.563272	-0.243734	0.556139
C203	C	-0.038740	-0.094900	-0.111989
C204	C	-0.077456	-0.094254	-0.158946
C205	C	-0.047854	-0.094666	-0.212646
H206	H	-0.019968	-0.139398	-0.114303
H207	H	-0.011173	-0.051107	-0.114254
H208	H	-0.105013	-0.138043	-0.156682
H209	H	-0.096230	-0.049760	-0.156651
H210	H	-0.020287	-0.050873	-0.214911
H211	H	-0.029083	-0.139165	-0.214954
H212	H	-0.074117	-0.094221	-0.244513
H213	H	0.602133	-0.192030	0.840953
C214	C	0.383949	-0.101558	-0.111892
C215	C	0.356364	-0.035877	-0.115047
C216	C	0.326671	-0.035219	-0.168664
H217	H	0.356328	-0.145276	-0.114179
H218	H	0.410146	-0.101934	-0.143838
H219	H	0.330169	-0.035508	-0.083109
H220	H	0.383972	0.007852	-0.112770
H221	H	0.352868	-0.035595	-0.200611
H222	H	0.299053	-0.078940	-0.170947
H223	H	0.307955	0.009348	-0.170815
H224	H	0.770030	0.148507	-0.000092
H225	H	0.602133	-0.192052	0.728631
C226	C	0.383991	-0.101736	0.111848
C227	C	0.422706	-0.102355	0.158809
C228	C	0.393109	-0.101851	0.212507
H229	H	0.356408	-0.145494	0.114161
H230	H	0.365243	-0.057203	0.114111
H231	H	0.441446	-0.146883	0.156548
H232	H	0.450291	-0.058600	0.156516
H233	H	0.374360	-0.057319	0.214769
H234	H	0.365526	-0.145610	0.214813
H235	H	0.419373	-0.102264	0.244375
H236	H	-0.154522	-0.093144	0.097206
H237	H	0.499775	-0.103587	-0.097343
C238	C	0.565841	0.265802	-0.000082
C239	C	0.576012	0.345397	-0.000101
C240	C	0.523699	0.375600	-0.000131
H241	H	0.544625	0.249066	0.034214
H242	H	0.544673	0.249042	-0.034397
H243	H	0.597171	0.362149	0.034211
H244	H	0.597219	0.362153	-0.034395
H245	H	0.502532	0.358840	-0.034446
H246	H	0.502487	0.358859	0.034167
H247	H	0.530593	0.429608	-0.000149
H248	H	0.768306	0.291706	-0.000084
C249	C	0.779477	0.537669	0.000043
C250	C	0.810540	0.562528	0.050657
C251	C	0.862935	0.532531	0.050789
H252	H	0.800720	0.554469	-0.034222
H253	H	0.772703	0.483651	0.000075
H254	H	0.817316	0.616534	0.050619
H255	H	0.789315	0.545729	0.084930
H256	H	0.856161	0.478513	0.050822
H257	H	0.884172	0.549333	0.016522
H258	H	0.884015	0.549387	0.085133
C259	C	0.777466	0.702302	0.000046
C260	C	0.779956	0.748139	0.050664
C261	C	0.831366	0.797075	0.050795
H262	H	0.779312	0.733571	-0.034216
H263	H	0.808807	0.673130	0.000071
H264	H	0.748624	0.777308	0.050634
H265	H	0.778119	0.716890	0.084935
H266	H	0.862706	0.767904	0.050819
H267	H	0.833207	0.828340	0.016530
H268	H	0.833064	0.828177	0.085141
