data_functionalizedCrystal
_audit_creation_method	'MofGen! by Chris Wilmer'
_symmetry_space_group_name_H-M	'P1'
_symmetry_Int_Tables_number	1
_symmetry_cell_setting	triclinic
loop_
_symmetry_equiv_pos_as_xyz
  x,y,z
_cell_length_a	17.019372
_cell_length_b	16.098538
_cell_length_c	12.837942
_cell_angle_alpha	86.987046
_cell_angle_beta	89.097252
_cell_angle_gamma	88.864305
loop_
_atom_site_label
_atom_site_type_symbol
_atom_site_fract_x
_atom_site_fract_y
_atom_site_fract_z
O1	O	1.056294	-0.006433	0.132445
O2	O	0.828648	0.009880	0.148200
O3	O	0.937423	0.002080	-0.010597
O4	O	0.947519	0.001367	0.291241
O5	O	0.931066	-0.135977	-0.001357
O6	O	0.822291	-0.128177	0.157439
O7	O	1.049937	-0.144491	0.141685
Zn8	Zn	0.935105	-0.158253	0.151029
Zn9	Zn	0.943480	0.023643	0.138855
O10	O	0.941162	-0.136690	0.300481
C11	C	0.796129	-0.057046	0.152041
C12	C	0.708704	-0.050781	0.149710
C13	C	0.214424	-0.011516	0.136233
C14	C	0.296569	-0.017414	0.138425
C15	C	0.334168	-0.095619	0.144564
C16	C	0.289618	-0.167930	0.148503
C17	C	0.207475	-0.162031	0.146304
C18	C	0.582012	-0.117194	0.151449
C19	C	0.664161	-0.123087	0.153651
C20	C	0.671106	0.027430	0.143571
C21	C	0.588961	0.033322	0.141378
C22	C	0.544419	-0.038990	0.145311
C23	C	0.418132	-0.101649	0.146808
C24	C	0.460456	-0.032959	0.143060
N25	N	0.929394	-0.282393	0.159337
C26	C	0.975583	-0.329290	0.091961
C27	C	0.971597	-0.416193	0.097783
C28	C	0.921425	-0.456198	0.170985
C29	C	0.875231	-0.409294	0.238363
C30	C	0.879213	-0.322392	0.232536
C31	C	0.906985	-0.718412	0.192091
C32	C	0.903007	-0.805320	0.197915
C33	C	0.999372	-0.812214	0.057332
C34	C	1.003354	-0.725310	0.051516
C35	C	0.957157	-0.678414	0.118890
C36	C	0.917350	-0.545027	0.176939
C37	C	0.961228	-0.589586	0.112930
C38	C	1.082455	-0.077563	0.137843
C39	C	1.169880	-0.083822	0.140174
C40	C	0.930834	-0.066704	-0.044609
C41	C	0.920662	-0.065973	-0.159719
N42	N	0.949196	0.147782	0.130540
C43	C	1.042944	-0.074719	-0.400278
C44	C	1.033391	-0.074033	-0.508435
C45	C	0.892003	-0.063909	-0.484193
C46	C	0.901557	-0.064595	-0.376036
C47	C	0.977029	-0.070002	-0.334083
C48	C	0.986582	-0.070694	-0.225923
C49	C	0.845195	-0.060564	-0.201683
C50	C	0.835642	-0.059878	-0.309841
C51	C	0.947751	-0.067905	0.334493
C52	C	0.957923	-0.068630	0.449603
H53	H	0.707381	0.086302	0.140367
H54	H	0.869370	-0.680236	0.246952
H55	H	1.048035	-0.075099	-0.191766
Br56	Br	0.807132	-0.463582	0.337705
Br57	Br	0.755733	-0.054176	-0.111839
H58	H	0.183817	0.052166	0.131241
H59	H	0.841600	-0.284209	0.287399
H60	H	1.036983	-0.850404	0.002478
H61	H	0.332833	0.041465	0.135209
Br62	Br	0.340644	-0.274066	0.156830
H63	H	0.429839	0.030715	0.138057
H64	H	1.087066	-0.077872	-0.562329
H65	H	0.774194	-0.055473	-0.344015
H66	H	0.558354	0.097004	0.136377
H67	H	0.694771	-0.186773	0.158658
H68	H	0.171208	-0.220911	0.149524
H69	H	0.545756	-0.176075	0.154636
Br70	Br	0.469166	-0.207781	0.155150
Br71	Br	1.043684	-0.275008	-0.007383
Br72	Br	1.034279	-0.479842	0.006340
H73	H	1.044208	-0.692741	-0.008091
H74	H	0.862149	-0.837888	0.257530
H75	H	1.002075	-0.557012	0.053325
Br76	Br	0.849260	-0.599322	0.276285
Br77	Br	1.145366	-0.082081	-0.343334
H78	H	0.830557	-0.059499	-0.518372
