data_functionalizedCrystal
_audit_creation_method	'MofGen! by Chris Wilmer'
_symmetry_space_group_name_H-M	'P1'
_symmetry_Int_Tables_number	1
_symmetry_cell_setting	triclinic
loop_
_symmetry_equiv_pos_as_xyz
  x,y,z
_cell_length_a	16.992694
_cell_length_b	12.837942
_cell_length_c	15.455313
_cell_angle_alpha	92.949088
_cell_angle_beta	87.142206
_cell_angle_gamma	92.748582
loop_
_atom_site_label
_atom_site_type_symbol
_atom_site_fract_x
_atom_site_fract_y
_atom_site_fract_z
O1	O	1.060029	0.216906	-0.072020
O2	O	0.831564	0.214478	-0.072045
O3	O	0.940730	0.064370	-0.072028
O4	O	0.950863	0.367014	-0.072037
O5	O	0.934485	0.072916	0.072233
O6	O	0.825318	0.223024	0.072216
O7	O	1.053784	0.225452	0.072241
Cu8	Cu	0.938981	0.225018	0.085401
Cu9	Cu	0.946367	0.214912	-0.085205
O10	O	0.944617	0.375560	0.072224
C11	C	0.798995	0.215629	0.000082
C12	C	0.711256	0.206315	0.000072
C13	C	0.934185	0.029739	0.000102
C14	C	0.923977	-0.086184	0.000099
C15	C	0.667730	0.296178	0.000070
C16	C	0.585288	0.287422	0.000082
C17	C	0.546375	0.188801	0.000091
C18	C	0.589907	0.098931	0.000095
C19	C	0.672346	0.107689	0.000089
C20	C	0.300064	0.152503	0.000115
C21	C	0.217618	0.143751	0.000118
C22	C	0.213006	0.332243	0.000107
C23	C	0.295447	0.340992	0.000096
C24	C	0.338972	0.251123	0.000105
N25	N	0.462107	0.179848	0.000100
N26	N	0.423238	0.260077	0.000102
C27	C	1.046699	-0.316976	0.000095
C28	C	1.037111	-0.425897	0.000093
C29	C	0.895215	-0.412947	0.000086
C30	C	0.904802	-0.304027	0.000088
C31	C	0.980547	-0.256046	0.000094
C32	C	0.990134	-0.147123	0.000103
C33	C	0.848238	-0.134176	0.000090
C34	C	0.838650	-0.243096	0.000087
C35	C	1.086352	0.224301	0.000112
C36	C	1.174092	0.233614	0.000116
C37	C	0.951163	0.410191	0.000092
C38	C	0.961371	0.526114	0.000089
N39	N	0.933792	0.232127	0.205396
N40	N	0.951562	0.207795	-0.205199
C41	C	0.980189	0.168382	0.250797
C42	C	0.976273	0.173768	0.341604
C43	C	0.925963	0.242905	0.387008
C44	C	0.879560	0.306652	0.341600
C45	C	0.883473	0.301260	0.250795
C46	C	0.909072	0.266151	0.658587
C47	C	0.905164	0.271540	0.749399
C48	C	1.001877	0.138654	0.749397
C49	C	1.005788	0.133273	0.658589
C50	C	0.959383	0.197016	0.613189
N51	N	0.921960	0.248414	0.479828
N52	N	0.963381	0.191501	0.520371
H53	H	0.699407	0.376486	0.000063
O54	O	0.821635	-0.459532	-0.000083
C55	C	0.700648	-0.486179	-0.074817
C56	C	0.783964	-0.433378	-0.074741
H57	H	0.670161	-0.465035	-0.135163
H58	H	0.705123	-0.574504	-0.074881
H59	H	0.664957	-0.458028	-0.014419
H60	H	0.819701	-0.461444	-0.135128
H61	H	0.779430	-0.345059	-0.074632
H62	H	1.046755	0.076976	0.621623
H63	H	0.558216	0.018632	0.000114
H64	H	0.549853	0.360598	0.000080
H65	H	0.707784	0.034513	0.000091
O66	O	0.863971	0.328180	0.614628
C67	C	0.767602	0.460513	0.624221
C68	C	0.818650	0.390337	0.674117
H69	H	0.730934	0.510769	0.672297
H70	H	0.807349	0.513017	0.581718
H71	H	0.726687	0.409642	0.581698
H72	H	0.859571	0.441127	0.716687
H73	H	0.778855	0.337827	0.716565
O74	O	1.028968	0.101054	0.206754
C75	C	1.062856	-0.078117	0.179094
C76	C	1.007550	-0.001969	0.228995
H77	H	1.045570	-0.161425	0.197071
H78	H	1.057695	-0.071144	0.106377
H79	H	1.126292	-0.058137	0.196937
H80	H	0.944092	-0.021899	0.211224
H81	H	1.012780	-0.008955	0.301699
H82	H	1.108372	-0.277909	0.000108
O83	O	1.063766	-0.100681	0.000066
C84	C	1.203493	-0.125024	0.000110
C85	C	1.120149	-0.177750	0.000137
H86	H	1.249101	-0.187309	0.000186
H87	H	1.214188	-0.077961	-0.060277
H88	H	1.208885	-0.070749	0.060469
H89	H	1.114698	-0.232074	-0.060181
H90	H	1.109492	-0.224747	0.060564
H91	H	0.327125	0.421299	0.000079
H92	H	1.039657	0.086756	0.786370
H93	H	0.177559	0.405409	0.000101
H94	H	1.090979	-0.475503	0.000090
O95	O	0.765067	-0.289673	-0.000072
C96	C	0.644068	-0.316302	-0.074786
C97	C	0.727390	-0.263517	-0.074726
H98	H	0.613576	-0.295157	-0.135127
H99	H	0.648534	-0.404629	-0.074845
H100	H	0.608388	-0.288139	-0.014384
H101	H	0.763117	-0.291596	-0.135117
H102	H	0.722866	-0.175197	-0.074621
O103	O	0.783943	-0.075021	0.000242
C104	C	0.662345	-0.026254	0.074954
C105	C	0.735126	-0.093285	0.074895
H106	H	0.622849	-0.041013	0.135295
H107	H	0.682160	0.059857	0.075016
H108	H	0.628118	-0.048035	0.014552
H109	H	0.769385	-0.071595	0.135287
H110	H	0.715259	-0.179379	0.074788
H111	H	0.864193	0.327844	0.786363
O112	O	0.342306	0.065164	-0.000036
C113	C	0.374650	-0.097723	-0.074741
C114	C	0.326779	0.001156	-0.074688
H115	H	0.362101	-0.149512	-0.135081
H116	H	0.440271	-0.074602	-0.074798
H117	H	0.356974	-0.142294	-0.014338
H118	H	0.344387	0.045772	-0.135080
H119	H	0.261169	-0.022035	-0.074585
O120	O	1.021231	0.111739	0.385741
C121	C	1.022992	-0.023191	0.488307
C122	C	0.971979	0.046982	0.438365
H123	H	0.983193	-0.075549	0.530879
H124	H	1.059606	-0.073595	0.440291
H125	H	1.063954	0.027685	0.530771
H126	H	0.930971	-0.003814	0.395900
H127	H	0.935418	0.097393	0.486427
O128	O	0.830640	0.373670	0.385801
C129	C	0.720102	0.392945	0.488300
C130	C	0.775457	0.316931	0.438315
H131	H	0.675462	0.347099	0.530756
H132	H	0.756180	0.450412	0.530859
H133	H	0.687647	0.437602	0.440236
H134	H	0.807924	0.272202	0.486317
H135	H	0.739336	0.259531	0.395743
O136	O	0.838376	0.363291	0.206823
C137	C	0.742004	0.495620	0.216403
C138	C	0.793050	0.425450	0.266307
H139	H	0.705333	0.545877	0.264474
H140	H	0.781754	0.548123	0.173901
H141	H	0.701093	0.444745	0.173879
H142	H	0.833968	0.476243	0.308878
H143	H	0.753254	0.372940	0.308754
H144	H	0.185938	0.063438	0.000124
