data_functionalizedCrystal
_audit_creation_method	'MofGen! by Chris Wilmer'
_symmetry_space_group_name_H-M	'P1'
_symmetry_Int_Tables_number	1
_symmetry_cell_setting	triclinic
loop_
_symmetry_equiv_pos_as_xyz
  x,y,z
_cell_length_a	12.645331
_cell_length_b	12.645330
_cell_length_c	17.077396
_cell_angle_alpha	89.972192
_cell_angle_beta	89.982653
_cell_angle_gamma	90.011625
loop_
_atom_site_label
_atom_site_type_symbol
_atom_site_fract_x
_atom_site_fract_y
_atom_site_fract_z
Zn1	Zn	1.620713	-0.422051	-0.443861
Zn2	Zn	1.620626	-0.599342	-0.312600
Zn3	Zn	1.443444	-0.422090	-0.312608
Zn4	Zn	1.443425	-0.599270	-0.443823
O5	O	1.532052	-0.510688	-0.378223
O6	O	1.769048	-0.445583	-0.426462
O7	O	1.597095	-0.575875	-0.202754
O8	O	1.467003	-0.273737	-0.330039
O9	O	1.768985	-0.575838	-0.330025
O10	O	1.597242	-0.273709	-0.426469
O11	O	1.466919	-0.445649	-0.202760
O12	O	1.295094	-0.445579	-0.330002
O13	O	1.466970	-0.575716	-0.553675
O14	O	1.295080	-0.575753	-0.426405
O15	O	1.597223	-0.445514	-0.553703
O16	O	1.597076	-0.747680	-0.329988
O17	O	1.466887	-0.747627	-0.426397
C18	C	1.256622	-0.510663	-0.378201
C19	C	1.138792	-0.510678	-0.378210
C20	C	0.971201	-0.428409	-0.317897
C21	C	1.093761	-0.428622	-0.317631
C22	C	1.094284	-0.622352	-0.355611
C23	C	0.971686	-0.621903	-0.355200
C24	C	0.971630	-0.482335	-0.461353
C25	C	1.094235	-0.479841	-0.460892
C26	C	1.531999	-0.786118	-0.378205
C27	C	1.532073	-0.903948	-0.378223
C28	C	1.613844	-1.071501	-0.317449
C29	C	1.614110	-0.948941	-0.317598
C30	C	1.562363	-0.948329	-0.460967
C31	C	1.563012	-1.070927	-0.460644
C32	C	1.419981	-1.071274	-0.357069
C33	C	1.420518	-0.948669	-0.355213
C34	C	1.808557	-0.510714	-0.378247
C35	C	1.926387	-0.510725	-0.378256
C36	C	1.532104	-0.510602	-0.582968
C37	C	1.532127	-0.510566	-0.670218
C38	C	1.532134	-0.234183	-0.378259
C39	C	1.532169	-0.116353	-0.378274
C40	C	1.600005	-0.578251	-1.046031
C41	C	1.599978	-0.578282	-0.964051
C42	C	1.532195	-0.510491	-0.923067
C43	C	1.464426	-0.442672	-0.964067
C44	C	1.464448	-0.442647	-1.046046
C45	C	1.464386	-0.442727	-0.793197
C46	C	1.464365	-0.442750	-0.711212
C47	C	1.599916	-0.578362	-0.711202
C48	C	1.599939	-0.578337	-0.793181
C49	C	1.532171	-0.510516	-0.834176
C50	C	1.532061	-0.510697	-0.174275
C51	C	1.532244	-0.510435	-0.087026
H52	H	1.124950	-0.646842	-0.295515
F53	F	1.132047	-0.453143	-0.237143
F54	F	1.670197	-1.108200	-0.484121
H55	H	1.655144	-0.633518	-0.930677
H56	H	1.643441	-0.917542	-0.479229
H57	H	1.123454	-0.685323	-0.398194
F58	F	0.931237	-0.377753	-0.488215
F59	F	1.589391	-1.110134	-0.237020
F60	F	1.672085	-0.650485	-0.836798
H61	H	1.123330	-0.397661	-0.477932
H62	H	1.655096	-0.633584	-0.677820
H63	H	0.943050	-0.645979	-0.294451
H64	H	1.696492	-1.102232	-0.331318
H65	H	1.409173	-0.387545	-0.677845
H66	H	0.942042	-0.685311	-0.397246
F67	F	0.930876	-0.452646	-0.237885
H68	H	1.697204	-0.919534	-0.331624
H69	H	1.409231	-0.387480	-0.930691
H70	H	1.409202	-0.387500	-0.826572
F71	F	1.134300	-0.552493	-0.522820
H72	H	1.506129	-1.100593	-0.507525
F73	F	1.392332	-0.370464	-1.089675
H74	H	1.359126	-1.100280	-0.401370
F75	F	1.486969	-0.910243	-0.521791
F76	F	0.933752	-0.560700	-0.520137
H77	H	1.356382	-0.918053	-0.396267
F78	F	1.589285	-0.909722	-0.237414
H79	H	1.655208	-0.633450	-1.079395
H80	H	1.123853	-0.345811	-0.331796
H81	H	1.397679	-0.919674	-0.294320
F82	F	0.932679	-0.319840	-0.336211
H83	H	1.392434	-1.102284	-0.297783
