data_functionalizedCrystal
_audit_creation_method	'MofGen! by Chris Wilmer'
_symmetry_space_group_name_H-M	'P1'
_symmetry_Int_Tables_number	1
_symmetry_cell_setting	triclinic
loop_
_symmetry_equiv_pos_as_xyz
  x,y,z
_cell_length_a	13.635800
_cell_length_b	16.857703
_cell_length_c	19.551833
_cell_angle_alpha	79.679614
_cell_angle_beta	101.663477
_cell_angle_gamma	96.465073
loop_
_atom_site_label
_atom_site_type_symbol
_atom_site_fract_x
_atom_site_fract_y
_atom_site_fract_z
V1	V	1.954974	-0.111405	0.218484
O2	O	1.999065	0.004491	0.213686
O3	O	1.883791	-0.220069	0.217604
O4	O	1.926898	-0.110070	0.313491
O5	O	1.955659	-0.106269	0.117134
V6	V	2.203378	-0.097498	0.206287
O7	O	2.071032	-0.141912	0.245238
O8	O	2.312418	-0.066991	0.179532
O9	O	2.162957	0.011166	0.207166
O10	O	2.217985	-0.213395	0.211085
O11	O	2.261390	-0.102634	0.307636
O12	O	2.119850	-0.098833	0.111279
V13	V	2.454974	-0.111405	0.218484
O14	O	2.499065	0.004491	0.213686
O15	O	2.383791	-0.220069	0.217604
O16	O	2.426898	-0.110070	0.313491
O17	O	2.455659	-0.106269	0.117134
V18	V	2.703378	-0.097498	0.206287
O19	O	2.571032	-0.141912	0.245238
O20	O	2.812418	-0.066991	0.179532
O21	O	2.662957	0.011166	0.207166
O22	O	2.717985	-0.213395	0.211085
O23	O	2.761390	-0.102634	0.307636
O24	O	2.619850	-0.098833	0.111279
C25	C	2.294987	-0.246547	0.214316
C26	C	2.277404	-0.335383	0.214230
C27	C	2.180019	-0.373037	0.210679
C28	C	2.163502	-0.456507	0.210590
C29	C	2.244373	-0.502322	0.214056
C30	C	2.341766	-0.464662	0.217605
C31	C	2.358280	-0.381193	0.217689
C32	C	2.204539	-0.752396	0.214176
C33	C	2.188017	-0.835871	0.214094
C34	C	2.009754	-0.827710	0.207077
C35	C	2.026278	-0.744240	0.207166
C36	C	2.123668	-0.706587	0.210711
N37	N	2.227493	-0.587642	0.213967
N38	N	2.140545	-0.621267	0.210795
C39	C	1.794987	-0.246547	0.214316
C40	C	1.777404	-0.335383	0.214230
C41	C	1.849975	-0.106231	0.336629
C42	C	1.867351	-0.105858	0.414303
C43	C	2.083430	0.037639	0.210453
C44	C	2.090632	0.126475	0.210543
C45	C	2.028443	-0.102675	0.088138
C46	C	2.000688	-0.103043	0.010463
C47	C	2.349975	-0.106231	0.336629
C48	C	2.367351	-0.105858	0.414303
C49	C	1.964666	-0.109695	0.454371
C50	C	1.980993	-0.109344	0.527354
C51	C	1.899996	-0.105174	0.560267
C52	C	1.802667	-0.101333	0.520188
C53	C	1.786345	-0.101675	0.447206
C54	C	1.849808	-0.148626	0.679823
C55	C	1.866133	-0.148289	0.752804
C56	C	1.950338	-0.104115	0.785368
C57	C	2.018230	-0.060289	0.744942
C58	C	2.001907	-0.060631	0.671960
C59	C	1.917685	-0.104802	0.639403
C60	C	2.065363	-0.107570	0.904573
C61	C	2.081687	-0.107215	0.977556
C62	C	1.903357	-0.099211	0.970390
C63	C	1.887037	-0.099559	0.897407
C64	C	1.968043	-0.103742	0.864503
C65	C	2.583430	0.037639	0.210453
C66	C	2.590632	0.126475	0.210543
C67	C	2.528443	-0.102675	0.088138
C68	C	2.500688	-0.103043	0.010463
C69	C	1.858281	-0.381190	0.217703
C70	C	1.841776	-0.464663	0.217633
C71	C	1.744392	-0.502328	0.214085
C72	C	1.663510	-0.456515	0.210613
C73	C	1.680017	-0.373044	0.210688
C74	C	2.464678	-0.109681	0.454363
C75	C	2.481021	-0.109321	0.527344
C76	C	2.400033	-0.105143	0.560265
C77	C	2.302698	-0.101317	0.520199
C78	C	2.286358	-0.101672	0.447218
C79	C	2.682248	0.172281	0.207071
C80	C	2.689025	0.255754	0.207145
C81	C	2.604185	0.293418	0.210695
C82	C	2.512561	0.247606	0.214165
C83	C	2.505783	0.164136	0.214087
C84	C	2.399448	-0.107212	-0.022439
C85	C	2.373356	-0.107549	-0.095423
C86	C	2.448505	-0.103723	-0.135502
C87	C	2.549754	-0.099551	-0.102595
C88	C	2.575845	-0.099209	-0.029613
H89	H	2.114164	-0.335741	0.207862
H90	H	2.290910	-0.110946	-0.122205
H91	H	1.781229	-0.184593	0.653315
H92	H	1.907645	-0.501952	0.220459
Br93	Br	2.192795	-0.095657	0.564889
H94	H	2.084201	-0.487159	0.207688
H95	H	1.937582	-0.350534	0.220589
Br96	Br	1.722008	-0.615612	0.213983
Br97	Br	2.074604	-0.115369	0.409719
Br98	Br	1.531351	-0.507644	0.205794
H99	H	2.207102	-0.098560	0.414606
H100	H	2.658285	-0.095818	-0.002829
H101	H	1.960421	-0.706942	0.204340
H102	H	2.751340	0.141626	0.204181
Br103	Br	2.651730	-0.094367	-0.156998
H104	H	2.530634	-0.113086	0.427569
H105	H	2.763638	0.293043	0.204320
H106	H	2.427246	-0.104013	-0.194927
H107	H	1.614152	-0.335754	0.207856
Br108	Br	2.613400	0.406702	0.210800
Br109	Br	2.397427	0.298736	0.218977
Br110	Br	2.490450	-0.330090	0.222506
H111	H	2.560281	-0.112439	0.559957
Br112	Br	1.877587	-0.878814	0.202264
H113	H	2.431179	0.126845	0.216920
Br114	Br	2.132520	-0.000342	0.789126
H115	H	2.253877	-0.873172	0.216917
Br116	Br	2.451518	-0.526837	0.222298
H117	H	2.338245	-0.110328	0.010184
H118	H	2.060241	-0.112473	0.559985
Br119	Br	2.094042	-0.001158	0.617099
Br120	Br	2.175296	-0.113243	0.859913
H121	H	2.413352	-0.104855	0.619691
H122	H	2.283838	-0.721750	0.217069
H123	H	1.837408	-0.095809	0.997185
Br124	Br	2.213771	-0.112418	1.031937
Br125	Br	1.692742	-0.095667	0.564853
H126	H	1.807791	-0.096443	0.864783
H127	H	1.707098	-0.098545	0.414581
Br128	Br	1.774001	-0.207775	0.807662
