data_functionalizedCrystal
_audit_creation_method	'MofGen! by Chris Wilmer'
_symmetry_space_group_name_H-M	'P1'
_symmetry_Int_Tables_number	1
_symmetry_cell_setting	triclinic
loop_
_symmetry_equiv_pos_as_xyz
  x,y,z
_cell_length_a	18.215407
_cell_length_b	18.215405
_cell_length_c	18.215398
_cell_angle_alpha	89.976051
_cell_angle_beta	90.017408
_cell_angle_gamma	89.982358
loop_
_atom_site_label
_atom_site_type_symbol
_atom_site_fract_x
_atom_site_fract_y
_atom_site_fract_z
Zn1	Zn	-1.125084	-0.293096	-0.416083
Zn2	Zn	-0.875084	-0.043096	-0.166083
Zn3	Zn	-0.625084	0.206904	0.083917
Zn4	Zn	-0.375084	0.456904	0.333917
Zn5	Zn	-1.124999	-0.416162	-0.293020
Zn6	Zn	-0.874999	-0.166162	-0.043020
Zn7	Zn	-0.624999	0.083838	0.206980
Zn8	Zn	-0.374999	0.333838	0.456980
Zn9	Zn	-1.002017	-0.293104	-0.293035
Zn10	Zn	-0.752017	-0.043104	-0.043035
Zn11	Zn	-0.502017	0.206896	0.206965
Zn12	Zn	-0.252017	0.456896	0.456965
Zn13	Zn	-1.001988	-0.416116	-0.416049
Zn14	Zn	-0.751988	-0.166116	-0.166049
Zn15	Zn	-0.501988	0.083884	0.083951
Zn16	Zn	-0.251988	0.333884	0.333951
O17	O	-1.063522	-0.354620	-0.354547
O18	O	-0.813522	-0.104620	-0.104547
O19	O	-0.563522	0.145380	0.145453
O20	O	-0.313522	0.395380	0.395453
O21	O	-1.228057	-0.309437	-0.399766
O22	O	-0.978057	-0.059437	-0.149766
O23	O	-0.728057	0.190563	0.100234
O24	O	-0.478057	0.440563	0.350234
O25	O	-1.108662	-0.399861	-0.190038
O26	O	-0.858662	-0.149861	0.059962
O27	O	-0.608662	0.100139	0.309962
O28	O	-0.358662	0.350139	0.559962
O29	O	-1.018390	-0.190119	-0.309378
O30	O	-0.768390	0.059881	-0.059378
O31	O	-0.518390	0.309881	0.190622
O32	O	-0.268390	0.559881	0.440622
O33	O	-1.227995	-0.399853	-0.309352
O34	O	-0.977995	-0.149853	-0.059352
O35	O	-0.727995	0.100147	0.190648
O36	O	-0.477995	0.350147	0.440648
O37	O	-1.108806	-0.190113	-0.399781
O38	O	-0.858806	0.059887	-0.149781
O39	O	-0.608806	0.309887	0.100219
O40	O	-0.358806	0.559887	0.350219
O41	O	-1.018308	-0.309451	-0.190049
O42	O	-0.768308	-0.059451	0.059951
O43	O	-0.518308	0.190549	0.309951
O44	O	-0.268308	0.440549	0.559951
O45	O	-0.899029	-0.309406	-0.309345
O46	O	-0.649029	-0.059406	-0.059345
O47	O	-0.399029	0.190594	0.190655
O48	O	-0.149029	0.440594	0.440655
O49	O	-1.018341	-0.399775	-0.519038
O50	O	-0.768341	-0.149775	-0.269038
O51	O	-0.518341	0.100225	-0.019038
O52	O	-0.268341	0.350225	0.230962
O53	O	-0.899008	-0.399783	-0.399723
O54	O	-0.649008	-0.149783	-0.149723
O55	O	-0.399008	0.100217	0.100277
O56	O	-0.149008	0.350217	0.350277
O57	O	-1.108778	-0.309392	-0.519063
O58	O	-0.858778	-0.059392	-0.269063
O59	O	-0.608778	0.190608	-0.019063
O60	O	-0.358778	0.440608	0.230937
O61	O	-1.108634	-0.519140	-0.309320
O62	O	-0.858634	-0.269140	-0.059320
O63	O	-0.608634	-0.019140	0.190680
O64	O	-0.358634	0.230860	0.440680
O65	O	-1.018259	-0.519106	-0.399709
O66	O	-0.768259	-0.269106	-0.149709
O67	O	-0.518259	-0.019106	0.100291
O68	O	-0.268259	0.230894	0.350291
C69	C	-0.872316	-0.354591	-0.354532
C70	C	-0.622316	-0.104591	-0.104532
C71	C	-0.372316	0.145409	0.145468
C72	C	-0.122316	0.395409	0.395468
C73	C	-0.790517	-0.354596	-0.354544
C74	C	-0.540517	-0.104596	-0.104544
C75	C	-0.290517	0.145404	0.145456
C76	C	-0.040517	0.395404	0.395456
C77	C	-0.602354	-0.307608	-0.401695
C78	C	-0.352354	-0.057608	-0.151695
C79	C	-0.102354	0.192392	0.098305
C80	C	0.147646	0.442392	0.348305
C81	C	-0.525496	-0.307612	-0.401697
C82	C	-0.275496	-0.057612	-0.151697
C83	C	-0.025496	0.192388	0.098303
C84	C	0.224504	0.442388	0.348303
C85	C	-0.525442	-0.401620	-0.307404
C86	C	-0.275442	-0.151620	-0.057404
C87	C	-0.025442	0.098380	0.192596
C88	C	0.224558	0.348380	0.442596
C89	C	-0.602299	-0.401612	-0.307399
C90	C	-0.352299	-0.151612	-0.057399
C91	C	-0.102299	0.098388	0.192601
C92	C	0.147701	0.348388	0.442601
C93	C	-0.640754	-0.354607	-0.354549
C94	C	-0.390754	-0.104607	-0.104549
C95	C	-0.140754	0.145393	0.145451
C96	C	0.109246	0.395393	0.395451
C97	C	-0.487037	-0.354619	-0.354556
C98	C	-0.237037	-0.104619	-0.104556
C99	C	0.012963	0.145381	0.145444
C100	C	0.262963	0.395381	0.395444
C101	C	-0.403704	-0.354624	-0.354557
C102	C	-0.153704	-0.104624	-0.104557
C103	C	0.096296	0.145376	0.145443
C104	C	0.346296	0.395376	0.395443
C105	C	-0.724093	-0.354601	-0.354546
C106	C	-0.474093	-0.104601	-0.104546
C107	C	-0.224093	0.145399	0.145454
C108	C	0.025907	0.395399	0.395454
C109	C	-1.063454	-0.545826	-0.354525
C110	C	-0.813454	-0.295826	-0.104525
C111	C	-0.563454	-0.045826	0.145475
C112	C	-0.313454	0.204174	0.395475
C113	C	-1.063492	-0.627625	-0.354540
C114	C	-0.813492	-0.377625	-0.104540
C115	C	-0.563492	-0.127625	0.145460
C116	C	-0.313492	0.122375	0.395460
C117	C	-1.063566	-0.354577	-0.546500
C118	C	-0.813566	-0.104577	-0.296500
C119	C	-0.563566	0.145423	-0.046500
C120	C	-0.313566	0.395423	0.203500
C121	C	-1.063584	-0.354559	-0.628299
C122	C	-0.813584	-0.104559	-0.378299
C123	C	-0.563584	0.145441	-0.128299
C124	C	-0.313584	0.395441	0.121701
C125	C	-0.255475	-0.354641	-0.354560
C126	C	-0.005475	-0.104641	-0.104560
C127	C	0.244525	0.145359	0.145440
C128	C	0.494525	0.395359	0.395440
C129	C	-0.337274	-0.354630	-0.354561
C130	C	-0.087274	-0.104630	-0.104561
C131	C	0.162726	0.145370	0.145439
C132	C	0.412726	0.395370	0.395439
C133	C	-1.110616	-0.892622	-0.401685
C134	C	-0.860616	-0.642622	-0.151685
C135	C	-0.610616	-0.392622	0.098315
C136	C	-0.360616	-0.142622	0.348315
C137	C	-1.110591	-0.815763	-0.401674
C138	C	-0.860591	-0.565763	-0.151674
C139	C	-0.610591	-0.315763	0.098326
C140	C	-0.360591	-0.065763	0.348326
C141	C	-1.016523	-0.815877	-0.307451
C142	C	-0.766523	-0.565877	-0.057451
C143	C	-0.516523	-0.315877	0.192549
C144	C	-0.266523	-0.065877	0.442549
C145	C	-1.016551	-0.892734	-0.307459
C146	C	-0.766551	-0.642734	-0.057459
C147	C	-0.516551	-0.392734	0.192541
C148	C	-0.266551	-0.142734	0.442541
C149	C	-1.063597	-0.931104	-0.354580
C150	C	-0.813597	-0.681104	-0.104580
C151	C	-0.563597	-0.431104	0.145420
C152	C	-0.313597	-0.181104	0.395420
C153	C	-1.063543	-0.777388	-0.354561
C154	C	-0.813543	-0.527388	-0.104561
C155	C	-0.563543	-0.277388	0.145439
C156	C	-0.313543	-0.027388	0.395439
C157	C	-1.063516	-0.694055	-0.354548
C158	C	-0.813516	-0.444055	-0.104548
C159	C	-0.563516	-0.194055	0.145452
C160	C	-0.313516	0.055945	0.395452
C161	C	-1.063625	-1.014443	-0.354592
C162	C	-0.813625	-0.764443	-0.104592
C163	C	-0.563625	-0.514443	0.145408
C164	C	-0.313625	-0.264443	0.395408
C165	C	-1.063611	-0.162667	-0.354585
C166	C	-0.813611	0.087333	-0.104585
C167	C	-0.563611	0.337333	0.145415
C168	C	-0.313611	0.587333	0.395415
C169	C	-1.063648	-0.080868	-0.354601
C170	C	-0.813648	0.169132	-0.104601
C171	C	-0.563648	0.419132	0.145399
C172	C	-0.313648	0.669132	0.395399
C173	C	-1.110665	-0.401545	-0.893355
C174	C	-0.860665	-0.151545	-0.643355
C175	C	-0.610665	0.098455	-0.393355
C176	C	-0.360665	0.348455	-0.143355
C177	C	-1.110654	-0.401570	-0.816496
C178	C	-0.860654	-0.151570	-0.566496
C179	C	-0.610654	0.098430	-0.316496
C180	C	-0.360654	0.348430	-0.066496
C181	C	-1.016559	-0.307432	-0.816491
C182	C	-0.766559	-0.057432	-0.566491
C183	C	-0.516559	0.192568	-0.316491
C184	C	-0.266559	0.442568	-0.066491
C185	C	-1.016567	-0.307411	-0.893348
C186	C	-0.766567	-0.057411	-0.643348
C187	C	-0.516567	0.192589	-0.393348
C188	C	-0.266567	0.442589	-0.143348
C189	C	-1.063624	-0.354466	-0.931778
C190	C	-0.813624	-0.104466	-0.681778
C191	C	-0.563624	0.145534	-0.431778
C192	C	-0.313624	0.395534	-0.181778
C193	C	-1.063605	-0.354513	-0.778062
C194	C	-0.813605	-0.104513	-0.528062
C195	C	-0.563605	0.145487	-0.278062
C196	C	-0.313605	0.395487	-0.028062
C197	C	-1.063593	-0.354540	-0.694729
C198	C	-0.813593	-0.104540	-0.444729
C199	C	-0.563593	0.145460	-0.194729
C200	C	-0.313593	0.395460	0.055271
C201	C	-1.063636	-0.354440	-1.015117
C202	C	-0.813636	-0.104440	-0.765117
C203	C	-0.563636	0.145560	-0.515117
C204	C	-0.313636	0.395560	-0.265117
C205	C	-1.063521	-0.354609	-0.163340
C206	C	-0.813521	-0.104609	0.086660
C207	C	-0.563521	0.145391	0.336660
C208	C	-0.313521	0.395391	0.586660
C209	C	-1.063645	-0.354419	-0.081542
C210	C	-0.813645	-0.104419	0.168458
C211	C	-0.563645	0.145581	0.418458
C212	C	-0.313645	0.395581	0.668458
H213	H	-0.633565	-0.439886	-0.269002
H214	H	-0.383565	-0.189886	-0.019002
H215	H	-0.133565	0.060114	0.230998
H216	H	0.116435	0.310114	0.480998
C217	C	-1.162368	-0.934830	-0.453509
C218	C	-0.912368	-0.684830	-0.203509
C219	C	-0.662368	-0.434830	0.046491
C220	C	-0.412368	-0.184830	0.296491
H221	H	-1.155648	-0.986116	-0.446774
H222	H	-0.905648	-0.736116	-0.196774
H223	H	-0.655648	-0.486116	0.053226
H224	H	-0.405648	-0.236116	0.303226
H225	H	-1.211816	-0.922206	-0.442784
H226	H	-0.961816	-0.672206	-0.192784
H227	H	-0.711816	-0.422206	0.057216
H228	H	-0.461816	-0.172206	0.307216
H229	H	-1.151556	-0.922215	-0.502947
H230	H	-0.901556	-0.672215	-0.252947
H231	H	-0.651556	-0.422215	-0.002947
H232	H	-0.401556	-0.172215	0.247053
C233	C	-1.162309	-0.773431	-0.453489
C234	C	-0.912309	-0.523431	-0.203489
C235	C	-0.662309	-0.273431	0.046511
C236	C	-0.412309	-0.023431	0.296511
H237	H	-1.155562	-0.722162	-0.446732
H238	H	-0.905562	-0.472162	-0.196732
H239	H	-0.655562	-0.222162	0.053268
H240	H	-0.405562	0.027838	0.303268
H241	H	-1.151511	-0.786007	-0.502927
H242	H	-0.901511	-0.536007	-0.252927
H243	H	-0.651511	-0.286007	-0.002927
H244	H	-0.401511	-0.036007	0.247073
H245	H	-1.211770	-0.786002	-0.442764
H246	H	-0.961770	-0.536002	-0.192764
H247	H	-0.711770	-0.286002	0.057236
H248	H	-0.461770	-0.036002	0.307236
H249	H	-0.978257	-0.269072	-0.924633
H250	H	-0.728257	-0.019072	-0.674633
H251	H	-0.478257	0.230928	-0.424633
H252	H	-0.228257	0.480928	-0.174633
H253	H	-0.978218	-0.784628	-0.269087
H254	H	-0.728218	-0.534628	-0.019087
H255	H	-0.478218	-0.284628	0.230913
H256	H	-0.228218	-0.034628	0.480913
H257	H	-0.978262	-0.924067	-0.269097
H258	H	-0.728262	-0.674067	-0.019097
H259	H	-0.478262	-0.424067	0.230903
H260	H	-0.228262	-0.174067	0.480903
C261	C	-1.162398	-0.453356	-0.774230
C262	C	-0.912398	-0.203356	-0.524230
C263	C	-0.662398	0.046644	-0.274230
C264	C	-0.412398	0.296644	-0.024230
H265	H	-1.155650	-0.446637	-0.722952
H266	H	-0.905650	-0.196637	-0.472952
H267	H	-0.655650	0.053363	-0.222952
H268	H	-0.405650	0.303363	0.027048
H269	H	-1.211851	-0.442587	-0.786835
H270	H	-0.961851	-0.192587	-0.536835
H271	H	-0.711851	0.057413	-0.286835
H272	H	-0.461851	0.307413	-0.036835
H273	H	-1.151604	-0.502800	-0.786821
H274	H	-0.901604	-0.252800	-0.536821
H275	H	-0.651604	-0.002800	-0.286821
H276	H	-0.401604	0.247200	-0.036821
H277	H	-1.148982	-0.439861	-0.924643
H278	H	-0.898982	-0.189861	-0.674643
H279	H	-0.648982	0.060139	-0.424643
H280	H	-0.398982	0.310139	-0.174643
C281	C	-0.483260	-0.255916	-0.453562
C282	C	-0.233260	-0.005916	-0.203562
C283	C	0.016740	0.244084	0.046438
C284	C	0.266740	0.494084	0.296438
H285	H	-0.517172	-0.227927	-0.481644
H286	H	-0.267172	0.022073	-0.231644
H287	H	-0.017172	0.272073	0.018356
H288	H	0.232828	0.522073	0.268356
H289	H	-0.453274	-0.223815	-0.425471
H290	H	-0.203274	0.026185	-0.175471
H291	H	0.046726	0.276185	0.074529
H292	H	0.296726	0.526185	0.324529
H293	H	-0.453284	-0.284119	-0.485583
H294	H	-0.203284	-0.034119	-0.235583
H295	H	0.046716	0.215881	0.014417
H296	H	0.296716	0.465881	0.264417
H297	H	-0.633662	-0.269331	-0.440086
H298	H	-0.383662	-0.019331	-0.190086
H299	H	-0.133662	0.230669	0.059914
H300	H	0.116338	0.480669	0.309914
C301	C	-0.964807	-0.255668	-0.774216
C302	C	-0.714807	-0.005668	-0.524216
C303	C	-0.464807	0.244332	-0.274216
C304	C	-0.214807	0.494332	-0.024216
H305	H	-0.971545	-0.262417	-0.722939
H306	H	-0.721545	-0.012417	-0.472939
H307	H	-0.471545	0.237583	-0.222939
H308	H	-0.221545	0.487583	0.027061
H309	H	-0.915356	-0.266427	-0.786798
H310	H	-0.665356	-0.016427	-0.536798
H311	H	-0.415356	0.233573	-0.286798
H312	H	-0.165356	0.483573	-0.036798
H313	H	-0.975606	-0.206217	-0.786823
H314	H	-0.725606	0.043783	-0.536823
H315	H	-0.475606	0.293783	-0.286823
H316	H	-0.225606	0.543783	-0.036823
H317	H	-0.494123	-0.439891	-0.269017
H318	H	-0.244123	-0.189891	-0.019017
H319	H	0.005877	0.060109	0.230983
H320	H	0.255877	0.310109	0.480983
