data_functionalizedCrystal
_audit_creation_method	'MofGen! by Chris Wilmer'
_symmetry_space_group_name_H-M	'P1'
_symmetry_Int_Tables_number	1
_symmetry_cell_setting	triclinic
loop_
_symmetry_equiv_pos_as_xyz
  x,y,z
_cell_length_a	10.654554
_cell_length_b	19.188924
_cell_length_c	9.130313
_cell_angle_alpha	89.996698
_cell_angle_beta	89.998999
_cell_angle_gamma	83.814403
loop_
_atom_site_label
_atom_site_type_symbol
_atom_site_fract_x
_atom_site_fract_y
_atom_site_fract_z
O1	O	1.665751	0.098075	-0.121833
O2	O	1.300075	0.107414	-0.121831
O3	O	1.493470	0.001158	-0.121815
O4	O	1.472356	0.204331	-0.121849
O5	O	1.493468	0.001160	0.121784
O6	O	1.300073	0.107417	0.121768
O7	O	1.665749	0.098078	0.121766
Cu8	Cu	1.482910	0.102748	0.144010
Cu9	Cu	1.482913	0.102744	-0.144074
O10	O	1.472354	0.204334	0.121750
C11	C	1.253291	0.106729	-0.000031
C12	C	1.113891	0.104675	-0.000029
C13	C	0.932738	0.038251	-0.000037
C14	C	1.063719	0.040181	-0.000023
C15	C	1.033075	0.167245	-0.000036
C16	C	0.902097	0.165315	-0.000040
C17	C	0.950431	-0.035108	-0.000036
C18	C	1.081411	-0.033179	-0.000021
C19	C	1.492787	-0.024857	-0.000014
C20	C	1.490738	-0.102375	-0.000010
C21	C	1.489784	-0.138781	-0.132796
C22	C	1.487842	-0.211617	-0.132807
C23	C	1.486879	-0.248045	-0.000025
C24	C	1.487827	-0.211629	0.132779
C25	C	1.489756	-0.138794	0.132786
N26	N	1.555311	-0.367258	0.098802
N27	N	1.553480	-0.436449	0.098786
C28	C	1.481062	-0.467492	-0.000039
N29	N	1.410560	-0.426732	-0.098869
N30	N	1.412396	-0.357536	-0.098857
C31	C	1.484786	-0.327022	-0.000018
C32	C	1.478000	-0.582875	-0.132846
C33	C	1.476050	-0.655711	-0.132852
C34	C	1.476048	-0.655722	0.132738
C35	C	1.477985	-0.582887	0.132740
C36	C	1.478967	-0.546468	-0.000056
C37	C	1.712533	0.098763	-0.000037
C38	C	1.851932	0.100816	-0.000048
C39	C	1.473037	0.230348	-0.000054
C40	C	1.475085	0.307866	-0.000068
N41	N	1.482918	0.102749	0.346632
N42	N	1.482916	0.102737	-0.346697
C43	C	1.568574	0.055715	0.423291
C44	C	1.568571	0.055707	0.576628
C45	C	1.397250	0.149773	0.576633
C46	C	1.397248	0.149778	0.423299
C47	C	1.667489	0.001409	0.423290
C48	C	1.667486	0.001400	0.576626
H49	H	1.073936	0.219758	-0.000028
H50	H	1.638048	-0.049312	0.624182
H51	H	1.127519	-0.055346	0.105167
Cl52	Cl	1.479224	-0.537087	-0.299786
Cl53	Cl	1.636139	-0.081441	0.359034
Cl54	Cl	1.486641	-0.257395	-0.299751
H55	H	1.123756	-0.060818	-0.101964
Cl56	Cl	0.896178	-0.071173	-0.162421
H57	H	1.490529	-0.109151	0.240920
Cl58	Cl	1.486607	-0.257422	0.299706
H59	H	1.327489	0.188070	0.360885
H60	H	1.490580	-0.109133	-0.240929
Cl61	Cl	1.474840	-0.701480	-0.299799
H62	H	1.475254	-0.685380	0.240853
Cl63	Cl	1.479185	-0.537115	0.299681
H64	H	1.327500	0.188062	0.639072
H65	H	1.763744	0.013364	0.618240
Cl66	Cl	0.800516	0.243971	-0.000032
Cl67	Cl	0.906023	-0.079401	0.157353
H68	H	1.758312	0.018414	0.375727
