data_functionalizedCrystal
_audit_creation_method	'MofGen! by Chris Wilmer'
_symmetry_space_group_name_H-M	'P1'
_symmetry_Int_Tables_number	1
_symmetry_cell_setting	triclinic
loop_
_symmetry_equiv_pos_as_xyz
  x,y,z
_cell_length_a	12.759400
_cell_length_b	12.759401
_cell_length_c	12.759393
_cell_angle_alpha	90.019814
_cell_angle_beta	89.970610
_cell_angle_gamma	89.983791
loop_
_atom_site_label
_atom_site_type_symbol
_atom_site_fract_x
_atom_site_fract_y
_atom_site_fract_z
Zn1	Zn	-0.418184	-1.606255	-0.594020
Zn2	Zn	-0.593896	-1.606149	-0.418340
Zn3	Zn	-0.418237	-1.430557	-0.418355
Zn4	Zn	-0.593826	-1.430545	-0.593978
O5	O	-0.506036	-1.518377	-0.506173
O6	O	-0.441500	-1.753262	-0.570727
O7	O	-0.570646	-1.582817	-0.271321
O8	O	-0.271209	-1.453913	-0.441682
O9	O	-0.570595	-1.753184	-0.441656
O10	O	-0.271170	-1.582997	-0.570742
O11	O	-0.441590	-1.453810	-0.271332
O12	O	-0.441522	-1.283534	-0.441640
O13	O	-0.570476	-1.453893	-0.741004
O14	O	-0.570527	-1.283526	-0.570669
O15	O	-0.441432	-1.582986	-0.741036
O16	O	-0.740908	-1.582806	-0.441615
O17	O	-0.740857	-1.453791	-0.570655
C18	C	-0.506023	-1.245409	-0.506152
C19	C	-0.506043	-1.128633	-0.506168
C20	C	-0.779003	-1.518314	-0.506151
C21	C	-0.895780	-1.518384	-0.506177
C22	C	-0.505940	-1.518450	-0.780207
C23	C	-0.505899	-1.518481	-0.896984
C24	C	-0.950634	-1.585637	-0.439060
C25	C	-1.060358	-1.585701	-0.439093
C26	C	-1.060364	-1.451251	-0.573362
C27	C	-0.950642	-1.451192	-0.573334
C28	C	-0.895771	-1.652828	-0.371904
C29	C	-0.950625	-1.720085	-0.304781
C30	C	-1.060349	-1.720150	-0.304813
C31	C	-1.115219	-1.652957	-0.371969
C32	C	-0.232003	-1.518468	-0.506218
C33	C	-0.115226	-1.518507	-0.506237
C34	C	-0.506049	-1.792410	-0.506195
C35	C	-0.506055	-1.909187	-0.506204
C36	C	-0.573318	-1.073794	-0.573248
C37	C	-0.573322	-0.964070	-0.573269
C38	C	-0.438773	-0.964033	-0.439122
C39	C	-0.438764	-1.073755	-0.439107
C40	C	-0.611023	-0.814171	-0.697129
C41	C	-0.678314	-0.759329	-0.764200
C42	C	-0.780845	-0.794926	-0.780148
C43	C	-0.816106	-0.885364	-0.729010
C44	C	-0.748820	-0.940201	-0.661932
C45	C	-0.646274	-0.904606	-0.646004
C46	C	-0.401074	-1.223656	-0.315245
C47	C	-0.333793	-1.278494	-0.248161
C48	C	-0.231260	-1.242899	-0.232202
C49	C	-0.196003	-1.152457	-0.283321
C50	C	-0.263285	-1.097618	-0.350406
C51	C	-0.365816	-1.133221	-0.366366
C52	C	-0.573069	-1.585659	-0.951844
C53	C	-0.573017	-1.585689	-1.061568
C54	C	-0.438623	-1.451356	-1.061562
C55	C	-0.438670	-1.451331	-0.951840
C56	C	-0.610499	-1.709615	-1.211530
C57	C	-0.677685	-1.776783	-1.266394
C58	C	-0.780216	-1.792870	-1.230777
C59	C	-0.815582	-1.741772	-1.140298
C60	C	-0.748401	-1.674597	-1.085439
C61	C	-0.645855	-1.658530	-1.121055
C62	C	-0.401199	-1.327404	-0.801876
C63	C	-0.334023	-1.260222	-0.747016
C64	C	-0.231491	-1.244125	-0.782631
C65	C	-0.196129	-1.295204	-0.873113
C66	C	-0.263305	-1.362386	-0.927973
C67	C	-0.365837	-1.378484	-0.892351
C68	C	-0.506055	-1.518364	-0.233206
C69	C	-0.505800	-1.518536	-0.116430
H70	H	-0.806429	-1.652780	-0.371867
C71	C	-0.854864	-0.734611	-0.853929
H72	H	-0.920983	-0.768759	-0.856099
H73	H	-0.825585	-0.732799	-0.922370
H74	H	-0.863698	-0.665061	-0.828825
H75	H	-0.234499	-1.403990	-1.001640
C76	C	-0.083216	-1.113300	-0.265774
H77	H	-0.048192	-1.158918	-0.218509
H78	H	-0.084990	-1.044555	-0.237222
H79	H	-0.046876	-1.112289	-0.330769
H80	H	-0.899078	-1.754865	-1.111313
H81	H	-0.112638	-1.282097	-0.902112
H82	H	-0.649595	-0.685694	-0.805837
H83	H	-0.905945	-1.774798	-0.250111
C84	C	-0.157600	-1.170221	-0.722287
H85	H	-0.193341	-1.142101	-0.663298
H86	H	-0.136032	-1.114749	-0.766998
H87	H	-0.097846	-1.208232	-0.699323
H88	H	-0.627802	-1.640346	-0.907183
C89	C	-1.120686	-1.794129	-0.230984
H90	H	-1.072294	-1.834129	-0.190982
H91	H	-1.163420	-1.839912	-0.271219
H92	H	-1.163556	-1.753977	-0.185182
C93	C	-0.787290	-1.618397	-0.985920
H94	H	-0.857978	-1.637598	-0.972560
H95	H	-0.783031	-1.544723	-0.995725
H96	H	-0.744857	-1.638221	-0.928064
H97	H	-0.834922	-1.847553	-1.275460
H98	H	-0.383999	-0.919338	-0.384521
H99	H	-0.527007	-1.696534	-1.240531
H100	H	-1.204564	-1.653023	-0.371998
C101	C	-0.928895	-0.924513	-0.746549
H102	H	-0.963915	-0.878907	-0.793828
H103	H	-0.965232	-0.925526	-0.681559
H104	H	-0.927119	-0.993263	-0.775104
H105	H	-0.383889	-1.396684	-1.106240
H106	H	-0.176484	-1.287554	-0.177567
C107	C	-0.513984	-1.345123	-0.762692
H108	H	-0.548921	-1.392462	-0.808314
H109	H	-0.550409	-1.280191	-0.761626
H110	H	-0.512197	-1.373670	-0.693961
C111	C	-0.372923	-1.204028	-0.647491
H112	H	-0.443607	-1.223243	-0.634127
H113	H	-0.368682	-1.130354	-0.657304
H114	H	-0.330484	-1.223836	-0.589635
H115	H	-0.905980	-1.396430	-0.627988
C116	C	-1.120719	-1.377338	-0.647217
H117	H	-1.193921	-1.386998	-0.637613
H118	H	-1.102674	-1.392662	-0.717818
H119	H	-1.102805	-1.306743	-0.631765
C120	C	-0.638782	-1.832995	-1.365908
H121	H	-0.568086	-1.813813	-1.379255
H122	H	-0.681206	-1.813187	-1.423768
H123	H	-0.643041	-1.906672	-1.356084
H124	H	-0.628098	-1.118472	-0.627857
H125	H	-0.777529	-1.013834	-0.620296
H126	H	-0.527530	-0.785186	-0.684161
C127	C	-0.224500	-0.998140	-0.406646
H128	H	-0.153795	-0.984795	-0.387543
H129	H	-0.266941	-0.940261	-0.386782
H130	H	-0.228821	-1.008004	-0.480319
H131	H	-0.362508	-1.352137	-0.206536
H132	H	-0.484562	-1.252653	-0.328242
