data_functionalizedCrystal
_audit_creation_method	'MofGen! by Chris Wilmer'
_symmetry_space_group_name_H-M	'P1'
_symmetry_Int_Tables_number	1
_symmetry_cell_setting	triclinic
loop_
_symmetry_equiv_pos_as_xyz
  x,y,z
_cell_length_a	19.288864
_cell_length_b	19.288857
_cell_length_c	18.366186
_cell_angle_alpha	89.991598
_cell_angle_beta	89.977106
_cell_angle_gamma	83.134677
loop_
_atom_site_label
_atom_site_type_symbol
_atom_site_fract_x
_atom_site_fract_y
_atom_site_fract_z
O1	O	0.921350	0.086649	-0.060787
O2	O	1.254684	0.419982	0.272547
O3	O	1.588017	0.753316	0.605880
O4	O	0.719089	0.098338	-0.060737
O5	O	1.052423	0.431671	0.272596
O6	O	1.385756	0.765004	0.605929
O7	O	0.826067	-0.008637	-0.060755
O8	O	1.159400	0.324696	0.272579
O9	O	1.492734	0.658029	0.605912
O10	O	0.814373	0.193624	-0.060769
O11	O	1.147706	0.526957	0.272564
O12	O	1.481039	0.860291	0.605897
O13	O	0.826049	-0.008643	0.060345
O14	O	1.159382	0.324691	0.393678
O15	O	1.492716	0.658024	0.727011
O16	O	0.719071	0.098333	0.060362
O17	O	1.052405	0.431666	0.393696
O18	O	1.385738	0.764999	0.727029
O19	O	0.921332	0.086644	0.060313
O20	O	1.254666	0.419977	0.393646
O21	O	1.587999	0.753310	0.726980
Zn22	Zn	0.820199	0.092487	0.079565
Zn23	Zn	1.153532	0.425821	0.412898
Zn24	Zn	1.486866	0.759154	0.746231
Zn25	Zn	0.820223	0.092494	-0.079989
Zn26	Zn	1.153556	0.425828	0.253344
Zn27	Zn	1.486889	0.759161	0.586678
O28	O	0.814355	0.193619	0.060330
O29	O	1.147688	0.526952	0.393664
O30	O	1.481021	0.860285	0.726997
C31	C	0.825683	-0.034516	-0.000204
C32	C	1.159016	0.298817	0.333129
C33	C	1.492349	0.632150	0.666463
C34	C	0.824556	-0.111620	-0.000202
C35	C	1.157889	0.221713	0.333132
C36	C	1.491222	0.555046	0.666465
C37	C	0.693204	0.097959	-0.000181
C38	C	1.026537	0.431292	0.333152
C39	C	1.359871	0.764626	0.666486
C40	C	0.616100	0.096830	-0.000162
C41	C	0.949434	0.430163	0.333171
C42	C	1.282767	0.763497	0.666505
C43	C	0.824040	-0.147828	-0.066213
C44	C	1.157373	0.185505	0.267120
C45	C	1.490706	0.518839	0.600454
C46	C	0.822971	-0.220274	-0.066218
C47	C	1.156304	0.113059	0.267115
C48	C	1.489638	0.446393	0.600449
C49	C	0.822432	-0.256511	-0.000208
C50	C	1.155766	0.076822	0.333125
C51	C	1.489099	0.410155	0.666458
C52	C	0.822945	-0.220294	0.065812
C53	C	1.156278	0.113039	0.399145
C54	C	1.489611	0.446372	0.732478
C55	C	0.824006	-0.147849	0.065815
C56	C	1.157340	0.185484	0.399148
C57	C	1.490673	0.518818	0.732482
C58	C	0.861426	-0.376745	0.050350
C59	C	1.194760	-0.043412	0.383683
C60	C	1.528093	0.289922	0.717016
C61	C	0.860369	-0.449190	0.050344
C62	C	1.193702	-0.115857	0.383677
C63	C	1.527036	0.217477	0.717010
C64	C	0.819155	-0.479957	-0.000216
C65	C	1.152488	-0.146624	0.333118
C66	C	1.485821	0.186709	0.666451
C67	C	0.779007	-0.438272	-0.050781
C68	C	1.112340	-0.104939	0.282552
C69	C	1.445673	0.228394	0.615885
C70	C	0.780068	-0.365827	-0.050778
C71	C	1.113402	-0.032493	0.282555
C72	C	1.446735	0.300840	0.615889
C73	C	0.821281	-0.335066	-0.000205
C74	C	1.154614	-0.001733	0.333129
C75	C	1.487947	0.331600	0.666462
C76	C	0.817479	-0.594719	-0.066237
C77	C	1.150812	-0.261386	0.267096
C78	C	1.484145	0.071947	0.600430
C79	C	0.816406	-0.667166	-0.066240
C80	C	1.149739	-0.333833	0.267094
C81	C	1.483072	-0.000499	0.600427
C82	C	0.816386	-0.667186	0.065792
C83	C	1.149720	-0.333852	0.399126
C84	C	1.483053	-0.000519	0.732459
C85	C	0.817452	-0.594740	0.065793
C86	C	1.150786	-0.261406	0.399126
C87	C	1.484119	0.071927	0.732459
C88	C	0.818002	-0.558511	-0.000224
C89	C	1.151335	-0.225178	0.333109
C90	C	1.484668	0.108156	0.666443
C91	C	0.571402	0.159598	-0.000178
C92	C	0.904736	0.492931	0.333155
C93	C	1.238069	0.826265	0.666489
C94	C	0.498955	0.158537	-0.000186
C95	C	0.832289	0.491871	0.333147
C96	C	1.165622	0.825204	0.666481
C97	C	0.471210	0.094705	-0.000193
C98	C	0.804543	0.428038	0.333141
C99	C	1.137876	0.761372	0.666474
C100	C	0.515917	0.031929	-0.000172
C101	C	0.849251	0.365262	0.333161
C102	C	1.182584	0.698595	0.666494
C103	C	0.588363	0.032991	-0.000157
C104	C	0.921696	0.366325	0.333176
C105	C	1.255029	0.699658	0.666510
C106	C	0.362955	0.044528	-0.042640
C107	C	0.696289	0.377861	0.290693
C108	C	1.029622	0.711194	0.624027
C109	C	0.290511	0.043468	-0.042660
C110	C	0.623844	0.376801	0.290674
C111	C	0.957177	0.710134	0.624007
C112	C	0.247764	0.091425	-0.000236
C113	C	0.581097	0.424759	0.333097
C114	C	0.914431	0.758092	0.666430
C115	C	0.277469	0.140455	0.042197
C116	C	0.610802	0.473788	0.375531
C117	C	0.944136	0.807121	0.708864
C118	C	0.349914	0.141517	0.042213
C119	C	0.683248	0.474851	0.375546
C120	C	1.016581	0.808184	0.708879
C121	C	0.392656	0.093546	-0.000209
C122	C	0.725989	0.426879	0.333125
C123	C	1.059322	0.760213	0.666458
C124	C	0.124510	0.153048	-0.000260
C125	C	0.457843	0.486381	0.333073
C126	C	0.791177	0.819714	0.666407
C127	C	0.052062	0.151984	-0.000263
C128	C	0.385395	0.485318	0.333070
C129	C	0.718729	0.818651	0.666403
C130	C	0.069026	0.025374	-0.000257
C131	C	0.402359	0.358707	0.333076
C132	C	0.735692	0.692041	0.666409
C133	C	0.141472	0.026439	-0.000246
C134	C	0.474805	0.359772	0.333087
C135	C	0.808139	0.693106	0.666420
C136	C	0.169210	0.090278	-0.000251
C137	C	0.502543	0.423611	0.333082
C138	C	0.835876	0.756945	0.666415
C139	C	0.947218	0.087022	-0.000245
C140	C	1.280551	0.420356	0.333088
C141	C	1.613884	0.753689	0.666422
C142	C	1.024321	0.088151	-0.000269
C143	C	1.357655	0.421485	0.333065
C144	C	1.690988	0.754818	0.666398
C145	C	0.814739	0.219498	-0.000222
C146	C	1.148072	0.552831	0.333111
C147	C	1.481406	0.886165	0.666445
C148	C	0.815866	0.296602	-0.000229
C149	C	1.149199	0.629935	0.333104
C150	C	1.482533	0.963269	0.666438
N151	N	0.820188	0.092482	0.188456
N152	N	1.153521	0.425815	0.521789
N153	N	1.486854	0.759149	0.855122
N154	N	0.820240	0.092494	-0.188880
N155	N	1.153573	0.425827	0.144453
N156	N	1.486906	0.759160	0.477787
C157	C	0.867573	0.045137	0.226548
C158	C	1.200906	0.378470	0.559882
C159	C	1.534239	0.711803	0.893215
C160	C	0.867577	0.045134	0.302776
C161	C	1.200911	0.378467	0.636110
C162	C	1.534244	0.711800	0.969443
C163	C	0.820203	0.092488	0.340909
C164	C	1.153536	0.425821	0.674242
C165	C	1.486870	0.759155	1.007575
C166	C	0.772809	0.139837	0.302807
C167	C	1.106142	0.473170	0.636140
C168	C	1.439476	0.806504	0.969473
C169	C	0.772801	0.139834	0.226580
C170	C	1.106135	0.473167	0.559914
C171	C	1.439468	0.806501	0.893247
C172	C	0.810903	0.155776	0.461666
C173	C	1.144236	0.489109	0.794999
C174	C	1.477570	0.822443	1.128332
C175	C	0.810916	0.155780	0.537891
C176	C	1.144249	0.489113	0.871224
C177	C	1.477582	0.822446	1.204557
C178	C	0.820223	0.092497	0.576016
C179	C	1.153556	0.425830	0.909349
C180	C	1.486889	0.759163	1.242683
C181	C	0.829532	0.029207	0.537907
C182	C	1.162865	0.362540	0.871240
C183	C	1.496199	0.695874	1.204574
C184	C	0.829524	0.029204	0.461681
C185	C	1.162858	0.362537	0.795014
C186	C	1.496191	0.695871	1.128347
C187	C	0.820206	0.092496	0.423563
C188	C	1.153539	0.425829	0.756897
C189	C	1.486873	0.759163	1.090230
C190	C	0.867615	0.045144	0.696764
C191	C	1.200949	0.378477	1.030097
C192	C	1.534282	0.711811	1.363430
C193	C	0.867615	0.045140	0.772993
C194	C	1.200948	0.378473	1.106326
C195	C	1.534282	0.711807	1.439660
C196	C	0.772850	0.139849	0.773022
C197	C	1.106183	0.473182	1.106355
C198	C	1.439517	0.806516	1.439688
C199	C	0.772847	0.139847	0.696794
C200	C	1.106181	0.473180	1.030127
C201	C	1.439514	0.806514	1.363461
C202	C	0.820233	0.092495	0.658670
C203	C	1.153567	0.425829	0.992003
C204	C	1.486900	0.759162	1.325336
H205	H	0.822546	-0.249760	-0.119974
H206	H	1.155880	0.083574	0.213359
H207	H	1.489213	0.416907	0.546693
N208	N	0.815806	-0.706267	0.136986
N209	N	1.149140	-0.372933	0.470320
N210	N	1.482473	-0.039600	0.803653
H211	H	0.859035	-0.699431	0.165837
H212	H	1.192369	-0.366098	0.499171
H213	H	1.525702	-0.032765	0.832504
H214	H	0.772910	-0.687879	0.165800
H215	H	1.106244	-0.354545	0.499133
H216	H	1.439577	-0.021212	0.832467
N217	N	0.918687	-0.005930	0.343880
N218	N	1.252020	0.327404	0.677213
N219	N	1.585353	0.660737	1.010546
H220	H	0.910852	-0.055211	0.330633
H221	H	1.244185	0.278122	0.663966
H222	H	1.577519	0.611455	0.997299
H223	H	0.967931	0.002010	0.330573
H224	H	1.301264	0.335343	0.663906
H225	H	1.634598	0.668676	0.997239
N226	N	0.824565	-0.108791	0.137015
N227	N	1.157898	0.224542	0.470349
N228	N	1.491231	0.557875	0.803682
H229	H	0.824060	-0.142737	0.178834
H230	H	1.157393	0.190596	0.512167
H231	H	1.490726	0.523930	0.845501
H232	H	0.868057	-0.084504	0.139881
H233	H	1.201390	0.248830	0.473214
H234	H	1.534723	0.582163	0.806548
H235	H	0.397755	0.005473	-0.077190
H236	H	0.731088	0.338807	0.256143
H237	H	1.064421	0.672140	0.589476
N238	N	0.231367	0.192177	0.087961
N239	N	0.564700	0.525510	0.421294
N240	N	0.898034	0.858843	0.754628
H241	H	0.244816	0.185888	0.140903
H242	H	0.578149	0.519221	0.474236
H243	H	0.911483	0.852555	0.807569
H244	H	0.237447	0.241212	0.072065
H245	H	0.570781	0.574546	0.405398
H246	H	0.904114	0.907879	0.738731
N247	N	0.721749	0.190920	0.655698
N248	N	1.055083	0.524253	0.989031
N249	N	1.388416	0.857586	1.322365
H250	H	0.691080	0.164453	0.624093
H251	H	1.024413	0.497786	0.957426
H252	H	1.357746	0.831119	1.290760
H253	H	0.691784	0.220910	0.691461
H254	H	1.025117	0.554243	1.024795
H255	H	1.358450	0.887576	1.358128
H256	H	0.147095	0.205029	-0.000253
H257	H	0.480428	0.538362	0.333080
H258	H	0.813762	0.871696	0.666413
N259	N	0.905885	-0.343563	0.104882
N260	N	1.239218	-0.010230	0.438215
N261	N	1.572551	0.323103	0.771548
H262	H	0.875158	-0.309337	0.136002
H263	H	1.208491	0.023996	0.469335
H264	H	1.541825	0.357330	0.802669
H265	H	0.931154	-0.381005	0.136859
H266	H	1.264488	-0.047671	0.470192
H267	H	1.597821	0.285662	0.803525
N268	N	0.903672	-0.494143	0.104879
N269	N	1.237005	-0.160810	0.438212
N270	N	1.570339	0.172523	0.771546
H271	H	0.872062	-0.520035	0.135990
H272	H	1.205395	-0.186702	0.469323
H273	H	1.538729	0.146632	0.802656
H274	H	0.938027	-0.528814	0.078218
H275	H	1.271360	-0.195481	0.411551
H276	H	1.604693	0.137853	0.744884
N277	N	0.721692	0.190908	0.185497
N278	N	1.055025	0.524242	0.518830
N279	N	1.388359	0.857575	0.852163
H280	H	0.748132	0.221596	0.153852
H281	H	1.081465	0.554929	0.487185
H282	H	1.414798	0.888263	0.820519
H283	H	0.691034	0.164394	0.153932
H284	H	1.024367	0.497727	0.487266
H285	H	1.357701	0.831060	0.820599
N286	N	0.003848	0.219688	-0.000223
N287	N	0.337181	0.553021	0.333111
N288	N	0.670514	0.886354	0.666444
H289	H	0.032416	0.260287	-0.000207
H290	H	0.365749	0.593621	0.333126
H291	H	0.699082	0.926954	0.666459
H292	H	-0.026582	0.222037	-0.045103
H293	H	0.306752	0.555371	0.288230
H294	H	0.640085	0.888704	0.621564
N295	N	0.839588	-0.039057	0.579011
N296	N	1.172922	0.294276	0.912345
N297	N	1.506255	0.627610	1.245678
H298	H	0.801080	-0.067929	0.565770
H299	H	1.134413	0.265404	0.899103
H300	H	1.467747	0.598738	1.232437
H301	H	0.886266	-0.065459	0.565699
H302	H	1.219599	0.267875	0.899033
H303	H	1.552933	0.601208	1.232366
N304	N	0.601320	0.228450	-0.000188
N305	N	0.934653	0.561783	0.333145
N306	N	1.267986	0.895116	0.666478
H307	H	0.562006	0.268052	-0.000202
H308	H	0.895339	0.601386	0.333132
H309	H	1.228672	0.934719	0.666465
H310	H	0.630984	0.231654	0.044709
H311	H	0.964317	0.564987	0.378042
H312	H	1.297651	0.898320	0.711376
H313	H	0.493322	-0.020044	-0.000188
H314	H	0.826656	0.313289	0.333146
H315	H	1.159989	0.646623	0.666479
H316	H	0.824485	-0.118335	-0.119969
H317	H	1.157818	0.214998	0.213364
H318	H	1.491152	0.548332	0.546698
N319	N	0.918735	-0.005924	0.814076
N320	N	1.252068	0.327409	1.147409
N321	N	1.585402	0.660743	1.480743
H322	H	0.892307	-0.036621	0.845722
H323	H	1.225641	0.296712	1.179056
H324	H	1.558974	0.630045	1.512389
H325	H	0.948737	-0.035865	0.778303
H326	H	1.282070	0.297468	1.111636
H327	H	1.615403	0.630802	1.444969
N328	N	0.918719	-0.005927	0.655637
N329	N	1.252053	0.327407	0.988970
N330	N	1.585386	0.660740	1.322303
H331	H	0.948736	-0.035925	0.691339
H332	H	1.282069	0.297408	1.024672
H333	H	1.615402	0.630741	1.358005
H334	H	0.892226	-0.036566	0.624027
H335	H	1.225559	0.296767	0.957360
H336	H	1.558892	0.630100	1.290694
H337	H	0.817878	-0.565260	0.119546
H338	H	1.151212	-0.231926	0.452880
H339	H	1.484545	0.101407	0.786213
H340	H	0.734275	0.178403	0.804068
H341	H	1.067608	0.511736	1.137402
H342	H	1.400941	0.845070	1.470735
N343	N	0.258474	-0.009409	-0.088426
N344	N	0.591807	0.323924	0.244907
N345	N	0.925141	0.657258	0.578241
H346	H	0.296546	-0.039635	-0.115291
H347	H	0.629879	0.293698	0.218042
H348	H	0.963212	0.627032	0.551376
H349	H	0.232386	-0.039630	-0.055884
H350	H	0.565720	0.293703	0.277449
H351	H	0.899053	0.627037	0.610783
H352	H	0.747377	-0.331889	-0.091949
H353	H	1.080710	0.001444	0.241385
H354	H	1.414044	0.334777	0.574718
N355	N	0.381959	0.194383	0.087986
N356	N	0.715293	0.527717	0.421319
N357	N	1.048626	0.861050	0.754653
H358	H	0.408041	0.224658	0.055495
H359	H	0.741374	0.557991	0.388828
H360	H	1.074708	0.891325	0.722162
H361	H	0.343856	0.224558	0.114857
H362	H	0.677189	0.557891	0.448190
H363	H	1.010523	0.891224	0.781523
H364	H	0.803340	0.207314	0.568913
H365	H	1.136673	0.540647	0.902246
H366	H	1.470007	0.873981	1.235580
N367	N	0.822372	-0.259377	0.137008
N368	N	1.155705	0.073956	0.470341
N369	N	1.489039	0.407289	0.803674
H370	H	0.822861	-0.225444	0.178828
H371	H	1.156194	0.107889	0.512161
H372	H	1.489527	0.441223	0.845495
H373	H	0.778883	-0.283672	0.139893
H374	H	1.112216	0.049661	0.473226
H375	H	1.445550	0.382994	0.806559
N376	N	0.800865	0.224036	0.420548
N377	N	1.134199	0.557369	0.753881
N378	N	1.467532	0.890702	1.087214
H379	H	0.794977	0.264128	0.456254
H380	H	1.128311	0.597461	0.789587
H381	H	1.461644	0.930794	1.122921
H382	H	0.843046	0.227979	0.388900
H383	H	1.176379	0.561312	0.722233
H384	H	1.509713	0.894646	1.055566
H385	H	0.462555	0.209652	-0.000197
H386	H	0.795889	0.542986	0.333136
H387	H	1.129222	0.876319	0.666470
H388	H	0.734235	0.178392	0.333858
H389	H	1.067569	0.511726	0.667191
H390	H	1.400902	0.845059	1.000524
H391	H	0.745446	-0.463321	-0.091952
H392	H	1.078779	-0.129988	0.241382
H393	H	1.412113	0.203346	0.574715
H394	H	0.046436	-0.026600	-0.000308
H395	H	0.379769	0.306734	0.333026
H396	H	0.713103	0.640067	0.666359
H397	H	0.817922	-0.565220	-0.119992
H398	H	1.151255	-0.231886	0.213342
H399	H	1.484589	0.101447	0.546675
H400	H	0.815982	-0.696645	-0.119996
H401	H	1.149315	-0.363311	0.213337
H402	H	1.482649	-0.029978	0.546671
N403	N	0.636581	-0.034709	-0.000149
N404	N	0.969915	0.298624	0.333184
N405	N	1.303248	0.631957	0.666518
H406	H	0.666994	-0.037090	0.044748
H407	H	1.000327	0.296243	0.378081
H408	H	1.333660	0.629576	0.711414
H409	H	0.607969	-0.075272	-0.000180
H410	H	0.941302	0.258061	0.333153
H411	H	1.274635	0.591394	0.666487
H412	H	0.177867	-0.024674	-0.000237
H413	H	0.511200	0.308660	0.333096
H414	H	0.844533	0.641993	0.666429
N415	N	0.918678	-0.005935	0.185429
N416	N	1.252011	0.327398	0.518762
N417	N	1.585344	0.660731	0.852095
H418	H	0.948696	-0.035930	0.221132
H419	H	1.282030	0.297403	0.554465
H420	H	1.615363	0.630737	0.887799
H421	H	0.892184	-0.036579	0.153824
H422	H	1.225517	0.296755	0.487157
H423	H	1.558850	0.630088	0.820490
H424	H	0.837103	-0.022329	0.430656
H425	H	1.170436	0.311005	0.763989
H426	H	1.503769	0.644338	1.097322
