data_functionalizedCrystal
_audit_creation_method	'MofGen! by Chris Wilmer'
_symmetry_space_group_name_H-M	'P1'
_symmetry_Int_Tables_number	1
_symmetry_cell_setting	triclinic
loop_
_symmetry_equiv_pos_as_xyz
  x,y,z
_cell_length_a	10.540539
_cell_length_b	10.540539
_cell_length_c	12.996460
_cell_angle_alpha	89.996006
_cell_angle_beta	89.996491
_cell_angle_gamma	84.525492
loop_
_atom_site_label
_atom_site_type_symbol
_atom_site_fract_x
_atom_site_fract_y
_atom_site_fract_z
O1	O	1.685889	0.178903	-0.085513
O2	O	1.316476	0.195759	-0.085525
O3	O	1.509610	0.002624	-0.085518
O4	O	1.492755	0.372037	-0.085521
O5	O	1.509590	0.002613	0.085616
O6	O	1.316456	0.195748	0.085609
O7	O	1.685869	0.178892	0.085621
Cu8	Cu	1.501160	0.187319	0.101241
Cu9	Cu	1.501184	0.187332	-0.101145
O10	O	1.492734	0.372026	0.085613
C11	C	1.269163	0.194489	0.000040
C12	C	1.128215	0.190707	0.000035
C13	C	0.944788	0.045790	0.000436
C14	C	1.091406	0.049624	0.000040
C15	C	1.066554	0.258609	-0.097687
C16	C	0.920009	0.253794	-0.097758
C17	C	0.919498	0.256652	0.096853
C18	C	1.066480	0.257951	0.098134
C19	C	1.508336	-0.044684	0.000047
C20	C	1.504554	-0.185632	0.000042
C21	C	1.359637	-0.369059	-0.000347
C22	C	1.363471	-0.222441	0.000038
C23	C	1.572438	-0.247296	0.097770
C24	C	1.567623	-0.393841	0.097852
C25	C	1.570516	-0.394346	-0.096759
C26	C	1.571815	-0.247364	-0.098051
C27	C	1.733182	0.180161	0.000053
C28	C	1.874130	0.183943	0.000051
C29	C	1.494008	0.419335	0.000046
C30	C	1.497790	0.560283	0.000045
N31	N	1.501153	0.187309	0.243588
N32	N	1.501202	0.187332	-0.243492
C33	C	1.501183	0.187333	0.663402
C34	C	1.501171	0.187331	0.546597
C35	C	1.501168	0.187322	0.453498
C36	C	1.501155	0.187318	0.336686
H37	H	0.887943	0.210989	0.170926
O38	O	1.705497	-0.456905	-0.097623
H39	H	1.773096	-0.382417	-0.095101
O40	O	1.709678	-0.217688	0.102600
H41	H	1.725581	-0.164774	0.174569
H42	H	0.916194	-0.009950	0.070519
O43	O	1.292713	-0.165996	-0.092756
H44	H	1.295389	-0.060983	-0.092576
H45	H	1.524863	-0.425895	-0.170830
H46	H	1.109151	0.211449	-0.170414
O47	O	1.501136	-0.431202	0.194611
H48	H	1.566862	-0.497854	0.240217
O49	O	1.506127	-0.193137	-0.193827
H50	H	1.425911	-0.122505	-0.171671
H51	H	1.669088	-0.441809	0.102289
O52	O	1.120727	0.192246	0.193898
H53	H	1.099947	0.090982	0.193112
H54	H	1.309664	-0.180689	0.070207
O55	O	1.286100	-0.409070	0.091961
H56	H	1.188728	-0.358649	0.090937
H57	H	1.525266	-0.204701	0.170493
H58	H	1.134012	-0.003803	0.070092
O59	O	1.098568	0.394199	0.105965
H60	H	1.159279	0.416218	0.039759
O61	O	1.708073	-0.215297	-0.105872
H62	H	1.730083	-0.154596	-0.039666
H63	H	1.303914	-0.397655	-0.070430
H64	H	0.872271	0.358555	0.097512
H65	H	1.133160	-0.004171	-0.070133
O66	O	0.904783	-0.027742	-0.091865
H67	H	0.834798	0.033683	-0.138016
H68	H	0.891808	0.203618	-0.170806
O69	O	1.096165	0.395849	-0.102505
H70	H	1.005838	0.459260	-0.101426
H71	H	0.872041	0.355259	-0.102195
