data_functionalizedCrystal
_audit_creation_method	'MofGen! by Chris Wilmer'
_symmetry_space_group_name_H-M	'P1'
_symmetry_Int_Tables_number	1
_symmetry_cell_setting	triclinic
loop_
_symmetry_equiv_pos_as_xyz
  x,y,z
_cell_length_a	19.077105
_cell_length_b	18.101395
_cell_length_c	19.076919
_cell_angle_alpha	87.727683
_cell_angle_beta	89.923776
_cell_angle_gamma	87.727498
loop_
_atom_site_label
_atom_site_type_symbol
_atom_site_fract_x
_atom_site_fract_y
_atom_site_fract_z
Zn1	Zn	1.058231	-0.358271	0.440421
Zn2	Zn	1.558231	0.141729	0.940421
Zn3	Zn	1.062857	-0.477344	0.322915
Zn4	Zn	1.562857	0.022656	0.822915
Zn5	Zn	0.945450	-0.348351	0.318214
Zn6	Zn	1.445450	0.151649	0.818214
Zn7	Zn	0.940679	-0.476897	0.435668
Zn8	Zn	1.440679	0.023103	0.935668
O9	O	1.001804	-0.415216	0.379305
O10	O	1.501804	0.084784	0.879305
O11	O	1.157176	-0.378405	0.428790
O12	O	1.657176	0.121595	0.928790
O13	O	1.051216	-0.456268	0.223960
O14	O	1.551216	0.043732	0.723960
O15	O	0.960470	-0.246037	0.334447
O16	O	1.460470	0.253963	0.834447
O17	O	1.160575	-0.465887	0.342459
O18	O	1.660575	0.034113	0.842459
O19	O	1.043330	-0.253326	0.424232
O20	O	1.543330	0.246674	0.924232
O21	O	0.964957	-0.361497	0.220507
O22	O	1.464957	0.138503	0.720507
O23	O	0.846486	-0.361064	0.329838
O24	O	1.346486	0.138936	0.829838
O25	O	0.952340	-0.465126	0.534630
O26	O	1.452340	0.034874	1.034630
O27	O	0.842981	-0.455506	0.416131
O28	O	1.342981	0.044494	0.916131
O29	O	1.038704	-0.377972	0.538122
O30	O	1.538704	0.122028	1.038122
O31	O	1.046590	-0.580914	0.337850
O32	O	1.546590	-0.080914	0.837850
O33	O	0.956826	-0.580586	0.420689
O34	O	1.456826	-0.080586	0.920689
C35	C	0.819237	-0.407161	0.371959
C36	C	1.319237	0.092839	0.871959
C37	C	0.741133	-0.403733	0.368833
C38	C	1.241133	0.096267	0.868833
C39	C	1.001711	-0.607621	0.379280
C40	C	1.501711	-0.107621	0.879280
C41	C	1.001735	-0.689937	0.379296
C42	C	1.501735	-0.189937	0.879296
C43	C	0.702636	-0.451363	0.412222
C44	C	1.202636	0.048637	0.912222
C45	C	0.629249	-0.448133	0.409288
C46	C	1.129249	0.051867	0.909288
C47	C	0.594361	-0.397276	0.362962
C48	C	1.094361	0.102724	0.862962
C49	C	0.632863	-0.349642	0.319571
C50	C	1.132863	0.150358	0.819571
C51	C	0.706248	-0.352869	0.322509
C52	C	1.206248	0.147131	0.822509
C53	C	0.375075	-0.382341	0.349369
C54	C	0.875075	0.117659	0.849369
C55	C	0.301684	-0.379119	0.346433
C56	C	0.801684	0.120881	0.846433
C57	C	0.298076	-0.477610	0.436152
C58	C	0.798076	0.022390	0.936152
C59	C	0.371463	-0.480836	0.439082
C60	C	0.871463	0.019164	0.939082
C61	C	0.409959	-0.433198	0.395694
C62	C	0.909959	0.066802	0.895694
N63	N	0.519348	-0.393975	0.359960
N64	N	1.019348	0.106025	0.859960
N65	N	0.484970	-0.436497	0.398700
N66	N	0.984970	0.063503	0.898700
C67	C	1.001887	-0.989036	0.379340
C68	C	1.501887	-0.489036	0.879340
C69	C	0.945531	-0.957547	0.431600
C70	C	1.445531	-0.457547	0.931600
C71	C	0.945280	-0.871910	0.431419
C72	C	1.445280	-0.371910	0.931419
C73	C	1.001811	-0.840650	0.379319
C74	C	1.501811	-0.340650	0.879319
C75	C	0.984741	-0.867911	0.304458
C76	C	1.484741	-0.367911	0.804458
C77	C	0.984379	-0.953554	0.304770
C78	C	1.484379	-0.453554	0.804770
C79	C	1.075459	-0.961424	0.401293
C80	C	1.575459	-0.461424	0.901293
C81	C	1.074956	-0.875820	0.402900
C82	C	1.574956	-0.375820	0.902900
C83	C	1.001770	-0.756788	0.379302
C84	C	1.501770	-0.256788	0.879302
C85	C	1.001927	-1.072898	0.379351
C86	C	1.501927	-0.572898	0.879351
C87	C	1.185084	-0.423303	0.386679
C88	C	1.685084	0.076697	0.886679
C89	C	1.263188	-0.426749	0.389822
C90	C	1.763188	0.073251	0.889822
C91	C	0.994474	-0.422606	0.562585
C92	C	1.494474	0.077394	1.062585
C93	C	0.991350	-0.425755	0.640688
C94	C	1.491350	0.074245	1.140688
C95	C	1.001916	-0.222060	0.379345
C96	C	1.501916	0.277940	0.879345
C97	C	1.001964	-0.139749	0.379363
C98	C	1.501964	0.360251	0.879363
C99	C	1.009146	-0.407803	0.196739
C100	C	1.509146	0.092197	0.696739
C101	C	1.012406	-0.404451	0.118642
C102	C	1.512406	0.095549	0.618642
C103	C	1.034846	-0.381860	0.679200
C104	C	1.534846	0.118140	1.179200
C105	C	1.031902	-0.384816	0.752586
C106	C	1.531902	0.115184	1.252586
C107	C	0.985466	-0.431671	0.787458
C108	C	1.485466	0.068329	1.287458
C109	C	0.941966	-0.475568	0.748941
C110	C	1.441966	0.024432	1.248941
C111	C	0.944906	-0.472608	0.675556
C112	C	1.444906	0.027392	1.175556
C113	C	0.971847	-0.445387	1.006740
C114	C	1.471847	0.054613	1.506740
C115	C	0.968911	-0.448346	1.080130
C116	C	1.468911	0.051654	1.580130
C117	C	1.058847	-0.357593	1.083770
C118	C	1.558847	0.142407	1.583770
C119	C	1.061786	-0.354640	1.010384
C120	C	1.561786	0.145360	1.510384
C121	C	1.018283	-0.398533	0.971872
C122	C	1.518283	0.101467	1.471872
N123	N	0.982458	-0.434696	0.862471
N124	N	1.482458	0.065304	1.362471
N125	N	1.021289	-0.395505	0.896861
N126	N	1.521289	0.104495	1.396861
H127	H	0.597908	-0.486918	0.444619
H128	H	1.097908	0.013082	0.944619
C129	C	0.263308	-0.323170	0.295476
C130	C	0.763308	0.176830	0.795476
H131	H	0.296744	-0.295256	0.270061
H132	H	0.796744	0.204744	0.770061
H133	H	0.235888	-0.348951	0.263664
H134	H	0.735888	0.151049	0.763664
H135	H	0.233623	-0.290778	0.321274
H136	H	0.733623	0.209222	0.821274
H137	H	0.399864	-0.522250	0.476804
H138	H	0.899864	-0.022250	0.976804
C139	C	1.132118	-0.988929	0.349877
C140	C	1.632118	-0.488929	0.849877
H141	H	1.111081	-1.017115	0.315205
H142	H	1.611081	-0.517115	0.815205
H143	H	1.153748	-0.947684	0.327915
H144	H	1.653748	-0.447684	0.827915
H145	H	1.166469	-1.018951	0.374776
H146	H	1.666469	-0.518951	0.874776
H147	H	1.091602	-0.985932	0.455108
H148	H	1.591602	-0.485932	0.955108
C149	C	0.594491	-0.293698	0.268614
C150	C	1.094491	0.206302	0.768614
H151	H	0.627930	-0.265789	0.243198
H152	H	1.127930	0.234211	0.743198
H153	H	0.567070	-0.319478	0.236802
H154	H	1.067070	0.180522	0.736802
H155	H	0.564807	-0.261301	0.294407
H156	H	1.064807	0.238699	0.794407
C157	C	1.112860	-0.303095	0.972025
C158	C	1.612860	0.196905	1.472025
H159	H	1.108385	-0.307623	0.922804
H160	H	1.608385	0.192377	1.422804
H161	H	1.102123	-0.253370	0.983649
H162	H	1.602123	0.246630	1.483649
H163	H	1.159588	-0.316505	0.985951
H164	H	1.659588	0.183495	1.485951
H165	H	1.024629	-0.847532	0.264328
H166	H	1.524629	-0.347532	0.764328
H167	H	0.931095	-0.486502	1.108520
H168	H	1.431095	0.013498	1.608520
C169	C	1.079751	-0.336536	0.794947
C170	C	1.579751	0.163464	1.294947
H171	H	1.107834	-0.308214	0.763668
H172	H	1.607834	0.191786	1.263668
H173	H	1.051747	-0.304235	0.822498
H174	H	1.551747	0.195765	1.322498
H175	H	1.109204	-0.367377	0.824801
H176	H	1.609204	0.132623	1.324801
C177	C	1.106690	-0.309309	1.126133
C178	C	1.606690	0.190691	1.626133
H179	H	1.098286	-0.317776	1.174832
H180	H	1.598286	0.182224	1.674832
H181	H	1.154378	-0.321742	1.116006
H182	H	1.654378	0.178258	1.616006
H183	H	1.096910	-0.258611	1.113701
H184	H	1.596910	0.241389	1.613701
H185	H	0.931637	-0.843494	0.285943
H186	H	1.431637	-0.343494	0.785943
H187	H	0.936434	-0.481139	0.975393
H188	H	1.436434	0.018861	1.475393
H189	H	1.072661	-0.343708	0.650813
H190	H	1.572661	0.156292	1.150813
H191	H	0.904154	-0.513715	0.777340
H192	H	1.404154	-0.013715	1.277340
C193	C	0.748595	-0.300475	0.274783
C194	C	1.248595	0.199525	0.774783
H195	H	0.717307	-0.269728	0.246768
H196	H	1.217307	0.230272	0.746768
H197	H	0.776164	-0.270599	0.302866
H198	H	1.276164	0.229401	0.802866
H199	H	0.778431	-0.328776	0.245260
H200	H	1.278431	0.171224	0.745260
C201	C	0.897079	-0.520911	0.633193
C202	C	1.397079	-0.020911	1.133193
H203	H	0.869011	-0.549250	0.664472
H204	H	1.369011	-0.049250	1.164472
H205	H	0.867621	-0.490092	0.603330
H206	H	1.367621	0.009908	1.103330
H207	H	0.925105	-0.553207	0.605652
H208	H	1.425105	-0.053207	1.105652
H209	H	0.955734	-0.980878	0.487188
H210	H	1.455734	-0.480878	0.987188
H211	H	1.087883	-0.858335	0.458008
H212	H	1.587883	-0.358335	0.958008
H213	H	0.266725	-0.516393	0.471476
H214	H	0.766725	-0.016393	0.971476
C215	C	0.741007	-0.507305	0.463183
C216	C	1.241007	-0.007305	0.963183
H217	H	0.707566	-0.535203	0.488608
H218	H	1.207566	-0.035203	0.988608
H219	H	0.770693	-0.539701	0.437398
H220	H	1.270693	-0.039701	0.937398
H221	H	0.768426	-0.481516	0.494996
H222	H	1.268426	0.018484	0.994996
C223	C	0.417412	-0.329955	0.301632
C224	C	0.917412	0.170045	0.801632
H225	H	0.386121	-0.299214	0.273614
H226	H	0.886121	0.200786	0.773614
H227	H	0.444986	-0.300072	0.329703
H228	H	0.944986	0.199928	0.829703
H229	H	0.447242	-0.358266	0.272112
H230	H	0.947242	0.141734	0.772112
H231	H	0.955615	-0.853628	0.486834
H232	H	1.455615	-0.353628	0.986834
C233	C	1.134362	-0.847411	0.355552
C234	C	1.634362	-0.347411	0.855552
H235	H	1.177906	-0.869557	0.371008
H236	H	1.677906	-0.369557	0.871008
H237	H	1.125971	-0.859969	0.308503
H238	H	1.625971	-0.359969	0.808503
H239	H	1.135864	-0.795176	0.357944
H240	H	1.635864	-0.295176	0.857944
C241	C	0.872222	-0.982759	0.411868
C242	C	1.372222	-0.482759	0.911868
H243	H	0.875811	-1.012391	0.371919
H244	H	1.375811	-0.512391	0.871919
H245	H	0.853394	-1.010822	0.450062
H246	H	1.353394	-0.510822	0.950062
H247	H	0.842237	-0.940613	0.401435
H248	H	1.342237	-0.440613	0.901435
C249	C	0.871534	-0.840347	0.411447
C250	C	1.371534	-0.340347	0.911447
H251	H	0.841614	-0.879873	0.403406
H252	H	1.341614	-0.379873	0.903406
H253	H	0.853133	-0.811991	0.448579
H254	H	1.353133	-0.311991	0.948579
H255	H	0.874359	-0.809714	0.370019
H256	H	1.374359	-0.309714	0.870019
C257	C	0.911846	-0.976521	0.280122
C258	C	1.411846	-0.476521	0.780122
H259	H	0.882878	-0.933525	0.270017
H260	H	1.382878	-0.433525	0.770017
H261	H	0.917100	-1.004259	0.239073
H262	H	1.417100	-0.504259	0.739073
H263	H	0.890806	-1.005936	0.316083
H264	H	1.390806	-0.505936	0.816083
C265	C	1.037629	-0.981489	0.250150
C266	C	1.537629	-0.481489	0.750150
H267	H	1.059383	-0.940494	0.227865
H268	H	1.559383	-0.440494	0.727865
H269	H	1.072309	-1.013029	0.272848
H270	H	1.572309	-0.513029	0.772848
H271	H	1.014035	-1.008167	0.216026
H272	H	1.514035	-0.508167	0.716026
