data_functionalizedCrystal
_audit_creation_method	'MofGen! by Chris Wilmer'
_symmetry_space_group_name_H-M	'P1'
_symmetry_Int_Tables_number	1
_symmetry_cell_setting	triclinic
loop_
_symmetry_equiv_pos_as_xyz
  x,y,z
_cell_length_a	18.050589
_cell_length_b	12.759395
_cell_length_c	18.050583
_cell_angle_alpha	89.986213
_cell_angle_beta	90.031910
_cell_angle_gamma	89.974303
loop_
_atom_site_label
_atom_site_type_symbol
_atom_site_fract_x
_atom_site_fract_y
_atom_site_fract_z
Zn1	Zn	-0.295656	-1.606099	0.419891
Zn2	Zn	0.204344	-1.106099	0.919891
Zn3	Zn	-0.419869	-1.605969	0.295710
Zn4	Zn	0.080131	-1.105969	0.795710
Zn5	Zn	-0.295692	-1.430418	0.295720
Zn6	Zn	0.204308	-0.930418	0.795720
Zn7	Zn	-0.419803	-1.430348	0.419864
Zn8	Zn	0.080197	-0.930348	0.919864
O9	O	-0.357755	-1.518208	0.357796
O10	O	0.142245	-1.018208	0.857796
O11	O	-0.312146	-1.753102	0.403425
O12	O	0.187854	-1.253102	0.903425
O13	O	-0.403439	-1.582657	0.191787
O14	O	0.096561	-1.082657	0.691787
O15	O	-0.191763	-1.453806	0.312207
O16	O	0.308237	-0.953806	0.812207
O17	O	-0.403405	-1.753007	0.312191
O18	O	0.096595	-1.253007	0.812191
O19	O	-0.191736	-1.582878	0.403435
O20	O	0.308264	-1.082878	0.903435
O21	O	-0.312207	-1.453680	0.191794
O22	O	0.187793	-0.953680	0.691794
O23	O	-0.312143	-1.283387	0.312180
O24	O	0.187857	-0.783387	0.812180
O25	O	-0.403293	-1.453686	0.523792
O26	O	0.096707	-0.953686	1.023792
O27	O	-0.403327	-1.283336	0.403388
O28	O	0.096673	-0.783336	0.903388
O29	O	-0.312082	-1.582810	0.523812
O30	O	0.187918	-1.082810	1.023812
O31	O	-0.523785	-1.582589	0.312164
O32	O	-0.023785	-1.082589	0.812164
O33	O	-0.523737	-1.453561	0.403379
O34	O	-0.023737	-0.953561	0.903379
C35	C	-0.357733	-1.245241	0.357783
C36	C	0.142267	-0.745241	0.857783
C37	C	-0.357741	-1.128464	0.357795
C38	C	0.142259	-0.628464	0.857795
C39	C	-0.262867	-1.128544	0.452951
C40	C	0.237133	-0.628544	0.952951
C41	C	-0.215437	-1.073723	0.500534
C42	C	0.284563	-0.573723	1.000534
C43	C	-0.215447	-0.964001	0.500542
C44	C	0.284553	-0.464001	1.000542
C45	C	-0.262890	-0.909098	0.452960
C46	C	0.237110	-0.409098	0.952960
C47	C	-0.310320	-0.963919	0.405376
C48	C	0.189680	-0.463919	0.905376
C49	C	-0.310306	-1.073643	0.405375
C50	C	0.189694	-0.573643	0.905375
C51	C	-0.405189	-0.963839	0.310217
C52	C	0.094811	-0.463839	0.810217
C53	C	-0.405184	-1.073561	0.310212
C54	C	0.094816	-0.573561	0.810212
C55	C	-0.452632	-0.908936	0.262635
C56	C	0.047368	-0.408936	0.762635
C57	C	-0.500067	-0.963757	0.215054
C58	C	-0.000067	-0.463757	0.715054
C59	C	-0.500055	-1.073485	0.215049
C60	C	-0.000055	-0.573485	0.715049
C61	C	-0.452614	-1.128382	0.262629
C62	C	0.047386	-0.628382	0.762629
C63	C	-0.550707	-1.518081	0.357784
C64	C	-0.050707	-1.018081	0.857784
C65	C	-0.633253	-1.518123	0.357803
C66	C	-0.133253	-1.018123	0.857803
C67	C	-0.832704	-1.448027	0.407389
C68	C	-0.332704	-0.948027	0.907389
C69	C	-0.882154	-1.422422	0.339622
C70	C	-0.382154	-0.922422	0.839622
C71	C	-0.784383	-1.518226	0.357813
C72	C	-0.284383	-1.018226	0.857813
C73	C	-0.882016	-1.543883	0.425587
C74	C	-0.382016	-1.043883	0.925587
C75	C	-0.930369	-1.518324	0.357828
C76	C	-0.430369	-1.018324	0.857828
C77	C	-0.832746	-1.492571	0.290011
C78	C	-0.332746	-0.992571	0.790011
C79	C	-0.832603	-1.614077	0.376022
C80	C	-0.332603	-1.114077	0.876022
C81	C	-0.882030	-1.588508	0.308208
C82	C	-0.382030	-1.088508	0.808208
C83	C	-0.700285	-1.518168	0.357805
C84	C	-0.200285	-1.018168	0.857805
C85	C	-1.014465	-1.518383	0.357829
C86	C	-0.514465	-1.018383	0.857829
C87	C	-0.164050	-1.518364	0.357825
C88	C	0.335950	-1.018364	0.857825
C89	C	-0.081504	-1.518431	0.357837
C90	C	0.418496	-1.018431	0.857837
C91	C	-0.357676	-1.518255	0.551502
C92	C	0.142324	-1.018255	1.051502
C93	C	-0.357642	-1.518274	0.634048
C94	C	0.142358	-1.018274	1.134048
C95	C	-0.357771	-0.792242	0.357806
C96	C	0.142229	-0.292242	0.857806
C97	C	-0.357759	-0.909018	0.357801
C98	C	0.142241	-0.409018	0.857801
C99	C	-0.357781	-1.518222	0.164844
C100	C	0.142219	-1.018222	0.664844
C101	C	-0.357605	-1.518406	0.082299
C102	C	0.142395	-1.018406	0.582299
C103	C	-0.308018	-1.588562	0.833509
C104	C	0.191982	-1.088562	1.333509
C105	C	-0.289839	-1.492740	0.882905
C106	C	0.210161	-0.992740	1.382905
C107	C	-0.357629	-1.518317	0.785178
C108	C	0.142371	-1.018317	1.285178
C109	C	-0.375762	-1.614177	0.882864
C110	C	0.124238	-1.114177	1.382864
C111	C	-0.357616	-1.518366	0.931163
C112	C	0.142384	-1.018366	1.431163
C113	C	-0.339415	-1.422444	0.833487
C114	C	0.160585	-0.922444	1.333487
C115	C	-0.425369	-1.543946	0.833441
C116	C	0.074631	-1.043946	1.333441
C117	C	-0.407216	-1.448057	0.882815
C118	C	0.092784	-0.948057	1.382815
C119	C	-0.357635	-1.518290	0.701080
C120	C	0.142365	-1.018290	1.201080
C121	C	-0.357610	-1.518382	1.015260
C122	C	0.142390	-1.018382	1.515260
H123	H	-0.176808	-1.118437	0.539274
H124	H	0.323192	-0.618437	1.039274
H125	H	-0.266037	-1.647869	0.811857
H126	H	0.233963	-1.147869	1.311857
H127	H	-0.903659	-1.565544	0.482897
H128	H	-0.403659	-1.065544	0.982897
H129	H	-0.176821	-0.919366	0.539284
H130	H	0.323179	-0.419366	1.039284
H131	H	-0.810824	-1.695070	0.391441
H132	H	-0.310824	-1.195070	0.891441
H133	H	-0.538688	-0.919046	0.176313
H134	H	-0.038688	-0.419046	0.676313
H135	H	-0.903935	-1.341410	0.324235
H136	H	-0.403935	-0.841410	0.824235
H137	H	-0.811046	-1.388574	0.449254
H138	H	-0.311046	-0.888574	0.949254
H139	H	-0.449165	-1.388606	0.904328
H140	H	0.050835	-0.888606	1.404328
H141	H	-0.232547	-1.471078	0.904633
H142	H	0.267453	-0.971078	1.404633
H143	H	-0.903552	-1.647916	0.266242
H144	H	-0.403552	-1.147916	0.766242
H145	H	-0.324007	-1.341373	0.811888
H146	H	0.175993	-0.841373	1.311888
H147	H	-0.452596	-1.217723	0.262626
H148	H	0.047404	-0.717723	0.762626
H149	H	-0.262850	-1.217885	0.452947
H150	H	0.237150	-0.717885	0.952947
H151	H	-0.811192	-1.470816	0.232685
H152	H	-0.311192	-0.970816	0.732685
H153	H	-0.538676	-1.118114	0.176298
H154	H	-0.038676	-0.618114	0.676298
H155	H	-0.482646	-1.565637	0.811699
H156	H	0.017354	-1.065637	1.311699
H157	H	-0.262888	-0.819757	0.452964
H158	H	0.237112	-0.319757	0.952964
H159	H	-0.452635	-0.819595	0.262642
H160	H	0.047365	-0.319595	0.762642
H161	H	-0.391102	-1.695224	0.904556
H162	H	0.108898	-1.195224	1.404556
