data_functionalizedCrystal
_audit_creation_method	'MofGen! by Chris Wilmer'
_symmetry_space_group_name_H-M	'P1'
_symmetry_Int_Tables_number	1
_symmetry_cell_setting	triclinic
loop_
_symmetry_equiv_pos_as_xyz
  x,y,z
_cell_length_a	16.625547
_cell_length_b	16.625545
_cell_length_c	12.827885
_cell_angle_alpha	89.966975
_cell_angle_beta	89.974319
_cell_angle_gamma	90.025495
loop_
_atom_site_label
_atom_site_type_symbol
_atom_site_fract_x
_atom_site_fract_y
_atom_site_fract_z
Zn1	Zn	1.232670	-0.320962	-0.591000
Zn2	Zn	1.482670	-0.070962	-0.341000
Zn3	Zn	1.732670	0.179038	-0.091000
Zn4	Zn	1.982670	0.429038	0.159000
Zn5	Zn	1.232564	-0.455817	-0.416251
Zn6	Zn	1.482564	-0.205817	-0.166251
Zn7	Zn	1.732564	0.044183	0.083749
Zn8	Zn	1.982564	0.294183	0.333749
Zn9	Zn	1.097830	-0.321002	-0.416255
Zn10	Zn	1.347830	-0.071002	-0.166255
Zn11	Zn	1.597830	0.178998	0.083745
Zn12	Zn	1.847830	0.428998	0.333745
Zn13	Zn	1.097795	-0.455757	-0.590932
Zn14	Zn	1.347795	-0.205757	-0.340932
Zn15	Zn	1.597795	0.044243	-0.090932
Zn16	Zn	1.847795	0.294243	0.159068
O17	O	1.165215	-0.388384	-0.503609
O18	O	1.415215	-0.138384	-0.253609
O19	O	1.665215	0.111616	-0.003609
O20	O	1.915215	0.361616	0.246391
O21	O	1.345488	-0.338860	-0.567846
O22	O	1.595488	-0.088860	-0.317846
O23	O	1.845488	0.161140	-0.067846
O24	O	2.095488	0.411140	0.182154
O25	O	1.214661	-0.437975	-0.270015
O26	O	1.464661	-0.187975	-0.020015
O27	O	1.714661	0.062025	0.229985
O28	O	1.964661	0.312025	0.479985
O29	O	1.115776	-0.208164	-0.439465
O30	O	1.365776	0.041836	-0.189465
O31	O	1.615776	0.291836	0.060535
O32	O	1.865776	0.541836	0.310535
O33	O	1.345410	-0.437937	-0.439459
O34	O	1.595410	-0.187937	-0.189459
O35	O	1.845410	0.062063	0.060541
O36	O	2.095410	0.312063	0.310541
O37	O	1.214842	-0.208135	-0.567850
O38	O	1.464842	0.041865	-0.317850
O39	O	1.714842	0.291865	-0.067850
O40	O	1.964842	0.541865	0.182150
O41	O	1.115673	-0.338927	-0.270018
O42	O	1.365673	-0.088927	-0.020018
O43	O	1.615673	0.161073	0.229982
O44	O	1.865673	0.411073	0.479982
O45	O	0.984993	-0.338869	-0.439399
O46	O	1.234993	-0.088869	-0.189399
O47	O	1.484993	0.161131	0.060601
O48	O	1.734993	0.411131	0.310601
O49	O	1.115716	-0.437834	-0.737177
O50	O	1.365716	-0.187834	-0.487177
O51	O	1.615716	0.062166	-0.237177
O52	O	1.865716	0.312166	0.012823
O53	O	0.984967	-0.437872	-0.567734
O54	O	1.234967	-0.187872	-0.317734
O55	O	1.484967	0.062128	-0.067734
O56	O	1.734967	0.312128	0.182266
O57	O	1.214808	-0.338801	-0.737227
O58	O	1.464808	-0.088801	-0.487227
O59	O	1.714808	0.161199	-0.237227
O60	O	1.964808	0.411199	0.012773
O61	O	1.214628	-0.568641	-0.439393
O62	O	1.464628	-0.318641	-0.189393
O63	O	1.714628	-0.068641	0.060607
O64	O	1.964628	0.181359	0.310607
O65	O	1.115613	-0.568597	-0.567730
O66	O	1.365613	-0.318597	-0.317730
O67	O	1.615613	-0.068597	-0.067730
O68	O	1.865613	0.181403	0.182270
C69	C	0.955724	-0.388369	-0.503560
C70	C	1.205724	-0.138369	-0.253560
C71	C	1.455724	0.111631	-0.003560
C72	C	1.705724	0.361631	0.246440
C73	C	0.866103	-0.388382	-0.503564
C74	C	1.116103	-0.138382	-0.253564
C75	C	1.366103	0.111618	-0.003564
C76	C	1.616103	0.361618	0.246436
C77	C	1.165127	-0.597875	-0.503576
C78	C	1.415127	-0.347875	-0.253576
C79	C	1.665127	-0.097875	-0.003576
C80	C	1.915127	0.152125	0.246424
C81	C	1.165163	-0.687496	-0.503597
C82	C	1.415163	-0.437496	-0.253597
C83	C	1.665163	-0.187496	-0.003597
C84	C	1.915163	0.062504	0.246403
C85	C	0.793320	-0.388383	-0.503577
C86	C	1.043320	-0.138383	-0.253577
C87	C	1.293320	0.111617	-0.003577
C88	C	1.543320	0.361617	0.246423
C89	C	0.702012	-0.388387	-0.503603
C90	C	0.952012	-0.138387	-0.253603
C91	C	1.202012	0.111613	-0.003603
C92	C	1.452012	0.361613	0.246397
C93	C	0.629235	-0.388395	-0.503629
C94	C	0.879235	-0.138395	-0.253629
C95	C	1.129235	0.111605	-0.003629
C96	C	1.379235	0.361605	0.246371
C97	C	0.537921	-0.388400	-0.503654
C98	C	0.787921	-0.138400	-0.253654
C99	C	1.037921	0.111600	-0.003654
C100	C	1.287921	0.361600	0.246346
C101	C	1.165195	-0.760279	-0.503618
C102	C	1.415195	-0.510279	-0.253618
C103	C	1.665195	-0.260279	-0.003618
C104	C	1.915195	-0.010279	0.246382
C105	C	1.165242	-0.851587	-0.503641
C106	C	1.415242	-0.601587	-0.253641
C107	C	1.665242	-0.351587	-0.003641
C108	C	1.915242	-0.101587	0.246359
C109	C	1.165284	-0.924364	-0.503654
C110	C	1.415284	-0.674364	-0.253654
C111	C	1.665284	-0.424364	-0.003654
C112	C	1.915284	-0.174364	0.246346
C113	C	1.165330	-1.015678	-0.503676
C114	C	1.415330	-0.765678	-0.253676
C115	C	1.665330	-0.515678	-0.003676
C116	C	1.915330	-0.265678	0.246324
C117	C	1.375524	-0.388401	-0.503659
C118	C	1.625524	-0.138401	-0.253659
C119	C	1.875524	0.111599	-0.003659
C120	C	2.125524	0.361599	0.246341
C121	C	1.465145	-0.388408	-0.503681
C122	C	1.715145	-0.138408	-0.253681
C123	C	1.965145	0.111592	-0.003681
C124	C	2.215145	0.361592	0.246319
C125	C	1.165270	-0.388306	-0.776180
C126	C	1.415270	-0.138306	-0.526180
C127	C	1.665270	0.111694	-0.276180
C128	C	1.915270	0.361694	-0.026180
C129	C	1.165294	-0.388273	-0.892333
C130	C	1.415294	-0.138273	-0.642333
C131	C	1.665294	0.111727	-0.392333
C132	C	1.915294	0.361727	-0.142333
C133	C	1.165325	-0.178076	-0.503665
C134	C	1.415325	0.071924	-0.253665
C135	C	1.665325	0.321924	-0.003665
C136	C	1.915325	0.571924	0.246335
C137	C	1.165371	-0.088454	-0.503689
C138	C	1.415371	0.161546	-0.253689
C139	C	1.665371	0.411546	-0.003689
C140	C	1.915371	0.661546	0.246311
C141	C	1.116276	-0.437258	-0.944093
C142	C	1.366276	-0.187258	-0.694093
C143	C	1.616276	0.062742	-0.444093
C144	C	1.866276	0.312742	-0.194093
C145	C	1.116299	-0.437224	-1.064143
C146	C	1.366299	-0.187224	-0.814143
C147	C	1.616299	0.062776	-0.564143
C148	C	1.866299	0.312776	-0.314143
C149	C	1.165206	-0.388404	-0.232099
C150	C	1.415206	-0.138404	0.017901
C151	C	1.665206	0.111596	0.267901
C152	C	1.915206	0.361596	0.517901
C153	C	1.165338	-0.388210	-0.115947
C154	C	1.415338	-0.138210	0.134053
C155	C	1.665338	0.111790	0.384053
C156	C	1.915338	0.361790	0.634053
H157	H	1.074295	-0.479223	-0.899530
H158	H	1.324295	-0.229223	-0.649530
H159	H	1.574295	0.020777	-0.399530
H160	H	1.824295	0.270777	-0.149530
H161	H	1.207280	-0.346314	-0.936896
H162	H	1.457280	-0.096314	-0.686896
H163	H	1.707280	0.153686	-0.436896
H164	H	1.957280	0.403686	-0.186896
N165	N	1.063648	-0.489826	-1.119990
N166	N	1.313648	-0.239826	-0.869990
N167	N	1.563648	0.010174	-0.619990
N168	N	1.813648	0.260174	-0.369990
N169	N	1.063738	-0.489722	-1.217432
N170	N	1.313738	-0.239722	-0.967432
N171	N	1.563738	0.010278	-0.717432
N172	N	1.813738	0.260278	-0.467432
H173	H	1.026551	-0.526872	-1.256878
H174	H	1.276551	-0.276872	-1.006878
H175	H	1.526551	-0.026872	-0.756878
H176	H	1.776551	0.223128	-0.506878
H177	H	1.207303	-0.346267	-1.071441
H178	H	1.457303	-0.096267	-0.821441
H179	H	1.707303	0.153733	-0.571441
H180	H	1.957303	0.403733	-0.321441
