data_functionalizedCrystal
_audit_creation_method	'MofGen! by Chris Wilmer'
_symmetry_space_group_name_H-M	'P1'
_symmetry_Int_Tables_number	1
_symmetry_cell_setting	triclinic
loop_
_symmetry_equiv_pos_as_xyz
  x,y,z
_cell_length_a	16.992694
_cell_length_b	10.723024
_cell_length_c	15.455313
_cell_angle_alpha	92.691723
_cell_angle_beta	87.142206
_cell_angle_gamma	87.568046
loop_
_atom_site_label
_atom_site_type_symbol
_atom_site_fract_x
_atom_site_fract_y
_atom_site_fract_z
O1	O	1.045219	0.259622	-0.072018
O2	O	1.545219	0.759622	0.427982
O3	O	0.816920	0.256716	-0.072044
O4	O	1.316920	0.756716	0.427956
O5	O	0.936335	0.077046	-0.072027
O6	O	1.436335	0.577046	0.427973
O7	O	0.925803	0.439291	-0.072035
O8	O	1.425803	0.939291	0.427965
O9	O	0.929506	0.087275	0.072234
O10	O	1.429506	0.587275	0.572234
O11	O	0.810091	0.266945	0.072217
O12	O	1.310091	0.766945	0.572217
O13	O	1.038390	0.269851	0.072243
O14	O	1.538390	0.769851	0.572243
Cu15	Cu	0.923617	0.269332	0.085402
Cu16	Cu	1.423617	0.769332	0.585402
Cu17	Cu	0.931693	0.257235	-0.085203
Cu18	Cu	1.431693	0.757235	0.414797
O19	O	0.918974	0.449520	0.072226
O20	O	1.418974	0.949520	0.572226
C21	C	0.784273	0.258094	0.000083
C22	C	1.284273	0.758094	0.500083
C23	C	0.697169	0.246945	0.000074
C24	C	1.197169	0.746945	0.500074
C25	C	0.647507	0.354505	0.000072
C26	C	1.147507	0.854505	0.500072
C27	C	0.565663	0.344024	0.000084
C28	C	1.065663	0.844024	0.500084
C29	C	0.533484	0.225982	0.000092
C30	C	1.033484	0.725982	0.500092
C31	C	0.583152	0.118414	0.000096
C32	C	1.083152	0.618414	0.500096
C33	C	0.664993	0.128896	0.000090
C34	C	1.164993	0.628896	0.500090
C35	C	0.289651	0.182535	0.000116
C36	C	0.789651	0.682535	0.500116
C37	C	0.207803	0.172061	0.000119
C38	C	0.707803	0.672061	0.500119
C39	C	0.190320	0.397673	0.000109
C40	C	0.690320	0.897673	0.500109
C41	C	0.272165	0.408144	0.000098
C42	C	0.772165	0.908144	0.500098
C43	C	0.321825	0.300577	0.000107
C44	C	0.821825	0.800577	0.500107
N45	N	0.449827	0.215266	0.000102
N46	N	0.949827	0.715266	0.500102
N47	N	0.405480	0.311295	0.000103
N48	N	0.905480	0.811295	0.500103
C49	C	0.932154	0.035595	0.000102
C50	C	1.432154	0.535595	0.500102
C51	C	0.929861	-0.103157	0.000099
C52	C	1.429861	0.396843	0.500099
C53	C	0.996680	-0.172386	0.000105
C54	C	1.496680	0.327614	0.500105
C55	C	0.994312	-0.315793	0.000102
C56	C	1.494312	0.184207	0.500102
C57	C	1.071037	0.268473	0.000114
C58	C	1.571037	0.768473	0.500114
C59	C	1.158141	0.279621	0.000118
C60	C	1.658141	0.779621	0.500118
C61	C	0.923155	0.490971	0.000095
C62	C	1.423155	0.990971	0.500095
C63	C	0.925449	0.629723	0.000093
C64	C	1.425449	1.129723	0.500093
N65	N	0.917942	0.277840	0.205397
N66	N	1.417942	0.777840	0.705397
N67	N	0.937374	0.248717	-0.205198
N68	N	1.437374	0.748717	0.294802
C69	C	0.968692	0.201542	0.250798
C70	C	1.468692	0.701542	0.750798
C71	C	0.964408	0.207989	0.341605
C72	C	1.464408	0.707989	0.841605
C73	C	0.909377	0.290741	0.387010
C74	C	1.409377	0.790741	0.887010
C75	C	0.858622	0.367042	0.341602
C76	C	1.358622	0.867042	0.841602
C77	C	0.862903	0.360588	0.250797
C78	C	1.362903	0.860588	0.750797
C79	C	0.890899	0.318564	0.658589
C80	C	1.390899	0.818564	1.158589
C81	C	0.886624	0.325015	0.749401
C82	C	1.386624	0.825015	1.249401
C83	C	0.992409	0.165960	0.749398
C84	C	1.492409	0.665960	1.249398
C85	C	0.996689	0.159518	0.658590
C86	C	1.496689	0.659518	1.158590
C87	C	0.945931	0.235815	0.613191
C88	C	1.445931	0.735815	1.113191
N89	N	0.904999	0.297335	0.479830
N90	N	1.404999	0.797335	0.979830
N91	N	0.950306	0.229213	0.520373
N92	N	1.450306	0.729213	1.020373
H93	H	0.298359	0.504266	0.000082
H94	H	0.798359	1.004266	0.500082
Cl95	Cl	1.082633	-0.407660	0.000117
Cl96	Cl	1.582633	0.092340	0.500117
H97	H	0.149878	0.485248	0.000104
H98	H	0.649878	0.985248	0.500104
H99	H	0.525232	0.431612	0.000082
H100	H	1.025232	0.931612	0.500082
Cl101	Cl	0.838828	-0.175555	0.000080
Cl102	Cl	1.338828	0.324445	0.500080
Cl103	Cl	0.837124	-0.278417	0.000091
Cl104	Cl	1.337124	0.221583	0.500091
H105	H	0.849571	0.380691	0.621632
H106	H	1.349571	0.880691	1.121632
Cl107	Cl	0.727426	-0.006328	0.000096
Cl108	Cl	1.227426	0.493672	0.500096
H109	H	0.556944	0.022302	0.000115
H110	H	1.056944	0.522302	0.500115
Cl111	Cl	1.037882	0.097511	0.193728
Cl112	Cl	1.537882	0.597511	0.693728
Cl113	Cl	0.789435	0.471069	0.398680
Cl114	Cl	1.289435	0.971069	0.898680
Cl115	Cl	0.352071	0.047306	0.000126
Cl116	Cl	0.852071	0.547306	0.500126
Cl117	Cl	1.087714	-0.099988	0.000110
Cl118	Cl	1.587714	0.400012	0.500110
H119	H	0.181606	0.075931	0.000125
H120	H	0.681606	0.575931	0.500125
Cl121	Cl	1.028208	0.112068	0.398683
Cl122	Cl	1.528208	0.612068	0.898683
Cl123	Cl	1.065872	0.055488	0.601510
Cl124	Cl	1.565872	0.555488	1.101510
Cl125	Cl	1.056213	0.070045	0.806475
Cl126	Cl	1.556213	0.570045	1.306475
Cl127	Cl	0.817436	0.429059	0.806475
Cl128	Cl	1.317436	0.929059	1.306475
H129	H	0.673701	0.450628	0.000065
H130	H	1.173701	0.950628	0.500065
Cl131	Cl	0.799097	0.456506	0.193722
Cl132	Cl	1.299097	0.956506	0.693722
