data_functionalizedCrystal
_audit_creation_method	'MofGen! by Chris Wilmer'
_symmetry_space_group_name_H-M	'P1'
_symmetry_Int_Tables_number	1
_symmetry_cell_setting	triclinic
loop_
_symmetry_equiv_pos_as_xyz
  x,y,z
_cell_length_a	16.109301
_cell_length_b	15.944493
_cell_length_c	15.021413
_cell_angle_alpha	89.991851
_cell_angle_beta	90.004813
_cell_angle_gamma	83.468314
loop_
_atom_site_label
_atom_site_type_symbol
_atom_site_fract_x
_atom_site_fract_y
_atom_site_fract_z
O1	O	1.103149	0.107962	0.073971
O2	O	0.861088	0.121399	0.073982
O3	O	0.988754	-0.007600	0.073984
O4	O	0.975483	0.236961	0.073970
O5	O	0.988734	-0.007586	-0.074080
O6	O	0.861069	0.121413	-0.074082
O7	O	1.103129	0.107976	-0.074093
Zn8	Zn	0.982096	0.114697	-0.097596
Zn9	Zn	0.982122	0.114678	0.097485
O10	O	0.975464	0.236975	-0.074094
C11	C	0.830104	0.120861	-0.000048
C12	C	0.737808	0.119230	-0.000043
C13	C	0.428818	0.190440	-0.000063
C14	C	0.515539	0.191981	-0.000058
C15	C	0.535394	0.038929	-0.000037
C16	C	0.448675	0.037389	-0.000036
C17	C	0.395389	0.113147	-0.000053
C18	C	0.568828	0.116228	-0.000049
C19	C	0.662855	0.117899	-0.000044
C20	C	0.301357	0.111477	-0.000057
C21	C	0.988202	-0.038887	-0.000044
C22	C	0.986576	-0.132136	-0.000033
C23	C	1.061722	-0.367920	-0.000053
C24	C	1.021208	-0.418482	0.072952
C25	C	0.983562	-0.302856	-0.000044
C26	C	1.021171	-0.418444	-0.073028
C27	C	0.980658	-0.467764	-0.000058
C28	C	0.943069	-0.352189	0.073021
C29	C	0.943043	-0.352148	-0.073024
C30	C	0.902472	-0.402677	-0.000001
C31	C	0.985238	-0.207856	-0.000035
C32	C	0.978976	-0.562761	-0.000061
C33	C	1.134114	0.108514	-0.000060
C34	C	1.226409	0.110145	-0.000059
C35	C	0.976016	0.268262	-0.000064
C36	C	0.977642	0.361511	-0.000070
N37	N	0.982084	0.114709	-0.230733
C38	C	0.923541	0.174823	-0.529749
C39	C	0.906733	0.099158	-0.470385
C40	C	0.982121	0.114674	-0.587770
C41	C	0.998871	0.190355	-0.470393
C42	C	0.982101	0.114695	-0.412346
C43	C	0.965276	0.038971	-0.529712
C44	C	1.057447	0.130217	-0.529726
C45	C	1.040671	0.054497	-0.470388
C46	C	0.982130	0.114663	-0.688828
C47	C	0.982092	0.114698	-0.311291
N48	N	0.982140	0.114659	0.230623
H49	H	0.421458	-0.025557	-0.000025
C50	C	0.385200	0.320410	0.076044
C51	C	0.370244	0.273711	-0.000068
H52	H	0.349036	0.371816	0.076044
H53	H	0.441625	0.332387	0.076035
H54	H	0.375069	0.288700	0.127673
H55	H	0.380381	0.305418	-0.051698
H56	H	0.313806	0.261736	-0.000068
C57	C	0.894910	0.301462	-0.616243
C58	C	0.856638	0.243402	-0.564942
H59	H	0.853606	0.343799	-0.637965
H60	H	0.923242	0.273092	-0.664984
H61	H	0.933829	0.326881	-0.580564
H62	H	0.817723	0.217978	-0.600623
H63	H	0.828292	0.271776	-0.516195
C64	C	0.601528	0.282505	0.076061
C65	C	0.552277	0.276948	-0.000060
H66	H	0.624201	0.334966	0.076065
H67	H	0.645675	0.237621	0.076060
H68	H	0.568102	0.278712	0.127684
H69	H	0.585705	0.280736	-0.051683
H70	H	0.508124	0.321845	-0.000067
C71	C	0.954699	-0.271864	0.206731
C72	C	0.898562	-0.313293	0.156446
H73	H	0.927226	-0.247857	0.258238
H74	H	0.974347	-0.228471	0.171914
H75	H	1.000590	-0.311174	0.224158
H76	H	0.852674	-0.273982	0.139013
H77	H	0.878902	-0.356691	0.191269
C78	C	1.007005	-0.110414	-0.534067
C79	C	0.946033	-0.047436	-0.564733
H80	H	0.995125	-0.163754	-0.555694
H81	H	1.006898	-0.110934	-0.470838
H82	H	1.060342	-0.099270	-0.554885
H83	H	0.892697	-0.058577	-0.543910
H84	H	0.946132	-0.046918	-0.627975
H85	H	0.578790	-0.022751	-0.000025
C86	C	1.193339	-0.380446	0.076617
C87	C	1.152591	-0.346803	0.000062
H88	H	1.249431	-0.367392	0.076699
H89	H	1.192948	-0.439969	0.077132
H90	H	1.165280	-0.356782	0.127941
H91	H	1.180647	-0.370472	-0.051262
H92	H	1.152987	-0.287269	-0.000461
C93	C	1.009459	-0.498437	0.206926
C94	C	1.065771	-0.457581	0.156271
H95	H	1.036974	-0.522567	0.258364
H96	H	0.989306	-0.541682	0.172312
H97	H	0.963912	-0.458764	0.224466
H98	H	1.111315	-0.497256	0.138725
H99	H	1.085937	-0.414332	0.190891
H100	H	1.013059	0.254350	-0.444353
C101	C	1.009424	-0.498345	-0.207019
C102	C	1.065733	-0.457503	-0.156348
H103	H	1.036942	-0.522460	-0.258450
H104	H	0.963880	-0.458675	-0.224565
H105	H	0.989272	-0.541608	-0.172408
H106	H	1.085880	-0.414235	-0.190957
H107	H	1.111291	-0.497176	-0.138803
C108	C	0.770804	-0.389764	0.076555
C109	C	0.811519	-0.423535	0.000053
H110	H	0.714657	-0.402648	0.076592
H111	H	0.771368	-0.330263	0.077041
H112	H	0.798771	-0.413490	0.127916
H113	H	0.783556	-0.399804	-0.051308
H114	H	0.810950	-0.483048	-0.000440
H115	H	0.910056	-0.323170	-0.134744
H116	H	0.843024	0.086018	-0.444313
C117	C	1.142723	0.147012	-0.658157
C118	C	1.143427	0.147985	-0.564950
H119	H	1.195806	0.157983	-0.679902
H120	H	1.101013	0.189184	-0.679359
H121	H	1.130886	0.093202	-0.678419
H122	H	1.155257	0.201797	-0.544688
H123	H	1.185150	0.105811	-0.543739
H124	H	1.090204	0.003584	-0.444490
