data_functionalizedCrystal
_audit_creation_method	'MofGen! by Chris Wilmer'
_symmetry_space_group_name_H-M	'P1'
_symmetry_Int_Tables_number	1
_symmetry_cell_setting	triclinic
loop_
_symmetry_equiv_pos_as_xyz
  x,y,z
_cell_length_a	19.805407
_cell_length_b	13.897448
_cell_length_c	19.805398
_cell_angle_alpha	90.023355
_cell_angle_beta	90.015865
_cell_angle_gamma	90.017692
loop_
_atom_site_label
_atom_site_type_symbol
_atom_site_fract_x
_atom_site_fract_y
_atom_site_fract_z
Zn1	Zn	1.034752	-0.384053	0.382732
Zn2	Zn	1.034691	-0.545354	0.269549
Zn3	Zn	0.921574	-0.384075	0.269556
Zn4	Zn	0.921547	-0.545308	0.382695
O5	O	0.978141	-0.464698	0.326133
O6	O	1.129460	-0.405460	0.367730
O7	O	1.019672	-0.523989	0.174833
O8	O	0.936624	-0.249090	0.284588
O9	O	1.129416	-0.523968	0.284575
O10	O	1.019775	-0.249074	0.367737
O11	O	0.936565	-0.405498	0.174839
O12	O	0.826854	-0.405453	0.284552
O13	O	0.936578	-0.523888	0.477417
O14	O	0.826834	-0.523910	0.367675
O15	O	1.019749	-0.405415	0.477443
O16	O	1.019646	-0.680330	0.284539
O17	O	0.936520	-0.680296	0.367668
C18	C	0.802285	-0.464679	0.326111
C19	C	0.727053	-0.464694	0.326118
C20	C	0.691716	-0.526468	0.369330
C21	C	0.621028	-0.526470	0.369339
C22	C	0.585678	-0.464702	0.326133
C23	C	0.621019	-0.402922	0.282919
C24	C	0.691706	-0.402916	0.282913
C25	C	0.335946	-0.402943	0.282941
C26	C	0.265254	-0.402956	0.282949
C27	C	0.265268	-0.526497	0.369367
C28	C	0.335955	-0.526491	0.369362
C29	C	0.371290	-0.464708	0.326151
C30	C	0.447939	-0.464705	0.326142
C31	C	0.509030	-0.464709	0.326138
C32	C	0.978092	-0.715312	0.326113
C33	C	0.978132	-0.822526	0.326128
C34	C	0.978204	-1.018821	0.326170
C35	C	0.978162	-0.909588	0.326149
C36	C	1.154684	-0.464717	0.326155
C37	C	1.229916	-0.464725	0.326165
C38	C	0.978168	-0.464644	0.502676
C39	C	0.978179	-0.464621	0.577908
C40	C	0.978209	-0.213105	0.326167
C41	C	0.978238	-0.105891	0.326182
C42	C	0.978154	-0.464681	0.150277
C43	C	0.978273	-0.464432	0.075045
C44	C	1.021568	-0.402762	1.039714
C45	C	1.021557	-0.402791	0.969026
C46	C	0.978248	-0.464487	0.933670
C47	C	0.934952	-0.526165	0.969006
C48	C	0.934967	-0.526139	1.039693
C49	C	0.934893	-0.526269	0.683933
C50	C	0.934881	-0.526288	0.613240
C51	C	1.021484	-0.402921	0.613265
C52	C	1.021498	-0.402896	0.683952
C53	C	0.978205	-0.464576	0.719282
C54	C	0.978218	-0.464545	0.795931
C55	C	0.978232	-0.464515	0.857023
H56	H	0.236473	-0.352651	0.247765
H57	H	0.364734	-0.576792	0.404542
H58	H	0.592231	-0.352625	0.247743
N59	N	0.727834	-0.589565	0.413455
N60	N	0.767258	-0.650982	0.389561
H61	H	0.792766	-0.695544	0.420727
N62	N	0.584943	-0.589570	0.413488
N63	N	0.616514	-0.644716	0.452060
H64	H	0.591030	-0.689283	0.483244
N65	N	0.890740	-0.589118	1.075796
N66	N	0.890758	-0.589087	1.138909
H67	H	0.859523	-0.633570	1.164407
N68	N	1.065805	-0.339723	1.075816
N69	N	1.104456	-0.284664	1.044258
H70	H	1.135700	-0.240141	1.069752
N71	N	0.372042	-0.339841	0.238807
N72	N	0.411503	-0.278411	0.262690
H73	H	0.436998	-0.233842	0.231517
H74	H	0.720476	-0.352609	0.247729
N75	N	0.890651	-0.589317	0.577113
N76	N	0.890646	-0.589325	0.514001
H77	H	0.859410	-0.633835	0.488484
N78	N	0.229162	-0.589604	0.413503
N79	N	0.166049	-0.589606	0.413505
H80	H	0.140549	-0.634176	0.444673
N81	N	1.065738	-0.339889	0.720077
N82	N	1.065746	-0.339878	0.783190
H83	H	1.096993	-0.295381	0.808703
N84	N	1.065791	-0.339798	0.932946
N85	N	1.104456	-0.284717	0.964522
H86	H	1.135700	-0.240226	0.939042
N87	N	1.065704	-0.339919	0.577165
N88	N	1.065688	-0.339946	0.514052
H89	H	1.096915	-0.295450	0.488556
H90	H	0.899641	-0.576492	0.712690
H91	H	0.899693	-0.576403	0.940214
