data_functionalizedCrystal
_audit_creation_method	'MofGen! by Chris Wilmer'
_symmetry_space_group_name_H-M	'P1'
_symmetry_Int_Tables_number	1
_symmetry_cell_setting	triclinic
loop_
_symmetry_equiv_pos_as_xyz
  x,y,z
_cell_length_a	14.908571
_cell_length_b	17.640280
_cell_length_c	14.908662
_cell_angle_alpha	81.377939
_cell_angle_beta	83.592432
_cell_angle_gamma	74.921313
loop_
_atom_site_label
_atom_site_type_symbol
_atom_site_fract_x
_atom_site_fract_y
_atom_site_fract_z
Zn1	Zn	1.504201	-0.416139	-0.500831
Zn2	Zn	1.522462	-0.540228	-0.322426
Zn3	Zn	1.340572	-0.399970	-0.344289
Zn4	Zn	1.379881	-0.540168	-0.465038
O5	O	1.436779	-0.474126	-0.408146
O6	O	1.634773	-0.439392	-0.482995
O7	O	1.489525	-0.514880	-0.200130
O8	O	1.338185	-0.291509	-0.389184
O9	O	1.648190	-0.530559	-0.351922
O10	O	1.458402	-0.303389	-0.504195
O11	O	1.355892	-0.411833	-0.216192
O12	O	1.217637	-0.411775	-0.354477
O13	O	1.405181	-0.530458	-0.594983
O14	O	1.246517	-0.514779	-0.443190
O15	O	1.496518	-0.439334	-0.621280
O16	O	1.527642	-0.650825	-0.317215
O17	O	1.422888	-0.650781	-0.421991
C18	C	1.198849	-0.461517	-0.397322
C19	C	1.097067	-0.456143	-0.392709
C20	C	0.935953	-0.553450	-0.476230
C21	C	0.840321	-0.548403	-0.471898
C22	C	0.810168	-0.440999	-0.379719
C23	C	0.905801	-0.446046	-0.384051
C24	C	0.968690	-0.502274	-0.432307
C25	C	1.064325	-0.507324	-0.436633
C26	C	1.034170	-0.399916	-0.344460
C27	C	0.938538	-0.394870	-0.340128
C28	C	1.481538	-0.679484	-0.363367
C29	C	1.500772	-0.767343	-0.344244
C30	C	1.291060	-1.056293	-0.553764
C31	C	1.309133	-1.138849	-0.535766
C32	C	1.418293	-1.138839	-0.426782
C33	C	1.400233	-1.056282	-0.444773
C34	C	1.336614	-1.015016	-0.508264
C35	C	1.445788	-1.015004	-0.399274
C36	C	1.427725	-0.932454	-0.417261
C37	C	1.364107	-0.891182	-0.480747
C38	C	1.318551	-0.932466	-0.526251
C39	C	1.509401	-1.056272	-0.335778
C40	C	1.554956	-1.014994	-0.290279
C41	C	1.536898	-0.932443	-0.308270
C42	C	1.473280	-0.891171	-0.371756
C43	C	1.582454	-0.891159	-0.262766
C44	C	1.564391	-0.808609	-0.280753
C45	C	1.455217	-0.808621	-0.389743
C46	C	1.675638	-0.486785	-0.419012
C47	C	1.777426	-0.492180	-0.423643
C48	C	1.453198	-0.486693	-0.641501
C49	C	1.460194	-0.492048	-0.740943
C50	C	1.391872	-0.267969	-0.453121
C51	C	1.372735	-0.180117	-0.472286
C52	C	1.539619	-0.553241	-0.872743
C53	C	1.533053	-0.548214	-0.779308
C54	C	1.393895	-0.440908	-0.796020
C55	C	1.400462	-0.445935	-0.889456
C56	C	1.473327	-0.502103	-0.927813
C57	C	1.479896	-0.507126	-1.021252
C58	C	1.340736	-0.399824	-1.037961
C59	C	1.334169	-0.394797	-0.944526
C60	C	1.420465	-0.461554	-0.175714
C61	C	1.413597	-0.455985	-0.076329
H62	H	1.115529	-0.553109	-0.475924
H63	H	1.601485	-0.775001	-0.243702
Cl64	Cl	1.015018	-0.624142	-0.536881
Cl65	Cl	1.257397	-0.335528	-1.107200
Cl66	Cl	1.251845	-1.190738	-0.592962
Cl67	Cl	1.498270	-1.190724	-0.346970
H68	H	1.349395	-0.823964	-0.495384
H69	H	1.524108	-1.123490	-0.321138
H70	H	1.606751	-1.048604	-0.238582
Cl71	Cl	1.631227	-0.623839	-0.920971
Cl72	Cl	1.075331	-0.335583	-0.289230
Cl73	Cl	1.238581	-0.880583	-0.606079
H74	H	1.634245	-0.924770	-0.211065
Cl75	Cl	1.571499	-0.577733	-1.069473
H76	H	1.334566	-0.395186	-0.764771
Cl77	Cl	1.242585	-0.324179	-0.896299
H78	H	0.758947	-0.395216	-0.340438
Cl79	Cl	1.616394	-0.612506	-0.710078
H80	H	0.813671	-0.590074	-0.507666
H81	H	0.887320	-0.349088	-0.300842
H82	H	1.403420	-0.775021	-0.441451
H83	H	1.239262	-1.022694	-0.605471
