data_functionalizedCrystal
_audit_creation_method	'MofGen! by Chris Wilmer'
_symmetry_space_group_name_H-M	'P1'
_symmetry_Int_Tables_number	1
_symmetry_cell_setting	triclinic
loop_
_symmetry_equiv_pos_as_xyz
  x,y,z
_cell_length_a	10.686285
_cell_length_b	19.805407
_cell_length_c	19.805399
_cell_angle_alpha	90.016886
_cell_angle_beta	85.609337
_cell_angle_gamma	94.368493
loop_
_atom_site_label
_atom_site_type_symbol
_atom_site_fract_x
_atom_site_fract_y
_atom_site_fract_z
Zn1	Zn	-0.502358	-1.055482	-0.362111
Zn2	Zn	-0.713374	-1.064125	-0.240266
Zn3	Zn	-0.502398	-0.942304	-0.248934
Zn4	Zn	-0.713302	-0.950980	-0.353416
O5	O	-0.607858	-1.003223	-0.301182
O6	O	-0.530363	-1.151346	-0.345960
O7	O	-0.685435	-1.047951	-0.146697
O8	O	-0.325817	-0.950070	-0.271214
O9	O	-0.685396	-1.157695	-0.256441
O10	O	-0.325788	-1.033221	-0.354364
O11	O	-0.530431	-0.958450	-0.153066
O12	O	-0.530361	-0.848738	-0.262782
O13	O	-0.685273	-0.964856	-0.449288
O14	O	-0.685311	-0.855112	-0.339545
O15	O	-0.530293	-1.041634	-0.455676
O16	O	-0.889940	-1.056363	-0.248009
O17	O	-0.889887	-0.973236	-0.331140
C18	C	-0.607834	-0.827366	-0.301161
C19	C	-0.607854	-0.752134	-0.301167
C20	C	-0.935697	-1.016697	-0.287705
C21	C	-1.075948	-1.022524	-0.281963
C22	C	-0.607770	-1.003249	-0.477728
C23	C	-0.607733	-1.003260	-0.552962
C24	C	-0.278738	-0.989714	-0.314726
C25	C	-0.138487	-0.983957	-0.320498
C26	C	-0.607883	-1.179766	-0.301203
C27	C	-0.607894	-1.254999	-0.301212
C28	C	-0.688658	-0.720132	-0.341062
C29	C	-0.688660	-0.649444	-0.341071
C30	C	-0.607864	-0.610759	-0.301182
C31	C	-0.527051	-0.642766	-0.261285
C32	C	-0.527043	-0.713453	-0.261280
C33	C	-0.527078	-0.357694	-0.261306
C34	C	-0.527095	-0.287003	-0.261313
C35	C	-0.688696	-0.293685	-0.341098
C36	C	-0.688688	-0.364371	-0.341093
C37	C	-0.607871	-0.396372	-0.301199
C38	C	-0.607868	-0.473020	-0.301190
C39	C	-0.607872	-0.534112	-0.301186
C40	C	-0.527015	-0.956669	-0.591622
C41	C	-0.526991	-0.956677	-0.662311
C42	C	-0.607678	-1.003280	-0.694340
C43	C	-0.688405	-1.049874	-0.655674
C44	C	-0.688435	-1.049862	-0.584986
C45	C	-0.688287	-1.049922	-0.940753
C46	C	-0.688248	-1.049932	-1.011446
C47	C	-0.526843	-0.956738	-1.018078
C48	C	-0.526873	-0.956726	-0.947389
C49	C	-0.607603	-1.003316	-0.908730
C50	C	-0.607631	-1.003306	-0.832081
C51	C	-0.607646	-1.003294	-0.770988
C52	C	-0.607854	-1.003232	-0.125326
C53	C	-0.607536	-1.003337	-0.050107
H54	H	-1.129708	-1.059997	-0.244570
H55	H	-0.754496	-0.267621	-0.373584
C56	C	-0.777537	-0.762682	-0.384942
C57	C	-0.920969	-0.758856	-0.373400
C58	C	-1.009848	-0.801404	-0.417284
C59	C	-0.955293	-0.847778	-0.472709
C60	C	-0.811853	-0.851605	-0.484253
C61	C	-0.722975	-0.809057	-0.440370
H62	H	-0.961361	-0.724526	-0.332369
H63	H	-1.116032	-0.798571	-0.408737
H64	H	-1.021086	-0.879274	-0.505194
H65	H	-0.771462	-0.885936	-0.525284
H66	H	-0.616791	-0.811891	-0.448916
C67	C	-0.438257	-0.905403	-0.556394
C68	C	-0.438281	-0.905386	-0.478640
C69	C	-0.349523	-0.854116	-0.443414
C70	C	-0.260742	-0.802864	-0.485942
C71	C	-0.260714	-0.802879	-0.563701
C72	C	-0.349472	-0.854148	-0.598926
H73	H	-0.504005	-0.943328	-0.447154
H74	H	-0.349544	-0.854106	-0.385851
H75	H	-0.195038	-0.764911	-0.459866
H76	H	-0.194990	-0.764937	-0.595187
H77	H	-0.349451	-0.854159	-0.656489
C78	C	-0.777563	-0.406923	-0.384974
C79	C	-0.920997	-0.403100	-0.373434
C80	C	-1.009870	-0.445650	-0.417319
C81	C	-0.955310	-0.492022	-0.472743
C82	C	-0.811868	-0.495846	-0.484286
C83	C	-0.722995	-0.453297	-0.440401
H84	H	-0.961393	-0.368771	-0.332403
H85	H	-1.116055	-0.442818	-0.408774
H86	H	-1.021099	-0.523520	-0.505229
H87	H	-0.771473	-0.530176	-0.525316
H88	H	-0.616811	-0.456128	-0.448946
C89	C	-0.438192	-0.392882	-0.217412
C90	C	-0.339169	-0.437413	-0.250879
C91	C	-0.250280	-0.472600	-0.206979
C92	C	-0.260413	-0.463256	-0.129611
C93	C	-0.359440	-0.418723	-0.096140
C94	C	-0.448330	-0.383536	-0.140040
H95	H	-0.331664	-0.444331	-0.308155
H96	H	-0.176973	-0.505566	-0.231757
H97	H	-0.194612	-0.489303	-0.097113
H98	H	-0.366946	-0.411804	-0.038864
H99	H	-0.521636	-0.350569	-0.115262
H100	H	-1.084735	-0.946481	-0.357883
H101	H	-0.461237	-0.739508	-0.228797
H102	H	-0.754460	-0.623391	-0.373557
H103	H	-0.461293	-0.255507	-0.228830
C104	C	-0.438186	-0.905429	-0.704834
C105	C	-0.448454	-0.828903	-0.694679
C106	C	-0.359643	-0.777653	-0.737200
C107	C	-0.260564	-0.802929	-0.789878
C108	C	-0.250293	-0.879459	-0.800036
C109	C	-0.339104	-0.930709	-0.757514
H110	H	-0.521801	-0.810189	-0.655681
H111	H	-0.367247	-0.721001	-0.729680
H112	H	-0.194821	-0.764991	-0.821355
H113	H	-0.176946	-0.898173	-0.839033
H114	H	-0.331500	-0.987361	-0.765034
H115	H	-0.754109	-1.087816	-0.681757
C116	C	-0.438046	-0.905480	-1.060605
C117	C	-0.492688	-0.854587	-1.106941
C118	C	-0.403891	-0.803333	-1.149465
C119	C	-0.260451	-0.802972	-1.145654
C120	C	-0.205801	-0.853867	-1.099316
C121	C	-0.294598	-0.905121	-1.056791
H122	H	-0.598877	-0.854853	-1.109764
H123	H	-0.444347	-0.765658	-1.183768
H124	H	-0.194718	-0.765031	-1.177133
H125	H	-0.099612	-0.853602	-1.096492
H126	H	-0.254142	-0.942797	-1.022489
H127	H	-0.461259	-0.611264	-0.228809
H128	H	-0.461164	-0.918779	-0.921316
C129	C	-0.777017	-1.101196	-1.046679
C130	C	-0.920466	-1.101551	-1.031060
C131	C	-1.009228	-1.152813	-1.066293
C132	C	-0.954540	-1.203720	-1.117143
C133	C	-0.811084	-1.203367	-1.132764
C134	C	-0.722322	-1.152105	-1.097531
H135	H	-0.960956	-1.063865	-0.993416
H136	H	-1.115424	-1.153074	-1.054729
H137	H	-1.020247	-1.241667	-1.143224
H138	H	-0.770594	-1.241053	-1.170409
H139	H	-0.616126	-1.151844	-1.109095
H140	H	-0.754037	-1.087853	-0.909284
C141	C	-0.777224	-1.101114	-0.542457
C142	C	-0.865978	-1.152379	-0.577684
C143	C	-0.954774	-1.203631	-0.535156
C144	C	-0.954816	-1.203617	-0.457401
C145	C	-0.866058	-1.152351	-0.422170
C146	C	-0.777262	-1.101099	-0.464698
H147	H	-0.865950	-1.152390	-0.635247
H148	H	-1.020478	-1.241582	-0.561237
H149	H	-1.020548	-1.241557	-0.425919
H150	H	-0.866086	-1.152339	-0.364608
H151	H	-0.711558	-1.063148	-0.438618
