data_functionalizedCrystal
_audit_creation_method	'MofGen! by Chris Wilmer'
_symmetry_space_group_name_H-M	'P1'
_symmetry_Int_Tables_number	1
_symmetry_cell_setting	triclinic
loop_
_symmetry_equiv_pos_as_xyz
  x,y,z
_cell_length_a	27.732048
_cell_length_b	10.723024
_cell_length_c	9.798715
_cell_angle_alpha	90.001978
_cell_angle_beta	89.998175
_cell_angle_gamma	83.555262
loop_
_atom_site_label
_atom_site_type_symbol
_atom_site_fract_x
_atom_site_fract_y
_atom_site_fract_z
O1	O	-0.641849	-0.148462	-0.113312
O2	O	-0.501195	-0.171036	-0.113353
O3	O	-0.574766	0.021961	-0.113327
O4	O	-0.568278	-0.341460	-0.113339
O5	O	-0.574761	0.021962	0.113656
O6	O	-0.501190	-0.171036	0.113629
O7	O	-0.641843	-0.148462	0.113670
Zn8	Zn	-0.571516	-0.159749	0.149688
Zn9	Zn	-0.571523	-0.159749	-0.149371
O10	O	-0.568272	-0.341459	0.113644
C11	C	-0.483183	-0.170562	0.000133
C12	C	-0.429519	-0.169135	0.000117
C13	C	-0.659856	-0.148936	0.000181
C14	C	-0.713519	-0.150363	0.000188
C15	C	-0.091356	-0.274201	0.000173
C16	C	0.110336	-0.268907	0.000185
O17	O	0.140995	-0.364983	0.000241
N18	N	0.130171	-0.154468	0.000187
C19	C	0.099578	-0.041344	0.000194
O20	O	0.121077	0.056116	0.000209
C21	C	-0.102113	-0.046639	0.000191
C22	C	-0.121945	-0.161086	0.000176
C23	C	-0.111188	-0.388639	0.000159
C24	C	-0.161608	-0.389961	0.000149
C25	C	-0.192197	-0.276846	0.000152
C26	C	-0.172365	-0.162408	0.000166
C27	C	-0.132704	0.066484	0.000208
C28	C	-0.183130	0.065150	0.000211
C29	C	-0.202961	-0.049297	0.000196
C30	C	-0.253373	-0.050615	0.000158
N31	N	-0.273207	-0.165055	0.000157
C32	C	-0.242619	-0.278170	0.000154
C33	C	0.205470	-0.038571	0.000193
C34	C	0.255892	-0.037247	0.000191
C35	C	0.266647	-0.264811	0.000185
C36	C	0.216223	-0.266134	0.000177
C37	C	0.185635	-0.153011	0.000191
C38	C	-0.348506	-0.280938	0.000130
C39	C	-0.398931	-0.282251	0.000114
C40	C	-0.409681	-0.054687	0.000127
C41	C	-0.359260	-0.053374	0.000136
C42	C	-0.328673	-0.166510	0.000143
O43	O	-0.284061	0.045409	0.000118
O44	O	-0.264127	-0.375615	0.000169
C45	C	-0.040936	-0.272879	0.000184
C46	C	-0.021104	-0.158441	0.000197
C47	C	-0.051692	-0.045326	0.000200
C48	C	0.029318	-0.157117	0.000195
C49	C	0.059907	-0.270232	0.000192
C50	C	0.040072	-0.384672	0.000191
C51	C	-0.010348	-0.385994	0.000180
C52	C	-0.031858	0.069114	0.000202
C53	C	0.018563	0.070427	0.000211
C54	C	0.049151	-0.042689	0.000208
C55	C	-0.574291	0.068442	0.000163
C56	C	-0.572879	0.206937	0.000158
C57	C	-0.568747	-0.387939	0.000151
C58	C	-0.570160	-0.526435	0.000147
N59	N	-0.571514	-0.159748	0.353788
C60	C	-0.614045	0.283624	0.000168
C61	C	-0.612586	0.426767	0.000162
N62	N	-0.571528	-0.159740	-0.353471
C63	C	-0.602405	-0.078362	0.421576
C64	C	-0.602412	-0.078357	0.578738
H65	H	-0.415074	-0.375451	0.000101
H66	H	-0.650369	0.243305	0.000186
F67	F	-0.338153	0.068432	0.000153
F68	F	-0.658651	0.512887	0.000183
F69	F	-0.315960	-0.401350	0.000138
F70	F	0.039662	0.192246	0.000209
F71	F	-0.524092	0.387452	0.000146
H72	H	-0.434595	0.037408	0.000125
F73	F	-0.182708	-0.511772	0.000139
F74	F	-0.536951	-0.250814	0.430004
F75	F	-0.525398	0.259630	0.000131
F76	F	-0.636983	0.012714	0.654930
F77	F	-0.078641	-0.509043	0.000156
F78	F	0.195122	-0.387943	0.000163
F79	F	0.299209	-0.385198	0.000183
H80	H	-0.628844	-0.008682	0.363262
F81	F	0.276993	0.084563	0.000176
H82	H	0.180569	0.053553	0.000204
F83	F	-0.031447	-0.507805	0.000165
H84	H	-0.116567	0.159679	0.000222
H85	H	-0.208033	0.157271	0.000224
F86	F	0.072635	-0.505058	0.000181
F87	F	-0.064406	0.189514	0.000208
H88	H	-0.545082	-0.229426	0.588243
