data_functionalizedCrystal
_audit_creation_method	'MofGen! by Chris Wilmer'
_symmetry_space_group_name_H-M	'P1'
_symmetry_Int_Tables_number	1
_symmetry_cell_setting	triclinic
loop_
_symmetry_equiv_pos_as_xyz
  x,y,z
_cell_length_a	11.792241
_cell_length_b	8.559649
_cell_length_c	7.088929
_cell_angle_alpha	95.344185
_cell_angle_beta	83.749367
_cell_angle_gamma	76.986040
loop_
_atom_site_label
_atom_site_type_symbol
_atom_site_fract_x
_atom_site_fract_y
_atom_site_fract_z
O1	O	-1.473819	-0.235133	-0.158796
O2	O	-1.141410	-0.257691	-0.158840
O3	O	-1.336900	-0.014063	-0.158812
O4	O	-1.278329	-0.478761	-0.158824
O5	O	-1.363032	0.018570	0.159167
O6	O	-1.167542	-0.225058	0.159139
O7	O	-1.499951	-0.202500	0.159183
Cu8	Cu	-1.336133	-0.210800	0.188195
Cu9	Cu	-1.305229	-0.249391	-0.187852
O10	O	-1.304461	-0.446128	0.159155
C11	C	-1.112314	-0.239958	0.000144
C12	C	-0.986687	-0.235720	0.000127
C13	C	-1.354405	0.061745	0.000174
C14	C	-1.367616	0.239009	0.000165
C15	C	-1.529047	-0.220233	0.000195
C16	C	-1.654673	-0.224473	0.000199
C17	C	-0.756693	-0.227917	0.000182
C18	C	-0.884680	-0.232252	0.000152
C19	C	-1.286956	-0.521936	0.000164
C20	C	-1.273744	-0.699202	0.000161
N21	N	-1.357877	-0.183655	0.452686
N22	N	-1.283494	-0.276523	-0.452343
H23	H	-1.458100	0.321734	0.000192
H24	H	-1.183268	0.218085	0.000155
O25	O	-1.191655	-0.391422	0.450044
C26	C	-1.234461	-0.502184	0.334281
H27	H	-1.326272	-0.442303	0.304476
H28	H	-1.238286	-0.612383	0.411308
C29	C	-1.039269	-0.628748	0.180646
C30	C	-1.152029	-0.555197	0.144025
H31	H	-0.988419	-0.661456	0.063290
H32	H	-1.010428	-0.554130	0.258642
H33	H	-1.042473	-0.720572	0.244839
H34	H	-1.148826	-0.463364	0.079855
H35	H	-1.180868	-0.629801	0.066014
O36	O	-1.449807	-0.068641	0.549891
C37	C	-1.440986	0.084567	0.501162
H38	H	-1.385374	0.069891	0.355782
H39	H	-1.397971	0.145824	0.613791
C40	C	-1.632886	0.207026	0.670731
C41	C	-1.564590	0.189001	0.492165
H42	H	-1.709130	0.271450	0.665189
H43	H	-1.638828	0.103809	0.703567
H44	H	-1.597026	0.258068	0.764570
H45	H	-1.600442	0.137942	0.398335
H46	H	-1.558657	0.292213	0.459312
