data_functionalizedCrystal
_audit_creation_method	'MofGen! by Chris Wilmer'
_symmetry_space_group_name_H-M	'P1'
_symmetry_Int_Tables_number	1
_symmetry_cell_setting	triclinic
loop_
_symmetry_equiv_pos_as_xyz
  x,y,z
_cell_length_a	25.639242
_cell_length_b	25.639240
_cell_length_c	19.077237
_cell_angle_alpha	92.274109
_cell_angle_beta	87.679396
_cell_angle_gamma	90.026961
loop_
_atom_site_label
_atom_site_type_symbol
_atom_site_fract_x
_atom_site_fract_y
_atom_site_fract_z
Zn1	Zn	0.811127	-0.220105	-0.398122
Zn2	Zn	1.144460	0.113228	-0.064789
Zn3	Zn	1.477793	0.446561	0.268544
Zn4	Zn	0.807549	-0.304030	-0.280432
Zn5	Zn	1.140883	0.029303	0.052901
Zn6	Zn	1.474216	0.362637	0.386234
Zn7	Zn	0.720192	-0.216602	-0.280423
Zn8	Zn	1.053525	0.116731	0.052910
Zn9	Zn	1.386858	0.450064	0.386244
Zn10	Zn	0.723657	-0.307502	-0.398072
Zn11	Zn	1.056990	0.025831	-0.064739
Zn12	Zn	1.390323	0.359165	0.268595
O13	O	0.765631	-0.262060	-0.339262
O14	O	1.098964	0.071273	-0.005929
O15	O	1.432298	0.404607	0.327404
O16	O	0.883818	-0.231251	-0.382535
O17	O	1.217151	0.102083	-0.049202
O18	O	1.550485	0.435416	0.284131
O19	O	0.793014	-0.289513	-0.181941
O20	O	1.126347	0.043820	0.151392
O21	O	1.459680	0.377153	0.484726
O22	O	0.732301	-0.143902	-0.296053
O23	O	1.065635	0.189431	0.037280
O24	O	1.398968	0.522764	0.370614
O25	O	0.881190	-0.292910	-0.296069
O26	O	1.214523	0.040423	0.037264
O27	O	1.547856	0.373757	0.370598
O28	O	0.799111	-0.146476	-0.382526
O29	O	1.132444	0.186858	-0.049193
O30	O	1.465778	0.520191	0.284140
O31	O	0.728832	-0.225281	-0.181934
O32	O	1.062166	0.108053	0.151399
O33	O	1.395499	0.441386	0.484733
O34	O	0.647485	-0.228647	-0.296004
O35	O	0.980819	0.104686	0.037329
O36	O	1.314152	0.438019	0.370662
O37	O	0.738207	-0.298828	-0.496569
O38	O	1.071541	0.034505	-0.163236
O39	O	1.404874	0.367839	0.170098
O40	O	0.650031	-0.295431	-0.382441
O41	O	0.983365	0.037902	-0.049107
O42	O	1.316698	0.371235	0.284226
O43	O	0.802471	-0.234618	-0.496606
O44	O	1.135804	0.098716	-0.163272
O45	O	1.469138	0.432049	0.170061
O46	O	0.796374	-0.377655	-0.296021
O47	O	1.129707	-0.044322	0.037313
O48	O	1.463040	0.289011	0.370646
O49	O	0.734738	-0.380206	-0.382450
O50	O	1.068072	-0.046873	-0.049117
O51	O	1.401405	0.286460	0.284217
C52	C	0.629787	-0.262036	-0.339217
C53	C	0.963121	0.071297	-0.005883
C54	C	1.296454	0.404630	0.327450
C55	C	0.571673	-0.262039	-0.339214
C56	C	0.905006	0.071294	-0.005880
C57	C	1.238340	0.404627	0.327453
C58	C	0.319149	-0.227232	-0.294333
C59	C	0.652482	0.106101	0.039000
C60	C	0.985816	0.439435	0.372334
C61	C	0.373753	-0.227227	-0.294324
C62	C	0.707086	0.106106	0.039009
C63	C	1.040420	0.439440	0.372343
O64	O	0.400857	-0.197600	-0.256125
O65	O	0.734190	0.135733	0.077208
O66	O	1.067524	0.469066	0.410542
N67	N	0.402400	-0.262047	-0.339249
N68	N	0.735734	0.071286	-0.005916
N69	N	1.069067	0.404620	0.327418
C70	C	0.376441	-0.296871	-0.384191
C71	C	0.709774	0.036463	-0.050858
C72	C	1.043107	0.369796	0.282475
O73	O	0.405821	-0.326487	-0.422403
O74	O	0.739155	0.006846	-0.089070
O75	O	1.072488	0.340180	0.244263
C76	C	0.321838	-0.296873	-0.384203
C77	C	0.655171	0.036460	-0.050870
C78	C	0.988505	0.369794	0.282463
C79	C	0.293193	-0.262054	-0.339270
C80	C	0.626527	0.071279	-0.005937
C81	C	0.959860	0.404612	0.327397
C82	C	0.290504	-0.192416	-0.249404
C83	C	0.623838	0.140918	0.083929
C84	C	0.957171	0.474251	0.417263
C85	C	0.235904	-0.192422	-0.249412
C86	C	0.569237	0.140912	0.083921
C87	C	0.902571	0.474245	0.417255
C88	C	0.209948	-0.227244	-0.294349
C89	C	0.543282	0.106089	0.038984
C90	C	0.876615	0.439423	0.372317
C91	C	0.238593	-0.262060	-0.339278
C92	C	0.571926	0.071273	-0.005945
C93	C	0.905260	0.404607	0.327388
C94	C	0.295880	-0.331694	-0.429148
C95	C	0.629213	0.001639	-0.095815
C96	C	0.962546	0.334973	0.237518
C97	C	0.241273	-0.331693	-0.429157
C98	C	0.574606	0.001641	-0.095824
C99	C	0.907939	0.334974	0.237510
C100	C	0.212628	-0.296874	-0.384224
C101	C	0.545961	0.036459	-0.050890
C102	C	0.879295	0.369793	0.282443
C103	C	0.158037	-0.296888	-0.384224
C104	C	0.491370	0.036445	-0.050890
C105	C	0.824704	0.369778	0.282443
N106	N	0.129390	-0.262068	-0.339298
N107	N	0.462723	0.071265	-0.005965
N108	N	0.796056	0.404598	0.327368
C109	C	0.155345	-0.227246	-0.294361
C110	C	0.488679	0.106087	0.038972
C111	C	0.822012	0.439421	0.372305
C112	C	0.491111	-0.296863	-0.384164
C113	C	0.824444	0.036470	-0.050830
C114	C	1.157777	0.369804	0.282503
C115	C	0.545712	-0.296864	-0.384149
C116	C	0.879046	0.036470	-0.050815
C117	C	1.212379	0.369803	0.282518
C118	C	0.543021	-0.227219	-0.294282
C119	C	0.876354	0.106114	0.039051
C120	C	1.209688	0.439448	0.372385
C121	C	0.488418	-0.227221	-0.294294
C122	C	0.821751	0.106112	0.039039
C123	C	1.155085	0.439445	0.372373
C124	C	0.462463	-0.262043	-0.339238
C125	C	0.795797	0.071290	-0.005905
C126	C	1.129130	0.404624	0.327428
C127	C	0.040681	-0.227261	-0.294381
C128	C	0.374014	0.106072	0.038952
C129	C	0.707348	0.439405	0.372285
C130	C	-0.013924	-0.227272	-0.294392
C131	C	0.319409	0.106061	0.038942
C132	C	0.652743	0.439395	0.372275
C133	C	-0.011228	-0.296914	-0.384260
C134	C	0.322106	0.036419	-0.050927
C135	C	0.655439	0.369752	0.282406
C136	C	0.043372	-0.296906	-0.384248
C137	C	0.376706	0.036427	-0.050915
C138	C	0.710039	0.369761	0.282419
C139	C	0.069325	-0.262075	-0.339306
C140	C	0.402659	0.071258	-0.005973
C141	C	0.735992	0.404591	0.327361
O142	O	0.130898	-0.326498	-0.422405
O143	O	0.464231	0.006835	-0.089072
O144	O	0.797564	0.340168	0.244262
O145	O	0.125959	-0.197630	-0.256162
O146	O	0.459292	0.135703	0.077171
O147	O	0.792625	0.469037	0.410505
C148	C	0.765558	-0.397902	-0.339246
C149	C	1.098892	-0.064569	-0.005913
C150	C	1.432225	0.268765	0.327420
C151	C	0.765576	-0.456016	-0.339263
C152	C	1.098909	-0.122683	-0.005930
C153	C	1.432243	0.210650	0.327404
C154	C	0.800417	-0.708500	-0.384335
C155	C	1.133751	-0.375167	-0.051002
C156	C	1.467084	-0.041833	0.282332
C157	C	0.800401	-0.653896	-0.384330
C158	C	1.133735	-0.320562	-0.050996
C159	C	1.467068	0.012771	0.282337
O160	O	0.829964	-0.626755	-0.422628
O161	O	1.163297	-0.293422	-0.089295
O162	O	1.496631	0.039911	0.244038
N163	N	0.765633	-0.625291	-0.339272
N164	N	1.098967	-0.291957	-0.005938
N165	N	1.432300	0.041376	0.327395
C166	C	0.730882	-0.651293	-0.294211
C167	C	1.064216	-0.317959	0.039122
C168	C	1.397549	0.015374	0.372456
O169	O	0.701308	-0.621948	-0.255885
O170	O	1.034642	-0.288615	0.077449
O171	O	1.367975	0.044719	0.410782
C172	C	0.730901	-0.705896	-0.294213
C173	C	1.064235	-0.372563	0.039120
C174	C	1.397568	-0.039229	0.372453
C175	C	0.765668	-0.734498	-0.339279
C176	C	1.099001	-0.401165	-0.005946
C177	C	1.432335	-0.067832	0.327387
C178	C	0.835182	-0.737102	-0.429397
C179	C	1.168515	-0.403769	-0.096064
C180	C	1.501848	-0.070436	0.237270
C181	C	0.835197	-0.791703	-0.429403
C182	C	1.168530	-0.458370	-0.096070
C183	C	1.501863	-0.125036	0.237264
C184	C	0.800447	-0.817702	-0.384347
C185	C	1.133781	-0.484368	-0.051014
C186	C	1.467114	-0.151035	0.282319
C187	C	0.765683	-0.789099	-0.339285
C188	C	1.099016	-0.455766	-0.005952
C189	C	1.432350	-0.122433	0.327381
C190	C	0.696153	-0.731897	-0.249150
C191	C	1.029487	-0.398564	0.084184
C192	C	1.362820	-0.065230	0.417517
C193	C	0.696175	-0.786504	-0.249155
C194	C	1.029509	-0.453171	0.084178
C195	C	1.362842	-0.119838	0.417511
C196	C	0.730942	-0.815107	-0.294221
C197	C	1.064275	-0.481773	0.039112
C198	C	1.397609	-0.148440	0.372445
C199	C	0.730949	-0.869698	-0.294236
C200	C	1.064282	-0.536365	0.039098
C201	C	1.397616	-0.203032	0.372431
N202	N	0.765717	-0.898303	-0.339294
N203	N	1.099050	-0.564970	-0.005960
N204	N	1.432384	-0.231637	0.327373
C205	C	0.800466	-0.872305	-0.384349
C206	C	1.133800	-0.538972	-0.051016
C207	C	1.467133	-0.205638	0.282317
C208	C	0.730846	-0.536622	-0.294209
C209	C	1.064180	-0.203289	0.039125
C210	C	1.397513	0.130045	0.372458
C211	C	0.730824	-0.482020	-0.294209
C212	C	1.064158	-0.148686	0.039124
C213	C	1.397491	0.184647	0.372457
C214	C	0.800344	-0.484626	-0.384327
C215	C	1.133678	-0.151293	-0.050994
C216	C	1.467011	0.182040	0.282339
C217	C	0.800363	-0.539230	-0.384330
C218	C	1.133696	-0.205896	-0.050996
C219	C	1.467030	0.127437	0.282337
C220	C	0.765614	-0.565227	-0.339267
C221	C	1.098948	-0.231894	-0.005933
C222	C	1.432281	0.101440	0.327400
C223	C	0.800495	-0.986970	-0.384359
C224	C	1.133828	-0.653637	-0.051026
C225	C	1.467162	-0.320304	0.282307
C226	C	0.800505	-1.041576	-0.384363
C227	C	1.133839	-0.708242	-0.051030
C228	C	1.467172	-0.374909	0.282303
C229	C	0.730988	-1.038964	-0.294243
C230	C	1.064321	-0.705631	0.039090
C231	C	1.397654	-0.372298	0.372424
C232	C	0.730975	-0.984364	-0.294241
C233	C	1.064308	-0.651030	0.039092
C234	C	1.397642	-0.317697	0.372425
C235	C	0.765733	-0.958368	-0.339302
C236	C	1.099066	-0.625035	-0.005968
C237	C	1.432400	-0.291701	0.327365
O238	O	0.701403	-0.896874	-0.255955
O239	O	1.034736	-0.563541	0.077379
O240	O	1.368069	-0.230207	0.410712
O241	O	0.830040	-0.901656	-0.422663
O242	O	1.163373	-0.568323	-0.089330
O243	O	1.496707	-0.234989	0.244004
C244	C	0.902005	-0.262084	-0.339309
C245	C	1.235339	0.071250	-0.005976
C246	C	1.568672	0.404583	0.327358
C247	C	0.960120	-0.262094	-0.339329
C248	C	1.293453	0.071239	-0.005995
C249	C	1.626787	0.404573	0.327338
C250	C	0.771125	-0.267501	-0.522839
C251	C	1.104458	0.065832	-0.189505
C252	C	1.437791	0.399166	0.143828
C253	C	0.773466	-0.269819	-0.601068
C254	C	1.106799	0.063514	-0.267735
C255	C	1.440133	0.396847	0.065599
C256	C	0.765719	-0.125688	-0.339294
C257	C	1.099052	0.207646	-0.005961
C258	C	1.432385	0.540979	0.327373
C259	C	0.765756	-0.067574	-0.339308
C260	C	1.099089	0.265759	-0.005974
C261	C	1.432423	0.599093	0.327359
C262	C	0.790260	-0.286488	-1.041416
C263	C	1.123594	0.046846	-0.708083
C264	C	1.456927	0.380179	-0.374750
C265	C	0.788053	-0.284306	-0.967911
C266	C	1.121386	0.049028	-0.634578
C267	C	1.454720	0.382361	-0.301245
C268	C	0.753537	-0.249770	-0.931163
C269	C	1.086870	0.083563	-0.597830
C270	C	1.420203	0.416897	-0.264497
C271	C	0.721222	-0.217417	-0.967924
C272	C	1.054555	0.115916	-0.634590
C273	C	1.387889	0.449249	-0.301257
C274	C	0.723427	-0.219602	-1.041427
C275	C	1.056760	0.113731	-0.708094
C276	C	1.390094	0.447064	-0.374760
C277	C	0.743356	-0.239652	-0.711332
C278	C	1.076690	0.093681	-0.377999
C279	C	1.410023	0.427015	-0.044665
C280	C	0.741155	-0.237468	-0.637823
C281	C	1.074488	0.095865	-0.304490
C282	C	1.407821	0.429198	0.028843
C283	C	0.807985	-0.304358	-0.637816
C284	C	1.141319	0.028976	-0.304483
C285	C	1.474652	0.362309	0.028850
C286	C	0.810190	-0.306537	-0.711321
C287	C	1.143523	0.026796	-0.377988
C288	C	1.476856	0.360130	-0.044654
C289	C	0.777873	-0.274187	-0.748075
C290	C	1.111206	0.059147	-0.414742
C291	C	1.444540	0.392480	-0.081408
N292	N	0.751281	-0.247538	-0.856030
N293	N	1.084614	0.085796	-0.522696
N294	N	1.417947	0.419129	-0.189363
N295	N	0.780127	-0.276422	-0.823207
N296	N	1.113460	0.056911	-0.489874
N297	N	1.446793	0.390245	-0.156541
C298	C	0.760189	-0.256602	-0.156400
C299	C	1.093522	0.076731	0.176933
C300	C	1.426856	0.410064	0.510266
C301	C	0.757949	-0.254136	-0.078171
C302	C	1.091282	0.079197	0.255162
C303	C	1.424616	0.412530	0.588495
H304	H	0.569030	-0.325222	-0.420730
H305	H	0.902364	0.008111	-0.087397
H306	H	1.235697	0.341445	0.245937
F307	F	0.693813	-0.451585	-0.246254
F308	F	1.027147	-0.118252	0.087079
F309	F	1.360480	0.215082	0.420412
H310	H	-0.037244	-0.198917	-0.257799
H311	H	0.296089	0.134416	0.075534
H312	H	0.629422	0.467749	0.408867
F313	F	0.463492	-0.333931	-0.431998
F314	F	0.796826	-0.000598	-0.098665
F315	F	1.130159	0.332736	0.234669
H316	H	0.311632	-0.164056	-0.212811
H317	H	0.644965	0.169277	0.120523
H318	H	0.978298	0.502610	0.453856
F319	F	0.205425	-0.155358	-0.201593
F320	F	0.538759	0.177975	0.131740
F321	F	0.872092	0.511308	0.465073
H322	H	0.693116	-0.189300	-0.937997
H323	H	1.026449	0.144033	-0.604664
H324	H	1.359782	0.477367	-0.271331
F325	F	0.837509	-1.072014	-0.432333
F326	F	1.170842	-0.738680	-0.099000
F327	F	1.504175	-0.405347	0.234333
H328	H	0.319193	-0.360047	-0.465738
H329	H	0.652526	-0.026714	-0.132404
H330	H	0.985859	0.306619	0.200929
H331	H	0.818370	-0.314608	-1.071331
H332	H	1.151703	0.018725	-0.737998
H333	H	1.485036	0.352059	-0.404665
F334	F	0.689039	-0.185168	-1.080544
F335	F	1.022372	0.148166	-0.747211
F336	F	1.355706	0.481499	-0.413878
F337	F	0.842376	-0.338785	-0.598695
F338	F	1.175709	-0.005452	-0.265362
F339	F	1.509043	0.327881	0.067972
F340	F	0.704417	-0.200708	-0.598715
F341	F	1.037750	0.132625	-0.265381
F342	F	1.371083	0.465958	0.067952
F343	F	0.659191	-0.814169	-0.201190
F344	F	0.992524	-0.480836	0.132143
F345	F	1.325858	-0.147502	0.465477
F346	F	0.822444	-0.318738	-0.928797
F347	F	1.155777	0.014596	-0.595464
F348	F	1.489111	0.347929	-0.262130
H349	H	0.702660	-0.961075	-0.257552
H350	H	1.035993	-0.627742	0.075782
H351	H	1.369326	-0.294409	0.409115
F352	F	0.570655	-0.190158	-0.246456
F353	F	0.903988	0.143176	0.086877
F354	F	1.237321	0.476509	0.420211
H355	H	0.863481	-0.715939	-0.466086
H356	H	1.196814	-0.382606	-0.132753
H357	H	1.530148	-0.049273	0.200580
H358	H	0.717041	-0.213311	-0.741248
H359	H	1.050374	0.120023	-0.407915
H360	H	1.383708	0.453356	-0.074581
H361	H	0.061805	-0.198896	-0.257789
H362	H	0.395139	0.134437	0.075545
H363	H	0.728472	0.467770	0.408878
H364	H	0.702695	-1.060142	-0.257562
H365	H	1.036028	-0.726809	0.075772
H366	H	1.369361	-0.393475	0.409105
H367	H	0.465099	-0.198867	-0.257708
H368	H	0.798432	0.134466	0.075625
H369	H	1.131766	0.467800	0.408959
F370	F	0.846923	-0.343299	-0.750426
F371	F	1.180256	-0.009965	-0.417093
F372	F	1.513590	0.323368	-0.083759
F373	F	0.872200	-0.822137	-0.477370
F374	F	1.205533	-0.488804	-0.144037
F375	F	1.538866	-0.155471	0.189297
H376	H	0.828640	-0.463449	-0.421013
H377	H	1.161973	-0.130115	-0.087680
H378	H	1.495306	0.203218	0.245653
H379	H	0.066696	-0.325262	-0.420831
H380	H	0.400029	0.008071	-0.087498
H381	H	0.733363	0.341405	0.245836
F382	F	0.213653	-0.368755	-0.476996
F383	F	0.546987	-0.035421	-0.143663
F384	F	0.880320	0.297912	0.189671
F385	F	0.837488	-0.959312	-0.432318
F386	F	1.170822	-0.625978	-0.098984
F387	F	1.504155	-0.292645	0.234349
H388	H	0.702545	-0.557786	-0.257515
H389	H	1.035878	-0.224452	0.075818
H390	H	1.369211	0.108881	0.409152
F391	F	0.659146	-0.701468	-0.201187
F392	F	0.992479	-0.368135	0.132146
F393	F	1.325813	-0.034801	0.465479
F394	F	-0.038862	-0.333978	-0.432075
F395	F	0.294472	-0.000645	-0.098742
F396	F	0.627805	0.332688	0.234591
H397	H	0.828671	-0.562514	-0.421030
H398	H	1.162004	-0.229181	-0.087696
H399	H	1.495338	0.104152	0.245637
