data_functionalizedCrystal
_audit_creation_method	'MofGen! by Chris Wilmer'
_symmetry_space_group_name_H-M	'P1'
_symmetry_Int_Tables_number	1
_symmetry_cell_setting	triclinic
loop_
_symmetry_equiv_pos_as_xyz
  x,y,z
_cell_length_a	14.853569
_cell_length_b	13.930277
_cell_length_c	14.853567
_cell_angle_alpha	89.999243
_cell_angle_beta	83.635376
_cell_angle_gamma	89.995143
loop_
_atom_site_label
_atom_site_type_symbol
_atom_site_fract_x
_atom_site_fract_y
_atom_site_fract_z
O1	O	-1.196367	0.079770	-0.117713
O2	O	-0.696367	0.579770	0.382287
O3	O	-0.933908	0.079782	-0.131732
O4	O	-0.433908	0.579782	0.368268
O5	O	-1.072148	0.079779	0.006507
O6	O	-0.572148	0.579779	0.506507
O7	O	-1.058127	0.079774	-0.255952
O8	O	-0.558127	0.579774	0.244048
O9	O	-1.072129	-0.079883	0.006510
O10	O	-0.572129	0.420117	0.506510
O11	O	-0.933889	-0.079879	-0.131729
O12	O	-0.433889	0.420121	0.368271
O13	O	-1.196348	-0.079892	-0.117710
O14	O	-0.696348	0.420108	0.382290
Zn15	Zn	-1.065115	-0.105235	-0.124719
Zn16	Zn	-0.565115	0.394765	0.375281
Zn17	Zn	-1.065141	0.105126	-0.124723
Zn18	Zn	-0.565141	0.605126	0.375277
O19	O	-1.058108	-0.079888	-0.255949
O20	O	-0.558108	0.420112	0.244051
C21	C	-0.900310	-0.000047	-0.131095
C22	C	-0.400310	0.499953	0.368905
C23	C	-0.800226	-0.000042	-0.129191
C24	C	-0.300226	0.499958	0.370809
C25	C	-0.763850	-0.000036	-0.046180
C26	C	-0.263850	0.499964	0.453820
C27	C	-0.742560	-0.000050	-0.210412
C28	C	-0.242560	0.499950	0.289588
C29	C	-0.648526	-0.000051	-0.208626
C30	C	-0.148526	0.499949	0.291374
C31	C	-0.612149	-0.000045	-0.125615
C32	C	-0.112149	0.499955	0.374385
C33	C	-0.669807	-0.000040	-0.044390
C34	C	-0.169807	0.499960	0.455610
C35	C	-0.590861	-0.000066	-0.289848
C36	C	-0.090861	0.499934	0.210152
C37	C	-0.496821	-0.000067	-0.288065
C38	C	0.003179	0.499933	0.211935
C39	C	-0.460443	-0.000055	-0.205053
C40	C	0.039557	0.499945	0.294947
C41	C	-0.518107	-0.000049	-0.123825
C42	C	-0.018107	0.499951	0.376175
C43	C	-0.481730	-0.000043	-0.040814
C44	C	0.018270	0.499957	0.459186
C45	C	-0.539393	-0.000030	0.040414
C46	C	-0.039393	0.499970	0.540414
C47	C	-0.633429	-0.000027	0.038622
C48	C	-0.133429	0.499973	0.538622
C49	C	-0.366407	-0.000057	-0.203260
C50	C	0.133593	0.499943	0.296740
C51	C	-0.387688	-0.000046	-0.039025
C52	C	0.112312	0.499954	0.460975
N53	N	-1.065105	-0.248801	-0.124716
N54	N	-0.565105	0.251199	0.375284
C55	C	-1.003925	-0.701069	-0.185911
C56	C	-0.503925	-0.201069	0.314089
C57	C	-1.126381	-0.701042	-0.063528
C58	C	-0.626381	-0.201042	0.436472
C59	C	-1.126370	-0.600546	-0.063525
C60	C	-0.626370	-0.100546	0.436475
C61	C	-1.065137	-0.550307	-0.124717
C62	C	-0.565137	-0.050307	0.375283
C63	C	-1.003915	-0.600564	-0.185912
C64	C	-0.503915	-0.100564	0.314088
C65	C	-1.187597	-0.550282	-0.002337
C66	C	-0.687597	-0.050282	0.497663
C67	C	-1.187590	-0.449780	-0.002332
C68	C	-0.687590	0.050220	0.497668
C69	C	-1.126352	-0.399539	-0.063521
C70	C	-0.626352	0.100461	0.436479
C71	C	-1.065126	-0.449802	-0.124718
C72	C	-0.565126	0.050198	0.375282
C73	C	-1.003893	-0.399563	-0.185910
C74	C	-0.503893	0.100437	0.314090
C75	C	-0.942663	-0.449825	-0.247103
C76	C	-0.442663	0.050175	0.252897
C77	C	-0.942677	-0.550323	-0.247101
C78	C	-0.442677	-0.050323	0.252899
C79	C	-1.126338	-0.299040	-0.063524
C80	C	-0.626338	0.200960	0.436476
C81	C	-1.003882	-0.299058	-0.185911
C82	C	-0.503882	0.200942	0.314089
C83	C	-0.229946	-0.000059	-0.118346
C84	C	0.270054	0.499941	0.381654
C85	C	-0.330030	-0.000052	-0.120249
C86	C	0.169970	0.499948	0.379751
C87	C	-1.071503	-0.000049	0.040097
C88	C	-0.571503	0.499951	0.540097
C89	C	-1.069599	-0.000041	0.140181
C90	C	-0.569599	0.499959	0.640181
N91	N	-1.065158	0.248692	-0.124719
N92	N	-0.565158	0.748692	0.375281
C93	C	-1.058753	-0.000058	-0.289539
C94	C	-0.558753	0.499942	0.210461
C95	C	-1.060656	-0.000060	-0.389623
C96	C	-0.560656	0.499940	0.110377
C97	C	-0.979434	-0.000055	0.552716
C98	C	-0.479434	0.499945	1.052716
C99	C	-1.143667	-0.000063	0.573995
C100	C	-0.643667	0.499937	1.073995
C101	C	-1.145457	-0.000057	0.479962
C102	C	-0.645457	0.499943	0.979962
C103	C	-1.064234	-0.000052	0.422300
C104	C	-0.564234	0.499948	0.922300
C105	C	-0.981222	-0.000052	0.458673
C106	C	-0.481222	0.499948	0.958673
C107	C	-1.228468	-0.000066	0.443582
C108	C	-0.728468	0.499934	0.943582
C109	C	-1.230261	-0.000062	0.349543
C110	C	-0.730261	0.499938	0.849543
C111	C	-1.149038	-0.000050	0.291880
C112	C	-0.649038	0.499950	0.791880
C113	C	-1.066022	-0.000049	0.328258
C114	C	-0.566022	0.499951	0.828258
C115	C	-0.984799	-0.000044	0.270596
C116	C	-0.484799	0.499956	0.770596
C117	C	-0.901782	-0.000036	0.306972
C118	C	-0.401782	0.499964	0.806972
C119	C	-0.899998	-0.000040	0.401010
C120	C	-0.399998	0.499960	0.901010
C121	C	-1.150822	-0.000046	0.197842
C122	C	-0.650822	0.499954	0.697842
C123	C	-0.986587	-0.000041	0.176554
C124	C	-0.486587	0.499959	0.676554
H125	H	-0.680385	-0.000018	0.104753
H126	H	-0.180385	0.499982	0.604753
Br127	Br	-0.876350	-0.000023	0.098305
Br128	Br	-0.376350	0.499977	0.598305
Br129	Br	-0.920769	-0.230885	-0.268955
Br130	Br	-0.420769	0.269115	0.231045
Br131	Br	-0.791929	-0.000062	-0.323064
Br132	Br	-0.291929	0.499938	0.176936
Br133	Br	-1.209488	-0.769219	0.019508
Br134	Br	-0.709488	-0.269219	0.519508
Br135	Br	-0.338327	-0.000027	0.073639
Br136	Br	0.161673	0.499973	0.573639
Br137	Br	-0.920824	-0.769274	-0.268951
Br138	Br	-0.420824	-0.269274	0.231049
Br139	Br	-0.490013	-0.000036	0.153068
Br140	Br	0.009987	0.499964	0.653068
H141	H	-1.237445	-0.408863	0.047495
H142	H	-0.737445	0.091137	0.547495
Br143	Br	-1.209437	-0.230835	0.019510
Br144	Br	-0.709437	0.269165	0.519510
H145	H	-0.892810	-0.408909	-0.296931
H146	H	-0.392810	0.091091	0.203069
Br147	Br	-0.859586	-0.618536	-0.330144
Br148	Br	-0.359586	-0.118536	0.169856
H149	H	-0.449880	-0.000077	-0.354206
H150	H	0.050120	0.499923	0.145794
Br151	Br	-0.791556	-0.000042	0.228707
Br152	Br	-0.291556	0.499958	0.728707
H153	H	-1.237456	-0.591189	0.047480
H154	H	-0.737456	-0.091189	0.547480
H155	H	-0.620487	-0.000076	-0.357431
H156	H	-0.120487	0.499924	0.142569
Br157	Br	-0.787343	-0.000024	0.450383
Br158	Br	-0.287343	0.499976	0.950383
H159	H	-0.911843	-0.000045	0.582337
H160	H	-0.411843	0.499955	1.082337
Br161	Br	-1.253892	-0.000090	0.652249
Br162	Br	-0.753892	0.499910	1.152249
Br163	Br	-1.338691	-0.000100	0.521838
Br164	Br	-0.838691	0.499900	1.021838
H165	H	-1.297858	-0.000067	0.319934
H166	H	-0.797858	0.499933	0.819934
H167	H	-1.218413	-0.000059	0.168229
H168	H	-0.718413	0.499941	0.668229
H169	H	-0.810802	-0.000021	0.019955
H170	H	-0.310802	0.499979	0.519955
H171	H	-0.319462	-0.000077	-0.269395
H172	H	0.180538	0.499923	0.230605
