data_functionalizedCrystal
_audit_creation_method	'MofGen! by Chris Wilmer'
_symmetry_space_group_name_H-M	'P1'
_symmetry_Int_Tables_number	1
_symmetry_cell_setting	triclinic
loop_
_symmetry_equiv_pos_as_xyz
  x,y,z
_cell_length_a	10.654541
_cell_length_b	10.868271
_cell_length_c	11.792241
_cell_angle_alpha	89.994917
_cell_angle_beta	84.338672
_cell_angle_gamma	89.996395
loop_
_atom_site_label
_atom_site_type_symbol
_atom_site_fract_x
_atom_site_fract_y
_atom_site_fract_z
O1	O	1.667394	-0.102285	0.159407
O2	O	1.301872	-0.102296	0.174598
O3	O	1.493503	-0.102282	0.001853
O4	O	1.475763	-0.102299	0.332153
O5	O	1.493485	0.102363	0.001847
O6	O	1.301853	0.102349	0.174592
O7	O	1.667376	0.102360	0.159401
Zn8	Zn	1.484612	0.134846	0.166996
Zn9	Zn	1.484636	-0.134782	0.167004
O10	O	1.475744	0.102345	0.332147
C11	C	1.255068	0.000025	0.173481
C12	C	1.115634	0.000021	0.170145
C13	C	1.087078	-0.000005	0.376710
C14	C	1.007297	-0.000023	0.478420
C15	C	0.876287	-0.000024	0.475279
C16	C	0.825059	-0.000004	0.370416
C17	C	0.904841	0.000015	0.268706
C18	C	1.035851	0.000012	0.271858
C19	C	0.933396	0.000050	0.062144
C20	C	1.064405	0.000042	0.065282
C21	C	0.882167	0.000071	-0.042719
C22	C	0.961949	0.000080	-0.144432
C23	C	1.092966	0.000080	-0.141286
C24	C	1.144187	0.000060	-0.036428
N25	N	1.484604	0.318860	0.166990
C26	C	1.484621	0.569866	0.167004
C27	C	1.484608	0.430188	0.167000
C28	C	1.714180	0.000036	0.160519
C29	C	1.853614	0.000032	0.163854
N30	N	1.484641	0.681204	0.167005
C31	C	1.492380	0.000040	-0.040444
C32	C	1.489044	0.000039	-0.166465
C33	C	1.482911	0.000018	-0.397192
C34	C	1.486319	0.000030	-0.268799
C35	C	1.476868	0.000021	0.374443
C36	C	1.480203	0.000014	0.500465
H37	H	0.775491	0.000077	-0.045269
C38	C	0.905603	0.000104	-0.259767
H39	H	0.971878	0.000116	-0.319894
H40	H	0.855085	-0.071254	-0.265289
H41	H	0.855093	0.071484	-0.265281
C42	C	1.180717	0.000093	-0.253170
H43	H	1.131439	0.000095	-0.316065
H44	H	1.232419	0.071452	-0.256238
H45	H	1.232414	-0.071285	-0.256241
H46	H	1.193752	-0.000032	0.379277
C47	C	1.288292	0.000063	-0.032963
H48	H	1.307370	0.000059	0.044053
H49	H	1.323216	-0.071290	-0.070403
H50	H	1.323191	0.071448	-0.070386
C51	C	0.788525	-0.000052	0.587156
H52	H	0.837792	-0.000073	0.650059
H53	H	0.736813	0.071307	0.590229
H54	H	0.736839	-0.071430	0.590209
C55	C	1.063650	-0.000052	0.593760
H56	H	1.153101	-0.000061	0.581069
H57	H	1.036309	0.071303	0.635691
H58	H	1.036317	-0.071434	0.635671
H59	H	0.718383	0.000010	0.367868
