data_functionalizedCrystal
_audit_creation_method	'MofGen! by Chris Wilmer'
_symmetry_space_group_name_H-M	'P1'
_symmetry_Int_Tables_number	1
_symmetry_cell_setting	triclinic
loop_
_symmetry_equiv_pos_as_xyz
  x,y,z
_cell_length_a	13.897449
_cell_length_b	18.050589
_cell_length_c	13.897441
_cell_angle_alpha	89.973098
_cell_angle_beta	89.981404
_cell_angle_gamma	90.029500
loop_
_atom_site_label
_atom_site_type_symbol
_atom_site_fract_x
_atom_site_fract_y
_atom_site_fract_z
Zn1	Zn	1.474612	-0.295618	-0.545399
Zn2	Zn	1.474482	-0.419820	-0.384108
Zn3	Zn	1.313307	-0.295651	-0.384118
Zn4	Zn	1.313253	-0.419773	-0.545361
O5	O	1.393913	-0.357715	-0.464747
O6	O	1.609576	-0.312099	-0.524016
O7	O	1.453070	-0.403382	-0.249128
O8	O	1.334781	-0.191722	-0.405532
O9	O	1.609481	-0.403350	-0.405516
O10	O	1.453291	-0.191697	-0.524025
O11	O	1.334655	-0.312156	-0.249135
O12	O	1.178318	-0.312110	-0.405495
O13	O	1.334689	-0.403270	-0.680348
O14	O	1.178278	-0.403302	-0.523960
O15	O	1.453239	-0.312054	-0.680376
O16	O	1.453018	-0.523738	-0.405479
O17	O	1.334564	-0.523704	-0.523951
C18	C	1.143299	-0.357705	-0.464725
C19	C	1.036085	-0.357719	-0.464738
C20	C	0.839790	-0.357722	-0.464763
C21	C	0.949023	-0.357718	-0.464747
C22	C	1.393797	-0.550667	-0.464731
C23	C	1.393835	-0.633213	-0.464756
C24	C	1.329483	-0.832672	-0.529158
C25	C	1.305969	-0.882117	-0.441140
C26	C	1.393930	-0.784344	-0.464769
C27	C	1.417491	-0.881981	-0.552797
C28	C	1.394020	-0.930329	-0.464789
C29	C	1.370370	-0.832701	-0.376703
C30	C	1.481933	-0.832560	-0.488420
C31	C	1.458453	-0.881983	-0.400341
C32	C	1.393876	-0.700245	-0.464758
C33	C	1.394074	-1.014425	-0.464789
C34	C	1.645506	-0.357726	-0.464769
C35	C	1.752720	-0.357730	-0.464779
C36	C	1.393972	-0.357653	-0.716340
C37	C	1.393998	-0.357626	-0.823554
C38	C	1.394057	-0.164010	-0.464784
C39	C	1.394118	-0.081464	-0.464800
C40	C	1.394017	-0.357605	-0.910624
C41	C	1.394045	-0.357572	-1.019856
C42	C	1.393910	-0.357724	-0.214132
C43	C	1.394072	-0.357541	-0.106919
H44	H	1.231591	-0.903901	-0.421153
C45	C	1.532126	-0.911057	-0.326707
C46	C	1.639163	-0.890307	-0.336646
C47	C	1.712828	-0.919383	-0.263008
C48	C	1.679456	-0.969210	-0.179429
C49	C	1.572414	-0.989963	-0.169487
C50	C	1.498748	-0.960886	-0.243125
H51	H	1.663871	-0.853420	-0.398519
H52	H	1.792067	-0.904021	-0.270368
H53	H	1.733987	-0.990734	-0.124917
H54	H	1.547705	-1.026850	-0.107614
H55	H	1.419509	-0.976249	-0.235765
H56	H	1.556295	-0.810779	-0.508449
H57	H	1.437384	-0.903627	-0.627234
H58	H	1.274902	-0.811020	-0.583534
C59	C	1.343387	-0.803586	-0.276112
C60	C	1.338317	-0.719582	-0.257523
C61	C	1.311336	-0.690466	-0.156933
C62	C	1.289424	-0.745353	-0.074933
C63	C	1.294493	-0.829362	-0.093520
C64	C	1.321474	-0.858479	-0.194109
H65	H	1.354538	-0.678947	-0.318226
H66	H	1.307584	-0.628276	-0.143175
H67	H	1.269451	-0.723799	-0.000471
H68	H	1.278272	-0.869998	-0.032816
H69	H	1.325227	-0.920668	-0.207868
