data_functionalizedCrystal
_audit_creation_method	'MofGen! by Chris Wilmer'
_symmetry_space_group_name_H-M	'P1'
_symmetry_Int_Tables_number	1
_symmetry_cell_setting	triclinic
loop_
_symmetry_equiv_pos_as_xyz
  x,y,z
_cell_length_a	14.560438
_cell_length_b	14.560438
_cell_length_c	14.560438
_cell_angle_alpha	60.000518
_cell_angle_beta	90.001793
_cell_angle_gamma	60.001166
loop_
_atom_site_label
_atom_site_type_symbol
_atom_site_fract_x
_atom_site_fract_y
_atom_site_fract_z
Zr1	Zr	0.884753	1.005292	-0.120493
O2	O	0.738105	1.196893	-0.267141
O3	O	0.929708	0.813691	-0.075540
O4	O	0.929705	1.005296	-0.267141
O5	O	0.738110	1.005286	0.075601
O6	O	1.080843	1.005298	-0.267139
O7	O	0.738107	1.005289	-0.075540
O8	O	1.080848	0.662553	0.075600
O9	O	0.738105	1.348031	-0.267138
O10	O	1.061674	0.892501	-0.056364
O11	O	0.948883	0.892497	0.056429
O12	O	0.948880	1.118087	-0.169156
O13	O	0.836089	1.118083	-0.056363
Zr14	Zr	1.125805	1.005292	0.120563
Zr15	Zr	1.125801	1.005296	-0.120489
Zr16	Zr	0.884756	1.005288	0.120559
Zr17	Zr	0.884753	1.246340	-0.120489
Zr18	Zr	1.125804	0.764244	0.120559
O19	O	1.080849	1.196893	0.075610
O20	O	1.080844	1.196899	-0.267135
O21	O	0.738110	1.196887	0.075605
O22	O	1.272453	0.813691	0.267211
O23	O	1.272447	0.813697	-0.075535
O24	O	0.929713	0.813685	0.267205
O25	O	1.272448	1.005298	-0.075531
O26	O	1.080852	1.005288	0.267211
O27	O	0.929714	1.005286	0.267209
O28	O	1.272450	1.005295	0.075610
O29	O	0.929706	1.348034	-0.267135
O30	O	1.080851	0.662550	0.267205
O31	O	1.272452	0.662553	0.267208
O32	O	1.272449	0.662556	0.075603
O33	O	0.738108	1.348027	-0.075533
O34	O	0.929709	1.348031	-0.075530
O35	O	1.061677	0.892497	0.169226
O36	O	1.174468	0.892501	0.056433
O37	O	1.061674	1.118087	-0.056359
O38	O	0.948883	1.118083	0.056434
C39	C	1.005278	0.703778	0.000029
C40	C	1.005278	0.601447	0.000027
C41	C	1.064151	0.553373	-0.058849
C42	C	1.064156	0.457214	-0.058839
C43	C	0.946404	0.457215	0.058927
C44	C	0.946407	0.553366	0.058922
C45	C	0.703764	1.005287	0.000030
C46	C	0.601433	1.005285	0.000029
C47	C	0.612232	0.887534	0.058905
C48	C	0.516077	0.887540	0.058915
C49	C	0.398327	1.123059	-0.058836
C50	C	0.494481	1.123051	-0.058839
C51	C	0.719184	0.769768	0.117773
C52	C	0.729987	0.652007	0.176652
C53	C	0.633832	0.652013	0.176663
C54	C	0.526874	0.769780	0.117793
C55	C	1.306793	1.005297	0.000040
C56	C	1.409124	1.005299	0.000042
C57	C	1.005274	1.005297	-0.301485
C58	C	1.005272	1.005299	-0.403818
C59	C	1.005279	1.306806	0.000041
C60	C	1.005279	1.409137	0.000043
C61	C	0.946404	1.123043	-0.606925
C62	C	0.946394	1.123051	-0.510777
C63	C	1.064155	0.887532	-0.393008
C64	C	1.064157	0.887525	-0.489154
C65	C	1.005283	1.005286	0.301555
C66	C	1.005285	1.005285	0.403888
C67	C	1.306792	0.703783	0.000034
C68	C	1.409123	0.601454	0.000034
C69	C	1.005283	0.703773	0.301549
C70	C	1.005284	0.601440	0.403880
C71	C	1.306797	0.703778	0.301554
C72	C	1.409130	0.601447	0.403887
C73	C	0.703760	1.306806	-0.301484
C74	C	0.601427	1.409137	-0.403817
C75	C	0.703765	1.306801	0.000036
C76	C	0.601434	1.409130	0.000036
C77	C	1.005274	1.306811	-0.301479
C78	C	1.005273	1.409144	-0.403810
C79	C	1.398324	0.553377	-0.058842
C80	C	1.494479	0.457236	-0.058846
C81	C	1.612229	0.457253	0.058911
C82	C	1.516075	0.553399	0.058908
C83	C	1.064161	0.553362	0.510834
C84	C	1.064150	0.457218	0.606981
C85	C	0.946382	0.457235	0.489207
C86	C	0.946388	0.553384	0.393062
C87	C	1.516082	0.553371	0.393089
C88	C	1.612230	0.457229	0.489245
C89	C	1.494461	0.457242	0.606994
C90	C	1.398315	0.553389	0.510838
H91	H	1.112097	0.418073	-0.106780
H92	H	1.485676	0.418097	-0.106791
H93	H	1.112105	0.791627	-0.480342
Br94	Br	0.866522	0.391946	0.138861
Br95	Br	0.866466	0.618651	0.247898
Br96	Br	1.530731	0.618663	0.138807
H97	H	0.898446	1.218941	-0.519590
Br98	Br	1.144051	0.727724	-0.247849
H99	H	0.448582	0.769776	0.117813
Br100	Br	0.866504	1.282857	-0.752079
H101	H	1.485670	0.418100	0.694083
Br102	Br	1.530760	0.618596	0.247943
H103	H	1.311243	0.592512	-0.106793
H104	H	1.112089	0.592517	-0.106803
H105	H	1.699319	0.418113	0.106846
Br106	Br	1.253154	0.618652	0.525492
Br107	Br	1.144051	0.391979	0.752134
Br108	Br	0.866514	0.618602	0.138845
H109	H	0.797484	0.769750	0.117769
Br110	Br	1.144091	0.618578	0.525518
Br111	Br	0.875137	0.492189	0.256565
Br112	Br	0.866457	0.392010	0.474534
Br113	Br	0.479831	1.282859	-0.138736
Br114	Br	0.648493	0.492200	0.256586
H115	H	0.311237	1.218939	-0.106768
H116	H	1.699313	0.418090	0.480446
