data_functionalizedCrystal
_audit_creation_method	'MofGen! by Chris Wilmer'
_symmetry_space_group_name_H-M	'P1'
_symmetry_Int_Tables_number	1
_symmetry_cell_setting	triclinic
loop_
_symmetry_equiv_pos_as_xyz
  x,y,z
_cell_length_a	13.635800
_cell_length_b	27.691869
_cell_length_c	17.982856
_cell_angle_alpha	97.764999
_cell_angle_beta	102.449936
_cell_angle_gamma	95.100750
loop_
_atom_site_label
_atom_site_type_symbol
_atom_site_fract_x
_atom_site_fract_y
_atom_site_fract_z
V1	V	1.987030	0.067588	0.238038
O2	O	2.002245	-0.002774	0.233007
O3	O	1.942813	0.133559	0.236890
O4	O	1.960532	0.066756	0.341635
O5	O	1.984403	0.064492	0.127537
V6	V	2.231735	0.059147	0.224763
O7	O	2.111201	0.086103	0.267158
O8	O	2.332662	0.040632	0.195643
O9	O	2.164348	-0.006825	0.225911
O10	O	2.275219	0.129509	0.229793
O11	O	2.293060	0.062243	0.335264
O12	O	2.146629	0.059979	0.121165
V13	V	2.487030	0.067588	0.238038
O14	O	2.502245	-0.002774	0.233007
O15	O	2.442813	0.133559	0.236890
O16	O	2.460532	0.066756	0.341635
O17	O	2.484403	0.064492	0.127537
V18	V	2.731735	0.059147	0.224763
O19	O	2.611201	0.086103	0.267158
O20	O	2.832662	0.040632	0.195643
O21	O	2.664348	-0.006825	0.225911
O22	O	2.775219	0.129509	0.229793
O23	O	2.793060	0.062243	0.335264
O24	O	2.646629	0.059979	0.121165
C25	C	2.078313	-0.022898	0.229540
C26	C	2.063456	-0.076832	0.229793
C27	C	1.945202	-0.418349	0.161457
C28	C	1.889303	-0.621055	0.162367
O29	O	1.859930	-0.653274	0.103106
N30	N	1.908309	-0.639335	0.232304
C31	C	1.941286	-0.606934	0.302019
O32	O	1.956159	-0.627133	0.361526
C33	C	1.997177	-0.404228	0.301109
C34	C	1.978179	-0.385952	0.231167
C35	C	1.926205	-0.400072	0.091521
C36	C	1.940184	-0.349398	0.091294
C37	C	1.973161	-0.317002	0.161004
C38	C	1.992158	-0.335278	0.230940
C39	C	2.030147	-0.371828	0.370823
C40	C	2.044116	-0.321149	0.370590
C41	C	2.025117	-0.302873	0.300648
C42	C	2.039115	-0.252208	0.300422
N43	N	2.020109	-0.233929	0.230485
C44	C	1.987132	-0.266325	0.160776
C45	C	1.911942	-0.713358	0.302492
C46	C	1.897971	-0.764034	0.302720
C47	C	1.845988	-0.778152	0.163067
C48	C	1.859966	-0.727475	0.162840
C49	C	1.892936	-0.695078	0.232555
C50	C	2.016493	-0.159907	0.160305
C51	C	2.030480	-0.109228	0.160084
C52	C	2.082457	-0.095115	0.299736
C53	C	2.068476	-0.145789	0.299957
C54	C	2.035489	-0.178184	0.230235
O55	O	2.068474	-0.219961	0.359652
O56	O	1.972243	-0.246116	0.101278
C57	C	1.931223	-0.469022	0.161684
C58	C	1.950220	-0.487299	0.231621
C59	C	1.983197	-0.454902	0.301330
C60	C	1.936249	-0.537975	0.231848
C61	C	1.903272	-0.570372	0.162139
C62	C	1.884267	-0.552092	0.092202
C63	C	1.898246	-0.501419	0.091975
C64	C	2.002203	-0.473182	0.371267
C65	C	1.988222	-0.523856	0.371488
C66	C	1.955245	-0.556253	0.301779
C67	C	1.860518	0.149635	0.233258
C68	C	1.864994	0.203569	0.233010
C69	C	1.883121	0.064420	0.366871
C70	C	1.901965	0.064177	0.451565
C71	C	2.055712	0.062316	0.095926
C72	C	2.026487	0.062557	0.011230
C73	C	2.360518	0.149635	0.233258
C74	C	2.364994	0.203569	0.233010
C75	C	2.383121	0.064420	0.366871
C76	C	2.401965	0.064177	0.451565
C77	C	1.917162	0.108514	0.502556
C78	C	1.934873	0.108284	0.582136
C79	C	1.937379	0.063717	0.610723
C80	C	1.922184	0.019376	0.559725
C81	C	1.904481	0.019606	0.480148
C82	C	1.993581	0.018446	0.880653
C83	C	2.011283	0.018219	0.960237
C84	C	2.023973	0.107124	0.982641
C85	C	2.006270	0.107354	0.903064
C86	C	1.991081	0.063014	0.852074
C87	C	1.971879	0.063264	0.765785
C88	C	1.956574	0.063466	0.697010
C89	C	2.578313	-0.022898	0.229540
C90	C	2.563456	-0.076832	0.229793
C91	C	2.555712	0.062316	0.095926
C92	C	2.526487	0.062557	0.011230
C93	C	2.457316	0.231379	0.236718
C94	C	2.461538	0.282057	0.236497
C95	C	2.373436	0.304924	0.232562
C96	C	2.281108	0.277112	0.228856
C97	C	2.276888	0.226435	0.229083
C98	C	2.501047	0.066489	0.495240
C99	C	2.518767	0.066254	0.574819
C100	C	2.437404	0.063710	0.610722
C101	C	2.338314	0.061396	0.567041
C102	C	2.320595	0.061628	0.487463
C103	C	2.643628	-0.104641	0.226087
C104	C	2.629678	-0.155319	0.226312
C105	C	2.535557	-0.178186	0.230249
C106	C	2.455378	-0.150374	0.233953
C107	C	2.469327	-0.099697	0.233722
C108	C	2.425621	0.065095	-0.024654
C109	C	2.398145	0.065316	-0.104235
C110	C	2.471539	0.063002	-0.147930
C111	C	2.572413	0.060462	-0.112041
C112	C	2.599886	0.060238	-0.032462
H113	H	2.015008	-0.094351	0.103126
C114	C	2.653138	0.057921	-0.160114
C115	C	2.642900	0.015067	-0.226572
C116	C	2.723623	0.012530	-0.274647
C117	C	2.814584	0.052846	-0.256266
C118	C	2.824825	0.095704	-0.189805
C119	C	2.744102	0.098241	-0.141729
H120	H	2.575562	-0.014781	-0.240182
H121	H	2.716041	-0.019196	-0.323846
H122	H	2.874340	0.050968	-0.291854
H123	H	2.892163	0.125551	-0.176195
H124	H	2.751684	0.129967	-0.092530
C125	C	2.563103	0.312642	0.240563
C126	C	2.652451	0.314433	0.310250
C127	C	2.754015	0.345016	0.314314
C128	C	2.766229	0.373808	0.248692
C129	C	2.676878	0.372018	0.179000
C130	C	2.575315	0.341435	0.174936
H131	H	2.643412	0.293119	0.358832
H132	H	2.820158	0.346341	0.365905
H133	H	2.841413	0.396448	0.251701
H134	H	2.685917	0.393333	0.130418
H135	H	2.509171	0.340110	0.123345
H136	H	2.599457	0.068140	0.610373
H137	H	1.924232	-0.016911	0.583007
H138	H	1.913461	-0.778910	0.359673
H139	H	2.404040	-0.077058	0.236747
H140	H	2.013328	-0.018075	0.983509
C141	C	2.378086	0.360669	0.232305
C142	C	2.315306	0.380454	0.163560
C143	C	2.319961	0.436198	0.163301
C144	C	2.387396	0.472158	0.231787
C145	C	2.450181	0.452374	0.300537
C146	C	2.445526	0.396629	0.300796
H147	H	2.265382	0.353834	0.112858
H148	H	2.273483	0.450844	0.112407
H149	H	2.390842	0.513423	0.231595
H150	H	2.500105	0.478993	0.351239
H151	H	2.492003	0.381984	0.351690
H152	H	2.209379	0.295738	0.225652
C153	C	2.717886	-0.185904	0.222248
C154	C	2.757020	-0.214693	0.287873
C155	C	2.845229	-0.245276	0.283811
C156	C	2.894305	-0.247069	0.214124
C157	C	2.855171	-0.218278	0.148494
C158	C	2.766962	-0.187696	0.152556
H159	H	2.720691	-0.213367	0.339464
H160	H	2.874198	-0.266589	0.332395
H161	H	2.959603	-0.269708	0.211117
H162	H	2.891500	-0.219605	0.096903
H163	H	2.737993	-0.166383	0.103972
C164	C	1.887761	-0.029165	0.424054
C165	C	1.868293	-0.028914	0.336521
C166	C	1.851578	-0.077687	0.280429
C167	C	1.854332	-0.126711	0.311869
C168	C	1.873800	-0.126964	0.399406
C169	C	1.890515	-0.078191	0.455499
H170	H	1.866254	0.007378	0.313244
H171	H	1.837166	-0.077499	0.215628
H172	H	1.841959	-0.162816	0.270345
H173	H	1.875839	-0.163257	0.422683
H174	H	1.904927	-0.078379	0.520299
C175	C	2.520224	-0.233930	0.230509
C176	C	2.608423	-0.264515	0.226438
C177	C	2.593099	-0.320259	0.226701
C178	C	2.489576	-0.345418	0.231035
C179	C	2.401369	-0.314834	0.235106
C180	C	2.416694	-0.259090	0.234843
H181	H	2.685064	-0.245890	0.223230
H182	H	2.658395	-0.342899	0.223687
H183	H	2.478232	-0.386684	0.231229
H184	H	2.324729	-0.333458	0.238314
H185	H	2.351397	-0.236449	0.237857
H186	H	2.201706	0.203796	0.226059
H187	H	2.365847	0.066980	0.010913
H188	H	1.938791	-0.686984	0.359265
H189	H	2.378745	-0.169000	0.237158
H190	H	1.989630	-0.186278	0.103531
C191	C	2.051041	-0.391920	0.447765
C192	C	1.991376	-0.376753	0.508963
C193	C	2.012270	-0.396843	0.585911
C194	C	2.092828	-0.432100	0.601659
C195	C	2.152498	-0.447269	0.540459
C196	C	2.131605	-0.427180	0.463511
H197	H	1.931738	-0.350651	0.497307
H198	H	1.968098	-0.385613	0.631215
H199	H	2.108295	-0.446972	0.658620
H200	H	2.212137	-0.473371	0.552115
H201	H	2.175776	-0.438409	0.418207
H202	H	1.924709	-0.334523	0.034340
H203	H	1.899349	-0.426445	0.034752
H204	H	1.844492	-0.712598	0.105887
H205	H	2.239911	0.059746	0.451909
H206	H	2.567310	0.068562	0.466019
H207	H	1.981214	-0.017658	0.839146
H208	H	1.819135	-0.804538	0.106307
C209	C	2.080379	-0.285511	0.447278
C210	C	2.016872	-0.284291	0.508544
C211	C	2.053133	-0.248653	0.585229
C212	C	2.152901	-0.214235	0.600649
C213	C	2.216413	-0.215454	0.539381
C214	C	2.180153	-0.251091	0.462695
H215	H	1.943013	-0.309771	0.497131
H216	H	2.006116	-0.247752	0.630584
H217	H	2.179743	-0.187854	0.657416
H218	H	2.290273	-0.189974	0.550793
H219	H	2.227170	-0.251993	0.417341
H220	H	2.083980	-0.160671	0.356908
C221	C	1.951596	0.157063	0.638211
C222	C	2.040343	0.196077	0.640196
C223	C	2.057073	0.244861	0.696264
C224	C	1.985055	0.254631	0.750347
C225	C	1.896301	0.215616	0.748364
C226	C	1.879572	0.166832	0.692296
H227	H	2.093660	0.188845	0.600159
H228	H	2.122774	0.273742	0.697732
H229	H	1.997439	0.290744	0.791852
H230	H	1.842984	0.222848	0.788401
H231	H	1.813870	0.137951	0.690828
H232	H	2.109314	-0.068729	0.356491
H233	H	1.882773	-0.486544	0.035021
H234	H	1.857418	-0.578479	0.035442
H235	H	2.316005	0.067384	-0.133444
H236	H	2.451846	0.063522	0.675520
H237	H	2.003705	-0.538731	0.428448
H238	H	2.449157	0.063191	-0.212726
H239	H	1.915115	0.144806	0.479288
C240	C	2.040685	0.155900	1.038733
C241	C	2.060160	0.155653	1.126267
C242	C	2.076864	0.204427	1.182355
C243	C	2.074094	0.253449	1.150909
C244	C	2.054618	0.253699	1.063371
C245	C	2.037914	0.204924	1.007283
H246	H	2.062211	0.119362	1.149549
H247	H	2.091281	0.204242	1.247157
H248	H	2.086459	0.289555	1.192429
H249	H	2.052567	0.289990	1.040089
H250	H	2.023497	0.205109	0.942481
H251	H	2.029053	-0.446808	0.428034
H252	H	2.529062	0.212766	0.239918
H253	H	2.272073	0.059325	0.596286
H254	H	2.004225	0.143646	0.879793
H255	H	2.720274	-0.086029	0.222882
H256	H	2.682023	0.058174	-0.003252
