data_functionalizedCrystal
_audit_creation_method	'MofGen! by Chris Wilmer'
_symmetry_space_group_name_H-M	'P1'
_symmetry_Int_Tables_number	1
_symmetry_cell_setting	triclinic
loop_
_symmetry_equiv_pos_as_xyz
  x,y,z
_cell_length_a	17.000371
_cell_length_b	17.038272
_cell_length_c	9.130307
_cell_angle_alpha	89.996293
_cell_angle_beta	89.998084
_cell_angle_gamma	83.355402
loop_
_atom_site_label
_atom_site_type_symbol
_atom_site_fract_x
_atom_site_fract_y
_atom_site_fract_z
O1	O	1.057998	0.028041	-0.121806
O2	O	0.828178	0.056286	-0.121808
O3	O	0.941722	-0.071558	-0.121795
O4	O	0.944454	0.155886	-0.121819
O5	O	0.941718	-0.071559	0.121804
O6	O	0.828174	0.056285	0.121791
O7	O	1.057994	0.028041	0.121793
Cu8	Cu	0.943084	0.042163	0.144034
Cu9	Cu	0.943088	0.042164	-0.144050
O10	O	0.944450	0.155885	0.121780
C11	C	0.798625	0.057803	-0.000009
C12	C	0.710572	0.062314	-0.000009
C13	C	0.673845	-0.007108	0.000000
C14	C	0.591110	-0.002864	-0.000011
C15	C	0.545102	0.070802	-0.000021
C16	C	0.581834	0.140229	-0.000035
C17	C	0.664568	0.135985	-0.000034
C18	C	0.295066	0.087196	-0.000032
C19	C	0.212327	0.091434	-0.000028
C20	C	0.221608	-0.051659	-0.000007
C21	C	0.304344	-0.055897	0.000002
C22	C	0.341068	0.013530	-0.000019
C23	C	0.460533	0.075141	-0.000027
C24	C	0.425636	0.009190	-0.000023
C25	C	0.939235	-0.100516	0.000004
C26	C	0.931823	-0.186802	0.000003
C27	C	0.999881	-0.241577	0.000006
C28	C	0.992911	-0.322650	-0.000008
C29	C	0.917882	-0.348946	-0.000014
C30	C	0.849819	-0.294164	-0.000021
C31	C	0.856789	-0.213093	-0.000017
C32	C	0.893256	-0.593018	-0.000034
C33	C	0.886291	-0.674096	-0.000033
C34	C	1.029384	-0.702577	-0.000024
C35	C	1.036348	-0.621502	-0.000012
C36	C	0.968285	-0.566727	-0.000026
C37	C	0.910756	-0.431816	-0.000024
C38	C	0.975411	-0.483859	-0.000027
C39	C	1.087547	0.026524	-0.000010
C40	C	1.175600	0.022013	-0.000019
C41	C	0.946936	0.184843	-0.000022
C42	C	0.954349	0.271129	-0.000031
N43	N	0.943086	0.042161	0.346657
N44	N	0.943092	0.042159	-0.346672
C45	C	1.043675	-0.071017	0.346658
C46	C	1.093975	-0.127605	0.423326
C47	C	1.093983	-0.127606	0.576659
C48	C	1.043684	-0.071015	0.653329
C49	C	0.993384	-0.014427	0.576662
C50	C	0.993383	-0.014431	0.423325
C51	C	0.892792	0.098746	0.576660
C52	C	0.892787	0.098752	0.423327
C53	C	0.842493	0.155337	0.653330
C54	C	0.792196	0.211930	0.576663
C55	C	0.792190	0.211929	0.423320
C56	C	0.842487	0.155340	0.346660
H57	H	0.694469	0.192515	-0.000035
Br58	Br	0.519395	0.240205	-0.000069
Br59	Br	0.784459	-0.709782	-0.000026
Br60	Br	1.162231	-0.204409	0.319274
Br61	Br	1.162241	-0.204409	0.680712
H62	H	1.036500	-0.462446	-0.000055
Br63	Br	1.043680	-0.071027	0.861426
Br64	Br	0.842494	0.155334	0.861427
H65	H	0.751242	0.257999	0.639097
Br66	Br	0.541270	-0.097084	-0.000049
H67	H	0.751227	0.258007	0.360905
H68	H	0.191698	-0.108182	-0.000006
H69	H	0.837834	-0.548429	-0.000046
H70	H	0.842490	0.155337	0.221807
H71	H	0.174868	0.151425	-0.000030
H72	H	0.341798	-0.115883	0.000017
Br73	Br	0.344896	0.181418	-0.000065
H74	H	0.423064	0.135120	-0.000034
H75	H	0.788728	-0.315581	-0.000034
H76	H	0.711300	-0.067095	0.000015
H77	H	0.463099	-0.050788	-0.000023
Br78	Br	0.808933	-0.467510	-0.000046
Br79	Br	1.121751	-0.776917	-0.000005
Br80	Br	1.101711	-0.205899	0.000034
H81	H	1.048332	-0.367246	-0.000004
H82	H	1.097445	-0.600099	-0.000007
H83	H	0.801369	-0.168494	-0.000019
H84	H	1.043681	-0.071016	0.221806
