data_functionalizedCrystal
_audit_creation_method	'MofGen! by Chris Wilmer'
_symmetry_space_group_name_H-M	'P1'
_symmetry_Int_Tables_number	1
_symmetry_cell_setting	triclinic
loop_
_symmetry_equiv_pos_as_xyz
  x,y,z
_cell_length_a	8.634740
_cell_length_b	8.559649
_cell_length_c	16.776229
_cell_angle_alpha	89.994739
_cell_angle_beta	89.993562
_cell_angle_gamma	85.174486
loop_
_atom_site_label
_atom_site_type_symbol
_atom_site_fract_x
_atom_site_fract_y
_atom_site_fract_z
O1	O	1.985476	0.511635	-0.066283
O2	O	1.541605	0.468733	-0.066284
O3	O	1.802646	0.263602	-0.066283
O4	O	1.724435	0.716765	-0.066285
O5	O	1.802617	0.263583	0.066294
O6	O	1.541576	0.468713	0.066292
O7	O	1.985447	0.511615	0.066294
Zn8	Zn	1.763507	0.490161	0.087342
Zn9	Zn	1.763545	0.490187	-0.087333
O10	O	1.724406	0.716746	0.066292
C11	C	1.485291	0.459004	0.000004
C12	C	1.317539	0.430026	0.000003
C13	C	1.808558	0.204975	0.000004
C14	C	1.826201	0.030311	-0.000000
C15	C	2.041761	0.521344	0.000004
C16	C	2.209512	0.550322	-0.000001
C17	C	1.718493	0.775373	0.000003
C18	C	1.700851	0.950037	0.000002
N19	N	1.763492	0.490144	0.206553
N20	N	1.763573	0.490193	-0.206544
C21	C	1.879107	0.399361	0.248271
C22	C	1.879115	0.399361	0.331723
C23	C	1.763514	0.490154	0.373456
C24	C	1.647887	0.580940	0.331733
C25	C	1.647873	0.580931	0.248282
C26	C	1.647938	0.580980	0.668280
C27	C	1.647963	0.580986	0.751736
C28	C	1.879180	0.399410	0.751721
C29	C	1.879166	0.399400	0.668271
C30	C	1.763536	0.490180	0.626554
C31	C	1.763526	0.490176	0.536066
C32	C	1.763528	0.490167	0.463943
H33	H	1.281685	0.304857	-0.000019
O34	O	1.523265	0.678917	0.796747
H35	H	1.542718	0.663684	0.861784
H36	H	1.973304	0.325475	0.634294
H37	H	1.580036	0.014934	0.000005
O38	O	1.986253	-0.055640	0.000006
H39	H	1.975467	-0.183943	0.000007
H40	H	1.553726	0.654853	0.214316
O41	O	2.003772	0.301419	0.203254
H42	H	2.119461	0.339634	0.219252
O43	O	1.256976	0.716121	0.000001
H44	H	1.385704	0.713630	0.000001
O45	O	2.003837	0.301479	0.376722
H46	H	2.084239	0.238370	0.333683
H47	H	1.973329	0.325487	0.785696
O48	O	1.523241	0.678903	0.623290
H49	H	1.442875	0.742051	0.666331
H50	H	1.553755	0.654859	0.365716
