data_functionalizedCrystal
_audit_creation_method	'MofGen! by Chris Wilmer'
_symmetry_space_group_name_H-M	'P1'
_symmetry_Int_Tables_number	1
_symmetry_cell_setting	triclinic
loop_
_symmetry_equiv_pos_as_xyz
  x,y,z
_cell_length_a	12.594517
_cell_length_b	19.121063
_cell_length_c	12.594509
_cell_angle_alpha	92.405810
_cell_angle_beta	89.978673
_cell_angle_gamma	92.468805
loop_
_atom_site_label
_atom_site_type_symbol
_atom_site_fract_x
_atom_site_fract_y
_atom_site_fract_z
Zn1	Zn	1.609106	-0.279596	-0.619881
Zn2	Zn	1.601367	-0.397059	-0.449473
Zn3	Zn	1.431108	-0.279626	-0.441911
Zn4	Zn	1.423466	-0.397010	-0.627400
O5	O	1.516262	-0.338323	-0.534666
O6	O	1.757025	-0.295185	-0.597293
O7	O	1.578742	-0.381514	-0.299526
O8	O	1.461157	-0.181338	-0.459208
O9	O	1.751339	-0.381485	-0.472096
O10	O	1.591931	-0.181315	-0.589961
O11	O	1.453653	-0.295237	-0.293971
O12	O	1.281149	-0.295189	-0.466499
O13	O	1.448132	-0.381402	-0.775346
O14	O	1.275534	-0.381431	-0.602777
O15	O	1.584521	-0.295138	-0.769822
O16	O	1.571331	-0.495337	-0.479386
O17	O	1.440628	-0.495301	-0.610109
C18	C	1.239722	-0.338309	-0.534634
C19	C	1.121416	-0.338319	-0.534646
C20	C	1.504339	-0.520803	-0.546407
C21	C	1.499336	-0.598868	-0.551466
C22	C	1.055190	-0.291349	-0.460657
C23	C	0.980217	-0.355414	-0.438606
C24	C	0.985587	-0.274285	-0.556717
C25	C	1.047999	-0.402419	-0.512547
C26	C	1.053378	-0.321246	-0.630701
C27	C	0.978435	-0.385356	-0.608690
C28	C	1.565089	-0.635539	-0.485838
C29	C	1.560390	-0.708890	-0.490602
C30	C	1.489932	-0.745569	-0.560988
C31	C	1.424176	-0.708893	-0.626623
C32	C	1.428881	-0.635544	-0.621864
C33	C	1.472323	-0.967038	-0.578765
C34	C	1.467620	-1.040393	-0.583517
C35	C	1.603835	-1.040385	-0.447497
C36	C	1.608530	-0.967034	-0.442740
C37	C	1.542779	-0.930365	-0.508378
C38	C	1.485124	-0.820546	-0.565857
C39	C	1.547592	-0.855389	-0.503514
C40	C	1.793882	-0.338337	-0.534699
C41	C	1.912187	-0.338343	-0.534713
C42	C	1.516337	-0.338261	-0.812283
C43	C	1.516369	-0.338235	-0.930587
C44	C	1.528260	-0.155130	-0.522903
C45	C	1.533373	-0.077064	-0.517890
C46	C	1.442211	-0.385127	-1.002843
C47	C	1.538217	-0.402288	-1.074740
C48	C	1.420442	-0.321032	-1.069487
C49	C	1.612424	-0.355429	-1.000927
C50	C	1.494585	-0.274143	-0.995667
C51	C	1.590659	-0.291280	-1.067530
C52	C	1.516251	-0.338333	-0.258126
C53	C	1.516438	-0.338162	-0.139810
H54	H	1.088788	-0.251666	-0.398014
O55	O	1.323680	-0.303742	-1.105642
C56	C	1.325355	-0.303304	-1.217549
H57	H	1.390896	-0.337766	-1.249253
H58	H	1.245373	-0.324386	-1.250387
H59	H	1.341149	-0.247407	-1.243498
O60	O	1.665500	-0.243935	-1.101479
C61	C	1.664157	-0.244015	-1.213424
H62	H	1.583170	-0.264897	-1.243908
H63	H	1.679690	-0.188309	-1.240291
H64	H	1.728525	-0.278903	-1.246595
O65	O	0.941972	-0.372545	-0.341664
C66	C	0.981206	-0.322891	-0.263847
H67	H	1.004428	-0.271782	-0.303007
H68	H	0.917036	-0.313003	-0.201814
H69	H	1.053878	-0.343738	-0.223796
H70	H	1.379541	-0.424844	-0.974345
O71	O	1.080886	-0.467005	-0.490162
C72	C	1.192879	-0.466209	-0.490380
H73	H	1.225818	-0.410228	-0.475068
H74	H	1.221505	-0.500628	-0.425361
H75	H	1.221876	-0.487127	-0.570887
O76	O	1.399201	-1.076133	-0.651802
C77	C	1.409166	-1.148736	-0.641937
H78	H	1.443424	-1.158771	-0.560476
H79	H	1.327645	-1.176653	-0.650891
H80	H	1.464482	-1.169493	-0.706465
O81	O	1.633381	-0.599881	-0.417348
C82	C	1.575542	-0.557507	-0.345813
H83	H	1.490294	-0.579660	-0.340597
H84	H	1.614136	-0.556697	-0.263884
H85	H	1.575424	-0.501901	-0.375110
O86	O	1.709336	-0.372715	-0.965168
C87	C	1.787462	-0.323493	-0.998900
H88	H	1.748720	-0.272333	-1.015887
H89	H	1.849842	-0.313509	-0.933835
H90	H	1.826998	-0.344833	-1.074250
O91	O	0.938610	-0.432902	-0.683259
C92	C	0.970491	-0.500311	-0.659638
H93	H	0.990112	-0.501573	-0.571402
H94	H	0.903298	-0.540483	-0.680006
H95	H	1.043840	-0.513386	-0.708402
O96	O	1.408401	-0.931343	-0.642360
C97	C	1.342392	-0.888995	-0.578945
H98	H	1.380684	-0.878028	-0.497609
H99	H	1.331412	-0.837400	-0.618938
H100	H	1.261704	-0.917311	-0.569011
O101	O	1.472339	-0.209561	-0.954405
C102	C	1.371054	-0.191657	-0.989270
H103	H	1.321882	-0.241418	-1.012362
H104	H	1.329350	-0.161520	-0.922527
H105	H	1.380027	-0.157555	-1.061110
H106	H	1.085502	-0.306771	-0.711878
H107	H	0.957978	-0.220129	-0.575322
O108	O	1.624484	-0.744382	-0.426897
C109	C	1.731665	-0.726325	-0.449183
H110	H	1.737139	-0.673062	-0.486702
H111	H	1.779640	-0.723755	-0.372275
H112	H	1.764887	-0.767554	-0.506593
O113	O	1.677076	-0.931515	-0.374348
C114	C	1.734090	-0.979611	-0.317428
H115	H	1.734393	-1.031875	-0.364414
H116	H	1.819321	-0.958380	-0.304784
H117	H	1.694660	-0.987471	-0.237060
O118	O	1.355876	-0.744599	-0.695054
C119	C	1.413720	-0.786949	-0.766619
H120	H	1.493700	-0.797913	-0.729865
H121	H	1.367047	-0.838545	-0.784187
H122	H	1.427187	-0.758636	-0.843672
O123	O	1.667675	-1.076115	-0.383861
C124	C	1.648403	-1.148721	-0.403135
H125	H	1.612845	-1.158716	-0.485887
H126	H	1.726353	-1.176554	-0.397810
H127	H	1.590430	-1.169603	-0.341295
H128	H	1.375340	-0.605687	-0.675306
H129	H	1.604963	-0.825523	-0.446209
H130	H	1.427755	-0.850418	-0.623164
H131	H	1.556680	-0.456457	-1.109336
