data_functionalizedCrystal
_audit_creation_method	'MofGen! by Chris Wilmer'
_symmetry_space_group_name_H-M	'P1'
_symmetry_Int_Tables_number	1
_symmetry_cell_setting	triclinic
loop_
_symmetry_equiv_pos_as_xyz
  x,y,z
_cell_length_a	11.169417
_cell_length_b	12.759400
_cell_length_c	11.169409
_cell_angle_alpha	89.966206
_cell_angle_beta	89.980176
_cell_angle_gamma	90.015563
loop_
_atom_site_label
_atom_site_type_symbol
_atom_site_fract_x
_atom_site_fract_y
_atom_site_fract_z
Zn1	Zn	1.834926	-0.418157	-0.678531
Zn2	Zn	1.834800	-0.593882	-0.477842
Zn3	Zn	1.634212	-0.418221	-0.477865
Zn4	Zn	1.634204	-0.593797	-0.678487
O5	O	1.734536	-0.506014	-0.578181
O6	O	2.002859	-0.441476	-0.651918
O7	O	1.808142	-0.570643	-0.309896
O8	O	1.660893	-0.271191	-0.504511
O9	O	2.002767	-0.570581	-0.504473
O10	O	1.808357	-0.271144	-0.651939
O11	O	1.660771	-0.441585	-0.309912
O12	O	1.466261	-0.441502	-0.504469
O13	O	1.660880	-0.570435	-0.846443
O14	O	1.466256	-0.570497	-0.651866
O15	O	1.808349	-0.441393	-0.846475
O16	O	1.808135	-0.740892	-0.504431
O17	O	1.660758	-0.740829	-0.651844
C18	C	1.422711	-0.505998	-0.578166
C19	C	1.289311	-0.506017	-0.578188
C20	C	1.734464	-0.778981	-0.578156
C21	C	1.734544	-0.895758	-0.578186
C22	C	1.811368	-0.950618	-0.501513
C23	C	1.811442	-1.060342	-0.501550
C24	C	1.657857	-1.060337	-0.654936
C25	C	1.657790	-0.950615	-0.654904
C26	C	1.888122	-0.895761	-0.424794
C27	C	1.964952	-0.950621	-0.348114
C28	C	1.965025	-1.060345	-0.348151
C29	C	1.888270	-1.115209	-0.424868
C30	C	2.047578	-0.506031	-0.578198
C31	C	2.180978	-0.506038	-0.578204
C32	C	1.734628	-0.505897	-0.891224
C33	C	1.734667	-0.505848	-1.024624
C34	C	1.734640	-0.231981	-0.578233
C35	C	1.734684	-0.115204	-0.578255
C36	C	1.734513	-0.506054	-0.266357
C37	C	1.734706	-0.505808	-0.132957
H38	H	2.027451	-0.905945	-0.285660
O39	O	1.888045	-0.777417	-0.424763
H40	H	1.954328	-0.748486	-0.358544
O41	O	1.888343	-1.233556	-0.424905
H42	H	1.978874	-1.262405	-0.449238
O43	O	2.047908	-1.119513	-0.265467
H44	H	2.035079	-1.205026	-0.278389
O45	O	1.575053	-1.119504	-0.737658
H46	H	1.587994	-1.205017	-0.724786
H47	H	1.595233	-0.905947	-0.717340
