data_functionalizedCrystal
_audit_creation_method	'MofGen! by Chris Wilmer'
_symmetry_space_group_name_H-M	'P1'
_symmetry_Int_Tables_number	1
_symmetry_cell_setting	triclinic
loop_
_symmetry_equiv_pos_as_xyz
  x,y,z
_cell_length_a	17.699104
_cell_length_b	17.699092
_cell_length_c	9.730223
_cell_angle_alpha	89.997288
_cell_angle_beta	89.995824
_cell_angle_gamma	83.288943
loop_
_atom_site_label
_atom_site_type_symbol
_atom_site_fract_x
_atom_site_fract_y
_atom_site_fract_z
O1	O	1.004067	0.095786	-0.114313
O2	O	1.504067	0.595786	0.385687
O3	O	0.783692	0.108222	-0.114309
O4	O	1.283692	0.608222	0.385691
O5	O	0.900102	-0.008185	-0.114308
O6	O	1.400102	0.491815	0.385692
O7	O	0.887657	0.212192	-0.114314
O8	O	1.387657	0.712192	0.385686
O9	O	0.900095	-0.008188	0.114272
O10	O	1.400095	0.491812	0.614272
O11	O	0.783684	0.108218	0.114271
O12	O	1.283684	0.608218	0.614271
O13	O	1.004060	0.095783	0.114267
O14	O	1.504060	0.595783	0.614267
Zn15	Zn	0.893871	0.102000	0.150561
Zn16	Zn	1.393871	0.602000	0.650561
Zn17	Zn	0.893881	0.102004	-0.150603
Zn18	Zn	1.393881	0.602004	0.349397
O19	O	0.887649	0.212189	0.114266
O20	O	1.387649	0.712189	0.614266
C21	C	0.755491	0.107772	-0.000018
C22	C	1.255491	0.607772	0.499982
C23	C	0.671474	0.106427	-0.000017
C24	C	1.171474	0.606427	0.499983
C25	C	0.146605	0.167170	-0.000033
C26	C	0.646605	0.667170	0.499967
C27	C	0.225548	0.168430	-0.000037
C28	C	0.725548	0.668430	0.499963
C29	C	0.274164	0.100095	-0.000035
C30	C	0.774164	0.600095	0.499965
C31	C	0.243832	0.030496	-0.000042
C32	C	0.743832	0.530496	0.499958
C33	C	0.164890	0.029238	-0.000048
C34	C	0.664890	0.529238	0.499952
C35	C	0.562198	0.035569	-0.000021
C36	C	1.062198	0.535569	0.499979
C37	C	0.641145	0.036833	-0.000011
C38	C	1.141145	0.536833	0.499989
C39	C	0.622857	0.174761	-0.000009
C40	C	1.122857	0.674761	0.499991
C41	C	0.543915	0.173503	-0.000015
C42	C	1.043915	0.673503	0.499985
C43	C	0.513590	0.103905	-0.000030
C44	C	1.013590	0.603905	0.499970
C45	C	0.427990	0.102540	-0.000028
C46	C	0.927990	0.602540	0.499972
C47	C	0.359762	0.101458	-0.000026
C48	C	0.859762	0.601458	0.499974
C49	C	0.899652	-0.036383	-0.000020
C50	C	1.399652	0.463617	0.499980
C51	C	0.898311	-0.120401	-0.000026
C52	C	1.398311	0.379599	0.499974
C53	C	0.897686	-0.159867	-0.124626
C54	C	1.397686	0.340133	0.375374
C55	C	0.896421	-0.238810	-0.124628
C56	C	1.396421	0.261190	0.375372
C57	C	0.895786	-0.278286	-0.000028
C58	C	1.395786	0.221714	0.499972
C59	C	0.896408	-0.238815	0.124582
C60	C	1.396408	0.261185	0.624582
C61	C	0.897668	-0.159872	0.124583
C62	C	1.397668	0.340128	0.624583
C63	C	0.891328	-0.557180	0.124584
C64	C	1.391328	-0.057180	0.624584
C65	C	0.890071	-0.636128	0.124575
C66	C	1.390071	-0.136128	0.624575
C67	C	0.890082	-0.636118	-0.124626
C68	C	1.390082	-0.136118	0.375374
C69	C	0.891341	-0.557175	-0.124626
C70	C	1.391341	-0.057175	0.375374
C71	C	0.891959	-0.517710	-0.000017
C72	C	1.391959	-0.017710	0.499983
C73	C	0.893329	-0.432111	-0.000017
C74	C	1.393329	0.067889	0.499983
C75	C	0.894421	-0.363885	-0.000027
C76	C	1.394421	0.136115	0.499973
C77	C	1.032260	0.096232	-0.000026
C78	C	1.532260	0.596232	0.499974
C79	C	1.116278	0.097577	-0.000036
C80	C	1.616278	0.597577	0.499964
C81	C	0.888100	0.240387	-0.000025
C82	C	1.388100	0.740387	0.499975
C83	C	0.889441	0.324405	-0.000027
C84	C	1.389441	0.824405	0.499973
N85	N	0.893870	0.101997	0.356098
N86	N	1.393870	0.601997	0.856098
N87	N	0.893888	0.102001	-0.356139
N88	N	1.393888	0.602001	0.143861
C89	C	0.945434	0.050474	0.428024
C90	C	1.445434	0.550474	0.928024
C91	C	0.945441	0.050474	0.571907
C92	C	1.445441	0.550474	1.071907
C93	C	0.842318	0.153527	0.571925
C94	C	1.342318	0.653527	1.071925
C95	C	0.842308	0.153523	0.428044
C96	C	1.342308	0.653523	0.928044
H97	H	0.680728	-0.018817	-0.000012
H98	H	1.180728	0.481183	0.499988
H99	H	0.889551	-0.668268	0.226045
H100	H	1.389551	-0.168268	0.726045
N101	N	0.786712	0.209098	0.649535
N102	N	1.286712	0.709098	1.149535
H103	H	0.815574	0.242579	0.709210
H104	H	1.315574	0.742579	1.209210
H105	H	0.754055	0.241686	0.582052
H106	H	1.254055	0.741686	1.082052
N107	N	0.258256	0.243492	-0.000010
N108	N	0.758256	0.743492	0.499990
H109	H	0.315642	0.233923	-0.000010
H110	H	0.815642	0.733923	0.499990
H111	H	0.240469	0.273396	-0.084741
H112	H	0.740469	0.773396	0.415259
H113	H	0.537518	-0.021102	-0.000029
H114	H	1.037518	0.478898	0.499971
H115	H	0.647557	0.231431	-0.000003
H116	H	1.147557	0.731431	0.499997
H117	H	0.107027	0.222817	-0.000024
H118	H	0.607027	0.722817	0.499976
H119	H	0.283421	-0.025143	-0.000049
H120	H	0.783421	0.474857	0.499951
N121	N	0.892031	-0.514598	-0.259015
N122	N	1.392031	-0.014598	0.240985
H123	H	0.891443	-0.551578	-0.337952
H124	H	1.391443	-0.051578	0.162048
H125	H	0.845654	-0.475626	-0.264439
H126	H	1.345654	0.024374	0.235561
H127	H	0.889575	-0.668259	-0.226089
H128	H	1.389575	-0.168259	0.273911
H129	H	0.800314	0.195479	0.369478
H130	H	1.300314	0.695479	0.869478
H131	H	0.504335	0.229148	-0.000010
H132	H	1.004335	0.729148	0.499990
H133	H	0.140199	-0.027432	-0.000054
H134	H	0.640199	0.472568	0.499946
N135	N	0.898347	-0.117310	0.258980
N136	N	1.398347	0.382690	0.758980
H137	H	0.945768	-0.090774	0.264535
H138	H	1.445768	0.409226	0.764535
H139	H	0.851938	-0.078380	0.264459
H140	H	1.351938	0.421620	0.764459
N141	N	1.001033	-0.005100	0.350404
N142	N	1.501033	0.494900	0.850404
H143	H	1.054735	0.003549	0.375415
H144	H	1.554735	0.503549	0.875415
H145	H	0.992351	-0.058783	0.375484
H146	H	1.492351	0.441217	0.875484
N147	N	0.898378	-0.117292	-0.259018
N148	N	1.398378	0.382708	0.240982
H149	H	0.897790	-0.154275	-0.337951
H150	H	1.397790	0.345725	0.162049
H151	H	0.852001	-0.078320	-0.264448
H152	H	1.352001	0.421680	0.235552
H153	H	0.895916	-0.270940	-0.226090
H154	H	1.395916	0.229060	0.273910
H155	H	0.891846	-0.525059	0.226049
H156	H	1.391846	-0.025059	0.726049
H157	H	0.895886	-0.270962	0.226034
H158	H	1.395886	0.229038	0.726034
N159	N	1.001067	-0.005087	0.649487
N160	N	1.501067	0.494913	1.149487
H161	H	1.033731	-0.037723	0.582072
H162	H	1.533731	0.462277	1.082072
H163	H	1.034467	0.023866	0.709155
H164	H	1.534467	0.523866	1.209155
