data_functionalizedCrystal
_audit_creation_method	'MofGen! by Chris Wilmer'
_symmetry_space_group_name_H-M	'P1'
_symmetry_Int_Tables_number	1
_symmetry_cell_setting	triclinic
loop_
_symmetry_equiv_pos_as_xyz
  x,y,z
_cell_length_a	23.532407
_cell_length_b	23.532407
_cell_length_c	13.930277
_cell_angle_alpha	89.990782
_cell_angle_beta	89.998126
_cell_angle_gamma	82.848678
loop_
_atom_site_label
_atom_site_type_symbol
_atom_site_fract_x
_atom_site_fract_y
_atom_site_fract_z
O1	O	0.755262	0.069134	-0.079721
O2	O	1.005262	0.319134	0.170279
O3	O	1.255262	0.569134	0.420279
O4	O	1.505262	0.819134	0.670279
O5	O	0.589398	0.079138	-0.079750
O6	O	0.839398	0.329138	0.170250
O7	O	1.089398	0.579138	0.420250
O8	O	1.339398	0.829138	0.670250
O9	O	0.677332	-0.008796	-0.079717
O10	O	0.927332	0.241204	0.170283
O11	O	1.177332	0.491204	0.420283
O12	O	1.427332	0.741204	0.670283
O13	O	0.667328	0.157068	-0.079754
O14	O	0.917328	0.407068	0.170246
O15	O	1.167328	0.657068	0.420246
O16	O	1.417328	0.907068	0.670246
O17	O	0.677320	-0.008798	0.079945
O18	O	0.927320	0.241202	0.329945
O19	O	1.177320	0.491202	0.579945
O20	O	1.427320	0.741202	0.829945
O21	O	0.589386	0.079136	0.079912
O22	O	0.839386	0.329136	0.329912
O23	O	1.089386	0.579136	0.579912
O24	O	1.339386	0.829136	0.829912
O25	O	0.755250	0.069133	0.079941
O26	O	1.005250	0.319133	0.329941
O27	O	1.255250	0.569133	0.579941
O28	O	1.505250	0.819133	0.829941
Zn29	Zn	0.672316	0.074134	0.105276
Zn30	Zn	0.922316	0.324134	0.355276
Zn31	Zn	1.172316	0.574134	0.605276
Zn32	Zn	1.422316	0.824134	0.855276
Zn33	Zn	0.672332	0.074136	-0.105085
Zn34	Zn	0.922332	0.324136	0.144915
Zn35	Zn	1.172332	0.574136	0.394915
Zn36	Zn	1.422332	0.824136	0.644915
O37	O	0.667316	0.157066	0.079908
O38	O	0.917316	0.407066	0.329908
O39	O	1.167316	0.657066	0.579908
O40	O	1.417316	0.907066	0.829908
C41	C	0.568176	0.078882	0.000077
C42	C	0.818176	0.328882	0.250077
C43	C	1.068176	0.578882	0.500077
C44	C	1.318176	0.828882	0.750077
C45	C	0.504959	0.078116	0.000067
C46	C	0.754959	0.328116	0.250067
C47	C	1.004959	0.578116	0.500067
C48	C	1.254959	0.828116	0.750067
C49	C	0.677071	-0.030013	0.000116
C50	C	0.927071	0.219987	0.250116
C51	C	1.177071	0.469987	0.500116
C52	C	1.427071	0.719987	0.750116
C53	C	0.676305	-0.093230	0.000124
C54	C	0.926305	0.156770	0.250124
C55	C	1.176305	0.406770	0.500124
C56	C	1.426305	0.656770	0.750124
C57	C	0.723539	-0.492333	0.000079
C58	C	0.973539	-0.242333	0.250079
C59	C	1.223539	0.007667	0.500079
C60	C	1.473539	0.257667	0.750079
C61	C	0.722827	-0.551733	0.000072
C62	C	0.972827	-0.301733	0.250072
C63	C	1.222827	-0.051733	0.500072
C64	C	1.472827	0.198267	0.750072
O65	O	0.766613	-0.588478	0.000044
O66	O	1.016613	-0.338478	0.250044
O67	O	1.266613	-0.088478	0.500044
O68	O	1.516613	0.161522	0.750044
N69	N	0.670551	-0.574359	0.000063
N70	N	0.920551	-0.324359	0.250063
N71	N	1.170551	-0.074359	0.500063
N72	N	1.420551	0.175641	0.750063
C73	C	0.618983	-0.537582	0.000052
C74	C	0.868983	-0.287582	0.250052
C75	C	1.118983	-0.037582	0.500052
C76	C	1.368983	0.212418	0.750052
O77	O	0.574452	-0.562281	0.000043
O78	O	0.824452	-0.312281	0.250043
O79	O	1.074452	-0.062281	0.500043
O80	O	1.324452	0.187719	0.750043
C81	C	0.619695	-0.478182	0.000053
C82	C	0.869695	-0.228182	0.250053
C83	C	1.119695	0.021818	0.500053
C84	C	1.369695	0.271818	0.750053
C85	C	0.671974	-0.455560	0.000071
C86	C	0.921974	-0.205560	0.250071
C87	C	1.171974	0.044440	0.500071
C88	C	1.421974	0.294440	0.750071
C89	C	0.775814	-0.469710	0.000097
C90	C	1.025814	-0.219710	0.250097
C91	C	1.275814	0.030290	0.500097
C92	C	1.525814	0.280290	0.750097
C93	C	0.776525	-0.410313	0.000106
C94	C	1.026525	-0.160313	0.250106
C95	C	1.276525	0.089687	0.500106
C96	C	1.526525	0.339687	0.750106
C97	C	0.724961	-0.373540	0.000098
C98	C	0.974961	-0.123540	0.250098
C99	C	1.224961	0.126460	0.500098
C100	C	1.474961	0.376460	0.750098
C101	C	0.672685	-0.396164	0.000080
C102	C	0.922685	-0.146164	0.250080
C103	C	1.172685	0.103836	0.500080
C104	C	1.422685	0.353836	0.750080
C105	C	0.568127	-0.441406	0.000035
C106	C	0.818127	-0.191406	0.250035
C107	C	1.068127	0.058594	0.500035
C108	C	1.318127	0.308594	0.750035
C109	C	0.568844	-0.382004	0.000035
C110	C	0.818844	-0.132004	0.250035
C111	C	1.068844	0.117996	0.500035
C112	C	1.318844	0.367996	0.750035
C113	C	0.621123	-0.359381	0.000053
C114	C	0.871123	-0.109381	0.250053
C115	C	1.121123	0.140619	0.500053
C116	C	1.371123	0.390619	0.750053
C117	C	0.621832	-0.299995	0.000082
C118	C	0.871832	-0.049995	0.250082
C119	C	1.121832	0.200005	0.500082
C120	C	1.371832	0.450005	0.750082
N121	N	0.674109	-0.277368	0.000090
N122	N	0.924109	-0.027368	0.250090
N123	N	1.174109	0.222632	0.500090
N124	N	1.424109	0.472632	0.750090
C125	C	0.725673	-0.314141	0.000098
C126	C	0.975673	-0.064141	0.250098
C127	C	1.225673	0.185859	0.500098
C128	C	1.475673	0.435859	0.750098
C129	C	0.617491	-0.662324	0.000050
C130	C	0.867491	-0.412324	0.250050
C131	C	1.117491	-0.162324	0.500050
C132	C	1.367491	0.087676	0.750050
C133	C	0.616778	-0.721722	0.000056
C134	C	0.866778	-0.471722	0.250056
C135	C	1.116778	-0.221722	0.500056
C136	C	1.366778	0.028278	0.750056
C137	C	0.720623	-0.735869	0.000074
C138	C	0.970623	-0.485869	0.250074
C139	C	1.220623	-0.235869	0.500074
C140	C	1.470623	0.014131	0.750074
C141	C	0.721335	-0.676470	0.000074
C142	C	0.971335	-0.426470	0.250074
C143	C	1.221335	-0.176470	0.500074
C144	C	1.471335	0.073530	0.750074
C145	C	0.669767	-0.639698	0.000058
C146	C	0.919767	-0.389698	0.250058
C147	C	1.169767	-0.139698	0.500058
C148	C	1.419767	0.110302	0.750058
C149	C	0.727163	-0.189405	0.000118
C150	C	0.977163	0.060595	0.250118
C151	C	1.227163	0.310595	0.500118
C152	C	1.477163	0.560595	0.750118
C153	C	0.727869	-0.130003	0.000132
C154	C	0.977869	0.119997	0.250132
C155	C	1.227869	0.369997	0.500132
C156	C	1.477869	0.619997	0.750132
C157	C	0.624025	-0.115860	0.000109
C158	C	0.874025	0.134140	0.250109
C159	C	1.124025	0.384140	0.500109
C160	C	1.374025	0.634140	0.750109
C161	C	0.623318	-0.175257	0.000101
C162	C	0.873318	0.074743	0.250101
C163	C	1.123318	0.324743	0.500101
C164	C	1.373318	0.574743	0.750101
C165	C	0.674891	-0.212029	0.000102
C166	C	0.924891	0.037971	0.250102
C167	C	1.174891	0.287971	0.500102
C168	C	1.424891	0.537971	0.750102
O169	O	0.578070	-0.263215	0.000105
O170	O	0.828070	-0.013215	0.250105
O171	O	1.078070	0.236785	0.500105
O172	O	1.328070	0.486785	0.750105
O173	O	0.770196	-0.289433	0.000095
O174	O	1.020196	-0.039433	0.250095
O175	O	1.270196	0.210567	0.500095
O176	O	1.520196	0.460567	0.750095
C177	C	0.105856	0.125350	0.000100
C178	C	0.355856	0.375350	0.250100
C179	C	0.605856	0.625350	0.500100
C180	C	0.855856	0.875350	0.750100
C181	C	0.046456	0.124638	0.000106
C182	C	0.296456	0.374638	0.250106
C183	C	0.546456	0.624638	0.500106
C184	C	0.796456	0.874638	0.750106
O185	O	0.009711	0.168424	0.000131
O186	O	0.259711	0.418424	0.250131
O187	O	0.509711	0.668424	0.500131
O188	O	0.759711	0.918424	0.750131
N189	N	0.023830	0.072362	0.000116
N190	N	0.273830	0.322362	0.250116
N191	N	0.523830	0.572362	0.500116
N192	N	0.773830	0.822362	0.750116
C193	C	0.060607	0.020794	0.000129
C194	C	0.310607	0.270794	0.250129
C195	C	0.560607	0.520794	0.500129
C196	C	0.810607	0.770794	0.750129
O197	O	0.035908	-0.023737	0.000139
O198	O	0.285908	0.226263	0.250139
O199	O	0.535908	0.476263	0.500139
O200	O	0.785908	0.726263	0.750139
C201	C	0.120006	0.021506	0.000130
C202	C	0.370006	0.271506	0.250130
C203	C	0.620006	0.521506	0.500130
C204	C	0.870006	0.771506	0.750130
C205	C	0.142629	0.073785	0.000110
C206	C	0.392629	0.323785	0.250110
C207	C	0.642629	0.573785	0.500110
C208	C	0.892629	0.823785	0.750110
C209	C	0.128479	0.177625	0.000081
C210	C	0.378479	0.427625	0.250081
C211	C	0.628479	0.677625	0.500081
C212	C	0.878479	0.927625	0.750081
C213	C	0.187876	0.178336	0.000073
C214	C	0.437876	0.428336	0.250073
C215	C	0.687876	0.678336	0.500073
C216	C	0.937876	0.928336	0.750073
C217	C	0.224649	0.126772	0.000084
C218	C	0.474649	0.376772	0.250084
C219	C	0.724649	0.626772	0.500084
C220	C	0.974649	0.876772	0.750084
C221	C	0.202025	0.074496	0.000103
C222	C	0.452025	0.324496	0.250103
C223	C	0.702025	0.574496	0.500103
C224	C	0.952025	0.824496	0.750103
C225	C	0.156783	-0.030062	0.000151
C226	C	0.406783	0.219938	0.250151
C227	C	0.656783	0.469938	0.500151
C228	C	0.906783	0.719938	0.750151
C229	C	0.216185	-0.029345	0.000152
C230	C	0.466185	0.220655	0.250152
C231	C	0.716185	0.470655	0.500152
C232	C	0.966185	0.720655	0.750152
C233	C	0.238808	0.022934	0.000133
C234	C	0.488808	0.272934	0.250133
C235	C	0.738808	0.522934	0.500133
C236	C	0.988808	0.772934	0.750133
C237	C	0.298194	0.023643	0.000106
C238	C	0.548194	0.273643	0.250106
C239	C	0.798194	0.523643	0.500106
C240	C	1.048194	0.773643	0.750106
N241	N	0.320820	0.075920	0.000096
N242	N	0.570820	0.325920	0.250096
N243	N	0.820820	0.575920	0.500096
N244	N	1.070820	0.825920	0.750096
C245	C	0.284048	0.127484	0.000085
C246	C	0.534048	0.377484	0.250085
C247	C	0.784048	0.627484	0.500085
C248	C	1.034048	0.877484	0.750085
C249	C	-0.064135	0.019302	0.000129
C250	C	0.185865	0.269302	0.250129
C251	C	0.435865	0.519302	0.500129
C252	C	0.685865	0.769302	0.750129
C253	C	-0.123533	0.018589	0.000122
C254	C	0.126467	0.268589	0.250122
C255	C	0.376467	0.518589	0.500122
C256	C	0.626467	0.768589	0.750122
C257	C	-0.137680	0.122434	0.000100
C258	C	0.112320	0.372434	0.250100
C259	C	0.362320	0.622434	0.500100
C260	C	0.612320	0.872434	0.750100
C261	C	-0.078281	0.123146	0.000100
C262	C	0.171719	0.373146	0.250100
C263	C	0.421719	0.623146	0.500100
C264	C	0.671719	0.873146	0.750100
C265	C	-0.041509	0.071578	0.000119
C266	C	0.208491	0.321578	0.250119
C267	C	0.458491	0.571578	0.500119
C268	C	0.708491	0.821578	0.750119
C269	C	0.408784	0.128974	0.000068
C270	C	0.658784	0.378974	0.250068
C271	C	0.908784	0.628974	0.500068
C272	C	1.158784	0.878974	0.750068
C273	C	0.468186	0.129680	0.000056
C274	C	0.718186	0.379680	0.250056
C275	C	0.968186	0.629680	0.500056
C276	C	1.218186	0.879680	0.750056
C277	C	0.482329	0.025836	0.000083
C278	C	0.732329	0.275836	0.250083
C279	C	0.982329	0.525836	0.500083
C280	C	1.232329	0.775836	0.750083
C281	C	0.422932	0.025129	0.000090
C282	C	0.672932	0.275129	0.250090
C283	C	0.922932	0.525129	0.500090
C284	C	1.172932	0.775129	0.750090
C285	C	0.386160	0.076702	0.000085
C286	C	0.636160	0.326702	0.250085
C287	C	0.886160	0.576702	0.500085
C288	C	1.136160	0.826702	0.750085
O289	O	0.334974	-0.020119	0.000085
O290	O	0.584974	0.229881	0.250085
O291	O	0.834974	0.479881	0.500085
O292	O	1.084974	0.729881	0.750085
O293	O	0.308755	0.172007	0.000087
O294	O	0.558755	0.422007	0.250087
O295	O	0.808755	0.672007	0.500087
O296	O	1.058755	0.922007	0.750087
C297	C	0.776472	0.069388	0.000112
C298	C	1.026472	0.319388	0.250112
C299	C	1.276472	0.569388	0.500112
C300	C	1.526472	0.819388	0.750112
C301	C	0.839689	0.070154	0.000116
C302	C	1.089689	0.320154	0.250116
C303	C	1.339689	0.570154	0.500116
C304	C	1.589689	0.820154	0.750116
C305	C	0.667577	0.178283	0.000072
C306	C	0.917577	0.428283	0.250072
C307	C	1.167577	0.678283	0.500072
C308	C	1.417577	0.928283	0.750072
C309	C	0.668343	0.241500	0.000059
C310	C	0.918343	0.491500	0.250059
C311	C	1.168343	0.741500	0.500059
C312	C	1.418343	0.991500	0.750059
N313	N	0.672309	0.074132	0.248842
N314	N	0.922309	0.324132	0.498842
N315	N	1.172309	0.574132	0.748842
N316	N	1.422309	0.824132	0.998842
N317	N	0.672343	0.074134	-0.248651
N318	N	0.922343	0.324134	0.001349
N319	N	1.172343	0.574134	0.251349
N320	N	1.422343	0.824134	0.501349
C321	C	0.633394	0.113058	0.701097
C322	C	0.883394	0.363058	0.951097
C323	C	1.133394	0.613058	1.201097
C324	C	1.383394	0.863058	1.451097
C325	C	0.711286	0.035210	0.701096
C326	C	0.961286	0.285210	0.951096
C327	C	1.211286	0.535210	1.201096
C328	C	1.461286	0.785210	1.451096
C329	C	0.711279	0.035208	0.600600
C330	C	0.961279	0.285208	0.850600
C331	C	1.211279	0.535208	1.100600
C332	C	1.461279	0.785208	1.350600
C333	C	0.672330	0.074133	0.550348
C334	C	0.922330	0.324133	0.800348
C335	C	1.172330	0.574133	1.050348
C336	C	1.422330	0.824133	1.300348
C337	C	0.633387	0.113059	0.600592
C338	C	0.883387	0.363059	0.850592
C339	C	1.133387	0.613059	1.100592
C340	C	1.383387	0.863059	1.350592
C341	C	0.750225	-0.003713	0.550349
C342	C	1.000225	0.246287	0.800349
C343	C	1.250225	0.496287	1.050349
C344	C	1.500225	0.746287	1.300349
C345	C	0.750220	-0.003716	0.449847
C346	C	1.000220	0.246284	0.699847
C347	C	1.250220	0.496284	0.949847
C348	C	1.500220	0.746284	1.199847
C349	C	0.711268	0.035206	0.399593
C350	C	0.961268	0.285206	0.649593
C351	C	1.211268	0.535206	0.899593
C352	C	1.461268	0.785206	1.149593
C353	C	0.672323	0.074133	0.449843
C354	C	0.922323	0.324133	0.699843
C355	C	1.172323	0.574133	0.949843
C356	C	1.422323	0.824133	1.199843
C357	C	0.633373	0.113057	0.399591
C358	C	0.883373	0.363057	0.649591
C359	C	1.133373	0.613057	0.899591
C360	C	1.383373	0.863057	1.149591
C361	C	0.594425	0.151982	0.449839
C362	C	0.844425	0.401982	0.699839
C363	C	1.094425	0.651982	0.949839
C364	C	1.344425	0.901982	1.199839
C365	C	0.594434	0.151981	0.550338
C366	C	0.844434	0.401981	0.800338
C367	C	1.094434	0.651981	1.050338
C368	C	1.344434	0.901981	1.300338
C369	C	0.711259	0.035208	0.299094
C370	C	0.961259	0.285208	0.549094
C371	C	1.211259	0.535208	0.799094
C372	C	1.461259	0.785208	1.049094
C373	C	0.633367	0.113058	0.299086
C374	C	0.883367	0.363058	0.549086
C375	C	1.133367	0.613058	0.799086
C376	C	1.383367	0.863058	1.049086
H377	H	0.770443	-0.111587	0.000149
H378	H	1.020443	0.138413	0.250149
H379	H	1.270443	0.388413	0.500149
H380	H	1.520443	0.638413	0.750149
F381	F	0.791670	-0.045143	0.396376
F382	F	1.041670	0.204857	0.646376
F383	F	1.291670	0.454857	0.896376
F384	F	1.541670	0.704857	1.146376
F385	F	0.775503	-0.775016	0.000077
F386	F	1.025503	-0.525016	0.250077
F387	F	1.275503	-0.275016	0.500077
F388	F	1.525503	-0.025016	0.750077
H389	H	0.743000	0.003522	0.742014
H390	H	0.993000	0.253522	0.992014
H391	H	1.243000	0.503522	1.242014
H392	H	1.493000	0.753522	1.492014
F393	F	0.211944	0.233980	0.000057
F394	F	0.461944	0.483980	0.250057
F395	F	0.711944	0.733980	0.500057
F396	F	0.961944	0.983980	0.750057
H397	H	0.580748	-0.193677	0.000112
H398	H	0.830748	0.056323	0.250112
H399	H	1.080748	0.306323	0.500112
H400	H	1.330748	0.556323	0.750112
F401	F	0.752711	-0.006213	0.245623
F402	F	1.002711	0.243787	0.495623
F403	F	1.252711	0.493787	0.745623
F404	F	1.502711	0.743787	0.995623
F405	F	0.791680	-0.045134	0.603830
F406	F	1.041680	0.204866	0.853830
F407	F	1.291680	0.454866	1.103830
F408	F	1.541680	0.704866	1.353830
F409	F	0.569149	-0.076714	0.000100
F410	F	0.819149	0.173286	0.250100
F411	F	1.069149	0.423286	0.500100
F412	F	1.319149	0.673286	0.750100
F413	F	0.552977	0.193410	0.396347
F414	F	0.802977	0.443410	0.646347
F415	F	1.052977	0.693410	0.896347
F416	F	1.302977	0.943410	1.146347
F417	F	0.782053	-0.228531	0.000120
F418	F	1.032053	0.021469	0.250120
F419	F	1.282053	0.271469	0.500120
F420	F	1.532053	0.521469	0.750120
H421	H	-0.167632	0.164421	0.000095
H422	H	0.082368	0.414421	0.250095
H423	H	0.332368	0.664421	0.500095
H424	H	0.582368	0.914421	0.750095
F425	F	0.832169	-0.386245	0.000105
F426	F	1.082169	-0.136245	0.250105
F427	F	1.332169	0.113755	0.500105
F428	F	1.582169	0.363755	0.750105
F429	F	0.591907	0.154485	0.245612
F430	F	0.841907	0.404485	0.495612
F431	F	1.091907	0.654485	0.745612
F432	F	1.341907	0.904485	0.995612
H433	H	0.098544	0.219617	0.000075
H434	H	0.348544	0.469617	0.250075
H435	H	0.598544	0.719617	0.500075
H436	H	0.848544	0.969617	0.750075
H437	H	0.817806	-0.499645	0.000100
H438	H	1.067806	-0.249645	0.250100
H439	H	1.317806	0.000355	0.500100
H440	H	1.567806	0.250355	0.750100
F441	F	0.561135	-0.745792	0.000054
F442	F	0.811135	-0.495792	0.250054
F443	F	1.061135	-0.245792	0.500054
F444	F	1.311135	0.004208	0.750054
H445	H	0.138375	-0.072634	0.000168
H446	H	0.388375	0.177366	0.250168
H447	H	0.638375	0.427366	0.500168
H448	H	0.888375	0.677366	0.750168
F449	F	-0.054210	0.178789	0.000081
F450	F	0.195790	0.428789	0.250081
F451	F	0.445790	0.678789	0.500081
F452	F	0.695790	0.928789	0.750081
H453	H	0.486602	0.172255	0.000039
H454	H	0.736602	0.422255	0.250039
H455	H	0.986602	0.672255	0.500039
H456	H	1.236602	0.922255	0.750039
F457	F	0.521475	-0.029040	0.000096
F458	F	0.771475	0.220960	0.250096
F459	F	1.021475	0.470960	0.500096
F460	F	1.271475	0.720960	0.750096
F461	F	-0.147603	-0.037054	0.000121
F462	F	0.102397	0.212946	0.250121
F463	F	0.352397	0.462946	0.500121
F464	F	0.602397	0.712946	0.750121
F465	F	0.369658	0.183864	0.000064
F466	F	0.619658	0.433864	0.250064
F467	F	0.869658	0.683864	0.500064
F468	F	1.119658	0.933864	0.750064
H469	H	0.575496	-0.632386	0.000045
H470	H	0.825496	-0.382386	0.250045
H471	H	1.075496	-0.132386	0.500045
H472	H	1.325496	0.117614	0.750045
F473	F	0.776978	-0.652399	0.000094
F474	F	1.026978	-0.402399	0.250094
F475	F	1.276978	-0.152399	0.500094
F476	F	1.526978	0.097601	0.750094
H477	H	-0.034198	-0.022693	0.000136
H478	H	0.215802	0.227307	0.250136
H479	H	0.465802	0.477307	0.500136
H480	H	0.715802	0.727307	0.750136
F481	F	0.512483	-0.465469	0.000011
F482	F	0.762483	-0.215469	0.250011
F483	F	1.012483	0.034531	0.500011
F484	F	1.262483	0.284531	0.750011
H485	H	0.601681	0.144749	0.742011
H486	H	0.851681	0.394749	0.992011
H487	H	1.101681	0.644749	1.242011
H488	H	1.351681	0.894749	1.492011
H489	H	0.246123	-0.071339	0.000169
H490	H	0.496123	0.178661	0.250169
H491	H	0.746123	0.428661	0.500169
H492	H	0.996123	0.678661	0.750169
F493	F	0.552987	0.193405	0.603819
F494	F	0.802987	0.443405	0.853819
F495	F	1.052987	0.693405	1.103819
F496	F	1.302987	0.943405	1.353819
H497	H	0.404512	-0.017441	0.000092
H498	H	0.654512	0.232559	0.250092
H499	H	0.904512	0.482559	0.500092
H500	H	1.154512	0.732559	0.750092
H501	H	0.526850	-0.352066	0.000020
H502	H	0.776850	-0.102066	0.250020
H503	H	1.026850	0.147934	0.500020
H504	H	1.276850	0.397934	0.750020
