data_functionalizedCrystal
_audit_creation_method	'MofGen! by Chris Wilmer'
_symmetry_space_group_name_H-M	'P1'
_symmetry_Int_Tables_number	1
_symmetry_cell_setting	triclinic
loop_
_symmetry_equiv_pos_as_xyz
  x,y,z
_cell_length_a	17.038272
_cell_length_b	17.038272
_cell_length_c	16.098538
_cell_angle_alpha	87.079695
_cell_angle_beta	87.069734
_cell_angle_gamma	88.888444
loop_
_atom_site_label
_atom_site_type_symbol
_atom_site_fract_x
_atom_site_fract_y
_atom_site_fract_z
O1	O	1.052033	-0.167266	-0.069152
O2	O	1.552033	0.332734	0.430848
O3	O	0.824222	-0.164557	-0.069177
O4	O	1.324222	0.335443	0.430823
O5	O	0.936773	-0.052006	-0.069158
O6	O	1.436773	0.447994	0.430842
O7	O	0.939482	-0.279817	-0.069171
O8	O	1.439482	0.220183	0.430829
O9	O	0.930197	-0.058553	0.069354
O10	O	1.430197	0.441447	0.569354
O11	O	0.817646	-0.171104	0.069335
O12	O	1.317646	0.328896	0.569335
O13	O	1.045456	-0.173813	0.069359
O14	O	1.545456	0.326187	0.569359
Zn15	Zn	0.930507	-0.173498	0.091339
Zn16	Zn	1.430507	0.326502	0.591339
Zn17	Zn	0.939172	-0.164872	-0.091156
Zn18	Zn	1.439172	0.335128	0.408844
O19	O	0.932905	-0.286364	0.069341
O20	O	1.432905	0.213636	0.569341
C21	C	0.791641	-0.165367	0.000076
C22	C	1.291641	0.334633	0.500076
C23	C	0.704358	-0.158019	0.000067
C24	C	1.204358	0.341981	0.500067
C25	C	0.658749	-0.225482	0.000064
C26	C	1.158749	0.274518	0.500064
C27	C	0.576737	-0.218574	0.000075
C28	C	1.076737	0.281426	0.500075
C29	C	0.540335	-0.144201	0.000085
C30	C	1.040335	0.355799	0.500085
C31	C	0.585950	-0.076733	0.000090
C32	C	1.085950	0.423267	0.500090
C33	C	0.667961	-0.083642	0.000084
C34	C	1.167961	0.416358	0.500084
C35	C	0.292946	-0.119792	0.000108
C36	C	0.792946	0.380208	0.500108
C37	C	0.210929	-0.112887	0.000112
C38	C	0.710929	0.387113	0.500112
C39	C	0.201722	-0.254729	0.000098
C40	C	0.701722	0.245271	0.500098
C41	C	0.283734	-0.261632	0.000088
C42	C	0.783734	0.238368	0.500088
C43	C	0.329342	-0.194164	0.000098
C44	C	0.829342	0.305836	0.500098
C45	C	0.456505	-0.137138	0.000094
C46	C	0.956505	0.362862	0.500094
C47	C	0.413170	-0.201228	0.000094
C48	C	0.913170	0.298772	0.500094
C49	C	0.931022	-0.025987	0.000097
C50	C	1.431022	0.474013	0.500097
C51	C	0.923674	0.061297	0.000096
C52	C	1.423674	0.561297	0.500096
C53	C	1.078037	-0.173002	0.000105
C54	C	1.578037	0.326998	0.500105
C55	C	1.165320	-0.180351	0.000108
C56	C	1.665320	0.319649	0.500108
C57	C	0.938656	-0.312383	0.000083
C58	C	1.438656	0.187617	0.500083
C59	C	0.946005	-0.399666	0.000079
C60	C	1.446005	0.100334	0.500079
N61	N	0.924599	-0.179385	0.215887
N62	N	1.424599	0.320615	0.715887
C63	C	0.991137	0.106906	0.000104
C64	C	1.491137	0.606906	0.500104
C65	C	0.984229	0.188918	0.000096
C66	C	1.484229	0.688918	0.500096
C67	C	0.909856	0.225320	0.000085
C68	C	1.409856	0.725320	0.500085
C69	C	0.842388	0.179705	0.000074
C70	C	1.342388	0.679705	0.500074
C71	C	0.849297	0.097694	0.000077
C72	C	1.349297	0.597694	0.500077
C73	C	0.885446	0.472708	0.000071
C74	C	1.385446	0.972708	0.500071
C75	C	0.878541	0.554725	0.000071
C76	C	1.378541	1.054725	0.500071
C77	C	1.020383	0.563932	0.000091
C78	C	1.520383	1.063932	0.500091
C79	C	1.027286	0.481920	0.000098
C80	C	1.527286	0.981920	0.500098
C81	C	0.959818	0.436312	0.000083
C82	C	1.459818	0.936312	0.500083
C83	C	0.902792	0.309149	0.000079
C84	C	1.402792	0.809149	0.500079
C85	C	0.966882	0.352485	0.000084
C86	C	1.466882	0.852485	0.500084
N87	N	0.945085	-0.158979	-0.215705
N88	N	1.445085	0.341021	0.284295
C89	C	0.972390	-0.131633	0.259480
C90	C	1.472390	0.368367	0.759480
C91	C	0.968265	-0.135759	0.346668
C92	C	1.468265	0.364241	0.846668
C93	C	0.916352	-0.187642	0.390262
C94	C	1.416352	0.312358	0.890262
C95	C	0.868556	-0.235395	0.346663
C96	C	1.368556	0.264605	0.846663
C97	C	0.872678	-0.231265	0.259476
C98	C	1.372678	0.268735	0.759476
C99	C	0.901410	-0.202602	0.653510
C100	C	1.401410	0.297398	1.153510
C101	C	0.897294	-0.206731	0.740702
C102	C	1.397294	0.293269	1.240702
C103	C	0.997003	-0.107093	0.740702
C104	C	1.497003	0.392907	1.240702
C105	C	1.001123	-0.102971	0.653513
C106	C	1.501123	0.397029	1.153513
C107	C	0.953324	-0.150721	0.609922
C108	C	1.453324	0.349279	1.109922
C109	C	0.912136	-0.191862	0.479383
C110	C	1.412136	0.308138	0.979383
C111	C	0.957536	-0.146496	0.520803
C112	C	1.457536	0.353504	1.020803
H113	H	0.442811	-0.261782	0.000091
H114	H	0.942811	0.238218	0.500091
N115	N	0.320932	-0.337594	0.000077
N116	N	0.820932	0.162406	0.500077
N117	N	0.368434	-0.354508	-0.058312
N118	N	0.868434	0.145492	0.441688
H119	H	0.394709	-0.408156	-0.058322
H120	H	0.894709	0.091844	0.441678
H121	H	1.035918	-0.068216	0.776202
H122	H	1.535918	0.431784	1.276202
N123	N	0.339523	-0.050876	0.000125
N124	N	0.839523	0.449124	0.500125
N125	N	0.330679	-0.005379	0.058515
N126	N	0.830679	0.494621	0.558515
H127	H	0.363576	0.043298	0.058527
H128	H	0.863576	0.543298	0.558527
H129	H	1.087848	0.452287	0.000107
H130	H	1.587848	0.952287	0.500107
H131	H	1.014666	-0.089389	0.223992
H132	H	1.514666	0.410611	0.723992
H133	H	0.794361	0.060560	0.000070
H134	H	1.294361	0.560560	0.500070
H135	H	0.164579	-0.309658	0.000092
H136	H	0.664579	0.190342	0.500092
N137	N	0.766410	0.216872	0.000079
N138	N	1.266410	0.716872	0.500079
N139	N	0.706181	0.176137	0.000078
N140	N	1.206181	0.676137	0.500078
H141	H	0.652519	0.202384	0.000086
H142	H	1.152519	0.702384	0.500086
N143	N	0.823851	-0.280044	0.214957
N144	N	1.323851	0.219956	0.714957
N145	N	0.777503	-0.326364	0.253887
N146	N	1.277503	0.173636	0.753887
H147	H	0.743015	-0.360815	0.222447
H148	H	1.243015	0.139185	0.722447
H149	H	1.027437	0.322844	0.000074
H150	H	1.527437	0.822844	0.500074
N151	N	0.530160	-0.287495	0.000077
N152	N	1.030160	0.212505	0.500077
N153	N	0.562671	-0.353894	0.000065
N154	N	1.062671	0.146106	0.500065
H155	H	0.529777	-0.402574	0.000067
H156	H	1.029777	0.097426	0.500067
N157	N	0.548757	-0.000768	0.000108
N158	N	1.048757	0.499232	0.500108
N159	N	0.475533	0.005392	0.000113
N160	N	0.975533	0.505392	0.500113
H161	H	0.449265	0.059044	0.000124
H162	H	0.949265	0.559044	0.500124
N163	N	1.054298	-0.050113	0.608999
N164	N	1.554298	0.449887	1.108999
N165	N	1.097060	-0.007575	0.647933
N166	N	1.597060	0.492425	1.147933
H167	H	1.134671	0.029702	0.616495
H168	H	1.634671	0.529702	1.116495
H169	H	0.830508	0.435584	0.000059
H170	H	1.330508	0.935584	0.500059
H171	H	0.705095	-0.028706	0.000086
H172	H	1.205095	0.471294	0.500086
N173	N	0.844260	-0.259718	0.785247
N174	N	1.344260	0.240282	1.285247
N175	N	0.840592	-0.263397	0.863091
N176	N	1.340592	0.236603	1.363091
H177	H	0.803139	-0.300817	0.894553
H178	H	1.303139	0.199183	1.394553
N179	N	0.826816	0.346318	0.000073
N180	N	1.326816	0.846318	0.500073
N181	N	0.782865	0.336830	-0.058311
N182	N	1.282865	0.836830	0.441689
H183	H	0.729205	0.363080	-0.058315
H184	H	1.229205	0.863080	0.441685
N185	N	1.067107	0.069724	0.000134
N186	N	1.567107	0.569724	0.500134
N187	N	1.111045	0.079213	0.058529
N188	N	1.611045	0.579213	0.558529
H189	H	1.164701	0.052955	0.058550
H190	H	1.664701	0.552955	0.558550
N191	N	0.852578	-0.251379	0.609002
N192	N	1.352578	0.248621	1.109002
N193	N	0.806232	-0.297697	0.647938
N194	N	1.306232	0.202303	1.147938
H195	H	0.771740	-0.332148	0.616503
H196	H	1.271740	0.167852	1.116503
N197	N	0.802566	0.591905	0.000039
N198	N	1.302566	1.091905	0.500039
N199	N	0.785662	0.639397	-0.058351
N200	N	1.285662	1.139397	0.441649
H201	H	0.732006	0.665655	-0.058372
H202	H	1.232006	1.165655	0.441628
H203	H	0.826283	-0.277636	0.382162
H204	H	1.326283	0.222364	0.882162
N205	N	0.859103	-0.244849	0.523918
N206	N	1.359103	0.255151	1.023918
N207	N	0.806403	-0.218957	0.572578
N208	N	1.306403	0.281043	1.072578
H209	H	0.768946	-0.256376	0.604035
H210	H	1.268946	0.243624	1.104035
N211	N	0.173758	-0.036907	0.000119
N212	N	0.673758	0.463093	0.500119
N213	N	0.214486	0.023326	0.000128
N214	N	0.714486	0.523326	0.500128
H215	H	0.188234	0.076985	0.000131
H216	H	0.688234	0.576985	0.500131
N217	N	1.010527	-0.093486	0.476248
N218	N	1.510527	0.406514	0.976248
N219	N	0.984629	-0.040783	0.427611
N220	N	1.484629	0.459217	0.927611
H221	H	1.022047	-0.003344	0.396126
H222	H	1.522047	0.496656	0.896126
N223	N	0.695915	-0.301460	0.000064
N224	N	1.195915	0.198540	0.500064
N225	N	0.680904	-0.350931	0.058450
N226	N	1.180904	0.149069	0.558450
H227	H	0.707150	-0.404594	0.058454
H228	H	1.207150	0.095406	0.558454
N229	N	1.053150	0.235495	0.000096
N230	N	1.553150	0.735495	0.500096
N231	N	1.119549	0.202984	0.000107
N232	N	1.619549	0.702984	0.500107
H233	H	1.168228	0.235878	0.000104
H234	H	1.668228	0.735878	0.500104
N235	N	0.419323	-0.061168	0.000079
N236	N	0.919323	0.438832	0.500079
N237	N	0.434323	-0.011697	-0.058310
N238	N	0.934323	0.488303	0.441690
H239	H	0.408061	0.041958	-0.058321
H240	H	0.908061	0.541958	0.441679
H241	H	1.007180	-0.096876	0.382161
H242	H	1.507180	0.403124	0.882161
N243	N	1.089304	0.610508	0.000107
N244	N	1.589304	1.110508	0.500107
N245	N	1.134789	0.601673	0.058499
N246	N	1.634789	1.101673	0.558499
H247	H	1.183468	0.634566	0.058509
H248	H	1.683468	1.134566	0.558509
