data_functionalizedCrystal
_audit_creation_method	'MofGen! by Chris Wilmer'
_symmetry_space_group_name_H-M	'P1'
_symmetry_Int_Tables_number	1
_symmetry_cell_setting	triclinic
loop_
_symmetry_equiv_pos_as_xyz
  x,y,z
_cell_length_a	10.654553
_cell_length_b	10.654541
_cell_length_c	13.448316
_cell_angle_alpha	89.994605
_cell_angle_beta	90.003190
_cell_angle_gamma	95.513787
loop_
_atom_site_label
_atom_site_type_symbol
_atom_site_fract_x
_atom_site_fract_y
_atom_site_fract_z
O1	O	-0.176387	1.667853	-0.082653
O2	O	-0.193196	1.302375	-0.082661
O3	O	-0.002053	1.493511	-0.082659
O4	O	-0.367530	1.476717	-0.082655
O5	O	-0.002041	1.493487	0.082725
O6	O	-0.193184	1.302350	0.082723
O7	O	-0.176375	1.667829	0.082731
Cu8	Cu	-0.184778	1.485087	0.097828
Cu9	Cu	-0.184792	1.485116	-0.097758
O10	O	-0.367518	1.476692	0.082728
C11	C	-0.191956	1.255564	0.000030
C12	C	-0.188266	1.116121	0.000026
C13	C	-0.416829	1.088157	0.000016
C14	C	-0.529372	1.008666	0.000007
C15	C	-0.525897	0.877648	0.000006
C16	C	-0.409866	0.826119	0.000017
C17	C	-0.297323	0.905610	0.000026
C18	C	-0.300811	1.036630	0.000024
C19	C	-0.068762	0.933573	0.000044
C20	C	-0.072235	1.064592	0.000037
C21	C	0.047268	0.882045	0.000055
C22	C	0.159814	0.961536	0.000057
C23	C	0.156333	1.092561	0.000057
C24	C	0.040308	1.144083	0.000047
C25	C	-0.414322	1.477940	0.000037
C26	C	-0.553765	1.481636	0.000038
C27	C	-0.553772	1.481626	0.180345
C28	C	-0.619284	1.483361	0.270495
C29	C	-0.750303	1.486833	0.270491
C30	C	-0.815812	1.488566	0.180327
C31	C	-0.750300	1.486831	0.090177
C32	C	-0.619278	1.483362	0.090191
C33	C	-0.750294	1.486832	-0.090128
C34	C	-0.619274	1.483369	-0.090126
C35	C	-0.815803	1.488565	-0.180292
C36	C	-0.750290	1.486839	-0.270444
C37	C	-0.619263	1.483368	-0.270436
C38	C	-0.553762	1.481634	-0.180276
C39	C	0.044751	1.492264	0.000030
C40	C	0.184194	1.488567	0.000023
C41	C	-0.177614	1.714639	0.000038
C42	C	-0.181305	1.854083	0.000034
N43	N	-0.184767	1.485076	0.235392
N44	N	-0.184793	1.485137	-0.235322
C45	C	-0.100165	1.569738	0.287433
C46	C	-0.100164	1.569746	0.391536
C47	C	-0.184773	1.485097	0.443596
C48	C	-0.269380	1.400426	0.391548
C49	C	-0.269373	1.400413	0.287446
C50	C	-0.269388	1.400461	0.608528
C51	C	-0.269396	1.400475	0.712636
C52	C	-0.100178	1.569794	0.712618
C53	C	-0.100172	1.569781	0.608516
C54	C	-0.184781	1.485111	0.556475
H55	H	0.254277	0.919569	0.000065
H56	H	-0.419671	1.194838	-0.000005
C57	C	0.280143	1.179992	0.000067
N58	N	0.373399	1.245841	0.000074
H59	H	-0.922486	1.491386	-0.180289
H60	H	-0.565932	1.481946	0.343905
C61	C	-0.007063	1.662851	0.448777
N62	N	0.063076	1.732970	0.491890
C63	C	0.036468	1.288204	0.000049
N64	N	0.033572	1.396758	0.000057
C65	C	-0.822358	1.488750	-0.369613
N66	N	-0.876643	1.490196	-0.444309
H67	H	-0.031284	1.638715	0.566129
C68	C	-0.007103	1.662927	0.769865
N69	N	0.062997	1.733075	0.812989
H70	H	0.050090	0.775362	0.000059
H71	H	-0.803645	1.488223	0.343899
C72	C	-0.959938	1.492373	0.180328
N73	N	-1.068494	1.495242	0.180328
C74	C	-0.362463	1.307349	0.769900
N75	N	-0.432561	1.237204	0.813032
H76	H	-0.447088	1.478812	0.180357
H77	H	-0.338282	1.331509	0.566159
C78	C	-0.649698	0.790206	-0.000004
N79	N	-0.742946	0.724345	-0.000013
C80	C	-0.547208	1.481475	-0.369611
N81	N	-0.492940	1.480057	-0.444311
H82	H	-0.031271	1.638675	0.245053
C83	C	-0.409638	1.477814	-0.180259
N84	N	-0.301083	1.474931	-0.180242
C85	C	-0.362453	1.307288	0.230202
N86	N	-0.432565	1.237144	0.187086
C87	C	-0.406050	0.681995	0.000027
N88	N	-0.403174	0.573439	0.000033
H89	H	-0.623842	1.050636	0.000000
C90	C	-0.362439	1.307299	0.448818
N91	N	-0.432533	1.237153	0.491952
