data_functionalizedCrystal
_audit_creation_method	'MofGen! by Chris Wilmer'
_symmetry_space_group_name_H-M	'P1'
_symmetry_Int_Tables_number	1
_symmetry_cell_setting	triclinic
loop_
_symmetry_equiv_pos_as_xyz
  x,y,z
_cell_length_a	12.837943
_cell_length_b	14.853567
_cell_length_c	11.295483
_cell_angle_alpha	94.104625
_cell_angle_beta	85.461227
_cell_angle_gamma	89.231935
loop_
_atom_site_label
_atom_site_type_symbol
_atom_site_fract_x
_atom_site_fract_y
_atom_site_fract_z
O1	O	1.382763	0.228927	-0.098984
O2	O	1.080941	0.217348	-0.098992
O3	O	1.239915	0.092592	-0.098991
O4	O	1.223790	0.353684	-0.098985
O5	O	1.225952	0.103530	0.099059
O6	O	1.066978	0.228287	0.099059
O7	O	1.368800	0.239866	0.099067
Cu8	Cu	1.216614	0.235075	0.117146
Cu9	Cu	1.233127	0.222139	-0.117072
O10	O	1.209827	0.364623	0.099066
C11	C	1.035334	0.218906	0.000032
C12	C	0.920240	0.207240	0.000029
C13	C	0.679482	0.347487	0.000049
C14	C	0.571341	0.336530	0.000047
C15	C	0.595813	0.174369	0.000030
C16	C	0.703954	0.185327	0.000032
C17	C	0.745785	0.271888	0.000040
C18	C	0.853929	0.282844	0.000034
C19	C	0.878399	0.120685	0.000026
C20	C	0.770257	0.109728	0.000023
C21	C	1.232203	0.064410	0.000030
C22	C	1.230014	-0.035860	0.000020
C23	C	1.126324	-0.457187	0.000040
C24	C	1.315188	-0.462449	0.000045
C25	C	1.317247	-0.368241	0.000038
C26	C	1.223843	-0.318502	0.000034
C27	C	1.128380	-0.362970	0.000037
C28	C	1.412707	-0.323764	0.000047
C29	C	1.414770	-0.229551	0.000042
C30	C	1.321366	-0.179810	0.000029
C31	C	1.225899	-0.224285	0.000030
C32	C	1.132495	-0.174546	0.000026
C33	C	1.037028	-0.219019	0.000019
C34	C	1.034976	-0.313230	0.000024
C35	C	1.323418	-0.085599	0.000024
C36	C	1.134551	-0.080329	0.000023
C37	C	1.414408	0.238308	0.000040
C38	C	1.529502	0.249974	0.000036
C39	C	1.217539	0.392804	0.000042
C40	C	1.219728	0.493073	0.000044
N41	N	1.205008	0.244174	0.281883
N42	N	1.244742	0.213033	-0.281808
C43	C	1.328293	0.147484	0.531173
C44	C	1.319529	0.154367	0.655836
C45	C	1.178712	0.264819	0.655876
C46	C	1.187475	0.257935	0.531212
C47	C	1.262270	0.199267	0.468865
C48	C	1.271038	0.192389	0.344199
C49	C	1.130216	0.302836	0.344241
C50	C	1.121452	0.309719	0.468904
H51	H	0.517360	0.398091	0.000058
C52	C	1.352269	0.128607	0.276719
C53	C	1.408192	0.084712	0.357975
C54	C	1.483020	0.025938	0.295861
H55	H	1.398993	0.161984	0.228075
H56	H	1.318362	0.085123	0.228120
H57	H	1.442098	0.128190	0.406553
H58	H	1.361497	0.051319	0.406622
H59	H	1.449113	-0.017547	0.247262
H60	H	1.529736	0.059321	0.247218
H61	H	1.520966	-0.003858	0.350983
C62	C	0.935570	-0.165045	0.000259
C63	C	0.870918	-0.180723	0.102161
C64	C	0.777456	-0.131005	0.102430
H65	H	0.901173	-0.183166	-0.068728
H66	H	0.950424	-0.102554	0.000327
H67	H	0.856062	-0.243200	0.102082
H68	H	0.905282	-0.162598	0.171165
H69	H	0.792311	-0.068515	0.102498
H70	H	0.743069	-0.149131	0.033438
H71	H	0.733583	-0.141630	0.171574
H72	H	0.887985	0.353327	0.000043
H73	H	1.488750	-0.364268	0.000062
H74	H	0.957251	-0.349448	0.000020
C75	C	1.427165	-0.037483	-0.000034
C76	C	1.508525	-0.101208	-0.000054
C77	C	1.604118	-0.056920	-0.000128
H78	H	1.427173	0.002979	0.069006
H79	H	1.436821	-0.004685	-0.069132
H80	H	1.498873	-0.133991	0.069037
H81	H	1.508551	-0.141673	-0.069089
H82	H	1.613774	-0.024122	-0.069226
H83	H	1.604115	-0.016458	0.068913
H84	H	1.659333	-0.100151	-0.000153
C85	C	1.033071	-0.026453	-0.000169
C86	C	0.982775	-0.053427	-0.102051
C87	C	0.889283	-0.003825	-0.102261
H88	H	1.047821	0.036041	-0.000228
H89	H	0.989008	-0.037017	0.068857
H90	H	1.026829	-0.042855	-0.171059
H91	H	0.967999	-0.115912	-0.102013
H92	H	0.845220	-0.014390	-0.033235
H93	H	0.904043	0.058666	-0.102316
H94	H	0.855141	-0.022126	-0.171380
H95	H	1.492505	-0.193349	0.000046
C96	C	1.022589	-0.505337	0.000217
C97	C	0.958923	-0.475185	0.102091
C98	C	0.863349	-0.519511	0.102284
H99	H	1.034583	-0.568577	0.000276
H100	H	0.988941	-0.492603	-0.068815
H101	H	0.992564	-0.487926	0.171104
H102	H	0.946900	-0.411951	0.102053
H103	H	0.829701	-0.506777	0.033253
H104	H	0.875353	-0.582749	0.102340
H105	H	0.820136	-0.499054	0.171399
C106	C	1.391343	0.098102	0.723271
C107	C	1.458732	0.045267	0.641981
C108	C	1.524911	-0.006571	0.704058
H109	H	1.350695	0.059958	0.771912
H110	H	1.431188	0.136927	0.771869
H111	H	1.418891	0.006446	0.593403
H112	H	1.499403	0.083388	0.593338
H113	H	1.564756	0.032254	0.752656
H114	H	1.484254	-0.044709	0.752697
H115	H	1.570648	-0.042419	0.648913
H116	H	0.932395	0.059126	0.000010
H117	H	1.117809	0.312578	0.706655
H118	H	0.561728	0.103900	0.000122
H119	H	1.391232	-0.502951	0.000058
H120	H	0.713541	0.417969	0.000054
C121	C	1.040354	0.373397	0.536816
C122	C	1.046824	0.368359	0.659329
C123	C	0.972143	0.427019	0.721923
H124	H	0.972528	0.356571	0.516544
H125	H	1.053146	0.433441	0.516456
H126	H	1.034024	0.308328	0.679680
H127	H	1.114633	0.385193	0.679636
H128	H	0.984936	0.487063	0.701562
H129	H	0.904323	0.410187	0.701641
H130	H	0.976530	0.423614	0.805053
C131	C	1.058354	0.359012	0.276739
C132	C	0.954322	0.337288	0.307098
C133	C	0.888101	0.389030	0.244949
H134	H	1.074144	0.346564	0.193546
H135	H	1.068201	0.421303	0.297199
H136	H	0.944480	0.275012	0.286630
H137	H	0.938499	0.349740	0.390280
H138	H	0.897948	0.451320	0.265410
H139	H	0.903900	0.376577	0.161760
H140	H	0.817508	0.374303	0.265548
H141	H	0.736183	0.039252	0.000031
H142	H	1.389201	0.099720	0.480409
