data_functionalizedCrystal
_audit_creation_method	'MofGen! by Chris Wilmer'
_symmetry_space_group_name_H-M	'P1'
_symmetry_Int_Tables_number	1
_symmetry_cell_setting	triclinic
loop_
_symmetry_equiv_pos_as_xyz
  x,y,z
_cell_length_a	19.077105
_cell_length_b	16.625546
_cell_length_c	19.077569
_cell_angle_alpha	87.674615
_cell_angle_beta	85.299277
_cell_angle_gamma	87.718759
loop_
_atom_site_label
_atom_site_type_symbol
_atom_site_fract_x
_atom_site_fract_y
_atom_site_fract_z
Zn1	Zn	1.093727	-0.351109	-0.441842
Zn2	Zn	1.593727	0.148891	0.058158
Zn3	Zn	1.088914	-0.491150	-0.323948
Zn4	Zn	1.588914	0.008850	0.176052
Zn5	Zn	0.971109	-0.351121	-0.319237
Zn6	Zn	1.471109	0.148879	0.180763
Zn7	Zn	0.975810	-0.480687	-0.437068
Zn8	Zn	1.475810	0.019313	0.062932
O9	O	1.032390	-0.418516	-0.380524
O10	O	1.532390	0.081484	0.119476
O11	O	1.191739	-0.374059	-0.430172
O12	O	1.691739	0.125941	0.069828
O13	O	1.069305	-0.476958	-0.224672
O14	O	1.569305	0.023042	0.275328
O15	O	0.987422	-0.238288	-0.335527
O16	O	1.487422	0.261712	0.164473
O17	O	1.188202	-0.476947	-0.343556
O18	O	1.688202	0.023053	0.156444
O19	O	1.077509	-0.238279	-0.425604
O20	O	1.577509	0.261721	0.074396
O21	O	0.982755	-0.374079	-0.221211
O22	O	1.482755	0.125921	0.278789
O23	O	0.873082	-0.363934	-0.330898
O24	O	1.373082	0.136066	0.169102
O25	O	0.995433	-0.459114	-0.536353
O26	O	1.495433	0.040886	-0.036353
O27	O	0.876536	-0.459126	-0.417468
O28	O	1.376536	0.040874	0.082532
O29	O	1.082067	-0.363914	-0.539860
O30	O	1.582067	0.136086	-0.039860
O31	O	1.073863	-0.602593	-0.338928
O32	O	1.573863	-0.102593	0.161072
O33	O	0.990766	-0.594906	-0.422037
O34	O	1.490766	-0.094906	0.077963
C35	C	0.849230	-0.410396	-0.373155
C36	C	1.349230	0.089604	0.126845
C37	C	0.770874	-0.406941	-0.370019
C38	C	1.270874	0.093059	0.129981
C39	C	0.735876	-0.454960	-0.413547
C40	C	1.235876	0.045040	0.086453
C41	C	0.662253	-0.451703	-0.410604
C42	C	1.162253	0.048297	0.089396
C43	C	0.623629	-0.400430	-0.364128
C44	C	1.123629	0.099570	0.135872
C45	C	0.658632	-0.352406	-0.320598
C46	C	1.158632	0.147594	0.179402
C47	C	0.732254	-0.355660	-0.323546
C48	C	1.232254	0.144340	0.176454
C49	C	0.403247	-0.385372	-0.350492
C50	C	0.903247	0.114628	0.149508
C51	C	0.329619	-0.382124	-0.347547
C52	C	0.829619	0.117876	0.152453
C53	C	0.333246	-0.481420	-0.437553
C54	C	0.833246	0.018580	0.062447
C55	C	0.406869	-0.484673	-0.440493
C56	C	0.906869	0.015327	0.059507
C57	C	0.441866	-0.436645	-0.396966
C58	C	0.941866	0.063355	0.103034
N59	N	0.548373	-0.397102	-0.361117
N60	N	1.048373	0.102898	0.138883
N61	N	0.517120	-0.439971	-0.399981
N62	N	1.017120	0.060029	0.100019
C63	C	1.032322	-0.628006	-0.380492
C64	C	1.532322	-0.128006	0.119508
C65	C	1.032358	-0.717628	-0.380504
C66	C	1.532358	-0.217628	0.119496
C67	C	1.032484	-1.045806	-0.380582
C68	C	1.532484	-0.545806	0.119418
C69	C	1.032447	-0.954496	-0.380562
C70	C	1.532447	-0.454496	0.119438
C71	C	1.032421	-0.881720	-0.380543
C72	C	1.532421	-0.381720	0.119457
C73	C	1.032385	-0.790405	-0.380524
C74	C	1.532385	-0.290405	0.119476
C75	C	1.216265	-0.426669	-0.387922
C76	C	1.716265	0.073331	0.112078
C77	C	1.294621	-0.430143	-0.391075
C78	C	1.794621	0.069857	0.108925
C79	C	1.039811	-0.410346	-0.564401
C80	C	1.539811	0.089654	-0.064401
C81	C	1.042974	-0.406864	-0.642758
C82	C	1.542974	0.093136	-0.142758
C83	C	1.032478	-0.208209	-0.380572
C84	C	1.532478	0.291791	0.119428
C85	C	1.032515	-0.118589	-0.380593
C86	C	1.532515	0.381411	0.119407
C87	C	0.999355	-0.454790	-0.677746
C88	C	1.499355	0.045210	-0.177746
C89	C	1.002333	-0.451519	-0.751371
C90	C	1.502333	0.048481	-0.251371
C91	C	1.048926	-0.400317	-0.790008
C92	C	1.548926	0.099683	-0.290008
C93	C	1.092549	-0.352389	-0.755015
C94	C	1.592549	0.147611	-0.255015
C95	C	1.089575	-0.355665	-0.681391
C96	C	1.589575	0.144335	-0.181391
C97	C	1.062661	-0.385208	-1.010396
C98	C	1.562661	0.114792	-0.510396
C99	C	1.065631	-0.381934	-1.084024
C100	C	1.565631	0.118066	-0.584024
C101	C	0.975415	-0.481065	-1.080376
C102	C	1.475415	0.018935	-0.580376
C103	C	0.972442	-0.484333	-1.006751
C104	C	1.472442	0.015667	-0.506751
C105	C	1.016068	-0.436408	-0.971764
C106	C	1.516068	0.063592	-0.471764
N107	N	1.051968	-0.396970	-0.865265
N108	N	1.551968	0.103030	-0.365265
N109	N	1.013028	-0.439760	-0.896509
N110	N	1.513028	0.060240	-0.396509
C111	C	1.025038	-0.426599	-0.197364
C112	C	1.525038	0.073401	0.302636
C113	C	1.022012	-0.429860	-0.119012
C114	C	1.522012	0.070140	0.380988
H115	H	0.438312	-0.526426	-0.478337
H116	H	0.938312	-0.026426	0.021663
Br117	Br	0.606214	-0.282813	-0.257530
Br118	Br	1.106214	0.217187	0.242470
H119	H	0.961406	-0.496475	-0.646293
H120	H	1.461406	0.003525	-0.146293
H121	H	0.304743	-0.520520	-0.472992
H122	H	0.804743	-0.020520	0.027008
H123	H	0.431732	-0.346271	-0.315044
H124	H	0.931732	0.153729	0.184956
Br125	Br	0.277200	-0.312545	-0.284461
Br126	Br	0.777200	0.187455	0.215539
Br127	Br	0.779753	-0.290484	-0.264473
Br128	Br	1.279753	0.209516	0.235527
H129	H	0.934512	-0.526041	-0.975298
H130	H	1.434512	-0.026041	-0.475298
H131	H	0.939897	-0.520083	-1.108870
H132	H	1.439897	-0.020083	-0.608870
H133	H	1.098185	-0.346184	-0.981919
H134	H	1.598185	0.153816	-0.481919
H135	H	0.966815	-0.490546	-0.779855
H136	H	1.466815	0.009454	-0.279855
H137	H	1.103570	-0.340231	-1.115480
H138	H	1.603570	0.159769	-0.615480
H139	H	1.130489	-0.310703	-0.786478
H140	H	1.630489	0.189297	-0.286478
H141	H	0.767319	-0.496714	-0.451390
H142	H	1.267319	0.003286	0.048610
Br143	Br	0.614758	-0.516872	-0.469683
Br144	Br	1.114758	-0.016872	0.030317
Br145	Br	1.148779	-0.290626	-0.633907
Br146	Br	1.648779	0.209374	-0.133907
