data_functionalizedCrystal
_audit_creation_method	'MofGen! by Chris Wilmer'
_symmetry_space_group_name_H-M	'P1'
_symmetry_Int_Tables_number	1
_symmetry_cell_setting	triclinic
loop_
_symmetry_equiv_pos_as_xyz
  x,y,z
_cell_length_a	10.654550
_cell_length_b	10.654550
_cell_length_c	9.130313
_cell_angle_alpha	90.000276
_cell_angle_beta	89.995631
_cell_angle_gamma	95.515069
loop_
_atom_site_label
_atom_site_type_symbol
_atom_site_fract_x
_atom_site_fract_y
_atom_site_fract_z
O1	O	0.176399	-1.667839	-0.121690
O2	O	0.676399	-1.167839	0.378310
O3	O	0.193205	-1.302361	-0.121716
O4	O	0.693205	-0.802361	0.378284
O5	O	0.002063	-1.493503	-0.121693
O6	O	0.502063	-0.993503	0.378307
O7	O	0.367541	-1.476697	-0.121713
O8	O	0.867541	-0.976697	0.378287
O9	O	0.002057	-1.493490	0.121906
O10	O	0.502057	-0.993490	0.621906
O11	O	0.193199	-1.302348	0.121882
O12	O	0.693199	-0.802348	0.621882
O13	O	0.176393	-1.667826	0.121909
O14	O	0.676393	-1.167826	0.621909
Cu15	Cu	0.184796	-1.485086	0.144138
Cu16	Cu	0.684796	-0.985086	0.644138
Cu17	Cu	0.184802	-1.485101	-0.143946
Cu18	Cu	0.684802	-0.985101	0.356054
O19	O	0.367535	-1.476684	0.121886
O20	O	0.867535	-0.976684	0.621886
C21	C	0.191968	-1.255556	0.000080
C22	C	0.691968	-0.755556	0.500080
C23	C	0.188276	-1.116113	0.000070
C24	C	0.688276	-0.616113	0.500070
C25	C	-0.044738	-1.492263	0.000105
C26	C	0.455262	-0.992263	0.500105
C27	C	-0.184181	-1.488571	0.000103
C28	C	0.315819	-0.988571	0.500103
N29	N	0.184790	-1.485084	0.346761
N30	N	0.684790	-0.985084	0.846761
C31	C	-0.263667	-1.601112	0.000111
C32	C	0.236333	-1.101112	0.500111
C33	C	-0.394688	-1.597636	0.000092
C34	C	0.105312	-1.097636	0.500092
C35	C	-0.366725	-1.369066	0.000065
C36	C	0.133275	-0.869066	0.500065
C37	C	-0.235706	-1.372544	0.000073
C38	C	0.264294	-0.872544	0.500073
C39	C	0.414336	-1.477925	0.000084
C40	C	0.914336	-0.977925	0.500084
C41	C	0.553779	-1.481616	0.000077
C42	C	1.053779	-0.981616	0.500077
C43	C	0.177630	-1.714631	0.000110
C44	C	0.677630	-1.214631	0.500110
C45	C	0.181322	-1.854074	0.000110
C46	C	0.681322	-1.354074	0.500110
C47	C	0.300818	-1.036628	0.000068
C48	C	0.800818	-0.536628	0.500068
C49	C	0.297341	-0.905607	0.000093
C50	C	0.797341	-0.405607	0.500093
C51	C	0.068772	-0.933570	0.000117
C52	C	0.568772	-0.433570	0.500117
C53	C	0.072250	-1.064588	0.000101
C54	C	0.572250	-0.564588	0.500101
N55	N	0.184798	-1.485113	-0.346568
N56	N	0.684798	-0.985113	0.153432
C57	C	0.100188	-1.569751	0.423423
C58	C	0.600188	-1.069751	0.923423
C59	C	0.100189	-1.569763	0.576760
C60	C	0.600189	-1.069763	1.076760
C61	C	0.269404	-1.400437	0.576759
C62	C	0.769404	-0.900437	1.076759
C63	C	0.269396	-1.400420	0.423425
C64	C	0.769396	-0.900420	0.923425
H65	H	-0.221720	-1.695588	0.000132
H66	H	0.278280	-1.195588	0.500132
Cl67	Cl	-0.077082	-0.868786	0.000147
Cl68	Cl	0.422918	-0.368786	0.500147
H69	H	-0.459401	-1.689279	0.000096
H70	H	0.040599	-1.189279	0.500096
Cl71	Cl	0.438829	-0.805687	0.000093
Cl72	Cl	0.938829	-0.305687	0.500093
Cl73	Cl	-0.006175	-1.676202	0.673131
Cl74	Cl	0.493825	-1.176202	1.173131
Cl75	Cl	-0.431509	-1.223212	0.000028
Cl76	Cl	0.068491	-0.723212	0.500028
H77	H	-0.170985	-1.280893	0.000062
H78	H	0.329015	-0.780893	0.500062
H79	H	0.338290	-1.331508	0.639194
H80	H	0.838290	-0.831508	1.139194
H81	H	0.395294	-1.078574	0.000053
H82	H	0.895294	-0.578574	0.500053
H83	H	0.338290	-1.331468	0.361002
H84	H	0.838290	-0.831468	0.861002
H85	H	-0.019401	-1.129309	0.000107
H86	H	0.480599	-0.629309	0.500107
H87	H	0.031295	-1.638687	0.361007
H88	H	0.531295	-1.138687	0.861007
