data_functionalizedCrystal
_audit_creation_method	'MofGen! by Chris Wilmer'
_symmetry_space_group_name_H-M	'P1'
_symmetry_Int_Tables_number	1
_symmetry_cell_setting	triclinic
loop_
_symmetry_equiv_pos_as_xyz
  x,y,z
_cell_length_a	13.101018
_cell_length_b	27.732046
_cell_length_c	14.044220
_cell_angle_alpha	92.084572
_cell_angle_beta	93.664400
_cell_angle_gamma	93.328219
loop_
_atom_site_label
_atom_site_type_symbol
_atom_site_fract_x
_atom_site_fract_y
_atom_site_fract_z
O1	O	-0.085070	-0.648648	0.107452
O2	O	-0.085105	-0.508660	0.124590
O3	O	-0.085078	-0.576552	-0.021932
O4	O	-0.085097	-0.580755	0.253974
O5	O	0.085351	-0.571675	-0.011410
O6	O	0.085324	-0.503783	0.135112
O7	O	0.085358	-0.643771	0.117974
Zn8	Zn	0.112400	-0.573002	0.128213
Zn9	Zn	-0.112147	-0.579428	0.114350
O10	O	0.085331	-0.575878	0.264496
C11	C	0.000105	-0.488197	0.129491
C12	C	0.000093	-0.434492	0.128407
N13	N	0.265647	-0.568621	0.137674
N14	N	-0.265394	-0.583813	0.104882
C15	C	0.000124	-0.099419	0.208179
C16	C	0.000129	0.102429	0.204162
O17	O	0.000168	0.130263	0.277105
N18	N	0.000133	0.125630	0.117281
C19	C	0.000142	0.098366	0.031398
O20	O	0.000156	0.122732	-0.042592
C21	C	0.000145	-0.103481	0.035416
C22	C	0.000130	-0.126680	0.122302
C23	C	0.000111	-0.122618	0.295059
C24	C	0.000104	-0.173077	0.296061
C25	C	0.000110	-0.200338	0.210185
C26	C	0.000124	-0.177139	0.123305
C27	C	0.000161	-0.130744	-0.050466
C28	C	0.000164	-0.181209	-0.049453
C29	C	0.000150	-0.204407	0.037433
C30	C	0.000123	-0.254859	0.038431
N31	N	0.000119	-0.278060	0.125313
C32	C	0.000113	-0.250799	0.211190
C33	C	0.000139	0.204339	0.029294
C34	C	0.000137	0.254801	0.028289
C35	C	0.000126	0.258860	0.201055
C36	C	0.000121	0.208397	0.202058
C37	C	0.000135	0.181138	0.116176
C38	C	0.000098	-0.356768	0.213289
C39	C	0.000086	-0.407232	0.214284
C40	C	0.000103	-0.411287	0.041520
C41	C	0.000109	-0.360827	0.040524
C42	C	0.000109	-0.333569	0.126417
O43	O	0.000096	-0.282722	-0.034471
O44	O	0.000122	-0.275173	0.285170
C45	C	0.000131	-0.048960	0.207176
C46	C	0.000144	-0.025761	0.120297
C47	C	0.000150	-0.053022	0.034420
C48	C	0.000142	0.024700	0.119292
C49	C	0.000136	0.051961	0.205168
C50	C	0.000132	0.028760	0.292050
C51	C	0.000125	-0.021700	0.293053
C52	C	0.000154	-0.029821	-0.052462
C53	C	0.000160	0.020639	-0.053458
C54	C	0.000154	0.047899	0.032419
C55	C	0.525565	-0.589772	0.092007
C56	C	0.474682	-0.562663	0.150546
C57	C	0.358364	-0.565979	0.143382
C58	C	0.641893	-0.586457	0.099170
C59	C	0.000136	-0.572274	-0.051959
C60	C	0.000136	-0.566787	-0.157104
C61	C	0.000141	0.335767	0.113075
C62	C	0.000131	0.282061	0.114166
C63	C	0.000119	-0.556756	-0.349620
C64	C	0.000126	-0.595673	-0.407823
C65	C	0.000116	-0.590091	-0.514945
C66	C	0.000129	-0.562337	-0.242487
C67	C	0.000115	-0.580156	0.294522
C68	C	0.000108	-0.585644	0.399667
H69	H	0.000101	-0.334579	0.283231
C70	C	0.000098	-0.092637	0.389532
C71	C	0.088588	-0.054859	0.418087
C72	C	0.088565	-0.024881	0.512567
C73	C	0.000052	-0.032682	0.578492
C74	C	-0.088444	-0.070461	0.549938
C75	C	-0.088421	-0.100439	0.455458
H76	H	0.154116	-0.049083	0.369284
H77	H	0.154076	0.003086	0.533703
H78	H	0.000035	-0.010491	0.648431
H79	H	-0.153973	-0.076237	0.598741
H80	H	-0.153932	-0.128406	0.434322
H81	H	0.000162	-0.052011	-0.122394
H82	H	0.518477	-0.536965	0.206044
C83	C	0.000150	-0.646346	-0.366460
C84	C	-0.088335	-0.684094	-0.395230
C85	C	-0.088307	-0.734765	-0.353861
C86	C	0.000206	-0.747688	-0.283723
C87	C	0.088698	-0.709940	-0.254949
C88	C	0.088670	-0.659269	-0.296318
H89	H	-0.153864	-0.674528	-0.447154
H90	H	-0.153815	-0.762709	-0.375161
H91	H	0.000227	-0.785198	-0.253099
H92	H	0.154227	-0.719506	-0.203025
H93	H	0.154178	-0.631325	-0.275018
H94	H	0.000107	-0.519250	-0.380240
C95	C	0.000107	-0.198588	0.391644
C96	C	0.088611	-0.187435	0.468218
C97	C	0.088621	-0.212940	0.563807
C98	C	0.000127	-0.249598	0.582823
C99	C	-0.088384	-0.260753	0.506246
C100	C	-0.088394	-0.235248	0.410657
H101	H	0.154125	-0.160297	0.454143
H102	H	0.154142	-0.204682	0.620494
H103	H	0.000134	-0.268478	0.653584
H104	H	-0.153899	-0.287890	0.520321
H105	H	-0.153915	-0.243505	0.353970
C106	C	0.000114	0.182881	0.297634
C107	C	0.088608	0.194029	0.374221
C108	C	0.088604	0.168516	0.469801
C109	C	0.000107	0.131855	0.488794
C110	C	-0.088393	0.120706	0.412205
C111	C	-0.088389	0.146219	0.316625
H112	H	0.154124	0.221169	0.360163
H113	H	0.154118	0.176769	0.526497
H114	H	0.000104	0.112969	0.559548
H115	H	-0.153910	0.093566	0.426263
H116	H	-0.153903	0.137965	0.259929
H117	H	0.000123	0.050964	0.361973
H118	H	0.000074	-0.426117	0.285041
C119	C	0.466412	-0.624492	0.017042
C120	C	0.348412	-0.627800	0.009890
C121	C	0.289246	-0.662521	-0.065071
C122	C	0.348080	-0.693935	-0.132879
C123	C	0.466086	-0.690629	-0.125728
C124	C	0.525253	-0.655908	-0.050768
H125	H	0.304854	-0.604544	0.060087
H126	H	0.201890	-0.664969	-0.070363
H127	H	0.304281	-0.719638	-0.188369
H128	H	0.509645	-0.713885	-0.175926
H129	H	0.612609	-0.653460	-0.045475
C130	C	0.000128	0.288853	0.295521
C131	C	0.088633	0.286123	0.372376
C132	C	0.088646	0.316119	0.466837
C133	C	0.000153	0.348845	0.484443
C134	C	-0.088358	0.351577	0.407585
C135	C	-0.088371	0.321581	0.313124
H136	H	0.154146	0.261895	0.359345
H137	H	0.154168	0.314096	0.523732
H138	H	0.000162	0.371050	0.554368
H139	H	-0.153872	0.375805	0.420616
H140	H	-0.153893	0.323604	0.256230
C141	C	0.000146	0.174358	-0.065186
C142	C	0.088647	0.141640	-0.082810
C143	C	0.088649	0.111662	-0.177292
C144	C	0.000150	0.114403	-0.254149
C145	C	-0.088358	0.147123	-0.236527
C146	C	-0.088360	0.177101	-0.142046
H147	H	0.154165	0.139609	-0.025914
H148	H	0.154169	0.087440	-0.190336
H149	H	0.000151	0.092212	-0.324090
H150	H	-0.153876	0.149153	-0.293423
H151	H	-0.153879	0.201322	-0.129001
H152	H	0.000132	0.273684	-0.042463
H153	H	0.000177	-0.203401	-0.119391
H154	H	0.000173	-0.111864	-0.121218
H155	H	0.000104	-0.433491	-0.028399
H156	H	0.000105	-0.341938	-0.030227
H157	H	0.000115	-0.040583	0.363805
H158	H	0.000163	0.039522	-0.124217
