data_functionalizedCrystal
_audit_creation_method	'MofGen! by Chris Wilmer'
_symmetry_space_group_name_H-M	'P1'
_symmetry_Int_Tables_number	1
_symmetry_cell_setting	triclinic
loop_
_symmetry_equiv_pos_as_xyz
  x,y,z
_cell_length_a	18.215407
_cell_length_b	10.686203
_cell_length_c	18.215399
_cell_angle_alpha	94.390030
_cell_angle_beta	89.985640
_cell_angle_gamma	94.368033
loop_
_atom_site_label
_atom_site_type_symbol
_atom_site_fract_x
_atom_site_fract_y
_atom_site_fract_z
Zn1	Zn	1.147607	0.502418	-0.393667
Zn2	Zn	1.156997	0.713445	-0.261192
Zn3	Zn	1.024548	0.502457	-0.270618
Zn4	Zn	1.033976	0.713354	-0.384226
O5	O	1.090782	0.607919	-0.327426
O6	O	1.251838	0.530433	-0.376100
O7	O	1.139411	0.685511	-0.159455
O8	O	1.032997	0.325876	-0.294836
O9	O	1.258737	0.685473	-0.278771
O10	O	1.123408	0.325847	-0.385240
O11	O	1.042102	0.530499	-0.166381
O12	O	0.922814	0.530412	-0.285682
O13	O	1.049066	0.685319	-0.488465
O14	O	0.929741	0.685357	-0.369149
O15	O	1.132550	0.530345	-0.495401
O16	O	1.148553	0.890009	-0.269617
O17	O	1.058171	0.889943	-0.360009
C18	C	0.899574	0.607880	-0.327414
C19	C	0.817776	0.607894	-0.327426
C20	C	0.625996	0.527331	-0.378172
C21	C	0.549138	0.527341	-0.378174
C22	C	0.556322	0.688542	-0.276691
C23	C	0.633178	0.688524	-0.276686
C24	C	0.668014	0.607920	-0.327430
C25	C	0.514299	0.607949	-0.327437
C26	C	0.430966	0.607961	-0.327439
C27	C	0.751352	0.607906	-0.327428
C28	C	1.105424	0.935760	-0.312782
C29	C	1.111755	1.076012	-0.306542
C30	C	1.282737	0.607959	-0.327437
C31	C	1.364537	0.607976	-0.327442
C32	C	1.090812	0.607818	-0.519383
C33	C	1.090825	0.607775	-0.601184
C34	C	1.076096	1.278797	-0.342150
C35	C	1.069820	1.138545	-0.348445
C36	C	1.040194	0.527006	-0.792987
C37	C	1.040205	0.526981	-0.869847
C38	C	1.141538	0.688393	-0.862625
C39	C	1.141523	0.688424	-0.785766
C40	C	1.090851	0.607723	-0.750950
C41	C	1.090878	0.607667	-0.904668
C42	C	1.090891	0.607640	-0.988003
C43	C	1.090837	0.607752	-0.667609
C44	C	1.090790	0.607928	-0.136219
C45	C	1.090904	0.607616	-0.054434
H46	H	0.514931	0.461715	-0.419491
H47	H	0.998933	0.461295	-0.764642
H48	H	1.029075	1.084787	-0.389095
H49	H	1.152498	1.129778	-0.265884
F50	F	1.195465	0.774274	-0.899686
H51	H	1.182776	0.754159	-0.751538
H52	H	0.998954	0.461254	-0.904071
F53	F	0.519241	0.774325	-0.222689
H54	H	0.667390	0.754151	-0.235362
F55	F	0.663068	0.441541	-0.432177
