data_functionalizedCrystal
_audit_creation_method	'MofGen! by Chris Wilmer'
_symmetry_space_group_name_H-M	'P1'
_symmetry_Int_Tables_number	1
_symmetry_cell_setting	triclinic
loop_
_symmetry_equiv_pos_as_xyz
  x,y,z
_cell_length_a	17.699077
_cell_length_b	16.974813
_cell_length_c	16.176319
_cell_angle_alpha	86.338635
_cell_angle_beta	89.993140
_cell_angle_gamma	83.338069
loop_
_atom_site_label
_atom_site_type_symbol
_atom_site_fract_x
_atom_site_fract_y
_atom_site_fract_z
O1	O	1.004154	0.099970	-0.075422
O2	O	0.783784	0.112984	-0.076297
O3	O	0.900112	-0.008639	-0.068154
O4	O	0.887826	0.221592	-0.083565
O5	O	0.900096	-0.008647	0.069339
O6	O	0.783768	0.112976	0.061197
O7	O	1.004138	0.099962	0.062071
Cu8	Cu	0.893952	0.106468	0.074188
Cu9	Cu	0.893971	0.106478	-0.088414
O10	O	0.887810	0.221585	0.053929
C11	C	0.755579	0.112515	-0.007519
C12	C	0.671560	0.111118	-0.007427
C13	C	0.632083	0.110456	0.067565
C14	C	0.553140	0.109131	0.067655
C15	C	0.513673	0.108474	-0.007249
C16	C	0.553156	0.109134	-0.082248
C17	C	0.632099	0.110453	-0.082336
C18	C	0.234789	0.103813	-0.081893
C19	C	0.155840	0.102496	-0.081799
C20	C	0.155830	0.102491	0.068098
C21	C	0.234772	0.103810	0.068010
C22	C	0.274248	0.104465	-0.006988
C23	C	0.359848	0.105900	-0.007084
C24	C	0.428074	0.107045	-0.007155
C25	C	0.899637	-0.038100	0.002563
C26	C	0.898234	-0.125875	0.008432
C27	C	0.897586	-0.167102	-0.063757
C28	C	0.896264	-0.249575	-0.058239
C29	C	0.895595	-0.290819	0.019469
C30	C	0.896241	-0.249585	0.091664
C31	C	0.897558	-0.167113	0.086145
C32	C	0.891651	-0.537474	0.044011
C33	C	0.890336	-0.619952	0.049525
C34	C	0.890357	-0.619936	-0.100380
C35	C	0.891679	-0.537463	-0.105891
C36	C	0.892321	-0.496236	-0.033696
N37	N	0.894246	-0.375120	0.025111
N38	N	0.893665	-0.411936	-0.039339
C39	C	1.032343	0.100431	-0.006708
C40	C	1.116363	0.101828	-0.006805
C41	C	0.888286	0.251046	-0.016790
C42	C	0.889688	0.338821	-0.022665
N43	N	0.893944	0.106461	0.188554
N44	N	0.893984	0.106478	-0.202779
C45	C	0.945469	0.052629	0.235422
C46	C	0.945473	0.052628	0.321970
C47	C	0.893955	0.106464	0.361647
C48	C	0.842424	0.160299	0.314772
C49	C	0.842417	0.160296	0.228227
C50	C	0.842450	0.160314	0.663799
C51	C	0.842462	0.160315	0.750351
C52	C	0.945506	0.052646	0.757542
C53	C	0.945499	0.052643	0.670997
C54	C	0.893966	0.106475	0.624130
C55	C	0.893961	0.106474	0.530286
C56	C	0.893962	0.106469	0.455489
H57	H	0.266921	0.104344	-0.142961
H58	H	0.889833	-0.653512	-0.159156
H59	H	0.987465	0.008811	0.795711
H60	H	0.266901	0.104349	0.129004
H61	H	0.892224	-0.503888	-0.169170
O62	O	0.117571	0.101960	-0.154625
C63	C	0.128203	0.170743	-0.204826
H64	H	0.182638	0.194521	-0.185114
H65	H	0.077719	0.217937	-0.197595
C66	C	0.067620	0.120802	-0.320266
C67	C	0.134482	0.150002	-0.296061
H68	H	0.071490	0.108010	-0.376545
H69	H	0.060455	0.074463	-0.286445
H70	H	0.025557	0.160135	-0.314234
H71	H	0.176542	0.110666	-0.302084
H72	H	0.141655	0.196335	-0.329886
O73	O	0.792336	0.212640	0.788765
C74	C	0.746860	0.260164	0.728841
H75	H	0.746035	0.227747	0.669321
H76	H	0.771360	0.318876	0.715694
C77	C	0.666215	0.316374	0.834648
C78	C	0.665197	0.276556	0.761547
H79	H	0.615842	0.326489	0.854822
H80	H	0.696854	0.284359	0.875020
H81	H	0.686635	0.365296	0.823682
H82	H	0.644786	0.227631	0.772515
H83	H	0.634552	0.308564	0.721177
O84	O	0.995503	0.000232	0.367408
C85	C	0.983285	-0.078030	0.351525
H86	H	0.954101	-0.077898	0.288688
H87	H	0.945654	-0.102442	0.401883
C88	C	1.096039	-0.130882	0.428206
C89	C	1.060200	-0.130721	0.351027
H90	H	1.143482	-0.163386	0.427903
H91	H	1.104269	-0.078155	0.438911
H92	H	1.064672	-0.151223	0.470163
H93	H	1.091563	-0.110371	0.309073
H94	H	1.051977	-0.183445	0.340315
H95	H	0.800491	0.204147	0.625647
O96	O	0.889651	-0.659890	0.125080
C97	C	0.890518	-0.605821	0.187619
H98	H	0.867508	-0.543710	0.161494
H99	H	0.951344	-0.605462	0.210648
C100	C	0.868643	-0.707430	0.292205
C101	C	0.840376	-0.631146	0.260119
H102	H	0.837717	-0.723053	0.336929
H103	H	0.868062	-0.743859	0.250073
H104	H	0.919331	-0.707121	0.311389
H105	H	0.789693	-0.631458	0.240926
H106	H	0.840947	-0.594717	0.302251
O107	O	0.898124	-0.126945	-0.139202
C108	C	0.833352	-0.070180	-0.147488
H109	H	0.811711	-0.054796	-0.083440
H110	H	0.786967	-0.095613	-0.182757
C111	C	0.881072	-0.013493	-0.274079
C112	C	0.854496	0.005407	-0.195415
H113	H	0.894112	0.033132	-0.303646
H114	H	0.924708	-0.051738	-0.268499
H115	H	0.842412	-0.034688	-0.303459
H116	H	0.893158	0.026593	-0.166033
H117	H	0.810866	0.043658	-0.200991
O118	O	0.995572	0.000270	0.632589
C119	C	1.041064	-0.047234	0.692515
H120	H	1.010043	-0.048083	0.754273
H121	H	1.097260	-0.021636	0.699987
C122	C	1.094851	-0.131514	0.588603
C123	C	1.056747	-0.132562	0.664454
H124	H	1.104529	-0.184147	0.571293
H125	H	1.064205	-0.099508	0.548229
H126	H	1.141677	-0.110178	0.594840
H127	H	1.009919	-0.153888	0.658213
H128	H	1.087386	-0.164573	0.704827
H129	H	0.521017	0.108593	-0.143236
O130	O	0.670498	0.110960	-0.155155
C131	C	0.724822	0.043279	-0.155101
H132	H	0.707072	-0.004965	-0.109339
H133	H	0.782695	0.059754	-0.136069
C134	C	0.751764	0.071520	-0.298775
C135	C	0.729960	0.012262	-0.242574
H136	H	0.754936	0.052388	-0.352733
H137	H	0.715167	0.117119	-0.298811
H138	H	0.799989	0.085243	-0.282905
H139	H	0.681731	-0.001453	-0.258439
H140	H	0.766549	-0.033341	-0.242543
O141	O	0.792451	0.212566	0.353442
C142	C	0.803493	0.201016	0.439880
H143	H	0.863697	0.171384	0.453673
H144	H	0.760702	0.161416	0.467108
C145	C	0.718091	0.318316	0.461947
C146	C	0.792037	0.281927	0.478888
H147	H	0.711021	0.368225	0.486011
H148	H	0.710649	0.326096	0.403712
H149	H	0.682440	0.285308	0.484638
H150	H	0.827686	0.314931	0.456189
H151	H	0.799485	0.274154	0.537121
H152	H	0.892189	-0.503918	0.102798
H153	H	0.800459	0.204131	0.190067
H154	H	0.521003	0.108578	0.128723
O155	O	0.670305	0.111056	0.140406
C156	C	0.618527	0.110205	0.206613
H157	H	0.565417	0.084244	0.186376
H158	H	0.602119	0.173473	0.225426
C159	C	0.721106	0.090765	0.305715
C160	C	0.655878	0.058873	0.280861
H161	H	0.744146	0.059104	0.351516
H162	H	0.755990	0.091341	0.261110
H163	H	0.707423	0.143487	0.321386
H164	H	0.669563	0.006156	0.265180
H165	H	0.620997	0.058287	0.325465
H166	H	0.123679	0.101953	0.129165
H167	H	0.895739	-0.283140	-0.117024
H168	H	0.895692	-0.283172	0.154936
H169	H	0.898075	-0.133545	0.144930
H170	H	0.987425	0.008793	0.203123
