data_functionalizedCrystal
_audit_creation_method	'MofGen! by Chris Wilmer'
_symmetry_space_group_name_H-M	'P1'
_symmetry_Int_Tables_number	1
_symmetry_cell_setting	triclinic
loop_
_symmetry_equiv_pos_as_xyz
  x,y,z
_cell_length_a	19.805407
_cell_length_b	21.295417
_cell_length_c	21.295411
_cell_angle_alpha	90.021644
_cell_angle_beta	90.025486
_cell_angle_gamma	90.030507
loop_
_atom_site_label
_atom_site_type_symbol
_atom_site_fract_x
_atom_site_fract_y
_atom_site_fract_z
Zn1	Zn	1.034756	-0.250681	0.355927
Zn2	Zn	1.284756	-0.000681	0.605927
Zn3	Zn	1.534756	0.249319	0.855927
Zn4	Zn	1.784756	0.499319	1.105927
Zn5	Zn	1.034651	-0.355933	0.250652
Zn6	Zn	1.284651	-0.105933	0.500652
Zn7	Zn	1.534651	0.144067	0.750652
Zn8	Zn	1.784651	0.394067	1.000652
Zn9	Zn	0.921559	-0.250681	0.250670
Zn10	Zn	1.171559	-0.000681	0.500670
Zn11	Zn	1.421559	0.249319	0.750670
Zn12	Zn	1.671559	0.499319	1.000670
Zn13	Zn	0.921526	-0.355916	0.355882
Zn14	Zn	1.171526	-0.105916	0.605882
Zn15	Zn	1.421526	0.144084	0.855882
Zn16	Zn	1.671526	0.394084	1.105882
O17	O	0.978123	-0.303303	0.303283
O18	O	1.228123	-0.053303	0.553283
O19	O	1.478123	0.196697	0.803283
O20	O	1.728123	0.446697	1.053283
O21	O	1.129459	-0.264650	0.341973
O22	O	1.379459	-0.014650	0.591973
O23	O	1.629459	0.235350	0.841973
O24	O	1.879459	0.485350	1.091973
O25	O	1.019619	-0.341978	0.162565
O26	O	1.269619	-0.091978	0.412565
O27	O	1.519619	0.158022	0.662565
O28	O	1.769619	0.408022	0.912565
O29	O	0.936632	-0.162592	0.264659
O30	O	1.186632	0.087408	0.514659
O31	O	1.436632	0.337408	0.764659
O32	O	1.686632	0.587408	1.014659
O33	O	1.129381	-0.341978	0.264628
O34	O	1.379381	-0.091978	0.514628
O35	O	1.629381	0.158022	0.764628
O36	O	1.879381	0.408022	1.014628
O37	O	1.019798	-0.162592	0.341991
O38	O	1.269798	0.087408	0.591991
O39	O	1.519798	0.337408	0.841991
O40	O	1.769798	0.587408	1.091991
O41	O	0.936531	-0.264650	0.162578
O42	O	1.186531	-0.014650	0.412578
O43	O	1.436531	0.235350	0.662578
O44	O	1.686531	0.485350	0.912578
O45	O	0.826838	-0.264634	0.264616
O46	O	1.076838	-0.014634	0.514616
O47	O	1.326838	0.235366	0.764616
O48	O	1.576838	0.485366	1.014616
O49	O	0.936576	-0.341949	0.443978
O50	O	1.186576	-0.091949	0.693978
O51	O	1.436576	0.158051	0.943978
O52	O	1.686576	0.408051	1.193978
O53	O	0.826814	-0.341950	0.341915
O54	O	1.076814	-0.091950	0.591915
O55	O	1.326814	0.158050	0.841915
O56	O	1.576814	0.408050	1.091915
O57	O	1.019766	-0.264633	0.444010
O58	O	1.269766	-0.014633	0.694010
O59	O	1.519766	0.235367	0.944010
O60	O	1.769766	0.485367	1.194010
O61	O	1.019587	-0.444020	0.264585
O62	O	1.269587	-0.194020	0.514585
O63	O	1.519587	0.055980	0.764585
O64	O	1.769587	0.305980	1.014585
O65	O	0.936475	-0.444008	0.341897
O66	O	1.186475	-0.194008	0.591897
O67	O	1.436475	0.055992	0.841897
O68	O	1.686475	0.305992	1.091897
C69	C	0.802267	-0.303291	0.303263
C70	C	1.052267	-0.053291	0.553263
C71	C	1.302267	0.196709	0.803263
C72	C	1.552267	0.446709	1.053263
C73	C	0.727035	-0.303301	0.303269
C74	C	0.977035	-0.053301	0.553269
C75	C	1.227035	0.196699	0.803269
C76	C	1.477035	0.446699	1.053269
C77	C	0.691696	-0.343620	0.343453
C78	C	0.941696	-0.093620	0.593453
C79	C	1.191696	0.156380	0.843453
C80	C	1.441696	0.406380	1.093453
C81	C	0.621007	-0.343621	0.343462
C82	C	0.871007	-0.093621	0.593462
C83	C	1.121007	0.156379	0.843462
C84	C	1.371007	0.406379	1.093462
C85	C	0.585659	-0.303306	0.303283
C86	C	0.835659	-0.053306	0.553283
C87	C	1.085659	0.196694	0.803283
C88	C	1.335659	0.446694	1.053283
C89	C	0.621003	-0.262982	0.263097
C90	C	0.871003	-0.012982	0.513097
C91	C	1.121003	0.237018	0.763097
C92	C	1.371003	0.487018	1.013097
C93	C	0.691690	-0.262979	0.263092
C94	C	0.941690	-0.012979	0.513092
C95	C	1.191690	0.237021	0.763092
C96	C	1.441690	0.487021	1.013092
C97	C	0.335930	-0.262996	0.263118
C98	C	0.585930	-0.012996	0.513118
C99	C	0.835930	0.237004	0.763118
C100	C	1.085930	0.487004	1.013118
C101	C	0.265238	-0.263005	0.263125
C102	C	0.515238	-0.013005	0.513125
C103	C	0.765238	0.236995	0.763125
C104	C	1.015238	0.486995	1.013125
C105	C	0.265247	-0.343638	0.343488
C106	C	0.515247	-0.093638	0.593488
C107	C	0.765247	0.156362	0.843488
C108	C	1.015247	0.406362	1.093488
C109	C	0.335934	-0.343635	0.343483
C110	C	0.585934	-0.093635	0.593483
C111	C	0.835934	0.156365	0.843483
C112	C	1.085934	0.406365	1.093483
C113	C	0.371272	-0.303309	0.303299
C114	C	0.621272	-0.053309	0.553299
C115	C	0.871272	0.196691	0.803299
C116	C	1.121272	0.446691	1.053299
C117	C	0.447920	-0.303308	0.303291
C118	C	0.697920	-0.053308	0.553291
C119	C	0.947920	0.196692	0.803291
C120	C	1.197920	0.446692	1.053291
C121	C	0.509012	-0.303310	0.303288
C122	C	0.759012	-0.053310	0.553288
C123	C	1.009012	0.196690	0.803288
C124	C	1.259012	0.446690	1.053288
C125	C	0.978034	-0.466854	0.303248
C126	C	1.228034	-0.216854	0.553248
C127	C	1.478034	0.033146	0.803248
C128	C	1.728034	0.283146	1.053248
C129	C	0.978058	-0.536823	0.303254
C130	C	1.228058	-0.286823	0.553254
C131	C	1.478058	-0.036823	0.803254
C132	C	1.728058	0.213177	1.053254
C133	C	1.021373	-0.569675	0.263039
C134	C	1.271373	-0.319675	0.513039
C135	C	1.521373	-0.069675	0.763039
C136	C	1.771373	0.180325	1.013039
C137	C	1.021405	-0.635417	0.263053
C138	C	1.271405	-0.385417	0.513053
C139	C	1.521405	-0.135417	0.763053
C140	C	1.771405	0.114583	1.013053
C141	C	0.978109	-0.668305	0.303276
C142	C	1.228109	-0.418305	0.553276
C143	C	1.478109	-0.168305	0.803276
C144	C	1.728109	0.081695	1.053276
C145	C	0.934791	-0.635445	0.343499
C146	C	1.184791	-0.385445	0.593499
C147	C	1.434791	-0.135445	0.843499
C148	C	1.684791	0.114555	1.093499
C149	C	0.934766	-0.569704	0.343488
C150	C	1.184766	-0.319704	0.593488
C151	C	1.434766	-0.069704	0.843488
C152	C	1.684766	0.180296	1.093488
N153	N	0.918900	-0.771572	0.308068
N154	N	1.168900	-0.521572	0.558068
N155	N	1.418900	-0.271572	0.808068
N156	N	1.668900	-0.021572	1.058068
N157	N	0.918926	-0.834023	0.308075
N158	N	1.168926	-0.584023	0.558075
N159	N	1.418926	-0.334023	0.808075
N160	N	1.668926	-0.084023	1.058075
C161	C	0.978185	-0.866380	0.303312
C162	C	1.228185	-0.616380	0.553312
C163	C	1.478185	-0.366380	0.803312
C164	C	1.728185	-0.116380	1.053312
N165	N	1.037419	-0.833926	0.298530
N166	N	1.287419	-0.583926	0.548530
N167	N	1.537419	-0.333926	0.798530
N168	N	1.787419	-0.083926	1.048530
N169	N	1.037392	-0.771468	0.298520
N170	N	1.287392	-0.521468	0.548520
N171	N	1.537392	-0.271468	0.798520
N172	N	1.787392	-0.021468	1.048520
C173	C	0.978133	-0.739590	0.303293
C174	C	1.228133	-0.489590	0.553293
C175	C	1.478133	-0.239590	0.803293
C176	C	1.728133	0.010410	1.053293
C177	C	1.021538	-0.970517	0.263110
C178	C	1.271538	-0.720517	0.513110
C179	C	1.521538	-0.470517	0.763110
C180	C	1.771538	-0.220517	1.013110
C181	C	1.021571	-1.036261	0.263129
C182	C	1.271571	-0.786261	0.513129
C183	C	1.521571	-0.536261	0.763129
C184	C	1.771571	-0.286261	1.013129
C185	C	0.934952	-1.036288	0.343571
C186	C	1.184952	-0.786288	0.593571
C187	C	1.434952	-0.536288	0.843571
C188	C	1.684952	-0.286288	1.093571
C189	C	0.934925	-0.970545	0.343556
C190	C	1.184925	-0.720545	0.593556
C191	C	1.434925	-0.470545	0.843556
C192	C	1.684925	-0.220545	1.093556
C193	C	0.978217	-0.937664	0.303322
C194	C	1.228217	-0.687664	0.553322
C195	C	1.478217	-0.437664	0.803322
C196	C	1.728217	-0.187664	1.053322
C197	C	1.154666	-0.303315	0.303304
C198	C	1.404666	-0.053315	0.553304
C199	C	1.654666	0.196685	0.803304
C200	C	1.904666	0.446685	1.053304
C201	C	1.229898	-0.303321	0.303313
C202	C	1.479898	-0.053321	0.553313
C203	C	1.729898	0.196679	0.803313
C204	C	1.979898	0.446679	1.053313
C205	C	0.978179	-0.303290	0.467473
C206	C	1.228179	-0.053290	0.717473
C207	C	1.478179	0.196710	0.967473
C208	C	1.728179	0.446710	1.217473
C209	C	0.978203	-0.303284	0.537441
C210	C	1.228203	-0.053284	0.787441
C211	C	1.478203	0.196716	1.037441
C212	C	1.728203	0.446716	1.287441
C213	C	0.978230	-0.139113	0.303332
C214	C	1.228230	0.110887	0.553332
C215	C	1.478230	0.360887	0.803332
C216	C	1.728230	0.610887	1.053332
C217	C	0.978276	-0.069144	0.303353
C218	C	1.228276	0.180856	0.553353
C219	C	1.478276	0.430856	0.803353
C220	C	1.728276	0.680856	1.053353
C221	C	0.978106	-0.303271	0.139731
C222	C	1.228106	-0.053271	0.389731
C223	C	1.478106	0.196729	0.639731
C224	C	1.728106	0.446729	0.889731
C225	C	0.978213	-0.303099	0.069764
C226	C	1.228213	-0.053099	0.319764
C227	C	1.478213	0.196901	0.569764
C228	C	1.728213	0.446901	0.819764
C229	C	1.021518	-0.263024	0.570326
C230	C	1.271518	-0.013024	0.820326
C231	C	1.521518	0.236976	1.070326
C232	C	1.771518	0.486976	1.320326
C233	C	1.021517	-0.262996	0.636069
C234	C	1.271517	-0.012996	0.886069
C235	C	1.521517	0.237004	1.136069
C236	C	1.771517	0.487004	1.386069
C237	C	0.978208	-0.303241	0.668924
C238	C	1.228208	-0.053241	0.918924
C239	C	1.478208	0.196759	1.168924
C240	C	1.728208	0.446759	1.418924
C241	C	0.934885	-0.343504	0.636031
C242	C	1.184885	-0.093504	0.886031
C243	C	1.434885	0.156496	1.136031
C244	C	1.684885	0.406496	1.386031
C245	C	0.934882	-0.343525	0.570290
C246	C	1.184882	-0.093525	0.820290
C247	C	1.434882	0.156475	1.070290
C248	C	1.684882	0.406475	1.320290
N249	N	0.972986	-0.358308	0.772139
N250	N	1.222986	-0.108308	1.022139
N251	N	1.472986	0.141692	1.272139
N252	N	1.722986	0.391692	1.522139
N253	N	0.972993	-0.358286	0.834591
N254	N	1.222993	-0.108286	1.084591
N255	N	1.472993	0.141714	1.334591
N256	N	1.722993	0.391714	1.584591
C257	C	0.978213	-0.303177	0.866999
C258	C	1.228213	-0.053177	1.116999
C259	C	1.478213	0.196823	1.366999
C260	C	1.728213	0.446823	1.616999
N261	N	0.983439	-0.248089	0.834596
N262	N	1.233439	0.001911	1.084596
N263	N	1.483439	0.251911	1.334596
N264	N	1.733439	0.501911	1.584596
N265	N	0.983436	-0.248113	0.772139
N266	N	1.233436	0.001887	1.022139
N267	N	1.483436	0.251887	1.272139
N268	N	1.733436	0.501887	1.522139
C269	C	0.978206	-0.303221	0.740209
C270	C	1.228206	-0.053221	0.990209
C271	C	1.478206	0.196779	1.240209
C272	C	1.728206	0.446779	1.490209
C273	C	1.021529	-0.262884	0.971169
C274	C	1.271529	-0.012884	1.221169
C275	C	1.521529	0.237116	1.471169
C276	C	1.771529	0.487116	1.721169
C277	C	1.021523	-0.262855	1.036913
C278	C	1.271523	-0.012855	1.286913
C279	C	1.521523	0.237145	1.536913
C280	C	1.771523	0.487145	1.786913
C281	C	0.934895	-0.343368	1.036874
C282	C	1.184895	-0.093368	1.286874
C283	C	1.434895	0.156632	1.536874
C284	C	1.684895	0.406632	1.786874
C285	C	0.934897	-0.343391	0.971132
C286	C	1.184897	-0.093391	1.221132
C287	C	1.434897	0.156609	1.471132
C288	C	1.684897	0.406609	1.721132
C289	C	0.978217	-0.303149	0.938283
C290	C	1.228217	-0.053149	1.188283
C291	C	1.478217	0.196851	1.438283
C292	C	1.728217	0.446851	1.688283
H293	H	0.592237	-0.376453	0.376184
H294	H	0.842237	-0.126453	0.626184
H295	H	1.092237	0.123547	0.876184
H296	H	1.342237	0.373547	1.126184
H297	H	1.056794	-0.230067	1.063687
H298	H	1.306794	0.019933	1.313687
H299	H	1.556794	0.269933	1.563687
H300	H	1.806794	0.519933	1.813687
H301	H	1.056792	-0.230255	0.543585
H302	H	1.306792	0.019745	0.793585
H303	H	1.556792	0.269745	1.043585
H304	H	1.806792	0.519745	1.293585
H305	H	1.056848	-1.063008	0.230382
H306	H	1.306848	-0.813008	0.480382
H307	H	1.556848	-0.563008	0.730382
H308	H	1.806848	-0.313008	0.980382
Cl309	Cl	1.075961	-0.212367	0.677418
Cl310	Cl	1.325961	0.037633	0.927418
Cl311	Cl	1.575961	0.287633	1.177418
Cl312	Cl	1.825961	0.537633	1.427418
Cl313	Cl	0.880442	-0.393956	1.078172
Cl314	Cl	1.130442	-0.143956	1.328172
Cl315	Cl	1.380442	0.106044	1.578172
Cl316	Cl	1.630442	0.356044	1.828172
H317	H	0.899621	-0.376269	0.662786
H318	H	1.149621	-0.126269	0.912786
H319	H	1.399621	0.123731	1.162786
H320	H	1.649621	0.373731	1.412786
Cl321	Cl	0.736126	-0.394307	0.393964
Cl322	Cl	0.986126	-0.144307	0.643964
Cl323	Cl	1.236126	0.105693	0.893964
Cl324	Cl	1.486126	0.355693	1.143964
H325	H	0.592217	-0.230155	0.230385
H326	H	0.842217	0.019845	0.480385
H327	H	1.092217	0.269845	0.730385
H328	H	1.342217	0.519845	0.980385
H329	H	0.899607	-0.376309	0.543516
H330	H	1.149607	-0.126309	0.793516
H331	H	1.399607	0.123691	1.043516
H332	H	1.649607	0.373691	1.293516
Cl333	Cl	1.075962	-0.929178	0.212531
Cl334	Cl	1.325962	-0.679178	0.462531
Cl335	Cl	1.575962	-0.429178	0.712531
Cl336	Cl	1.825962	-0.179178	0.962531
Cl337	Cl	0.880443	-0.394009	0.929789
Cl338	Cl	1.130443	-0.144009	1.179789
Cl339	Cl	1.380443	0.105991	1.429789
Cl340	Cl	1.630443	0.355991	1.679789
H341	H	0.899703	-1.063064	0.376324
H342	H	1.149703	-0.813064	0.626324
H343	H	1.399703	-0.563064	0.876324
H344	H	1.649703	-0.313064	1.126324
H345	H	0.364711	-0.376465	0.376199
H346	H	0.614711	-0.126465	0.626199
H347	H	0.864711	0.123535	0.876199
H348	H	1.114711	0.373535	1.126199
Cl349	Cl	0.220818	-0.394334	0.394006
Cl350	Cl	0.470818	-0.144334	0.644006
Cl351	Cl	0.720818	0.105666	0.894006
Cl352	Cl	0.970818	0.355666	1.144006
H353	H	0.236459	-0.230171	0.230406
H354	H	0.486459	0.019829	0.480406
H355	H	0.736459	0.269829	0.730406
H356	H	0.986459	0.519829	0.980406
Cl357	Cl	0.880465	-0.929243	0.394112
Cl358	Cl	1.130465	-0.679243	0.644112
Cl359	Cl	1.380465	-0.429243	0.894112
Cl360	Cl	1.630465	-0.179243	1.144112
Cl361	Cl	1.075984	-0.212292	0.929871
Cl362	Cl	1.325984	0.037708	1.179871
Cl363	Cl	1.575984	0.287708	1.429871
Cl364	Cl	1.825984	0.537708	1.679871
H365	H	0.364694	-0.230166	0.230393
H366	H	0.614694	0.019834	0.480393
H367	H	0.864694	0.269834	0.730393
H368	H	1.114694	0.519834	0.980393
Cl369	Cl	0.736117	-0.212288	0.212574
Cl370	Cl	0.986117	0.037712	0.462574
Cl371	Cl	1.236117	0.287712	0.712574
Cl372	Cl	1.486117	0.537712	0.962574
H373	H	1.056626	-0.542905	0.230280
H374	H	1.306626	-0.292905	0.480280
H375	H	1.556626	-0.042905	0.730280
H376	H	1.806626	0.207095	0.980280
H377	H	0.899541	-0.662227	0.376250
H378	H	1.149541	-0.412227	0.626250
H379	H	1.399541	-0.162227	0.876250
H380	H	1.649541	0.087773	1.126250
Cl381	Cl	1.075861	-0.676726	0.212492
Cl382	Cl	1.325861	-0.426726	0.462492
Cl383	Cl	1.575861	-0.176726	0.712492
Cl384	Cl	1.825861	0.073274	0.962492
Cl385	Cl	0.880307	-0.528402	0.394048
Cl386	Cl	1.130307	-0.278402	0.644048
Cl387	Cl	1.380307	-0.028402	0.894048
Cl388	Cl	1.630307	0.221598	1.144048
