data_functionalizedCrystal
_audit_creation_method	'MofGen! by Chris Wilmer'
_symmetry_space_group_name_H-M	'P1'
_symmetry_Int_Tables_number	1
_symmetry_cell_setting	triclinic
loop_
_symmetry_equiv_pos_as_xyz
  x,y,z
_cell_length_a	16.109301
_cell_length_b	17.699083
_cell_length_c	14.586319
_cell_angle_alpha	89.995320
_cell_angle_beta	89.999213
_cell_angle_gamma	83.372248
loop_
_atom_site_label
_atom_site_type_symbol
_atom_site_fract_x
_atom_site_fract_y
_atom_site_fract_z
O1	O	1.102963	0.097285	-0.076184
O2	O	0.860880	0.109391	-0.076199
O3	O	0.988761	-0.006841	-0.076183
O4	O	0.975082	0.213517	-0.076200
O5	O	0.988752	-0.006843	0.076298
O6	O	0.860872	0.109390	0.076282
O7	O	1.102954	0.097283	0.076297
Cu8	Cu	0.981912	0.103336	0.090212
Cu9	Cu	0.981923	0.103338	-0.090114
O10	O	0.975074	0.213516	0.076281
C11	C	0.829902	0.108900	0.000040
C12	C	0.737609	0.107430	0.000034
C13	C	0.515224	0.172981	0.000040
C14	C	0.428506	0.171594	0.000046
C15	C	0.448618	0.033688	0.000053
C16	C	0.535334	0.035076	0.000053
C17	C	0.568635	0.104725	0.000042
C18	C	0.395200	0.101949	0.000047
C19	C	0.301177	0.100445	0.000054
C20	C	0.662664	0.106230	0.000037
C21	C	0.988267	-0.035040	0.000057
C22	C	0.986796	-0.119060	0.000058
C23	C	1.061860	-0.167574	0.000064
C24	C	1.060473	-0.246519	0.000055
C25	C	0.984022	-0.276949	0.000048
C26	C	0.908953	-0.228429	0.000039
C27	C	0.910341	-0.149485	0.000041
C28	C	0.903356	-0.546800	0.000031
C29	C	0.901974	-0.625750	0.000033
C30	C	1.053488	-0.643834	0.000046
C31	C	1.054876	-0.564890	0.000048
C32	C	0.979807	-0.516377	0.000034
C33	C	0.981312	-0.430776	0.000041
C34	C	0.982517	-0.362549	0.000047
C35	C	1.133933	0.097774	0.000056
C36	C	1.226226	0.099244	0.000055
C37	C	0.975568	0.241714	0.000038
C38	C	0.977039	0.325734	0.000032
N39	N	0.981911	0.103334	0.217044
N40	N	0.981931	0.103334	-0.216946
C41	C	1.038555	0.051884	0.452057
C42	C	1.038558	0.051882	0.548038
C43	C	0.925280	0.154787	0.548034
C44	C	0.925274	0.154785	0.452054
C45	C	0.981917	0.103334	0.404068
C46	C	0.981925	0.103334	0.596029
C47	C	0.981927	0.103333	0.700096
C48	C	0.981914	0.103334	0.299995
H49	H	0.578824	-0.020510	0.000058
H50	H	0.542334	0.229694	0.000038
H51	H	0.846705	-0.253211	0.000027
C52	C	0.439067	-0.084279	-0.078329
C53	C	0.412012	-0.042869	0.000053
H54	H	0.416472	-0.131544	-0.078327
H55	H	0.420722	-0.056172	-0.131493
H56	H	0.498357	-0.093215	-0.078316
H57	H	0.352722	-0.033928	0.000036
H58	H	0.430352	-0.070982	0.053230
C59	C	1.211490	-0.193387	0.000062
C60	C	1.145898	-0.134130	0.000065
H61	H	1.263372	-0.172740	0.000054
H62	H	1.207798	-0.223803	0.053233
H63	H	1.207789	-0.223800	-0.053115
H64	H	1.149595	-0.103720	0.053246
H65	H	1.149592	-0.103701	-0.053111
H66	H	0.849216	-0.109986	0.000036
H67	H	1.084675	0.009988	0.412989
C68	C	0.417343	0.308046	0.000025
C69	C	0.369797	0.246624	0.000037
H70	H	0.381096	0.354367	0.000014
H71	H	0.451581	0.305719	0.053194
H72	H	0.451586	0.305712	-0.053153
H73	H	0.335558	0.248955	0.053218
H74	H	0.335543	0.248952	-0.053138
H75	H	1.084677	0.009985	0.587108
C76	C	1.204508	-0.590698	0.000049
C77	C	1.138913	-0.531443	0.000051
H78	H	1.256389	-0.570048	0.000043
H79	H	1.200816	-0.621114	0.053220
H80	H	1.200810	-0.621110	-0.053127
H81	H	1.142607	-0.501033	0.053232
H82	H	1.142606	-0.501014	-0.053125
C83	C	0.874998	0.200490	0.695162
C84	C	0.863029	0.211347	0.600783
H85	H	0.836570	0.235414	0.727724
H86	H	0.866068	0.149982	0.710897
H87	H	0.930471	0.208724	0.710874
H88	H	0.807558	0.203108	0.585071
H89	H	0.871952	0.261868	0.585042
H90	H	0.879149	0.196682	0.412979
H91	H	1.114613	-0.683343	0.000052
C92	C	1.146829	-0.345772	-0.078333
C93	C	1.142988	-0.299842	0.000059
H94	H	1.197777	-0.378686	-0.078334
H95	H	1.101109	-0.375194	-0.078333
H96	H	1.144220	-0.314583	-0.131496
H97	H	1.145591	-0.331031	0.053222
H98	H	1.188721	-0.270417	0.000067
C99	C	0.752335	-0.599948	-0.000006
C100	C	0.817933	-0.659200	0.000012
H101	H	0.700456	-0.620601	-0.000024
H102	H	0.756013	-0.569537	0.053165
H103	H	0.756041	-0.569530	-0.053182
H104	H	0.814230	-0.689615	0.053192
H105	H	0.814253	-0.689624	-0.053164
H106	H	0.842230	-0.507310	0.000021
