data_functionalizedCrystal
_audit_creation_method	'MofGen! by Chris Wilmer'
_symmetry_space_group_name_H-M	'P1'
_symmetry_Int_Tables_number	1
_symmetry_cell_setting	triclinic
loop_
_symmetry_equiv_pos_as_xyz
  x,y,z
_cell_length_a	12.594516
_cell_length_b	13.897449
_cell_length_c	13.897441
_cell_angle_alpha	90.020733
_cell_angle_beta	89.973623
_cell_angle_gamma	89.982668
loop_
_atom_site_label
_atom_site_type_symbol
_atom_site_fract_x
_atom_site_fract_y
_atom_site_fract_z
Zn1	Zn	-0.423672	-1.474714	-0.545409
Zn2	Zn	0.076328	-0.974714	-0.045409
Zn3	Zn	-0.601683	-1.474612	-0.384123
Zn4	Zn	-0.101683	-0.974612	0.115877
Zn5	Zn	-0.423722	-1.313403	-0.384128
Zn6	Zn	0.076278	-0.813403	0.115872
Zn7	Zn	-0.601613	-1.313389	-0.545375
Zn8	Zn	-0.101613	-0.813389	-0.045375
O9	O	-0.512672	-1.394029	-0.464759
O10	O	-0.012672	-0.894029	0.035241
O11	O	-0.447293	-1.609682	-0.524027
O12	O	0.052707	-1.109682	-0.024027
O13	O	-0.578126	-1.453191	-0.249142
O14	O	-0.078126	-0.953191	0.250858
O15	O	-0.274770	-1.334849	-0.405539
O16	O	0.225230	-0.834849	0.094461
O17	O	-0.578077	-1.609607	-0.405530
O18	O	-0.078077	-1.109607	0.094470
O19	O	-0.274733	-1.453364	-0.524032
O20	O	0.225267	-0.953364	-0.024032
O21	O	-0.447380	-1.334751	-0.249145
O22	O	0.052620	-0.834751	0.250855
O23	O	-0.447312	-1.178419	-0.405506
O24	O	0.052688	-0.678419	0.094494
O25	O	-0.577958	-1.334826	-0.680362
O26	O	-0.077958	-0.834826	-0.180362
O27	O	-0.578007	-1.178409	-0.523973
O28	O	-0.078007	-0.678409	-0.023973
O29	O	-0.447226	-1.453350	-0.680387
O30	O	0.052774	-0.953350	-0.180387
O31	O	-0.750619	-1.453177	-0.405497
O32	O	-0.250619	-0.953177	0.094503
O33	O	-0.750568	-1.334728	-0.523968
O34	O	-0.250568	-0.834728	-0.023968
C35	C	-0.512658	-1.143415	-0.464737
C36	C	-0.012658	-0.643415	0.035263
C37	C	-0.512678	-1.036201	-0.464750
C38	C	-0.012678	-0.536201	0.035250
C39	C	-0.789213	-1.393966	-0.464749
C40	C	-0.289213	-0.893966	0.035251
C41	C	-0.907519	-1.394027	-0.464778
C42	C	-0.407519	-0.894027	0.035222
C43	C	-0.512578	-1.394098	-0.716352
C44	C	-0.012578	-0.894098	-0.216352
C45	C	-0.512538	-1.394127	-0.823566
C46	C	-0.012538	-0.894127	-0.323566
C47	C	-0.976783	-1.329596	-0.529169
C48	C	-0.476783	-0.829596	-0.029169
C49	C	-1.047649	-1.306093	-0.441152
C50	C	-0.547649	-0.806093	0.058848
C51	C	-1.047452	-1.417619	-0.552810
C52	C	-0.547452	-0.917619	-0.052810
C53	C	-0.976827	-1.370477	-0.376714
C54	C	-0.476827	-0.870477	0.123286
C55	C	-0.976623	-1.482044	-0.488431
C56	C	-0.476623	-0.982044	0.011569
C57	C	-1.047457	-1.458574	-0.400353
C58	C	-0.547457	-0.958574	0.099647
C59	C	-0.235052	-1.394119	-0.464789
C60	C	0.264948	-0.894119	0.035211
C61	C	-0.116746	-1.394157	-0.464802
C62	C	0.383254	-0.894157	0.035198
C63	C	-0.512687	-1.645622	-0.464781
C64	C	-0.012687	-1.145622	0.035219
C65	C	-0.512694	-1.752836	-0.464791
C66	C	-0.012694	-1.252836	0.035209
C67	C	-0.512682	-0.839906	-0.464776
C68	C	-0.012682	-0.339906	0.035224
C69	C	-0.512676	-0.949139	-0.464759
C70	C	-0.012676	-0.449139	0.035241
C71	C	-0.512466	-1.394153	-1.019861
C72	C	-0.012466	-0.894153	-0.519861
C73	C	-0.512509	-1.394136	-0.910629
C74	C	-0.012509	-0.894136	-0.410629
C75	C	-0.512689	-1.394017	-0.214145
C76	C	-0.012689	-0.894017	0.285855
C77	C	-0.512430	-1.394174	-0.106931
C78	C	-0.012430	-0.894174	0.393069
H79	H	-0.945749	-1.275011	-0.583543
H80	H	-0.445749	-0.775011	-0.083543
H81	H	-1.078475	-1.437520	-0.627247
H82	H	-0.578475	-0.937520	-0.127247
H83	H	-1.078870	-1.231719	-0.421166
H84	H	-0.578870	-0.731719	0.078834
H85	H	-1.078294	-1.513117	-0.345847
H86	H	-0.578294	-1.013117	0.154153
H87	H	-0.945932	-1.350490	-0.302256
H88	H	-0.445932	-0.850490	0.197744
C89	C	-0.970049	-1.606916	-0.607717
C90	C	-0.470049	-1.106916	-0.107717
C91	C	-0.934466	-1.582420	-0.515467
C92	C	-0.434466	-1.082420	-0.015467
H93	H	-0.944014	-1.668881	-0.624416
H94	H	-0.444014	-1.168881	-0.124416
H95	H	-1.045456	-1.607552	-0.608498
H96	H	-0.545456	-1.107552	-0.108498
H97	H	-0.944793	-1.560932	-0.652802
H98	H	-0.444793	-1.060932	-0.152802
H99	H	-0.959729	-1.628401	-0.470380
H100	H	-0.459729	-1.128401	0.029620
H101	H	-0.859043	-1.581791	-0.514679
H102	H	-0.359043	-1.081791	-0.014679
