data_functionalizedCrystal
_audit_creation_method	'MofGen! by Chris Wilmer'
_symmetry_space_group_name_H-M	'P1'
_symmetry_Int_Tables_number	1
_symmetry_cell_setting	triclinic
loop_
_symmetry_equiv_pos_as_xyz
  x,y,z
_cell_length_a	19.188930
_cell_length_b	14.421503
_cell_length_c	15.944545
_cell_angle_alpha	90.002190
_cell_angle_beta	83.320476
_cell_angle_gamma	89.978519
loop_
_atom_site_label
_atom_site_type_symbol
_atom_site_fract_x
_atom_site_fract_y
_atom_site_fract_z
O1	O	0.926418	-0.077414	0.104855
O2	O	1.426418	0.422586	0.604855
O3	O	0.723143	-0.077351	0.118971
O4	O	1.223143	0.422649	0.618971
O5	O	0.830334	-0.077373	-0.010383
O6	O	1.330334	0.422627	0.489617
O7	O	0.819227	-0.077392	0.234209
O8	O	1.319227	0.422608	0.734209
O9	O	0.830316	0.076850	-0.010364
O10	O	1.330316	0.576850	0.489636
O11	O	0.723125	0.076872	0.118991
O12	O	1.223125	0.576872	0.618991
O13	O	0.926400	0.076809	0.104874
O14	O	1.426400	0.576809	0.604874
Cu15	Cu	0.824761	0.090923	0.111934
Cu16	Cu	1.324761	0.590923	0.611934
Cu17	Cu	0.824782	-0.091464	0.111911
Cu18	Cu	1.324782	0.408536	0.611911
O19	O	0.819210	0.076831	0.234228
O20	O	1.319210	0.576831	0.734228
C21	C	0.697122	-0.000231	0.118524
C22	C	1.197122	0.499769	0.618524
C23	C	0.619614	-0.000207	0.117152
C24	C	1.119614	0.499793	0.617152
N25	N	0.824752	0.219204	0.111949
N26	N	1.324752	0.719204	0.611949
N27	N	0.824798	-0.219746	0.111889
N28	N	1.324798	0.280254	0.611889
C29	C	0.574885	-0.000227	0.193052
C30	C	1.074885	0.499773	0.693052
C31	C	0.502058	-0.000237	0.191763
C32	C	1.002058	0.499763	0.691763
C33	C	0.473963	-0.000246	0.114569
C34	C	0.973963	0.499754	0.614569
C35	C	0.518702	-0.000220	0.038658
C36	C	1.018702	0.499780	0.538658
C37	C	0.591528	-0.000201	0.039949
C38	C	1.091528	0.499799	0.539949
N39	N	0.365838	-0.052767	0.055557
N40	N	0.865838	0.447233	0.555557
N41	N	0.296656	-0.052788	0.054335
N42	N	0.796656	0.447212	0.554335
C43	C	0.254544	-0.000302	0.110673
C44	C	0.754544	0.499698	0.610673
N45	N	0.284227	0.052193	0.168292
N46	N	0.784227	0.552193	0.668292
N47	N	0.353415	0.052210	0.169516
N48	N	0.853415	0.552210	0.669516
C49	C	0.394997	-0.000266	0.113160
C50	C	0.894997	0.499734	0.613160
C51	C	0.130847	-0.000332	0.185181
C52	C	0.630847	0.499668	0.685181
C53	C	0.058019	-0.000336	0.183889
C54	C	0.558019	0.499664	0.683889
C55	C	0.074665	-0.000328	0.030781
C56	C	0.574665	0.499672	0.530781
C57	C	0.147492	-0.000315	0.032076
C58	C	0.647492	0.499685	0.532076
C59	C	0.175578	-0.000321	0.109278
C60	C	0.675578	0.499679	0.609278
C61	C	0.952422	-0.000313	0.105321
C62	C	1.452422	0.499687	0.605321
C63	C	1.029930	-0.000343	0.106694
C64	C	1.529930	0.499657	0.606694
C65	C	0.829865	-0.000261	-0.041666
C66	C	1.329865	0.499739	0.458334
C67	C	0.828485	-0.000258	-0.134907
C68	C	1.328485	0.499742	0.365093
C69	C	0.775178	0.468868	0.171736
C70	C	1.275178	0.968868	0.671736
C71	C	0.838267	0.530649	0.187808
C72	C	1.338267	1.030649	0.687808
C73	C	0.824769	0.408365	0.111929
C74	C	1.324769	0.908365	0.611929
C75	C	0.761695	0.530678	0.095878
C76	C	1.261695	1.030678	0.595878
C77	C	0.824779	0.591087	0.111912
C78	C	1.324779	1.091087	0.611912
C79	C	0.887890	0.468786	0.128038
C80	C	1.387890	0.968786	0.628038
C81	C	0.811277	0.468809	0.036076
C82	C	1.311277	0.968809	0.536076
C83	C	0.874412	0.530563	0.052115
C84	C	1.374412	1.030563	0.552115
C85	C	0.824761	0.303104	0.111942
C86	C	1.324761	0.803104	0.611942
C87	C	0.824794	0.696346	0.111899
C88	C	1.324794	1.196346	0.611899
C89	C	0.757919	-0.000254	-0.405276
C90	C	1.257919	0.499746	0.094724
C91	C	0.791949	-0.076306	-0.354827
C92	C	1.291949	0.423694	0.145173
C93	C	0.823563	-0.000282	-0.470532
C94	C	1.323563	0.499718	0.029468
C95	C	0.791949	0.075747	-0.354835
C96	C	1.291949	0.575747	0.145165
C97	C	0.825978	-0.000269	-0.305628
C98	C	1.325978	0.499731	0.194372
C99	C	0.857576	-0.076396	-0.421312
C100	C	1.357576	0.423604	0.078688
C101	C	0.857566	0.075724	-0.421323
C102	C	1.357566	0.575724	0.078677
C103	C	0.891644	-0.000346	-0.370908
C104	C	1.391644	0.499654	0.129092
C105	C	0.822171	-0.000291	-0.565529
C106	C	1.322171	0.499709	-0.065529
C107	C	0.827376	-0.000267	-0.210634
C108	C	1.327376	0.499733	0.289366
C109	C	0.819679	-0.000283	0.265511
C110	C	1.319679	0.499717	0.765511
C111	C	0.821059	-0.000292	0.358752
C112	C	1.321059	0.499708	0.858752
H113	H	0.465632	-0.000251	0.253573
H114	H	0.965632	0.499749	0.753573
H115	H	0.051791	-0.000393	-0.032072
H116	H	0.551791	0.499607	0.467928
H117	H	0.849689	0.557812	0.251948
H118	H	1.349689	1.057812	0.751948
N119	N	0.686998	-0.000331	-0.424640
N120	N	1.186998	0.499669	0.075360
N121	N	0.646931	-0.065711	-0.400247
N122	N	1.146931	0.434289	0.099753
H123	H	0.596843	-0.065769	-0.413923
H124	H	1.096843	0.434231	0.086077
H125	H	0.764207	0.140040	-0.325809
H126	H	1.264207	0.640040	0.174191
N127	N	0.892344	-0.157149	-0.457565
N128	N	1.392344	0.342851	0.042435
N129	N	0.955466	-0.171096	-0.449237
N130	N	1.455466	0.328904	0.050763
H131	H	0.980020	-0.228128	-0.474840
H132	H	1.480020	0.271872	0.025160
N133	N	0.757175	-0.156940	-0.318414
N134	N	1.257175	0.343060	0.181586
N135	N	0.693901	-0.170471	-0.326142
N136	N	1.193901	0.329529	0.173858
H137	H	0.669337	-0.227417	-0.300428
H138	H	1.169337	0.272583	0.199572
N139	N	0.962620	-0.000426	-0.351745
N140	N	1.462620	0.499574	0.148255
N141	N	1.002696	-0.065787	-0.376289
N142	N	1.502696	0.434213	0.123711
H143	H	1.052824	-0.065849	-0.362755
H144	H	1.552824	0.434151	0.137245
N145	N	0.892296	0.156359	-0.457784
N146	N	1.392296	0.656359	0.042216
N147	N	0.897239	0.168875	-0.535823
N148	N	1.397239	0.668875	-0.035823
H149	H	0.921762	0.225830	-0.561576
H150	H	1.421762	0.725830	-0.061576
N151	N	0.603562	-0.000236	0.271917
N152	N	1.103562	0.499764	0.771917
N153	N	0.563611	-0.000256	0.339682
N154	N	1.063611	0.499744	0.839682
H155	H	0.583864	-0.000262	0.395382
H156	H	1.083864	0.499738	0.895382
H157	H	0.733283	0.441779	0.222353
H158	H	1.233283	0.941779	0.722353
H159	H	0.941246	0.441714	0.141684
H160	H	1.441246	0.941714	0.641684
N161	N	0.489996	-0.000219	-0.040187
N162	N	0.989996	0.499781	0.459813
N163	N	0.424973	-0.000237	-0.041331
N164	N	0.924973	0.499763	0.458669
H165	H	0.404699	-0.000231	-0.097017
H166	H	0.904699	0.499769	0.402983
H167	H	0.153716	-0.000323	0.248044
H168	H	0.653716	0.499677	0.748044
N169	N	0.637222	-0.000166	-0.037585
N170	N	1.137222	0.499834	0.462415
N171	N	0.634635	0.064849	-0.088974
N172	N	1.134635	0.564849	0.411026
H173	H	0.666908	0.064874	-0.143734
H174	H	1.166908	0.564874	0.356266
N175	N	0.012336	-0.000346	0.261432
N176	N	0.512336	0.499654	0.761432
N177	N	0.037427	-0.000349	0.330352
N178	N	0.537427	0.499651	0.830352
H179	H	0.005163	-0.000355	0.385119
H180	H	0.505163	0.499645	0.885119
N181	N	0.193176	-0.000297	-0.045464
N182	N	0.693176	0.499703	0.454536
N183	N	0.168086	-0.000300	-0.114384
N184	N	0.668086	0.499700	0.385616
H185	H	0.200350	-0.000284	-0.169151
H186	H	0.700350	0.499716	0.330849
H187	H	0.916399	0.557482	0.001527
H188	H	1.416399	1.057482	0.501527
N189	N	0.796919	0.434714	-0.044363
N190	N	1.296919	0.934714	0.455637
N191	N	0.740271	0.454516	-0.071662
N192	N	1.240271	0.954516	0.428338
H193	H	0.730123	0.430436	-0.128472
H194	H	1.230123	0.930436	0.371528
H195	H	0.708351	0.557866	0.082309
H196	H	1.208351	1.057866	0.582309
