data_functionalizedCrystal
_audit_creation_method	'MofGen! by Chris Wilmer'
_symmetry_space_group_name_H-M	'P1'
_symmetry_Int_Tables_number	1
_symmetry_cell_setting	triclinic
loop_
_symmetry_equiv_pos_as_xyz
  x,y,z
_cell_length_a	10.654550
_cell_length_b	16.956995
_cell_length_c	15.455301
_cell_angle_alpha	93.170672
_cell_angle_beta	92.975489
_cell_angle_gamma	80.269687
loop_
_atom_site_label
_atom_site_type_symbol
_atom_site_fract_x
_atom_site_fract_y
_atom_site_fract_z
O1	O	0.056602	1.061468	0.072190
O2	O	0.556602	1.561468	0.572190
O3	O	0.100663	0.829554	0.072178
O4	O	0.600663	1.329554	0.572178
O5	O	-0.104734	0.950843	0.072181
O6	O	0.395266	1.450843	0.572181
O7	O	0.261998	0.940179	0.072187
O8	O	0.761998	1.440179	0.572187
O9	O	-0.113899	0.944550	-0.072082
O10	O	0.386101	1.444550	0.427918
O11	O	0.091498	0.823261	-0.072085
O12	O	0.591498	1.323261	0.427915
O13	O	0.047437	1.055175	-0.072073
O14	O	0.547437	1.555175	0.427927
Cu15	Cu	0.068631	0.938644	-0.085251
Cu16	Cu	0.568631	1.438644	0.414749
Cu17	Cu	0.079469	0.946086	0.085357
Cu18	Cu	0.579469	1.446086	0.585357
O19	O	0.252834	0.933886	-0.072076
O20	O	0.752834	1.433886	0.427924
C21	C	0.098336	0.796712	0.000045
C22	C	0.598336	1.296712	0.500045
C23	C	0.105043	0.708229	0.000041
C24	C	0.605043	1.208229	0.500041
C25	C	0.155223	0.209207	0.000074
C26	C	0.655223	0.709207	0.500074
C27	C	0.148911	0.292348	0.000073
C28	C	0.648911	0.792348	0.500073
C29	C	0.030431	0.342780	0.000065
C30	C	0.530431	0.842780	0.500065
C31	C	-0.081743	0.310069	0.000066
C32	C	0.418257	0.810069	0.500066
C33	C	-0.075429	0.226931	0.000073
C34	C	0.424571	0.726931	0.500073
C35	C	-0.000817	0.592379	0.000049
C36	C	0.499183	1.092379	0.500049
C37	C	-0.007122	0.675523	0.000039
C38	C	0.492878	1.175523	0.500039
C39	C	0.223532	0.657795	0.000048
C40	C	0.723532	1.157795	0.500048
C41	C	0.229835	0.574656	0.000050
C42	C	0.729835	1.074656	0.500050
C43	C	0.117661	0.541952	0.000056
C44	C	0.617661	1.041952	0.500056
N45	N	0.023976	0.427763	0.000061
N46	N	0.523976	0.927763	0.500061
N47	N	0.124118	0.456971	0.000066
N48	N	0.624118	0.956971	0.500066
C49	C	-0.156022	0.946914	0.000051
C50	C	0.343978	1.446914	0.500051
C51	C	-0.295190	0.944571	0.000054
C52	C	0.204810	1.444571	0.500054
C53	C	-0.383068	1.015984	0.000055
C54	C	0.116932	1.515984	0.500055
C55	C	-0.513830	1.013779	0.000061
C56	C	-0.013830	1.513779	0.500061
C57	C	-0.468820	0.868740	0.000061
C58	C	0.031180	1.368740	0.500061
C59	C	-0.338061	0.870947	0.000061
C60	C	0.161939	1.370947	0.500061
C61	C	-0.340197	1.089608	0.000047
C62	C	0.159803	1.589608	0.500047
C63	C	-0.428077	1.161027	0.000048
C64	C	0.071923	1.661027	0.500048
C65	C	-0.558839	1.158822	0.000053
C66	C	-0.058839	1.658822	0.500053
C67	C	-0.601719	1.085197	0.000059
C68	C	-0.101719	1.585197	0.500059
C69	C	0.304122	0.937816	0.000057
C70	C	0.804122	1.437816	0.500057
C71	C	0.443290	0.940159	0.000060
C72	C	0.943290	1.440159	0.500060
C73	C	0.049763	1.088018	0.000062
C74	C	0.549763	1.588018	0.500062
C75	C	0.043057	1.176501	0.000073
C76	C	0.543057	1.676501	0.500073
N77	N	0.061006	0.933415	-0.205247
N78	N	0.561006	1.433415	0.294753
C79	C	0.129276	0.980191	-0.250634
C80	C	0.629276	1.480191	0.249366
C81	C	0.123501	0.976247	-0.341443
C82	C	0.623501	1.476247	0.158557
C83	C	0.049462	0.925524	-0.386863
C84	C	0.549462	1.425524	0.113137
C85	C	-0.018816	0.878746	-0.341470
C86	C	0.481184	1.378746	0.158530
C87	C	-0.013047	0.882694	-0.250663
C88	C	0.486953	1.382694	0.249337
C89	C	0.024573	0.908492	-0.658447
C90	C	0.524573	1.408492	-0.158447
C91	C	0.018813	0.904545	-0.749260
C92	C	0.518813	1.404545	-0.249260
C93	C	0.161129	1.002048	-0.749227
C94	C	0.661129	1.502048	-0.249227
C95	C	0.166897	1.005988	-0.658418
C96	C	0.666897	1.505988	-0.158418
C97	C	0.098613	0.959214	-0.613033
C98	C	0.598613	1.459214	-0.113033
N99	N	0.043561	0.921490	-0.479684
N100	N	0.543561	1.421490	0.020316
N101	N	0.104509	0.963253	-0.520214
N102	N	0.604509	1.463253	-0.020214
N103	N	0.087083	0.951321	0.205353
N104	N	0.587083	1.451321	0.705353
H105	H	0.240249	0.318972	0.000082
H106	H	0.740249	0.818972	0.500082
H107	H	0.326314	0.533598	0.000060
H108	H	0.826314	1.033598	0.500060
Br109	Br	-0.779186	1.082203	0.000027
Br110	Br	-0.279186	1.582203	0.500027
Br111	Br	-0.162738	1.092606	0.000033
Br112	Br	0.337262	1.592606	0.500033
H113	H	-0.393153	1.220971	0.000064
H114	H	0.106847	1.720971	0.500064
Br115	Br	0.375760	0.702183	0.000046
Br116	Br	0.875760	1.202183	0.500046
H117	H	-0.503745	0.808799	0.000065
H118	H	-0.003745	1.308799	0.500065
Br119	Br	-0.167927	0.743968	0.000026
Br120	Br	0.332073	1.243968	0.500026
H121	H	0.251701	0.168150	0.000074
H122	H	0.751701	0.668150	0.500074
H123	H	-0.092157	0.565762	0.000051
H124	H	0.407843	1.065762	0.500051
Br125	Br	-0.227660	0.182544	0.000074
Br126	Br	0.272340	0.682544	0.500074
Br127	Br	-0.678101	1.255745	0.000066
Br128	Br	-0.178101	1.755745	0.500066
Br129	Br	0.229768	1.049031	-0.189001
Br130	Br	0.729768	1.549031	0.310999
Br131	Br	0.216158	1.039732	-0.403036
Br132	Br	0.716158	1.539732	0.096964
H133	H	0.227183	1.047295	-0.621443
H134	H	0.727183	1.547295	-0.121443
H135	H	0.216720	1.040129	-0.786189
H136	H	0.716720	1.540129	-0.286189
Br137	Br	-0.081673	0.835700	-0.810902
Br138	Br	0.418327	1.335700	-0.310902
H139	H	-0.178211	0.351139	0.000064
H140	H	0.321789	0.851139	0.500064
H141	H	-0.266507	0.812796	0.000059
H142	H	0.233493	1.312796	0.500059
Br143	Br	-0.068043	0.844979	-0.596864
Br144	Br	0.431957	1.344979	-0.096864
Br145	Br	-0.119304	0.809909	-0.403110
Br146	Br	0.380696	1.309909	0.096890
H147	H	-0.068640	0.844604	-0.213710
H148	H	0.431360	1.344604	0.286290
