data_functionalizedCrystal
_audit_creation_method	'MofGen! by Chris Wilmer'
_symmetry_space_group_name_H-M	'P1'
_symmetry_Int_Tables_number	1
_symmetry_cell_setting	triclinic
loop_
_symmetry_equiv_pos_as_xyz
  x,y,z
_cell_length_a	6.817900
_cell_length_b	17.458011
_cell_length_c	12.908943
_cell_angle_alpha	95.256777
_cell_angle_beta	100.860631
_cell_angle_gamma	106.367272
loop_
_atom_site_label
_atom_site_type_symbol
_atom_site_fract_x
_atom_site_fract_y
_atom_site_fract_z
V1	V	-4.010949	-0.109566	-0.329619
O2	O	-3.983464	0.006291	-0.322371
O3	O	-3.977289	-0.218237	-0.328301
O4	O	-3.948939	-0.107430	-0.472951
O5	O	-4.012010	-0.105283	-0.176721
V6	V	-4.494431	-0.095761	-0.311218
O7	O	-4.272299	-0.139847	-0.369985
O8	O	-4.683279	-0.065479	-0.270852
O9	O	-4.304884	0.012911	-0.312536
O10	O	-4.639313	-0.211618	-0.318466
O11	O	-4.610767	-0.100044	-0.464116
O12	O	-4.333235	-0.097897	-0.167886
C13	C	-3.826316	-0.244743	-0.323343
C14	C	-3.879992	-0.333581	-0.323220
C15	C	-4.201709	-0.834066	-0.322980
C16	C	-4.151265	-0.750595	-0.323109
C17	C	-3.943876	-0.704811	-0.317886
C18	C	-3.786918	-0.742501	-0.312523
C19	C	-3.837360	-0.825969	-0.312386
C20	C	-3.773476	-0.454740	-0.317720
C21	C	-3.723045	-0.371266	-0.317861
C22	C	-4.087396	-0.379365	-0.328445
C23	C	-4.137825	-0.462836	-0.328314
C24	C	-3.980862	-0.500518	-0.322946
N25	N	-3.892310	-0.619490	-0.318021
N26	N	-4.032426	-0.585837	-0.322803
C27	C	-3.790152	-0.103396	-0.507856
C28	C	-3.820832	-0.102369	-0.625036
C29	C	-4.242811	-0.108369	-0.856034
C30	C	-4.271648	-0.107405	-0.966136
C31	C	-3.907342	-0.099469	-0.955342
C32	C	-3.878505	-0.100434	-0.845240
C33	C	-4.046248	-0.104885	-0.795591
C34	C	-4.017413	-0.105856	-0.685488
C35	C	-3.653105	-0.097915	-0.674695
C36	C	-3.681942	-0.096950	-0.784797
C37	C	-4.119200	0.039412	-0.317491
C38	C	-4.044762	0.128249	-0.317621
C39	C	-4.155365	-0.101933	-0.132975
C40	C	-4.103922	-0.102956	-0.015794
H41	H	-4.279072	-0.719916	-0.327478
C42	C	-4.487872	-0.111247	-1.032623
H43	H	-4.583639	-0.114043	-0.987282
H44	H	-4.475588	-0.064251	-1.065771
H45	H	-4.537808	-0.157832	-1.085826
H46	H	-3.618052	-0.705216	-0.308263
C47	C	-3.600824	-0.496182	-0.311803
H48	H	-3.660548	-0.552449	-0.312452
H49	H	-3.538659	-0.487967	-0.371466
H50	H	-3.496752	-0.473707	-0.247819
H51	H	-4.154002	-0.109484	-0.645067
H52	H	-3.545376	-0.093323	-0.825236
H53	H	-3.709558	-0.856652	-0.308031
H54	H	-4.379401	-0.112002	-0.815611
C55	C	-4.260036	-0.337915	-0.334330
H56	H	-4.390773	-0.377138	-0.337424
H57	H	-4.226946	-0.298401	-0.272780
H58	H	-4.268926	-0.312644	-0.396429
C59	C	-3.436875	-0.094084	-0.608211
H60	H	-3.341117	-0.091302	-0.653554
H61	H	-3.386921	-0.047511	-0.554998
H62	H	-3.449192	-0.141092	-0.575077
H63	H	-3.770779	-0.095840	-0.995785
H64	H	-4.370585	-0.871338	-0.327240
H65	H	-3.554162	-0.333991	-0.313614
H66	H	-4.306699	-0.500108	-0.332568
