data_functionalizedCrystal
_audit_creation_method	'MofGen! by Chris Wilmer'
_symmetry_space_group_name_H-M	'P1'
_symmetry_Int_Tables_number	1
_symmetry_cell_setting	triclinic
loop_
_symmetry_equiv_pos_as_xyz
  x,y,z
_cell_length_a	19.188930
_cell_length_b	10.540539
_cell_length_c	17.666332
_cell_angle_alpha	90.000523
_cell_angle_beta	89.979551
_cell_angle_gamma	83.835136
loop_
_atom_site_label
_atom_site_type_symbol
_atom_site_fract_x
_atom_site_fract_y
_atom_site_fract_z
O1	O	-0.927204	-0.158463	0.063188
O2	O	-0.724035	-0.179796	0.063136
O3	O	-0.830254	0.015679	0.063163
O4	O	-0.820984	-0.353938	0.063162
O5	O	-0.830240	0.015672	-0.062734
O6	O	-0.724020	-0.179803	-0.062761
O7	O	-0.927189	-0.158470	-0.062708
Cu8	Cu	-0.825604	-0.169137	-0.074230
Cu9	Cu	-0.825620	-0.169129	0.074658
O10	O	-0.820970	-0.353945	-0.062735
C11	C	-0.698012	-0.179108	0.000181
C12	C	-0.620493	-0.177035	0.000161
C13	C	-0.829552	0.062963	0.000215
C14	C	-0.827472	0.203866	0.000219
C15	C	-0.953212	-0.159157	0.000248
C16	C	-1.030731	-0.161231	0.000273
C17	C	-0.576334	-0.291733	0.000173
C18	C	-0.503497	-0.289785	0.000181
C19	C	-0.474823	-0.173132	0.000193
C20	C	-0.518992	-0.058418	0.000177
C21	C	-0.591827	-0.060370	0.000161
N22	N	-0.366253	-0.083963	0.043072
N23	N	-0.297063	-0.082117	0.043089
C24	C	-0.255375	-0.167245	0.000239
N25	N	-0.285492	-0.254308	-0.042618
N26	N	-0.354689	-0.256158	-0.042631
C27	C	-0.395846	-0.171003	0.000210
C28	C	-0.132237	-0.279838	0.000259
C29	C	-0.059400	-0.277885	0.000263
C30	C	-0.074896	-0.046516	0.000266
C31	C	-0.147732	-0.048472	0.000255
C32	C	-0.176398	-0.165137	0.000255
C33	C	-0.821672	-0.401229	0.000214
C34	C	-0.823752	-0.542131	0.000216
N35	N	-0.825597	-0.169141	-0.178949
C36	C	-0.747771	0.385536	0.000481
C37	C	-0.749879	0.238965	0.000198
C38	C	-0.864805	0.266342	-0.071665
C39	C	-0.862157	0.412828	-0.071726
C40	C	-0.863751	0.413389	0.071443
C41	C	-0.864466	0.266423	0.072393
C42	C	-0.868359	-0.245898	-0.780987
C43	C	-0.868352	-0.245911	-0.701740
C44	C	-0.825627	-0.169116	-0.662131
C45	C	-0.782892	-0.092327	-0.701776
C46	C	-0.782895	-0.092327	-0.781022
N47	N	-0.823195	-0.057927	-0.537707
N48	N	-0.823196	-0.057931	-0.462427
C49	C	-0.825614	-0.169116	-0.423367
N50	N	-0.828045	-0.280298	-0.462431
N51	N	-0.828047	-0.280292	-0.537718
C52	C	-0.825619	-0.169109	-0.576202
C53	C	-0.868335	-0.245920	-0.297802
C54	C	-0.868323	-0.245935	-0.218553
C55	C	-0.782867	-0.092340	-0.218591
C56	C	-0.782875	-0.092337	-0.297838
C57	C	-0.825613	-0.169124	-0.337439
N58	N	-0.825633	-0.169114	0.179377
H59	H	-0.599669	-0.386731	0.000174
H60	H	-0.748101	-0.029799	-0.813293
Br61	Br	-0.696732	0.435361	-0.084719
Br62	Br	-0.926333	-0.350131	-0.351550
H63	H	-0.903114	-0.308470	-0.186282
H64	H	-0.627783	0.033035	0.000152
H65	H	-0.748076	-0.029820	-0.186342
H66	H	-0.921037	0.243448	0.076749
H67	H	-0.748104	-0.029803	-0.669521
H68	H	-0.917960	0.462026	-0.074973
Br69	Br	-0.821564	0.194389	-0.160850
Br70	Br	-0.724888	0.011878	-0.351634
Br71	Br	-0.480080	0.099898	0.000185
Br72	Br	-0.819327	0.196508	0.161042
H73	H	-0.834554	0.440417	-0.125475
H74	H	-0.467536	-0.383189	0.000189
Br75	Br	-0.207667	0.107199	0.000241
H76	H	-0.720503	0.195717	0.051726
H77	H	-0.155578	-0.374834	0.000248
Br78	Br	-0.696689	0.432076	0.086400
Br79	Br	-0.957162	0.494159	0.072274
Br80	Br	0.000534	-0.433562	0.000272
Br81	Br	-0.035989	0.111803	0.000269
Br82	Br	-0.700550	0.168264	-0.085852
H83	H	-0.921787	0.245244	-0.074323
H84	H	-0.903144	-0.308443	-0.669462
Br85	Br	-0.821899	0.465042	0.162254
H86	H	-0.903158	-0.308427	-0.813225
