data_functionalizedCrystal
_audit_creation_method	'MofGen! by Chris Wilmer'
_symmetry_space_group_name_H-M	'P1'
_symmetry_Int_Tables_number	1
_symmetry_cell_setting	triclinic
loop_
_symmetry_equiv_pos_as_xyz
  x,y,z
_cell_length_a	16.109301
_cell_length_b	14.519709
_cell_length_c	14.586319
_cell_angle_alpha	89.995260
_cell_angle_beta	89.999213
_cell_angle_gamma	83.570813
loop_
_atom_site_label
_atom_site_type_symbol
_atom_site_fract_x
_atom_site_fract_y
_atom_site_fract_z
O1	O	1.103336	0.118540	-0.076184
O2	O	0.861300	0.133292	-0.076199
O3	O	0.988735	-0.008336	-0.076183
O4	O	0.975901	0.260168	-0.076200
O5	O	0.988726	-0.008338	0.076298
O6	O	0.861291	0.133290	0.076282
O7	O	1.103327	0.118538	0.076296
Cu8	Cu	0.982308	0.125914	0.090212
Cu9	Cu	0.982319	0.125916	-0.090114
O10	O	0.975892	0.260166	0.076280
C11	C	0.830319	0.132693	0.000039
C12	C	0.738021	0.130902	0.000034
C13	C	0.515887	0.210775	0.000040
C14	C	0.429163	0.209085	0.000046
C15	C	0.448747	0.041048	0.000053
C16	C	0.535468	0.042739	0.000053
C17	C	0.569036	0.127606	0.000042
C18	C	0.395591	0.124224	0.000047
C19	C	0.301562	0.122390	0.000054
C20	C	0.663071	0.129440	0.000037
C21	C	0.988132	-0.042696	0.000057
C22	C	0.986340	-0.145073	0.000058
C23	C	0.979741	-0.519955	0.000034
C24	C	0.981574	-0.415651	0.000041
C25	C	0.983041	-0.332517	0.000047
C26	C	0.984873	-0.228207	0.000052
C27	C	1.134307	0.119136	0.000056
C28	C	1.226606	0.120928	0.000055
C29	C	0.976494	0.294526	0.000038
C30	C	0.978287	0.396903	0.000031
N31	N	0.982307	0.125911	0.217044
N32	N	0.982326	0.125911	-0.216946
C33	C	1.038754	0.063219	0.452057
C34	C	1.038756	0.063217	0.548038
C35	C	0.925873	0.188606	0.548034
C36	C	0.925868	0.188603	0.452054
C37	C	0.982313	0.125911	0.404068
C38	C	0.982321	0.125912	0.596029
C39	C	0.982323	0.125910	0.700096
C40	C	0.982310	0.125911	0.299995
H41	H	0.421405	-0.028048	0.000067
C42	C	0.602043	0.310173	-0.078355
C43	C	0.552783	0.304060	0.000032
H44	H	0.624814	0.367768	-0.078359
H45	H	0.646108	0.260891	-0.078347
H46	H	0.568610	0.306020	-0.131521
H47	H	0.586218	0.308207	0.053199
H48	H	0.508712	0.353356	0.000033
C49	C	1.150326	-0.060729	0.461706
C50	C	1.100789	-0.005699	0.399310
H51	H	1.188620	-0.103283	0.429142
H52	H	1.180290	-0.022332	0.499131
H53	H	1.115662	-0.093906	0.499151
H54	H	1.135453	0.027483	0.361870
H55	H	1.070823	-0.044102	0.361869
C56	C	1.056624	-0.062292	0.655977
C57	C	1.100800	-0.005695	0.600787
H58	H	1.094929	-0.104842	0.688535
H59	H	1.023021	-0.024958	0.698290
H60	H	1.021971	-0.095474	0.618528
H61	H	1.135448	0.027492	0.638236
H62	H	1.134417	-0.043035	0.558468
C63	C	0.908006	0.314106	0.344097
C64	C	0.863825	0.257522	0.399296
H65	H	0.869703	0.356646	0.311524
H66	H	0.942654	0.347291	0.381534
H67	H	0.941614	0.276755	0.301787
H68	H	0.830222	0.294873	0.441611
H69	H	0.829163	0.224335	0.361857
H70	H	0.385892	0.276810	0.000045
H71	H	0.578745	-0.024991	0.000058
C72	C	0.875766	0.244294	0.695162
C73	C	0.863839	0.257524	0.600783
H74	H	0.837472	0.286849	0.727724
H75	H	0.866643	0.182751	0.710897
H76	H	0.931270	0.254327	0.710873
H77	H	0.808336	0.247485	0.585071
H78	H	0.872956	0.319082	0.585042
