data_functionalizedCrystal
_audit_creation_method	'MofGen! by Chris Wilmer'
_symmetry_space_group_name_H-M	'P1'
_symmetry_Int_Tables_number	1
_symmetry_cell_setting	triclinic
loop_
_symmetry_equiv_pos_as_xyz
  x,y,z
_cell_length_a	10.723024
_cell_length_b	16.109301
_cell_length_c	14.586319
_cell_angle_alpha	90.005214
_cell_angle_beta	90.003205
_cell_angle_gamma	83.964675
loop_
_atom_site_label
_atom_site_type_symbol
_atom_site_fract_x
_atom_site_fract_y
_atom_site_fract_z
O1	O	-1.655641	-0.116608	-0.076238
O2	O	-1.292341	-0.127770	-0.076241
O3	O	-1.483971	-0.001217	-0.076230
O4	O	-1.464011	-0.243161	-0.076249
O5	O	-1.483958	-0.001215	0.076251
O6	O	-1.292328	-0.127768	0.076240
O7	O	-1.655628	-0.116606	0.076243
Cu8	Cu	-1.473977	-0.122187	0.090164
Cu9	Cu	-1.473992	-0.122189	-0.090162
O10	O	-1.463998	-0.243159	0.076232
C11	C	-1.245845	-0.126956	-0.000001
C12	C	-1.107323	-0.124526	-0.000002
C13	C	-1.483156	0.029764	0.000011
C14	C	-1.480732	0.122074	0.000012
C15	C	-1.702123	-0.117419	0.000001
C16	C	-1.840645	-0.119850	-0.000004
C17	C	-1.031402	-0.195339	-0.000008
C18	C	-0.888232	-0.192829	-0.000009
C19	C	-1.464813	-0.274140	-0.000011
C20	C	-1.467237	-0.366449	-0.000018
N21	N	-1.473975	-0.122185	0.216996
C22	C	-1.588805	0.343710	-0.000001
C23	C	-1.586518	0.430444	-0.000009
C24	C	-1.359155	0.411907	-0.000007
C25	C	-1.361444	0.325175	-0.000006
C26	C	-1.476272	0.291079	0.000001
C27	C	-1.471696	0.464545	-0.000007
C28	C	-1.469215	0.558586	-0.000015
C29	C	-1.478754	0.197032	0.000008
N30	N	-1.474004	-0.122185	-0.216994
C31	C	-1.558857	-0.066166	0.452007
C32	C	-1.558860	-0.066164	0.547989
C33	C	-1.389113	-0.178206	0.547988
C34	C	-1.389104	-0.178203	0.452009
C35	C	-1.473983	-0.122184	0.404021
C36	C	-1.473995	-0.122185	0.595981
C37	C	-1.473999	-0.122183	0.700049
C38	C	-1.473979	-0.122185	0.299947
H39	H	-1.072396	-0.257822	-0.000008
N40	N	-1.712650	0.306932	0.000006
H41	H	-1.783590	0.353438	0.000001
H42	H	-1.718554	0.271344	-0.056520
H43	H	-1.627970	-0.020548	0.587057
N44	N	-1.297581	-0.238635	0.599742
H45	H	-1.209025	-0.228522	0.583050
H46	H	-1.310572	-0.230113	0.667811
N47	N	-1.235312	0.448686	0.000003
H48	H	-1.164369	0.402181	0.000004
H49	H	-1.229407	0.484266	-0.056522
N50	N	-1.707888	0.487215	-0.000007
H51	H	-1.757994	0.476165	-0.056529
H52	H	-1.757878	0.476152	0.056558
H53	H	-1.319984	-0.223820	0.412935
H54	H	-0.822996	-0.253450	-0.000018
N55	N	-0.927031	-0.039538	0.000003
H56	H	-0.981699	-0.037157	-0.056521
H57	H	-0.981606	-0.037205	0.056566
N58	N	-1.053026	-0.041759	0.000003
H59	H	-1.082135	-0.009060	-0.056518
H60	H	-1.082140	-0.009126	0.056568
N61	N	-1.240064	0.268401	-0.000010
H62	H	-1.166973	0.303160	-0.000009
H63	H	-1.236059	0.232014	0.056515
N64	N	-1.650397	-0.005748	0.400247
H65	H	-1.704163	0.029740	0.445214
H66	H	-1.602641	0.031299	0.360433
