data_functionalizedCrystal
_audit_creation_method	'MofGen! by Chris Wilmer'
_symmetry_space_group_name_H-M	'P1'
_symmetry_Int_Tables_number	1
_symmetry_cell_setting	triclinic
loop_
_symmetry_equiv_pos_as_xyz
  x,y,z
_cell_length_a	21.395362
_cell_length_b	16.959454
_cell_length_c	21.395356
_cell_angle_alpha	89.979902
_cell_angle_beta	89.964230
_cell_angle_gamma	90.035955
loop_
_atom_site_label
_atom_site_type_symbol
_atom_site_fract_x
_atom_site_fract_y
_atom_site_fract_z
Zn1	Zn	0.957855	-0.314383	-0.354610
Zn2	Zn	1.457855	0.185617	0.145390
Zn3	Zn	0.957792	-0.446560	-0.249842
Zn4	Zn	1.457792	0.053440	0.250158
Zn5	Zn	0.853085	-0.314436	-0.249811
Zn6	Zn	1.353085	0.185564	0.250189
Zn7	Zn	0.853059	-0.446560	-0.354547
Zn8	Zn	1.353059	0.053440	0.145453
O9	O	0.905448	-0.380485	-0.302202
O10	O	1.405448	0.119515	0.197798
O11	O	1.045525	-0.331894	-0.340751
O12	O	1.545525	0.168106	0.159249
O13	O	0.943887	-0.429056	-0.162160
O14	O	1.443887	0.070944	0.337840
O15	O	0.867021	-0.203818	-0.263726
O16	O	1.367021	0.296182	0.236274
O17	O	1.045478	-0.429004	-0.263779
O18	O	1.545478	0.070996	0.236221
O19	O	0.943995	-0.203779	-0.340721
O20	O	1.443995	0.296221	0.159279
O21	O	0.866959	-0.331985	-0.162137
O22	O	1.366959	0.168015	0.337863
O23	O	0.765404	-0.331985	-0.263665
O24	O	1.265404	0.168015	0.236335
O25	O	0.866976	-0.429004	-0.442233
O26	O	1.366976	0.070996	0.057767
O27	O	0.765384	-0.429055	-0.340614
O28	O	1.265384	0.070945	0.159386
O29	O	0.943969	-0.331894	-0.442279
O30	O	1.443969	0.168106	0.057721
O31	O	0.943862	-0.557171	-0.263718
O32	O	1.443862	-0.057171	0.236282
O33	O	0.866914	-0.557171	-0.340645
O34	O	1.366914	-0.057171	0.159355
C35	C	0.742660	-0.380526	-0.302130
C36	C	1.242660	0.119474	0.197870
C37	C	0.673019	-0.380563	-0.302114
C38	C	1.173019	0.119437	0.197886
C39	C	0.640312	-0.431175	-0.342121
C40	C	1.140312	0.068825	0.157879
C41	C	0.574877	-0.431156	-0.342149
C42	C	1.074877	0.068844	0.157851
C43	C	0.542151	-0.380533	-0.302158
C44	C	1.042151	0.119467	0.197842
C45	C	0.574865	-0.329911	-0.262148
C46	C	1.074865	0.170089	0.237852
C47	C	0.640299	-0.329926	-0.262126
C48	C	1.140299	0.170074	0.237874
C49	C	0.438433	-0.374174	-0.245752
C50	C	0.938433	0.125826	0.254248
C51	C	0.373000	-0.374164	-0.245774
C52	C	0.873000	0.125836	0.254226
C53	C	0.340330	-0.380481	-0.302227
C54	C	0.840330	0.119519	0.197773
C55	C	0.373101	-0.386824	-0.358661
C56	C	0.873101	0.113176	0.141339
C57	C	0.438535	-0.386840	-0.358639
C58	C	0.938535	0.113160	0.141361
C59	C	0.471198	-0.380510	-0.302178
C60	C	0.971198	0.119490	0.197822
C61	C	0.236671	-0.431075	-0.342268
C62	C	0.736671	0.068925	0.157732
C63	C	0.171234	-0.431050	-0.342297
C64	C	0.671234	0.068950	0.157703
C65	C	0.171224	-0.329809	-0.262291
C66	C	0.671224	0.170191	0.237709
C67	C	0.236659	-0.329830	-0.262267
C68	C	0.736659	0.170170	0.237733
C69	C	0.269379	-0.380467	-0.302255
C70	C	0.769379	0.119533	0.197745
C71	C	0.905395	-0.585851	-0.302192
C72	C	1.405395	-0.085851	0.197808
C73	C	0.905430	-0.673707	-0.302208
C74	C	1.405430	-0.173707	0.197792
C75	C	0.865440	-1.045213	-0.342254
C76	C	1.365440	-0.545213	0.157746
C77	C	0.945631	-1.045153	-0.262215
C78	C	1.445631	-0.545153	0.237785
C79	C	0.945609	-0.962607	-0.262209
C80	C	1.445609	-0.462607	0.237791
C81	C	0.905501	-0.921360	-0.302226
C82	C	1.405501	-0.421360	0.197774
C83	C	0.865415	-0.962659	-0.342248
C84	C	1.365415	-0.462659	0.157752
C85	C	0.985689	-0.921302	-0.222184
C86	C	1.485689	-0.421302	0.277816
C87	C	0.985668	-0.838751	-0.222176
C88	C	1.485668	-0.338751	0.277824
C89	C	0.945563	-0.797503	-0.262196
C90	C	1.445563	-0.297503	0.237804
C91	C	0.905477	-0.838807	-0.302220
C92	C	1.405477	-0.338807	0.197780
C93	C	0.865369	-0.797560	-0.342236
C94	C	1.365369	-0.297560	0.157764
C95	C	0.825285	-0.838863	-0.382264
C96	C	1.325285	-0.338863	0.117736
C97	C	0.825310	-0.921411	-0.382268
C98	C	1.325310	-0.421411	0.117732
C99	C	0.945538	-0.714954	-0.262192
C100	C	1.445538	-0.214954	0.237808
C101	C	0.865344	-0.715006	-0.342230
C102	C	1.365344	-0.215006	0.157770
C103	C	1.068871	-0.380443	-0.302276
C104	C	1.568871	0.119557	0.197724
C105	C	1.138512	-0.380425	-0.302307
C106	C	1.638512	0.119575	0.197693
C107	C	0.905477	-0.380443	-0.465626
C108	C	1.405477	0.119557	0.034374
C109	C	0.905489	-0.380425	-0.535267
C110	C	1.405489	0.119575	-0.035267
C111	C	0.905518	-0.174316	-0.302227
C112	C	1.405518	0.325684	0.197773
C113	C	0.905547	-0.086460	-0.302237
C114	C	1.405547	0.413540	0.197763
C115	C	0.945615	-0.430804	-1.037076
C116	C	1.445615	0.069196	-0.537076
C117	C	0.945604	-0.430829	-0.971641
C118	C	1.445604	0.069171	-0.471641
C119	C	0.905548	-0.380300	-0.938906
C120	C	1.405548	0.119700	-0.438906
C121	C	0.865490	-0.329756	-0.971611
C122	C	1.365490	0.170244	-0.471611
C123	C	0.865498	-0.329738	-1.037046
C124	C	1.365498	0.170262	-0.537046
C125	C	0.900612	-0.309116	-0.835243
C126	C	1.400612	0.190884	-0.335243
C127	C	0.900609	-0.309132	-0.769810
C128	C	1.400609	0.190868	-0.269810
C129	C	0.905520	-0.380356	-0.737085
C130	C	1.405520	0.119644	-0.237085
C131	C	0.910448	-0.451565	-0.769800
C132	C	1.410448	0.048435	-0.269800
C133	C	0.910456	-0.451547	-0.835234
C134	C	1.410456	0.048453	-0.335234
C135	C	0.905535	-0.380314	-0.867953
C136	C	1.405535	0.119686	-0.367953
C137	C	0.945561	-0.430928	-0.633434
C138	C	1.445561	0.069072	-0.133434
C139	C	0.945546	-0.430954	-0.567997
C140	C	1.445546	0.069046	-0.067997
C141	C	0.865434	-0.329874	-0.567970
C142	C	1.365434	0.170126	-0.067970
C143	C	0.865447	-0.329854	-0.633405
C144	C	1.365447	0.170146	-0.133405
C145	C	0.905514	-0.380380	-0.666133
C146	C	1.405514	0.119620	-0.166133
C147	C	0.905455	-0.380469	-0.139415
C148	C	1.405455	0.119531	0.360585
C149	C	0.905564	-0.380264	-0.069774
C150	C	1.405564	0.119736	0.430226
H151	H	0.666929	-0.288710	-0.229547
H152	H	1.166929	0.211290	0.270453
Br153	Br	0.328772	-0.395396	-0.435283
Br154	Br	0.828772	0.104604	0.064717
Br155	Br	0.894293	-0.212408	-0.879650
Br156	Br	1.394293	0.287592	-0.379650
Br157	Br	0.281050	-0.261139	-0.207968
Br158	Br	0.781050	0.238861	0.292032
Br159	Br	0.999985	-0.499383	-1.081490
Br160	Br	1.499985	0.000617	-0.581490
Br161	Br	0.530453	-0.261202	-0.207879
Br162	Br	1.030453	0.238798	0.292121
Br163	Br	0.999901	-0.499557	-0.523620
Br164	Br	1.499901	0.000443	-0.023620
Br165	Br	0.999924	-0.658904	-0.207865
Br166	Br	1.499924	-0.158904	0.292135
Br167	Br	0.999961	-0.499427	-0.927255
Br168	Br	1.499961	0.000573	-0.427255
Br169	Br	0.810915	-0.659035	-0.396546
Br170	Br	1.310915	-0.159035	0.103454
Br171	Br	0.126817	-0.261098	-0.208022
Br172	Br	0.626817	0.238902	0.291978
Br173	Br	0.770850	-0.782875	-0.436565
Br174	Br	1.270850	-0.282875	0.063435
Br175	Br	0.893929	-0.212492	-0.725417
Br176	Br	1.393929	0.287508	-0.225417
Br177	Br	0.328532	-0.365557	-0.169186
Br178	Br	0.828532	0.134443	0.330814
Br179	Br	0.482764	-0.365601	-0.169130
Br180	Br	0.982764	0.134399	0.330870
H181	H	0.978184	-0.472071	-0.660083
H182	H	1.478184	0.027929	-0.160083
H183	H	0.792675	-0.955047	-0.414855
H184	H	1.292675	-0.455047	0.085145
H185	H	0.832819	-0.288733	-0.541318
H186	H	1.332819	0.211267	-0.041318
H187	H	0.832806	-1.078845	-0.374845
H188	H	1.332806	-0.578845	0.125155
Br189	Br	1.000059	-1.101131	-0.207909
Br190	Br	1.500059	-0.601131	0.292091
Br191	Br	0.684714	-0.499894	-0.396391
Br192	Br	1.184714	0.000106	0.103609
H193	H	0.914467	-0.509528	-0.861869
H194	H	1.414467	-0.009528	-0.361869
H195	H	0.914449	-0.509562	-0.743157
H196	H	1.414449	-0.009562	-0.243157
Br197	Br	1.040121	-0.977282	-0.167882
Br198	Br	1.540121	-0.477282	0.332118
H199	H	1.018307	-0.805127	-0.189584
H200	H	1.518307	-0.305127	0.310416
Br201	Br	0.811077	-0.261274	-0.677784
Br202	Br	1.311077	0.238726	-0.177784
Br203	Br	0.811128	-0.261179	-0.927187
Br204	Br	1.311128	0.238821	-0.427187
Br205	Br	0.811133	-0.261149	-1.081425
Br206	Br	1.311133	0.238851	-0.581425
H207	H	0.263312	-0.472302	-0.374832
H208	H	0.763312	0.027698	0.125168
H209	H	0.465214	-0.392002	-0.404590
H210	H	0.965214	0.107998	0.095410
Br211	Br	0.530479	-0.499846	-0.396450
Br212	Br	1.030479	0.000154	0.103550
H213	H	0.144605	-0.472262	-0.374880
H214	H	0.644605	0.027738	0.125120
