data_functionalizedCrystal
_audit_creation_method	'MofGen! by Chris Wilmer'
_symmetry_space_group_name_H-M	'P1'
_symmetry_Int_Tables_number	1
_symmetry_cell_setting	triclinic
loop_
_symmetry_equiv_pos_as_xyz
  x,y,z
_cell_length_a	15.995292
_cell_length_b	14.472311
_cell_length_c	10.654541
_cell_angle_alpha	90.003817
_cell_angle_beta	96.023728
_cell_angle_gamma	90.007223
loop_
_atom_site_label
_atom_site_type_symbol
_atom_site_fract_x
_atom_site_fract_y
_atom_site_fract_z
O1	O	1.111956	0.076866	-0.161510
O2	O	0.868290	0.076862	-0.181575
O3	O	0.995727	0.076858	0.011272
O4	O	0.984520	0.076869	-0.354357
O5	O	0.995709	-0.076824	0.011247
O6	O	0.868273	-0.076820	-0.181600
O7	O	1.111939	-0.076816	-0.161535
Cu8	Cu	0.990104	-0.090851	-0.171570
Cu9	Cu	0.990125	0.090896	-0.171540
O10	O	0.984503	-0.076813	-0.354382
C11	C	0.837082	0.000020	-0.180771
C12	C	0.744114	0.000019	-0.178323
N13	N	0.990096	-0.218682	-0.171590
C14	C	0.406324	0.000029	-0.169322
C15	C	0.430444	0.000376	-0.308514
C16	C	0.527134	0.000026	-0.311159
C17	C	0.573906	0.000025	-0.173788
C18	C	0.544390	-0.087734	-0.104213
C19	C	0.447590	-0.087804	-0.102538
C20	C	0.447737	0.086961	-0.099666
C21	C	0.544260	0.088117	-0.104824
C22	C	0.668616	0.000019	-0.176305
C23	C	0.311613	0.000028	-0.166801
C24	C	0.990111	-0.407182	-0.171563
C25	C	0.921911	-0.446410	-0.274714
C26	C	0.921673	-0.553498	-0.274433
C27	C	0.990125	-0.592773	-0.171538
C28	C	0.970638	-0.553887	-0.040350
C29	C	0.970140	-0.446766	-0.040970
C30	C	1.078002	-0.446638	-0.198415
C31	C	1.077439	-0.553767	-0.201378
C32	C	0.990135	-0.697661	-0.171515
C33	C	0.990099	-0.302294	-0.171576
C34	C	1.143148	0.000027	-0.162339
C35	C	1.236115	0.000035	-0.164787
C36	C	0.994896	0.000018	0.058046
C37	C	0.992435	0.000019	0.197457
N38	N	0.990139	0.218727	-0.171510
C39	C	0.985334	0.000030	-0.401157
C40	C	0.987794	0.000034	-0.540567
C41	C	1.144819	0.000010	0.227466
C42	C	1.219852	0.000003	0.307964
C43	C	1.217535	0.000006	0.438951
C44	C	1.140177	0.000018	0.489442
C45	C	1.065144	0.000025	0.408944
C46	C	1.067470	0.000019	0.277955
C47	C	0.912761	0.000041	0.378935
C48	C	0.915077	0.000031	0.247947
C49	C	0.835403	0.000053	0.429425
C50	C	0.760369	0.000053	0.348927
C51	C	0.762689	0.000049	0.217933
C52	C	0.840044	0.000038	0.167450
H53	H	0.546484	0.062938	-0.365641
C54	C	1.304943	-0.000018	0.252415
N55	N	1.369032	-0.000035	0.210578
H56	H	0.701588	0.000059	0.152397
C57	C	0.571847	-0.175966	-0.169521
N58	N	0.592524	-0.242419	-0.218721
H59	H	0.563131	0.153041	-0.155482
H60	H	1.018980	-0.579323	0.038284
H61	H	0.433150	0.087553	0.002788
C62	C	0.393048	0.085398	-0.380987
N63	N	0.364875	0.149440	-0.435575
C64	C	1.137633	0.000025	0.633532
N65	N	1.135715	0.000027	0.742062
H66	H	0.545849	-0.062987	-0.365998
C67	C	0.842604	0.000035	0.023362
N68	N	0.844535	0.000036	-0.085165
C69	C	0.391655	-0.084168	-0.380607
N70	N	0.362439	-0.147850	-0.434904
C71	C	0.411725	-0.176418	-0.167685
N72	N	0.384715	-0.243160	-0.216766
C73	C	1.149268	-0.589875	-0.106495
N74	N	1.203369	-0.617070	-0.035019
C75	C	1.103152	-0.410149	-0.324935
N76	N	1.122085	-0.382665	-0.420237
C77	C	1.300074	-0.000002	0.527502
N78	N	1.362243	-0.000010	0.594197
H79	H	1.017903	-0.420813	0.038120
H80	H	1.128760	-0.421262	-0.123201
H81	H	0.933340	-0.579791	-0.371933
C82	C	0.675284	0.000062	0.404476
N83	N	0.611197	0.000063	0.446321
H84	H	0.575672	-0.090999	-0.003127
H85	H	0.576649	0.093416	-0.004557
C86	C	0.937413	-0.411619	-0.406886
N87	N	0.949091	-0.385409	-0.506441
H88	H	0.856466	-0.579144	-0.257217
C89	C	0.409924	0.176824	-0.158569
N90	N	0.381444	0.244505	-0.202952
H91	H	1.092208	-0.579168	-0.297897
H92	H	0.432447	-0.091792	-0.000482
C93	C	0.834303	-0.410087	-0.251786
N94	N	0.768317	-0.382731	-0.234508
H95	H	0.906029	-0.421799	-0.017381
C96	C	0.885018	-0.590147	-0.007712
N97	N	0.820525	-0.617455	0.016864
H98	H	0.833522	0.000061	0.536083
C99	C	1.147375	-0.000001	0.083378
N100	N	1.149303	-0.000009	-0.025150
