data_functionalizedCrystal
_audit_creation_method	'MofGen! by Chris Wilmer'
_symmetry_space_group_name_H-M	'P1'
_symmetry_Int_Tables_number	1
_symmetry_cell_setting	triclinic
loop_
_symmetry_equiv_pos_as_xyz
  x,y,z
_cell_length_a	19.121112
_cell_length_b	19.121449
_cell_length_c	10.686551
_cell_angle_alpha	97.024737
_cell_angle_beta	97.012010
_cell_angle_gamma	85.039809
loop_
_atom_site_label
_atom_site_type_symbol
_atom_site_fract_x
_atom_site_fract_y
_atom_site_fract_z
Zn1	Zn	1.119474	-0.294223	0.776625
Zn2	Zn	1.619474	0.205777	1.276625
Zn3	Zn	1.115339	-0.420956	0.555584
Zn4	Zn	1.615339	0.079044	1.055584
Zn5	Zn	0.992747	-0.298285	0.555623
Zn6	Zn	1.492747	0.201715	1.055623
Zn7	Zn	1.006076	-0.407536	0.759196
Zn8	Zn	1.506076	0.092464	1.259196
O9	O	1.058409	-0.355250	0.661757
O10	O	1.558409	0.144750	1.161757
O11	O	1.217688	-0.314950	0.754581
O12	O	1.717688	0.185050	1.254581
O13	O	1.091768	-0.412000	0.377887
O14	O	1.591768	0.088000	0.877887
O15	O	1.005710	-0.198986	0.592250
O16	O	1.505710	0.301014	1.092250
O17	O	1.214650	-0.408061	0.592184
O18	O	1.714650	0.091939	1.092184
O19	O	1.098816	-0.196002	0.754619
O20	O	1.598816	0.303998	1.254619
O21	O	1.001701	-0.321874	0.377916
O22	O	1.501701	0.178126	0.877916
O23	O	0.895753	-0.308862	0.575350
O24	O	1.395753	0.191138	1.075350
O25	O	1.028427	-0.385188	0.939211
O26	O	1.528427	0.114812	1.439211
O27	O	0.905545	-0.389128	0.724914
O28	O	1.405545	0.110872	1.224914
O29	O	1.111740	-0.301937	0.952015
O30	O	1.611740	0.198063	1.452015
O31	O	1.104692	-0.517936	0.575284
O32	O	1.604692	-0.017936	1.075284
O33	O	1.024417	-0.508076	0.724877
O34	O	1.524417	-0.008076	1.224877
C35	C	0.875041	-0.347980	0.648246
C36	C	1.375041	0.152020	1.148246
C37	C	0.796597	-0.344885	0.642494
C38	C	1.296597	0.155115	1.142494
C39	C	0.352678	-0.325250	0.606069
C40	C	0.852678	0.174750	1.106069
C41	C	0.426385	-0.328161	0.611480
C42	C	0.926385	0.171839	1.111480
C43	C	0.468350	-0.371487	0.691918
C44	C	0.968350	0.128513	1.191918
C45	C	0.436605	-0.411898	0.766960
C46	C	0.936605	0.088102	1.266960
C47	C	0.362900	-0.408982	0.761555
C48	C	0.862900	0.091018	1.261555
C49	C	0.691148	-0.382381	0.712132
C50	C	1.191148	0.117619	1.212132
C51	C	0.764858	-0.385295	0.717528
C52	C	1.264858	0.114705	1.217528
C53	C	0.754632	-0.301557	0.562049
C54	C	1.254632	0.198443	1.062049
C55	C	0.680926	-0.298648	0.556646
C56	C	1.180926	0.201352	1.056646
C57	C	0.649188	-0.339057	0.631692
C58	C	1.149188	0.160943	1.131692
C59	C	0.543690	-0.374465	0.697447
C60	C	1.043690	0.125535	1.197447
C61	C	0.573849	-0.336074	0.626169
C62	C	1.073849	0.163926	1.126169
C63	C	1.065573	-0.538613	0.648214
C64	C	1.565573	-0.038613	1.148214
C65	C	1.068704	-0.617057	0.642467
C66	C	1.568704	-0.117057	1.142467
C67	C	1.028346	-0.648804	0.717583
C68	C	1.528346	-0.148804	1.217583
C69	C	1.031291	-0.722512	0.712178
C70	C	1.531291	-0.222512	1.212178
C71	C	1.074598	-0.764470	0.631664
C72	C	1.574598	-0.264470	1.131664
C73	C	1.114957	-0.732718	0.556540
C74	C	1.614957	-0.232718	1.056540
C75	C	1.112008	-0.659013	0.561938
C76	C	1.612008	-0.159013	1.061938
C77	C	1.085591	-0.987269	0.611464
C78	C	1.585591	-0.487269	1.111464
C79	C	1.088539	-1.060980	0.606074
C80	C	1.588539	-0.560980	1.106074
C81	C	1.004872	-1.050768	0.761711
C82	C	1.504872	-0.550768	1.261711
C83	C	1.001930	-0.977061	0.767108
C84	C	1.501930	-0.477061	1.267108
C85	C	1.042286	-0.945316	0.691979
C86	C	1.542286	-0.445316	1.191979
C87	C	1.077610	-0.839811	0.626140
C88	C	1.577610	-0.339811	1.126140
C89	C	1.039269	-0.869977	0.697497
C90	C	1.539269	-0.369977	1.197497
C91	C	1.242493	-0.362549	0.675322
C92	C	1.742493	0.137451	1.175322
C93	C	1.320938	-0.365660	0.681103
C94	C	1.820938	0.134340	1.181103
C95	C	1.072031	-0.341613	0.992978
C96	C	1.572031	0.158387	1.492978
C97	C	1.077836	-0.335801	1.134124
C98	C	1.577836	0.164199	1.634124
C99	C	1.051237	-0.171171	0.675383
C100	C	1.551237	0.328829	1.175383
C101	C	1.048181	-0.092727	0.681189
C102	C	1.548181	0.407273	1.181189
C103	C	1.044878	-0.368785	0.331832
C104	C	1.544878	0.131215	0.831832
C105	C	1.039202	-0.374403	0.190711
C106	C	1.539202	0.125597	0.690711
H107	H	0.780481	-0.268658	0.500952
H108	H	1.280481	0.231342	1.000952
Br109	Br	0.980494	-0.813032	0.806758
Br110	Br	1.480494	-0.313032	1.306758
H111	H	1.150214	-0.766887	0.490977
H112	H	1.650214	-0.266887	0.990977
H113	H	1.115359	-0.298308	1.193665
H114	H	1.615359	0.201692	1.693665
H115	H	0.665316	-0.415287	0.773235
H116	H	1.165316	0.084713	1.273235
H117	H	0.470779	-0.447171	0.832460
H118	H	0.970779	0.052829	1.332460
Br119	Br	0.319824	-0.463821	0.863400
Br120	Br	0.819824	0.036179	1.363400
Br121	Br	0.295732	-0.266454	0.496886
Br122	Br	0.795732	0.233546	0.996886
Br123	Br	1.166774	-0.615927	0.459979
Br124	Br	1.666774	-0.115927	0.959979
Br125	Br	0.469458	-0.273308	0.509658
Br126	Br	0.969458	0.226692	1.009658
H127	H	0.646762	-0.263373	0.491135
H128	H	1.146762	0.236627	0.991135
Br129	Br	1.147318	-1.117924	0.496800
Br130	Br	1.647318	-0.617924	0.996800
H131	H	0.799025	-0.420576	0.783037
H132	H	1.299025	0.079424	1.283037
Br133	Br	0.600648	-0.433276	0.806588
Br134	Br	1.100648	0.066724	1.306588
H135	H	0.539678	-0.300796	0.560682
H136	H	1.039678	0.199204	1.060682
Br137	Br	0.950105	-1.093854	0.863664
Br138	Br	1.450105	-0.593854	1.363664
H139	H	1.118452	-0.961428	0.550293
H140	H	1.618452	-0.461428	1.050293
H141	H	1.112871	-0.873982	0.560586
H142	H	1.612871	-0.373982	1.060586
Br143	Br	0.969576	-0.591867	0.826868
Br144	Br	1.469576	-0.091867	1.326868
Br145	Br	0.976672	-0.436904	1.091488
Br146	Br	1.476672	0.063096	1.591488
Br147	Br	0.943160	-0.920122	0.876391
Br148	Br	1.443160	-0.420122	1.376391
H149	H	0.998421	-0.748356	0.773333
H150	H	1.498421	-0.248356	1.273333
