data_functionalizedCrystal
_audit_creation_method	'MofGen! by Chris Wilmer'
_symmetry_space_group_name_H-M	'P1'
_symmetry_Int_Tables_number	1
_symmetry_cell_setting	triclinic
loop_
_symmetry_equiv_pos_as_xyz
  x,y,z
_cell_length_a	14.044220
_cell_length_b	14.044220
_cell_length_c	12.503572
_cell_angle_alpha	93.843168
_cell_angle_beta	86.164750
_cell_angle_gamma	93.188878
loop_
_atom_site_label
_atom_site_type_symbol
_atom_site_fract_x
_atom_site_fract_y
_atom_site_fract_z
O1	O	1.282200	0.225116	-0.089210
O2	O	1.005530	0.216809	-0.089237
O3	O	1.139712	0.082627	-0.089213
O4	O	1.148019	0.359298	-0.089234
O5	O	1.129622	0.092737	0.089427
O6	O	0.995440	0.226918	0.089403
O7	O	1.272110	0.235226	0.089430
Cu8	Cu	1.132854	0.231995	0.105728
Cu9	Cu	1.144786	0.220040	-0.105535
O10	O	1.137929	0.369407	0.089406
C11	C	0.964864	0.218228	0.000080
C12	C	0.858721	0.207383	0.000070
C13	C	0.664382	0.187558	0.000092
C14	C	0.613253	0.264472	0.000091
C15	C	0.505116	0.253441	0.000104
C16	C	0.772529	0.198587	0.000080
C17	C	1.131031	0.052060	0.000107
C18	C	1.120187	-0.054082	0.000107
C19	C	1.100361	-0.248421	0.000090
C20	C	1.177275	-0.299551	0.000094
C21	C	1.166244	-0.407687	0.000084
C22	C	1.111391	-0.140274	0.000099
C23	C	1.312777	0.233807	0.000111
C24	C	1.418920	0.244651	0.000114
C25	C	1.146609	0.399974	0.000084
C26	C	1.157454	0.506117	0.000077
N27	N	1.124469	0.240404	0.254319
N28	N	1.153179	0.211624	-0.254126
C29	C	1.112134	0.252782	0.473432
C30	C	1.165511	0.199249	0.526768
C31	C	1.158648	0.206136	0.648690
C32	C	1.118996	0.245896	0.351499
H33	H	0.626945	0.113431	0.000104
C34	C	1.277426	-0.248973	0.000119
N35	N	1.352856	-0.210873	0.000143
C36	C	1.234222	0.130355	0.464757
N37	N	1.285979	0.078473	0.418045
C38	C	1.043437	0.321680	0.535443
N39	N	0.991696	0.373575	0.582162
C40	C	1.000216	-0.298997	0.000094
N41	N	0.924787	-0.337102	0.000106
C42	C	0.663831	0.364622	0.000065
N43	N	0.701931	0.440052	0.000038
