data_functionalizedCrystal
_audit_creation_method	'MofGen! by Chris Wilmer'
_symmetry_space_group_name_H-M	'P1'
_symmetry_Int_Tables_number	1
_symmetry_cell_setting	triclinic
loop_
_symmetry_equiv_pos_as_xyz
  x,y,z
_cell_length_a	23.532407
_cell_length_b	23.532407
_cell_length_c	12.376897
_cell_angle_alpha	77.272789
_cell_angle_beta	77.276354
_cell_angle_gamma	82.848712
loop_
_atom_site_label
_atom_site_type_symbol
_atom_site_fract_x
_atom_site_fract_y
_atom_site_fract_z
O1	O	0.745582	0.059447	0.093938
O2	O	0.579717	0.069449	0.093957
O3	O	0.667653	-0.018481	0.093926
O4	O	0.657646	0.147377	0.093969
O5	O	0.687013	0.000904	-0.094069
O6	O	0.599076	0.088834	-0.094038
O7	O	0.764942	0.078833	-0.094058
Zn8	Zn	0.685083	0.086911	-0.123896
Zn9	Zn	0.659576	0.061370	0.123796
O10	O	0.677005	0.166763	-0.094027
C11	C	0.568180	0.078886	-0.000038
C12	C	0.504963	0.078120	-0.000032
C13	C	0.238800	0.022929	-0.000077
C14	C	0.298200	0.023640	-0.000076
O15	O	0.334950	-0.020140	-0.000127
N16	N	0.320824	0.075914	-0.000055
C17	C	0.284045	0.127482	-0.000046
O18	O	0.308743	0.172010	-0.000029
C19	C	0.224647	0.126771	-0.000055
C20	C	0.202026	0.074492	-0.000064
C21	C	0.216178	-0.029345	-0.000088
C22	C	0.156781	-0.030057	-0.000086
C23	C	0.120007	0.021506	-0.000073
C24	C	0.142629	0.073781	-0.000063
C25	C	0.187871	0.178338	-0.000054
C26	C	0.128469	0.177622	-0.000063
C27	C	0.105848	0.125344	-0.000073
C28	C	0.046459	0.124632	-0.000048
N29	N	0.023835	0.072358	-0.000070
C30	C	0.060609	0.020795	-0.000082
C31	C	0.408786	0.128971	-0.000030
C32	C	0.468183	0.129682	-0.000013
C33	C	0.482333	0.025841	-0.000046
C34	C	0.422935	0.025130	-0.000054
C35	C	0.386162	0.076697	-0.000051
C36	C	-0.064128	0.019305	-0.000078
C37	C	-0.123531	0.018598	-0.000071
C38	C	-0.137676	0.122439	-0.000045
C39	C	-0.078279	0.123146	-0.000045
C40	C	-0.041506	0.071575	-0.000065
O41	O	0.009675	0.168390	-0.000003
O42	O	0.035904	-0.023725	-0.000114
C43	C	0.677079	-0.030005	-0.000074
C44	C	0.676314	-0.093221	-0.000083
C45	C	0.723541	-0.492330	-0.000027
C46	C	0.722829	-0.551731	-0.000018
O47	O	0.766611	-0.588479	0.000019
N48	N	0.670552	-0.574357	-0.000013
C49	C	0.618983	-0.537581	-0.000004
O50	O	0.574452	-0.562281	0.000002
C51	C	0.619695	-0.478182	-0.000005
C52	C	0.671976	-0.455557	-0.000022
C53	C	0.775818	-0.469705	-0.000042
C54	C	0.776531	-0.410307	-0.000053
C55	C	0.724966	-0.373535	-0.000048
C56	C	0.672689	-0.396160	-0.000033
C57	C	0.568126	-0.441407	0.000011
C58	C	0.568842	-0.382004	0.000011
C59	C	0.621124	-0.359380	-0.000005
C60	C	0.621836	-0.299990	-0.000039
N61	N	0.674113	-0.277364	-0.000044
C62	C	0.725678	-0.314136	-0.000049
C63	C	0.617491	-0.662324	-0.000001
C64	C	0.616779	-0.721721	-0.000009
C65	C	0.720625	-0.735867	-0.000020
C66	C	0.721337	-0.676468	-0.000021
C67	C	0.669768	-0.639697	-0.000007
C68	C	0.727170	-0.189397	-0.000072
C69	C	0.727878	-0.129993	-0.000088
C70	C	0.624032	-0.115853	-0.000070
C71	C	0.623324	-0.175251	-0.000061
C72	C	0.674897	-0.212022	-0.000058
O73	O	0.578077	-0.263208	-0.000071
O74	O	0.770200	-0.289429	-0.000040
C75	C	0.776478	0.069395	-0.000060
C76	C	0.839695	0.070161	-0.000059
C77	C	0.667580	0.178286	-0.000024
C78	C	0.668344	0.241501	-0.000008
N79	N	0.702494	0.104342	-0.292940
C80	C	0.601729	0.003468	-0.648011
C81	C	0.589534	-0.008733	-0.529681
C82	C	0.617773	0.019535	-0.470490
C83	C	0.658210	0.060006	-0.529640
C84	C	0.670410	0.072205	-0.647981
C85	C	0.686453	0.088271	-0.470460
C86	C	0.726890	0.128742	-0.529610
C87	C	0.739088	0.140939	-0.647940
C88	C	0.710849	0.112671	-0.707131
C89	C	0.674253	0.076072	-0.352119
C90	C	0.742934	0.144809	-0.352090
C91	C	0.755129	0.157010	-0.470419
N92	N	0.642169	0.043935	0.292839
H93	H	-0.034194	-0.022690	-0.000094
H94	H	0.788054	0.189962	-0.518596
H95	H	0.762612	-0.765819	-0.000020
H96	H	0.526847	-0.352068	0.000025
H97	H	0.607840	0.009599	-0.374141
H98	H	0.556611	-0.041685	-0.481530
C99	C	0.212745	0.235844	-0.000045
H100	H	0.253387	0.228891	-0.000035
H101	H	0.206852	0.263817	-0.065600
H102	H	0.193344	0.250299	0.065525
H103	H	-0.167628	0.164420	-0.000029
H104	H	0.578745	-0.019547	-0.696215
C105	C	0.724269	0.126086	-0.837295
H106	H	0.701661	0.103451	-0.864070
H107	H	0.714801	0.166438	-0.864071
H108	H	0.764629	0.116630	-0.864047
C109	C	0.559271	-0.746600	0.000000
H110	H	0.528665	-0.716189	0.000010
H111	H	0.563580	-0.762726	-0.065551
H112	H	0.550081	-0.776230	0.065573
H113	H	0.138369	-0.072627	-0.000099
C114	C	0.256620	-0.086071	-0.000091
H115	H	0.234630	-0.117301	-0.000090
H116	H	0.286844	-0.081202	-0.065642
H117	H	0.273325	-0.094714	0.065483
C118	C	0.785389	-0.105110	-0.000100
H119	H	0.815995	-0.135523	-0.000089
H120	H	0.794580	-0.075479	-0.065660
H121	H	0.781074	-0.088988	0.065464
H122	H	0.772020	0.173888	-0.696097
C123	C	0.088021	0.234347	-0.000048
H124	H	0.110004	0.265579	-0.000031
H125	H	0.071305	0.242991	-0.065603
H126	H	0.057804	0.229467	0.065522
H127	H	0.769166	-0.219330	-0.000066
C128	C	0.560763	-0.621878	-0.000007
H129	H	0.529532	-0.643864	-0.000014
H130	H	0.552125	-0.605165	0.065548
H131	H	0.565635	-0.591658	-0.065577
C132	C	-0.053395	0.180649	-0.000019
H133	H	-0.083806	0.211256	-0.000014
H134	H	-0.037267	0.176325	0.065535
H135	H	-0.023768	0.189849	-0.065589
H136	H	0.525552	-0.459817	0.000032
C137	C	0.398057	-0.032375	-0.000076
H138	H	0.428471	-0.062978	-0.000088
H139	H	0.368424	-0.041574	0.065475
H140	H	0.381940	-0.028051	-0.065650
C141	C	0.773997	0.175906	-0.286992
H142	H	0.760936	0.162850	-0.208046
H143	H	0.815021	0.167126	-0.306371
H144	H	0.765188	0.216929	-0.306382
C145	C	0.834038	-0.385430	-0.000050
H146	H	0.864640	-0.415846	-0.000038
H147	H	0.843235	-0.355797	-0.065605
H148	H	0.829721	-0.369313	0.065520
H149	H	0.512286	-0.016144	-0.000056
H150	H	-0.141946	-0.023976	-0.000076
H151	H	0.763909	-0.658052	-0.000033
C152	C	0.832543	-0.510149	-0.000045
H153	H	0.824640	-0.548769	-0.000034
H154	H	0.860743	-0.496560	-0.065605
H155	H	0.847238	-0.510072	0.065519
C156	C	0.493059	0.187187	0.000009
H157	H	0.462646	0.217792	0.000009
H158	H	0.509184	0.182867	0.065566
H159	H	0.522688	0.196387	-0.065559
C160	C	0.565816	-0.200139	-0.000040
H161	H	0.535208	-0.169730	-0.000031
H162	H	0.570124	-0.216270	-0.065585
H163	H	0.556632	-0.229766	0.065540
H164	H	0.378848	0.170966	-0.000019
H165	H	0.582050	-0.085902	-0.000071
H166	H	0.641328	0.043121	-0.303971
