data_functionalizedCrystal
_audit_creation_method	'MofGen! by Chris Wilmer'
_symmetry_space_group_name_H-M	'P1'
_symmetry_Int_Tables_number	1
_symmetry_cell_setting	triclinic
loop_
_symmetry_equiv_pos_as_xyz
  x,y,z
_cell_length_a	16.109302
_cell_length_b	16.992695
_cell_length_c	14.586319
_cell_angle_alpha	89.995905
_cell_angle_beta	89.994552
_cell_angle_gamma	87.065002
loop_
_atom_site_label
_atom_site_type_symbol
_atom_site_fract_x
_atom_site_fract_y
_atom_site_fract_z
O1	O	1.109856	0.100786	-0.076283
O2	O	1.609856	0.600786	0.423717
O3	O	0.868631	0.113328	-0.076276
O4	O	1.368631	0.613328	0.423724
O5	O	0.988276	-0.007085	-0.076272
O6	O	1.488276	0.492915	0.423728
O7	O	0.990210	0.221200	-0.076287
O8	O	1.490210	0.721200	0.423713
O9	O	0.988267	-0.007087	0.076209
O10	O	1.488267	0.492913	0.576209
O11	O	0.868622	0.113326	0.076205
O12	O	1.368622	0.613326	0.576205
O13	O	1.109847	0.100785	0.076198
O14	O	1.609847	0.600785	0.576198
Cu15	Cu	0.989234	0.107055	0.090124
Cu16	Cu	1.489234	0.607055	0.590124
Cu17	Cu	0.989244	0.107058	-0.090202
Cu18	Cu	1.489244	0.607058	0.409798
O19	O	0.990201	0.221198	0.076194
O20	O	1.490201	0.721198	0.576194
C21	C	0.837618	0.112819	-0.000034
C22	C	1.337618	0.612819	0.499966
C23	C	0.745221	0.111296	-0.000031
C24	C	1.245221	0.611296	0.499969
C25	C	0.532640	0.107772	0.083077
C26	C	1.032640	0.607772	0.583077
C27	C	0.445824	0.106332	0.083074
C28	C	0.945824	0.606332	0.583074
C29	C	0.445844	0.106338	-0.083169
C30	C	0.945844	0.606338	0.416831
C31	C	0.532659	0.107773	-0.083165
C32	C	1.032659	0.607773	0.416835
C33	C	0.576054	0.108493	-0.000039
C34	C	1.076054	0.608493	0.499961
C35	C	0.402423	0.105619	-0.000046
C36	C	0.902423	0.605619	0.499954
C37	C	0.308293	0.104058	-0.000050
C38	C	0.808293	0.604058	0.499950
C39	C	0.670190	0.110053	-0.000035
C40	C	1.170190	0.610053	0.499965
C41	C	0.985784	-0.036298	-0.000032
C42	C	1.485784	0.463702	0.499968
C43	C	0.978360	-0.123340	-0.000032
C44	C	1.478360	0.376660	0.499968
C45	C	1.049986	-0.173599	-0.000033
C46	C	1.549986	0.326401	0.499967
C47	C	1.043006	-0.255384	-0.000041
C48	C	1.543006	0.244616	0.499959
C49	C	0.964400	-0.286908	-0.000042
C50	C	1.464400	0.213092	0.499958
C51	C	0.892768	-0.236643	-0.000044
C52	C	1.392768	0.263357	0.499956
C53	C	0.899749	-0.154860	-0.000042
C54	C	1.399749	0.345140	0.499958
C55	C	0.935467	-0.530499	-0.000054
C56	C	1.435467	-0.030499	0.499946
C57	C	0.928491	-0.612288	-0.000053
C58	C	1.428491	-0.112288	0.499947
C59	C	1.078730	-0.631023	-0.000052
C60	C	1.578730	-0.131023	0.499948
C61	C	1.085704	-0.549237	-0.000045
C62	C	1.585704	-0.049237	0.499955
C63	C	1.014073	-0.498980	-0.000051
C64	C	1.514073	0.001020	0.499949
N65	N	0.957263	-0.370505	-0.000048
N66	N	1.457263	0.129495	0.499952
N67	N	1.021210	-0.415384	-0.000052
N68	N	1.521210	0.084616	0.499948
C69	C	1.140860	0.101294	-0.000045
C70	C	1.640860	0.601294	0.499955
C71	C	1.233257	0.102817	-0.000054
C72	C	1.733257	0.602817	0.499946
C73	C	0.992694	0.250411	-0.000048
C74	C	1.492694	0.750411	0.499952
C75	C	1.000117	0.337453	-0.000054
C76	C	1.500117	0.837453	0.499946
N77	N	0.989232	0.107053	0.216956
N78	N	1.489232	0.607053	0.716956
N79	N	0.989252	0.107053	-0.217034
N80	N	1.489252	0.607053	0.282966
C81	C	1.042231	0.053752	0.451964
C82	C	1.542231	0.553752	0.951964
C83	C	1.042233	0.053750	0.547945
C84	C	1.542233	0.553750	1.047945
C85	C	0.936247	0.160357	0.547951
C86	C	1.436247	0.660357	1.047951
C87	C	0.936241	0.160355	0.451972
C88	C	1.436241	0.660355	0.951972
C89	C	0.989238	0.107053	0.403981
C90	C	1.489238	0.607053	0.903981
C91	C	0.989246	0.107054	0.595942
C92	C	1.489246	0.607054	1.095942
C93	C	0.989248	0.107052	0.700009
C94	C	1.489248	0.607052	1.200009
C95	C	0.989235	0.107054	0.299907
C96	C	1.489235	0.607054	0.799907
H97	H	0.568008	0.108358	-0.150852
H98	H	1.068008	0.608358	0.349148
H99	H	1.085384	0.010347	0.587011
H100	H	1.585384	0.510347	1.087011
H101	H	0.828765	-0.262317	-0.000050
H102	H	1.328765	0.237683	0.499950
H103	H	1.085383	0.010350	0.412892
H104	H	1.585383	0.510350	0.912892
H105	H	0.410501	0.105752	-0.150847
H106	H	0.910501	0.605752	0.349153
H107	H	0.893099	0.203755	0.587035
H108	H	1.393099	0.703755	1.087035
O109	O	0.574822	0.108604	0.163798
O110	O	1.074822	0.608604	0.663798
C111	C	0.620147	0.177290	0.168771
C112	C	1.120147	0.677290	0.668771
H113	H	0.590561	0.224298	0.121603
H114	H	1.090561	0.724298	0.621603
H115	H	0.687055	0.163034	0.146444
H116	H	1.187055	0.663034	0.646444
C117	C	0.655578	0.150338	0.326010
C118	C	1.155578	0.650338	0.826010
C119	C	0.619236	0.208077	0.268084
C120	C	1.119236	0.708077	0.768084
H121	H	0.655020	0.169328	0.387271
H122	H	1.155020	0.669328	0.887271
H123	H	0.625045	0.104062	0.322659
H124	H	1.125045	0.604062	0.822659
H125	H	0.711332	0.138464	0.307393
H126	H	1.211332	0.638464	0.807393
H127	H	0.563481	0.219943	0.286693
H128	H	1.063481	0.719943	0.786693
H129	H	0.649760	0.254356	0.271440
H130	H	1.149760	0.754356	0.771440
H131	H	1.113997	-0.147938	-0.000026
H132	H	1.613997	0.352062	0.499974
H133	H	0.864477	-0.637952	-0.000039
H134	H	1.364477	-0.137952	0.499961
O135	O	1.112669	-0.304093	0.000005
O136	O	1.612669	0.195907	0.500005
C137	C	1.183545	-0.258731	-0.000009
C138	C	1.683545	0.241269	0.499991
H139	H	1.166493	-0.197689	0.028859
H140	H	1.666493	0.302311	0.528859
H141	H	1.207396	-0.252908	-0.073159
H142	H	1.707396	0.247092	0.426841
C143	C	1.272725	-0.374478	0.024338
C144	C	1.772725	0.125522	0.524338
C145	C	1.251783	-0.299507	0.059801
C146	C	1.751783	0.200493	0.559801
H147	H	1.314820	-0.399631	0.061228
H148	H	1.814820	0.100369	0.561228
H149	H	1.224975	-0.405040	0.024344
H150	H	1.724975	0.094960	0.524344
H151	H	1.292596	-0.369615	-0.036620
H152	H	1.792596	0.130385	0.463380
H153	H	1.231903	-0.304371	0.120753
H154	H	1.731903	0.195629	0.620753
H155	H	1.299532	-0.268947	0.059807
H156	H	1.799532	0.231053	0.559807
O157	O	0.884791	0.212062	0.405213
O158	O	1.384791	0.712062	0.905213
C159	C	0.896166	0.200641	0.310209
C160	C	1.396166	0.700641	0.810209
H161	H	0.923094	0.138309	0.297106
H162	H	1.423094	0.638309	0.797106
H163	H	0.940814	0.245029	0.282959
H164	H	1.440814	0.745029	0.782959
C165	C	0.778827	0.288962	0.277032
C166	C	1.278827	0.788962	0.777032
C167	C	0.811895	0.212402	0.260939
C168	C	1.311895	0.712402	0.760939
H169	H	0.726847	0.296220	0.246639
H170	H	1.226847	0.796220	0.746639
H171	H	0.771165	0.296660	0.341038
H172	H	1.271165	0.796660	0.841038
H173	H	0.816042	0.325944	0.254324
H174	H	1.316042	0.825944	0.754324
H175	H	0.774686	0.175423	0.283657
H176	H	1.274686	0.675423	0.783657
H177	H	0.819549	0.204699	0.196936
H178	H	1.319549	0.704699	0.696936
O179	O	1.162127	-0.518747	-0.000082
O180	O	1.662127	-0.018747	0.499918
C181	C	1.223852	-0.580645	-0.000057
C182	C	1.723852	-0.080645	0.499943
H183	H	1.196861	-0.636194	-0.028934
H184	H	1.696861	-0.136194	0.471066
H185	H	1.246194	-0.592233	0.073097
H186	H	1.746194	-0.092233	0.573097
C187	C	1.330706	-0.489345	-0.024377
C188	C	1.830706	0.010655	0.475623
C189	C	1.297558	-0.557569	-0.059851
C190	C	1.797558	-0.057569	0.440149
H191	H	1.376174	-0.475110	-0.061257
H192	H	1.876174	0.024890	0.438743
H193	H	1.289122	-0.447642	-0.024390
H194	H	1.789122	0.052358	0.475610
H195	H	1.349318	-0.499010	0.036584
H196	H	1.849318	0.000990	0.536584
H197	H	1.278937	-0.547900	-0.120807
H198	H	1.778937	-0.047900	0.379193
H199	H	1.339141	-0.599269	-0.059850
H200	H	1.839141	-0.099269	0.440150
H201	H	0.410479	0.105745	0.150755
H202	H	0.910479	0.605745	0.650755
H203	H	1.137048	-0.671951	-0.000049
H204	H	1.637048	-0.171951	0.499951
O205	O	0.865802	-0.481797	-0.000007
O206	O	1.365802	0.018203	0.499993
C207	C	0.794929	-0.527163	-0.000024
C208	C	1.294929	-0.027163	0.499976
H209	H	0.811979	-0.588209	0.028839
H210	H	1.311979	-0.088209	0.528839
H211	H	0.771089	-0.532974	-0.073175
H212	H	1.271089	-0.032974	0.426825
C213	C	0.705738	-0.411424	0.024333
C214	C	1.205738	0.088576	0.524333
C215	C	0.726679	-0.486401	0.059790
C216	C	1.226679	0.013599	0.559790
H217	H	0.663637	-0.386279	0.061225
H218	H	1.163637	0.113721	0.561225
H219	H	0.753487	-0.380860	0.024340
H220	H	1.253487	0.119140	0.524340
H221	H	0.685877	-0.416277	-0.036626
H222	H	1.185877	0.083723	0.463374
H223	H	0.746550	-0.481546	0.120742
H224	H	1.246550	0.018454	0.620742
H225	H	0.678932	-0.516963	0.059794
H226	H	1.178932	-0.016963	0.559794
H227	H	0.841423	-0.113939	-0.000041
H228	H	1.341423	0.386061	0.499959
