data_functionalizedCrystal
_audit_creation_method	'MofGen! by Chris Wilmer'
_symmetry_space_group_name_H-M	'P1'
_symmetry_Int_Tables_number	1
_symmetry_cell_setting	triclinic
loop_
_symmetry_equiv_pos_as_xyz
  x,y,z
_cell_length_a	25.639242
_cell_length_b	25.639242
_cell_length_c	25.639233
_cell_angle_alpha	90.023596
_cell_angle_beta	89.994437
_cell_angle_gamma	89.998001
loop_
_atom_site_label
_atom_site_type_symbol
_atom_site_fract_x
_atom_site_fract_y
_atom_site_fract_z
Zn1	Zn	-0.208284	-0.799340	-0.295810
Zn2	Zn	0.125050	-0.466007	0.037523
Zn3	Zn	0.458383	-0.132674	0.370857
Zn4	Zn	-0.295702	-0.799312	-0.208395
Zn5	Zn	0.037631	-0.465979	0.124939
Zn6	Zn	0.370964	-0.132646	0.458272
Zn7	Zn	-0.208275	-0.711917	-0.208372
Zn8	Zn	0.125058	-0.378583	0.124961
Zn9	Zn	0.458391	-0.045250	0.458295
Zn10	Zn	-0.295682	-0.711910	-0.295782
Zn11	Zn	0.037651	-0.378577	0.037551
Zn12	Zn	0.370984	-0.045243	0.370884
O13	O	-0.251986	-0.755620	-0.252090
O14	O	0.081347	-0.422287	0.081244
O15	O	0.414681	-0.088953	0.414577
O16	O	-0.219892	-0.872502	-0.284235
O17	O	0.113441	-0.539168	0.049098
O18	O	0.446775	-0.205835	0.382431
O19	O	-0.284110	-0.787710	-0.135226
O20	O	0.049223	-0.454377	0.198107
O21	O	0.382557	-0.121043	0.531440
O22	O	-0.135111	-0.723528	-0.219973
O23	O	0.198222	-0.390195	0.113360
O24	O	0.531555	-0.056861	0.446694
O25	O	-0.284118	-0.872481	-0.220012
O26	O	0.049215	-0.539148	0.113322
O27	O	0.382549	-0.205814	0.446655
O28	O	-0.135117	-0.787758	-0.284213
O29	O	0.198216	-0.454425	0.049120
O30	O	0.531549	-0.121091	0.382453
O31	O	-0.219878	-0.723501	-0.135210
O32	O	0.113456	-0.390167	0.198124
O33	O	0.446789	-0.056834	0.531457
O34	O	-0.219858	-0.638751	-0.219946
O35	O	0.113475	-0.305417	0.113387
O36	O	0.446809	0.027916	0.446721
O37	O	-0.284084	-0.723517	-0.368951
O38	O	0.049250	-0.390184	-0.035618
O39	O	0.382583	-0.056850	0.297715
O40	O	-0.284076	-0.638746	-0.284166
O41	O	0.049258	-0.305412	0.049167
O42	O	0.382591	0.027921	0.382501
O43	O	-0.219872	-0.787752	-0.368972
O44	O	0.113461	-0.454418	-0.035638
O45	O	0.446794	-0.121085	0.297695
O46	O	-0.368865	-0.787704	-0.219985
O47	O	-0.035532	-0.454370	0.113349
O48	O	0.297802	-0.121037	0.446682
O49	O	-0.368850	-0.723490	-0.284188
O50	O	-0.035517	-0.390156	0.049145
O51	O	0.297817	-0.056823	0.382479
C52	C	-0.251964	-0.619777	-0.252051
C53	C	0.081369	-0.286444	0.081282
C54	C	0.414703	0.046889	0.414616
C55	C	-0.251967	-0.561663	-0.252047
C56	C	0.081366	-0.228330	0.081287
C57	C	0.414699	0.105003	0.414620
C58	C	-0.387828	-0.755607	-0.252097
C59	C	-0.054495	-0.422274	0.081236
C60	C	0.278838	-0.088940	0.414570
C61	C	-0.445942	-0.755650	-0.252118
C62	C	-0.112609	-0.422316	0.081216
C63	C	0.220724	-0.088983	0.414549
C64	C	-0.285475	-0.201307	-0.285484
C65	C	0.047858	0.132027	0.047850
C66	C	0.381192	0.465360	0.381183
C67	C	-0.285478	-0.146702	-0.285490
C68	C	0.047856	0.186631	0.047843
C69	C	0.381189	0.519964	0.381176
O70	O	-0.313944	-0.118471	-0.313897
O71	O	0.019389	0.214862	0.019437
O72	O	0.352723	0.548196	0.352770
N73	N	-0.251995	-0.119381	-0.252108
N74	N	0.081339	0.213953	0.081225
N75	N	0.414672	0.547286	0.414559
C76	C	-0.218503	-0.146666	-0.218720
C77	C	0.114830	0.186667	0.114613
C78	C	0.448164	0.520000	0.447946
O79	O	-0.190023	-0.118413	-0.190327
O80	O	0.143310	0.214920	0.143007
O81	O	0.476644	0.548253	0.476340
C82	C	-0.218498	-0.201270	-0.218716
C83	C	0.114835	0.132064	0.114617
C84	C	0.448168	0.465397	0.447950
C85	C	-0.251987	-0.228588	-0.252097
C86	C	0.081346	0.104745	0.081236
C87	C	0.414680	0.438078	0.414569
C88	C	-0.318961	-0.228625	-0.318862
C89	C	0.014372	0.104708	0.014471
C90	C	0.347706	0.438041	0.347804
C91	C	-0.318959	-0.283226	-0.318855
C92	C	0.014375	0.050107	0.014479
C93	C	0.347708	0.383441	0.347812
C94	C	-0.285471	-0.310508	-0.285468
C95	C	0.047863	0.022826	0.047865
C96	C	0.381196	0.356159	0.381198
C97	C	-0.251985	-0.283189	-0.252090
C98	C	0.081348	0.050144	0.081244
C99	C	0.414682	0.383478	0.414577
C100	C	-0.185004	-0.228554	-0.185332
C101	C	0.148329	0.104779	0.148002
C102	C	0.481662	0.438112	0.481335
C103	C	-0.185002	-0.283161	-0.185331
C104	C	0.148331	0.050172	0.148002
C105	C	0.481665	0.383505	0.481336
C106	C	-0.218491	-0.310480	-0.218712
C107	C	0.114842	0.022853	0.114622
C108	C	0.448176	0.356187	0.447955
C109	C	-0.218495	-0.365071	-0.218696
C110	C	0.114839	-0.031738	0.114638
C111	C	0.448172	0.301595	0.447971
N112	N	-0.251978	-0.392393	-0.252078
N113	N	0.081356	-0.059059	0.081255
N114	N	0.414689	0.274274	0.414589
C115	C	-0.285466	-0.365111	-0.285464
C116	C	0.047868	-0.031778	0.047869
C117	C	0.381201	0.301556	0.381202
C118	C	-0.218515	-0.031996	-0.218732
C119	C	0.114818	0.301338	0.114602
C120	C	0.448151	0.634671	0.447935
C121	C	-0.218523	0.022607	-0.218732
C122	C	0.114811	0.355940	0.114601
C123	C	0.448144	0.689273	0.447934
C124	C	-0.285497	0.022567	-0.285503
C125	C	0.047837	0.355900	0.047830
C126	C	0.381170	0.689234	0.381163
C127	C	-0.285492	-0.032036	-0.285500
C128	C	0.047842	0.301297	0.047834
C129	C	0.381175	0.634630	0.381167
C130	C	-0.251998	-0.059317	-0.252114
C131	C	0.081335	0.274016	0.081219
C132	C	0.414668	0.607349	0.414553
C133	C	-0.285459	-0.479776	-0.285445
C134	C	0.047874	-0.146443	0.047888
C135	C	0.381208	0.186891	0.381221
C136	C	-0.285455	-0.534381	-0.285433
C137	C	0.047878	-0.201048	0.047900
C138	C	0.381211	0.132285	0.381234
C139	C	-0.218480	-0.534337	-0.218664
C140	C	0.114854	-0.201004	0.114669
C141	C	0.448187	0.132330	0.448003
C142	C	-0.218485	-0.479736	-0.218674
C143	C	0.114848	-0.146403	0.114659
C144	C	0.448182	0.186930	0.447992
C145	C	-0.251976	-0.452457	-0.252069
C146	C	0.081357	-0.119124	0.081264
C147	C	0.414690	0.214209	0.414598
O148	O	-0.190042	-0.393337	-0.190305
O149	O	0.143292	-0.060004	0.143028
O150	O	0.476625	0.273329	0.476361
O151	O	-0.313936	-0.393371	-0.313858
O152	O	0.019397	-0.060037	0.019476
O153	O	0.352731	0.273296	0.352809
C154	C	-0.115613	-0.755647	-0.252094
C155	C	0.217720	-0.422314	0.081239
C156	C	0.551054	-0.088980	0.414573
C157	C	-0.057499	-0.755658	-0.252096
C158	C	0.275834	-0.422325	0.081238
C159	C	0.609168	-0.088992	0.414571
C160	C	0.193686	-0.789092	-0.285561
C161	C	0.527019	-0.455759	0.047773
C162	C	0.860352	-0.122425	0.381106
C163	C	0.139081	-0.789092	-0.285559
C164	C	0.472415	-0.455759	0.047774
C165	C	0.805748	-0.122425	0.381108
O166	O	0.110837	-0.817518	-0.314014
O167	O	0.444170	-0.484184	0.019319
O168	O	0.777504	-0.150851	0.352653
N169	N	0.111775	-0.755653	-0.252109
N170	N	0.445108	-0.422320	0.081224
N171	N	0.778442	-0.088987	0.414557
C172	C	0.139076	-0.722209	-0.218663
C173	C	0.472409	-0.388875	0.114670
C174	C	0.805742	-0.055542	0.448004
O175	O	0.110836	-0.693766	-0.190212
O176	O	0.444169	-0.360433	0.143122
O177	O	0.777502	-0.027100	0.476455
C178	C	0.193679	-0.722207	-0.218668
C179	C	0.527012	-0.388873	0.114666
C180	C	0.860346	-0.055540	0.447999
C181	C	0.220983	-0.755651	-0.252116
C182	C	0.554316	-0.422318	0.081217
C183	C	0.887649	-0.088985	0.414551
C184	C	0.220989	-0.822534	-0.319006
C185	C	0.554322	-0.489200	0.014327
C186	C	0.887656	-0.155867	0.347660
C187	C	0.275590	-0.822534	-0.319007
C188	C	0.608923	-0.489201	0.014326
C189	C	0.942256	-0.155868	0.347659
C190	C	0.302887	-0.789094	-0.285562
C191	C	0.636220	-0.455760	0.047771
C192	C	0.969553	-0.122427	0.381104
C193	C	0.275583	-0.755652	-0.252117
C194	C	0.608917	-0.422319	0.081217
C195	C	0.942250	-0.088985	0.414550
C196	C	0.220979	-0.688760	-0.185224
C197	C	0.554312	-0.355427	0.148109
C198	C	0.887646	-0.022093	0.481442
C199	C	0.275586	-0.688761	-0.185232
C200	C	0.608919	-0.355427	0.148101
C201	C	0.942253	-0.022094	0.481434
C202	C	0.302890	-0.722205	-0.218680
C203	C	0.636223	-0.388872	0.114653
C204	C	0.969556	-0.055539	0.447986
C205	C	0.357481	-0.722212	-0.218673
C206	C	0.690814	-0.388879	0.114661
C207	C	1.024147	-0.055545	0.447994
N208	N	0.384787	-0.755651	-0.252122
N209	N	0.718120	-0.422318	0.081211
N210	N	1.051454	-0.088984	0.414544
C211	C	0.357490	-0.789092	-0.285567
C212	C	0.690823	-0.455758	0.047766
C213	C	1.024157	-0.122425	0.381099
C214	C	0.024405	-0.722215	-0.218656
C215	C	0.357739	-0.388882	0.114677
C216	C	0.691072	-0.055548	0.448010
C217	C	-0.030197	-0.722219	-0.218649
C218	C	0.303136	-0.388886	0.114685
C219	C	0.636470	-0.055553	0.448018
C220	C	-0.030188	-0.789102	-0.285545
C221	C	0.303145	-0.455769	0.047788
C222	C	0.636479	-0.122435	0.381121
C223	C	0.024415	-0.789100	-0.285550
C224	C	0.357749	-0.455767	0.047783
C225	C	0.691082	-0.122433	0.381117
C226	C	0.051712	-0.755654	-0.252106
C227	C	0.385045	-0.422320	0.081227
C228	C	0.718378	-0.088987	0.414561
C229	C	0.472155	-0.789091	-0.285566
C230	C	0.805488	-0.455758	0.047767
C231	C	1.138822	-0.122424	0.381100
C232	C	0.526760	-0.789090	-0.285563
C233	C	0.860094	-0.455757	0.047771
C234	C	1.193427	-0.122424	0.381104
C235	C	0.526746	-0.722206	-0.218668
C236	C	0.860080	-0.388873	0.114665
C237	C	1.193413	-0.055539	0.447999
C238	C	0.472146	-0.722208	-0.218669
C239	C	0.805479	-0.388875	0.114664
C240	C	1.138813	-0.055542	0.447997
C241	C	0.444852	-0.755653	-0.252123
C242	C	0.778185	-0.422319	0.081211
C243	C	1.111518	-0.088986	0.414544
O244	O	0.385760	-0.693799	-0.190234
O245	O	0.719093	-0.360466	0.143100
O246	O	1.052426	-0.027133	0.476433
O247	O	0.385737	-0.817525	-0.314019
O248	O	0.719070	-0.484191	0.019315
O249	O	1.052403	-0.150858	0.352648
C250	C	-0.251977	-0.755637	-0.388463
C251	C	0.081357	-0.422303	-0.055129
C252	C	0.414690	-0.088970	0.278204
C253	C	-0.251973	-0.755644	-0.446577
C254	C	0.081360	-0.422311	-0.113244
C255	C	0.414694	-0.088977	0.220090
C256	C	-0.252006	0.108007	-0.252123
C257	C	0.081327	0.441340	0.081211
C258	C	0.414661	0.774674	0.414544
C259	C	-0.252009	0.049893	-0.252121
C260	C	0.081324	0.383226	0.081212
C261	C	0.414658	0.716560	0.414546
C262	C	-0.218439	-0.789133	-0.806956
C263	C	0.114895	-0.455800	-0.473623
C264	C	0.448228	-0.122467	-0.140290
C265	C	-0.218424	-0.789140	-0.861561
C266	C	0.114909	-0.455806	-0.528227
C267	C	0.448242	-0.122473	-0.194894
O268	O	-0.189974	-0.817571	-0.889811
O269	O	0.143360	-0.484238	-0.556478
O270	O	0.476693	-0.150905	-0.223145
N271	N	-0.251850	-0.755701	-0.888860
N272	N	0.081483	-0.422368	-0.555526
N273	N	0.414816	-0.089035	-0.222193
C274	C	-0.285289	-0.722251	-0.861551
C275	C	0.048044	-0.388918	-0.528218
C276	C	0.381377	-0.055584	-0.194885
O277	O	-0.313719	-0.693809	-0.889785
O278	O	0.019614	-0.360476	-0.556452
O279	O	0.352948	-0.027143	-0.223118
C280	C	-0.285301	-0.722242	-0.806948
C281	C	0.048033	-0.388909	-0.473615
C282	C	0.381366	-0.055576	-0.140281
C283	C	-0.251876	-0.755686	-0.779652
C284	C	0.081457	-0.422353	-0.446319
C285	C	0.414791	-0.089020	-0.112985
C286	C	-0.185016	-0.822574	-0.779660
C287	C	0.148317	-0.489241	-0.446327
C288	C	0.481650	-0.155908	-0.112994
C289	C	-0.185032	-0.822568	-0.725060
C290	C	0.148302	-0.489235	-0.391726
C291	C	0.481635	-0.155902	-0.058393
C292	C	-0.218469	-0.789121	-0.697755
C293	C	0.114864	-0.455788	-0.364422
C294	C	0.448197	-0.122455	-0.031089
C295	C	-0.251891	-0.755680	-0.725051
C296	C	0.081442	-0.422347	-0.391718
C297	C	0.414775	-0.089014	-0.058385
C298	C	-0.318737	-0.688789	-0.779641
C299	C	0.014597	-0.355456	-0.446307
C300	C	0.347930	-0.022123	-0.112974
C301	C	-0.318745	-0.688783	-0.725034
C302	C	0.014588	-0.355450	-0.391700
C303	C	0.347922	-0.022117	-0.058367
C304	C	-0.285320	-0.722227	-0.697738
C305	C	0.048013	-0.388894	-0.364404
C306	C	0.381346	-0.055561	-0.031071
C307	C	-0.285344	-0.722228	-0.643146
C308	C	0.047989	-0.388894	-0.309813
C309	C	0.381322	-0.055561	0.023520
N310	N	-0.251918	-0.755666	-0.615847
N311	N	0.081415	-0.422333	-0.282514
N312	N	0.414749	-0.088999	0.050819
C313	C	-0.218481	-0.789113	-0.643152
C314	C	0.114853	-0.455779	-0.309819
C315	C	0.448186	-0.122446	0.023515
C316	C	-0.285262	-0.722271	-0.976222
C317	C	0.048071	-0.388938	-0.642889
C318	C	0.381405	-0.055604	-0.309555
C319	C	-0.285254	-0.722282	-1.030824
C320	C	0.048080	-0.388949	-0.697491
C321	C	0.381413	-0.055615	-0.364158
C322	C	-0.218388	-0.789170	-1.030830
C323	C	0.114946	-0.455837	-0.697497
C324	C	0.448279	-0.122504	-0.364163
C325	C	-0.218399	-0.789162	-0.976227
C326	C	0.114934	-0.455828	-0.642893
C327	C	0.448267	-0.122495	-0.309560
C328	C	-0.251836	-0.755709	-0.948923
C329	C	0.081497	-0.422376	-0.615590
C330	C	0.414831	-0.089043	-0.282256
C331	C	-0.218516	-0.789098	-0.528487
C332	C	0.114818	-0.455765	-0.195153
C333	C	0.448151	-0.122431	0.138180
C334	C	-0.218535	-0.789091	-0.473881
C335	C	0.114798	-0.455757	-0.140548
C336	C	0.448131	-0.122424	0.192785
C337	C	-0.285399	-0.722201	-0.473880
C338	C	0.047934	-0.388868	-0.140547
C339	C	0.381268	-0.055534	0.192786
C340	C	-0.285381	-0.722210	-0.528481
C341	C	0.047952	-0.388877	-0.195148
C342	C	0.381285	-0.055543	0.138186
C343	C	-0.251935	-0.755660	-0.555783
C344	C	0.081398	-0.422327	-0.222450
C345	C	0.414731	-0.088994	0.110884
O346	O	-0.313779	-0.693809	-0.614861
O347	O	0.019555	-0.360476	-0.281528
O348	O	0.352888	-0.027142	0.051806
O349	O	-0.190051	-0.817545	-0.614911
O350	O	0.143283	-0.484211	-0.281578
O351	O	0.476616	-0.150878	0.051755
C352	C	-0.251957	-0.755633	-0.116247
C353	C	0.081376	-0.422300	0.217086
C354	C	0.414709	-0.088966	0.550419
C355	C	-0.251814	-0.755727	-0.058134
C356	C	0.081519	-0.422394	0.275200
C357	C	0.414853	-0.089061	0.608533
H358	H	-0.312728	-0.556622	-0.312616
H359	H	0.020605	-0.223289	0.020717
H360	H	0.353939	0.110045	0.354050
N361	N	-0.319671	-0.451924	-0.319561
N362	N	0.013662	-0.118591	0.013772
N363	N	0.346996	0.214742	0.347105
N364	N	-0.349564	-0.476331	-0.349359
N365	N	-0.016231	-0.142998	-0.016025
N366	N	0.317103	0.190335	0.317308
H367	H	-0.373728	-0.456662	-0.373452
H368	H	-0.040395	-0.123329	-0.040118
H369	H	0.292938	0.210005	0.293215
H370	H	-0.157724	-0.305371	-0.158147
H371	H	0.175610	0.027963	0.175187
H372	H	0.508943	0.361296	0.508520
H373	H	-0.191181	-0.816394	-0.954006
H374	H	0.142152	-0.483061	-0.620672
H375	H	0.475486	-0.149727	-0.287339
H376	H	0.046643	-0.816333	-0.312787
H377	H	0.379976	-0.483000	0.020547
H378	H	0.713309	-0.149666	0.353880
H379	H	-0.312493	-0.695030	-0.953995
H380	H	0.020840	-0.361696	-0.620661
H381	H	0.354174	-0.028363	-0.287328
N382	N	0.193095	-0.654585	-0.151072
N383	N	0.526428	-0.321252	0.182262
N384	N	0.859761	0.012081	0.515595
N385	N	0.162631	-0.621270	-0.169465
N386	N	0.495964	-0.287937	0.163869
N387	N	0.829297	0.045397	0.497202
H388	H	0.142936	-0.597130	-0.145345
H389	H	0.476270	-0.263797	0.187988
H390	H	0.809603	0.069536	0.521322
N391	N	-0.319543	-0.688029	-0.445982
N392	N	0.013790	-0.354695	-0.112649
N393	N	0.347123	-0.021362	0.220684
N394	N	-0.316058	-0.639785	-0.452062
N395	N	0.017275	-0.306452	-0.118729
N396	N	0.350608	0.026882	0.214605
H397	H	-0.340170	-0.615647	-0.432357
H398	H	-0.006837	-0.282314	-0.099024
H399	H	0.326497	0.051020	0.234309
H400	H	-0.346228	-0.305464	-0.346038
H401	H	-0.012894	0.027869	-0.012704
H402	H	0.320439	0.361203	0.320629
N403	N	0.554658	-0.823256	-0.319723
N404	N	0.887991	-0.489923	0.013611
N405	N	1.221324	-0.156590	0.346944
N406	N	0.603410	-0.823261	-0.319716
N407	N	0.936743	-0.489928	0.013617
N408	N	1.270077	-0.156595	0.346950
H409	H	0.623112	-0.847393	-0.343838
H410	H	0.956445	-0.514060	-0.010504
H411	H	1.289779	-0.180726	0.322829
N412	N	0.444272	-0.823249	-0.319735
N413	N	0.777605	-0.489915	0.013599
N414	N	1.110938	-0.156582	0.346932
N415	N	0.413804	-0.804863	-0.353049
N416	N	0.747137	-0.471530	-0.019716
N417	N	1.080471	-0.138197	0.313617
H418	H	0.394110	-0.828989	-0.377179
H419	H	0.727444	-0.495656	-0.043845
H420	H	1.060777	-0.162322	0.289488
N421	N	0.303467	-0.856700	-0.353178
N422	N	0.636801	-0.523367	-0.019845
N423	N	0.970134	-0.190034	0.313489
N424	N	0.279079	-0.886552	-0.383035
N425	N	0.612413	-0.553218	-0.049702
N426	N	0.945746	-0.219885	0.283631
H427	H	0.298764	-0.910683	-0.407172
H428	H	0.632098	-0.577349	-0.073838
H429	H	0.965431	-0.244016	0.259495
H430	H	-0.312763	0.044790	-0.312690
H431	H	0.020570	0.378123	0.020643
H432	H	0.353904	0.711456	0.353977
H433	H	-0.157785	-0.849811	-0.801886
H434	H	0.175549	-0.516477	-0.468553
H435	H	0.508882	-0.183144	-0.135219
H436	H	-0.312603	-0.694982	-0.550707
H437	H	0.020730	-0.361649	-0.217373
H438	H	0.354063	-0.028315	0.115960
H439	H	-0.157813	-0.849801	-0.702840
H440	H	0.175520	-0.516468	-0.369507
H441	H	0.508854	-0.183134	-0.036173
H442	H	0.198770	-0.849765	-0.346244
H443	H	0.532103	-0.516432	-0.012911
H444	H	0.865436	-0.183098	0.320422
N445	N	-0.058085	-0.823261	-0.319704
N446	N	0.275248	-0.489927	0.013629
N447	N	0.608582	-0.156594	0.346962
N448	N	-0.106837	-0.823253	-0.319692
N449	N	0.226496	-0.489920	0.013641
N450	N	0.559829	-0.156587	0.346975
H451	H	-0.126542	-0.847377	-0.343814
H452	H	0.206791	-0.514044	-0.010481
H453	H	0.540125	-0.180711	0.322853
N454	N	-0.353172	-0.200771	-0.352974
N455	N	-0.019839	0.132562	-0.019641
N456	N	0.313495	0.465895	0.313692
N457	N	-0.383063	-0.225180	-0.382772
N458	N	-0.049730	0.108153	-0.049439
N459	N	0.283604	0.441487	0.283894
H460	H	-0.407229	-0.205512	-0.406865
H461	H	-0.073896	0.127821	-0.073531
H462	H	0.259437	0.461155	0.259802
N463	N	-0.184280	-0.451836	-0.184569
N464	N	0.149054	-0.118503	0.148765
N465	N	0.482387	0.214831	0.482098
N466	N	-0.154384	-0.476204	-0.154760
N467	N	0.178949	-0.142871	0.178573
N468	N	0.512283	0.190463	0.511906
H469	H	-0.130222	-0.456503	-0.130676
H470	H	0.203111	-0.123170	0.202658
H471	H	0.536444	0.210164	0.535991
H472	H	-0.191160	-0.816403	-1.053071
H473	H	0.142174	-0.483070	-0.719738
H474	H	0.475507	-0.149737	-0.386405
H475	H	-0.312477	-0.695054	-1.053044
H476	H	0.020856	-0.361721	-0.719711
H477	H	0.354190	-0.028387	-0.386377
H478	H	-0.312761	-0.054276	-0.312682
H479	H	0.020573	0.279058	0.020651
H480	H	0.353906	0.612391	0.353985
H481	H	-0.052423	-0.694991	-0.191406
H482	H	0.280910	-0.361658	0.141927
H483	H	0.614244	-0.028324	0.475261
H484	H	-0.345954	-0.661555	-0.801856
H485	H	-0.012621	-0.328222	-0.468522
H486	H	0.320712	0.005111	-0.135189
N487	N	0.052287	-0.688060	-0.184481
N488	N	0.385620	-0.354726	0.148852
N489	N	0.718954	-0.021393	0.482185
N490	N	0.082755	-0.706448	-0.151170
N491	N	0.416089	-0.373115	0.182164
N492	N	0.749422	-0.039781	0.515497
H493	H	0.102445	-0.682325	-0.127035
H494	H	0.435779	-0.348992	0.206299
H495	H	0.769112	-0.015659	0.539632
N496	N	-0.184280	-0.562219	-0.184563
N497	N	0.149053	-0.228885	0.148771
N498	N	0.482386	0.104448	0.482104
N499	N	-0.184286	-0.610971	-0.184566
N500	N	0.149047	-0.277638	0.148767
N501	N	0.482380	0.055696	0.482101
H502	H	-0.160131	-0.630665	-0.160484
H503	H	0.173202	-0.297331	0.172850
H504	H	0.506536	0.036002	0.506183
N505	N	-0.184319	0.050500	-0.184623
N506	N	0.149014	0.383834	0.148710
N507	N	0.482347	0.717167	0.482044
N508	N	-0.154426	0.026128	-0.154816
N509	N	0.178908	0.359462	0.178517
N510	N	0.512241	0.692795	0.511851
H511	H	-0.130267	0.045826	-0.130726
H512	H	0.203067	0.379160	0.202607
H513	H	0.536400	0.712493	0.535941
N514	N	-0.352894	-0.654605	-0.697144
N515	N	-0.019561	-0.321271	-0.363811
N516	N	0.313773	0.012062	-0.030478
N517	N	-0.349411	-0.606362	-0.703230
N518	N	-0.016078	-0.273028	-0.369896
N519	N	0.317255	0.060305	-0.036563
H520	H	-0.373529	-0.582223	-0.683533
H521	H	-0.040196	-0.248890	-0.350200
H522	H	0.293138	0.084444	-0.016867
H523	H	-0.191279	-0.816335	-0.550709
H524	H	0.142054	-0.483002	-0.217376
H525	H	0.475388	-0.149668	0.115957
N526	N	0.303459	-0.654589	-0.151069
N527	N	0.636793	-0.321255	0.182265
N528	N	0.970126	0.012078	0.515598
N529	N	0.279070	-0.624732	-0.121211
N530	N	0.612403	-0.291399	0.212122
N531	N	0.945737	0.041935	0.545456
H532	H	0.298754	-0.600598	-0.097082
H533	H	0.632087	-0.267265	0.236251
H534	H	0.965421	0.066069	0.569585
H535	H	0.449914	-0.694979	-0.191429
H536	H	0.783248	-0.361646	0.141904
H537	H	1.116581	-0.028313	0.475237
N538	N	-0.150790	-0.200650	-0.151246
N539	N	0.182544	0.132683	0.182088
N540	N	0.515877	0.466017	0.515421
N541	N	-0.150785	-0.151898	-0.151252
N542	N	0.182548	0.181436	0.182082
N543	N	0.515882	0.514769	0.515415
H544	H	-0.126617	-0.132190	-0.127179
H545	H	0.206716	0.201143	0.206154
H546	H	0.540050	0.534477	0.539488
N547	N	0.554646	-0.688050	-0.184513
N548	N	0.887979	-0.354717	0.148820
N549	N	1.221312	-0.021383	0.482153
N550	N	0.585117	-0.654741	-0.202908
N551	N	0.918451	-0.321408	0.130426
N552	N	1.251784	0.011925	0.463759
H553	H	0.604824	-0.630617	-0.178788
H554	H	0.938157	-0.297283	0.154545
H555	H	1.271491	0.036050	0.487878
N556	N	-0.184298	-0.059852	-0.184622
N557	N	0.149035	0.273481	0.148711
N558	N	0.482368	0.606814	0.482045
N559	N	-0.154407	-0.035447	-0.154822
N560	N	0.178926	0.297887	0.178512
N561	N	0.512260	0.631220	0.511845
H562	H	-0.130240	-0.055117	-0.130732
H563	H	0.203094	0.278216	0.202601
H564	H	0.536427	0.611549	0.535934
N565	N	-0.184391	-0.823261	-0.446008
N566	N	0.148943	-0.489927	-0.112675
N567	N	0.482276	-0.156594	0.220659
N568	N	-0.154539	-0.853120	-0.470398
N569	N	0.178795	-0.519787	-0.137064
N570	N	0.512128	-0.186454	0.196269
H571	H	-0.130424	-0.877252	-0.450714
H572	H	0.202909	-0.543919	-0.117381
H573	H	0.536243	-0.210586	0.215952
