data_functionalizedCrystal
_audit_creation_method	'MofGen! by Chris Wilmer'
_symmetry_space_group_name_H-M	'P1'
_symmetry_Int_Tables_number	1
_symmetry_cell_setting	triclinic
loop_
_symmetry_equiv_pos_as_xyz
  x,y,z
_cell_length_a	13.032831
_cell_length_b	16.959454
_cell_length_c	13.032268
_cell_angle_alpha	82.849649
_cell_angle_beta	89.113023
_cell_angle_gamma	82.825094
loop_
_atom_site_label
_atom_site_type_symbol
_atom_site_fract_x
_atom_site_fract_y
_atom_site_fract_z
Zn1	Zn	1.498450	-0.533808	0.780847
Zn2	Zn	1.998450	-0.033808	1.280847
Zn3	Zn	1.520186	-0.651576	0.608869
Zn4	Zn	2.020186	-0.151576	1.108869
Zn5	Zn	1.348310	-0.500789	0.587087
Zn6	Zn	1.848310	-0.000789	1.087087
Zn7	Zn	1.326434	-0.647302	0.758994
Zn8	Zn	1.826434	-0.147302	1.258994
O9	O	1.423345	-0.583369	0.683949
O10	O	1.923345	-0.083369	1.183949
O11	O	1.645253	-0.565038	0.776295
O12	O	2.145253	-0.065038	1.276295
O13	O	1.515638	-0.619543	0.462063
O14	O	2.015638	-0.119543	0.962063
O15	O	1.368285	-0.394566	0.612819
O16	O	1.868285	0.105434	1.112819
O17	O	1.661222	-0.651561	0.649944
O18	O	2.161222	-0.151561	1.149944
O19	O	1.478592	-0.418826	0.755173
O20	O	1.978592	0.081174	1.255173
O21	O	1.389361	-0.508760	0.446059
O22	O	1.889361	-0.008760	0.946059
O23	O	1.201488	-0.504616	0.591629
O24	O	1.701488	-0.004616	1.091629
O25	O	1.331000	-0.644277	0.905810
O26	O	1.831000	-0.144277	1.405810
O27	O	1.185416	-0.612259	0.717929
O28	O	1.685416	-0.112259	1.217929
O29	O	1.457380	-0.560894	0.921865
O30	O	1.957380	-0.060894	1.421865
O31	O	1.494425	-0.761611	0.628754
O32	O	1.994425	-0.261611	1.128754
O33	O	1.352077	-0.758471	0.739051
O34	O	1.852077	-0.258471	1.239051
C35	C	1.156135	-0.554392	0.650045
C36	C	1.656135	-0.054392	1.150045
C37	C	1.041819	-0.542016	0.635565
C38	C	1.541819	-0.042016	1.135565
C39	C	0.982940	-0.589828	0.691506
C40	C	1.482940	-0.089828	1.191506
C41	C	0.864788	-0.577038	0.676542
C42	C	1.364788	-0.077038	1.176542
C43	C	1.423261	-0.788724	0.683921
C44	C	1.923261	-0.288724	1.183921
C45	C	1.423315	-0.876589	0.683955
C46	C	1.923315	-0.376589	1.183955
C47	C	1.349320	-1.246472	0.741386
C48	C	1.849320	-0.746472	1.241386
C49	C	1.497643	-1.249702	0.626654
C50	C	1.997643	-0.749702	1.126654
C51	C	1.497608	-1.167152	0.626640
C52	C	1.997608	-0.667152	1.126640
C53	C	1.423427	-1.124257	0.683998
C54	C	1.923427	-0.624257	1.183998
C55	C	1.349281	-1.163913	0.741371
C56	C	1.849281	-0.663913	1.241371
C57	C	1.571746	-1.127488	0.569260
C58	C	2.071746	-0.627488	1.069260
C59	C	1.571713	-1.044932	0.569243
C60	C	2.071713	-0.544932	1.069243
C61	C	1.497536	-1.002037	0.626608
C62	C	1.997536	-0.502037	1.126608
C63	C	1.423388	-1.041698	0.683984
C64	C	1.923388	-0.541698	1.183984
C65	C	1.349208	-0.998804	0.741342
C66	C	1.849208	-0.498804	1.241342
C67	C	1.275063	-1.038465	0.798724
C68	C	1.775063	-0.538465	1.298724
C69	C	1.275104	-1.121018	0.798736
C70	C	1.775104	-0.621018	1.298736
C71	C	1.497495	-0.919484	0.626597
C72	C	1.997495	-0.419484	1.126597
C73	C	1.349169	-0.916245	0.741327
C74	C	1.849169	-0.416245	1.241327
C75	C	1.691598	-0.612460	0.717986
C76	C	2.191598	-0.112460	1.217986
C77	C	1.805911	-0.624856	0.732491
C78	C	2.305911	-0.124856	1.232491
C79	C	1.389325	-0.605792	0.952197
C80	C	1.889325	-0.105792	1.452197
C81	C	1.374828	-0.615348	1.066508
C82	C	1.874828	-0.115348	1.566508
C83	C	1.423454	-0.377216	0.684004
C84	C	1.923454	0.122784	1.184004
C85	C	1.423501	-0.289366	0.684027
C86	C	1.923501	0.210634	1.184027
C87	C	1.457291	-0.560982	0.416753
C88	C	1.957291	-0.060982	0.916753
C89	C	1.471987	-0.551225	0.302467
C90	C	1.971987	-0.051225	0.802467
C91	C	1.430895	-0.578351	1.125415
C92	C	1.930895	-0.078351	1.625415
C93	C	1.415913	-0.588227	1.243562
C94	C	1.915913	-0.088227	1.743562
H95	H	1.020003	-0.640227	0.750482
H96	H	1.520003	-0.140227	1.250482
O97	O	1.195133	-1.163790	0.860618
O98	O	1.695133	-0.663790	1.360618
H99	H	1.116671	-1.137755	0.832672
H100	H	1.616671	-0.637755	1.332672
O101	O	1.337623	-0.639865	1.292603
O102	O	1.837623	-0.139865	1.792603
H103	H	1.357808	-0.702103	1.274262
H104	H	1.857808	-0.202103	1.774262
O105	O	0.854984	-0.691621	0.810623
O106	O	1.354984	-0.191621	1.310623
H107	H	0.909757	-0.733190	0.770661
H108	H	1.409757	-0.233190	1.270661
H109	H	1.531079	-0.512233	1.265438
H110	H	2.031079	-0.012233	1.765438
O111	O	1.296546	-0.666988	1.115548
O112	O	1.796546	-0.166988	1.615548
H113	H	1.297066	-0.666643	1.200650
H114	H	1.797066	-0.166643	1.700650
H115	H	0.827729	-0.526630	0.617570
H116	H	1.327729	-0.026630	1.117570
O117	O	1.577642	-1.295966	0.564788
O118	O	2.077642	-0.795966	1.064788
H119	H	1.629188	-1.254519	0.524885
H120	H	2.129188	-0.754519	1.024885
O121	O	0.992729	-0.475264	0.557433
O122	O	1.492729	0.024736	1.057433
H123	H	0.937940	-0.433702	0.597389
H124	H	1.437940	0.066298	1.097389
O125	O	1.269148	-0.869978	0.803180
O126	O	1.769148	-0.369978	1.303180
H127	H	1.217595	-0.911426	0.843069
H128	H	1.717595	-0.411426	1.343069
O129	O	1.195048	-0.992201	0.860586
O130	O	1.695048	-0.492201	1.360586
H131	H	1.234376	-0.963915	0.918777
H132	H	1.734376	-0.463915	1.418777
O133	O	1.509171	-0.526707	1.076372
O134	O	2.009171	-0.026707	1.576372
H135	H	1.587291	-0.550720	1.107177
H136	H	2.087291	-0.050720	1.607177
O137	O	1.269340	-1.289237	0.803262
O138	O	1.769340	-0.789237	1.303262
H139	H	1.281818	-1.353848	0.793632
H140	H	1.781818	-0.853848	1.293632
H141	H	1.632086	-1.012646	0.522521
H142	H	2.132086	-0.512646	1.022521
H143	H	1.632133	-1.162417	0.522554
H144	H	2.132133	-0.662417	1.022554
H145	H	1.557858	-0.887195	0.579871
H146	H	2.057858	-0.387195	1.079871
