data_functionalizedCrystal
_audit_creation_method	'MofGen! by Chris Wilmer'
_symmetry_space_group_name_H-M	'P1'
_symmetry_Int_Tables_number	1
_symmetry_cell_setting	triclinic
loop_
_symmetry_equiv_pos_as_xyz
  x,y,z
_cell_length_a	18.215407
_cell_length_b	18.101395
_cell_length_c	18.215399
_cell_angle_alpha	90.026427
_cell_angle_beta	90.019833
_cell_angle_gamma	90.031552
loop_
_atom_site_label
_atom_site_type_symbol
_atom_site_fract_x
_atom_site_fract_y
_atom_site_fract_z
Zn1	Zn	1.125040	-0.294828	0.416124
Zn2	Zn	1.375040	-0.044828	0.666124
Zn3	Zn	1.625040	0.205172	0.916124
Zn4	Zn	1.875040	0.455172	1.166124
Zn5	Zn	1.124935	-0.418675	0.293061
Zn6	Zn	1.374935	-0.168675	0.543061
Zn7	Zn	1.624935	0.081325	0.793061
Zn8	Zn	1.874935	0.331325	1.043061
Zn9	Zn	1.001973	-0.294853	0.293071
Zn10	Zn	1.251973	-0.044853	0.543071
Zn11	Zn	1.501973	0.205147	0.793071
Zn12	Zn	1.751973	0.455147	1.043071
Zn13	Zn	1.001925	-0.418634	0.416086
Zn14	Zn	1.251925	-0.168634	0.666086
Zn15	Zn	1.501925	0.081366	0.916086
Zn16	Zn	1.751925	0.331366	1.166086
O17	O	1.063468	-0.356747	0.354585
O18	O	1.313468	-0.106747	0.604585
O19	O	1.563468	0.143253	0.854585
O20	O	1.813468	0.393253	1.104585
O21	O	1.228010	-0.311264	0.399811
O22	O	1.478010	-0.061264	0.649811
O23	O	1.728010	0.188736	0.899811
O24	O	1.978010	0.438736	1.149811
O25	O	1.108600	-0.402277	0.190078
O26	O	1.358600	-0.152277	0.440078
O27	O	1.608600	0.097723	0.690078
O28	O	1.858600	0.347723	0.940078
O29	O	1.018362	-0.191216	0.309415
O30	O	1.268362	0.058784	0.559415
O31	O	1.518362	0.308784	0.809415
O32	O	1.768362	0.558784	1.059415
O33	O	1.227933	-0.402253	0.309397
O34	O	1.477933	-0.152253	0.559397
O35	O	1.727933	0.097747	0.809397
O36	O	1.977933	0.347747	1.059397
O37	O	1.108779	-0.191199	0.399821
O38	O	1.358779	0.058801	0.649821
O39	O	1.608779	0.308801	0.899821
O40	O	1.858779	0.558801	1.149821
O41	O	1.018260	-0.311305	0.190085
O42	O	1.268260	-0.061305	0.440085
O43	O	1.518260	0.188695	0.690085
O44	O	1.768260	0.438695	0.940085
O45	O	0.898982	-0.311265	0.309378
O46	O	1.148982	-0.061265	0.559378
O47	O	1.398982	0.188735	0.809378
O48	O	1.648982	0.438735	1.059378
O49	O	1.018281	-0.402183	0.519075
O50	O	1.268281	-0.152183	0.769075
O51	O	1.518281	0.097817	1.019075
O52	O	1.768281	0.347817	1.269075
O53	O	0.898947	-0.402207	0.399756
O54	O	1.148947	-0.152207	0.649756
O55	O	1.398947	0.097793	0.899756
O56	O	1.648947	0.347793	1.149756
O57	O	1.108733	-0.311224	0.519103
O58	O	1.358733	-0.061224	0.769103
O59	O	1.608733	0.188776	1.019103
O60	O	1.858733	0.438776	1.269103
O61	O	1.108554	-0.522302	0.309360
O62	O	1.358554	-0.272302	0.559360
O63	O	1.608554	-0.022302	0.809360
O64	O	1.858554	0.227698	1.059360
O65	O	1.018179	-0.522272	0.399746
O66	O	1.268179	-0.272272	0.649746
O67	O	1.518179	-0.022272	0.899746
O68	O	1.768179	0.227728	1.149746
C69	C	0.872262	-0.356735	0.354564
C70	C	1.122262	-0.106735	0.604564
C71	C	1.372262	0.143265	0.854564
C72	C	1.622262	0.393265	1.104564
C73	C	0.790463	-0.356747	0.354572
C74	C	1.040463	-0.106747	0.604572
C75	C	1.290463	0.143253	0.854572
C76	C	1.540463	0.393253	1.104572
C77	C	0.602270	-0.404175	0.401573
C78	C	0.852270	-0.154175	0.651573
C79	C	1.102270	0.095825	0.901573
C80	C	1.352270	0.345825	1.151573
C81	C	0.525412	-0.404177	0.401583
C82	C	0.775412	-0.154177	0.651583
C83	C	1.025412	0.095823	0.901583
C84	C	1.275412	0.345823	1.151583
C85	C	0.525418	-0.309333	0.307613
C86	C	0.775418	-0.059333	0.557613
C87	C	1.025418	0.190667	0.807613
C88	C	1.275418	0.440667	1.057613
C89	C	0.602276	-0.309328	0.307608
C90	C	0.852276	-0.059328	0.557608
C91	C	1.102276	0.190672	0.807608
C92	C	1.352276	0.440672	1.057608
C93	C	0.640700	-0.356753	0.354587
C94	C	0.890700	-0.106753	0.604587
C95	C	1.140700	0.143247	0.854587
C96	C	1.390700	0.393247	1.104587
C97	C	0.486984	-0.356761	0.354601
C98	C	0.736984	-0.106761	0.604601
C99	C	0.986984	0.143239	0.854601
C100	C	1.236984	0.393239	1.104601
C101	C	0.403650	-0.356763	0.354611
C102	C	0.653650	-0.106763	0.604611
C103	C	0.903650	0.143237	0.854611
C104	C	1.153650	0.393237	1.104611
C105	C	0.724039	-0.356750	0.354579
C106	C	0.974039	-0.106750	0.604579
C107	C	1.224039	0.143250	0.854579
C108	C	1.474039	0.393250	1.104579
C109	C	1.063370	-0.549158	0.354564
C110	C	1.313370	-0.299158	0.604564
C111	C	1.563370	-0.049158	0.854564
C112	C	1.813370	0.200842	1.104564
C113	C	1.063395	-0.631472	0.354579
C114	C	1.313395	-0.381472	0.604579
C115	C	1.563395	-0.131472	0.854579
C116	C	1.813395	0.118528	1.104579
C117	C	1.063557	-0.930563	0.354619
C118	C	1.313557	-0.680563	0.604619
C119	C	1.563557	-0.430563	0.854619
C120	C	1.813557	-0.180563	1.104619
C121	C	1.006827	-0.899249	0.411628
C122	C	1.256827	-0.649249	0.661628
C123	C	1.506827	-0.399249	0.911628
C124	C	1.756827	-0.149249	1.161628
C125	C	1.006557	-0.813632	0.411450
C126	C	1.256557	-0.563632	0.661450
C127	C	1.506557	-0.313632	0.911450
C128	C	1.756557	-0.063632	1.161450
C129	C	1.063476	-0.782180	0.354600
C130	C	1.313476	-0.532180	0.604600
C131	C	1.563476	-0.282180	0.854600
C132	C	1.813476	-0.032180	1.104600
C133	C	1.042479	-0.813331	0.277038
C134	C	1.292479	-0.563331	0.527038
C135	C	1.542479	-0.313331	0.777038
C136	C	1.792479	-0.063331	1.027038
C137	C	1.042113	-0.898976	0.277380
C138	C	1.292113	-0.648976	0.527380
C139	C	1.542113	-0.398976	0.777380
C140	C	1.792113	-0.148976	1.027380
C141	C	1.141408	-0.898906	0.374487
C142	C	1.391408	-0.648906	0.624487
C143	C	1.641408	-0.398906	0.874487
C144	C	1.891408	-0.148906	1.124487
C145	C	1.140950	-0.813255	0.376188
C146	C	1.390950	-0.563255	0.626188
C147	C	1.640950	-0.313255	0.876188
C148	C	1.890950	-0.063255	1.126188
C149	C	1.063432	-0.698321	0.354584
C150	C	1.313432	-0.448321	0.604584
C151	C	1.563432	-0.198321	0.854584
C152	C	1.813432	0.051679	1.104584
C153	C	1.063599	-1.014422	0.354629
C154	C	1.313599	-0.764422	0.604629
C155	C	1.563599	-0.514422	0.854629
C156	C	1.813599	-0.264422	1.104629
C157	C	1.255421	-0.356761	0.354607
C158	C	1.505421	-0.106761	0.604607
C159	C	1.755421	0.143239	0.854607
C160	C	2.005421	0.393239	1.104607
C161	C	1.337220	-0.356766	0.354616
C162	C	1.587220	-0.106766	0.604616
C163	C	1.837220	0.143234	0.854616
C164	C	2.087220	0.393234	1.104616
C165	C	1.063513	-0.356696	0.546538
C166	C	1.313513	-0.106696	0.796538
C167	C	1.563513	0.143304	1.046538
C168	C	1.813513	0.393304	1.296538
C169	C	1.063532	-0.356675	0.628337
C170	C	1.313532	-0.106675	0.878337
C171	C	1.563532	0.143325	1.128337
C172	C	1.813532	0.393325	1.378337
C173	C	1.063587	-0.163585	0.354623
C174	C	1.313587	0.086415	0.604623
C175	C	1.563587	0.336415	0.854623
C176	C	1.813587	0.586415	1.104623
C177	C	1.063638	-0.081271	0.354639
C178	C	1.313638	0.168729	0.604639
C179	C	1.563638	0.418729	0.854639
C180	C	1.813638	0.668729	1.104639
C181	C	1.063466	-0.356745	0.163379
C182	C	1.313466	-0.106745	0.413379
C183	C	1.563466	0.143255	0.663379
C184	C	1.813466	0.393255	0.913379
C185	C	1.063590	-0.356558	0.081580
C186	C	1.313590	-0.106558	0.331580
C187	C	1.563590	0.143442	0.581580
C188	C	1.813590	0.393442	0.831580
C189	C	1.110648	-0.309268	0.816547
C190	C	1.360648	-0.059268	1.066547
C191	C	1.610648	0.190732	1.316547
C192	C	1.860648	0.440732	1.566547
C193	C	1.110656	-0.309246	0.893406
C194	C	1.360656	-0.059246	1.143406
C195	C	1.610656	0.190754	1.393406
C196	C	1.860656	0.440754	1.643406
C197	C	1.016469	-0.403967	0.893365
C198	C	1.266469	-0.153967	1.143365
C199	C	1.516469	0.096033	1.393365
C200	C	1.766469	0.346033	1.643365
C201	C	1.016457	-0.403984	0.816508
C202	C	1.266457	-0.153984	1.066508
C203	C	1.516457	0.096016	1.316508
C204	C	1.766457	0.346016	1.566508
C205	C	1.063551	-0.356636	0.778101
C206	C	1.313551	-0.106636	1.028101
C207	C	1.563551	0.143364	1.278101
C208	C	1.813551	0.393364	1.528101
C209	C	1.063571	-0.356597	0.931817
C210	C	1.313571	-0.106597	1.181817
C211	C	1.563571	0.143403	1.431817
C212	C	1.813571	0.393403	1.681817
C213	C	1.063580	-0.356574	1.015151
C214	C	1.313580	-0.106574	1.265151
C215	C	1.563580	0.143426	1.515151
C216	C	1.813580	0.393426	1.765151
C217	C	1.063541	-0.356657	0.694762
C218	C	1.313541	-0.106657	0.944762
C219	C	1.563541	0.143343	1.194762
C220	C	1.813541	0.393343	1.444762
H221	H	0.633553	-0.442789	0.439829
H222	H	0.883553	-0.192789	0.689829
H223	H	1.133553	0.057211	0.939829
H224	H	1.383553	0.307211	1.189829
H225	H	1.148992	-0.270712	0.785278
H226	H	1.398992	-0.020712	1.035278
H227	H	1.648992	0.229288	1.285278
H228	H	1.898992	0.479288	1.535278
F229	F	1.023824	-0.926109	0.487044
F230	F	1.273824	-0.676109	0.737044
F231	F	1.523824	-0.426109	0.987044
F232	F	1.773824	-0.176109	1.237044
H233	H	1.082498	-0.792959	0.233404
H234	H	1.332498	-0.542959	0.483404
H235	H	1.582498	-0.292959	0.733404
H236	H	1.832498	-0.042959	0.983404
H237	H	0.494126	-0.442792	0.439845
H238	H	0.744126	-0.192792	0.689845
H239	H	0.994126	0.057208	0.939845
H240	H	1.244126	0.307208	1.189845
F241	F	0.643177	-0.258848	0.257600
F242	F	0.893177	-0.008848	0.507600
F243	F	1.143177	0.241152	0.757600
F244	F	1.393177	0.491152	1.007600
F245	F	1.023727	-0.786098	0.486621
F246	F	1.273727	-0.536098	0.736621
F247	F	1.523727	-0.286098	0.986621
F248	F	1.773727	-0.036098	1.236621
F249	F	0.966354	-0.454358	0.934247
F250	F	1.216354	-0.204358	1.184247
F251	F	1.466354	0.045642	1.434247
F252	F	1.716354	0.295642	1.684247
F253	F	0.484518	-0.258864	0.257617
F254	F	0.734518	-0.008864	0.507617
F255	F	0.984518	0.241136	0.757617
F256	F	1.234518	0.491136	1.007617
H257	H	1.149006	-0.270673	0.924705
H258	H	1.399006	-0.020673	1.174705
H259	H	1.649006	0.229327	1.424705
H260	H	1.899006	0.479327	1.674705
F261	F	0.931862	-0.927478	0.394655
F262	F	1.181862	-0.677478	0.644655
F263	F	1.431862	-0.427478	0.894655
F264	F	1.681862	-0.177478	1.144655
H265	H	0.978100	-0.442556	0.785204
H266	H	1.228100	-0.192556	1.035204
H267	H	1.478100	0.057444	1.285204
H268	H	1.728100	0.307444	1.535204
F269	F	0.931131	-0.786934	0.394251
F270	F	1.181131	-0.536934	0.644251
F271	F	1.431131	-0.286934	0.894251
F272	F	1.681131	-0.036934	1.144251
H273	H	0.985204	-0.919019	0.260549
H274	H	1.235204	-0.669019	0.510549
H275	H	1.485204	-0.419019	0.760549
H276	H	1.735204	-0.169019	1.010549
F277	F	1.093771	-0.926056	0.219963
F278	F	1.343771	-0.676056	0.469963
F279	F	1.593771	-0.426056	0.719963
F280	F	1.843771	-0.176056	0.969963
F281	F	1.161649	-0.786641	0.450797
F282	F	1.411649	-0.536641	0.700797
F283	F	1.661649	-0.286641	0.950797
F284	F	1.911649	-0.036641	1.200797
F285	F	0.968881	-0.785384	0.254644
F286	F	1.218881	-0.535384	0.504644
F287	F	1.468881	-0.285384	0.754644
F288	F	1.718881	-0.035384	1.004644
F289	F	1.166431	-0.927071	0.447152
F290	F	1.416431	-0.677071	0.697152
F291	F	1.666431	-0.427071	0.947152
F292	F	1.916431	-0.177071	1.197152
H293	H	1.183674	-0.919155	0.332965
H294	H	1.433674	-0.669155	0.582965
H295	H	1.683674	-0.419155	0.832965
H296	H	1.933674	-0.169155	1.082965
F297	F	1.199122	-0.785262	0.325876
F298	F	1.449122	-0.535262	0.575876
F299	F	1.699122	-0.285262	0.825876
F300	F	1.949122	-0.035262	1.075876
