data_functionalizedCrystal
_audit_creation_method	'MofGen! by Chris Wilmer'
_symmetry_space_group_name_H-M	'P1'
_symmetry_Int_Tables_number	1
_symmetry_cell_setting	triclinic
loop_
_symmetry_equiv_pos_as_xyz
  x,y,z
_cell_length_a	11.792241
_cell_length_b	9.565339
_cell_length_c	10.489716
_cell_angle_alpha	90.005026
_cell_angle_beta	95.638724
_cell_angle_gamma	89.999621
loop_
_atom_site_label
_atom_site_type_symbol
_atom_site_fract_x
_atom_site_fract_y
_atom_site_fract_z
O1	O	1.507367	0.116111	-0.174823
O2	O	1.177073	0.116142	-0.192841
O3	O	1.349750	0.116131	0.001793
O4	O	1.334689	0.116122	-0.369458
O5	O	1.349735	-0.116389	0.001778
O6	O	1.177058	-0.116378	-0.192856
O7	O	1.507352	-0.116409	-0.174838
Zn8	Zn	1.342203	-0.153311	-0.183850
Zn9	Zn	1.342222	0.153044	-0.183830
O10	O	1.334675	-0.116398	-0.369473
C11	C	1.134771	-0.000114	-0.191717
C12	C	1.008749	-0.000101	-0.188329
N13	N	1.342198	-0.362391	-0.183862
C14	C	0.778020	-0.000141	-0.182100
C15	C	0.906415	-0.000119	-0.185561
C16	C	1.263005	-0.546758	-0.274572
C17	C	1.239117	-0.453527	-0.159508
C18	C	1.366034	-0.453553	-0.298917
C19	C	1.318297	-0.546697	-0.068685
C20	C	1.445259	-0.546731	-0.208169
C21	C	1.421415	-0.453542	-0.093022
C22	C	1.549653	-0.000150	-0.175962
C23	C	1.675676	-0.000154	-0.179350
C24	C	1.348611	-0.000125	0.049314
C25	C	1.345225	-0.000112	0.190934
N26	N	1.342236	0.362123	-0.183807
C27	C	1.335814	-0.000139	-0.416994
C28	C	1.339199	-0.000143	-0.558613
C29	C	1.451116	-0.000135	0.288968
C30	C	1.395168	0.114511	0.366146
C31	C	1.395129	-0.114735	0.366095
C32	C	1.289322	0.114629	0.266246
C33	C	1.289298	-0.114721	0.266189
C34	C	1.233272	-0.000046	0.343318
H35	H	1.195971	-0.587687	-0.351217
H36	H	1.298050	-0.587441	0.028659
H37	H	1.488405	-0.412872	-0.016205
C38	C	1.455528	-0.245677	0.425006
H39	H	1.532863	-0.245531	0.406766
H40	H	1.452314	-0.245200	0.515137
H41	H	1.418680	-0.327085	0.389432
C42	C	1.575538	-0.000002	0.256044
H43	H	1.589240	-0.081500	0.208106
H44	H	1.588752	0.080678	0.206819
H45	H	1.625384	0.000874	0.332907
C46	C	1.108757	0.000038	0.375912
H47	H	1.094987	-0.081440	0.423833
H48	H	1.095409	0.080739	0.425063
H49	H	1.059057	0.000844	0.298939
H50	H	1.244630	-0.211643	0.222513
C51	C	1.562938	-0.602097	-0.236035
H52	H	1.579747	-0.570264	-0.317880
H53	H	1.619371	-0.568795	-0.172417
H54	H	1.562284	-0.701404	-0.235034
C55	C	1.393257	-0.398285	-0.430387
H56	H	1.336904	-0.430222	-0.494751
H57	H	1.393739	-0.298985	-0.429234
H58	H	1.465918	-0.431584	-0.448295
C59	C	1.121407	-0.398201	-0.131688
H60	H	1.129199	-0.343543	-0.055707
H61	H	1.090454	-0.342184	-0.201379
H62	H	1.071951	-0.474756	-0.120799
C63	C	1.455560	0.245432	0.425131
H64	H	1.532902	0.245289	0.406918
H65	H	1.418716	0.326851	0.389609
H66	H	1.452339	0.244903	0.515267
C67	C	1.228997	0.245726	0.207562
H68	H	1.231582	0.244963	0.117328
H69	H	1.151858	0.246070	0.226490
H70	H	1.266359	0.327030	0.242653
