data_functionalizedCrystal
_audit_creation_method	'MofGen! by Chris Wilmer'
_symmetry_space_group_name_H-M	'P1'
_symmetry_Int_Tables_number	1
_symmetry_cell_setting	triclinic
loop_
_symmetry_equiv_pos_as_xyz
  x,y,z
_cell_length_a	14.519709
_cell_length_b	16.109301
_cell_length_c	14.586319
_cell_angle_alpha	89.998390
_cell_angle_beta	89.999755
_cell_angle_gamma	83.570813
loop_
_atom_site_label
_atom_site_type_symbol
_atom_site_fract_x
_atom_site_fract_y
_atom_site_fract_z
O1	O	-1.223638	-0.108980	0.076124
O2	O	-0.955134	-0.121814	0.076152
O3	O	-1.096762	0.005621	0.076128
O4	O	-1.082010	-0.236415	0.076148
O5	O	-1.096745	0.005614	-0.076353
O6	O	-0.955116	-0.121822	-0.076328
O7	O	-1.223621	-0.108987	-0.076357
Cu8	Cu	-1.089367	-0.115405	-0.090265
Cu9	Cu	-1.089387	-0.115396	0.090061
O10	O	-1.081992	-0.236423	-0.076333
C11	C	-1.096156	0.036593	-0.000113
C12	C	-1.094364	0.128892	-0.000114
C13	C	-0.920766	-0.121220	-0.000085
C14	C	-0.818389	-0.119427	-0.000074
C15	C	-1.257988	-0.109582	-0.000118
C16	C	-1.360365	-0.111374	-0.000122
C17	C	-0.443507	-0.112829	-0.000116
C18	C	-0.547811	-0.114661	-0.000104
C19	C	-0.630945	-0.116128	-0.000094
C20	C	-0.735256	-0.117961	-0.000084
C21	C	-1.082599	-0.267395	-0.000090
C22	C	-1.084390	-0.359693	-0.000083
N23	N	-1.089359	-0.115411	-0.217097
C24	C	-1.174238	0.351026	-0.000108
C25	C	-1.172547	0.437749	-0.000100
C26	C	-1.004510	0.418166	-0.000086
C27	C	-1.006202	0.331444	-0.000087
C28	C	-1.091068	0.297877	-0.000103
C29	C	-1.087686	0.471322	-0.000094
C30	C	-1.085852	0.565351	-0.000085
C31	C	-1.092902	0.203842	-0.000109
C32	C	-1.145290	-0.165936	-0.452105
C33	C	-1.145300	-0.165931	-0.548087
C34	C	-1.033469	-0.064853	-0.548093
C35	C	-1.033465	-0.064855	-0.452113
C36	C	-1.089374	-0.115401	-0.404122
C37	C	-1.089388	-0.115394	-0.596083
C38	C	-1.089398	-0.115387	-0.700150
C39	C	-1.089365	-0.115407	-0.300048
N40	N	-1.089402	-0.115384	0.216893
H41	H	-1.240272	0.481020	-0.000102
H42	H	-1.190815	-0.207095	-0.413034
C43	C	-1.206161	-0.220745	-0.600064
C44	C	-1.299091	-0.198012	-0.576689
C45	C	-1.355186	-0.248497	-0.624542
H46	H	-1.198285	-0.213553	-0.664114
H47	H	-1.189059	-0.277609	-0.584315
H48	H	-1.316188	-0.141162	-0.592444
H49	H	-1.306996	-0.205208	-0.512647
H50	H	-1.338084	-0.305361	-0.608793
H51	H	-1.347302	-0.241301	-0.688590
H52	H	-1.418244	-0.233085	-0.608683
H53	H	-0.935415	0.445507	-0.000075
C54	C	-0.972791	-0.010071	-0.600362
C55	C	-0.984685	-0.020947	-0.694689
C56	C	-0.928790	0.029495	-0.742864
H57	H	-0.989917	0.046816	-0.584779
H58	H	-0.909673	-0.025377	-0.584649
H59	H	-1.047789	-0.005635	-0.710396
H60	H	-0.967553	-0.077823	-0.710299
H61	H	-0.865672	0.014189	-0.727150
H62	H	-0.945920	0.086379	-0.727273
H63	H	-0.936846	0.022118	-0.806869
C64	C	-0.972652	-0.009958	-0.400175
C65	C	-0.923666	0.034287	-0.462744
C66	C	-0.867633	0.084857	-0.414933
H67	H	-1.010357	0.028297	-0.362729
H68	H	-0.930151	-0.043930	-0.362754
H69	H	-0.966162	0.068256	-0.500150
H70	H	-0.885944	-0.003947	-0.500192
H71	H	-0.825132	0.050885	-0.377511
H72	H	-0.905345	0.123107	-0.377489
H73	H	-0.834383	0.114878	-0.457378
H74	H	-1.243341	0.323699	-0.000119
C75	C	-0.915798	0.273870	-0.000128
C76	C	-0.841113	0.321827	-0.000146
C77	C	-0.757824	0.268819	-0.000193
H78	H	-0.912840	0.239614	0.053031
H79	H	-0.912912	0.239646	-0.053323
H80	H	-0.843998	0.356037	0.053042
H81	H	-0.844040	0.356081	-0.053302
H82	H	-0.754938	0.234594	-0.053387
H83	H	-0.754876	0.234566	0.052968
H84	H	-0.707141	0.301349	-0.000213
