data_functionalizedCrystal
_audit_creation_method	'MofGen! by Chris Wilmer'
_symmetry_space_group_name_H-M	'P1'
_symmetry_Int_Tables_number	1
_symmetry_cell_setting	triclinic
loop_
_symmetry_equiv_pos_as_xyz
  x,y,z
_cell_length_a	16.120530
_cell_length_b	16.120444
_cell_length_c	16.120297
_cell_angle_alpha	84.384883
_cell_angle_beta	89.871860
_cell_angle_gamma	90.168401
loop_
_atom_site_label
_atom_site_type_symbol
_atom_site_fract_x
_atom_site_fract_y
_atom_site_fract_z
Zn1	Zn	1.224979	-0.422266	0.554818
Zn2	Zn	1.724979	0.077734	1.054818
Zn3	Zn	1.224872	-0.554951	0.422125
Zn4	Zn	1.724872	-0.054951	0.922125
Zn5	Zn	1.093719	-0.408182	0.408061
Zn6	Zn	1.593719	0.091818	0.908061
Zn7	Zn	1.078869	-0.554183	0.554057
Zn8	Zn	1.578869	-0.054183	1.054057
O9	O	1.155610	-0.484895	0.484765
O10	O	1.655610	0.015105	0.984765
O11	O	1.341001	-0.446082	0.543421
O12	O	1.841001	0.053918	1.043421
O13	O	1.213644	-0.529908	0.303627
O14	O	1.713644	-0.029908	0.803627
O15	O	1.117390	-0.293419	0.421961
O16	O	1.617390	0.206581	0.921961
O17	O	1.340922	-0.543565	0.445931
O18	O	1.840922	-0.043565	0.945931
O19	O	1.213826	-0.303767	0.529783
O20	O	1.713826	0.196233	1.029783
O21	O	1.117286	-0.422078	0.293294
O22	O	1.617286	0.077922	0.793294
O23	O	0.975713	-0.421333	0.421223
O24	O	1.475713	0.078667	0.921223
O25	O	1.092082	-0.542257	0.670791
O26	O	1.592082	-0.042257	1.170791
O27	O	0.964804	-0.528600	0.528486
O28	O	1.464804	-0.028600	1.028486
O29	O	1.199428	-0.445338	0.671350
O30	O	1.699428	0.054662	1.171350
O31	O	1.199245	-0.671480	0.445193
O32	O	1.699245	-0.171480	0.945193
O33	O	1.091978	-0.670916	0.542124
O34	O	1.591978	-0.170916	1.042124
C35	C	0.940172	-0.473356	0.473247
C36	C	1.440172	0.026644	0.973247
C37	C	0.848004	-0.468440	0.468340
C38	C	1.348004	0.031560	0.968340
C39	C	0.679253	-0.459446	0.459387
C40	C	1.179253	0.040554	0.959387
C41	C	0.632801	-0.510409	0.510208
C42	C	1.132801	-0.010409	1.010208
C43	C	0.538902	-0.505404	0.505226
C44	C	1.038902	-0.005404	1.005226
C45	C	0.773160	-0.464449	0.464367
C46	C	1.273160	0.035551	0.964367
C47	C	1.144010	-0.701441	0.495121
C48	C	1.644010	-0.201441	0.995121
C49	C	1.139122	-0.794086	0.499584
C50	C	1.639122	-0.294086	0.999584
C51	C	1.181160	-1.005244	0.461807
C52	C	1.681160	-0.505244	0.961807
C53	C	1.130213	-0.963704	0.507740
C54	C	1.630213	-0.463704	1.007740
C55	C	1.135171	-0.869320	0.503201
C56	C	1.635171	-0.369320	1.003201
C57	C	1.176203	-1.099637	0.466346
C58	C	1.676203	-0.599637	0.966346
C59	C	1.371889	-0.496481	0.496330
C60	C	1.871889	0.003519	0.996330
C61	C	1.464055	-0.501417	0.501258
C62	C	1.964055	-0.001417	1.001258
C63	C	1.144110	-0.495283	0.702158
C64	C	1.644110	0.004717	1.202158
C65	C	1.139210	-0.499710	0.794797
C66	C	1.639210	0.000290	1.294797
C67	C	1.167277	-0.267506	0.474388
C68	C	1.667277	0.232494	0.974388
C69	C	1.172248	-0.174868	0.469966
C70	C	1.672248	0.325132	0.969966
C71	C	1.167116	-0.474490	0.268218
C72	C	1.667116	0.025510	0.768218
C73	C	1.172189	-0.469838	0.175577
C74	C	1.672189	0.030162	0.675577
C75	C	1.130233	-0.507771	0.964409
C76	C	1.630233	-0.007771	1.464409
C77	C	1.181163	-0.461778	1.005971
C78	C	1.681163	0.038222	1.505971
C79	C	1.176169	-0.466264	1.100348
C80	C	1.676169	0.033736	1.600348
C81	C	1.135227	-0.503287	0.870023
C82	C	1.635227	-0.003287	1.370023
H83	H	0.648503	-0.412062	0.412140
H84	H	1.148503	0.087938	0.912140
C85	C	1.066246	-1.011414	0.565463
C86	C	1.566246	-0.511414	1.065463
C87	C	1.061306	-1.107163	0.569974
C88	C	1.561306	-0.607163	1.069974
C89	C	0.997338	-1.154876	0.627689
C90	C	1.497338	-0.654876	1.127689
C91	C	0.938309	-1.106839	0.680894
C92	C	1.438309	-0.606839	1.180894
C93	C	0.943248	-1.011084	0.676385
C94	C	1.443248	-0.511084	1.176385
C95	C	1.007216	-0.963371	0.618670
C96	C	1.507216	-0.463371	1.118670
H97	H	1.105004	-1.142728	0.530587
H98	H	1.605004	-0.642728	1.030587
H99	H	0.993682	-1.225760	0.631026
H100	H	1.493682	-0.725760	1.131026
H101	H	0.890956	-1.142159	0.723618
H102	H	1.390956	-0.642159	1.223618
H103	H	0.899550	-0.975520	0.715772
H104	H	1.399550	-0.475520	1.215772
H105	H	1.010871	-0.892487	0.615333
H106	H	1.510871	-0.392487	1.115333
C107	C	1.245109	-0.957535	0.404072
C108	C	1.745109	-0.457535	0.904072
C109	C	1.338401	-0.974674	0.416534
C110	C	1.838401	-0.474674	0.916534
C111	C	1.402345	-0.926954	0.358797
C112	C	1.902345	-0.426954	0.858797
C113	C	1.372998	-0.862095	0.288596
C114	C	1.872998	-0.362095	0.788596
C115	C	1.279702	-0.844953	0.276131
C116	C	1.779702	-0.344953	0.776131
C117	C	1.215757	-0.892673	0.333868
C118	C	1.715757	-0.392673	0.833868
H119	H	1.360129	-1.022689	0.468503
H120	H	1.860129	-0.522689	0.968503
H121	H	1.471410	-0.939644	0.368025
H122	H	1.971410	-0.439644	0.868025
H123	H	1.420334	-0.826770	0.245856
H124	H	1.920334	-0.326770	0.745856
H125	H	1.257973	-0.796938	0.224162
H126	H	1.757973	-0.296938	0.724162
H127	H	1.146693	-0.879983	0.324640
H128	H	1.646693	-0.379983	0.824640
C129	C	1.245141	-0.404035	0.958293
C130	C	1.745141	0.095965	1.458293
C131	C	1.250113	-0.399575	0.862550
C132	C	1.750113	0.100425	1.362550
C133	C	1.314090	-0.341836	0.814869
C134	C	1.814090	0.158164	1.314869
C135	C	1.373093	-0.288557	0.862931
C136	C	1.873093	0.211443	1.362931
C137	C	1.368123	-0.293015	0.958679
C138	C	1.868123	0.206985	1.458679
C139	C	1.304147	-0.350754	1.006360
C140	C	1.804147	0.149246	1.506360
H141	H	1.206433	-0.439017	0.826967
H142	H	1.706433	0.060983	1.326967
H143	H	1.317769	-0.338536	0.743990
H144	H	1.817769	0.161464	1.243990
H145	H	1.420453	-0.245815	0.827634
H146	H	1.920453	0.254185	1.327634
H147	H	1.411803	-0.253573	0.994262
H148	H	1.911803	0.246427	1.494262
H149	H	1.300468	-0.354054	1.077240
H150	H	1.800468	0.145946	1.577240
C151	C	1.066269	-0.565521	1.012087
C152	C	1.566269	-0.065521	1.512087
C153	C	1.061310	-0.569983	1.107831
C154	C	1.561310	-0.069983	1.607831
C155	C	0.997350	-0.627735	1.155521
C156	C	1.497350	-0.127735	1.655521
C157	C	0.938350	-0.681024	1.107467
C158	C	1.438350	-0.181024	1.607467
C159	C	0.943307	-0.676564	1.011718
C160	C	1.443307	-0.176564	1.511718
C161	C	1.007267	-0.618813	0.964028
C162	C	1.507267	-0.118813	1.464028
H163	H	1.104988	-0.530533	1.143408
H164	H	1.604988	-0.030533	1.643408
H165	H	0.993681	-0.631036	1.226401
H166	H	1.493681	-0.131036	1.726401
H167	H	0.891003	-0.723776	1.142770
H168	H	1.391003	-0.223776	1.642770
H169	H	0.899629	-0.716014	0.976141
H170	H	1.399629	-0.216014	1.476141
H171	H	1.010936	-0.615512	0.893148
H172	H	1.510936	-0.115512	1.393148
C173	C	0.674337	-0.574437	0.574035
C174	C	1.174337	-0.074437	1.074035
C175	C	0.769604	-0.579422	0.578986
C176	C	1.269604	-0.079422	1.078986
C177	C	0.811144	-0.643452	0.642806
C178	C	1.311144	-0.143452	1.142806
C179	C	0.757418	-0.702496	0.701675
C180	C	1.257418	-0.202496	1.201675
C181	C	0.662145	-0.697513	0.696726
C182	C	1.162145	-0.197513	1.196726
C183	C	0.620605	-0.633483	0.632906
C184	C	1.120605	-0.133483	1.132906
H185	H	0.809381	-0.535713	0.535405
H186	H	1.309381	-0.035713	1.035405
H187	H	0.881672	-0.647140	0.646469
H188	H	1.381672	-0.147140	1.146469
H189	H	0.788168	-0.749894	0.748919
H190	H	1.288168	-0.249894	1.248919
H191	H	0.622368	-0.741222	0.740306
H192	H	1.122368	-0.241222	1.240306
H193	H	0.550077	-0.629795	0.629243
H194	H	1.050077	-0.129795	1.129243
