data_functionalizedCrystal
_audit_creation_method	'MofGen! by Chris Wilmer'
_symmetry_space_group_name_H-M	'P1'
_symmetry_Int_Tables_number	1
_symmetry_cell_setting	triclinic
loop_
_symmetry_equiv_pos_as_xyz
  x,y,z
_cell_length_a	15.944493
_cell_length_b	15.944493
_cell_length_c	7.540329
_cell_angle_alpha	90.002283
_cell_angle_beta	89.997607
_cell_angle_gamma	83.475044
loop_
_atom_site_label
_atom_site_type_symbol
_atom_site_fract_x
_atom_site_fract_y
_atom_site_fract_z
O1	O	1.114530	0.108102	-0.147435
O2	O	0.869971	0.121509	-0.147441
O3	O	0.998954	-0.007474	-0.147453
O4	O	0.985547	0.237085	-0.147424
O5	O	0.998947	-0.007476	0.147512
O6	O	0.869964	0.121508	0.147524
O7	O	1.114523	0.108100	0.147530
Cu8	Cu	0.992242	0.114804	0.174459
Cu9	Cu	0.992251	0.114806	-0.174371
O10	O	0.985539	0.237084	0.147541
C11	C	0.838673	0.120961	0.000040
C12	C	0.745424	0.119318	0.000037
C13	C	0.509649	0.195240	0.000044
C14	C	0.459095	0.154297	0.145480
C15	C	0.574704	0.116273	0.000040
C16	C	0.459107	0.154280	-0.145332
C17	C	0.409795	0.113339	0.000035
C18	C	0.525379	0.075352	0.145596
C19	C	0.525394	0.075346	-0.145347
C20	C	0.474873	0.034346	0.000124
C21	C	0.669704	0.117966	0.000044
C22	C	0.314798	0.111640	0.000043
C23	C	0.998403	-0.038769	0.000022
C24	C	0.996760	-0.132018	-0.000001
C25	C	1.072682	-0.367793	0.000035
C26	C	1.031744	-0.418352	-0.145398
C27	C	0.993716	-0.302738	0.000021
C28	C	1.031718	-0.418330	0.145414
C29	C	0.990781	-0.467647	0.000050
C30	C	0.952799	-0.352069	-0.145532
C31	C	0.952784	-0.352043	0.145411
C32	C	0.911788	-0.402569	-0.000058
C33	C	0.995408	-0.207739	0.000003
C34	C	0.989082	-0.562644	0.000055
C35	C	1.145821	0.108649	0.000044
C36	C	1.239069	0.110292	0.000036
C37	C	0.986091	0.268379	0.000062
C38	C	0.987734	0.361627	0.000073
N39	N	0.992242	0.114802	0.419808
N40	N	0.992258	0.114801	-0.419720
H41	H	0.525258	0.263261	0.000189
H42	H	1.065080	-0.447268	0.268359
N43	N	1.073588	-0.454664	-0.299642
N44	N	1.149719	-0.446743	-0.325561
H45	H	1.179276	-0.472384	-0.434492
N46	N	0.422793	0.196118	-0.299569
N47	N	0.344918	0.200986	-0.324921
H48	H	0.319272	0.230538	-0.433845
N49	N	0.910995	-0.315900	-0.299938
N50	N	0.905557	-0.237969	-0.324899
H51	H	0.876036	-0.212422	-0.433947
N52	N	0.826390	-0.421947	-0.000169
N53	N	0.778189	-0.397533	-0.125153
H54	H	0.717877	-0.411220	-0.125241
N55	N	1.158010	-0.348201	-0.000100
N56	N	1.206676	-0.373509	0.123497
H57	H	1.266938	-0.359672	0.123399
H58	H	0.430147	0.187646	0.268442
H59	H	0.919461	-0.323076	0.268368
H60	H	0.459422	-0.033727	0.000200
N61	N	0.561553	0.033543	0.299990
N62	N	0.639485	0.028103	0.324938
H63	H	0.665035	-0.001422	0.433978
N64	N	0.561720	0.033553	-0.299619
N65	N	0.540304	0.060494	-0.450514
H66	H	0.565959	0.030983	-0.559484
