data_functionalizedCrystal
_audit_creation_method	'MofGen! by Chris Wilmer'
_symmetry_space_group_name_H-M	'P1'
_symmetry_Int_Tables_number	1
_symmetry_cell_setting	triclinic
loop_
_symmetry_equiv_pos_as_xyz
  x,y,z
_cell_length_a	16.625548
_cell_length_b	21.295417
_cell_length_c	16.625539
_cell_angle_alpha	90.033373
_cell_angle_beta	90.020568
_cell_angle_gamma	90.031575
loop_
_atom_site_label
_atom_site_type_symbol
_atom_site_fract_x
_atom_site_fract_y
_atom_site_fract_z
Zn1	Zn	1.232635	-0.250590	0.455881
Zn2	Zn	1.565969	0.082743	0.789214
Zn3	Zn	1.899302	0.416077	1.122548
Zn4	Zn	1.232520	-0.355864	0.321036
Zn5	Zn	1.565853	-0.022530	0.654370
Zn6	Zn	1.899186	0.310803	0.987703
Zn7	Zn	1.097797	-0.250614	0.321061
Zn8	Zn	1.431131	0.082719	0.654395
Zn9	Zn	1.764464	0.416053	0.987728
Zn10	Zn	1.097749	-0.355827	0.455826
Zn11	Zn	1.431082	-0.022494	0.789159
Zn12	Zn	1.764415	0.310839	1.122493
O13	O	1.165175	-0.303224	0.388451
O14	O	1.498509	0.030110	0.721785
O15	O	1.831842	0.363443	1.055118
O16	O	1.345452	-0.264560	0.438006
O17	O	1.678786	0.068773	0.771339
O18	O	2.012119	0.402107	1.104673
O19	O	1.214620	-0.341927	0.208207
O20	O	1.547954	-0.008594	0.541540
O21	O	1.881287	0.324740	0.874874
O22	O	1.115753	-0.162522	0.338979
O23	O	1.449086	0.170812	0.672312
O24	O	1.782419	0.504145	1.005646
O25	O	1.345367	-0.341904	0.338936
O26	O	1.678701	-0.008571	0.672269
O27	O	2.012034	0.324763	1.005603
O28	O	1.214818	-0.162504	0.438030
O29	O	1.548151	0.170829	0.771364
O30	O	1.881484	0.504163	1.104697
O31	O	1.115640	-0.264601	0.208226
O32	O	1.448974	0.068732	0.541559
O33	O	1.782307	0.402066	0.874892
O34	O	0.984958	-0.264566	0.338926
O35	O	1.318292	0.068768	0.672259
O36	O	1.651625	0.402101	1.005593
O37	O	1.115670	-0.341842	0.568666
O38	O	1.449003	-0.008509	0.901999
O39	O	1.782337	0.324824	1.235332
O40	O	0.984923	-0.341866	0.437937
O41	O	1.318256	-0.008532	0.771270
O42	O	1.651589	0.324801	1.104604
O43	O	1.214771	-0.264525	0.568706
O44	O	1.548104	0.068808	0.902039
O45	O	1.881437	0.402142	1.235373
O46	O	1.214573	-0.443948	0.338883
O47	O	1.547907	-0.110615	0.672216
O48	O	1.881240	0.222719	1.005550
O49	O	1.115558	-0.443922	0.437912
O50	O	1.448891	-0.110588	0.771246
O51	O	1.782224	0.222745	1.104579
C52	C	0.955684	-0.303215	0.388429
C53	C	1.289018	0.030119	0.721762
C54	C	1.622351	0.363452	1.055095
C55	C	0.866063	-0.303226	0.388438
C56	C	1.199397	0.030107	0.721771
C57	C	1.532730	0.363441	1.055105
C58	C	0.537888	-0.303230	0.388473
C59	C	0.871221	0.030103	0.721806
C60	C	1.204554	0.363436	1.055139
C61	C	0.629196	-0.303227	0.388460
C62	C	0.962529	0.030106	0.721794
C63	C	1.295863	0.363439	1.055127
C64	C	0.701973	-0.303229	0.388455
C65	C	1.035306	0.030105	0.721788
C66	C	1.368639	0.363438	1.055121
C67	C	0.793287	-0.303225	0.388444
C68	C	1.126620	0.030108	0.721777
C69	C	1.459954	0.363442	1.055111
C70	C	1.165070	-0.466775	0.388407
C71	C	1.498403	-0.133442	0.721740
C72	C	1.831736	0.199891	1.055073
C73	C	1.165098	-0.536744	0.388414
C74	C	1.498431	-0.203410	0.721748
C75	C	1.831765	0.129923	1.055081
C76	C	1.216701	-0.569603	0.336903
C77	C	1.550035	-0.236270	0.670236
C78	C	1.883368	0.097064	1.003569
C79	C	1.216739	-0.635346	0.336921
C80	C	1.550073	-0.302012	0.670254
C81	C	1.883406	0.031321	1.003587
C82	C	1.165159	-0.668226	0.388442
C83	C	1.498493	-0.334893	0.721776
C84	C	1.831826	-0.001559	1.055109
C85	C	1.113552	-0.635359	0.439964
C86	C	1.446886	-0.302025	0.773297
C87	C	1.780219	0.031308	1.106631
C88	C	1.113522	-0.569617	0.439950
C89	C	1.446855	-0.236284	0.773283
C90	C	1.780188	0.097049	1.106617
N91	N	1.094624	-0.771493	0.394581
N92	N	1.427958	-0.438159	0.727915
N93	N	1.761291	-0.104826	1.061248
N94	N	1.094656	-0.833944	0.394590
N95	N	1.427989	-0.500611	0.727923
N96	N	1.761322	-0.167277	1.061257
C97	C	1.165250	-0.866301	0.388488
C98	C	1.498583	-0.532967	0.721822
C99	C	1.831916	-0.199634	1.055155
N100	N	1.235813	-0.833847	0.382362
N101	N	1.569146	-0.500513	0.715696
N102	N	1.902479	-0.167180	1.049029
N103	N	1.235780	-0.771389	0.382350
N104	N	1.569114	-0.438056	0.715683
N105	N	1.902447	-0.104723	1.049016
C106	C	1.165187	-0.739511	0.388463
C107	C	1.498520	-0.406178	0.721797
C108	C	1.831854	-0.072845	1.055130
C109	C	1.216898	-0.970446	0.336994
C110	C	1.550232	-0.637112	0.670327
C111	C	1.883565	-0.303779	1.003660
C112	C	1.216937	-1.036189	0.337017
C113	C	1.550271	-0.702856	0.670351
C114	C	1.883604	-0.369523	1.003684
C115	C	1.113743	-1.036201	0.440056
C116	C	1.447077	-0.702868	0.773390
C117	C	1.780410	-0.369534	1.106723
C118	C	1.113711	-0.970459	0.440037
C119	C	1.447045	-0.637125	0.773370
C120	C	1.780378	-0.303792	1.106704
C121	C	1.165288	-0.937585	0.388501
C122	C	1.498621	-0.604252	0.721834
C123	C	1.831954	-0.270918	1.055168
C124	C	1.375484	-0.303233	0.388474
C125	C	1.708817	0.030100	0.721808
C126	C	2.042151	0.363433	1.055141
C127	C	1.465105	-0.303237	0.388484
C128	C	1.798439	0.030096	0.721817
C129	C	2.131772	0.363429	1.055151
C130	C	1.165228	-0.303177	0.598760
C131	C	1.498561	0.030156	0.932094
C132	C	1.831894	0.363490	1.265427
C133	C	1.165250	-0.303157	0.688381
C134	C	1.498583	0.030176	1.021715
C135	C	1.831917	0.363510	1.355048
C136	C	1.165303	-0.139033	0.388514
C137	C	1.498637	0.194300	0.721847
C138	C	1.831970	0.527633	1.055180
C139	C	1.165358	-0.069065	0.388540
C140	C	1.498691	0.264268	0.721874
C141	C	1.832025	0.597601	1.055207
C142	C	1.165169	-0.303225	0.178960
C143	C	1.498503	0.030108	0.512294
C144	C	1.831836	0.363442	0.845627
C145	C	1.165303	-0.303068	0.089340
C146	C	1.498637	0.030266	0.422673
C147	C	1.831970	0.363599	0.756006
C148	C	1.165287	-0.303086	1.016557
C149	C	1.498621	0.030247	1.349891
C150	C	1.831954	0.363580	1.683224
C151	C	1.165275	-0.303108	0.925249
C152	C	1.498608	0.030225	1.258582
C153	C	1.831941	0.363559	1.591915
C154	C	1.165269	-0.303122	0.852472
C155	C	1.498602	0.030211	1.185806
C156	C	1.831936	0.363544	1.519139
C157	C	1.165256	-0.303143	0.761158
C158	C	1.498589	0.030191	1.094491
C159	C	1.831922	0.363524	1.427825
H160	H	1.258764	-0.662105	0.294974
H161	H	1.592097	-0.328772	0.628307
H162	H	1.925430	0.004562	0.961640
H163	H	1.258700	-0.542839	0.294941
H164	H	1.592033	-0.209506	0.628275
H165	H	1.925366	0.123827	0.961608
H166	H	1.258897	-0.943679	0.295032
H167	H	1.592231	-0.610346	0.628366
H168	H	1.925564	-0.277012	0.961699
O169	O	1.063559	-0.667365	0.490051
O170	O	1.396892	-0.334032	0.823384
O171	O	1.730226	-0.000698	1.156717
C172	C	1.052689	-0.741506	0.598947
C173	C	1.386022	-0.408173	0.932281
C174	C	1.719355	-0.074840	1.265614
C175	C	1.109394	-0.705311	0.542257
C176	C	1.442728	-0.371977	0.875590
C177	C	1.776061	-0.038644	1.208924
H178	H	1.089725	-0.772184	0.641182
H179	H	1.423058	-0.438851	0.974515
H180	H	1.756391	-0.105517	1.307848
H181	H	1.010574	-0.772377	0.561941
H182	H	1.343908	-0.439044	0.895274
H183	H	1.677241	-0.105711	1.228607
H184	H	1.015781	-0.706713	0.635727
H185	H	1.349114	-0.373380	0.969060
H186	H	1.682448	-0.040046	1.302393
H187	H	1.146354	-0.740058	0.505465
H188	H	1.479688	-0.406725	0.838799
H189	H	1.813021	-0.073392	1.172132
H190	H	1.151456	-0.674430	0.579310
H191	H	1.484789	-0.341097	0.912643
H192	H	1.818122	-0.007763	1.245977
H193	H	1.071500	-0.542862	0.481898
H194	H	1.404833	-0.209529	0.815232
H195	H	1.738166	0.123804	1.148565
H196	H	1.071750	-1.062972	0.482010
H197	H	1.405083	-0.729638	0.815343
H198	H	1.738416	-0.396305	1.148677
O199	O	1.267094	-1.068014	0.286901
O200	O	1.600428	-0.734681	0.620234
O201	O	1.933761	-0.401347	0.953567
C202	C	1.369467	-1.061062	0.184724
C203	C	1.702800	-0.727728	0.518057
C204	C	2.036133	-0.394395	0.851391
C205	C	1.312692	-1.024942	0.241427
C206	C	1.646025	-0.691608	0.574760
C207	C	1.979359	-0.358275	0.908094
H208	H	1.406359	-1.026253	0.147956
H209	H	1.739693	-0.692920	0.481289
H210	H	2.073026	-0.359587	0.814623
H211	H	1.332523	-1.091877	0.142487
H212	H	1.665856	-0.758543	0.475820
H213	H	1.999190	-0.425210	0.809153
H214	H	1.411591	-1.091803	0.221799
H215	H	1.744925	-0.758470	0.555132
H216	H	2.078258	-0.425136	0.888466
H217	H	1.270556	-0.994166	0.204417
H218	H	1.603889	-0.660833	0.537750
H219	H	1.937223	-0.327500	0.871084
H220	H	1.349686	-0.994166	0.283667
H221	H	1.683019	-0.660833	0.617000
H222	H	2.016353	-0.327500	0.950333
O223	O	1.063499	-0.938633	0.490094
O224	O	1.396833	-0.605299	0.823427
O225	O	1.730166	-0.271966	1.156760
C226	C	0.961181	-0.945584	0.592324
C227	C	1.294514	-0.612251	0.925658
C228	C	1.627847	-0.278917	1.258991
C229	C	1.017993	-0.981705	0.535659
C230	C	1.351326	-0.648371	0.868992
C231	C	1.684659	-0.315038	1.202326
H232	H	0.924386	-0.980392	0.629191
H233	H	1.257719	-0.647059	0.962524
H234	H	1.591053	-0.313725	1.295857
H235	H	0.918973	-0.914876	0.555296
H236	H	1.252307	-0.581543	0.888629
H237	H	1.585640	-0.248209	1.221963
H238	H	0.998172	-0.914736	0.634478
H239	H	1.331505	-0.581403	0.967812
H240	H	1.664839	-0.248069	1.301145
H241	H	0.981066	-1.012587	0.493494
H242	H	1.314400	-0.679253	0.826827
H243	H	1.647733	-0.345920	1.160160
H244	H	1.060202	-1.012373	0.572737
H245	H	1.393535	-0.679040	0.906071
H246	H	1.726869	-0.345706	1.239404
