data_functionalizedCrystal
_audit_creation_method	'MofGen! by Chris Wilmer'
_symmetry_space_group_name_H-M	'P1'
_symmetry_Int_Tables_number	1
_symmetry_cell_setting	triclinic
loop_
_symmetry_equiv_pos_as_xyz
  x,y,z
_cell_length_a	17.019383
_cell_length_b	17.038272
_cell_length_c	15.500227
_cell_angle_alpha	86.966746
_cell_angle_beta	83.288908
_cell_angle_gamma	92.753117
loop_
_atom_site_label
_atom_site_type_symbol
_atom_site_fract_x
_atom_site_fract_y
_atom_site_fract_z
O1	O	1.060538	-0.092039	-0.150878
O2	O	1.560538	0.407961	0.349122
O3	O	0.830914	-0.105591	-0.133790
O4	O	1.330914	0.394409	0.366210
O5	O	0.944361	0.014994	-0.142226
O6	O	1.444361	0.514994	0.357774
O7	O	0.947091	-0.212624	-0.142442
O8	O	1.447091	0.287376	0.357558
O9	O	0.937475	0.007705	0.002175
O10	O	1.437475	0.507705	0.502175
O11	O	0.824028	-0.112879	0.010611
O12	O	1.324028	0.387121	0.510611
O13	O	1.053652	-0.099328	-0.006478
O14	O	1.553652	0.400672	0.493522
Cu15	Cu	0.938211	-0.106769	0.015252
Cu16	Cu	1.438211	0.393231	0.515252
Cu17	Cu	0.946355	-0.098149	-0.155519
Cu18	Cu	1.446355	0.401851	0.344481
O19	O	0.940205	-0.219913	0.001958
O20	O	1.440205	0.280087	0.501958
C21	C	0.797945	-0.108863	-0.059392
C22	C	1.297945	0.391137	0.440608
C23	C	0.709967	-0.107744	-0.052845
C24	C	1.209967	0.392256	0.447155
C25	C	0.672381	-0.103248	-0.128475
C26	C	1.172381	0.396752	0.371525
C27	C	0.589714	-0.102210	-0.122310
C28	C	1.089714	0.397790	0.377690
C29	C	0.544636	-0.105663	-0.040514
C30	C	1.044636	0.394337	0.459486
C31	C	0.582228	-0.110162	0.035122
C32	C	1.082228	0.389838	0.535122
C33	C	0.664892	-0.111206	0.028956
C34	C	1.164892	0.388794	0.528956
C35	C	0.294855	-0.102717	-0.017960
C36	C	0.794855	0.397283	0.482040
C37	C	0.212185	-0.101671	-0.011800
C38	C	0.712185	0.398329	0.488200
C39	C	0.219678	-0.093720	-0.169233
C40	C	0.719678	0.406280	0.330767
C41	C	0.302344	-0.094759	-0.175391
C42	C	0.802344	0.405241	0.324609
C43	C	0.339928	-0.099262	-0.099755
C44	C	0.839928	0.400738	0.400245
C45	C	0.460138	-0.104600	-0.034211
C46	C	0.960138	0.395400	0.465789
C47	C	0.424424	-0.100331	-0.106059
C48	C	0.924424	0.399669	0.393941
C49	C	0.938435	0.040466	-0.069841
C50	C	1.438435	0.540466	0.430159
C51	C	0.931029	0.127226	-0.069290
C52	C	1.431029	0.627226	0.430710
C53	C	1.086621	-0.096056	-0.080877
C54	C	1.586621	0.403944	0.419123
C55	C	1.174599	-0.097174	-0.087430
C56	C	1.674599	0.402826	0.412570
C57	C	0.946130	-0.245385	-0.070429
C58	C	1.446130	0.254615	0.429571
C59	C	0.953537	-0.332144	-0.070985
C60	C	1.453537	0.167856	0.429015
N61	N	0.932489	-0.112832	0.135362
N62	N	1.432489	0.387168	0.635362
C63	C	0.999029	0.177650	-0.074349
C64	C	1.499029	0.677650	0.425651
C65	C	0.992066	0.259169	-0.073839
C66	C	1.492066	0.759169	0.426161
C67	C	0.917101	0.290262	-0.068263
C68	C	1.417101	0.790262	0.431737
C69	C	0.849095	0.239832	-0.063206
C70	C	1.349095	0.739832	0.436794
C71	C	0.856060	0.158314	-0.063722
C72	C	1.356060	0.658314	0.436278
C73	C	0.892496	0.535908	-0.066444
C74	C	1.392496	1.035908	0.433556
C75	C	0.885537	0.617432	-0.065926
C76	C	1.385537	1.117432	0.434074
C77	C	1.028508	0.636764	-0.076561
C78	C	1.528508	1.136764	0.423439
C79	C	1.035466	0.555244	-0.077071
C80	C	1.535466	1.055244	0.422929
C81	C	0.967461	0.504821	-0.072018
C82	C	1.467461	1.004821	0.427982
C83	C	0.909981	0.373587	-0.067739
C84	C	1.409981	0.873587	0.432261
C85	C	0.974581	0.421497	-0.072549
C86	C	1.474581	0.921497	0.427451
N87	N	0.952083	-0.092081	-0.275630
N88	N	1.452083	0.407919	0.224370
C89	C	0.980580	-0.061754	0.177063
C90	C	1.480580	0.438246	0.677063
C91	C	0.976260	-0.066346	0.267957
C92	C	1.476260	0.433654	0.767957
C93	C	0.923853	-0.122020	0.317148
C94	C	1.423853	0.377980	0.817148
C95	C	0.875757	-0.173099	0.275442
C96	C	1.375757	0.326901	0.775442
C97	C	0.880073	-0.168503	0.184550
C98	C	1.380073	0.331497	0.684550
C99	C	0.908303	-0.138564	0.591771
C100	C	1.408303	0.361436	1.091771
C101	C	0.903992	-0.143158	0.682670
C102	C	1.403992	0.356842	1.182670
C103	C	1.004494	-0.036404	0.675178
C104	C	1.504494	0.463596	1.175178
C105	C	1.008809	-0.031816	0.584285
C106	C	1.508809	0.468184	1.084285
C107	C	0.960710	-0.082892	0.542586
C108	C	1.460710	0.417108	1.042586
C109	C	0.919438	-0.126716	0.410057
C110	C	1.419438	0.373284	0.910057
C111	C	0.965122	-0.078191	0.449680
C112	C	1.465122	0.421809	0.949680
H113	H	0.175483	-0.104505	0.054812
H114	H	0.675483	0.395495	0.554812
H115	H	1.035618	0.396179	-0.077108
H116	H	1.535618	0.896179	0.422892
H117	H	0.861314	-0.188497	0.722718
H118	H	1.361314	0.311503	1.222718
H119	H	1.023258	-0.016422	0.137016
H120	H	1.523258	0.483578	0.637016
H121	H	0.709078	-0.100434	-0.195082
H122	H	1.209078	0.399566	0.304918
H123	H	0.559116	-0.098549	-0.183897
H124	H	1.059116	0.401451	0.316103
H125	H	0.833082	-0.218427	0.315499
H126	H	1.333082	0.281573	0.815499
H127	H	1.047439	0.300221	-0.077958
H128	H	1.547439	0.800221	0.422042
H129	H	0.800686	0.117259	-0.059602
H130	H	1.300686	0.617259	0.440398
H131	H	1.083874	0.677827	-0.080676
H132	H	1.583874	1.177827	0.419324
H133	H	1.096510	0.529934	-0.081612
H134	H	1.596510	1.029934	0.418388
H135	H	0.461130	-0.097524	-0.172657
H136	H	0.961130	0.402476	0.327343
H137	H	0.837121	0.494863	-0.062329
H138	H	1.337121	0.994863	0.437671
H139	H	0.824488	0.642743	-0.061371
H140	H	1.324488	1.142743	0.438629
H141	H	1.043653	0.005181	0.709138
H142	H	1.543653	0.505181	1.209138
H143	H	0.788057	0.265154	-0.058671
H144	H	1.288057	0.765154	0.441329
H145	H	0.848944	0.398912	-0.063197
H146	H	1.348944	0.898912	0.436803
H147	H	0.325446	-0.106378	0.043628
H148	H	0.825446	0.393622	0.543628
H149	H	0.545518	-0.112978	0.101722
H150	H	1.045518	0.387022	0.601722
H151	H	0.869140	-0.180154	0.557828
H152	H	1.369140	0.319846	1.057828
H153	H	0.840912	-0.210094	0.150598
H154	H	1.340912	0.289906	0.650598
H155	H	1.007789	-0.032859	0.409626
H156	H	1.507789	0.467141	0.909626
H157	H	1.015418	-0.024755	0.301909
H158	H	1.515418	0.475245	0.801909
H159	H	0.695493	-0.114870	0.090543
H160	H	1.195493	0.385130	0.590543
H161	H	0.876768	-0.172048	0.450116
H162	H	1.376768	0.327952	0.950116
H163	H	1.051483	0.013518	0.544234
H164	H	1.551483	0.513518	1.044234
H165	H	0.189068	-0.090055	-0.230811
H166	H	0.689068	0.409945	0.269189
H167	H	0.339042	-0.091941	-0.241998
H168	H	0.839042	0.408059	0.258002
H169	H	0.423426	-0.107409	0.032388
H170	H	0.923426	0.392591	0.532388
H171	H	1.060073	0.152340	-0.078884
H172	H	1.560073	0.652340	0.421116
