data_functionalizedCrystal
_audit_creation_method	'MofGen! by Chris Wilmer'
_symmetry_space_group_name_H-M	'P1'
_symmetry_Int_Tables_number	1
_symmetry_cell_setting	triclinic
loop_
_symmetry_equiv_pos_as_xyz
  x,y,z
_cell_length_a	19.288864
_cell_length_b	10.540539
_cell_length_c	17.766277
_cell_angle_alpha	89.995823
_cell_angle_beta	89.976791
_cell_angle_gamma	83.830869
loop_
_atom_site_label
_atom_site_type_symbol
_atom_site_fract_x
_atom_site_fract_y
_atom_site_fract_z
O1	O	0.922410	0.158345	-0.062832
O2	O	0.720292	0.179706	-0.062781
O3	O	0.825962	-0.015784	-0.062807
O4	O	0.816739	0.353835	-0.062806
O5	O	0.825943	-0.015794	0.062382
O6	O	0.720273	0.179696	0.062408
O7	O	0.922391	0.158335	0.062356
Cu8	Cu	0.821330	0.169015	0.073813
Cu9	Cu	0.821352	0.169026	-0.074237
O10	O	0.816721	0.353825	0.062382
C11	C	0.694401	0.179013	-0.000180
C12	C	0.617284	0.176950	-0.000160
C13	C	0.573353	0.291654	-0.000172
C14	C	0.500893	0.289716	-0.000180
C15	C	0.472367	0.173067	-0.000192
C16	C	0.516308	0.058347	-0.000176
C17	C	0.588766	0.060289	-0.000160
C18	C	0.363500	0.081371	-0.044076
C19	C	0.291042	0.079434	-0.044097
C20	C	0.248881	0.167074	-0.000237
C21	C	0.279185	0.256671	0.043633
C22	C	0.351644	0.258613	0.043649
C23	C	0.393799	0.170949	-0.000208
C24	C	0.126381	0.279684	-0.000257
C25	C	0.053919	0.277741	-0.000261
C26	C	0.069336	0.046369	-0.000264
C27	C	0.141795	0.048315	-0.000253
C28	C	0.170313	0.164976	-0.000253
C29	C	0.825261	-0.063076	-0.000214
C30	C	0.823192	-0.203978	-0.000217
C31	C	0.743903	-0.385638	-0.000478
C32	C	0.746000	-0.239067	-0.000197
C33	C	0.860329	-0.266470	0.071262
C34	C	0.857694	-0.412955	0.071323
C35	C	0.859286	-0.413497	-0.071040
C36	C	0.859997	-0.266531	-0.071986
C37	C	0.948281	0.159027	-0.000246
C38	C	1.025399	0.161091	-0.000271
C39	C	0.817422	0.401117	-0.000212
C40	C	0.819491	0.542019	-0.000214
N41	N	0.821320	0.169006	0.177943
N42	N	0.821368	0.169025	-0.178368
C43	C	0.868126	0.082485	0.217318
C44	C	0.868130	0.082479	0.296120
C45	C	0.821334	0.169016	0.335544
C46	C	0.774519	0.255543	0.296159
C47	C	0.774512	0.255538	0.217359
C48	C	0.812807	0.284670	0.460383
C49	C	0.812819	0.284676	0.539182
C50	C	0.821353	0.169031	0.578590
C51	C	0.829889	0.053373	0.539189
C52	C	0.829882	0.053368	0.460389
C53	C	0.821337	0.169030	0.420989
C54	C	0.868166	0.082497	0.703411
C55	C	0.868165	0.082489	0.782214
C56	C	0.774558	0.255564	0.782252
C57	C	0.774555	0.255560	0.703450
C58	C	0.821363	0.169028	0.664034
H59	H	0.018151	0.371151	-0.000266
N60	N	0.384331	0.355235	0.090965
H61	H	0.346633	0.410464	0.118749
H62	H	0.417485	0.309322	0.128431
H63	H	0.832824	-0.225063	-0.124864
N64	N	0.485539	-0.067462	-0.000182
H65	H	0.455846	-0.073425	-0.046597
H66	H	0.524403	-0.139766	-0.000142
N67	N	0.233723	0.351213	0.090939
H68	H	0.183223	0.336388	0.084276
H69	H	0.247151	0.339684	0.145648
N70	N	0.038580	-0.079449	-0.000268
H71	H	-0.013989	-0.063276	-0.000277
H72	H	0.054634	-0.129625	-0.046674
N73	N	0.839112	-0.071367	0.581683
H74	H	0.844526	-0.144630	0.544767
H75	H	0.882092	-0.074191	0.614347
N76	N	0.258358	-0.017196	-0.091409
H77	H	0.270213	-0.005046	-0.146135
H78	H	0.276920	-0.106119	-0.074963
N79	N	0.189184	-0.075402	-0.000240
H80	H	0.160120	-0.149596	-0.000248
H81	H	0.219610	-0.079636	-0.046641
H82	H	0.906278	0.012033	0.671318
N83	N	0.826208	-0.454551	-0.142806
H84	H	0.776094	-0.415499	-0.145155
H85	H	0.852601	-0.425026	-0.187492
H86	H	0.397822	0.010002	-0.079796
N87	N	0.724042	0.348873	0.338674
H88	H	0.731150	0.335750	0.394569
H89	H	0.732505	0.438885	0.324888
N90	N	0.636154	-0.063432	-0.000144
H91	H	0.607091	-0.137627	-0.000149
H92	H	0.666578	-0.067666	-0.046547
N93	N	0.724078	0.348891	0.824762
H94	H	0.750893	0.404978	0.857440
H95	H	0.694438	0.403615	0.787807
N96	N	0.604102	0.417485	-0.000173
H97	H	0.588095	0.467721	0.046230
H98	H	0.656666	0.401219	-0.000192
N99	N	0.707292	-0.181762	-0.068067
H100	H	0.730116	-0.219088	-0.115460
H101	H	0.657250	-0.201606	-0.066127
N102	N	0.931225	-0.478147	0.075605
H103	H	0.965205	-0.411687	0.077449
H104	H	0.936505	-0.532582	0.122461
H105	H	0.836830	-0.040804	0.428312
H106	H	0.916276	-0.243564	-0.076317
H107	H	0.713418	-0.413555	-0.051736
H108	H	0.713527	-0.415173	0.050509
H109	H	0.716558	-0.196659	0.051142
H110	H	0.906238	0.012023	0.185229
H111	H	0.915041	-0.461966	-0.071535
H112	H	0.906246	0.012021	0.328185
N113	N	0.803609	0.409413	0.417885
H114	H	0.804898	0.391862	0.361987
H115	H	0.757284	0.457741	0.431680
H116	H	0.736444	0.326019	0.671388
H117	H	0.736396	0.325994	0.185298
N118	N	0.453500	0.413439	-0.000205
H119	H	0.403271	0.394504	-0.000217
H120	H	0.462769	0.464306	0.046203
N121	N	0.918663	-0.010813	0.824688
H122	H	0.948318	-0.065616	0.787758
H123	H	0.949599	0.037678	0.857355
H124	H	0.805873	0.378851	0.571256
N125	N	0.157146	0.405503	-0.000253
H126	H	0.118318	0.477876	-0.000255
H127	H	0.186851	0.411342	0.046160
N128	N	0.821317	-0.449506	0.142117
H129	H	0.772399	-0.404438	0.143336
H130	H	0.819294	-0.544847	0.142825
N131	N	0.935421	-0.238555	0.074744
H132	H	0.937340	-0.143253	0.077015
H133	H	0.958238	-0.279714	0.121121
N134	N	0.826151	-0.209278	0.141744
H135	H	0.786618	-0.142907	0.127536
H136	H	0.807364	-0.278699	0.172393
