data_functionalizedCrystal
_audit_creation_method	'MofGen! by Chris Wilmer'
_symmetry_space_group_name_H-M	'P1'
_symmetry_Int_Tables_number	1
_symmetry_cell_setting	triclinic
loop_
_symmetry_equiv_pos_as_xyz
  x,y,z
_cell_length_a	16.992701
_cell_length_b	17.019294
_cell_length_c	15.455313
_cell_angle_alpha	88.788101
_cell_angle_beta	87.136501
_cell_angle_gamma	87.022292
loop_
_atom_site_label
_atom_site_type_symbol
_atom_site_fract_x
_atom_site_fract_y
_atom_site_fract_z
O1	O	1.044227	0.163464	-0.084344
O2	O	0.815938	0.161637	-0.084208
O3	O	0.936044	0.048501	-0.075754
O4	O	0.924121	0.276600	-0.092799
O5	O	0.929176	0.054943	0.068027
O6	O	0.809069	0.168078	0.059572
O7	O	1.037359	0.169905	0.059436
Cu8	Cu	0.922587	0.169580	0.072633
Cu9	Cu	0.930710	0.161963	-0.097405
O10	O	0.917252	0.283041	0.050982
C11	C	0.783285	0.162506	-0.012142
C12	C	0.696224	0.155487	-0.011618
C13	C	0.207149	0.108327	-0.008097
C14	C	0.288952	0.114928	-0.008585
C15	C	0.320677	0.189258	-0.014144
C16	C	0.270594	0.256991	-0.019206
C17	C	0.188793	0.250390	-0.018711
C18	C	0.564340	0.216618	-0.016186
C19	C	0.646148	0.223215	-0.016682
C20	C	0.664500	0.081151	-0.006060
C21	C	0.582697	0.074556	-0.005572
C22	C	0.532621	0.142290	-0.010629
N23	N	0.404292	0.196007	-0.014645
N24	N	0.449007	0.135540	-0.010121
C25	C	0.932023	0.022400	-0.001674
C26	C	0.930263	-0.064969	0.004849
C27	C	0.933182	-0.109522	-0.070460
C28	C	0.931523	-0.191614	-0.064328
C29	C	0.926951	-0.229152	0.017115
C30	C	0.924029	-0.184593	0.092430
C31	C	0.925682	-0.102502	0.086297
C32	C	0.921766	-0.476839	0.039553
C33	C	0.920116	-0.558936	0.045681
C34	C	0.927608	-0.565951	-0.111078
C35	C	0.929265	-0.483858	-0.117204
C36	C	0.926340	-0.439306	-0.041889
C37	C	0.925257	-0.313064	0.023385
C38	C	0.928027	-0.355396	-0.048159
C39	C	1.070012	0.169037	-0.012632
C40	C	1.157073	0.176055	-0.013161
C41	C	0.921274	0.309142	-0.023100
C42	C	0.923034	0.396511	-0.029629
N43	N	0.916880	0.174938	0.192228
N44	N	0.936423	0.156599	-0.216999
C45	C	0.967923	0.126893	0.241212
C46	C	0.963614	0.130953	0.331717
C47	C	0.908265	0.183061	0.373235
C48	C	0.857216	0.231107	0.324244
C49	C	0.861522	0.227043	0.233741
C50	C	0.889680	0.200581	0.643507
C51	C	0.885380	0.204643	0.734016
C52	C	0.991777	0.104488	0.741483
C53	C	0.996081	0.100432	0.650978
C54	C	0.945030	0.148475	0.601995
N55	N	0.903861	0.187213	0.465745
N56	N	0.949430	0.144318	0.509487
H57	H	0.936909	-0.078965	-0.136780
H58	H	0.671974	0.283746	-0.021196
H59	H	0.812146	0.273532	0.358053
H60	H	1.033340	0.065372	0.781373
O61	O	0.919552	-0.220928	0.171612
C62	C	0.917349	-0.164000	0.236767
H63	H	0.894819	-0.104816	0.209291
H64	H	0.876216	-0.182664	0.293162
H65	H	0.979228	-0.158485	0.260535
O66	O	0.713229	0.015412	-0.001260
C67	C	0.764640	0.011626	-0.075702
H68	H	0.770113	0.073172	-0.105217
H69	H	0.825246	-0.013043	-0.057052
H70	H	0.740134	-0.028310	-0.125032
H71	H	0.840306	0.247079	0.767815
H72	H	0.921537	-0.343637	0.089695
H73	H	0.923295	-0.066227	0.147622
O74	O	1.049868	0.049742	0.610790
C75	C	1.094011	0.008220	0.673432
H76	H	1.058790	0.008190	0.738173
H77	H	1.107069	-0.054978	0.651922
H78	H	1.151868	0.037872	0.680855
O79	O	0.176305	0.036133	-0.002853
C80	C	0.133078	0.024729	-0.076704
H81	H	0.155007	0.064692	-0.131915
H82	H	0.141463	-0.039289	-0.096994
H83	H	0.067813	0.039563	-0.060922
O84	O	0.934433	-0.234779	-0.137570
C85	C	0.938826	-0.184044	-0.210768
H86	H	0.963682	-0.126184	-0.192018
H87	H	0.979040	-0.212808	-0.263594
H88	H	0.877311	-0.172114	-0.235881
H89	H	0.523578	0.271772	-0.020308
O90	O	1.013228	0.084402	0.379391
C91	C	1.059222	0.131929	0.428333
H92	H	1.027485	0.192072	0.437438
H93	H	1.068521	0.102762	0.494371
H94	H	1.118852	0.139382	0.392769
O95	O	0.140186	0.316196	-0.023789
C96	C	0.158159	0.357692	-0.101597
H97	H	0.188502	0.315613	-0.150672
H98	H	0.101393	0.384448	-0.128675
H99	H	0.199113	0.406569	-0.088361
H100	H	0.296431	0.317512	-0.023726
H101	H	0.329721	0.059777	-0.004458
H102	H	0.932990	-0.453301	-0.183523
O103	O	0.840059	0.247333	0.596061
C104	C	0.790275	0.294182	0.652117
H105	H	0.819364	0.300003	0.716401
H106	H	0.779704	0.355034	0.621330
H107	H	0.731502	0.265396	0.663949
H108	H	0.929988	-0.602234	-0.172395
O109	O	0.915634	-0.595275	0.124867
C110	C	0.913425	-0.538351	0.190028
H111	H	0.890895	-0.479166	0.162556
H112	H	0.872289	-0.557021	0.246417
H113	H	0.975302	-0.532837	0.213803
O114	O	0.552009	0.002294	-0.000122
C115	C	0.613751	-0.056072	0.004224
H116	H	0.668072	-0.029323	0.029532
H117	H	0.594541	-0.105783	0.049828
H118	H	0.628566	-0.080308	-0.063173
O119	O	0.811905	0.273795	0.186283
C120	C	0.762116	0.320646	0.242333
H121	H	0.791201	0.326471	0.306620
H122	H	0.751545	0.381496	0.211542
H123	H	0.703344	0.291858	0.254161
O124	O	0.932327	-0.318967	-0.127294
C125	C	0.866359	-0.336542	-0.173834
H126	H	0.816287	-0.353814	-0.126533
H127	H	0.846368	-0.282591	-0.213537
H128	H	0.883079	-0.387429	-0.219066
O129	O	0.919046	-0.433485	0.112646
C130	C	0.987643	-0.390446	0.114135
H131	H	1.013757	-0.382747	0.045279
H132	H	0.971964	-0.330188	0.142913
H133	H	1.032675	-0.423599	0.155417
O134	O	1.021713	0.076207	0.201025
C135	C	1.065853	0.034686	0.263671
H136	H	1.030629	0.034659	0.328411
H137	H	1.078910	-0.028513	0.242164
H138	H	1.123711	0.064337	0.271096
