data_functionalizedCrystal
_audit_creation_method	'MofGen! by Chris Wilmer'
_symmetry_space_group_name_H-M	'P1'
_symmetry_Int_Tables_number	1
_symmetry_cell_setting	triclinic
loop_
_symmetry_equiv_pos_as_xyz
  x,y,z
_cell_length_a	18.050589
_cell_length_b	18.050591
_cell_length_c	18.050582
_cell_angle_alpha	89.979078
_cell_angle_beta	90.018205
_cell_angle_gamma	89.975773
loop_
_atom_site_label
_atom_site_type_symbol
_atom_site_fract_x
_atom_site_fract_y
_atom_site_fract_z
Zn1	Zn	-0.295786	-1.135293	0.420054
Zn2	Zn	0.037548	-0.801959	0.753387
Zn3	Zn	0.370881	-0.468626	1.086721
Zn4	Zn	-0.419969	-1.135203	0.295873
Zn5	Zn	-0.086636	-0.801870	0.629207
Zn6	Zn	0.246698	-0.468537	0.962540
Zn7	Zn	-0.295789	-1.011112	0.295865
Zn8	Zn	0.037545	-0.677778	0.629198
Zn9	Zn	0.370878	-0.344445	0.962532
Zn10	Zn	-0.419930	-1.011060	0.420009
Zn11	Zn	-0.086596	-0.677726	0.753342
Zn12	Zn	0.246737	-0.344393	1.086676
O13	O	-0.357868	-1.073167	0.357950
O14	O	-0.024535	-0.739833	0.691284
O15	O	0.308798	-0.406500	1.024617
O16	O	-0.312274	-1.239205	0.403603
O17	O	0.021059	-0.905872	0.736937
O18	O	0.354393	-0.572539	1.070270
O19	O	-0.403514	-1.118727	0.191948
O20	O	-0.070181	-0.785393	0.525281
O21	O	0.263153	-0.452060	0.858614
O22	O	-0.191864	-1.027644	0.312354
O23	O	0.141470	-0.694310	0.645688
O24	O	0.474803	-0.360977	0.979021
O25	O	-0.403511	-1.239140	0.312369
O26	O	-0.070178	-0.905806	0.645702
O27	O	0.263156	-0.572473	0.979035
O28	O	-0.191862	-1.118879	0.403595
O29	O	0.141472	-0.785545	0.736929
O30	O	0.474805	-0.452212	1.070262
O31	O	-0.312279	-1.027557	0.191942
O32	O	0.021054	-0.694224	0.525275
O33	O	0.354387	-0.360890	0.858608
O34	O	-0.312241	-0.907180	0.312311
O35	O	0.021092	-0.573847	0.645644
O36	O	0.354426	-0.240514	0.978977
O37	O	-0.403444	-1.027555	0.523940
O38	O	-0.070111	-0.694222	0.857273
O39	O	0.263223	-0.360888	1.190606
O40	O	-0.403447	-0.907142	0.403519
O41	O	-0.070114	-0.573809	0.736852
O42	O	0.263220	-0.240475	1.070185
O43	O	-0.312236	-1.118828	0.523973
O44	O	0.021097	-0.785495	0.857306
O45	O	0.354431	-0.452162	1.190639
O46	O	-0.523888	-1.118676	0.312325
O47	O	-0.190555	-0.785343	0.645658
O48	O	0.142778	-0.452010	0.978992
O49	O	-0.523860	-1.027468	0.403527
O50	O	-0.190526	-0.694135	0.736860
O51	O	0.142807	-0.360802	1.070193
C52	C	-0.550820	-1.073077	0.357938
C53	C	-0.217487	-0.739744	0.691271
C54	C	0.115846	-0.406410	1.024605
C55	C	-0.633366	-1.073107	0.357958
C56	C	-0.300033	-0.739773	0.691291
C57	C	0.033300	-0.406440	1.024624
C58	C	-0.357841	-0.880215	0.357909
C59	C	-0.024507	-0.546881	0.691243
C60	C	0.308826	-0.213548	1.024576
C61	C	-0.357847	-0.797669	0.357909
C62	C	-0.024513	-0.464336	0.691243
C63	C	0.308820	-0.131002	1.024576
C64	C	-0.357835	-1.073196	0.551656
C65	C	-0.024502	-0.739863	0.884989
C66	C	0.308831	-0.406529	1.218323
C67	C	-0.357821	-1.073208	0.634202
C68	C	-0.024488	-0.739875	0.967535
C69	C	0.308845	-0.406542	1.300868
C70	C	-0.832828	-1.023557	0.407536
C71	C	-0.499495	-0.690223	0.740869
C72	C	-0.166161	-0.356890	1.074202
C73	C	-0.882261	-1.005459	0.339767
C74	C	-0.548928	-0.672126	0.673100
C75	C	-0.215594	-0.338792	1.006433
C76	C	-0.784497	-1.073180	0.357967
C77	C	-0.451163	-0.739846	0.691301
C78	C	-0.117830	-0.406513	1.024634
C79	C	-0.882146	-1.091314	0.425744
C80	C	-0.548812	-0.757981	0.759078
C81	C	-0.215479	-0.424647	1.092411
C82	C	-0.930482	-1.073249	0.357983
C83	C	-0.597148	-0.739915	0.691316
C84	C	-0.263815	-0.406582	1.024649
C85	C	-0.832842	-1.055046	0.290162
C86	C	-0.499509	-0.721713	0.623495
C87	C	-0.166175	-0.388380	0.956829
C88	C	-0.832722	-1.140933	0.376186
C89	C	-0.499389	-0.807600	0.709519
C90	C	-0.166056	-0.474266	1.042852
C91	C	-0.882133	-1.122861	0.308370
C92	C	-0.548799	-0.789527	0.641703
C93	C	-0.215466	-0.456194	0.975036
C94	C	-0.700398	-1.073138	0.357959
C95	C	-0.367065	-0.739805	0.691293
C96	C	-0.033732	-0.406471	1.024626
C97	C	-1.014578	-1.073291	0.357983
C98	C	-0.681245	-0.739957	0.691316
C99	C	-0.347911	-0.406624	1.024649
C100	C	-0.164163	-1.073277	0.357979
C101	C	0.169171	-0.739944	0.691312
C102	C	0.502504	-0.406610	1.024646
C103	C	-0.081617	-1.073324	0.357991
C104	C	0.251716	-0.739991	0.691325
C105	C	0.585050	-0.406657	1.024658
C106	C	-0.357897	-1.266872	0.357992
C107	C	-0.024563	-0.933539	0.691325
C108	C	0.308770	-0.600206	1.024659
C109	C	-0.357909	-1.349418	0.358010
C110	C	-0.024575	-1.016085	0.691343
C111	C	0.308758	-0.682751	1.024676
C112	C	-0.308191	-0.598217	0.308425
C113	C	0.025142	-0.264884	0.641758
C114	C	0.358475	0.068449	0.975091
C115	C	-0.375927	-0.548798	0.290154
C116	C	-0.042594	-0.215464	0.623487
C117	C	0.290739	0.117869	0.956820
C118	C	-0.357869	-0.646539	0.357943
C119	C	-0.024536	-0.313205	0.691276
C120	C	0.308797	0.020128	1.024610
C121	C	-0.290157	-0.548877	0.376212
C122	C	0.043176	-0.215543	0.709545
C123	C	0.376510	0.117790	1.042879
C124	C	-0.357885	-0.500553	0.357974
C125	C	-0.024552	-0.167220	0.691307
C126	C	0.308782	0.166113	1.024641
C127	C	-0.425641	-0.598206	0.339637
C128	C	-0.092307	-0.264873	0.672970
C129	C	0.241026	0.068461	1.006303
C130	C	-0.339825	-0.598289	0.425726
C131	C	-0.006491	-0.264956	0.759060
C132	C	0.326842	0.068378	1.092393
C133	C	-0.407607	-0.548892	0.407481
C134	C	-0.074274	-0.215558	0.740814
C135	C	0.259059	0.117775	1.074148
C136	C	-0.357859	-0.730637	0.357923
C137	C	-0.024526	-0.397303	0.691256
C138	C	0.308808	-0.063970	1.024590
C139	C	-0.357903	-0.416457	0.357994
C140	C	-0.024569	-0.083124	0.691327
C141	C	0.308764	0.250210	1.024660
C142	C	-0.357848	-1.073181	0.164998
C143	C	-0.024514	-0.739847	0.498332
C144	C	0.308819	-0.406514	0.831665
C145	C	-0.357652	-1.073312	0.082453
C146	C	-0.024319	-0.739979	0.415786
C147	C	0.309014	-0.406645	0.749120
C148	C	-0.407353	-1.023612	0.833635
C149	C	-0.074019	-0.690278	1.166968
C150	C	0.259314	-0.356945	1.500301
C151	C	-0.425511	-1.091367	0.883034
C152	C	-0.092177	-0.758034	1.216368
C153	C	0.241156	-0.424700	1.549701
C154	C	-0.357765	-1.073245	0.785332
C155	C	-0.024431	-0.739912	1.118666
C156	C	0.308902	-0.406578	1.451999
C157	C	-0.339586	-1.005527	0.883014
C158	C	-0.006253	-0.672194	1.216348
C159	C	0.327081	-0.338860	1.549681
C160	C	-0.357711	-1.073274	0.931317
C161	C	-0.024378	-0.739941	1.264651
C162	C	0.308955	-0.406608	1.597984
C163	C	-0.375958	-1.141036	0.833645
C164	C	-0.042625	-0.807702	1.166978
C165	C	0.290708	-0.474369	1.500312
C166	C	-0.290002	-1.055150	0.833620
C167	C	0.043331	-0.721816	1.166954
C168	C	0.376665	-0.388483	1.500287
C169	C	-0.308134	-1.122952	0.882998
C170	C	0.025199	-0.789619	1.216331
C171	C	0.358532	-0.456285	1.549665
C172	C	-0.357797	-1.073227	0.701234
C173	C	-0.024464	-0.739894	1.034567
C174	C	0.308869	-0.406560	1.367901
C175	C	-0.357679	-1.073300	1.015414
C176	C	-0.024345	-0.739967	1.348747
C177	C	0.308988	-0.406633	1.682081
H178	H	-0.811178	-0.981531	0.449395
H179	H	-0.477845	-0.648197	0.782728
H180	H	-0.144512	-0.314864	1.116062
H181	H	-0.482794	-1.106690	0.904739
H182	H	-0.149460	-0.773357	1.238073
H183	H	0.183873	-0.440023	1.571406
Br184	Br	-0.477333	-0.953718	0.797507
Br185	Br	-0.144000	-0.620385	1.130840
Br186	Br	0.189333	-0.287051	1.464173
H187	H	-0.324530	-0.620045	0.483019
H188	H	0.008804	-0.286711	0.816352
H189	H	0.342137	0.046622	1.149686
Br190	Br	-0.917989	-1.192858	0.238438
Br191	Br	-0.584656	-0.859525	0.571771
Br192	Br	-0.251323	-0.526191	0.905105
H193	H	-0.810948	-1.198184	0.391613
H194	H	-0.477615	-0.864851	0.724947
H195	H	-0.144282	-0.531518	1.058280
Br196	Br	-0.194706	-0.512751	0.401942
Br197	Br	0.138627	-0.179418	0.735276
Br198	Br	0.471961	0.153915	1.068609
Br199	Br	-0.796901	-1.029421	0.194609
Br200	Br	-0.463568	-0.696087	0.527943
Br201	Br	-0.130234	-0.362754	0.861276
H202	H	-0.903802	-1.106625	0.483056
H203	H	-0.570469	-0.773291	0.816390
H204	H	-0.237136	-0.439958	1.149723
Br205	Br	-0.238201	-1.193007	0.918901
Br206	Br	0.095132	-0.859674	1.252234
Br207	Br	0.428465	-0.526341	1.585567
Br208	Br	-0.313995	-0.910058	0.919163
Br209	Br	0.019338	-0.576724	1.252496
Br210	Br	0.352672	-0.243391	1.585830
H211	H	-0.266226	-0.619875	0.266503
H212	H	0.067108	-0.286542	0.599837
H213	H	0.400441	0.046791	0.933170
Br214	Br	-0.401388	-0.512566	0.194635
Br215	Br	-0.068055	-0.179232	0.527969
Br216	Br	0.265279	0.154101	0.861302
Br217	Br	-0.401665	-1.236534	0.797657
Br218	Br	-0.068331	-0.903201	1.130991
Br219	Br	0.265002	-0.569868	1.464324
H220	H	-0.482928	-0.619785	0.324134
H221	H	-0.149595	-0.286451	0.657467
H222	H	0.183739	0.046882	0.990801
H223	H	-0.232736	-1.039807	0.811899
H224	H	0.100598	-0.706474	1.145232
H225	H	0.433931	-0.373141	1.478566
Br226	Br	-0.918525	-0.910010	0.314083
Br227	Br	-0.585192	-0.576677	0.647416
Br228	Br	-0.251859	-0.243343	0.980749
Br229	Br	-0.477716	-0.513018	0.477302
Br230	Br	-0.144382	-0.179685	0.810635
Br231	Br	0.188951	0.153648	1.143969
