data_functionalizedCrystal
_audit_creation_method	'MofGen! by Chris Wilmer'
_symmetry_space_group_name_H-M	'P1'
_symmetry_Int_Tables_number	1
_symmetry_cell_setting	triclinic
loop_
_symmetry_equiv_pos_as_xyz
  x,y,z
_cell_length_a	19.077105
_cell_length_b	12.594516
_cell_length_c	19.076919
_cell_angle_alpha	92.277239
_cell_angle_beta	90.076224
_cell_angle_gamma	87.712633
loop_
_atom_site_label
_atom_site_type_symbol
_atom_site_fract_x
_atom_site_fract_y
_atom_site_fract_z
Zn1	Zn	1.058319	-0.514930	-0.440450
Zn2	Zn	1.062975	-0.686069	-0.322954
Zn3	Zn	0.945535	-0.500672	-0.318243
Zn4	Zn	0.940797	-0.685427	-0.435707
O5	O	1.001907	-0.596775	-0.379338
O6	O	1.157269	-0.543868	-0.428821
O7	O	1.051328	-0.655777	-0.223998
O8	O	0.960531	-0.353620	-0.334467
O9	O	1.160690	-0.669603	-0.342497
O10	O	1.043393	-0.364096	-0.424253
O11	O	0.965046	-0.519567	-0.220536
O12	O	0.846574	-0.518944	-0.329868
O13	O	0.952455	-0.668509	-0.534668
O14	O	0.843093	-0.654683	-0.416168
O15	O	1.038798	-0.543246	-0.538153
O16	O	1.046733	-0.834927	-0.337898
O17	O	0.956969	-0.834455	-0.420737
C18	C	0.819337	-0.585197	-0.371992
C19	C	0.741233	-0.580271	-0.368866
C20	C	0.702747	-0.648728	-0.412259
C21	C	0.629360	-0.644085	-0.409325
C22	C	0.594459	-0.570991	-0.362994
C23	C	0.632949	-0.502527	-0.319600
C24	C	0.706335	-0.507165	-0.322538
C25	C	0.375169	-0.549525	-0.349400
C26	C	0.301778	-0.544895	-0.346464
C27	C	0.298194	-0.686452	-0.436191
C28	C	0.371582	-0.691088	-0.439121
C29	C	0.410065	-0.622620	-0.395730
N30	N	0.519445	-0.566246	-0.359993
N31	N	0.485078	-0.627361	-0.398735
C32	C	1.001861	-0.873312	-0.379330
C33	C	1.001905	-0.991622	-0.379352
C34	C	0.953079	-1.060655	-0.424375
C35	C	0.938538	-1.126689	-0.359570
C36	C	1.016509	-1.136391	-0.444171
C37	C	0.987331	-1.056094	-0.314511
C38	C	1.065330	-1.065794	-0.399157
C39	C	1.050816	-1.131795	-0.334309
C40	C	1.185189	-0.608398	-0.386714
C41	C	1.263293	-0.613351	-0.389857
C42	C	0.994578	-0.607396	-0.562619
C43	C	0.991455	-0.611923	-0.640723
C44	C	1.001971	-0.319159	-0.379363
C45	C	1.001998	-0.200856	-0.379374
C46	C	1.034940	-0.548834	-0.679231
C47	C	1.031997	-0.553083	-0.752617
C48	C	0.985572	-0.620426	-0.787494
C49	C	0.942083	-0.683517	-0.748980
C50	C	0.945023	-0.679262	-0.675595
C51	C	0.971956	-0.640139	-1.006776
C52	C	0.969021	-0.644391	-1.080166
C53	C	1.058935	-0.513955	-1.083799
C54	C	1.061873	-0.509711	-1.010412
C55	C	1.018381	-0.572798	-0.971905
N56	N	0.982565	-0.624772	-0.862506
N57	N	1.021386	-0.568445	-0.896894
C58	C	1.009247	-0.586120	-0.196772
C59	C	1.012506	-0.581302	-0.118675
H60	H	0.911720	-1.029418	-0.462389
C61	C	1.032979	-1.183005	-0.517291
C62	C	1.042547	-1.100421	-0.562919
C63	C	1.057724	-1.143317	-0.630280
H64	H	0.995165	-1.224266	-0.533470
H65	H	1.074611	-1.226853	-0.515856
H66	H	1.000921	-1.056591	-0.564356
H67	H	1.080364	-1.059153	-0.546763
H68	H	1.099355	-1.187164	-0.628845
H69	H	1.019907	-1.184577	-0.646452
H70	H	1.064224	-1.087290	-0.661246
H71	H	0.936552	-0.691524	-0.975432
C72	C	0.891748	-0.756603	-0.786973
C73	C	0.898493	-0.746850	-0.859483
C74	C	0.852143	-0.814174	-0.894503
H75	H	0.844988	-0.737403	-0.773128
H76	H	0.902501	-0.828097	-0.775393
H77	H	0.887735	-0.675371	-0.871058
H78	H	0.945243	-0.766058	-0.873348
H79	H	0.862896	-0.885669	-0.882923
H80	H	0.805387	-0.794969	-0.880653
H81	H	0.856718	-0.807573	-0.943705
H82	H	1.072746	-0.494000	-0.650841
H83	H	0.737669	-0.451416	-0.287206
H84	H	0.273363	-0.485360	-0.308740
H85	H	1.099679	-0.454876	-0.982021
H86	H	1.067409	-0.501712	-0.783968
C87	C	1.105827	-1.173325	-0.283440
C88	C	1.073318	-1.230891	-0.232180
C89	C	1.123969	-1.269178	-0.185312
H90	H	1.128823	-1.115212	-0.261624
H91	H	1.139236	-1.218382	-0.308236
H92	H	1.039921	-1.185838	-0.207386
H93	H	1.050326	-1.289019	-0.253975
H94	H	1.157379	-1.314235	-0.210108
H95	H	1.146962	-1.211059	-0.163501
H96	H	1.101920	-1.308249	-0.150530
C97	C	1.106265	-0.445592	-1.125575
C98	C	1.176500	-0.472157	-1.110539
C99	C	1.220121	-0.409207	-1.149016
H100	H	1.096569	-0.372700	-1.113173
H101	H	1.097914	-0.457779	-1.174284
H102	H	1.184848	-0.459962	-1.061841
H103	H	1.186218	-0.545039	-1.122943
H104	H	1.211769	-0.421394	-1.197725
H105	H	1.210419	-0.336319	-1.136611
H106	H	1.267780	-0.427230	-1.138825
C107	C	0.897789	-0.747897	-0.633909
C108	C	0.856520	-0.807813	-0.680157
C109	C	0.813007	-0.871067	-0.641783
H110	H	0.868263	-0.703706	-0.604042
H111	H	0.925797	-0.794371	-0.606379
H112	H	0.828515	-0.761345	-0.707675
H113	H	0.886027	-0.852024	-0.710025
H114	H	0.841015	-0.917540	-0.614253
H115	H	0.783486	-0.826867	-0.611917
H116	H	0.785006	-0.911734	-0.673157
H117	H	0.731159	-0.708252	-0.449984
H118	H	0.884944	-1.153628	-0.342835
C119	C	0.918541	-0.717537	-1.117904
C120	C	0.881068	-0.771855	-1.068474
C121	C	0.834558	-0.839233	-1.103212
H122	H	0.944186	-0.767367	-1.147607
H123	H	0.886754	-0.676557	-1.145287
H124	H	0.912851	-0.812832	-1.041102
H125	H	0.855408	-0.722051	-1.038768
H126	H	0.802770	-0.798253	-1.130595
H127	H	0.860209	-0.889057	-1.132914
H128	H	0.809122	-0.876089	-1.069679
H129	H	0.406494	-0.493782	-0.314062
H130	H	0.266852	-0.742192	-0.471519
C131	C	0.587702	-0.718550	-0.456460
C132	C	0.633975	-0.783584	-0.497642
C133	C	0.595626	-0.852211	-0.541063
H134	H	0.557852	-0.678012	-0.486044
H135	H	0.560156	-0.761544	-0.428389
H136	H	0.661509	-0.740596	-0.525710
H137	H	0.663825	-0.824146	-0.468077
H138	H	0.568080	-0.895205	-0.512993
H139	H	0.565777	-0.811664	-0.570643
H140	H	0.627016	-0.896352	-0.569006
C141	C	1.136810	-1.030082	-0.421560
C142	C	1.181182	-1.119446	-0.436140
C143	C	1.247032	-1.086589	-0.456797
H144	H	1.156395	-0.987572	-0.384844
H145	H	1.131795	-0.989696	-0.462411
H146	H	1.186200	-1.159815	-0.395294
H147	H	1.161620	-1.161965	-0.472860
H148	H	1.242016	-1.046203	-0.497648
H149	H	1.266610	-1.044079	-0.420078
H150	H	1.277144	-1.147217	-0.466698
H151	H	0.604527	-0.443008	-0.281879
C152	C	0.409342	-0.770485	-0.489496
C153	C	0.359930	-0.829427	-0.526883
C154	C	0.394689	-0.902572	-0.573299
H155	H	0.439033	-0.817143	-0.463786
H156	H	0.436741	-0.733455	-0.521342
H157	H	0.332543	-0.866455	-0.495042
H158	H	0.330237	-0.782798	-0.552607
H159	H	0.422088	-0.865542	-0.605144
H160	H	0.424379	-0.949222	-0.547583
H161	H	0.361168	-0.942566	-0.598676
H162	H	0.974954	-1.021106	-0.259686
