data_functionalizedCrystal
_audit_creation_method	'MofGen! by Chris Wilmer'
_symmetry_space_group_name_H-M	'P1'
_symmetry_Int_Tables_number	1
_symmetry_cell_setting	triclinic
loop_
_symmetry_equiv_pos_as_xyz
  x,y,z
_cell_length_a	21.295418
_cell_length_b	21.295417
_cell_length_c	21.295411
_cell_angle_alpha	90.021644
_cell_angle_beta	90.043738
_cell_angle_gamma	90.046319
loop_
_atom_site_label
_atom_site_type_symbol
_atom_site_fract_x
_atom_site_fract_y
_atom_site_fract_z
Zn1	Zn	0.962356	-0.250415	0.356234
Zn2	Zn	1.462356	0.249585	0.856234
Zn3	Zn	0.962258	-0.355667	0.250959
Zn4	Zn	1.462258	0.144333	0.750959
Zn5	Zn	0.857079	-0.250445	0.250943
Zn6	Zn	1.357079	0.249555	0.750943
Zn7	Zn	0.857048	-0.355680	0.356155
Zn8	Zn	1.357048	0.144320	0.856155
O9	O	0.909685	-0.303052	0.303573
O10	O	1.409685	0.196948	0.803573
O11	O	1.050432	-0.264360	0.342308
O12	O	1.550432	0.235640	0.842308
O13	O	0.948278	-0.341716	0.162867
O14	O	1.448278	0.158284	0.662867
O15	O	0.871098	-0.162351	0.264937
O16	O	1.371098	0.337649	0.764937
O17	O	1.050361	-0.341688	0.264963
O18	O	1.550361	0.158312	0.764963
O19	O	0.948444	-0.162330	0.342293
O20	O	1.448444	0.337670	0.842293
O21	O	0.871003	-0.264410	0.162856
O22	O	1.371003	0.235590	0.662856
O23	O	0.768985	-0.264422	0.264861
O24	O	1.268985	0.235578	0.764861
O25	O	0.871046	-0.341709	0.444255
O26	O	1.371046	0.158291	0.944255
O27	O	0.768963	-0.341738	0.342160
O28	O	1.268963	0.158262	0.842160
O29	O	0.948415	-0.264372	0.444313
O30	O	1.448415	0.235628	0.944313
O31	O	0.948248	-0.443758	0.264887
O32	O	1.448248	0.056242	0.764887
O33	O	0.870951	-0.443767	0.342175
O34	O	1.370951	0.056233	0.842175
C35	C	0.746134	-0.303085	0.303500
C36	C	1.246134	0.196915	0.803500
C37	C	0.676166	-0.303114	0.303484
C38	C	1.176166	0.196886	0.803484
C39	C	0.643304	-0.343426	0.343674
C40	C	1.143304	0.156574	0.843674
C41	C	0.577561	-0.343410	0.343702
C42	C	1.077561	0.156590	0.843702
C43	C	0.544683	-0.303090	0.303530
C44	C	1.044683	0.196910	0.803530
C45	C	0.577553	-0.262770	0.263337
C46	C	1.077553	0.237230	0.763337
C47	C	0.643294	-0.262783	0.263315
C48	C	1.143294	0.237217	0.763315
N49	N	0.441407	-0.298163	0.248472
N50	N	0.941407	0.201837	0.748472
N51	N	0.378956	-0.298155	0.248495
N52	N	0.878956	0.201845	0.748495
C53	C	0.346608	-0.303050	0.303596
C54	C	0.846608	0.196950	0.803596
N55	N	0.379072	-0.307965	0.358675
N56	N	0.879072	0.192035	0.858675
N57	N	0.441529	-0.307976	0.358650
N58	N	0.941529	0.192024	0.858650
C59	C	0.473398	-0.303072	0.303550
C60	C	0.973398	0.196928	0.803550
C61	C	0.242461	-0.343346	0.343820
C62	C	0.742461	0.156654	0.843820
C63	C	0.176717	-0.343326	0.343849
C64	C	0.676717	0.156674	0.843849
C65	C	0.176710	-0.262690	0.263479
C66	C	0.676710	0.237310	0.763479
C67	C	0.242453	-0.262707	0.263455
C68	C	0.742453	0.237293	0.763455
C69	C	0.275324	-0.303038	0.303625
C70	C	0.775324	0.196962	0.803625
C71	C	0.909603	-0.466603	0.303538
C72	C	1.409603	0.033397	0.803538
C73	C	0.909625	-0.536571	0.303544
C74	C	1.409625	-0.036571	0.803544
C75	C	0.949910	-0.569412	0.263342
C76	C	1.449910	-0.069412	0.763342
C77	C	0.949939	-0.635155	0.263356
C78	C	1.449939	-0.135155	0.763356
C79	C	0.909673	-0.668054	0.303566
C80	C	1.409673	-0.168054	0.803566
C81	C	0.869386	-0.635205	0.343776
C82	C	1.369386	-0.135205	0.843776
C83	C	0.869362	-0.569464	0.343765
C84	C	1.369362	-0.069464	0.843765
N85	N	0.854606	-0.771336	0.308340
N86	N	1.354606	-0.271336	0.808340
N87	N	0.854630	-0.833787	0.308347
N88	N	1.354630	-0.333787	0.808347
C89	C	0.909743	-0.866129	0.303602
C90	C	1.409743	-0.366129	0.803602
N91	N	0.964832	-0.833659	0.298838
N92	N	1.464832	-0.333659	0.798838
N93	N	0.964807	-0.771202	0.298828
N94	N	1.464807	-0.271202	0.798828
C95	C	0.909695	-0.739339	0.303582
C96	C	1.409695	-0.239339	0.803582
C97	C	0.950063	-0.970255	0.263413
C98	C	1.450063	-0.470255	0.763413
C99	C	0.950094	-1.035999	0.263431
C100	C	1.450094	-0.535999	0.763431
C101	C	0.869535	-1.036048	0.343848
C102	C	1.369535	-0.536048	0.843848
C103	C	0.869510	-0.970305	0.343833
C104	C	1.369510	-0.470305	0.843833
C105	C	0.909773	-0.937413	0.303612
C106	C	1.409773	-0.437413	0.803612
C107	C	1.073876	-0.303019	0.303646
C108	C	1.573876	0.196981	0.803646
C109	C	1.143844	-0.303005	0.303677
C110	C	1.643844	0.196995	0.803677
C111	C	0.909738	-0.303038	0.467763
C112	C	1.409738	0.196962	0.967763
C113	C	0.909760	-0.303033	0.537731
C114	C	1.409760	0.196967	1.037731
C115	C	0.909785	-0.138861	0.303622
C116	C	1.409785	0.361139	0.803622
C117	C	0.909828	-0.068893	0.303642
C118	C	1.409828	0.431107	0.803642
C119	C	0.909670	-0.303019	0.140021
C120	C	1.409670	0.196981	0.640021
C121	C	0.909769	-0.302848	0.070054
C122	C	1.409769	0.197152	0.570054
C123	C	0.950044	-0.262761	0.570629
C124	C	1.450044	0.237239	1.070629
C125	C	0.950043	-0.262734	0.636371
C126	C	1.450043	0.237266	1.136371
C127	C	0.909765	-0.302989	0.669214
C128	C	1.409765	0.197011	1.169214
C129	C	0.869473	-0.343263	0.636308
C130	C	1.369473	0.156737	1.136308
C131	C	0.869470	-0.343285	0.570567
C132	C	1.369470	0.156715	1.070567
N133	N	0.904908	-0.358058	0.772428
N134	N	1.404908	0.141942	1.272428
N135	N	0.904914	-0.358036	0.834879
N136	N	1.404914	0.141964	1.334879
C137	C	0.909769	-0.302926	0.867289
C138	C	1.409769	0.197074	1.367289
N139	N	0.914629	-0.247837	0.834888
N140	N	1.414629	0.252163	1.334888
N141	N	0.914627	-0.247860	0.772430
N142	N	1.414627	0.252140	1.272430
C143	C	0.909763	-0.302970	0.740499
C144	C	1.409763	0.197030	1.240499
C145	C	0.950054	-0.262621	0.971472
C146	C	1.450054	0.237379	1.471472
C147	C	0.950049	-0.262593	1.037216
C148	C	1.450049	0.237407	1.537216
C149	C	0.869482	-0.343128	1.037151
C150	C	1.369482	0.156872	1.537151
C151	C	0.869484	-0.343151	0.971409
C152	C	1.369484	0.156849	1.471409
C153	C	0.909773	-0.302898	0.938573
C154	C	1.409773	0.197102	1.438573
H155	H	0.149942	-0.229857	0.230773
H156	H	0.649942	0.270143	0.730773
O157	O	0.678735	-0.219305	0.219956
O158	O	1.178735	0.280695	0.719956
H159	H	0.708749	-0.187320	0.248175
H160	H	1.208749	0.312680	0.748175
H161	H	0.269209	-0.229884	0.230726
H162	H	0.769209	0.270116	0.730726
O163	O	0.826042	-0.934885	0.387182
O164	O	1.326042	-0.434885	0.887182
H165	H	0.836807	-0.947465	0.436605
H166	H	1.336807	-0.447465	0.936605
H167	H	0.550800	-0.376236	0.376431
H168	H	1.050800	0.123764	0.876431
O169	O	0.826025	-0.386589	0.935935
O170	O	1.326025	0.113411	1.435935
H171	H	0.854165	-0.418626	0.905995
H172	H	1.354165	0.081374	1.405995
O173	O	0.826032	-0.386545	1.072563
O174	O	1.326032	0.113455	1.572563
H175	H	0.854185	-0.418562	1.102531
H176	H	1.354185	0.081438	1.602531
O177	O	0.542097	-0.219294	0.219993
O178	O	1.042097	0.280706	0.719993
H179	H	0.490862	-0.226067	0.226751
H180	H	0.990862	0.273933	0.726751
O181	O	0.993398	-0.670595	0.220006
O182	O	1.493398	-0.170595	0.720006
H183	H	0.965252	-0.700607	0.187957
H184	H	1.465252	-0.200607	0.687957
O185	O	0.993553	-1.071420	0.220072
O186	O	1.493553	-0.571420	0.720072
H187	H	0.986814	-1.122661	0.226843
H188	H	1.486814	-0.622661	0.726843
O189	O	0.993495	-0.219346	0.535211
O190	O	1.493495	0.280654	1.035211
H191	H	1.021504	-0.191335	0.569137
H192	H	1.521504	0.308665	1.069137
O193	O	0.993343	-0.533934	0.219972
O194	O	1.493343	-0.033934	0.719972
H195	H	1.021366	-0.567820	0.192024
H196	H	1.521366	-0.067820	0.692024
O197	O	0.277923	-0.386835	0.387150
O198	O	0.777923	0.113165	0.887150
H199	H	0.244024	-0.414857	0.415111
H200	H	0.744024	0.085143	0.915111
H201	H	0.982846	-0.229937	0.663162
H202	H	1.482846	0.270063	1.163162
H203	H	0.836676	-0.376038	0.663053
H204	H	1.336676	0.123962	1.163053
H205	H	0.836602	-0.661996	0.376516
H206	H	1.336602	-0.161996	0.876516
H207	H	0.836557	-0.542724	0.376503
H208	H	1.336557	-0.042724	0.876503
H209	H	0.982850	-0.943473	0.230664
H210	H	1.482850	-0.443473	0.730664
O211	O	0.826100	-1.071521	0.387217
O212	O	1.326100	-0.571521	0.887217
H213	H	0.832880	-1.122753	0.380468
H214	H	1.332880	-0.622753	0.880468
O215	O	0.826004	-0.386714	0.535087
O216	O	1.326004	0.113286	1.035087
H217	H	0.836759	-0.436117	0.547705
H218	H	1.336759	0.063883	1.047705
H219	H	0.982857	-0.229842	0.944736
H220	H	1.482857	0.270158	1.444736
O221	O	0.993497	-0.219154	1.072706
O222	O	1.493497	0.280846	1.572706
H223	H	1.042895	-0.229952	1.060133
H224	H	1.542895	0.270048	1.560133
O225	O	0.678759	-0.386915	0.387006
O226	O	1.178759	0.113085	0.887006
H227	H	0.644859	-0.414939	0.414962
H228	H	1.144859	0.085061	0.914962
H229	H	0.149962	-0.376152	0.376580
H230	H	0.649962	0.123848	0.876580
