data_functionalizedCrystal
_audit_creation_method	'MofGen! by Chris Wilmer'
_symmetry_space_group_name_H-M	'P1'
_symmetry_Int_Tables_number	1
_symmetry_cell_setting	triclinic
loop_
_symmetry_equiv_pos_as_xyz
  x,y,z
_cell_length_a	16.793024
_cell_length_b	16.793047
_cell_length_c	33.586455
_cell_angle_alpha	113.253857
_cell_angle_beta	66.219990
_cell_angle_gamma	112.758327
loop_
_atom_site_label
_atom_site_type_symbol
_atom_site_fract_x
_atom_site_fract_y
_atom_site_fract_z
O1	O	0.005016	-0.570216	-0.583573
O2	O	-0.034529	-0.474528	-0.453458
O3	O	0.114723	-0.474535	-0.528082
O4	O	-0.144235	-0.570209	-0.508949
O5	O	0.108729	-0.346329	-0.530229
O6	O	-0.040523	-0.346322	-0.455605
O7	O	-0.000977	-0.442010	-0.585721
Cu8	Cu	-0.021297	-0.382459	-0.520859
Cu9	Cu	-0.014209	-0.534079	-0.518320
O10	O	-0.150229	-0.442003	-0.511097
C11	C	0.005100	-0.790970	-0.238461
C12	C	0.009223	-0.693065	-0.217557
C13	C	0.003804	-0.645758	-0.241627
C14	C	-0.075059	-0.538459	-0.266316
C15	C	0.049838	-0.422849	-0.250165
C16	C	-0.040584	-0.395375	-0.435637
C17	C	-0.044693	-0.353446	-0.386631
C18	C	-0.039275	-0.401741	-0.363054
C19	C	-0.040566	-0.125547	-0.300731
C20	C	-0.044689	-0.223451	-0.321635
C21	C	-0.039266	-0.270752	-0.297563
C22	C	0.039597	-0.378051	-0.272874
C23	C	-0.085304	-0.493667	-0.289026
C24	C	0.005118	-0.521142	-0.103554
C25	C	0.009231	-0.563064	-0.152559
C26	C	0.003809	-0.514775	-0.176138
C27	C	0.010758	-0.652581	-0.172822
C28	C	0.001010	-0.556371	-0.220792
C29	C	-0.008251	-0.506059	-0.245823
C30	C	-0.046224	-0.263935	-0.366370
C31	C	-0.036476	-0.360146	-0.318399
C32	C	-0.027211	-0.410451	-0.293367
C33	C	0.815184	-0.521162	-0.508596
C34	C	0.717729	-0.563083	-0.506815
C35	C	0.669923	-0.514793	-0.509201
C36	C	0.564072	-0.463272	-0.548285
C37	C	0.445555	-0.498966	-0.486078
C38	C	0.415541	-0.125553	-0.528781
C39	C	0.375032	-0.223457	-0.531493
C40	C	0.423813	-0.270761	-0.529101
C41	C	0.149318	-0.395376	-0.530584
C42	C	0.246774	-0.353455	-0.532364
C43	C	0.294574	-0.401748	-0.529976
C44	C	0.400424	-0.453269	-0.490892
C45	C	0.518948	-0.417572	-0.553101
C46	C	0.548961	-0.790984	-0.510398
C47	C	0.589464	-0.693083	-0.507684
C48	C	0.540690	-0.645776	-0.510078
C49	C	0.678399	-0.652598	-0.506649
C50	C	0.581167	-0.556389	-0.510877
C51	C	0.530434	-0.506073	-0.515170
C52	C	0.286104	-0.263940	-0.532530
C53	C	0.383336	-0.360149	-0.528302
C54	C	0.434062	-0.410467	-0.524008
C55	C	-0.040530	-0.395407	-0.935652
C56	C	-0.044651	-0.353482	-0.886645
C57	C	-0.039242	-0.401770	-0.863061
C58	C	0.039602	-0.453292	-0.810474
C59	C	-0.085288	-0.417587	-0.750981
C60	C	0.005063	-0.791004	-0.738448
C61	C	0.009186	-0.693099	-0.717543
C62	C	0.003779	-0.645796	-0.741620
C63	C	0.005077	-0.521171	-0.603544
C64	C	0.009198	-0.563096	-0.652550
C65	C	0.003786	-0.514804	-0.676131
C66	C	-0.075058	-0.463283	-0.728717
C67	C	0.049835	-0.498991	-0.788214
C68	C	-0.040516	-0.125574	-0.800747
C69	C	-0.044642	-0.223476	-0.821649
C70	C	-0.039232	-0.270782	-0.797575
C71	C	-0.046172	-0.263965	-0.866386
C72	C	-0.036447	-0.360171	-0.818406
C73	C	-0.027197	-0.410486	-0.793373
C74	C	0.010719	-0.652613	-0.672809
C75	C	0.000994	-0.556406	-0.720789
C76	C	-0.008259	-0.506089	-0.745819
O77	O	-0.000965	0.173549	-0.277957
O78	O	-0.040516	-0.085616	-0.325254
O79	O	0.108737	0.059592	-0.327284
O80	O	-0.150219	0.028341	-0.275927
O81	O	0.114753	0.055151	-0.263265
O82	O	-0.034500	-0.090057	-0.261234
O83	O	0.005051	0.169108	-0.213937
Cu84	Cu	-0.014175	0.039120	-0.231740
Cu85	Cu	-0.021290	0.044372	-0.307451
O86	O	-0.144202	0.023900	-0.211907
O87	O	-0.034458	-0.474571	0.046517
O88	O	0.005076	-0.570190	-0.083599
O89	O	-0.144170	-0.570237	-0.008972
O90	O	0.114787	-0.474523	-0.028110
O91	O	-0.150200	-0.442024	-0.011093
O92	O	-0.000954	-0.441976	-0.085720
O93	O	-0.040488	-0.346357	0.044396
Cu94	Cu	-0.021272	-0.382460	-0.020856
Cu95	Cu	-0.014141	-0.534087	-0.018347
O96	O	0.108757	-0.346309	-0.030231
C97	C	-0.850734	0.086244	-0.289716
C98	C	-0.753280	0.087165	-0.312001
C99	C	-0.705462	0.081107	-0.288506
C100	C	-0.599592	0.000085	-0.264184
C101	C	-0.481080	0.121287	-0.283645
C102	C	-0.450996	0.035117	-0.097351
C103	C	-0.410501	0.028587	-0.146852
C104	C	-0.459292	0.034683	-0.169840
C105	C	-0.184802	0.024283	-0.235878
C106	C	-0.282257	0.023363	-0.213592
C107	C	-0.330068	0.029423	-0.237088
C108	C	-0.435938	0.110445	-0.261411
C109	C	-0.554456	-0.010759	-0.241948
C110	C	-0.584541	0.075410	-0.428242
C111	C	-0.625029	0.081943	-0.378743
C112	C	-0.576244	0.075844	-0.355753
C113	C	-0.713963	0.086424	-0.357292
C114	C	-0.616708	0.075351	-0.310510
C115	C	-0.565963	0.065400	-0.286043
C116	C	-0.321573	0.024104	-0.168302
C117	C	-0.418828	0.035176	-0.215083
C118	C	-0.469568	0.045131	-0.239552
O119	O	0.585213	0.169090	-0.504004
O120	O	0.494056	-0.090076	-0.525516
O121	O	0.488081	0.055124	-0.449918
O122	O	0.591189	0.023889	-0.579602
O123	O	0.359978	0.059584	-0.452885
O124	O	0.365953	-0.085616	-0.528483
O125	O	0.457110	0.173550	-0.506971
Cu126	Cu	0.399835	0.044374	-0.517998
Cu127	Cu	0.551332	0.039099	-0.514489
O128	O	0.463086	0.028349	-0.582569
C129	C	0.815354	-0.521094	-0.008709
C130	C	0.717898	-0.563028	-0.006927
C131	C	0.670072	-0.514739	-0.009298
C132	C	0.564182	-0.463204	-0.048354
C133	C	0.445681	-0.498945	0.013847
C134	C	0.415547	-0.125494	-0.028771
C135	C	0.375059	-0.223405	-0.031498
C136	C	0.423859	-0.270708	-0.029121
C137	C	0.149365	-0.395355	-0.030599
C138	C	0.246820	-0.353421	-0.032381
C139	C	0.294640	-0.401713	-0.030008
C140	C	0.400530	-0.453248	0.009048
C141	C	0.519038	-0.417504	-0.053155
C142	C	0.549171	-0.790955	-0.010537
C143	C	0.589653	-0.693047	-0.007809
C144	C	0.540859	-0.645741	-0.010187
C145	C	0.678588	-0.652551	-0.006775
C146	C	0.581317	-0.556344	-0.010973
C147	C	0.530562	-0.506029	-0.015250
C148	C	0.286131	-0.263897	-0.032533
C149	C	0.383402	-0.360104	-0.028335
C150	C	0.434150	-0.410423	-0.024057
O151	O	-0.620614	0.089309	0.052274
O152	O	-0.529507	0.043784	-0.078544
O153	O	-0.523494	0.194833	-0.006033
O154	O	-0.626628	-0.061740	-0.020236
O155	O	-0.395386	0.185419	-0.005549
O156	O	-0.401400	0.034370	-0.078059
O157	O	-0.492507	0.079895	0.052758
Cu158	Cu	-0.435256	0.056273	-0.012607
Cu159	Cu	-0.586758	0.067406	-0.013179
O160	O	-0.498521	-0.071154	-0.019752
C161	C	-0.437537	0.048335	0.402491
C162	C	-0.397043	0.041789	0.352989
C163	C	-0.445822	0.047883	0.329994
C164	C	-0.496646	0.126653	0.277022
C165	C	-0.465894	-0.000633	0.218811
C166	C	-0.837226	0.099430	0.210091
C167	C	-0.739773	0.100339	0.187806
C168	C	-0.691967	0.094287	0.211308
C169	C	-0.571027	0.088563	0.071568
C170	C	-0.611521	0.095108	0.121070
C171	C	-0.562739	0.089011	0.144061
C172	C	-0.511915	0.010241	0.197033
C173	C	-0.542670	0.137531	0.255247
C174	C	-0.171338	0.037467	0.263967
C175	C	-0.268788	0.036555	0.286249
C176	C	-0.316597	0.042611	0.262750
C177	C	-0.308112	0.037305	0.331542
C178	C	-0.405351	0.048369	0.284750
C179	C	-0.456092	0.058317	0.260279
C180	C	-0.700452	0.099593	0.142516
C181	C	-0.603213	0.088528	0.189308
C182	C	-0.552469	0.078578	0.213776
O183	O	-0.040608	-1.085661	-0.825229
O184	O	-0.001018	-0.826491	-0.777938
O185	O	-0.150287	-0.971682	-0.775894
O186	O	0.108661	-0.940470	-0.827272
O187	O	-0.144253	-0.976123	-0.711878
O188	O	0.005016	-0.830932	-0.713922
O189	O	-0.034575	-1.090102	-0.761213
Cu190	Cu	-0.014228	-0.960923	-0.731722
Cu191	Cu	-0.021364	-0.955670	-0.807428
O192	O	0.114695	-0.944911	-0.763256
O193	O	-0.036540	-0.230370	-0.253997
C194	C	0.044345	-0.230941	-0.250737
H195	H	0.097088	-0.237310	-0.285494
H196	H	0.070408	-0.165550	-0.225719
H197	H	0.030945	-0.290423	-0.238361
H198	H	0.413839	-0.532573	0.042316
H199	H	0.702991	-0.441593	-0.009870
O200	O	-0.153837	-0.377594	-0.731769
C201	C	-0.210212	-0.414196	-0.760018
H202	H	-0.202445	-0.483884	-0.782617
H203	H	-0.283562	-0.419830	-0.738212
H204	H	-0.190218	-0.368472	-0.782066
O205	O	-0.049243	-0.216379	-0.390196
C206	C	0.027556	-0.213514	-0.428584
H207	H	0.055411	-0.272579	-0.437727
H208	H	0.007935	-0.218018	-0.458339
H209	H	0.081424	-0.147628	-0.420727
H210	H	0.088099	-0.448874	-0.845454
O211	O	0.726764	-0.700062	-0.005452
C212	C	0.754148	-0.657983	0.034250
H213	H	0.707127	-0.615226	0.060806
H214	H	0.751140	-0.711497	0.048045
H215	H	0.826318	-0.613201	0.026003
O216	O	0.316911	-0.448068	-0.461886
C217	C	0.292156	-0.495100	-0.430128
H218	H	0.355586	-0.499701	-0.427330
H219	H	0.252950	-0.457827	-0.395610
H220	H	0.247913	-0.565803	-0.441763
H221	H	0.468233	-0.679598	-0.011487
O222	O	0.317062	-0.447908	0.038071
C223	C	0.322643	-0.405689	0.082782
H224	H	0.394722	-0.362669	0.081922
H225	H	0.274373	-0.361141	0.102179
H226	H	0.303349	-0.459114	0.100400
H227	H	-0.037089	-0.236932	-0.761035
O228	O	-0.132982	-0.620284	-0.262808
C229	C	-0.177533	-0.616252	-0.216659
H230	H	-0.176647	-0.543506	-0.195961
H231	H	-0.250480	-0.659309	-0.212548
H232	H	-0.141500	-0.642682	-0.204150
H233	H	-0.738384	0.080845	-0.251490
H234	H	0.001660	-0.441639	-0.159184
H235	H	0.413699	-0.532573	-0.457601
O236	O	-0.762008	0.090359	-0.380466
C237	C	-0.718322	0.167741	-0.395996
H238	H	-0.643678	0.189804	-0.398303
H239	H	-0.725228	0.151706	-0.430942
H240	H	-0.750734	0.224284	-0.371302
H241	H	0.496441	-0.236915	-0.527803
H242	H	-0.283673	0.042875	0.225734
O243	O	0.013741	-0.700201	-0.149016
C244	C	-0.062937	-0.702866	-0.110564
H245	H	-0.119195	-0.691379	-0.116654
H246	H	-0.086936	-0.771435	-0.104206
H247	H	-0.044687	-0.647943	-0.079738
H248	H	-0.518563	-0.039000	0.162804
H249	H	-0.048809	-0.224052	-0.886301
O250	O	0.001098	-0.686117	-0.785195
C251	C	-0.079805	-0.685597	-0.788458
H252	H	-0.106635	-0.629158	-0.759386
H253	H	-0.066120	-0.674230	-0.822189
H254	H	-0.132077	-0.752980	-0.786438
O255	O	-0.683138	-0.055627	-0.265625
C256	C	-0.707868	-0.118506	-0.241797
H257	H	-0.668062	-0.090304	-0.216322
H258	H	-0.783297	-0.132033	-0.223053
H259	H	-0.692243	-0.184027	-0.266746
H260	H	-0.518447	0.052455	0.347905
O261	O	0.013689	-0.700230	-0.648998
C262	C	-0.062996	-0.702885	-0.610548
H263	H	-0.119244	-0.691395	-0.616645
H264	H	-0.087004	-0.771450	-0.604187
H265	H	-0.044748	-0.647958	-0.579723
O266	O	-0.488814	0.185455	0.317864
C267	C	-0.533736	0.251172	0.330280
H268	H	-0.587065	0.223518	0.311842
H269	H	-0.567719	0.269163	0.368475
H270	H	-0.482749	0.313976	0.320563
H271	H	0.634089	-0.467700	-0.572564
H272	H	0.088092	-0.309407	-0.275738
H273	H	0.107243	-0.392097	-0.234140
H274	H	-0.297145	0.029698	-0.274103
H275	H	0.634201	-0.467612	-0.072637
H276	H	-0.037104	-0.474911	-0.880014
O277	O	-0.748744	0.103273	0.119390
C278	C	-0.825560	0.028516	0.119004
H279	H	-0.843057	0.001936	0.148777
H280	H	-0.885011	0.049804	0.122058
H281	H	-0.810731	-0.026641	0.085864
H282	H	-0.434254	-0.059305	0.203012
O283	O	0.556892	-0.377435	-0.087132
C284	C	0.500918	-0.414052	-0.115582
H285	H	0.428806	-0.444013	-0.096008
H286	H	0.501919	-0.358736	-0.127502
H287	H	0.526766	-0.469015	-0.146241
H288	H	0.496488	-0.236853	-0.027824
H289	H	-0.586315	-0.066836	-0.224702
H290	H	-0.724884	0.094041	0.248327
O291	O	0.118374	-0.539017	-0.807537
C292	C	0.168973	-0.523687	-0.850279
H293	H	0.159280	-0.461088	-0.851343
H294	H	0.243621	-0.513271	-0.856123
H295	H	0.144933	-0.584303	-0.877932
H296	H	-0.267732	0.034117	0.350946
O297	O	-0.580363	0.207552	0.274016
C298	C	-0.542972	0.262145	0.244499
H299	H	-0.515057	0.220855	0.208406
H300	H	-0.597590	0.288235	0.245769
H301	H	-0.486036	0.321492	0.255453
H302	H	-0.123559	-0.467696	-0.693740
H303	H	-0.365918	0.157102	-0.260160
H304	H	-0.531920	0.039247	-0.151930
H305	H	-0.449229	0.177371	-0.300885
H306	H	0.245727	-0.224039	-0.533582
O307	O	-0.273345	0.020181	-0.145217
C308	C	-0.246160	-0.060075	-0.166555
H309	H	-0.245245	-0.085233	-0.203576
H310	H	-0.175576	-0.046610	-0.164748
H311	H	-0.295675	-0.113277	-0.148597
H312	H	0.261721	-0.474856	-0.029430
H313	H	0.245737	-0.223998	-0.033572
H314	H	0.001650	-0.679613	-0.278166
H315	H	-0.142704	-0.524425	-0.305055
O316	O	-0.036843	-0.489026	-0.383301
C317	C	-0.115995	-0.540347	-0.396374
H318	H	-0.145862	-0.494256	-0.400236
H319	H	-0.098800	-0.593451	-0.430101
H320	H	-0.167328	-0.574834	-0.369359
O321	O	0.454090	-0.686276	-0.511684
C322	C	0.452376	-0.761411	-0.550357
H323	H	0.514897	-0.785562	-0.561503
H324	H	0.389077	-0.817865	-0.541849
H325	H	0.451766	-0.741563	-0.578990
H326	H	0.261638	-0.474883	-0.529387
O327	O	0.726434	-0.700245	-0.505321
C328	C	0.682737	-0.730102	-0.466033
H329	H	0.608094	-0.732694	-0.453998
H330	H	0.689637	-0.800179	-0.474133
H331	H	0.715143	-0.681579	-0.438201
H332	H	-0.490116	0.084434	0.126151
H333	H	0.702857	-0.441654	-0.509785
O334	O	-0.489647	0.070282	-0.377182
C335	C	-0.487950	-0.007119	-0.414769
H336	H	-0.550481	-0.027719	-0.425990
H337	H	-0.424661	0.008174	-0.443858
H338	H	-0.487334	-0.064398	-0.404853
H339	H	0.550810	-0.383955	-0.581575
H340	H	0.001639	-0.441666	-0.659178
