data_functionalizedCrystal
_audit_creation_method	'MofGen! by Chris Wilmer'
_symmetry_space_group_name_H-M	'P1'
_symmetry_Int_Tables_number	1
_symmetry_cell_setting	triclinic
loop_
_symmetry_equiv_pos_as_xyz
  x,y,z
_cell_length_a	21.295418
_cell_length_b	11.169416
_cell_length_c	11.169409
_cell_angle_alpha	89.968635
_cell_angle_beta	89.957636
_cell_angle_gamma	90.025965
loop_
_atom_site_label
_atom_site_type_symbol
_atom_site_fract_x
_atom_site_fract_y
_atom_site_fract_z
Zn1	Zn	0.962436	-0.477203	-0.679273
Zn2	Zn	1.462436	0.022797	-0.179273
Zn3	Zn	0.962379	-0.677944	-0.478593
Zn4	Zn	1.462379	-0.177944	0.021407
Zn5	Zn	0.857162	-0.477329	-0.478528
Zn6	Zn	1.357162	0.022671	0.021472
Zn7	Zn	0.857166	-0.677898	-0.679159
Zn8	Zn	1.357166	-0.177898	-0.179159
O9	O	0.909786	-0.577593	-0.578888
O10	O	1.409786	-0.077593	-0.078888
O11	O	1.050518	-0.503798	-0.652727
O12	O	1.550518	-0.003798	-0.152727
O13	O	0.948395	-0.651403	-0.310635
O14	O	1.448395	-0.151403	0.189365
O15	O	0.871149	-0.309362	-0.505178
O16	O	1.371149	0.190638	-0.005178
O17	O	1.050476	-0.651281	-0.505289
O18	O	1.550476	-0.151281	-0.005289
O19	O	0.948494	-0.309270	-0.652664
O20	O	1.448494	0.190730	-0.152664
O21	O	0.871093	-0.504012	-0.310587
O22	O	1.371093	-0.004012	0.189413
O23	O	0.769073	-0.503968	-0.505068
O24	O	1.269073	-0.003968	-0.005068
O25	O	0.871156	-0.651204	-0.847124
O26	O	1.371156	-0.151204	-0.347124
O27	O	0.769076	-0.651326	-0.652470
O28	O	1.269076	-0.151326	-0.152470
O29	O	0.948498	-0.503754	-0.847208
O30	O	1.448498	-0.003754	-0.347208
O31	O	0.948400	-0.845887	-0.505178
O32	O	1.448400	-0.345887	-0.005178
O33	O	0.871101	-0.845854	-0.652533
O34	O	1.371101	-0.345854	-0.152533
C35	C	0.909761	-0.889418	-0.578877
C36	C	1.409761	-0.389418	-0.078877
C37	C	0.909809	-1.022818	-0.578912
C38	C	1.409809	-0.522818	-0.078912
C39	C	0.746234	-0.577657	-0.578750
C40	C	1.246234	-0.077657	-0.078750
C41	C	0.676266	-0.577712	-0.578720
C42	C	1.176266	-0.077712	-0.078720
C43	C	0.643417	-0.654543	-0.655357
C44	C	1.143417	-0.154543	-0.155357
C45	C	0.577675	-0.654514	-0.655411
C46	C	1.077675	-0.154514	-0.155411
C47	C	0.544784	-0.577666	-0.578806
C48	C	1.044784	-0.077666	-0.078806
C49	C	0.577640	-0.500820	-0.502163
C50	C	1.077640	-0.000820	-0.002163
C51	C	0.643381	-0.500843	-0.502120
C52	C	1.143381	-0.000843	-0.002120
N53	N	0.441507	-0.568308	-0.473832
N54	N	0.941507	-0.068308	0.026168
N55	N	0.379056	-0.568293	-0.473877
N56	N	0.879056	-0.068293	0.026123
C57	C	0.346709	-0.577589	-0.578933
C58	C	0.846709	-0.077589	-0.078933
N59	N	0.379173	-0.586925	-0.683946
N60	N	0.879173	-0.086925	-0.183946
N61	N	0.441630	-0.586946	-0.683900
N62	N	0.941630	-0.086946	-0.183900
C63	C	0.473498	-0.577632	-0.578845
C64	C	0.973498	-0.077632	-0.078845
C65	C	0.242575	-0.654392	-0.655636
C66	C	0.742575	-0.154392	-0.155636
C67	C	0.176831	-0.654354	-0.655692
C68	C	0.676831	-0.154354	-0.155692
C69	C	0.176797	-0.500667	-0.502433
C70	C	0.676797	-0.000667	-0.002433
C71	C	0.242540	-0.500699	-0.502387
C72	C	0.742540	-0.000699	-0.002387
C73	C	0.275425	-0.577568	-0.578987
C74	C	0.775425	-0.077568	-0.078987
C75	C	1.073976	-0.577531	-0.579028
C76	C	1.573976	-0.077531	-0.079028
C77	C	1.143944	-0.577504	-0.579087
C78	C	1.643944	-0.077504	-0.079087
C79	C	0.909834	-0.577460	-0.891931
C80	C	1.409834	-0.077460	-0.391931
C81	C	0.909855	-0.577403	-1.025331
C82	C	1.409855	-0.077403	-0.525331
C83	C	0.909827	-0.264551	-0.578927
C84	C	1.409827	0.235449	-0.078927
C85	C	0.909845	-0.131151	-0.578943
C86	C	1.409845	0.368849	-0.078943
C87	C	0.909774	-0.577640	-0.267064
C88	C	1.409774	-0.077640	0.232936
C89	C	0.909875	-0.577358	-0.133664
C90	C	1.409875	-0.077358	0.366336
H91	H	0.670188	-0.717134	-0.717733
H92	H	1.170188	-0.217134	-0.217733
Cl93	Cl	0.536292	-0.404206	-0.405865
Cl94	Cl	1.036292	0.095794	0.094135
Cl95	Cl	0.536371	-0.751109	-0.751763
Cl96	Cl	1.036371	-0.251109	-0.251763
Cl97	Cl	0.135535	-0.750944	-0.752053
Cl98	Cl	0.635535	-0.250944	-0.252053
H99	H	0.670126	-0.438275	-0.439712
H100	H	1.170126	0.061725	0.060288
Cl101	Cl	0.283919	-0.751018	-0.751938
Cl102	Cl	0.783919	-0.251018	-0.251938
Cl103	Cl	0.135454	-0.404050	-0.406135
Cl104	Cl	0.635454	0.095950	0.093865
H105	H	0.269285	-0.438141	-0.439975
H106	H	0.769285	0.061859	0.060025
