data_functionalizedCrystal
_audit_creation_method	'MofGen! by Chris Wilmer'
_symmetry_space_group_name_H-M	'P1'
_symmetry_Int_Tables_number	1
_symmetry_cell_setting	triclinic
loop_
_symmetry_equiv_pos_as_xyz
  x,y,z
_cell_length_a	15.538191
_cell_length_b	17.699083
_cell_length_c	16.776229
_cell_angle_alpha	89.999799
_cell_angle_beta	89.990959
_cell_angle_gamma	65.277554
loop_
_atom_site_label
_atom_site_type_symbol
_atom_site_fract_x
_atom_site_fract_y
_atom_site_fract_z
O1	O	1.250478	-0.245973	-0.066326
O2	O	0.976019	-0.158526	-0.066315
O3	O	1.121003	-0.314557	-0.066329
O4	O	1.105495	-0.089941	-0.066313
O5	O	1.120984	-0.314559	0.066248
O6	O	0.976000	-0.158528	0.066261
O7	O	1.250459	-0.245975	0.066251
Zn8	Zn	1.113227	-0.202252	0.087305
Zn9	Zn	1.113252	-0.202249	-0.087370
O10	O	1.105475	-0.089943	0.066264
C11	C	0.940893	-0.149378	-0.000026
C12	C	0.836257	-0.122125	-0.000022
C13	C	1.120438	-0.342603	-0.000044
C14	C	1.118771	-0.426166	-0.000055
N15	N	1.113216	-0.202256	0.206516
C16	C	0.549086	-0.392872	-0.000054
C17	C	0.450762	-0.367245	-0.000053
C18	C	0.427989	-0.223099	-0.000043
C19	C	0.526313	-0.248714	-0.000040
C20	C	0.586855	-0.333602	-0.000047
C21	C	0.564082	-0.189444	-0.000032
C22	C	0.662398	-0.215057	-0.000034
C23	C	0.722945	-0.299940	-0.000043
C24	C	0.685171	-0.359215	-0.000048
C25	C	0.503539	-0.104556	-0.000031
C26	C	0.541308	-0.045286	-0.000023
C27	C	0.639625	-0.070899	-0.000019
C28	C	0.700173	-0.155782	-0.000029
C29	C	0.677400	-0.011624	-0.000014
C30	C	0.775716	-0.037238	-0.000016
C31	C	0.798489	-0.181396	-0.000030
C32	C	1.285585	-0.255123	-0.000041
C33	C	1.390221	-0.282375	-0.000049
C34	C	1.106041	-0.061897	-0.000022
C35	C	1.107708	0.021665	-0.000017
C36	C	1.022605	0.093540	-0.000013
C37	C	1.024178	0.172054	-0.000023
C38	C	1.110853	0.178691	-0.000030
C39	C	1.195962	0.106808	-0.000035
C40	C	1.194389	0.028296	-0.000032
C41	C	1.202307	0.423438	-0.000051
C42	C	1.203874	0.501958	-0.000053
C43	C	1.032096	0.567195	-0.000042
C44	C	1.030523	0.488683	-0.000039
C45	C	1.115632	0.416807	-0.000049
C46	C	1.113926	0.331674	-0.000040
C47	C	1.112559	0.263822	-0.000033
N48	N	1.113270	-0.202253	-0.206581
C49	C	1.177434	-0.271331	0.248228
C50	C	1.177440	-0.271333	0.331680
C51	C	1.113230	-0.202257	0.373419
C52	C	1.049005	-0.133177	0.331702
C53	C	1.048996	-0.133178	0.248252
C54	C	1.049039	-0.133172	0.668250
C55	C	1.049055	-0.133175	0.751706
C56	C	1.177483	-0.271326	0.751678
C57	C	1.177474	-0.271327	0.668227
C58	C	1.113246	-0.202250	0.626517
C59	C	1.113240	-0.202249	0.536029
C60	C	1.113240	-0.202254	0.463906
H61	H	0.847785	-0.250520	-0.000031
H62	H	1.263688	-0.030226	-0.000038
H63	H	1.229778	-0.327574	0.785647
Cl64	Cl	0.761288	-0.465933	-0.000047
H65	H	0.962797	0.625727	-0.000037
Cl66	Cl	0.968327	-0.046330	0.804178
Cl67	Cl	0.465190	0.061426	-0.000020
Cl68	Cl	0.968302	-0.046333	0.615820
Cl69	Cl	0.968257	-0.046339	0.195816
H70	H	0.996720	-0.076935	0.365692
H71	H	1.229762	-0.327573	0.634245
Cl72	Cl	0.846545	-0.332142	-0.000050
H73	H	0.806467	0.011026	-0.000002
Cl74	Cl	0.625203	-0.499590	-0.000053
H75	H	0.420016	-0.415517	-0.000061
H76	H	1.229725	-0.327578	0.214249
H77	H	0.378683	-0.153983	-0.000040
Cl78	Cl	0.913636	0.085206	0.000002
H79	H	1.229730	-0.327579	0.365641
Cl80	Cl	0.379940	-0.072357	-0.000029
H81	H	0.628093	0.057491	-0.000016
Cl82	Cl	0.921556	0.480345	-0.000027
Cl83	Cl	1.312846	0.510297	-0.000064
Cl84	Cl	0.917186	0.262409	-0.000026
H85	H	1.271608	0.364924	-0.000055
H86	H	1.266534	0.112218	-0.000040
