data_functionalizedCrystal
_audit_creation_method	'MofGen! by Chris Wilmer'
_symmetry_space_group_name_H-M	'P1'
_symmetry_Int_Tables_number	1
_symmetry_cell_setting	triclinic
loop_
_symmetry_equiv_pos_as_xyz
  x,y,z
_cell_length_a	11.169417
_cell_length_b	11.169416
_cell_length_c	17.077396
_cell_angle_alpha	89.976843
_cell_angle_beta	89.983750
_cell_angle_gamma	90.011027
loop_
_atom_site_label
_atom_site_type_symbol
_atom_site_fract_x
_atom_site_fract_y
_atom_site_fract_z
Zn1	Zn	1.834922	-0.477779	-0.443804
Zn2	Zn	1.834824	-0.678491	-0.312550
Zn3	Zn	1.634220	-0.477823	-0.312559
Zn4	Zn	1.634216	-0.678422	-0.443781
O5	O	1.734545	-0.578129	-0.378173
O6	O	2.002858	-0.504414	-0.426398
O7	O	1.808175	-0.651919	-0.202704
O8	O	1.660886	-0.309868	-0.329982
O9	O	2.002787	-0.651876	-0.329967
O10	O	1.808341	-0.309835	-0.426407
O11	O	1.660792	-0.504490	-0.202711
O12	O	1.466270	-0.504423	-0.329960
O13	O	1.660879	-0.651759	-0.553631
O14	O	1.466266	-0.651802	-0.426368
O15	O	1.808336	-0.504347	-0.553648
O16	O	1.808170	-0.846431	-0.329945
O17	O	1.660784	-0.846381	-0.426359
C18	C	1.422721	-0.578111	-0.378163
C19	C	1.289321	-0.578132	-0.378178
C20	C	1.734499	-0.889954	-0.378166
C21	C	1.734589	-1.023353	-0.378189
C22	C	2.047588	-0.578148	-0.378184
C23	C	2.180988	-0.578156	-0.378189
C24	C	1.734618	-0.578040	-0.582918
C25	C	1.734649	-0.578003	-0.670168
C26	C	1.734625	-0.265086	-0.378198
C27	C	1.734659	-0.131686	-0.378209
C28	C	1.811433	-0.501239	-0.711168
C29	C	1.811447	-0.501199	-0.793148
C30	C	1.734683	-0.577930	-0.834127
C31	C	1.657890	-0.654697	-0.793121
C32	C	1.657871	-0.654730	-0.711142
C33	C	1.657939	-0.654624	-0.963991
C34	C	1.657960	-0.654593	-1.045976
C35	C	1.811515	-0.501094	-1.045997
C36	C	1.811496	-0.501127	-0.964018
C37	C	1.734704	-0.577896	-0.923018
C38	C	1.734542	-0.578130	-0.174226
C39	C	1.734744	-0.577830	-0.086976
H40	H	1.873947	-0.438760	-0.677809
F41	F	1.576206	-0.736328	-0.920358
F42	F	1.576144	-0.736429	-0.667507
F43	F	1.576248	-0.736248	-1.089587
H44	H	1.595383	-0.717168	-0.826493
H45	H	1.874011	-0.438653	-0.930656
H46	H	1.873975	-0.438694	-0.826527
H47	H	1.874040	-0.438584	-1.079384
