data_functionalizedCrystal
_audit_creation_method	'MofGen! by Chris Wilmer'
_symmetry_space_group_name_H-M	'P1'
_symmetry_Int_Tables_number	1
_symmetry_cell_setting	triclinic
loop_
_symmetry_equiv_pos_as_xyz
  x,y,z
_cell_length_a	18.760487
_cell_length_b	23.196402
_cell_length_c	23.196401
_cell_angle_alpha	60.008822
_cell_angle_beta	90.048477
_cell_angle_gamma	60.020943
loop_
_atom_site_label
_atom_site_type_symbol
_atom_site_fract_x
_atom_site_fract_y
_atom_site_fract_z
Zr1	Zr	0.686682	0.630998	-0.075286
O2	O	0.572842	0.751265	-0.167389
O3	O	0.721577	0.510733	-0.047055
O4	O	0.721546	0.631000	-0.167320
O5	O	0.572902	0.630996	0.047748
O6	O	0.838849	0.630999	-0.167262
O7	O	0.572874	0.630998	-0.047124
O8	O	0.838905	0.415864	0.047871
O9	O	0.572846	0.846132	-0.167385
O10	O	0.824005	0.560199	-0.034967
O11	O	0.736484	0.560198	0.035791
O12	O	0.736447	0.701797	-0.105806
O13	O	0.648926	0.701796	-0.035048
Zr14	Zr	0.873812	0.630996	0.076116
Zr15	Zr	0.873767	0.630998	-0.075193
Zr16	Zr	0.686727	0.630996	0.076023
Zr17	Zr	0.686687	0.782301	-0.075279
Zr18	Zr	0.873806	0.479693	0.076110
O19	O	0.838916	0.751261	0.047885
O20	O	0.838853	0.751265	-0.167256
O21	O	0.572906	0.751262	0.047753
O22	O	0.987651	0.510729	0.168219
O23	O	0.987587	0.510732	-0.046922
O24	O	0.721641	0.510729	0.168087
O25	O	0.987592	0.630997	-0.046917
O26	O	0.838948	0.630994	0.168151
O27	O	0.721645	0.630994	0.168092
O28	O	0.987620	0.630996	0.047954
O29	O	0.721553	0.846132	-0.167311
O30	O	0.838941	0.415862	0.168141
O31	O	0.987648	0.415862	0.168215
O32	O	0.987612	0.415863	0.047945
O33	O	0.572881	0.846130	-0.047114
O34	O	0.721589	0.846130	-0.047040
O35	O	0.824047	0.560197	0.106636
O36	O	0.911568	0.560198	0.035878
O37	O	0.824010	0.701796	-0.034961
O38	O	0.736489	0.701795	0.035797
C39	C	0.780240	0.441741	0.000407
C40	C	0.780238	0.377509	0.000404
C41	C	0.825917	0.347339	-0.036533
C42	C	0.825926	0.286978	-0.036527
C43	C	0.780238	0.256801	0.000406
C44	C	0.734557	0.286975	0.037352
C45	C	0.734557	0.347329	0.037351
C46	C	0.703695	0.194772	-0.004906
C47	C	0.703692	0.134422	-0.004910
C48	C	0.780239	0.070646	0.000413
C49	C	0.856788	0.067234	0.005727
C50	C	0.856788	0.127588	0.005726
C51	C	0.780233	0.191356	0.000412
C52	C	0.825931	-0.024975	-0.036520
C53	C	0.825942	-0.085341	-0.036509
C54	C	0.734565	-0.085337	0.037366
C55	C	0.734563	-0.024979	0.037360
C56	C	0.780244	0.005202	0.000413
C57	C	0.546232	0.630997	0.000299
C58	C	0.466810	0.630997	0.000259
C59	C	0.085289	0.704913	-0.036439
C60	C	0.176706	0.557082	0.037518
C61	C	0.251328	0.557080	0.037457
C62	C	0.242933	0.630996	0.000447
C63	C	0.159916	0.704914	-0.036503
C64	C	0.334349	0.483165	0.074400
C65	C	0.408977	0.483160	0.074341
C66	C	0.400584	0.557077	0.037334
C67	C	0.317561	0.630997	0.000384
C68	C	0.309166	0.704913	-0.036627
C69	C	0.226144	0.778835	-0.073573
C70	C	0.151523	0.778831	-0.073509
C71	C	0.475205	0.557081	0.037270
C72	C	0.383794	0.704915	-0.036690
C73	C	1.014261	0.630997	0.000532
C74	C	1.093683	0.630997	0.000571
C75	C	0.780191	0.631000	-0.188849
C76	C	0.780172	0.631001	-0.253084
C77	C	0.780253	0.820253	0.000423
C78	C	0.780255	0.884485	0.000426
C79	C	0.734472	0.704911	-0.320234
C80	C	0.734494	0.704912	-0.380589
C81	C	0.780204	0.630999	-0.373790
C82	C	0.825914	0.557079	-0.306628
C83	C	0.825898	0.557080	-0.246274
C84	C	0.773711	0.574371	-0.441113
C85	C	0.773721	0.574373	-0.501466
C86	C	0.780260	0.630993	-0.559938
C87	C	0.786770	0.687624	-0.558055
C88	C	0.786754	0.687625	-0.497702
C89	C	0.780227	0.630989	-0.439229
C90	C	0.734581	0.704909	-0.692534
C91	C	0.734610	0.704907	-0.752889
C92	C	0.826024	0.557071	-0.678926
C93	C	0.826002	0.557076	-0.618573
C94	C	0.780275	0.630997	-0.625382
C95	C	0.780303	0.630994	0.189680
C96	C	0.780322	0.630993	0.253914
C97	C	1.014255	0.441740	0.000524
C98	C	1.093675	0.377509	0.000560
C99	C	0.780296	0.441738	0.189672
C100	C	0.780313	0.377505	0.253903
C101	C	1.014311	0.441738	0.189788
C102	C	1.093750	0.377505	0.254059
C103	C	0.546183	0.820256	-0.188957
C104	C	0.466744	0.884489	-0.253229
C105	C	0.546239	0.820253	0.000307
C106	C	0.466819	0.884485	0.000270
C107	C	0.780197	0.820256	-0.188841
C108	C	0.780180	0.884489	-0.253073
C109	C	1.085265	0.347345	-0.036409
C110	C	1.159881	0.287001	-0.036389
C111	C	1.242907	0.256817	0.000606
C112	C	1.251316	0.286986	0.037576
C113	C	1.176700	0.347333	0.037551
C114	C	0.826028	0.347340	0.321054
C115	C	0.826040	0.286995	0.381413
C116	C	0.780343	0.256812	0.374619
C117	C	0.734622	0.286983	0.307461
C118	C	0.734605	0.347331	0.247104
C119	C	1.176748	0.347341	0.247307
C120	C	1.251397	0.286995	0.307691
C121	C	1.243045	0.256811	0.374827
C122	C	1.160038	0.286981	0.381578
C123	C	1.085391	0.347329	0.321194
C124	C	0.383745	0.914661	-0.246476
C125	C	0.309097	0.975025	-0.306860
C126	C	0.317448	1.005212	-0.373996
C127	C	0.400455	0.975038	-0.380747
C128	C	0.475102	0.914680	-0.320364
C129	C	0.475229	0.914655	0.037233
C130	C	0.400613	0.975016	0.037196
C131	C	0.317587	1.005202	0.000200
C132	C	0.309178	0.975030	-0.036768
C133	C	0.383794	0.914674	-0.036735
C134	C	0.825887	0.914653	-0.246256
C135	C	0.825888	0.974999	-0.306603
C136	C	0.780177	1.005183	-0.373766
C137	C	0.734469	0.975013	-0.380581
C138	C	0.734474	0.914665	-0.320235
H139	H	0.697357	0.371893	0.067430
N140	N	0.409703	1.007552	0.077066
H141	H	0.380790	1.068131	0.043155
H142	H	0.473642	0.979202	0.100503
N143	N	0.780375	0.191712	0.439720
H144	H	0.718491	0.212707	0.439728
H145	H	0.816315	0.177207	0.483253
N146	N	1.323378	0.191728	0.000626
H147	H	1.323405	0.141654	0.021654
H148	H	1.377212	0.177245	0.029659
N149	N	0.219626	1.007578	-0.076656
H150	H	0.173641	1.050383	-0.071056
H151	H	0.212726	0.961479	-0.057241
N152	N	0.875277	0.477360	-0.546140
H153	H	0.921256	0.474064	-0.519413
H154	H	0.904183	0.430578	-0.551045
N155	N	0.374716	0.882137	-0.076604
H156	H	0.310796	0.910421	-0.100042
H157	H	0.403686	0.821554	-0.042658
N158	N	0.237108	1.070296	0.000168
H159	H	0.237075	1.120373	-0.020861
H160	H	0.237145	1.049214	0.050240
H161	H	0.017690	0.765097	-0.066518
H162	H	0.376947	0.765107	-0.066821
N163	N	0.685164	1.007580	-0.453024
H164	H	0.656205	0.979318	-0.448193
H165	H	0.727120	0.997076	-0.479651
N166	N	0.685285	0.254426	0.077193
H167	H	0.692214	0.211614	0.071588
H168	H	0.621375	0.300517	0.057760
H169	H	0.863110	0.890086	-0.191575
N170	N	0.875192	1.007529	-0.299244
H171	H	0.904140	0.979252	-0.247538
H172	H	0.833236	1.068115	-0.322695
N173	N	0.875322	0.379885	0.328392
H174	H	0.904277	0.351614	0.380095
H175	H	0.833358	0.440470	0.304939
N176	N	0.875213	0.477358	-0.299292
H177	H	0.904164	0.430534	-0.247591
H178	H	0.921158	0.474142	-0.322687
N179	N	0.374714	0.882120	-0.174074
H180	H	0.403653	0.892618	-0.147370
H181	H	0.403622	0.821548	-0.147429
H182	H	0.780181	1.054323	-0.422898
N183	N	0.995877	0.379843	0.328491
H184	H	0.962877	0.369330	0.305088
H185	H	0.962925	0.440416	0.305099
N186	N	0.185762	0.477362	0.077421
H187	H	0.125891	0.488577	0.071850
H188	H	0.218846	0.445076	0.129105
H189	H	1.318925	0.262401	0.067696
H190	H	0.697362	-0.000411	0.067435
H191	H	0.476570	0.422969	0.104424
H192	H	1.183560	0.371885	0.067660
H193	H	0.697250	0.890112	-0.325795
H194	H	0.863113	0.496891	-0.191596
N195	N	0.685189	0.784634	-0.453025
H196	H	0.692137	0.773415	-0.490225
H197	H	0.709167	0.816922	-0.458595
H198	H	1.303835	0.207672	0.423989
N199	N	0.875358	0.254458	0.453841
H200	H	0.904310	0.282733	0.448980
H201	H	0.921303	0.193873	0.480516
N202	N	0.685344	0.254419	0.300136
H203	H	0.639370	0.264917	0.323511
H204	H	0.727334	0.193845	0.323548
N205	N	0.875186	0.379890	-0.076380
H206	H	0.904126	0.351614	-0.099779
H207	H	0.921138	0.369388	-0.042426
H208	H	0.768381	0.528265	-0.393507
N209	N	0.766718	0.513285	-0.503491
H210	H	0.762593	0.477405	-0.457288
H211	H	0.820096	0.478520	-0.511107
H212	H	0.697382	0.371883	0.192429
N213	N	1.185782	0.379886	0.174906
H214	H	1.156848	0.440469	0.148205
H215	H	1.156871	0.369323	0.148256
N216	N	0.875197	0.254426	-0.076367
H217	H	0.904136	0.282703	-0.099771
H218	H	0.833222	0.264930	-0.113538
H219	H	0.919117	0.124805	0.010055
N220	N	0.939357	-0.001545	0.011467
H221	H	0.927746	-0.039265	0.010666
H222	H	0.986488	-0.032889	0.057180
N223	N	1.151032	0.254420	0.453989
H224	H	1.179969	0.264920	0.480692
H225	H	1.179961	0.193846	0.480623
H226	H	0.863131	-0.000404	-0.066601
H227	H	0.863145	-0.109909	-0.066585
N228	N	1.150801	0.254470	-0.076266
H229	H	1.086880	0.282746	-0.099698
H230	H	1.179782	0.193884	-0.042325
H231	H	0.241516	0.999582	-0.301350
N232	N	0.685294	-0.117883	0.077209
H233	H	0.692227	-0.160698	0.071607
H234	H	0.621384	-0.071793	0.057775
N235	N	0.217100	0.858553	-0.113495
H236	H	0.246115	0.861844	-0.079626
H237	H	0.153172	0.905338	-0.136891
N238	N	0.564769	0.882116	0.077135
H239	H	0.597755	0.892619	0.043253
H240	H	0.597712	0.821544	0.114346
H241	H	0.083922	0.839013	-0.103588
N242	N	1.340918	0.254461	0.300401
H243	H	1.334875	0.282737	0.248707
H244	H	1.373881	0.193876	0.323848
N245	N	0.621146	0.138079	-0.010604
H246	H	0.572661	0.187623	-0.013954
H247	H	0.631562	0.087259	0.032572
H248	H	0.256659	1.054360	-0.423158
H249	H	0.792057	0.733735	-0.496171
H250	H	0.407245	0.999625	-0.435416
H251	H	0.341176	0.422986	0.104532
H252	H	0.542681	0.890115	-0.325870
N253	N	0.685336	0.784640	-0.825313
H254	H	0.621402	0.816963	-0.831023
H255	H	0.692354	0.773374	-0.862481
H256	H	1.017667	0.371920	-0.066543
N257	N	0.685166	0.784637	-0.327576
H258	H	0.656222	0.831460	-0.379278
H259	H	0.727124	0.787853	-0.304110
N260	N	0.621127	0.263555	-0.010647
H261	H	0.573959	0.294966	-0.056363
H262	H	0.632819	0.301213	-0.009807
N263	N	0.564741	0.477360	0.077110
H264	H	0.571822	0.445040	0.128832
H265	H	0.610688	0.488641	0.071401
N266	N	0.793818	0.748701	-0.621115
H267	H	0.792845	0.740108	-0.659634
H268	H	0.850310	0.741120	-0.606725
N269	N	0.685268	0.784633	-0.699870
H270	H	0.656325	0.831457	-0.751572
H271	H	0.727217	0.787853	-0.676400
H272	H	0.863244	0.496890	-0.673388
