data_functionalizedCrystal
_audit_creation_method	'MofGen! by Chris Wilmer'
_symmetry_space_group_name_H-M	'P1'
_symmetry_Int_Tables_number	1
_symmetry_cell_setting	triclinic
loop_
_symmetry_equiv_pos_as_xyz
  x,y,z
_cell_length_a	13.897448
_cell_length_b	10.685969
_cell_length_c	13.897431
_cell_angle_alpha	85.675917
_cell_angle_beta	89.924096
_cell_angle_gamma	94.348258
loop_
_atom_site_label
_atom_site_type_symbol
_atom_site_fract_x
_atom_site_fract_y
_atom_site_fract_z
Zn1	Zn	-0.496635	-1.929333	-0.432099
Zn2	Zn	-0.658070	-1.929087	-0.270815
Zn3	Zn	-0.484431	-1.718225	-0.283213
Zn4	Zn	-0.645521	-1.718308	-0.444444
O5	O	-0.571164	-1.823738	-0.357643
O6	O	-0.528408	-2.105862	-0.400350
O7	O	-0.635181	-1.900978	-0.137485
O8	O	-0.351072	-1.746297	-0.302985
O9	O	-0.647014	-2.105681	-0.281855
O10	O	-0.360038	-1.901397	-0.412372
O11	O	-0.507609	-1.746059	-0.146594
O12	O	-0.495441	-1.541674	-0.314955
O13	O	-0.625626	-1.746438	-0.577780
O14	O	-0.613793	-1.541735	-0.433411
O15	O	-0.516240	-1.901477	-0.568711
O16	O	-0.791383	-1.901059	-0.293825
O17	O	-0.782163	-1.746200	-0.421389
C18	C	-0.551932	-1.495924	-0.376869
C19	C	-0.543727	-1.355684	-0.385116
C20	C	-0.821773	-1.823646	-0.357620
C21	C	-0.928991	-1.823722	-0.357636
C22	C	-1.125294	-1.823855	-0.357689
C23	C	-1.016057	-1.823777	-0.357663
C24	C	-0.319579	-1.823865	-0.357684
C25	C	-0.212368	-1.823919	-0.357702
C26	C	-0.570895	-1.823994	-0.609221
C27	C	-0.570780	-1.824104	-0.716429
C28	C	-0.590463	-1.152832	-0.338331
C29	C	-0.598663	-1.293072	-0.330074
C30	C	-0.571367	-1.823555	-0.107039
C31	C	-0.571224	-1.823691	0.000183
C32	C	-0.571095	-1.823822	0.087260
C33	C	-0.570923	-1.823982	0.196502
H34	H	-0.651983	-1.346762	-0.276639
C35	C	-0.521813	-1.207517	-0.523504
C36	C	-0.471757	-1.283220	-0.457258
H37	H	-0.477379	-1.162770	-0.568037
H38	H	-0.566820	-1.258969	-0.557333
H39	H	-0.555175	-1.149454	-0.490067
H40	H	-0.438401	-1.341289	-0.490694
H41	H	-0.426734	-1.231763	-0.423426
