data_functionalizedCrystal
_audit_creation_method	'MofGen! by Chris Wilmer'
_symmetry_space_group_name_H-M	'P1'
_symmetry_Int_Tables_number	1
_symmetry_cell_setting	triclinic
loop_
_symmetry_equiv_pos_as_xyz
  x,y,z
_cell_length_a	10.654562
_cell_length_b	10.654550
_cell_length_c	9.798715
_cell_angle_alpha	90.001980
_cell_angle_beta	90.006507
_cell_angle_gamma	84.487503
loop_
_atom_site_label
_atom_site_type_symbol
_atom_site_fract_x
_atom_site_fract_y
_atom_site_fract_z
O1	O	1.667831	0.176472	0.113577
O2	O	1.302354	0.193261	0.113560
O3	O	1.493496	0.002128	0.113564
O4	O	1.476689	0.367606	0.113573
O5	O	1.493481	0.002127	-0.113418
O6	O	1.302340	0.193261	-0.113422
O7	O	1.667816	0.176471	-0.113405
Zn8	Zn	1.485076	0.184866	-0.149452
Zn9	Zn	1.485095	0.184867	0.149607
O10	O	1.476675	0.367605	-0.113409
C11	C	1.255549	0.192025	0.000066
C12	C	1.116107	0.188327	0.000060
C13	C	1.492254	-0.044671	0.000074
C14	C	1.488563	-0.184114	0.000079
C15	C	1.601103	-0.263595	0.000080
C16	C	1.597627	-0.394615	0.000089
C17	C	1.369059	-0.366662	0.000091
C18	C	1.372537	-0.235644	0.000091
C19	C	1.717129	-0.212064	0.000068
C20	C	1.829680	-0.291546	0.000068
C21	C	1.826203	-0.422567	0.000077
C22	C	1.710176	-0.474106	0.000087
C23	C	1.050568	0.186601	-0.123657
C24	C	0.919546	0.183137	-0.123635
C25	C	0.919612	0.183128	0.123834
C26	C	1.050633	0.186584	0.123810
C27	C	1.116043	0.188345	-0.247407
C28	C	1.050504	0.186621	-0.371135
C29	C	0.919481	0.183156	-0.371112
C30	C	0.853998	0.181415	-0.247362
C31	C	1.714621	0.177708	0.000091
C32	C	1.854064	0.181406	0.000107
C33	C	1.477916	0.414403	0.000083
C34	C	1.481608	0.553847	0.000088
N35	N	1.485072	0.184865	-0.353552
C36	C	1.565327	0.104259	-0.421327
C37	C	1.565347	0.104255	-0.578490
N38	N	1.485108	0.184858	0.353706
H39	H	1.719973	-0.105382	0.000056
C40	C	1.318112	0.352552	-0.339558
C41	C	1.392326	0.278022	-0.432275
H42	H	1.260847	0.410058	-0.388159
H43	H	1.370864	0.398110	-0.283817
H44	H	1.272277	0.300029	-0.283831
H45	H	1.438168	0.330545	-0.487995
H46	H	1.339567	0.232461	-0.488039
C47	C	1.636586	-0.112584	-0.622726
C48	C	1.658106	0.011085	-0.657159
H49	H	1.693859	-0.170103	-0.671291
H50	H	1.552582	-0.126734	-0.646106
H51	H	1.648745	-0.124788	-0.527429
H52	H	1.645938	0.023292	-0.752455
H53	H	1.742130	0.025241	-0.633789
H54	H	1.103830	0.188029	-0.471887
H55	H	1.416400	0.253876	-0.588019
C56	C	1.922365	-0.635820	0.000107
C57	C	1.949912	-0.509937	0.000092
H58	H	1.998743	-0.689754	0.000121
H59	H	1.874843	-0.651552	-0.079042
H60	H	1.874845	-0.651530	0.079266
H61	H	1.997425	-0.494225	-0.079074
H62	H	1.997455	-0.494199	0.079248
H63	H	1.634018	0.035248	-0.363003
C64	C	1.143478	-0.325878	0.000099
C65	C	1.241528	-0.423311	0.000095
H66	H	1.064746	-0.360852	0.000108
H67	H	1.149578	-0.275362	-0.079049
H68	H	1.149604	-0.275354	0.079259
H69	H	1.235407	-0.473830	-0.079070
H70	H	1.235425	-0.473848	0.079251
H71	H	1.280896	-0.170928	0.000088
C72	C	1.936501	-0.103115	0.000045
C73	C	1.957211	-0.234899	0.000060
H74	H	2.015237	-0.068149	0.000033
H75	H	1.890132	-0.075902	0.079192
H76	H	1.890105	-0.075920	-0.079116
H77	H	2.003599	-0.262094	0.079226
H78	H	2.003600	-0.262123	-0.079095
H79	H	1.707355	-0.580794	0.000109
H80	H	1.222727	0.191170	-0.247439
C81	C	1.184870	0.298242	0.267330
C82	C	1.122691	0.188486	0.259795
H83	H	1.229363	0.299407	0.351279
H84	H	1.124828	0.369989	0.262213
H85	H	1.242605	0.299752	0.193615
H86	H	1.064948	0.186981	0.333505
H87	H	1.182740	0.116721	0.264925
C88	C	0.892271	0.074326	-0.582047
C89	C	0.847446	0.181254	-0.507112
H90	H	0.847806	0.073163	-0.666014
H91	H	0.879733	0.000661	-0.531214
H92	H	0.979675	0.076651	-0.599752
H93	H	0.760044	0.178924	-0.489398
H94	H	0.859974	0.254938	-0.557956
C95	C	0.653149	0.284191	-0.179935
C96	C	0.709978	0.177583	-0.247321
H97	H	0.564240	0.281817	-0.179902
H98	H	0.673823	0.358073	-0.225646
H99	H	0.682831	0.284967	-0.088548
H100	H	0.680303	0.176812	-0.338712
H101	H	0.689294	0.103682	-0.201613
H102	H	0.866284	0.181713	0.224585
