data_functionalizedCrystal
_audit_creation_method	'MofGen! by Chris Wilmer'
_symmetry_space_group_name_H-M	'P1'
_symmetry_Int_Tables_number	1
_symmetry_cell_setting	triclinic
loop_
_symmetry_equiv_pos_as_xyz
  x,y,z
_cell_length_a	14.519731
_cell_length_b	14.519731
_cell_length_c	8.140239
_cell_angle_alpha	89.995496
_cell_angle_beta	89.997185
_cell_angle_gamma	83.688853
loop_
_atom_site_label
_atom_site_type_symbol
_atom_site_fract_x
_atom_site_fract_y
_atom_site_fract_z
O1	O	1.223862	0.120982	-0.136621
O2	O	0.955389	0.135198	-0.136624
O3	O	1.096734	-0.006146	-0.136607
O4	O	1.082518	0.262327	-0.136637
O5	O	1.096726	-0.006148	0.136620
O6	O	0.955381	0.135196	0.136603
O7	O	1.223855	0.120981	0.136606
Zn8	Zn	1.089617	0.128088	0.179986
Zn9	Zn	1.089627	0.128090	-0.180003
O10	O	1.082510	0.262325	0.136590
C11	C	0.921026	0.134531	-0.000010
C12	C	0.818645	0.132535	-0.000011
C13	C	0.735501	0.130913	-0.000018
C14	C	0.631192	0.128887	-0.000018
C15	C	0.548053	0.127278	-0.000018
C16	C	0.443738	0.125252	-0.000021
C17	C	1.096064	-0.040507	0.000007
C18	C	1.094068	-0.142887	0.000008
C19	C	1.092446	-0.226031	0.000004
C20	C	1.090419	-0.330340	-0.000009
C21	C	1.088811	-0.413479	-0.000019
C22	C	1.086785	-0.517795	-0.000029
C23	C	1.258218	0.121648	-0.000011
C24	C	1.360598	0.123643	-0.000021
C25	C	1.083180	0.296685	-0.000028
C26	C	1.085176	0.399066	-0.000039
N27	N	1.089617	0.128086	0.425668
N28	N	1.089635	0.128085	-0.425685
