data_functionalizedCrystal
_audit_creation_method	'MofGen! by Chris Wilmer'
_symmetry_space_group_name_H-M	'P1'
_symmetry_Int_Tables_number	1
_symmetry_cell_setting	triclinic
loop_
_symmetry_equiv_pos_as_xyz
  x,y,z
_cell_length_a	11.026607
_cell_length_b	9.616153
_cell_length_c	10.908878
_cell_angle_alpha	90.005681
_cell_angle_beta	84.335404
_cell_angle_gamma	90.001087
loop_
_atom_site_label
_atom_site_type_symbol
_atom_site_fract_x
_atom_site_fract_y
_atom_site_fract_z
O1	O	1.506478	0.115644	0.513763
O2	O	1.164978	0.115646	0.455261
O3	O	1.380998	0.115640	0.308045
O4	O	1.290458	0.115651	0.660980
O5	O	1.380994	-0.115652	0.308030
O6	O	1.164974	-0.115645	0.455247
O7	O	1.506474	-0.115647	0.513748
Zn8	Zn	1.335723	-0.152369	0.484495
Zn9	Zn	1.335729	0.152368	0.484515
O10	O	1.290454	-0.115641	0.660965
C11	C	1.121943	0.000001	0.444461
C12	C	0.993722	0.000001	0.412288
C13	C	0.901989	0.000005	0.501123
C14	C	0.769465	0.000006	0.467873
N15	N	1.335728	-0.360343	0.484483
C16	C	1.451566	-0.580674	0.406155
C17	C	1.451389	-0.419506	0.405719
C18	C	1.220408	-0.418874	0.428562
C19	C	1.221119	-0.580092	0.427990
C20	C	1.334074	-0.580214	0.618846
C21	C	1.336992	-0.418985	0.618611
C22	C	1.549509	0.000001	0.524548
C23	C	1.677730	0.000009	0.556721
C24	C	1.389458	-0.000005	0.262152
C25	C	1.414656	0.000000	0.125424
N26	N	1.335735	0.360342	0.484519
C27	C	1.322712	0.000003	0.055162
C28	C	1.348753	0.000008	-0.086154
C29	C	1.281995	0.000006	0.706858
C30	C	1.256796	0.000011	0.843586
H31	H	0.921564	0.000000	0.601794
H32	H	1.158792	-0.000002	-0.111956
H33	H	0.749896	0.000038	0.367196
H34	H	0.697297	0.000003	0.657399
H35	H	0.974146	0.000034	0.311618
H36	H	1.537946	-0.379931	0.443153
H37	H	1.224716	-0.000005	0.099627
H38	H	1.446756	0.000003	-0.130614
H39	H	1.538479	-0.619434	0.443394
H40	H	1.455425	-0.621207	0.307643
H41	H	1.512652	-0.000005	0.080959
H42	H	1.218633	-0.617712	0.329171
H43	H	1.455130	-0.380955	0.306609
H44	H	1.133672	-0.619113	0.481442
H45	H	1.414972	-0.620862	0.665677
H46	H	1.133214	-0.380554	0.482941
H47	H	1.217179	-0.378514	0.330686
H48	H	1.256109	-0.378709	0.681815
H49	H	1.421695	-0.380730	0.660397
H50	H	1.249305	-0.618366	0.677493
