data_functionalizedCrystal
_audit_creation_method	'MofGen! by Chris Wilmer'
_symmetry_space_group_name_H-M	'P1'
_symmetry_Int_Tables_number	1
_symmetry_cell_setting	triclinic
loop_
_symmetry_equiv_pos_as_xyz
  x,y,z
_cell_length_a	19.188930
_cell_length_b	18.266242
_cell_length_c	19.188924
_cell_angle_alpha	90.009637
_cell_angle_beta	83.143372
_cell_angle_gamma	90.013084
loop_
_atom_site_label
_atom_site_type_symbol
_atom_site_fract_x
_atom_site_fract_y
_atom_site_fract_z
O1	O	0.926137	0.061120	0.087171
O2	O	1.259470	0.394453	0.420505
O3	O	1.592804	0.727786	0.753838
O4	O	0.722825	0.061070	0.098906
O5	O	1.056159	0.394403	0.432239
O6	O	1.389492	0.727736	0.765572
O7	O	0.830351	0.061088	-0.008617
O8	O	1.163684	0.394421	0.324716
O9	O	1.497017	0.727754	0.658049
O10	O	0.818611	0.061102	0.194695
O11	O	1.151945	0.394435	0.528028
O12	O	1.485278	0.727769	0.861361
O13	O	0.830353	-0.060674	-0.008628
O14	O	1.163686	0.272659	0.324706
O15	O	1.497020	0.605992	0.658039
O16	O	0.722828	-0.060692	0.098895
O17	O	1.056161	0.272641	0.432229
O18	O	1.389494	0.605975	0.765562
O19	O	0.926139	-0.060642	0.087161
O20	O	1.259473	0.272691	0.420494
O21	O	1.592806	0.606024	0.753828
Zn22	Zn	0.824484	-0.080000	0.093027
Zn23	Zn	1.157817	0.253334	0.426360
Zn24	Zn	1.491150	0.586667	0.759693
Zn25	Zn	0.824481	0.080427	0.093040
Zn26	Zn	1.157814	0.413760	0.426374
Zn27	Zn	1.491147	0.747094	0.759707
O28	O	0.818614	-0.060660	0.194684
O29	O	1.151947	0.272673	0.528018
O30	O	1.485280	0.606007	0.861351
C31	C	0.696815	0.000182	0.098521
C32	C	1.030149	0.333516	0.431854
C33	C	1.363482	0.666849	0.765187
C34	C	0.619311	0.000163	0.097380
C35	C	0.952644	0.333496	0.430713
C36	C	1.285978	0.666830	0.764047
N37	N	0.824491	-0.189487	0.093017
N38	N	1.157824	0.143847	0.426350
N39	N	1.491158	0.477180	0.759683
C40	C	0.829973	0.000206	-0.034634
C41	C	1.163306	0.333539	0.298700
C42	C	1.496639	0.666872	0.632033
C43	C	0.828834	0.000204	-0.112138
C44	C	1.162167	0.333537	0.221195
C45	C	1.495500	0.666870	0.554528
C46	C	0.574385	0.000179	0.160471
C47	C	0.907719	0.333512	0.493804
C48	C	1.241052	0.666846	0.827138
C49	C	0.501562	0.000187	0.159399
C50	C	0.834895	0.333520	0.492733
C51	C	1.168228	0.666854	0.826066
C52	C	0.473667	0.000194	0.095233
C53	C	0.807000	0.333527	0.428566
C54	C	1.140333	0.666860	0.761900
C55	C	0.518602	0.000174	0.032134
C56	C	0.851935	0.333507	0.365467
C57	C	1.185269	0.666840	0.698800
C58	C	0.591424	0.000158	0.033207
C59	C	0.924758	0.333492	0.366540
C60	C	1.258091	0.666825	0.699874
N61	N	0.365687	0.041661	0.046189
N62	N	0.699020	0.374994	0.379523
N63	N	1.032354	0.708327	0.712856
N64	N	0.296508	0.041677	0.045174
N65	N	0.629842	0.375010	0.378507
N66	N	0.963175	0.708343	0.711841
C67	C	0.254258	0.000238	0.091995
C68	C	0.587591	0.333572	0.425328
C69	C	0.920925	0.666905	0.758661
N70	N	0.283798	-0.041208	0.139880
N71	N	0.617132	0.292126	0.473213
N72	N	0.950465	0.625459	0.806547
N73	N	0.352983	-0.041221	0.140898
N74	N	0.686316	0.292113	0.474231
N75	N	1.019650	0.625446	0.807564
C76	C	0.394704	0.000210	0.094062
C77	C	0.728038	0.333543	0.427395
C78	C	1.061371	0.666877	0.760729
C79	C	0.130368	0.000262	0.153928
C80	C	0.463702	0.333595	0.487262
C81	C	0.797035	0.666928	0.820595
C82	C	0.057543	0.000265	0.152854
C83	C	0.390877	0.333599	0.486187
C84	C	0.724210	0.666932	0.819521
C85	C	0.074585	0.000259	0.025586
C86	C	0.407919	0.333593	0.358920
C87	C	0.741252	0.666926	0.692253
C88	C	0.147409	0.000248	0.026663
C89	C	0.480742	0.333582	0.359996
C90	C	0.814075	0.666915	0.693329
C91	C	0.175295	0.000253	0.090835
C92	C	0.508629	0.333587	0.424169
C93	C	0.841962	0.666920	0.757502
C94	C	0.952149	0.000247	0.087546
C95	C	1.285482	0.333580	0.420880
C96	C	1.618816	0.666913	0.754213
C97	C	1.029654	0.000271	0.088687
C98	C	1.362987	0.333604	0.422020
C99	C	1.696320	0.666937	0.755354
N100	N	0.824479	0.189914	0.093044
N101	N	1.157812	0.523247	0.426378
N102	N	1.491146	0.856581	0.759711
C103	C	0.872176	0.228231	0.045526
C104	C	1.205509	0.561564	0.378859
C105	C	1.538843	0.894897	0.712192
C106	C	0.872182	0.304876	0.045524
C107	C	1.205516	0.638209	0.378858
C108	C	1.538849	0.971542	0.712191
C109	C	0.824480	0.343201	0.093035
C110	C	1.157813	0.676534	0.426368
C111	C	1.491146	1.009868	0.759702
C112	C	0.776779	0.304875	0.140563
C113	C	1.110112	0.638208	0.473896
C114	C	1.443446	0.971542	0.807229
C115	C	0.776779	0.228231	0.140567
C116	C	1.110112	0.561565	0.473901
C117	C	1.443445	0.894898	0.807234
N118	N	0.762672	0.463525	0.101961
N119	N	1.096006	0.796859	0.435294
N120	N	1.429339	1.130192	0.768628
N121	N	0.762675	0.536333	0.101952
N122	N	1.096008	0.869667	0.435286
N123	N	1.429342	1.203000	0.768619
C124	C	0.824478	0.574123	0.093024
C125	C	1.157812	0.907457	0.426358
C126	C	1.491145	1.240790	0.759691
N127	N	0.886282	0.536355	0.084092
N128	N	1.219615	0.869688	0.417425
N129	N	1.552948	1.203021	0.750759
N130	N	0.886279	0.463540	0.084097
N131	N	1.219612	0.796873	0.417430
N132	N	1.552945	1.130207	0.750764
C133	C	0.824475	0.426308	0.093035
C134	C	1.157808	0.759641	0.426369
C135	C	1.491142	1.092974	0.759702
C136	C	0.872186	0.695547	0.045502
C137	C	1.205519	1.028881	0.378835
C138	C	1.538853	1.362214	0.712168
C139	C	0.872193	0.772194	0.045505
C140	C	1.205527	1.105527	0.378838
C141	C	1.538860	1.438860	0.712172
C142	C	0.776784	0.772191	0.140540
C143	C	1.110117	1.105525	0.473873
C144	C	1.443451	1.438858	0.807206
C145	C	0.776783	0.695546	0.140540
C146	C	1.110116	1.028880	0.473873
C147	C	1.443450	1.362213	0.807206
C148	C	0.824483	0.657229	0.093017
C149	C	1.157817	0.990562	0.426350
C150	C	1.491150	1.323896	0.759684
C151	C	0.828301	0.066576	-0.148532
C152	C	1.161634	0.399909	0.184802
C153	C	1.494968	0.733243	0.518135
C154	C	0.827221	0.066581	-0.221354
C155	C	1.160554	0.399915	0.111979
C156	C	1.493888	0.733248	0.445312
C157	C	0.826688	0.000210	-0.257783
C158	C	1.160021	0.333544	0.075550
C159	C	1.493355	0.666877	0.408884
C160	C	0.827217	-0.066171	-0.221380
C161	C	1.160550	0.267162	0.111953
C162	C	1.493884	0.600496	0.445286
C163	C	0.828290	-0.066174	-0.148558
C164	C	1.161623	0.267159	0.184775
C165	C	1.494956	0.600492	0.518109
N166	N	0.864737	-0.049179	-0.377450
N167	N	1.198070	0.284155	-0.044117
N168	N	1.531403	0.617488	0.289216
N169	N	0.863719	-0.049171	-0.446629
N170	N	1.197052	0.284163	-0.113295
N171	N	1.530386	0.617496	0.220038
C172	C	0.823454	0.000217	-0.477192
C173	C	1.156787	0.333550	-0.143859
C174	C	1.490121	0.666883	0.189475
N175	N	0.784254	0.049607	-0.435965
N176	N	1.117587	0.382941	-0.102632
N177	N	1.450920	0.716274	0.230702
N178	N	0.785275	0.049602	-0.366781
N179	N	1.118608	0.382935	-0.033447
N180	N	1.451941	0.716268	0.299886
C181	C	0.825524	0.000207	-0.336746
C182	C	1.158858	0.333540	-0.003413
C183	C	1.492191	0.666873	0.329920
C184	C	0.821749	0.066599	-0.592548
C185	C	1.155083	0.399933	-0.259215
C186	C	1.488416	0.733266	0.074119
C187	C	0.820665	0.066602	-0.665371
C188	C	1.153998	0.399935	-0.332038
C189	C	1.487332	0.733269	0.001295
C190	C	0.820668	-0.066152	-0.665397
C191	C	1.154001	0.267181	-0.332064
C192	C	1.487334	0.600514	0.001270
C193	C	0.821745	-0.066153	-0.592574
C194	C	1.155078	0.267181	-0.259241
C195	C	1.488412	0.600514	0.074093
C196	C	0.822289	0.000225	-0.556154
C197	C	1.155622	0.333558	-0.222821
C198	C	1.488956	0.666892	0.110512
C199	C	0.818992	0.000223	0.220700
C200	C	1.152325	0.333557	0.554034
C201	C	1.485659	0.666890	0.887367
C202	C	0.820131	0.000230	0.298205
C203	C	1.153464	0.333564	0.631539
C204	C	1.486797	0.666897	0.964872
H205	H	0.597086	0.000184	0.212725
H206	H	0.930419	0.333518	0.546059
H207	H	1.263752	0.666851	0.879392
H208	H	0.826781	-0.120211	-0.251045
H209	H	1.160114	0.213123	0.082288
H210	H	1.493447	0.546456	0.415622
C211	C	0.452135	0.000213	0.228807
C212	C	0.785468	0.333547	0.562140
C213	C	1.118801	0.666880	0.895474
N214	N	0.414908	0.000237	0.281085
N215	N	0.748241	0.333570	0.614419
N216	N	1.081575	0.666903	0.947752
C217	C	0.828880	-0.139193	-0.108525
C218	C	1.162213	0.194141	0.224808
C219	C	1.495547	0.527474	0.558142
N220	N	0.829327	-0.194191	-0.078371
N221	N	1.162660	0.139142	0.254962
N222	N	1.495994	0.472476	0.588295
H223	H	0.737940	0.336083	0.179247
H224	H	1.071273	0.669416	0.512581
H225	H	1.404606	1.002750	0.845914
C226	C	0.008124	0.000272	0.222263
C227	C	0.341458	0.333605	0.555596
C228	C	0.674791	0.666939	0.888930
N229	N	-0.029099	0.000275	0.274543
N230	N	0.304235	0.333609	0.607877
N231	N	0.637568	0.666942	0.941210
C232	C	0.161046	0.000258	0.224519
C233	C	0.494379	0.333591	0.557852
C234	C	0.827713	0.666925	0.891186
N235	N	0.184151	0.000254	0.277688
N236	N	0.517484	0.333587	0.611022
N237	N	0.850817	0.666920	0.944355
C238	C	0.640845	0.000146	-0.036201
C239	C	0.974178	0.333479	0.297132
C240	C	1.307511	0.666812	0.630465
N241	N	0.678069	0.000139	-0.088481
N242	N	1.011402	0.333472	0.244853
N243	N	1.344736	0.666805	0.578186
C244	C	0.196829	0.000239	-0.042744
C245	C	0.530162	0.333573	0.290590
C246	C	0.863496	0.666906	0.623923
N247	N	0.234053	0.000231	-0.095024
N248	N	0.567386	0.333565	0.238310
N249	N	0.900719	0.666898	0.571643
H250	H	0.737938	0.197033	0.179264
H251	H	1.071271	0.530367	0.512597
H252	H	1.404604	0.863700	0.845930
H253	H	0.737946	0.803395	0.179226
H254	H	1.071280	1.136728	0.512560
H255	H	1.404613	1.470062	0.845893
H256	H	0.911029	0.664348	0.006808
H257	H	1.244362	0.997681	0.340141
H258	H	1.577696	1.331015	0.673474
C259	C	0.924667	0.814342	-0.006772
C260	C	1.258000	1.147675	0.326561
C261	C	1.591333	1.481008	0.659894
N262	N	0.964189	0.846088	-0.046150
N263	N	1.297523	1.179422	0.287184
N264	N	1.630856	1.512755	0.620517
C265	C	0.724305	0.653396	0.192807
C266	C	1.057638	0.986730	0.526141
C267	C	1.390971	1.320063	0.859474
N268	N	0.684775	0.621649	0.232178
N269	N	1.018109	0.954983	0.565511
N270	N	1.351442	1.288316	0.898845
C271	C	0.828893	0.139594	-0.108473
C272	C	1.162226	0.472927	0.224860
C273	C	1.495560	0.806261	0.558193
N274	N	0.829337	0.194592	-0.078300
N275	N	1.162670	0.527925	0.255033
N276	N	1.496003	0.861258	0.588367
C277	C	0.822337	0.139616	-0.552482
C278	C	1.155670	0.472949	-0.219149
C279	C	1.489004	0.806282	0.114184
N280	N	0.822778	0.194612	-0.522307
N281	N	1.156111	0.527945	-0.188973
N282	N	1.489444	0.861279	0.144360
H283	H	0.822185	-0.120201	-0.562943
H284	H	1.155518	0.213133	-0.229610
H285	H	1.488851	0.546466	0.103724
H286	H	0.820228	0.120653	-0.695001
H287	H	1.153561	0.453986	-0.361668
H288	H	1.486894	0.787319	-0.028334
H289	H	0.051874	0.000310	-0.026659
H290	H	0.385208	0.333643	0.306674
H291	H	0.718541	0.666977	0.640008
H292	H	0.826783	0.120631	-0.250991
H293	H	1.160116	0.453965	0.082342
H294	H	1.493450	0.787298	0.415676
C295	C	0.820081	-0.139161	-0.705464
C296	C	1.153415	0.194172	-0.372131
C297	C	1.486748	0.527505	-0.038797
N298	N	0.819638	-0.194154	-0.735646
N299	N	1.152972	0.139179	-0.402313
N300	N	1.486305	0.472513	-0.068979
H301	H	0.495885	0.000189	-0.020111
H302	H	0.829219	0.333522	0.313222
H303	H	1.162552	0.666856	0.646556
H304	H	0.911018	0.197035	0.006832
H305	H	1.244351	0.530368	0.340165
H306	H	1.577685	0.863702	0.673498
C307	C	0.924651	0.347033	-0.006756
C308	C	1.257984	0.680366	0.326578
C309	C	1.591318	1.013699	0.659911
N310	N	0.964169	0.378783	-0.046135
N311	N	1.297502	0.712116	0.287199
N312	N	1.630836	1.045450	0.620532
