data_functionalizedCrystal
_audit_creation_method	'MofGen! by Chris Wilmer'
_symmetry_space_group_name_H-M	'P1'
_symmetry_Int_Tables_number	1
_symmetry_cell_setting	triclinic
loop_
_symmetry_equiv_pos_as_xyz
  x,y,z
_cell_length_a	8.634740
_cell_length_b	15.995292
_cell_length_c	7.681481
_cell_angle_alpha	84.262304
_cell_angle_beta	96.618670
_cell_angle_gamma	92.019462
loop_
_atom_site_label
_atom_site_type_symbol
_atom_site_fract_x
_atom_site_fract_y
_atom_site_fract_z
O1	O	2.031376	0.279741	-0.146407
O2	O	1.582432	0.256849	-0.146411
O3	O	1.819222	0.147398	-0.146411
O4	O	1.794585	0.389192	-0.146406
O5	O	1.848367	0.133890	0.146446
O6	O	1.611577	0.243342	0.146447
O7	O	2.060521	0.266233	0.146451
Zn8	Zn	1.840676	0.252643	0.192947
Zn9	Zn	1.802276	0.270440	-0.192906
O10	O	1.823730	0.375684	0.146452
C11	C	1.539556	0.244910	0.000017
C12	C	1.368379	0.229448	0.000015
C13	C	1.832792	0.109368	0.000013
C14	C	1.829784	0.016173	-0.000000
C15	C	1.818734	-0.322458	0.000016
C16	C	1.989708	-0.285387	0.000672
C17	C	1.992890	-0.188419	0.000005
C18	C	1.824217	-0.154459	0.000009
C19	C	1.722128	-0.182740	-0.167222
C20	C	1.720057	-0.279691	-0.167356
C21	C	1.749711	-0.295190	0.165678
C22	C	1.756263	-0.198288	0.167882
C23	C	1.827306	-0.059513	-0.000001
C24	C	1.815638	-0.417403	0.000014
C25	C	2.103396	0.278173	0.000019
C26	C	2.274572	0.293635	0.000010
C27	C	1.810160	0.413715	0.000023
C28	C	1.813167	0.506910	0.000025
N29	N	1.866894	0.240498	0.456281
N30	N	1.776071	0.282579	-0.456240
H31	H	2.071739	-0.169524	0.119881
H32	H	2.067520	-0.313601	0.120601
H33	H	1.959624	0.197550	0.531486
C34	C	1.222355	0.440082	0.000018
C35	C	1.342928	0.383792	0.000024
H36	H	1.264567	0.495741	0.000038
H37	H	1.150220	0.436059	-0.102110
H38	H	1.170523	0.426629	0.102143
H39	H	1.394753	0.397241	-0.102108
H40	H	1.415090	0.387819	0.102162
C41	C	1.774901	-0.309943	0.481760
C42	C	1.839010	-0.335393	0.336800
H43	H	1.830038	-0.334768	0.587394
H44	H	1.782917	-0.250480	0.479598
H45	H	1.668273	-0.327334	0.476610
H46	H	1.945635	-0.317997	0.341943
H47	H	1.831009	-0.394869	0.338964
H48	H	1.317722	0.162664	-0.000036
H49	H	2.043350	-0.303619	-0.118583
H50	H	2.048253	-0.159045	-0.120081
H51	H	1.766793	-0.295967	-0.292367
H52	H	1.683358	0.325531	0.468563
C53	C	1.764900	-0.133552	0.437802
C54	C	1.856858	-0.174160	0.334914
H55	H	1.827005	-0.118660	0.540924
H56	H	1.723538	-0.084268	0.372149
H57	H	1.681804	-0.170197	0.470133
H58	H	1.939948	-0.137513	0.302572
H59	H	1.898244	-0.223451	0.400579
H60	H	1.593992	-0.304001	-0.174930
H61	H	1.597388	-0.160600	-0.173437
H62	H	1.769079	-0.152153	-0.291677
C63	C	1.547624	-0.108814	0.038660
C64	C	1.591419	-0.167821	0.181534
H65	H	1.445848	-0.090008	0.047080
H66	H	1.619214	-0.062355	0.040072
H67	H	1.548083	-0.134068	-0.068069
H68	H	1.590970	-0.142565	0.288264
H69	H	1.519810	-0.214287	0.180139
H70	H	1.624021	-0.319382	0.166807
