data_functionalizedCrystal
_audit_creation_method	'MofGen! by Chris Wilmer'
_symmetry_space_group_name_H-M	'P1'
_symmetry_Int_Tables_number	1
_symmetry_cell_setting	triclinic
loop_
_symmetry_equiv_pos_as_xyz
  x,y,z
_cell_length_a	21.295417
_cell_length_b	19.121141
_cell_length_c	19.121175
_cell_angle_alpha	94.788888
_cell_angle_beta	92.410242
_cell_angle_gamma	92.416218
loop_
_atom_site_label
_atom_site_type_symbol
_atom_site_fract_x
_atom_site_fract_y
_atom_site_fract_z
Zn1	Zn	-0.309440	-1.092590	-0.443682
Zn2	Zn	0.023893	-0.759257	-0.110349
Zn3	Zn	0.357226	-0.425923	0.222985
Zn4	Zn	-0.410016	-1.087480	-0.326007
Zn5	Zn	-0.076682	-0.754147	0.007326
Zn6	Zn	0.256651	-0.420813	0.340660
Zn7	Zn	-0.300069	-0.969916	-0.321016
Zn8	Zn	0.033264	-0.636582	0.012317
Zn9	Zn	0.366597	-0.303249	0.345650
Zn10	Zn	-0.409972	-0.974880	-0.438615
Zn11	Zn	-0.076639	-0.641546	-0.105282
Zn12	Zn	0.256694	-0.308213	0.228051
O13	O	-0.357374	-1.031216	-0.382330
O14	O	-0.024041	-0.697883	-0.048997
O15	O	0.309292	-0.364550	0.284336
O16	O	-0.326722	-1.190375	-0.432281
O17	O	0.006612	-0.857042	-0.098948
O18	O	0.339945	-0.523709	0.234385
O19	O	-0.391527	-1.067669	-0.226882
O20	O	-0.058194	-0.734335	0.106451
O21	O	0.275140	-0.401002	0.439785
O22	O	-0.213227	-0.986250	-0.337320
O23	O	0.120107	-0.652917	-0.003987
O24	O	0.453440	-0.319583	0.329347
O25	O	-0.400614	-1.186621	-0.345826
O26	O	-0.067280	-0.853288	-0.012493
O27	O	0.266053	-0.519954	0.320841
O28	O	-0.220111	-1.076378	-0.427442
O29	O	0.113222	-0.743045	-0.094109
O30	O	0.446555	-0.409712	0.239225
O31	O	-0.310750	-0.981295	-0.223216
O32	O	0.022583	-0.647962	0.110118
O33	O	0.355916	-0.314628	0.443451
O34	O	-0.310708	-0.872111	-0.332407
O35	O	0.022625	-0.538778	0.000926
O36	O	0.355958	-0.205444	0.334259
O37	O	-0.400540	-0.994710	-0.537750
O38	O	-0.067207	-0.661377	-0.204417
O39	O	0.266126	-0.328044	0.128916
O40	O	-0.391454	-0.875758	-0.418807
O41	O	-0.058120	-0.542425	-0.085473
O42	O	0.275213	-0.209091	0.247860
O43	O	-0.326680	-1.081192	-0.541473
O44	O	0.006653	-0.747858	-0.208140
O45	O	0.339987	-0.414525	0.125194
O46	O	-0.498096	-1.072482	-0.340913
O47	O	-0.164762	-0.739149	-0.007580
O48	O	0.168571	-0.405815	0.325754
O49	O	-0.498064	-0.989755	-0.423646
O50	O	-0.164731	-0.656422	-0.090313
O51	O	0.168603	-0.323088	0.243021
C52	C	-0.350060	-0.848404	-0.374516
C53	C	-0.016727	-0.515071	-0.041183
C54	C	0.316607	-0.181737	0.292151
C55	C	-0.346947	-0.770197	-0.371190
C56	C	-0.013613	-0.436863	-0.037856
C57	C	0.319720	-0.103530	0.295477
C58	C	-0.387582	-0.735369	-0.414540
C59	C	-0.054248	-0.402036	-0.081207
C60	C	0.279085	-0.068702	0.252127
C61	C	-0.384648	-0.661885	-0.411418
C62	C	-0.051315	-0.328552	-0.078085
C63	C	0.282018	0.004781	0.255249
C64	C	-0.341082	-0.623230	-0.364942
C65	C	-0.007749	-0.289897	-0.031608
C66	C	0.325584	0.043436	0.301725
C67	C	-0.300443	-0.658063	-0.321590
C68	C	0.032890	-0.324730	0.011744
C69	C	0.366224	0.008603	0.345077
C70	C	-0.303374	-0.731546	-0.324716
C71	C	0.029959	-0.398213	0.008618
C72	C	0.363293	-0.064879	0.341951
C73	C	-0.330124	-0.401265	-0.353259
C74	C	0.003209	-0.067931	-0.019926
C75	C	0.336542	0.265402	0.313407
C76	C	-0.327198	-0.327777	-0.350135
C77	C	0.006136	0.005557	-0.016802
C78	C	0.339469	0.338890	0.316532
C79	C	-0.411402	-0.331604	-0.439965
C80	C	-0.078069	0.001729	-0.106631
C81	C	0.255264	0.335063	0.226702
C82	C	-0.414332	-0.405088	-0.443084
C83	C	-0.080999	-0.071754	-0.109750
C84	C	0.252335	0.261579	0.223583
C85	C	-0.373690	-0.439914	-0.399734
C86	C	-0.040357	-0.106581	-0.066401
C87	C	0.292976	0.226752	0.266932
C88	C	-0.338084	-0.548118	-0.361748
C89	C	-0.004751	-0.214785	-0.028414
C90	C	0.328582	0.118549	0.304919
C91	C	-0.376686	-0.515026	-0.402932
C92	C	-0.043353	-0.181692	-0.069599
C93	C	0.289981	0.151641	0.263734
C94	C	-0.520921	-1.031122	-0.382287
C95	C	-0.187588	-0.697789	-0.048954
C96	C	0.145746	-0.364456	0.284379
C97	C	-0.590890	-1.031148	-0.382295
C98	C	-0.257557	-0.697814	-0.048962
C99	C	0.075776	-0.364481	0.284371
C100	C	-0.623756	-1.074265	-0.339264
C101	C	-0.290423	-0.740932	-0.005931
C102	C	0.042911	-0.407599	0.327403
C103	C	-0.689500	-1.074299	-0.339281
C104	C	-0.356167	-0.740966	-0.005948
C105	C	-0.022834	-0.407632	0.327385
C106	C	-0.722376	-1.031202	-0.382322
C107	C	-0.389042	-0.697869	-0.048988
C108	C	-0.055709	-0.364535	0.284345
C109	C	-0.689502	-0.988081	-0.425362
C110	C	-0.356169	-0.654748	-0.092028
C111	C	-0.022836	-0.321415	0.241305
C112	C	-0.623760	-0.988054	-0.425348
C113	C	-0.290426	-0.654721	-0.092015
C114	C	0.042907	-0.321388	0.241318
N115	N	-0.823397	-0.969878	-0.385055
N116	N	-0.490063	-0.636545	-0.051721
N117	N	-0.156730	-0.303211	0.281612
N118	N	-0.885850	-0.969906	-0.385063
N119	N	-0.552516	-0.636572	-0.051730
N120	N	-0.219183	-0.303239	0.281603
C121	C	-0.920455	-1.031283	-0.382366
C122	C	-0.587122	-0.697949	-0.049032
C123	C	-0.253789	-0.364616	0.284301
N124	N	-0.890248	-1.092632	-0.379645
N125	N	-0.556915	-0.759298	-0.046312
N126	N	-0.223582	-0.425965	0.287022
N127	N	-0.827790	-1.092603	-0.379633
N128	N	-0.494456	-0.759270	-0.046299
N129	N	-0.161123	-0.425936	0.287034
C130	C	-0.793663	-1.031227	-0.382341
C131	C	-0.460330	-0.697894	-0.049008
C132	C	-0.126996	-0.364560	0.284325
C133	C	-1.024609	-1.074441	-0.339351
C134	C	-0.691275	-0.741107	-0.006017
C135	C	-0.357942	-0.407774	0.327316
C136	C	-1.090354	-1.074476	-0.339373
C137	C	-0.757021	-0.741142	-0.006040
C138	C	-0.423688	-0.407809	0.327294
C139	C	-1.090355	-0.988252	-0.425449
C140	C	-0.757022	-0.654918	-0.092116
C141	C	-0.423688	-0.321585	0.241217
C142	C	-1.024611	-0.988223	-0.425431
C143	C	-0.691277	-0.654890	-0.092098
C144	C	-0.357944	-0.321556	0.241236
C145	C	-0.991741	-1.031316	-0.382378
C146	C	-0.658408	-0.697983	-0.049045
C147	C	-0.325075	-0.364650	0.284289
C148	C	-0.193191	-1.031330	-0.382390
C149	C	0.140143	-0.697997	-0.049056
C150	C	0.473476	-0.364664	0.284277
C151	C	-0.123225	-1.031379	-0.382415
C152	C	0.210108	-0.698046	-0.049081
C153	C	0.543441	-0.364712	0.284252
C154	C	-0.364651	-1.039075	-0.565856
C155	C	-0.031317	-0.705741	-0.232523
C156	C	0.302016	-0.372408	0.100811
C157	C	-0.367751	-1.042423	-0.644064
C158	C	-0.034418	-0.709090	-0.310730
C159	C	0.298915	-0.375757	0.022603
C160	C	-0.364714	-0.214742	-0.390167
C161	C	-0.031381	0.118591	-0.056834
C162	C	0.301952	0.451925	0.276500
C163	C	-0.367833	-0.292949	-0.393485
C164	C	-0.034499	0.040384	-0.060152
C165	C	0.298834	0.373718	0.273181
C166	C	-0.327153	-0.999028	-0.678896
C167	C	0.006181	-0.665695	-0.345563
C168	C	0.339514	-0.332362	-0.012230
C169	C	-0.330071	-1.002172	-0.752381
C170	C	0.003262	-0.668839	-0.419047
C171	C	0.336595	-0.335505	-0.085714
C172	C	-0.373586	-1.048715	-0.791031
C173	C	-0.040253	-0.715382	-0.457698
C174	C	0.293081	-0.382048	-0.124364
C175	C	-0.414189	-1.092112	-0.756193
C176	C	-0.080856	-0.758778	-0.422860
C177	C	0.252478	-0.425445	-0.089527
C178	C	-0.411273	-1.088964	-0.682710
C179	C	-0.077940	-0.755631	-0.349377
C180	C	0.255394	-0.422297	-0.016043
C181	C	-0.384497	-1.060466	-1.012998
C182	C	-0.051164	-0.727132	-0.679665
C183	C	0.282170	-0.393799	-0.346331
C184	C	-0.387409	-1.063612	-1.086486
C185	C	-0.054075	-0.730279	-0.753153
C186	C	0.279258	-0.396945	-0.419820
C187	C	-0.303292	-0.973671	-1.082668
C188	C	0.030042	-0.640338	-0.749335
C189	C	0.363375	-0.307004	-0.416002
C190	C	-0.300377	-0.970530	-1.009184
C191	C	0.032956	-0.637197	-0.675851
C192	C	0.366290	-0.303863	-0.342517
C193	C	-0.340982	-1.013924	-0.974353
C194	C	-0.007649	-0.680591	-0.641019
C195	C	0.325685	-0.347258	-0.307686
C196	C	-0.376569	-1.051931	-0.866144
C197	C	-0.043236	-0.718598	-0.532811
C198	C	0.290098	-0.385264	-0.199477
C199	C	-0.338002	-1.010704	-0.899241
C200	C	-0.004668	-0.677371	-0.565908
C201	C	0.328665	-0.344037	-0.232574
C202	C	-0.350083	-1.023429	-0.199520
C203	C	-0.016749	-0.690096	0.133813
C204	C	0.316584	-0.356762	0.467146
C205	C	-0.346810	-1.020217	-0.121319
C206	C	-0.013477	-0.686883	0.212014
C207	C	0.319857	-0.353550	0.545348
H208	H	-0.297035	-0.429611	-0.317956
H209	H	0.036298	-0.096278	0.015377
H210	H	0.369631	0.237056	0.348711
H211	H	-0.716265	-1.109413	-0.304240
H212	H	-0.382932	-0.776080	0.029093
H213	H	-0.049598	-0.442747	0.362426
H214	H	-0.449809	-0.436556	-0.480928
H215	H	-0.116476	-0.103222	-0.147594
H216	H	0.216857	0.230111	0.185739
F217	F	-0.291691	-0.961172	-0.858105
F218	F	0.041642	-0.627839	-0.524772
F219	F	0.374976	-0.294506	-0.191438
F220	F	-1.125333	-1.120375	-0.293576
F221	F	-0.791999	-0.787042	0.039758
F222	F	-0.458666	-0.453708	0.373091
H223	H	-0.417567	-1.095793	-0.984647
H224	H	-0.084234	-0.762459	-0.651314
H225	H	0.249099	-0.429126	-0.317980
H226	H	-0.412155	-0.546502	-0.440776
H227	H	-0.078821	-0.213168	-0.107443
H228	H	0.254512	0.120165	0.225891
F229	F	-0.254073	-0.616922	-0.272130
F230	F	0.079260	-0.283589	0.061203
F231	F	0.412594	0.049745	0.394536
F232	F	-0.254062	-0.920994	-0.968055
F233	F	0.079272	-0.587661	-0.634721
F234	F	0.412605	-0.254327	-0.301388
H235	H	-0.411999	-1.089826	-0.897621
H236	H	-0.078666	-0.756492	-0.564288
H237	H	0.254667	-0.423159	-0.230955
H238	H	-0.270281	-0.759902	-0.289419
H239	H	0.063052	-0.426568	0.043914
H240	H	0.396385	-0.093235	0.377248
H241	H	-0.597000	-0.952942	-0.460390
H242	H	-0.263667	-0.619608	-0.127057
H243	H	0.069667	-0.286275	0.206276
H244	H	-0.716274	-0.952993	-0.460407
H245	H	-0.382941	-0.619659	-0.127073
H246	H	-0.049607	-0.286326	0.206260
H247	H	-0.302614	-0.516637	-0.323905
H248	H	0.030719	-0.183304	0.009428
H249	H	0.364053	0.150030	0.342761
H250	H	-0.997845	-1.109532	-0.304297
H251	H	-0.664512	-0.776199	0.029037
H252	H	-0.331179	-0.442866	0.362370
F253	F	-0.427898	-0.624822	-0.457558
F254	F	-0.094564	-0.291489	-0.124224
F255	F	0.238769	0.041844	0.209109
F256	F	-0.433954	-0.776502	-0.464003
F257	F	-0.100621	-0.443169	-0.130670
F258	F	0.232713	-0.109835	0.202663
F259	F	-1.125339	-0.942388	-0.471261
F260	F	-0.792006	-0.609055	-0.137928
F261	F	-0.458673	-0.275722	0.195406
H262	H	-0.297014	-0.966833	-0.780738
H263	H	0.036319	-0.633499	-0.447404
H264	H	0.369653	-0.300166	-0.114071
F265	F	-0.454654	-0.294534	-0.486095
F266	F	-0.121321	0.038800	-0.152762
F267	F	0.212013	0.372133	0.180571
H268	H	-0.997849	-0.953109	-0.460468
H269	H	-0.664516	-0.619776	-0.127135
H270	H	-0.331183	-0.286442	0.206199
H271	H	-0.291715	-0.961132	-0.647432
H272	H	0.041618	-0.627799	-0.314099
H273	H	0.374952	-0.294465	0.019234
H274	H	-0.291714	-0.296306	-0.312293
H275	H	0.041619	0.037027	0.021040
H276	H	0.374953	0.370361	0.354374
H277	H	-0.270234	-0.938341	-1.111036
H278	H	0.063099	-0.605008	-0.777703
H279	H	0.396433	-0.271674	-0.444369
F280	F	-0.433721	-1.113156	-1.127620
F281	F	-0.100387	-0.779823	-0.794287
F282	F	0.232946	-0.446490	-0.460953
H283	H	-0.449623	-1.130004	-0.787668
H284	H	-0.116289	-0.796671	-0.454335
H285	H	0.217044	-0.463338	-0.121002
H286	H	-0.444328	-1.124306	-0.654351
H287	H	-0.110995	-0.790973	-0.321017
H288	H	0.222338	-0.457639	0.012316
F289	F	-0.588778	-1.120138	-0.293451
F290	F	-0.255445	-0.786804	0.039882
F291	F	0.077889	-0.453471	0.373216
