data_functionalizedCrystal
_audit_creation_method	'MofGen! by Chris Wilmer'
_symmetry_space_group_name_H-M	'P1'
_symmetry_Int_Tables_number	1
_symmetry_cell_setting	triclinic
loop_
_symmetry_equiv_pos_as_xyz
  x,y,z
_cell_length_a	19.805407
_cell_length_b	12.759399
_cell_length_c	19.805399
_cell_angle_alpha	90.022080
_cell_angle_beta	90.024201
_cell_angle_gamma	90.014993
loop_
_atom_site_label
_atom_site_type_symbol
_atom_site_fract_x
_atom_site_fract_y
_atom_site_fract_z
Zn1	Zn	1.034786	-0.418312	0.382829
Zn2	Zn	1.034722	-0.594005	0.269652
Zn3	Zn	0.921601	-0.418338	0.269645
Zn4	Zn	0.921585	-0.593947	0.382789
O5	O	0.978173	-0.506150	0.326229
O6	O	1.129494	-0.441631	0.367836
O7	O	1.019696	-0.570738	0.174934
O8	O	0.936648	-0.271314	0.284672
O9	O	1.129447	-0.570712	0.284685
O10	O	1.019805	-0.271294	0.367829
O11	O	0.936586	-0.441676	0.174929
O12	O	0.826882	-0.441620	0.284634
O13	O	0.936622	-0.570613	0.477511
O14	O	0.826871	-0.570639	0.367761
O15	O	1.019790	-0.441575	0.477540
O16	O	1.019681	-0.741018	0.284646
O17	O	0.936560	-0.740976	0.367768
C18	C	0.802317	-0.506127	0.326193
C19	C	0.727085	-0.506142	0.326193
C20	C	0.265306	-0.573457	0.369488
C21	C	0.335995	-0.573455	0.369474
C22	C	0.371324	-0.506176	0.326255
C23	C	0.335961	-0.438901	0.283043
C24	C	0.265273	-0.438909	0.283054
C25	C	0.621034	-0.438869	0.282995
C26	C	0.691726	-0.438864	0.282989
C27	C	0.691755	-0.573415	0.369415
C28	C	0.621068	-0.573423	0.369426
C29	C	0.585711	-0.506153	0.326212
C30	C	0.509063	-0.506157	0.326227
C31	C	0.447971	-0.506166	0.326243
C32	C	0.978130	-0.779118	0.326218
C33	C	0.978173	-0.895894	0.326236
C34	C	0.934886	-0.950772	0.369486
C35	C	0.934928	-1.060496	0.369499
C36	C	1.021551	-1.060455	0.283010
C37	C	1.021505	-0.950733	0.282994
C38	C	0.855152	-1.210537	0.393624
C39	C	0.811871	-1.265419	0.436885
C40	C	0.801425	-1.229760	0.502913
C41	C	0.834272	-1.139222	0.525694
C42	C	0.877558	-1.084346	0.482437
C43	C	0.887991	-1.120003	0.416399
C44	C	1.101282	-0.800690	0.258876
C45	C	1.144572	-0.745812	0.215622
C46	C	1.155024	-0.781468	0.149593
C47	C	1.122190	-0.872010	0.126815
C48	C	1.078899	-0.926888	0.170069
C49	C	1.068446	-0.891224	0.236097
C50	C	1.154716	-0.506175	0.326265
C51	C	1.229948	-0.506185	0.326281
C52	C	0.978211	-0.506084	0.502771
C53	C	0.978227	-0.506056	0.578003
C54	C	0.978235	-0.232117	0.326254
C55	C	0.978262	-0.115341	0.326265
C56	C	0.978174	-0.506141	0.150373
C57	C	0.978289	-0.505873	0.075141
C58	C	1.021534	-0.438862	0.613364
C59	C	1.021541	-0.438832	0.684052
C60	C	0.978244	-0.506001	0.719379
C61	C	0.934933	-0.573198	0.684014
C62	C	0.934923	-0.573222	0.613327
C63	C	0.934971	-0.573100	0.969087
C64	C	0.934986	-0.573073	1.039779
C65	C	1.021589	-0.438710	1.039813
C66	C	1.021579	-0.438734	0.969126
C67	C	0.978266	-0.505926	0.933767
C68	C	0.978258	-0.505957	0.857118
C69	C	0.978255	-0.505976	0.796026
H70	H	0.899601	-0.906125	0.404696
H71	H	0.899677	-0.627884	0.712782
O72	O	1.132410	-0.906798	0.062717
C73	C	1.159742	-1.008777	0.064613
H74	H	1.185655	-1.022010	0.115304
H75	H	1.198149	-1.018149	0.022183
H76	H	1.117524	-1.068634	0.057885
O77	O	1.063596	-0.373461	1.074267
C78	C	1.054333	-0.387851	1.144233
H79	H	1.002092	-0.422246	1.153871
H80	H	1.058947	-0.309144	1.171103
H81	H	1.094470	-0.443798	1.164300
H82	H	0.863645	-1.239571	0.339856
H83	H	0.592255	-0.384098	0.247805
O84	O	0.892954	-0.638467	1.074021
C85	C	0.907724	-0.743191	1.056753
H86	H	0.933732	-0.745394	1.005435
H87	H	0.858861	-0.790287	1.054319
H88	H	0.942520	-0.778573	1.096541
H89	H	0.236546	-0.628238	0.404686
O90	O	0.892785	-0.638352	0.578949
C91	C	0.849084	-0.578552	0.538042
H92	H	0.844924	-0.495795	0.559348
H93	H	0.796987	-0.616547	0.537226
H94	H	0.870001	-0.574960	0.484474
H95	H	0.899712	-0.627827	0.940306
O96	O	1.063736	-1.113620	0.241045
C97	C	1.131178	-1.086726	0.255907
H98	H	1.132539	-1.007031	0.281911
H99	H	1.161553	-1.082987	0.207086
H100	H	1.153979	-1.148413	0.290740
H101	H	0.364780	-0.628237	0.404656
H102	H	0.592306	-0.628205	0.404622
H103	H	0.720551	-0.628193	0.404600
O104	O	1.063606	-0.373569	0.934706
C105	C	1.054293	-0.387973	0.864733
H106	H	1.032120	-0.469062	0.855061
H107	H	1.104984	-0.380834	0.837876
H108	H	1.018244	-0.325670	0.844679
H109	H	0.720489	-0.384073	0.247793
O110	O	1.063615	-0.373514	0.579155
C111	C	1.101851	-0.314219	0.625527
H112	H	1.074134	-0.310562	0.675908
H113	H	1.109086	-0.231449	0.605115
H114	H	1.153249	-0.352696	0.633056
H115	H	0.364731	-0.384126	0.247850
H116	H	0.236486	-0.384127	0.247872
O117	O	0.909384	-0.996392	0.504654
C118	C	0.890901	-0.976700	0.572218
H119	H	0.840415	-1.015984	0.583340
H120	H	0.886157	-0.888587	0.580495
H121	H	0.931184	-1.009604	0.607453
O122	O	1.091241	-0.766117	0.323053
C123	C	1.153363	-0.764481	0.357832
H124	H	1.189977	-0.821382	0.332775
H125	H	1.144985	-0.788799	0.412573
H126	H	1.175358	-0.681940	0.356272
H127	H	0.825770	-1.110203	0.579463
H128	H	0.766184	-1.274453	0.538136
O129	O	0.779991	-1.353315	0.414638
C130	C	0.798494	-1.373030	0.347083
H131	H	0.816280	-1.297072	0.322563
H132	H	0.753074	-1.404882	0.318253
H133	H	0.841089	-1.433078	0.345805
O134	O	1.046892	-1.014773	0.147990
C135	C	0.976450	-1.000105	0.151996
H136	H	0.964772	-0.936812	0.190914
H137	H	0.951331	-1.076683	0.167744
H138	H	0.956288	-0.974959	0.100571
H139	H	1.190277	-0.736777	0.114377
H140	H	1.171309	-0.672090	0.234175
H141	H	1.056807	-0.384119	0.712840
