data_functionalizedCrystal
_audit_creation_method	'MofGen! by Chris Wilmer'
_symmetry_space_group_name_H-M	'P1'
_symmetry_Int_Tables_number	1
_symmetry_cell_setting	triclinic
loop_
_symmetry_equiv_pos_as_xyz
  x,y,z
_cell_length_a	10.654558
_cell_length_b	15.995292
_cell_length_c	9.130313
_cell_angle_alpha	90.001944
_cell_angle_beta	90.000369
_cell_angle_gamma	83.978466
loop_
_atom_site_label
_atom_site_type_symbol
_atom_site_fract_x
_atom_site_fract_y
_atom_site_fract_z
O1	O	1.666254	0.117635	-0.121768
O2	O	1.300627	0.128832	-0.121774
O3	O	1.493474	0.001401	-0.121773
O4	O	1.473408	0.245066	-0.121769
O5	O	1.493471	0.001405	0.121826
O6	O	1.300625	0.128836	0.121825
O7	O	1.666252	0.117638	0.121831
Cu8	Cu	1.483438	0.123237	0.144071
Cu9	Cu	1.483441	0.123233	-0.144013
O10	O	1.473406	0.245070	0.121830
C11	C	1.253840	0.128010	0.000025
C12	C	1.114430	0.125546	0.000022
C13	C	0.917939	0.122080	-0.132764
C14	C	1.048931	0.124388	-0.132766
C15	C	1.048932	0.124388	0.132819
C16	C	0.917944	0.122074	0.132819
C17	C	0.852445	0.120931	-0.265560
C18	C	0.917934	0.122088	-0.398358
C19	C	1.048926	0.124396	-0.398360
C20	C	1.114428	0.125547	-0.265563
C21	C	1.492656	-0.029798	0.000023
C22	C	1.490207	-0.122765	0.000012
C23	C	1.481207	-0.460556	0.000025
C24	C	1.620398	-0.436432	0.000572
C25	C	1.623043	-0.339741	0.000018
C26	C	1.485673	-0.292974	0.000019
C27	C	1.416085	-0.322482	-0.139084
C28	C	1.414410	-0.419282	-0.139195
C29	C	1.411565	-0.419152	0.137822
C30	C	1.416723	-0.322630	0.139655
C31	C	1.488190	-0.198263	0.000011
C32	C	1.478686	-0.555266	0.000023
C33	C	1.713040	0.118460	0.000030
C34	C	1.852450	0.120924	0.000023
C35	C	1.474224	0.276268	0.000031
C36	C	1.476672	0.369235	0.000033
N37	N	1.483446	0.123240	0.346693
N38	N	1.483444	0.123224	-0.346636
C39	C	1.568859	0.066833	0.423346
C40	C	1.568856	0.066822	0.576683
C41	C	1.398021	0.179634	0.576701
C42	C	1.398019	0.179640	0.423367
C43	C	1.654286	0.010433	0.346672
C44	C	1.739708	-0.045978	0.423325
C45	C	1.739704	-0.045988	0.576662
C46	C	1.654279	0.010413	0.653346
H47	H	0.864594	0.121145	-0.506476
N48	N	1.691480	-0.473115	0.132692
H49	H	1.780561	-0.456892	0.130919
H50	H	1.647653	-0.450631	0.224842
N51	N	1.654284	0.010407	0.818731
H52	H	1.587215	0.054698	0.855673
H53	H	1.636082	-0.046629	0.855542
H54	H	1.314999	-0.291204	-0.144254
N55	N	1.283892	-0.279755	0.150756
H56	H	1.286443	-0.216911	0.156946
H57	H	1.234322	-0.293661	0.061308
N58	N	1.279232	-0.439348	-0.147582
H59	H	1.267227	-0.473367	-0.238764
H60	H	1.258996	-0.472758	-0.058352
H61	H	1.809249	-0.091926	0.639071
H62	H	1.102274	0.125326	0.240936
H63	H	0.864618	0.121148	0.240946
N64	N	1.255712	0.128037	-0.265553
H65	H	1.297454	0.076780	-0.213417
H66	H	1.287161	0.128621	-0.369861
N67	N	1.305903	0.240470	0.659408
H68	H	1.251791	0.276205	0.587580
H69	H	1.250405	0.208064	0.723024
N70	N	1.695655	-0.314946	-0.132304
H71	H	1.653141	-0.332834	-0.224323
H72	H	1.697672	-0.251961	-0.133097
H73	H	1.464411	-0.302142	-0.242605
H74	H	1.455398	-0.446984	0.243262
H75	H	1.102245	0.125330	-0.506490
H76	H	1.654299	0.010437	0.221818
N77	N	1.695197	-0.314106	0.132118
H78	H	1.725572	-0.365660	0.191232
H79	H	1.770079	-0.285210	0.098813
H80	H	1.462605	-0.445819	-0.243179
H81	H	1.309109	-0.433740	0.138761
N82	N	1.691085	-0.474458	-0.130814
H83	H	1.633336	-0.507242	-0.190689
H84	H	1.721050	-0.428182	-0.192828
N85	N	1.831814	-0.106826	0.340627
H86	H	1.818853	-0.098265	0.231858
H87	H	1.920900	-0.096613	0.367424
H88	H	1.328466	0.225571	0.360956
N89	N	0.711163	0.118440	-0.265558
H90	H	0.679608	0.117886	-0.369829
H91	H	0.689908	0.066067	-0.213362
N92	N	1.483825	-0.297643	0.275977
H93	H	1.558576	-0.267238	0.247420
H94	H	1.423746	-0.259356	0.337691
