data_functionalizedCrystal
_audit_creation_method	'MofGen! by Chris Wilmer'
_symmetry_space_group_name_H-M	'P1'
_symmetry_Int_Tables_number	1
_symmetry_cell_setting	triclinic
loop_
_symmetry_equiv_pos_as_xyz
  x,y,z
_cell_length_a	8.559649
_cell_length_b	13.596369
_cell_length_c	8.559649
_cell_angle_alpha	90.004394
_cell_angle_beta	69.778664
_cell_angle_gamma	90.005227
loop_
_atom_site_label
_atom_site_type_symbol
_atom_site_fract_x
_atom_site_fract_y
_atom_site_fract_z
O1	O	2.126883	0.081776	-0.055032
O2	O	2.626883	0.581776	0.444968
O3	O	1.651398	0.081780	0.028749
O4	O	2.151398	0.581780	0.528749
O5	O	1.931031	0.081777	-0.250884
O6	O	2.431031	0.581777	0.249116
O7	O	1.847250	0.081779	0.224601
O8	O	2.347250	0.581779	0.724601
O9	O	1.931008	-0.081806	-0.250894
O10	O	2.431008	0.418194	0.249106
O11	O	1.651375	-0.081803	0.028739
O12	O	2.151375	0.418197	0.528739
O13	O	2.126860	-0.081807	-0.055043
O14	O	2.626860	0.418193	0.444957
Zn15	Zn	1.889113	-0.107777	-0.013154
Zn16	Zn	2.389113	0.392223	0.486846
Zn17	Zn	1.889144	0.107750	-0.013140
Zn18	Zn	2.389144	0.607750	0.486860
O19	O	1.847227	-0.081804	0.224590
O20	O	2.347227	0.418196	0.724590
C21	C	1.591077	-0.000011	0.035093
C22	C	2.091077	0.499989	0.535093
C23	C	1.411378	-0.000010	0.053992
C24	C	1.911378	0.499990	0.553992
N25	N	1.889105	-0.254869	-0.013165
N26	N	2.389105	0.245131	0.486835
C27	C	1.889142	-0.656160	-0.013138
C28	C	2.389142	-0.156160	0.486862
C29	C	1.889126	-0.544509	-0.013140
C30	C	2.389126	-0.044509	0.486860
C31	C	1.889124	-0.455518	-0.013151
C32	C	2.389124	0.044482	0.486849
C33	C	1.889107	-0.343860	-0.013154
C34	C	2.389107	0.156140	0.486846
C35	C	2.187180	-0.000014	-0.061387
C36	C	2.687180	0.499986	0.438613
C37	C	2.366879	-0.000009	-0.080286
C38	C	2.866879	0.499991	0.419714
C39	C	1.937369	-0.000013	-0.311198
C40	C	2.437369	0.499987	0.188802
C41	C	1.956268	-0.000008	-0.490898
C42	C	2.456268	0.499992	0.009102
N43	N	1.889167	0.254842	-0.013143
N44	N	2.389167	0.754842	0.486857
C45	C	1.840889	-0.000012	0.284904
C46	C	2.340889	0.499988	0.784904
C47	C	1.821990	-0.000011	0.464604
C48	C	2.321990	0.499989	0.964604
H49	H	1.466258	-0.000005	-0.209705
H50	H	1.966258	0.499995	0.290295
C51	C	1.647147	-0.000005	-0.401160
C52	C	2.147147	0.499995	0.098840
H53	H	1.565441	-0.000015	-0.453170
H54	H	2.065441	0.499985	0.046830
H55	H	1.634070	0.057041	-0.333749
H56	H	2.134070	0.557041	0.166251
H57	H	1.634056	-0.057056	-0.333753
H58	H	2.134056	0.442944	0.166247
H59	H	1.311990	-0.000004	0.183420
H60	H	1.811990	0.499996	0.683420
C61	C	2.131116	-0.000008	-0.625149
C62	C	2.631116	0.499992	-0.125149
H63	H	2.121314	-0.000006	-0.732369
H64	H	2.621314	0.499994	-0.232369
H65	H	2.189948	-0.057049	-0.612959
H66	H	2.689948	0.442951	-0.112959
H67	H	2.189944	0.057048	-0.612957
H68	H	2.689944	0.557048	-0.112957
