data_functionalizedCrystal
_audit_creation_method	'MofGen! by Chris Wilmer'
_symmetry_space_group_name_H-M	'P1'
_symmetry_Int_Tables_number	1
_symmetry_cell_setting	triclinic
loop_
_symmetry_equiv_pos_as_xyz
  x,y,z
_cell_length_a	15.944551
_cell_length_b	11.026607
_cell_length_c	9.482944
_cell_angle_alpha	81.873049
_cell_angle_beta	79.531651
_cell_angle_gamma	96.042377
loop_
_atom_site_label
_atom_site_type_symbol
_atom_site_fract_x
_atom_site_fract_y
_atom_site_fract_z
O1	O	-1.152457	-0.173358	0.120736
O2	O	-0.652457	0.326642	0.620736
O3	O	-0.910828	-0.192659	0.120771
O4	O	-0.410828	0.307341	0.620771
O5	O	-1.011616	-0.006353	0.120751
O6	O	-0.511616	0.493647	0.620751
O7	O	-1.051669	-0.359663	0.120756
O8	O	-0.551669	0.140337	0.620756
O9	O	-0.983020	0.027390	-0.121038
O10	O	-0.483020	0.527390	0.378962
O11	O	-0.882232	-0.158915	-0.121018
O12	O	-0.382232	0.341085	0.378982
O13	O	-1.123861	-0.139614	-0.121053
O14	O	-0.623861	0.360386	0.378947
Cu15	Cu	-1.000436	-0.146184	-0.143113
Cu16	Cu	-0.500436	0.353816	0.356887
Cu17	Cu	-1.034253	-0.186089	0.142830
Cu18	Cu	-0.534253	0.313911	0.642830
O19	O	-1.023073	-0.325920	-0.121033
O20	O	-0.523073	0.174080	0.378967
C21	C	-0.865116	-0.174987	-0.000119
C22	C	-0.365116	0.325013	0.499881
C23	C	-0.771508	-0.172587	-0.000105
C24	C	-0.271508	0.327413	0.499895
C25	C	-0.989929	0.055730	-0.000141
C26	C	-0.489929	0.555730	0.499859
C27	C	-0.967903	0.190444	-0.000132
C28	C	-0.467903	0.690444	0.499868
C29	C	-1.169574	-0.157287	-0.000160
C30	C	-0.669574	0.342713	0.499840
C31	C	-1.263182	-0.159688	-0.000164
C32	C	-0.763182	0.340312	0.499836
C33	C	-0.538324	-0.051363	-0.000135
C34	C	-0.038324	0.448637	0.499865
C35	C	-0.499912	-0.124291	0.119080
C36	C	0.000088	0.375709	0.619080
C37	C	-0.600124	-0.168240	-0.000123
C38	C	-0.100124	0.331760	0.499877
C39	C	-0.471745	-0.091050	-0.119305
C40	C	0.028255	0.408950	0.380695
C41	C	-0.434572	-0.164031	-0.000146
C42	C	0.065428	0.335969	0.499854
C43	C	-0.562957	-0.241213	0.119191
C44	C	-0.062957	0.258787	0.619191
C45	C	-0.534781	-0.207941	-0.119301
C46	C	-0.034781	0.292059	0.380699
C47	C	-0.496403	-0.280958	-0.000056
C48	C	0.003597	0.219042	0.499944
C49	C	-0.695493	-0.170661	-0.000108
C50	C	-0.195493	0.329339	0.499892
C51	C	-0.339206	-0.161621	-0.000150
C52	C	0.160794	0.338379	0.499850
C53	C	-1.044760	-0.388003	-0.000139
C54	C	-0.544760	0.111997	0.499861
C55	C	-1.066787	-0.522719	-0.000137
C56	C	-0.566787	-0.022719	0.499863
N57	N	-0.976656	-0.118116	-0.344230
N58	N	-0.476656	0.381884	0.155770
C59	C	-1.028722	0.264246	-0.000139
C60	C	-0.528722	0.764246	0.499861
C61	C	-1.005959	0.403481	-0.000131
C62	C	-0.505959	0.903481	0.499869
C63	C	-1.027233	-0.177810	-0.416436
C64	C	-0.527233	0.322190	0.083564
C65	C	-1.007453	-0.154445	-0.583851
C66	C	-0.507453	0.345555	-0.083851
N67	N	-1.058038	-0.214148	0.343948
N68	N	-0.558038	0.285852	0.843948
H69	H	-0.557011	0.045613	0.000011
H70	H	-0.057011	0.545613	0.500011
Br71	Br	-0.910873	-0.040414	-0.687374
Br72	Br	-0.410873	0.459586	-0.187374
H73	H	-1.115989	-0.282554	-0.593936
H74	H	-0.615989	0.217446	-0.093936
Br75	Br	-0.853027	0.256922	-0.000095
Br76	Br	-0.353027	0.756922	0.499905
Br77	Br	-1.123821	-0.291815	-0.312907
Br78	Br	-0.623821	0.208185	0.187093
Br79	Br	-1.143603	0.197763	-0.000141
Br80	Br	-0.643603	0.697763	0.499859
H81	H	-1.135727	0.437377	-0.000038
H82	H	-0.635727	0.937377	0.499962
Br83	Br	-0.473811	-0.065351	0.287072
Br84	Br	0.026189	0.434649	0.787072
Br85	Br	-0.628599	-0.347016	0.287362
Br86	Br	-0.128599	0.152984	0.787362
H87	H	-0.918713	-0.049709	-0.406355
H88	H	-0.418713	0.450291	0.093645
H89	H	-0.550458	-0.243268	-0.220092
H90	H	-0.050458	0.256732	0.279908
Br91	Br	-0.465609	-0.442804	0.000048
Br92	Br	0.034391	0.057196	0.500048
H93	H	-0.432264	-0.027530	-0.220088
H94	H	0.067736	0.472470	0.279912
H95	H	-0.937034	0.443369	-0.000111
H96	H	-0.437034	0.943369	0.499889
