data_functionalizedCrystal
_audit_creation_method	'MofGen! by Chris Wilmer'
_symmetry_space_group_name_H-M	'P1'
_symmetry_Int_Tables_number	1
_symmetry_cell_setting	triclinic
loop_
_symmetry_equiv_pos_as_xyz
  x,y,z
_cell_length_a	10.654541
_cell_length_b	14.044220
_cell_length_c	9.130307
_cell_angle_alpha	89.995545
_cell_angle_beta	89.999822
_cell_angle_gamma	88.836403
loop_
_atom_site_label
_atom_site_type_symbol
_atom_site_fract_x
_atom_site_fract_y
_atom_site_fract_z
O1	O	1.681226	0.133219	-0.121759
O2	O	1.317023	0.145915	-0.121772
O3	O	1.493658	0.001547	-0.121751
O4	O	1.504591	0.277588	-0.121780
O5	O	1.493651	0.001545	0.121848
O6	O	1.317016	0.145914	0.121827
O7	O	1.681220	0.133218	0.121840
Cu8	Cu	1.499117	0.139565	0.144076
Cu9	Cu	1.499125	0.139567	-0.144008
O10	O	1.504585	0.277586	0.121819
C11	C	1.270128	0.144983	0.000026
C12	C	1.130404	0.142195	0.000021
C13	C	1.488869	-0.033800	0.000049
C14	C	1.474593	-0.139120	0.000050
C15	C	1.119781	0.314827	-0.000015
C16	C	1.048829	0.399829	-0.000039
C17	C	0.917547	0.397204	-0.000040
C18	C	0.857215	0.309567	-0.000013
C19	C	0.928167	0.224565	0.000011
C20	C	1.059452	0.227199	0.000008
C21	C	0.938790	0.051935	0.000058
C22	C	1.070072	0.054558	0.000049
C23	C	0.878458	-0.035701	0.000085
C24	C	0.949411	-0.120706	0.000098
C25	C	1.080701	-0.118077	0.000098
C26	C	1.141025	-0.030444	0.000072
C27	C	1.448494	-0.331952	0.000028
C28	C	1.549742	-0.388921	0.000027
C29	C	1.535221	-0.496219	0.000015
C30	C	1.463014	-0.224644	0.000040
C31	C	1.728114	0.134150	0.000039
C32	C	1.867838	0.136938	0.000034
C33	C	1.509374	0.312933	0.000016
C34	C	1.523649	0.418252	0.000005
N35	N	1.499121	0.139564	0.346699
N36	N	1.499130	0.139561	-0.346631
C37	C	1.655605	0.011763	0.346707
C38	C	1.733855	-0.052134	0.423378
C39	C	1.733868	-0.052135	0.576712
C40	C	1.655619	0.011767	0.653378
C41	C	1.577368	0.075664	0.576707
C42	C	1.577367	0.075660	0.423370
C43	C	1.420880	0.203459	0.576698
C44	C	1.420872	0.203466	0.423365
C45	C	1.342631	0.267361	0.653364
C46	C	1.264385	0.331265	0.576693
C47	C	1.264377	0.331263	0.423351
C48	C	1.342621	0.267363	0.346694
H49	H	1.097966	0.471181	-0.000057
C50	C	1.746878	-0.376200	-0.125167
C51	C	1.681486	-0.345984	0.000052
H52	H	1.828204	-0.349684	-0.125148
H53	H	1.754270	-0.443712	-0.125165
H54	H	1.702514	-0.355681	-0.210110
H55	H	1.725845	-0.366509	0.084996
H56	H	1.674099	-0.278458	0.000063
H57	H	1.138463	-0.187297	0.000123
H58	H	0.750318	0.307437	0.000004
H59	H	0.900278	-0.192053	0.000119
C60	C	1.327695	-0.474415	0.000036
C61	C	1.316760	-0.374890	0.000036
H62	H	1.246368	-0.500929	0.000055
H63	H	1.372045	-0.494902	-0.084914
H64	H	1.372071	-0.494910	0.084984
H65	H	1.272391	-0.354394	-0.084917
H66	H	1.272392	-0.354395	0.084995
C67	C	1.095627	0.350642	0.250929
C68	C	1.178358	0.401503	0.339080
H69	H	1.042518	0.394008	0.198916
H70	H	1.142223	0.312601	0.183327
H71	H	1.046015	0.310835	0.310768
H72	H	1.227977	0.441305	0.279240
H73	H	1.131757	0.439561	0.406689
C74	C	1.222099	0.247378	0.873029
C75	C	1.342641	0.267358	0.821911
H76	H	1.222110	0.247373	0.977083
H77	H	1.164311	0.294576	0.838344
H78	H	1.198135	0.186624	0.838343
H79	H	1.366600	0.328116	0.856588
H80	H	1.400448	0.220158	0.856610
H81	H	1.655614	0.011765	0.221855
H82	H	0.859777	0.466420	-0.000049
C83	C	1.331983	-0.073676	-0.125142
C84	C	1.285331	-0.027551	0.000069
H85	H	1.421072	-0.071881	-0.125142
H86	H	1.306216	-0.138025	-0.125110
H87	H	1.300313	-0.042392	-0.210091
H88	H	1.316994	-0.058840	0.085018
H89	H	1.311110	0.036809	0.000050
C90	C	1.803448	-0.108805	0.188327
C91	C	1.819940	-0.122320	0.339105
H92	H	1.856620	-0.152117	0.136308
H93	H	1.718454	-0.119758	0.163170
H94	H	1.824108	-0.045374	0.163247
H95	H	1.799271	-0.185749	0.364187
H96	H	1.904954	-0.111375	0.364272
H97	H	1.797581	-0.104169	0.639138
H98	H	1.655622	0.011755	0.778230
H99	H	1.200674	0.383285	0.639124
H100	H	1.342627	0.267360	0.221842
H101	H	0.771562	-0.037833	0.000092
C102	C	1.302060	0.412581	-0.000060
C103	C	1.264088	0.317714	-0.000027
H104	H	1.391149	0.414362	-0.000060
H105	H	1.270398	0.443848	-0.085011
H106	H	1.270398	0.443864	0.084887
H107	H	1.295742	0.286432	-0.084980
H108	H	1.295763	0.286434	0.084933
