data_functionalizedCrystal
_audit_creation_method	'MofGen! by Chris Wilmer'
_symmetry_space_group_name_H-M	'P1'
_symmetry_Int_Tables_number	1
_symmetry_cell_setting	triclinic
loop_
_symmetry_equiv_pos_as_xyz
  x,y,z
_cell_length_a	11.792254
_cell_length_b	11.026607
_cell_length_c	9.482900
_cell_angle_alpha	101.363848
_cell_angle_beta	99.398945
_cell_angle_gamma	83.607693
loop_
_atom_site_label
_atom_site_type_symbol
_atom_site_fract_x
_atom_site_fract_y
_atom_site_fract_z
O1	O	0.461985	-1.632141	-0.120907
O2	O	0.795318	-1.298808	0.212427
O3	O	1.128652	-0.965474	0.545760
O4	O	0.407793	-1.278476	-0.120907
O5	O	0.741126	-0.945142	0.212426
O6	O	1.074460	-0.611809	0.545759
O7	O	0.271423	-1.463881	-0.120897
O8	O	0.604757	-1.130548	0.212437
O9	O	0.938090	-0.797214	0.545770
O10	O	0.598355	-1.446735	-0.120917
O11	O	0.931688	-1.113402	0.212416
O12	O	1.265022	-0.780069	0.545749
O13	O	0.299265	-1.426222	0.120894
O14	O	0.632599	-1.092889	0.454227
O15	O	0.965932	-0.759555	0.787560
O16	O	0.435635	-1.240817	0.120883
O17	O	0.768968	-0.907483	0.454216
O18	O	1.102302	-0.574150	0.787550
O19	O	0.489827	-1.594482	0.120884
O20	O	0.823160	-1.261148	0.454217
O21	O	1.156494	-0.927815	0.787550
Cu22	Cu	0.465273	-1.414211	0.142961
Cu23	Cu	0.798607	-1.080877	0.476294
Cu24	Cu	1.131940	-0.747544	0.809627
Cu25	Cu	0.432347	-1.458747	-0.142984
Cu26	Cu	0.765680	-1.125414	0.190349
Cu27	Cu	1.099014	-0.792080	0.523682
O28	O	0.626197	-1.409076	0.120873
O29	O	0.959530	-1.075743	0.454206
O30	O	1.292864	-0.742410	0.787540
C31	C	0.411717	-1.214369	-0.000012
C32	C	0.745050	-0.881036	0.333321
C33	C	1.078383	-0.547702	0.666655
C34	C	0.381914	-1.079457	-0.000012
C35	C	0.715247	-0.746124	0.333321
C36	C	1.048580	-0.412791	0.666655
C37	C	0.242839	-1.443971	-0.000002
C38	C	0.576172	-1.110638	0.333331
C39	C	0.909506	-0.777305	0.666665
C40	C	0.116184	-1.440738	-0.000003
C41	C	0.449517	-1.107405	0.333330
C42	C	0.782851	-0.774072	0.666663
C43	C	0.485903	-1.658589	-0.000015
C44	C	0.819237	-1.325256	0.333319
C45	C	1.152570	-0.991922	0.666652
C46	C	0.515705	-1.793502	-0.000024
C47	C	0.849038	-1.460169	0.333309
C48	C	1.182372	-1.126835	0.666642
C49	C	0.013325	-1.438112	-0.000009
C50	C	0.346658	-1.104779	0.333325
C51	C	0.679992	-0.771445	0.666658
C52	C	-0.115715	-1.434829	-0.000022
C53	C	0.217618	-1.101496	0.333311
C54	C	0.550951	-0.768162	0.666645
C55	C	0.654781	-1.428987	-0.000025
C56	C	0.988114	-1.095653	0.333308
C57	C	1.321448	-0.762320	0.666642
C58	C	0.781435	-1.432221	-0.000033
C59	C	1.114768	-1.098888	0.333300
C60	C	1.448102	-0.765555	0.666634
N61	N	0.488433	-1.382895	0.344079
N62	N	0.821766	-1.049562	0.677412
N63	N	1.155100	-0.716228	1.010746
C64	C	0.464204	-1.006198	-0.000018
C65	C	0.797537	-0.672865	0.333315
C66	C	1.130870	-0.339531	0.666648
C67	C	0.433403	-0.866760	-0.000018
C68	C	0.766736	-0.533426	0.333315
C69	C	1.100070	-0.200093	0.666648
N70	N	0.409180	-1.490072	-0.344103
N71	N	0.742513	-1.156739	-0.010769
N72	N	1.075847	-0.823405	0.322564
C73	C	0.439170	-1.449502	0.416282
C74	C	0.772504	-1.116168	0.749615
C75	C	1.105837	-0.782835	1.082949
C76	C	0.458450	-1.423456	0.583698
C77	C	0.791784	-1.090122	0.917031
C78	C	1.125117	-0.756789	1.250365
H79	H	0.557458	-1.046707	-0.000016
H80	H	0.890792	-0.713374	0.333318
H81	H	1.224125	-0.380041	0.666651
H82	H	0.544877	-1.306583	0.406205
H83	H	0.878211	-0.973250	0.739538
H84	H	1.211544	-0.639917	1.072871
H85	H	0.340139	-0.826261	-0.000050
H86	H	0.673472	-0.492927	0.333284
H87	H	1.006806	-0.159594	0.666617
H88	H	0.288656	-1.038953	-0.000043
H89	H	0.621989	-0.705619	0.333290
H90	H	0.955323	-0.372286	0.666623
H91	H	0.352722	-1.566380	0.593777
H92	H	0.686055	-1.233046	0.927111
H93	H	1.019389	-0.899713	1.260444
H94	H	0.514898	-1.347139	0.645818
H95	H	0.848231	-1.013806	0.979151
H96	H	1.181565	-0.680472	1.312485
H97	H	0.608966	-0.834004	-0.000021
H98	H	0.942300	-0.500670	0.333313
H99	H	1.275633	-0.167337	0.666646
H100	H	0.382716	-1.525805	0.354158
H101	H	0.716049	-1.192471	0.687492
H102	H	1.049382	-0.859138	1.020825
