data_functionalizedCrystal
_audit_creation_method	'MofGen! by Chris Wilmer'
_symmetry_space_group_name_H-M	'P1'
_symmetry_Int_Tables_number	1
_symmetry_cell_setting	triclinic
loop_
_symmetry_equiv_pos_as_xyz
  x,y,z
_cell_length_a	16.120530
_cell_length_b	16.120444
_cell_length_c	18.215399
_cell_angle_alpha	87.129468
_cell_angle_beta	92.916648
_cell_angle_gamma	90.168401
loop_
_atom_site_label
_atom_site_type_symbol
_atom_site_fract_x
_atom_site_fract_y
_atom_site_fract_z
Zn1	Zn	1.254465	-0.395615	0.489893
Zn2	Zn	1.754465	0.104385	0.989893
Zn3	Zn	1.247306	-0.534674	0.372727
Zn4	Zn	1.747306	-0.034674	0.872727
Zn5	Zn	1.115405	-0.388580	0.360309
Zn6	Zn	1.615405	0.111420	0.860309
Zn7	Zn	1.108315	-0.527569	0.489221
Zn8	Zn	1.608315	-0.027569	0.989221
O9	O	1.181373	-0.461609	0.428038
O10	O	1.681373	0.038391	0.928038
O11	O	1.369881	-0.419979	0.479829
O12	O	1.869881	0.080021	0.979829
O13	O	1.229780	-0.515323	0.268096
O14	O	1.729780	-0.015323	0.768096
O15	O	1.139815	-0.273150	0.372583
O16	O	1.639815	0.226850	0.872583
O17	O	1.364621	-0.522145	0.393748
O18	O	1.864621	-0.022145	0.893748
O19	O	1.241982	-0.278318	0.467788
O20	O	1.741982	0.221682	0.967788
O21	O	1.132873	-0.407989	0.258972
O22	O	1.632873	0.092011	0.758972
O23	O	0.998099	-0.401100	0.371931
O24	O	1.498099	0.098900	0.871931
O25	O	1.127731	-0.510035	0.592295
O26	O	1.627731	-0.010035	1.092295
O27	O	0.992890	-0.503214	0.466642
O28	O	1.492890	-0.003214	0.966642
O29	O	1.235107	-0.413090	0.592788
O30	O	1.735107	0.086910	1.092788
O31	O	1.222905	-0.650095	0.393096
O32	O	1.722905	-0.150095	0.893096
O33	O	1.120789	-0.644875	0.478684
O34	O	1.620789	-0.144875	0.978684
C35	C	0.965322	-0.450623	0.417867
C36	C	1.465322	0.049377	0.917867
C37	C	0.872894	-0.445943	0.413534
C38	C	1.372894	0.054057	0.913534
C39	C	1.170323	-0.677658	0.437182
C40	C	1.670323	-0.177658	0.937182
C41	C	1.165672	-0.770088	0.441122
C42	C	1.665672	-0.270088	0.941122
C43	C	0.703667	-0.437379	0.405629
C44	C	1.203667	0.062621	0.905629
C45	C	0.659916	-0.485901	0.450503
C46	C	1.159916	0.014099	0.950503
C47	C	0.565752	-0.481136	0.446104
C48	C	1.065752	0.018864	0.946104
C49	C	0.797839	-0.442143	0.410026
C50	C	1.297839	0.057857	0.910026
C51	C	1.205703	-0.983061	0.407766
C52	C	1.705703	-0.483061	0.907766
C53	C	1.157197	-0.939315	0.448324
C54	C	1.657197	-0.439315	0.948324
C55	C	1.161914	-0.845148	0.444316
C56	C	1.661914	-0.345148	0.944316
C57	C	1.200987	-1.077236	0.411774
C58	C	1.700987	-0.577236	0.911774
C59	C	1.398267	-0.472639	0.438249
C60	C	1.898267	0.027361	0.938249
C61	C	1.490694	-0.477339	0.442600
C62	C	1.990694	0.022661	0.942600
C63	C	1.181426	-0.461555	0.619991
C64	C	1.681426	0.038445	1.119991
C65	C	1.181449	-0.461531	0.701790
C66	C	1.681449	0.038469	1.201790
C67	C	1.192488	-0.244719	0.418875
C68	C	1.692488	0.255281	0.918875
C69	C	1.197224	-0.152293	0.414970
C70	C	1.697224	0.347707	0.914970
C71	C	1.181370	-0.461606	0.236831
C72	C	1.681370	0.038394	0.736831
C73	C	1.181520	-0.461404	0.155030
C74	C	1.681520	0.038596	0.655030
C75	C	1.237381	-0.411003	0.890241
C76	C	1.737381	0.088997	1.390241
C77	C	1.237393	-0.410979	0.967099
C78	C	1.737393	0.089021	1.467099
C79	C	1.125582	-0.511934	0.966574
C80	C	1.625582	-0.011934	1.466574
C81	C	1.125568	-0.511953	0.889717
C82	C	1.625568	-0.011953	1.389717
C83	C	1.181472	-0.461489	0.851552
C84	C	1.681472	0.038511	1.351552
C85	C	1.181498	-0.461446	1.005268
C86	C	1.681498	0.038554	1.505268
C87	C	1.181509	-0.461421	1.088601
C88	C	1.681509	0.038579	1.588601
C89	C	1.181459	-0.461513	0.768214
C90	C	1.681459	0.038487	1.268214
H91	H	0.693179	-0.531018	0.492225
H92	H	1.193179	-0.031018	0.992225
Br93	Br	1.082073	-0.994760	0.511215
Br94	Br	1.582073	-0.494760	1.011215
Br95	Br	1.280819	-0.927613	0.344877
Br96	Br	1.780819	-0.427613	0.844877
H97	H	1.282900	-0.369909	0.859169
H98	H	1.782900	0.130091	1.359169
Br99	Br	0.648230	-0.362182	0.336095
Br100	Br	1.148230	0.137818	0.836095
H101	H	1.282918	-0.369867	0.998595
H102	H	1.782918	0.130133	1.498595
H103	H	1.080069	-0.553022	0.997657
H104	H	1.580069	-0.053022	1.497657
H105	H	1.080034	-0.553063	0.858215
H106	H	1.580034	-0.053063	1.358215
