data_functionalizedCrystal
_audit_creation_method	'MofGen! by Chris Wilmer'
_symmetry_space_group_name_H-M	'P1'
_symmetry_Int_Tables_number	1
_symmetry_cell_setting	triclinic
loop_
_symmetry_equiv_pos_as_xyz
  x,y,z
_cell_length_a	8.597340
_cell_length_b	19.188930
_cell_length_c	18.266242
_cell_angle_alpha	90.011475
_cell_angle_beta	82.306903
_cell_angle_gamma	84.247170
loop_
_atom_site_label
_atom_site_type_symbol
_atom_site_fract_x
_atom_site_fract_y
_atom_site_fract_z
O1	O	2.081673	0.104202	-0.070421
O2	O	1.624698	0.112197	-0.041593
O3	O	1.866373	0.006652	-0.056853
O4	O	1.839998	0.209747	-0.055160
O5	O	1.866332	0.006646	-0.178612
O6	O	1.624657	0.112191	-0.163352
O7	O	2.081632	0.104196	-0.192180
Zn8	Zn	1.853138	0.108193	-0.197098
Zn9	Zn	1.853192	0.108200	-0.036675
O10	O	1.839957	0.209741	-0.176920
C11	C	1.566213	0.111336	-0.098784
C12	C	1.392009	0.108770	-0.087795
C13	C	1.865498	-0.019369	-0.117681
C14	C	1.862934	-0.096895	-0.117525
C15	C	2.004741	-0.140658	-0.126475
C16	C	2.002333	-0.213502	-0.126311
C17	C	1.858109	-0.242579	-0.117212
C18	C	1.716283	-0.198805	-0.108258
C19	C	1.718696	-0.125963	-0.108414
N20	N	1.747853	-0.351488	-0.151695
N21	N	1.745570	-0.420685	-0.151548
C22	C	1.850830	-0.462047	-0.116738
N23	N	1.958483	-0.431598	-0.082091
N24	N	1.960770	-0.362395	-0.082241
C25	C	1.855476	-0.321563	-0.117041
C26	C	1.990036	-0.584796	-0.125510
C27	C	1.987621	-0.657641	-0.125341
C28	C	1.701567	-0.642942	-0.107295
C29	C	1.703986	-0.570099	-0.107456
C30	C	1.848224	-0.541031	-0.116567
C31	C	2.140117	0.105057	-0.134987
C32	C	2.314321	0.107623	-0.145971
C33	C	1.840832	0.235762	-0.116090
C34	C	1.843396	0.313288	-0.116241
N35	N	1.853113	0.108187	-0.306583
C36	C	1.960161	0.061475	-0.351652
C37	C	1.960171	0.061472	-0.428297
C38	C	1.853148	0.108193	-0.459872
C39	C	1.746079	0.154908	-0.414794
C40	C	1.746062	0.154905	-0.338149
N41	N	1.832749	0.169834	-0.578909
N42	N	1.832775	0.169834	-0.651719
C43	C	1.853192	0.108203	-0.690798
N44	N	1.873612	0.046570	-0.654318
N45	N	1.873594	0.046570	-0.581502
C46	C	1.853154	0.108201	-0.542980
C47	C	1.960257	0.061484	-0.818974
C48	C	1.960256	0.061480	-0.895620
C49	C	1.746171	0.154922	-0.882116
C50	C	1.746165	0.154920	-0.805471
C51	C	1.853216	0.108202	-0.773905
N52	N	1.853230	0.108200	0.072810
H53	H	2.122191	-0.116996	-0.133891
H54	H	1.381082	0.108601	-0.204187
C55	C	1.301815	0.107445	-0.009141
N56	N	1.233879	0.106447	0.050100
H57	H	1.588511	-0.534466	-0.100173
H58	H	1.603216	-0.090330	-0.101127
H59	H	1.598855	-0.222484	-0.100848
C60	C	2.077953	0.010090	-0.477883
N61	N	2.166674	-0.028608	-0.515229
C62	C	2.158337	-0.261651	-0.136161
N63	N	2.275841	-0.297914	-0.143582
H64	H	2.107483	-0.561127	-0.132925
C65	C	1.628514	0.206359	-0.755900
N66	N	1.539929	0.245121	-0.718566
C67	C	2.143629	-0.705781	-0.135191
N68	N	2.261137	-0.742042	-0.142613
H69	H	1.584137	-0.666616	-0.099883
C70	C	2.078000	0.010087	-0.784248
N71	N	2.166682	-0.028627	-0.758095
H72	H	2.047325	0.023433	-0.325953
H73	H	1.658936	0.192948	-0.440506
H74	H	1.658888	0.192944	-0.301453
C75	C	2.077998	0.010078	-0.945195
N76	N	2.166677	-0.028642	-0.982534
C77	C	1.628444	0.206317	-0.916844
N78	N	1.539768	0.245028	-0.943005
