data_functionalizedCrystal
_audit_creation_method	'MofGen! by Chris Wilmer'
_symmetry_space_group_name_H-M	'P1'
_symmetry_Int_Tables_number	1
_symmetry_cell_setting	triclinic
loop_
_symmetry_equiv_pos_as_xyz
  x,y,z
_cell_length_a	29.839134
_cell_length_b	29.839131
_cell_length_c	29.839126
_cell_angle_alpha	90.021998
_cell_angle_beta	90.035740
_cell_angle_gamma	90.036281
loop_
_atom_site_label
_atom_site_type_symbol
_atom_site_fract_x
_atom_site_fract_y
_atom_site_fract_z
Zn1	Zn	0.686781	-0.178959	0.254125
Zn2	Zn	1.020114	0.154375	0.587458
Zn3	Zn	1.353447	0.487708	0.920792
Zn4	Zn	0.686695	-0.254076	0.178995
Zn5	Zn	1.020028	0.079257	0.512328
Zn6	Zn	1.353361	0.412590	0.845662
Zn7	Zn	0.611645	-0.178955	0.178995
Zn8	Zn	0.944979	0.154379	0.512328
Zn9	Zn	1.278312	0.487712	0.845661
Zn10	Zn	0.611611	-0.254056	0.254083
Zn11	Zn	0.944944	0.079278	0.587417
Zn12	Zn	1.278278	0.412611	0.920750
O13	O	0.649183	-0.216511	0.216550
O14	O	0.982516	0.116822	0.549883
O15	O	1.315850	0.450155	0.883216
O16	O	0.749636	-0.188934	0.244176
O17	O	1.082970	0.144400	0.577510
O18	O	1.416303	0.477733	0.910843
O19	O	0.676718	-0.244118	0.116128
O20	O	1.010051	0.089215	0.449461
O21	O	1.343384	0.422548	0.782794
O22	O	0.621662	-0.116088	0.188978
O23	O	0.954996	0.217245	0.522311
O24	O	1.288329	0.550579	0.855645
O25	O	0.749573	-0.244122	0.188979
O26	O	1.082907	0.089211	0.522312
O27	O	1.416240	0.422544	0.855645
O28	O	0.676864	-0.116091	0.244176
O29	O	1.010197	0.217242	0.577509
O30	O	1.343531	0.550576	0.910843
O31	O	0.621579	-0.188927	0.116128
O32	O	0.954913	0.144407	0.449461
O33	O	1.288246	0.477740	0.782794
O34	O	0.548774	-0.188906	0.188938
O35	O	0.882107	0.144427	0.522271
O36	O	1.215440	0.477760	0.855604
O37	O	0.621604	-0.244087	0.316956
O38	O	0.954938	0.089246	0.650289
O39	O	1.288271	0.422580	0.983623
O40	O	0.548749	-0.244083	0.244105
O41	O	0.882082	0.089250	0.577438
O42	O	1.215415	0.422584	0.910772
O43	O	0.676831	-0.188914	0.316987
O44	O	1.010164	0.144420	0.650320
O45	O	1.343498	0.477753	0.983653
O46	O	0.676684	-0.316941	0.188938
O47	O	1.010018	0.016392	0.522272
O48	O	1.343351	0.349726	0.855605
O49	O	0.621521	-0.316926	0.244105
O50	O	0.954854	0.016408	0.577439
O51	O	1.288188	0.349741	0.910772
C52	C	0.532460	-0.216492	0.216517
C53	C	0.865794	0.116841	0.549850
C54	C	1.199127	0.450174	0.883184
C55	C	0.482526	-0.216495	0.216514
C56	C	0.815859	0.116838	0.549847
C57	C	1.149193	0.450172	0.883181
C58	C	0.172879	-0.245284	0.245240
C59	C	0.506212	0.088049	0.578573
C60	C	0.839546	0.421382	0.911907
C61	C	-0.014794	-0.245297	0.245260
C62	C	0.318539	0.088036	0.578593
C63	C	0.651873	0.421370	0.911927
O64	O	-0.039062	-0.269754	0.269665
O65	O	0.294271	0.063580	0.602998
O66	O	0.627605	0.396913	0.936331
N67	N	-0.038259	-0.216528	0.216583
N68	N	0.295074	0.116805	0.549917
N69	N	0.628408	0.450139	0.883250
C70	C	-0.014803	-0.187752	0.187902
C71	C	0.318530	0.145582	0.521235
C72	C	0.651864	0.478915	0.854568
O73	O	-0.039068	-0.163279	0.163514
O74	O	0.294266	0.170055	0.496848
O75	O	0.627599	0.503388	0.830181
C76	C	0.172869	-0.187737	0.187884
C77	C	0.506203	0.145596	0.521218
C78	C	0.839536	0.478930	0.854551
C79	C	0.196332	-0.216511	0.216560
C80	C	0.529665	0.116822	0.549893
C81	C	0.862998	0.450156	0.883226
C82	C	0.196342	-0.274056	0.273913
C83	C	0.529675	0.059278	0.607247
C84	C	0.863008	0.392611	0.940580
C85	C	0.243257	-0.274054	0.273906
C86	C	0.576590	0.059279	0.607240
C87	C	0.909924	0.392613	0.940573
C88	C	0.266710	-0.245281	0.245226
C89	C	0.600043	0.088052	0.578559
C90	C	0.933377	0.421386	0.911893
C91	C	0.243247	-0.216509	0.216553
C92	C	0.576581	0.116824	0.549886
C93	C	0.909914	0.450157	0.883219
C94	C	0.196325	-0.158959	0.159205
C95	C	0.529658	0.174375	0.492539
C96	C	0.862991	0.507708	0.825872
C97	C	0.243246	-0.158957	0.159204
C98	C	0.576579	0.174377	0.492538
C99	C	0.909912	0.507710	0.825871
C100	C	0.266708	-0.187731	0.187880
C101	C	0.600041	0.145602	0.521213
C102	C	0.933375	0.478936	0.854546
C103	C	0.313616	-0.187734	0.187865
C104	C	0.646949	0.145599	0.521199
C105	C	0.980282	0.478932	0.854532
N106	N	0.337081	-0.216504	0.216542
N107	N	0.670414	0.116830	0.549875
N108	N	1.003747	0.450163	0.883209
C109	C	0.313628	-0.245277	0.245222
C110	C	0.646961	0.088057	0.578556
C111	C	0.980294	0.421390	0.911889
C112	C	-0.113334	-0.187762	0.187912
C113	C	0.220000	0.145571	0.521246
C114	C	0.553333	0.478905	0.854579
C115	C	-0.160251	-0.187766	0.187916
C116	C	0.173082	0.145567	0.521249
C117	C	0.506415	0.478901	0.854583
C118	C	-0.160239	-0.245311	0.245275
C119	C	0.173094	0.088022	0.578608
C120	C	0.506427	0.421356	0.911942
C121	C	-0.113321	-0.245309	0.245269
C122	C	0.220013	0.088025	0.578602
C123	C	0.553346	0.421358	0.911935
C124	C	-0.089869	-0.216531	0.216589
C125	C	0.243465	0.116802	0.549922
C126	C	0.576798	0.450136	0.883256
C127	C	0.412154	-0.245271	0.245205
C128	C	0.745487	0.088062	0.578538
C129	C	1.078820	0.421395	0.911872
C130	C	0.459073	-0.245268	0.245194
C131	C	0.792406	0.088065	0.578528
C132	C	1.125740	0.421398	0.911861
C133	C	0.459057	-0.187722	0.187837
C134	C	0.792390	0.145612	0.521171
C135	C	1.125724	0.478945	0.854504
C136	C	0.412141	-0.187726	0.187846
C137	C	0.745475	0.145607	0.521180
C138	C	1.078808	0.478940	0.854513
C139	C	0.388691	-0.216502	0.216534
C140	C	0.722024	0.116831	0.549867
C141	C	1.055358	0.450164	0.883200
O142	O	0.337912	-0.163287	0.163477
O143	O	0.671246	0.170046	0.496810
O144	O	1.004579	0.503380	0.830144
O145	O	0.337900	-0.269739	0.269613
O146	O	0.671234	0.063594	0.602946
O147	O	1.004567	0.396928	0.936280
C148	C	0.125964	-0.245286	0.245247
C149	C	0.459297	0.088047	0.578580
C150	C	0.792630	0.421381	0.911914
C151	C	0.102501	-0.216515	0.216574
C152	C	0.435834	0.116819	0.549907
C153	C	0.769168	0.450152	0.883240
C154	C	0.125954	-0.187741	0.187893
C155	C	0.459287	0.145592	0.521227
C156	C	0.792620	0.478925	0.854560
C157	C	0.055583	-0.216519	0.216577
C158	C	0.388916	0.116815	0.549911
C159	C	0.722250	0.450148	0.883244
C160	C	0.032130	-0.245292	0.245258
C161	C	0.365464	0.088041	0.578591
C162	C	0.698797	0.421375	0.911924
C163	C	0.055595	-0.274061	0.273934
C164	C	0.388929	0.059272	0.607268
C165	C	0.722262	0.392606	0.940601
C166	C	0.102511	-0.274059	0.273927
C167	C	0.435844	0.059274	0.607261
C168	C	0.769177	0.392607	0.940594
C169	C	0.102489	-0.158972	0.159217
C170	C	0.435822	0.174361	0.492550
C171	C	0.769155	0.507694	0.825883
C172	C	0.055573	-0.158977	0.159226
C173	C	0.388907	0.174357	0.492559
C174	C	0.722240	0.507690	0.825892
C175	C	0.032120	-0.187750	0.187906
C176	C	0.365454	0.145583	0.521239
C177	C	0.698787	0.478917	0.854573
C178	C	0.649102	-0.333234	0.216527
C179	C	0.982435	0.000099	0.549861
C180	C	1.315769	0.333433	0.883194
C181	C	0.649108	-0.383168	0.216533
C182	C	0.982442	-0.049835	0.549866
C183	C	1.315775	0.283498	0.883199
C184	C	0.677959	-0.692807	0.187866
C185	C	1.011292	-0.359474	0.521199
C186	C	1.344626	-0.026140	0.854533
C187	C	0.678014	-0.880480	0.187883
C188	C	1.011348	-0.547147	0.521217
C189	C	1.344681	-0.213813	0.854550
O190	O	0.702480	-0.904741	0.163493
O191	O	1.035813	-0.571408	0.496826
O192	O	1.369147	-0.238074	0.830159
N193	N	0.649276	-0.903953	0.216583
N194	N	0.982609	-0.570620	0.549917
N195	N	1.315943	-0.237287	0.883250
C196	C	0.620524	-0.880506	0.245283
C197	C	0.953857	-0.547172	0.578616
C198	C	1.287191	-0.213839	0.911950
O199	O	0.596085	-0.904777	0.269698
O200	O	0.929418	-0.571444	0.603031
O201	O	1.262752	-0.238111	0.936365
C202	C	0.620471	-0.692833	0.245268
C203	C	0.953805	-0.359500	0.578601
C204	C	1.287138	-0.026167	0.911934
C205	C	0.649208	-0.669363	0.216563
C206	C	0.982541	-0.336029	0.549896
C207	C	1.315875	-0.002696	0.883229
C208	C	0.706694	-0.669336	0.159164
C209	C	1.040027	-0.336003	0.492497
C210	C	1.373360	-0.002669	0.825830
C211	C	0.706678	-0.622421	0.159158
C212	C	1.040011	-0.289087	0.492491
C213	C	1.373345	0.044246	0.825824
C214	C	0.677927	-0.598976	0.187854
C215	C	1.011260	-0.265643	0.521188
C216	C	1.344594	0.067690	0.854521
C217	C	0.649192	-0.622447	0.216557
C218	C	0.982526	-0.289114	0.549890
C219	C	1.315859	0.044220	0.883223
C220	C	0.591722	-0.669387	0.273969
C221	C	0.925055	-0.336053	0.607303
C222	C	1.258388	-0.002720	0.940636
C223	C	0.591712	-0.622466	0.273964
C224	C	0.925045	-0.289132	0.607297
C225	C	1.258379	0.044201	0.940630
C226	C	0.620449	-0.598995	0.245259
C227	C	0.953782	-0.265661	0.578592
C228	C	1.287115	0.067672	0.911925
C229	C	0.620426	-0.552087	0.245248
C230	C	0.953759	-0.218754	0.578581
C231	C	1.287092	0.114579	0.911914
N232	N	0.649164	-0.528614	0.216548
N233	N	0.982497	-0.195281	0.549881
N234	N	1.315830	0.138053	0.883214
C235	C	0.677915	-0.552058	0.187851
C236	C	1.011248	-0.218725	0.521184
C237	C	1.344581	0.114608	0.854518
C238	C	0.620553	-0.979036	0.245289
C239	C	0.953887	-0.645703	0.578622
C240	C	1.287220	-0.312370	0.911955
C241	C	0.620566	-1.025954	0.245292
C242	C	0.953899	-0.692621	0.578625
C243	C	1.287232	-0.359287	0.911959
C244	C	0.678057	-1.025925	0.187893
C245	C	1.011390	-0.692592	0.521226
C246	C	1.344723	-0.359259	0.854559
C247	C	0.678042	-0.979007	0.187887
C248	C	1.011375	-0.645673	0.521221
C249	C	1.344708	-0.312340	0.854554
C250	C	0.649291	-0.955563	0.216589
C251	C	0.982625	-0.622230	0.549922
C252	C	1.315958	-0.288896	0.883255
C253	C	0.677879	-0.453533	0.187841
C254	C	1.011212	-0.120199	0.521174
C255	C	1.344545	0.213134	0.854507
C256	C	0.677859	-0.406613	0.187836
C257	C	1.011192	-0.073280	0.521169
C258	C	1.344526	0.260054	0.854503
C259	C	0.620370	-0.406646	0.245237
C260	C	0.953703	-0.073312	0.578570
C261	C	1.287037	0.260021	0.911904
C262	C	0.620388	-0.453561	0.245240
C263	C	0.953721	-0.120228	0.578573
C264	C	1.287054	0.213105	0.911907
C265	C	0.649146	-0.477004	0.216540
C266	C	0.982479	-0.143670	0.549874
C267	C	1.315813	0.189663	0.883207
O268	O	0.595976	-0.527797	0.269629
O269	O	0.929310	-0.194464	0.602962
O270	O	1.262643	0.138869	0.936296
O271	O	0.702357	-0.527778	0.163447
O272	O	1.035690	-0.194445	0.496780
O273	O	1.369024	0.138888	0.830114
C274	C	0.677975	-0.739723	0.187872
C275	C	1.011308	-0.406389	0.521205
C276	C	1.344641	-0.073056	0.854538
C277	C	0.649240	-0.763193	0.216574
C278	C	0.982573	-0.429860	0.549907
C279	C	1.315907	-0.096527	0.883241
C280	C	0.620489	-0.739749	0.245271
C281	C	0.953822	-0.406416	0.578604
C282	C	1.287156	-0.073082	0.911937
C283	C	0.649252	-0.810111	0.216578
C284	C	0.982586	-0.476778	0.549911
C285	C	1.315919	-0.143445	0.883244
C286	C	0.678003	-0.833556	0.187881
C287	C	1.011337	-0.500222	0.521214
C288	C	1.344670	-0.166889	0.854548
C289	C	0.706741	-0.810082	0.159181
C290	C	1.040075	-0.476749	0.492514
C291	C	1.373408	-0.143416	0.825848
C292	C	0.706726	-0.763167	0.159175
C293	C	1.040059	-0.429834	0.492509
C294	C	1.373392	-0.096500	0.825842
C295	C	0.591751	-0.763222	0.273971
C296	C	0.925084	-0.429889	0.607304
C297	C	1.258418	-0.096556	0.940637
C298	C	0.591769	-0.810138	0.273974
C299	C	0.925102	-0.476804	0.607307
C300	C	1.258435	-0.143471	0.940641
C301	C	0.620520	-0.833582	0.245277
C302	C	0.953853	-0.500249	0.578611
C303	C	1.287186	-0.166916	0.911944
C304	C	0.766361	-0.216531	0.216582
C305	C	1.099695	0.116802	0.549916
C306	C	1.433028	0.450136	0.883249
C307	C	0.816296	-0.216539	0.216596
C308	C	1.149629	0.116794	0.549930
C309	C	1.482962	0.450127	0.883263
C310	C	0.649223	-0.216499	0.333728
C311	C	0.982557	0.116835	0.667061
C312	C	1.315890	0.450168	1.000395
C313	C	0.649240	-0.216493	0.383662
C314	C	0.982574	0.116840	0.716996
C315	C	1.315907	0.450174	1.050329
C316	C	0.649277	-0.099333	0.216582
C317	C	0.982610	0.234000	0.549915
C318	C	1.315943	0.567334	0.883248
C319	C	0.649317	-0.049399	0.216595
C320	C	0.982650	0.283935	0.549929
C321	C	1.315983	0.617268	0.883262
C322	C	0.649169	-0.216492	0.099827
C323	C	0.982502	0.116842	0.433160
C324	C	1.315835	0.450175	0.766494
C325	C	0.649239	-0.216371	0.049893
C326	C	0.982572	0.116963	0.383226
C327	C	1.315905	0.450296	0.716560
C328	C	0.677945	-0.245172	0.740253
C329	C	1.011278	0.088162	1.073586
C330	C	1.344612	0.421495	1.406919
C331	C	0.677946	-0.245203	0.552580
C332	C	1.011279	0.088131	0.885913
C333	C	1.344612	0.421464	1.219246
O334	O	0.702347	-0.269657	0.528318
O335	O	1.035680	0.063677	0.861651
O336	O	1.369014	0.397010	1.194984
N337	N	0.649238	-0.216471	0.529108
N338	N	0.982572	0.116862	0.862441
N339	N	1.315905	0.450195	1.195774
C340	C	0.620527	-0.187732	0.552557
C341	C	0.953860	0.145601	0.885890
C342	C	1.287193	0.478934	1.219223
O343	O	0.596106	-0.163298	0.528286
O344	O	0.929440	0.170035	0.861619
O345	O	1.262773	0.503368	1.194952
C346	C	0.620524	-0.187704	0.740229
C347	C	0.953857	0.145630	1.073562
C348	C	1.287191	0.478963	1.406896
C349	C	0.649237	-0.216434	0.763699
C350	C	0.982570	0.116900	1.097032
C351	C	1.315903	0.450233	1.430365
C352	C	0.706655	-0.273900	0.763723
C353	C	1.039988	0.059434	1.097056
C354	C	1.373321	0.392767	1.430389
C355	C	0.706656	-0.273890	0.810638
C356	C	1.039989	0.059444	1.143971
C357	C	1.373323	0.392777	1.477305
C358	C	0.677947	-0.245152	0.834084
C359	C	1.011281	0.088181	1.167417
C360	C	1.344614	0.421515	1.500750
C361	C	0.649238	-0.216424	0.810614
C362	C	0.982571	0.116909	1.143947
C363	C	1.315904	0.450243	1.477281
C364	C	0.591811	-0.158967	0.763677
C365	C	0.925144	0.174366	1.097010
C366	C	1.258477	0.507700	1.430344
C367	C	0.591812	-0.158963	0.810598
C368	C	0.925145	0.174370	1.143931
C369	C	1.258478	0.507703	1.477265
C370	C	0.620524	-0.187693	0.834068
C371	C	0.953857	0.145640	1.167401
C372	C	1.287191	0.478973	1.500734
C373	C	0.620531	-0.187676	0.880975
C374	C	0.953864	0.145657	1.214309
C375	C	1.287197	0.478991	1.547642
N376	N	0.649238	-0.216407	0.904447
N377	N	0.982571	0.116926	1.237781
N378	N	1.315905	0.450259	1.571114
C379	C	0.677946	-0.245145	0.881002
C380	C	1.011280	0.088188	1.214335
C381	C	1.344613	0.421521	1.547668
C382	C	0.620531	-0.187749	0.454026
C383	C	0.953864	0.145585	0.787359
C384	C	1.287198	0.478918	1.120693
C385	C	0.620532	-0.187755	0.407108
C386	C	0.953865	0.145578	0.740441
C387	C	1.287199	0.478911	1.073775
C388	C	0.677950	-0.245227	0.407134
C389	C	1.011284	0.088107	0.740468
C390	C	1.344617	0.421440	1.073801
C391	C	0.677951	-0.245217	0.454053
C392	C	1.011285	0.088116	0.787386
C393	C	1.344618	0.421449	1.120720
C394	C	0.649238	-0.216480	0.477498
C395	C	0.982571	0.116853	0.810831
C396	C	1.315905	0.450187	1.144165
C397	C	0.677947	-0.245122	0.979527
C398	C	1.011280	0.088211	1.312861
C399	C	1.344614	0.421544	1.646194
C400	C	0.677947	-0.245109	1.026447
C401	C	1.011280	0.088225	1.359780
C402	C	1.344614	0.421558	1.693114
C403	C	0.620527	-0.187639	1.026417
C404	C	0.953860	0.145694	1.359750
C405	C	1.287194	0.479027	1.693083
C406	C	0.620529	-0.187651	0.979501
C407	C	0.953862	0.145682	1.312834
C408	C	1.287195	0.479016	1.646168
C409	C	0.649240	-0.216396	0.956058
C410	C	0.982573	0.116937	1.289391
C411	C	1.315907	0.450270	1.622724
O412	O	0.596139	-0.163238	0.905266
O413	O	0.929472	0.170095	1.238599
O414	O	1.262805	0.503428	1.571933
O415	O	0.702356	-0.269583	0.905280
O416	O	1.035690	0.063751	1.238614
O417	O	1.369023	0.397084	1.571947
C418	C	0.677944	-0.245181	0.693337
C419	C	1.011277	0.088152	1.026671
C420	C	1.344610	0.421485	1.360004
C421	C	0.649234	-0.216453	0.669868
C422	C	0.982567	0.116880	1.003201
C423	C	1.315901	0.450213	1.336534
C424	C	0.620526	-0.187715	0.693313
C425	C	0.953859	0.145618	1.026647
C426	C	1.287192	0.478951	1.359980
C427	C	0.649235	-0.216460	0.622950
C428	C	0.982568	0.116873	0.956283
C429	C	1.315902	0.450207	1.289616
C430	C	0.677944	-0.245198	0.599504
C431	C	1.011277	0.088136	0.932837
C432	C	1.344610	0.421469	1.266171
C433	C	0.706651	-0.273929	0.622976
C434	C	1.039984	0.059404	0.956309
C435	C	1.373318	0.392738	1.289643
C436	C	0.706652	-0.273919	0.669892
C437	C	1.039985	0.059414	1.003225
C438	C	1.373319	0.392747	1.336558
C439	C	0.591818	-0.158984	0.669841
C440	C	0.925152	0.174349	1.003175
C441	C	1.258485	0.507683	1.336508
C442	C	0.591820	-0.158996	0.622926
C443	C	0.925153	0.174337	0.956259
C444	C	1.258486	0.507671	1.289592
C445	C	0.620528	-0.187734	0.599480
C446	C	0.953861	0.145600	0.932813
C447	C	1.287195	0.478933	1.266147
H448	H	0.177251	-0.297487	0.297271
H449	H	0.510585	0.035847	0.630604
H450	H	0.843918	0.369180	0.963937
H451	H	0.568364	-0.829244	0.297349
H452	H	0.901697	-0.495911	0.630682
H453	H	1.235030	-0.162577	0.964015
Br454	Br	0.581568	-0.148654	0.947648
Br455	Br	0.914901	0.184679	1.280982
Br456	Br	1.248234	0.518013	1.614315
H457	H	0.730035	-0.297286	0.829743
H458	H	1.063368	0.036047	1.163076
H459	H	1.396702	0.369380	1.496410
H460	H	0.478174	-0.268701	0.268545
H461	H	0.811508	0.064632	0.601879
H462	H	1.144841	0.397965	0.935212
Br463	Br	0.716919	-0.284209	0.485900
Br464	Br	1.050253	0.049124	0.819233
Br465	Br	1.383586	0.382457	1.152567
Br466	Br	0.490895	-0.148675	0.148915
Br467	Br	0.824228	0.184659	0.482249
Br468	Br	1.157561	0.517992	0.815582
Br469	Br	0.716918	-0.284101	1.058296
Br470	Br	1.050251	0.049233	1.391629
Br471	Br	1.383584	0.382566	1.724963
Br472	Br	0.380335	-0.284325	0.284139
Br473	Br	0.713668	0.049009	0.617472
Br474	Br	1.047002	0.382342	0.950805
H475	H	0.730028	-0.297327	0.603878
H476	H	1.063361	0.036006	0.937212
H477	H	1.396695	0.369340	1.270545
H478	H	0.597161	-1.045060	0.268662
H479	H	0.930494	-0.711727	0.601996
H480	H	1.263828	-0.378394	0.935329
Br481	Br	0.745621	-0.312907	0.731912
Br482	Br	1.078955	0.020427	1.065246
Br483	Br	1.412288	0.353760	1.398579
H484	H	-0.094220	-0.268739	0.268619
H485	H	0.239113	0.064595	0.601953
H486	H	0.572446	0.397928	0.935286
H487	H	0.701260	-0.387504	0.164459
H488	H	1.034593	-0.054171	0.497793
H489	H	1.367927	0.279162	0.831126
Br490	Br	0.581355	-0.374819	0.284182
Br491	Br	0.914688	-0.041486	0.617515
Br492	Br	1.248021	0.291847	0.950849
Br493	Br	0.552844	-0.119958	0.842413
Br494	Br	0.886177	0.213375	1.175747
Br495	Br	1.219510	0.546709	1.509080
H496	H	0.262356	-0.297484	0.297258
H497	H	0.595689	0.035849	0.630591
H498	H	0.929023	0.369183	0.963924
H499	H	0.568339	-0.744137	0.297340
H500	H	0.901672	-0.410804	0.630673
H501	H	1.235006	-0.077471	0.964006
Br502	Br	0.275071	-0.119897	0.120281
Br503	Br	0.608404	0.213436	0.453614
Br504	Br	0.941737	0.546769	0.786948
H505	H	0.393037	-0.164297	0.164496
H506	H	0.726371	0.169036	0.497829
H507	H	1.059704	0.502370	0.831162
Br508	Br	0.745758	-0.841909	0.120234
Br509	Br	1.079091	-0.508576	0.453567
Br510	Br	1.412425	-0.175243	0.786901
Br511	Br	0.716911	-0.284229	0.375306
Br512	Br	1.050244	0.049105	0.708640
Br513	Br	1.383578	0.382438	1.041973
H514	H	-0.179343	-0.268739	0.268628
H515	H	0.153991	0.064594	0.601961
H516	H	0.487324	0.397927	0.935294
H517	H	0.701297	-0.472614	0.164472
H518	H	1.034631	-0.139280	0.497805
H519	H	1.367964	0.194053	0.831138
Br520	Br	0.717074	-1.057752	0.148946
Br521	Br	1.050407	-0.724418	0.482279
Br522	Br	1.383741	-0.391085	0.815613
H523	H	0.730079	-0.603313	0.135785
H524	H	1.063413	-0.269980	0.469118
H525	H	1.396746	0.063353	0.802452
Br526	Br	0.745729	-0.731321	0.120217
Br527	Br	1.079062	-0.397988	0.453551
Br528	Br	1.412396	-0.064654	0.786884
H529	H	0.596989	-0.472672	0.268615
H530	H	0.930323	-0.139339	0.601949
H531	H	1.263656	0.193994	0.935282
H532	H	0.036474	-0.135546	0.135871
H533	H	0.369807	0.197788	0.469204
H534	H	0.703141	0.531121	0.802537
Br535	Br	0.134345	-0.313113	0.312845
Br536	Br	0.467679	0.020221	0.646179
Br537	Br	0.801012	0.353554	0.979512
Br538	Br	0.717043	-0.947158	0.148929
Br539	Br	1.050376	-0.613825	0.482262
Br540	Br	1.383709	-0.280492	0.815596
H541	H	0.568429	-0.135573	0.744576
H542	H	0.901762	0.197761	1.077909
H543	H	1.235096	0.531094	1.411243
Br544	Br	-0.192088	-0.148721	0.148991
Br545	Br	0.141246	0.184612	0.482324
Br546	Br	0.474579	0.517946	0.815657
H547	H	-0.094243	-0.164327	0.164556
H548	H	0.239090	0.169006	0.497889
H549	H	0.572423	0.502340	0.831222
H550	H	0.730109	-0.688420	0.135795
H551	H	1.063442	-0.355086	0.469129
H552	H	1.396775	-0.021753	0.802462
Br553	Br	0.164494	-0.119903	0.120289
Br554	Br	0.497828	0.213431	0.453622
Br555	Br	0.831161	0.546764	0.786956
H556	H	0.597157	-0.164355	0.388003
H557	H	0.930490	0.168978	0.721336
H558	H	1.263823	0.502311	1.054670
Br559	Br	0.552693	-0.590652	0.312919
Br560	Br	0.886027	-0.257318	0.646253
Br561	Br	1.219360	0.076015	0.979586
Br562	Br	0.716912	-0.284134	0.947719
Br563	Br	1.050246	0.049199	1.281052
Br564	Br	1.383579	0.382532	1.614385
H565	H	0.036492	-0.297491	0.297286
H566	H	0.369825	0.035843	0.630619
H567	H	0.703158	0.369176	0.963952
H568	H	0.121579	-0.135541	0.135861
H569	H	0.454913	0.197792	0.469195
H570	H	0.788246	0.531126	0.802528
H571	H	0.597148	-0.164346	0.473111
H572	H	0.930481	0.168987	0.806444
H573	H	1.263814	0.502321	1.139777
Br574	Br	0.581569	-0.148638	1.058245
Br575	Br	0.914902	0.184695	1.391578
Br576	Br	1.248235	0.518028	1.724912
Br577	Br	0.581531	-0.947227	0.284244
Br578	Br	0.914864	-0.613893	0.617577
Br579	Br	1.248198	-0.280560	0.950911
Br580	Br	0.552852	-0.119998	0.591080
Br581	Br	0.886185	0.213335	0.924413
Br582	Br	1.219519	0.546668	1.257747
Br583	Br	0.552842	-0.119989	0.701653
Br584	Br	0.886175	0.213344	1.034986
Br585	Br	1.219508	0.546677	1.368320
H586	H	0.568319	-0.688489	0.297342
H587	H	0.901652	-0.355155	0.630675
H588	H	1.234986	-0.021822	0.964009
H589	H	0.730033	-0.297314	0.688996
H590	H	1.063366	0.036019	1.022330
H591	H	1.396699	0.369352	1.355663
