data_functionalizedCrystal
_audit_creation_method	'MofGen! by Chris Wilmer'
_symmetry_space_group_name_H-M	'P1'
_symmetry_Int_Tables_number	1
_symmetry_cell_setting	triclinic
loop_
_symmetry_equiv_pos_as_xyz
  x,y,z
_cell_length_a	12.594516
_cell_length_b	12.759401
_cell_length_c	12.759393
_cell_angle_alpha	89.979062
_cell_angle_beta	90.028050
_cell_angle_gamma	89.982423
loop_
_atom_site_label
_atom_site_type_symbol
_atom_site_fract_x
_atom_site_fract_y
_atom_site_fract_z
Zn1	Zn	-0.423647	-1.606257	0.594038
Zn2	Zn	0.076353	-1.106257	1.094038
Zn3	Zn	-0.601663	-1.606143	0.418366
Zn4	Zn	-0.101663	-1.106143	0.918366
Zn5	Zn	-0.423704	-1.430555	0.418373
Zn6	Zn	0.076296	-0.930555	0.918373
Zn7	Zn	-0.601589	-1.430543	0.594003
Zn8	Zn	-0.101589	-0.930543	1.094003
O9	O	-0.512651	-1.518375	0.506195
O10	O	-0.012651	-1.018375	1.006195
O11	O	-0.447269	-1.753263	0.570746
O12	O	0.052731	-1.253263	1.070746
O13	O	-0.578111	-1.582809	0.271345
O14	O	-0.078111	-1.082809	0.771345
O15	O	-0.274751	-1.453915	0.441693
O16	O	0.225249	-0.953915	0.941693
O17	O	-0.578056	-1.753179	0.441680
O18	O	-0.078056	-1.253179	0.941680
O19	O	-0.274709	-1.583002	0.570754
O20	O	0.225291	-1.083002	1.070754
O21	O	-0.447365	-1.453805	0.271351
O22	O	0.052635	-0.953805	0.771351
O23	O	-0.447293	-1.283533	0.441659
O24	O	0.052707	-0.783533	0.941659
O25	O	-0.577930	-1.453894	0.741029
O26	O	-0.077930	-0.953894	1.241029
O27	O	-0.577985	-1.283524	0.570694
O28	O	-0.077985	-0.783524	1.070694
O29	O	-0.447197	-1.582990	0.741054
O30	O	0.052803	-1.082990	1.241054
O31	O	-0.750599	-1.582797	0.441646
O32	O	-0.250599	-1.082797	0.941646
O33	O	-0.750545	-1.453784	0.570686
O34	O	-0.250545	-0.953784	1.070686
C35	C	-0.512638	-1.245407	0.506174
C36	C	-0.012638	-0.745407	1.006174
C37	C	-0.512658	-1.128631	0.506190
C38	C	-0.012658	-0.628631	1.006190
C39	C	-0.512549	-1.518453	0.780228
C40	C	-0.012549	-1.018453	1.280228
C41	C	-0.512505	-1.518487	0.897005
C42	C	-0.012505	-1.018487	1.397005
C43	C	-0.789192	-1.518306	0.506185
C44	C	-0.289192	-1.018306	1.006185
C45	C	-0.907497	-1.518372	0.506215
C46	C	-0.407497	-1.018372	1.006215
C47	C	-0.976759	-1.448195	0.576351
C48	C	-0.476759	-0.948195	1.076351
C49	C	-1.047629	-1.422594	0.480484
C50	C	-0.547629	-0.922594	0.980484
C51	C	-1.047427	-1.544069	0.602099
C52	C	-0.547427	-1.044069	1.102099
C53	C	-0.976808	-1.492721	0.410297
C54	C	-0.476808	-0.992721	0.910297
C55	C	-0.976600	-1.614240	0.531977
C56	C	-0.476600	-1.114240	1.031977
C57	C	-1.047438	-1.588675	0.436044
C58	C	-0.547438	-1.088675	0.936044
C59	C	-0.235030	-1.518472	0.506228
C60	C	0.264970	-1.018472	1.006228
C61	C	-0.116725	-1.518514	0.506242
C62	C	0.383275	-1.018514	1.006242
C63	C	-0.512665	-1.792408	0.506216
C64	C	-0.012665	-1.292408	1.006216
C65	C	-0.512671	-1.909184	0.506226
C66	C	-0.012671	-1.409184	1.006226
C67	C	-0.580812	-1.073791	0.573272
C68	C	-0.080812	-0.573791	1.073272
C69	C	-0.580817	-0.964067	0.573293
C70	C	-0.080817	-0.464067	1.073293
C71	C	-0.444509	-0.964031	0.439140
C72	C	0.055491	-0.464031	0.939140
C73	C	-0.444500	-1.073753	0.439125
C74	C	0.055500	-0.573753	0.939125
C75	C	-0.512676	-1.518357	0.233228
C76	C	-0.012676	-1.018357	0.733228
C77	C	-0.512420	-1.518527	0.116451
C78	C	-0.012420	-1.018527	0.616451
C79	C	-0.444422	-1.585712	0.951882
C80	C	0.055578	-1.085712	1.451882
C81	C	-0.444376	-1.585730	1.061606
C82	C	0.055624	-1.085730	1.561606
C83	C	-0.580506	-1.451294	1.061567
C84	C	-0.080506	-0.951294	1.561567
C85	C	-0.580546	-1.451272	0.951844
C86	C	-0.080546	-0.951272	1.451844
H87	H	-0.945724	-1.388743	0.635576
H88	H	-0.445724	-0.888743	1.135576
Br89	Br	-0.673311	-0.889646	0.664343
Br90	Br	-0.173311	-0.389646	1.164343
H91	H	-0.389018	-0.919337	0.384537
H92	H	0.110982	-0.419337	0.884537
H93	H	-0.945916	-1.470950	0.329198
H94	H	-0.445916	-0.970950	0.829198
Br95	Br	-0.673309	-1.148265	0.664290
Br96	Br	-0.173309	-0.648265	1.164290
Br97	Br	-0.672942	-1.360021	0.877361
Br98	Br	-0.172942	-0.860021	1.377361
H99	H	-0.945381	-1.695229	0.553791
H100	H	-0.445381	-1.195229	1.053791
H101	H	-1.078851	-1.341587	0.458716
H102	H	-0.578851	-0.841587	0.958716
H103	H	-1.078276	-1.648082	0.376676
H104	H	-0.578276	-1.148082	0.876676
H105	H	-0.388994	-1.118405	0.384499
H106	H	0.111006	-0.618405	0.884499
H107	H	-0.389016	-1.640440	0.907235
H108	H	0.110984	-1.140440	1.407235
H109	H	-0.635905	-1.396572	1.106230
H110	H	-0.135905	-0.896572	1.606230
Br111	Br	-1.099139	-1.580197	0.737228
Br112	Br	-0.599139	-1.080197	1.237228
Br113	Br	-0.351980	-1.676976	1.136079
Br114	Br	0.148020	-1.176976	1.636079
