data_functionalizedCrystal
_audit_creation_method	'MofGen! by Chris Wilmer'
_symmetry_space_group_name_H-M	'P1'
_symmetry_Int_Tables_number	1
_symmetry_cell_setting	triclinic
loop_
_symmetry_equiv_pos_as_xyz
  x,y,z
_cell_length_a	16.625548
_cell_length_b	18.050590
_cell_length_c	16.625539
_cell_angle_alpha	89.970044
_cell_angle_beta	89.979432
_cell_angle_gamma	90.019620
loop_
_atom_site_label
_atom_site_type_symbol
_atom_site_fract_x
_atom_site_fract_y
_atom_site_fract_z
Zn1	Zn	1.232702	-0.295637	-0.455900
Zn2	Zn	1.482702	-0.045637	-0.205900
Zn3	Zn	1.732702	0.204363	0.044100
Zn4	Zn	1.982702	0.454363	0.294100
Zn5	Zn	1.232615	-0.419835	-0.321063
Zn6	Zn	1.482615	-0.169835	-0.071063
Zn7	Zn	1.732615	0.080165	0.178937
Zn8	Zn	1.982615	0.330165	0.428937
Zn9	Zn	1.097864	-0.295665	-0.321081
Zn10	Zn	1.347864	-0.045665	-0.071081
Zn11	Zn	1.597864	0.204335	0.178919
Zn12	Zn	1.847864	0.454335	0.428919
Zn13	Zn	1.097844	-0.419792	-0.455853
Zn14	Zn	1.347844	-0.169792	-0.205853
Zn15	Zn	1.597844	0.080208	0.044147
Zn16	Zn	1.847844	0.330208	0.294147
O17	O	1.165256	-0.357732	-0.388474
O18	O	1.415256	-0.107732	-0.138474
O19	O	1.665256	0.142268	0.111526
O20	O	1.915256	0.392268	0.361526
O21	O	1.345523	-0.312118	-0.438026
O22	O	1.595523	-0.062118	-0.188026
O23	O	1.845523	0.187882	0.061974
O24	O	2.095523	0.437882	0.311974
O25	O	1.214712	-0.403393	-0.208233
O26	O	1.464712	-0.153393	0.041767
O27	O	1.714712	0.096607	0.291767
O28	O	1.964712	0.346607	0.541767
O29	O	1.115796	-0.191737	-0.338992
O30	O	1.365796	0.058263	-0.088992
O31	O	1.615796	0.308263	0.161008
O32	O	1.865796	0.558263	0.411008
O33	O	1.345459	-0.403365	-0.338962
O34	O	1.595459	-0.153365	-0.088962
O35	O	1.845459	0.096635	0.161038
O36	O	2.095459	0.346635	0.411038
O37	O	1.214861	-0.191716	-0.438043
O38	O	1.464861	0.058284	-0.188043
O39	O	1.714861	0.308284	0.061957
O40	O	1.964861	0.558284	0.311957
O41	O	1.115711	-0.312166	-0.208246
O42	O	1.365711	-0.062166	0.041754
O43	O	1.615711	0.187834	0.291754
O44	O	1.865711	0.437834	0.541754
O45	O	0.985029	-0.312125	-0.338946
O46	O	1.235029	-0.062125	-0.088946
O47	O	1.485029	0.187875	0.161054
O48	O	1.735029	0.437875	0.411054
O49	O	1.115761	-0.403293	-0.568692
O50	O	1.365761	-0.153293	-0.318692
O51	O	1.615761	0.096707	-0.068692
O52	O	1.865761	0.346707	0.181308
O53	O	0.985014	-0.403320	-0.437963
O54	O	1.235014	-0.153320	-0.187963
O55	O	1.485014	0.096680	0.062037
O56	O	1.735014	0.346680	0.312037
O57	O	1.214841	-0.312077	-0.568726
O58	O	1.464841	-0.062077	-0.318726
O59	O	1.714841	0.187923	-0.068726
O60	O	1.964841	0.437923	0.181274
O61	O	1.214692	-0.523754	-0.338917
O62	O	1.464692	-0.273754	-0.088917
O63	O	1.714692	-0.023754	0.161083
O64	O	1.964692	0.226246	0.411083
O65	O	1.115676	-0.523722	-0.437946
O66	O	1.365676	-0.273722	-0.187946
O67	O	1.615676	-0.023722	0.062054
O68	O	1.865676	0.226278	0.312054
C69	C	0.955765	-0.357722	-0.388452
C70	C	1.205765	-0.107722	-0.138452
C71	C	1.455765	0.142278	0.111548
C72	C	1.705765	0.392278	0.361548
C73	C	0.866144	-0.357735	-0.388461
C74	C	1.116144	-0.107735	-0.138461
C75	C	1.366144	0.142265	0.111539
C76	C	1.616144	0.392265	0.361539
C77	C	0.537969	-0.357740	-0.388496
C78	C	0.787969	-0.107740	-0.138496
C79	C	1.037969	0.142260	0.111504
C80	C	1.287969	0.392260	0.361504
C81	C	0.629277	-0.357736	-0.388484
C82	C	0.879277	-0.107736	-0.138484
C83	C	1.129277	0.142264	0.111516
C84	C	1.379277	0.392264	0.361516
C85	C	0.702054	-0.357738	-0.388478
C86	C	0.952054	-0.107738	-0.138478
C87	C	1.202054	0.142262	0.111522
C88	C	1.452054	0.392262	0.361522
C89	C	0.793368	-0.357734	-0.388467
C90	C	1.043368	-0.107734	-0.138467
C91	C	1.293368	0.142266	0.111533
C92	C	1.543368	0.392266	0.361533
C93	C	1.165194	-0.550684	-0.388442
C94	C	1.415194	-0.300684	-0.138442
C95	C	1.665194	-0.050684	0.111558
C96	C	1.915194	0.199316	0.361558
C97	C	1.165242	-0.633230	-0.388455
C98	C	1.415242	-0.383230	-0.138455
C99	C	1.665242	-0.133230	0.111545
C100	C	1.915242	0.116770	0.361545
C101	C	1.219198	-0.832671	-0.334678
C102	C	1.469198	-0.582671	-0.084678
C103	C	1.719198	-0.332671	0.165322
C104	C	1.969198	-0.082671	0.415322
C105	C	1.238896	-0.882001	-0.408268
C106	C	1.488896	-0.632001	-0.158268
C107	C	1.738896	-0.382001	0.091732
C108	C	1.988896	-0.132001	0.341732
C109	C	1.165287	-0.784360	-0.388488
C110	C	1.415287	-0.534360	-0.138488
C111	C	1.665287	-0.284360	0.111512
C112	C	1.915287	-0.034360	0.361512
C113	C	1.145672	-0.882112	-0.314931
C114	C	1.395672	-0.632112	-0.064931
C115	C	1.645672	-0.382112	0.185069
C116	C	1.895672	-0.132112	0.435069
C117	C	1.165333	-0.930345	-0.388512
C118	C	1.415333	-0.680345	-0.138512
C119	C	1.665333	-0.430345	0.111488
C120	C	1.915333	-0.180345	0.361488
C121	C	1.185022	-0.832604	-0.462116
C122	C	1.435022	-0.582604	-0.212116
C123	C	1.685022	-0.332604	0.037884
C124	C	1.935022	-0.082604	0.287884
C125	C	1.091765	-0.832710	-0.368729
C126	C	1.341765	-0.582710	-0.118729
C127	C	1.591765	-0.332710	0.131271
C128	C	1.841765	-0.082710	0.381271
C129	C	1.111434	-0.882018	-0.442370
C130	C	1.361434	-0.632018	-0.192370
C131	C	1.611434	-0.382018	0.057630
C132	C	1.861434	-0.132018	0.307630
C133	C	1.165263	-0.700262	-0.388472
C134	C	1.415263	-0.450262	-0.138472
C135	C	1.665263	-0.200262	0.111528
C136	C	1.915263	0.049738	0.361528
C137	C	1.165357	-1.014442	-0.388536
C138	C	1.415357	-0.764442	-0.138536
C139	C	1.665357	-0.514442	0.111464
C140	C	1.915357	-0.264442	0.361464
C141	C	1.375565	-0.357743	-0.388497
C142	C	1.625565	-0.107743	-0.138497
C143	C	1.875565	0.142257	0.111503
C144	C	2.125565	0.392257	0.361503
C145	C	1.465186	-0.357748	-0.388507
C146	C	1.715186	-0.107748	-0.138507
C147	C	1.965186	0.142252	0.111493
C148	C	2.215186	0.392252	0.361493
C149	C	1.165309	-0.357677	-0.598783
C150	C	1.415309	-0.107677	-0.348783
C151	C	1.665309	0.142323	-0.098783
C152	C	1.915309	0.392323	0.151217
C153	C	1.165331	-0.357653	-0.688405
C154	C	1.415331	-0.107653	-0.438405
C155	C	1.665331	0.142347	-0.188405
C156	C	1.915331	0.392347	0.061595
C157	C	1.165341	-0.164027	-0.388524
C158	C	1.415341	0.085973	-0.138524
C159	C	1.665341	0.335973	0.111476
C160	C	1.915341	0.585973	0.361476
C161	C	1.165376	-0.081481	-0.388546
C162	C	1.415376	0.168519	-0.138546
C163	C	1.665376	0.418519	0.111454
C164	C	1.915376	0.668519	0.361454
C165	C	1.165368	-0.357570	-1.016580
C166	C	1.415368	-0.107570	-0.766580
C167	C	1.665368	0.142430	-0.516580
C168	C	1.915368	0.392430	-0.266580
C169	C	1.165356	-0.357596	-0.925272
C170	C	1.415356	-0.107596	-0.675272
C171	C	1.665356	0.142404	-0.425272
C172	C	1.915356	0.392404	-0.175272
C173	C	1.165350	-0.357612	-0.852495
C174	C	1.415350	-0.107612	-0.602495
C175	C	1.665350	0.142388	-0.352495
C176	C	1.915350	0.392388	-0.102495
C177	C	1.165337	-0.357637	-0.761181
C178	C	1.415337	-0.107637	-0.511181
C179	C	1.665337	0.142363	-0.261181
C180	C	1.915337	0.392363	-0.011181
C181	C	1.165250	-0.357734	-0.178984
C182	C	1.415250	-0.107734	0.071016
C183	C	1.665250	0.142266	0.321016
C184	C	1.915250	0.392266	0.571016
C185	C	1.165384	-0.357548	-0.089363
C186	C	1.415384	-0.107548	0.160637
C187	C	1.665384	0.142452	0.410637
C188	C	1.915384	0.392452	0.660637
H189	H	1.264804	-0.811003	-0.289221
H190	H	1.514804	-0.561003	-0.039221
H191	H	1.764804	-0.311003	0.210779
H192	H	2.014804	-0.061003	0.460779
C193	C	1.322911	-0.911261	-0.430869
C194	C	1.572911	-0.661261	-0.180869
C195	C	1.822911	-0.411261	0.069131
C196	C	2.072911	-0.161261	0.319131
H197	H	1.319233	-0.940183	-0.478453
H198	H	1.569233	-0.690183	-0.228453
H199	H	1.819233	-0.440183	0.021547
H200	H	2.069233	-0.190183	0.271547
H201	H	1.343149	-0.940974	-0.388271
H202	H	1.593149	-0.690974	-0.138271
H203	H	1.843149	-0.440974	0.111729
H204	H	2.093149	-0.190974	0.361729
H205	H	1.358181	-0.870668	-0.439840
H206	H	1.608181	-0.620668	-0.189840
H207	H	1.858181	-0.370668	0.060160
H208	H	2.108181	-0.120668	0.310160
C209	C	1.007771	-0.803427	-0.346102
C210	C	1.257771	-0.553427	-0.096102
C211	C	1.507771	-0.303427	0.153898
C212	C	1.757771	-0.053427	0.403898
H213	H	0.993896	-0.820349	-0.293786
H214	H	1.243896	-0.570349	-0.043786
H215	H	1.493896	-0.320349	0.206214
H216	H	1.743896	-0.070349	0.456214
H217	H	0.969355	-0.821058	-0.383800
H218	H	1.219355	-0.571058	-0.133800
H219	H	1.469355	-0.321058	0.116200
H220	H	1.719355	-0.071058	0.366200
H221	H	1.008251	-0.750802	-0.346740
H222	H	1.258251	-0.500802	-0.096740
H223	H	1.508251	-0.250802	0.153260
H224	H	1.758251	-0.000802	0.403260
C225	C	1.123227	-0.911484	-0.230885
C226	C	1.373227	-0.661484	0.019115
C227	C	1.623227	-0.411484	0.269115
C228	C	1.873227	-0.161484	0.519115
H229	H	1.161569	-0.894578	-0.192714
H230	H	1.411569	-0.644578	0.057286
H231	H	1.661569	-0.394578	0.307286
H232	H	1.911569	-0.144578	0.557286
H233	H	1.122922	-0.964105	-0.231611
H234	H	1.372922	-0.714105	0.018389
H235	H	1.622922	-0.464105	0.268389
H236	H	1.872922	-0.214105	0.518389
H237	H	1.071349	-0.893873	-0.216471
H238	H	1.321349	-0.643873	0.033529
H239	H	1.571349	-0.393873	0.283529
H240	H	1.821349	-0.143873	0.533529
C241	C	1.207564	-0.803361	-0.546189
C242	C	1.457564	-0.553361	-0.296189
C243	C	1.707564	-0.303361	-0.046189
C244	C	1.957564	-0.053361	0.203811
H245	H	1.216961	-0.843963	-0.581291
H246	H	1.466961	-0.593963	-0.331291
H247	H	1.716961	-0.343963	-0.081291
H248	H	1.966961	-0.093963	0.168709
H249	H	1.254876	-0.774040	-0.542510
H250	H	1.504876	-0.524040	-0.292510
H251	H	1.754876	-0.274040	-0.042510
H252	H	2.004876	-0.024040	0.207490
H253	H	1.164750	-0.774046	-0.566640
H254	H	1.414750	-0.524046	-0.316640
H255	H	1.664750	-0.274046	-0.066640
H256	H	1.914750	-0.024046	0.183360
C257	C	1.049874	-0.911112	-0.503923
C258	C	1.299874	-0.661112	-0.253923
C259	C	1.549874	-0.411112	-0.003923
C260	C	1.799874	-0.161112	0.246077
H261	H	1.063957	-0.894067	-0.556137
H262	H	1.313957	-0.644067	-0.306137
H263	H	1.563957	-0.394067	-0.056137
H264	H	1.813957	-0.144067	0.193863
H265	H	0.997787	-0.893488	-0.490325
H266	H	1.247787	-0.643488	-0.240325
H267	H	1.497787	-0.393488	0.009675
H268	H	1.747787	-0.143488	0.259675
H269	H	1.049916	-0.963740	-0.503293
H270	H	1.299916	-0.713740	-0.253293
H271	H	1.549916	-0.463740	-0.003293
H272	H	1.799916	-0.213740	0.246707
