data_functionalizedCrystal
_audit_creation_method	'MofGen! by Chris Wilmer'
_symmetry_space_group_name_H-M	'P1'
_symmetry_Int_Tables_number	1
_symmetry_cell_setting	triclinic
loop_
_symmetry_equiv_pos_as_xyz
  x,y,z
_cell_length_a	10.654550
_cell_length_b	16.109301
_cell_length_c	9.130313
_cell_angle_alpha	89.995471
_cell_angle_beta	89.999724
_cell_angle_gamma	83.973257
loop_
_atom_site_label
_atom_site_type_symbol
_atom_site_fract_x
_atom_site_fract_y
_atom_site_fract_z
O1	O	1.666255	0.116774	-0.121690
O2	O	1.300626	0.127899	-0.121717
O3	O	1.493485	0.001365	-0.121693
O4	O	1.473397	0.243308	-0.121714
O5	O	1.493472	0.001362	0.121906
O6	O	1.300613	0.127896	0.121882
O7	O	1.666242	0.116770	0.121909
Cu8	Cu	1.483426	0.122333	0.144138
Cu9	Cu	1.483442	0.122337	-0.143946
O10	O	1.473384	0.243304	0.121885
C11	C	1.253833	0.127081	0.000079
C12	C	1.114422	0.124637	0.000069
C13	C	1.492664	-0.029616	0.000106
C14	C	1.490225	-0.121926	0.000103
C15	C	1.033926	0.199138	0.000067
C16	C	0.902937	0.196836	0.000092
C17	C	0.932952	0.045526	0.000116
C18	C	1.063939	0.047828	0.000101
C19	C	1.596688	-0.430291	0.000086
C20	C	1.598992	-0.343557	0.000095
C21	C	1.370171	-0.325045	0.000097
C22	C	1.367869	-0.411777	0.000099
C23	C	1.481131	-0.464398	0.000086
C24	C	1.485738	-0.290932	0.000093
C25	C	1.488235	-0.196891	0.000102
C26	C	1.478634	-0.558445	0.000079
C27	C	1.713036	0.117589	0.000109
C28	C	1.852446	0.120033	0.000110
C29	C	1.474204	0.274286	0.000083
C30	C	1.476644	0.366596	0.000075
N31	N	1.483425	0.122329	0.346760
N32	N	1.483454	0.122334	-0.346569
C33	C	1.568851	0.066324	0.423423
C34	C	1.568863	0.066324	0.576760
C35	C	1.398018	0.178342	0.576758
C36	C	1.398001	0.178337	0.423424
H37	H	1.075025	0.261680	0.000051
C38	C	1.662829	0.004719	0.661089
H39	H	1.650599	0.012735	0.763390
H40	H	1.746631	0.014264	0.635948
H41	H	1.649210	-0.050856	0.635969
H42	H	1.328470	0.223944	0.639193
C43	C	1.240750	-0.449298	0.000093
H44	H	1.173625	-0.405538	0.000079
H45	H	1.235096	-0.482752	0.085041
H46	H	1.235101	-0.482743	-0.084867
H47	H	1.328431	0.223944	0.361001
H48	H	0.891833	-0.017009	0.000152
C49	C	0.814396	0.278788	0.000079
H50	H	0.863227	0.324858	0.000047
H51	H	0.762680	0.281041	0.085033
H52	H	0.762669	0.281031	-0.084874
H53	H	1.688913	-0.473134	0.000075
C54	C	1.152491	-0.034127	0.000097
H55	H	1.103667	-0.080201	0.000097
H56	H	1.204221	-0.036373	0.085039
H57	H	1.204203	-0.036370	-0.084869
H58	H	1.693090	-0.315792	0.000097
C59	C	1.245594	-0.267159	0.000092
H60	H	1.263514	-0.210619	0.000076
H61	H	1.198204	-0.277571	0.085038
H62	H	1.198215	-0.277570	-0.084869
H63	H	1.638406	0.020717	0.361007
