data_functionalizedCrystal
_audit_creation_method	'MofGen! by Chris Wilmer'
_symmetry_space_group_name_H-M	'P1'
_symmetry_Int_Tables_number	1
_symmetry_cell_setting	triclinic
loop_
_symmetry_equiv_pos_as_xyz
  x,y,z
_cell_length_a	21.395362
_cell_length_b	19.805404
_cell_length_c	21.395356
_cell_angle_alpha	89.970424
_cell_angle_beta	89.957023
_cell_angle_gamma	90.045228
loop_
_atom_site_label
_atom_site_type_symbol
_atom_site_fract_x
_atom_site_fract_y
_atom_site_fract_z
Zn1	Zn	0.957859	-0.269193	-0.354577
Zn2	Zn	0.957766	-0.382381	-0.249796
Zn3	Zn	0.853076	-0.269243	-0.249779
Zn4	Zn	0.853046	-0.382377	-0.354501
O5	O	0.905437	-0.325799	-0.302163
O6	O	1.045525	-0.284189	-0.340717
O7	O	0.943852	-0.367396	-0.162116
O8	O	0.867028	-0.174520	-0.263705
O9	O	1.045456	-0.367348	-0.263735
O10	O	0.944011	-0.174483	-0.340700
O11	O	0.866937	-0.284274	-0.162103
O12	O	0.765394	-0.284270	-0.263631
O13	O	0.866976	-0.367341	-0.442189
O14	O	0.765372	-0.367389	-0.340570
O15	O	0.943982	-0.284185	-0.442245
O16	O	0.943823	-0.477097	-0.263661
O17	O	0.866886	-0.477094	-0.340587
C18	C	0.742649	-0.325835	-0.302091
C19	C	0.673008	-0.325866	-0.302074
C20	C	0.640300	-0.369204	-0.342077
C21	C	0.574864	-0.369187	-0.342105
C22	C	0.542140	-0.325840	-0.302119
C23	C	0.574856	-0.282494	-0.262114
C24	C	0.640290	-0.282507	-0.262092
C25	C	0.438416	-0.320397	-0.245714
C26	C	0.372983	-0.320389	-0.245735
C27	C	0.340319	-0.325796	-0.302188
C28	C	0.373096	-0.331226	-0.358622
C29	C	0.438530	-0.331239	-0.358599
C30	C	0.471187	-0.325821	-0.302139
C31	C	0.236658	-0.369118	-0.342224
C32	C	0.171222	-0.369096	-0.342253
C33	C	0.171214	-0.282407	-0.262257
C34	C	0.236650	-0.282425	-0.262234
C35	C	0.269368	-0.325784	-0.302216
C36	C	0.905358	-0.501655	-0.302132
C37	C	0.905382	-0.576887	-0.302139
C38	C	0.945608	-1.038600	-0.342343
C39	C	0.945583	-0.967911	-0.342329
C40	C	0.905521	-0.932648	-0.302202
C41	C	0.865486	-0.968078	-0.262083
C42	C	0.865514	-1.038765	-0.262095
C43	C	0.865371	-0.683004	-0.262035
C44	C	0.865345	-0.612312	-0.262027
C45	C	0.945440	-0.612151	-0.342268
C46	C	0.945468	-0.682838	-0.342280
C47	C	0.905436	-0.718261	-0.302159
C48	C	0.905464	-0.794910	-0.302174
C49	C	0.905489	-0.856001	-0.302190
C50	C	1.068860	-0.325763	-0.302237
C51	C	1.138502	-0.325748	-0.302268
C52	C	0.905486	-0.325757	-0.465587
C53	C	0.905507	-0.325739	-0.535228
C54	C	0.905533	-0.149256	-0.302209
C55	C	0.905574	-0.074024	-0.302228
C56	C	0.865468	-0.282452	-0.567925
C57	C	0.865466	-0.282440	-0.633360
C58	C	0.905514	-0.325707	-0.666096
C59	C	0.945556	-0.369002	-0.633392
C60	C	0.945553	-0.369018	-0.567958
C61	C	0.961966	-0.331011	-0.769802
C62	C	0.961971	-0.330990	-0.835235
C63	C	0.905525	-0.325661	-0.867917
C64	C	0.849072	-0.320338	-0.835159
C65	C	0.849069	-0.320354	-0.769725
C66	C	0.905522	-0.325694	-0.737049
C67	C	0.865480	-0.282358	-0.971566
C68	C	0.865477	-0.282351	-1.037003
C69	C	0.945572	-0.368909	-1.037034
C70	C	0.945570	-0.368921	-0.971598
C71	C	0.905524	-0.325642	-0.938869
C72	C	0.905424	-0.325792	-0.139376
C73	C	0.905524	-0.325619	-0.069735
H74	H	0.548207	-0.247200	-0.229559
H75	H	0.263299	-0.404420	-0.374784
H76	H	0.144571	-0.247110	-0.229703
O77	O	0.675575	-0.235776	-0.218933
H78	H	0.641829	-0.205635	-0.191127
H79	H	0.832867	-0.247104	-1.063623
H80	H	0.978039	-0.583302	-0.374935
H81	H	0.144592	-0.404386	-0.374832
H82	H	0.978088	-0.711546	-0.374957
O83	O	0.822142	-0.574274	-0.218738
H84	H	0.794316	-0.610781	-0.190835
H85	H	0.548228	-0.404477	-0.374682
H86	H	1.007938	-0.335321	-0.861902
H87	H	0.263281	-0.247138	-0.229656
H88	H	1.007935	-0.335345	-0.743197
O89	O	0.988771	-0.415597	-0.936332
H90	H	0.978006	-0.468720	-0.948872
O91	O	0.822189	-0.721202	-0.218766
H92	H	0.828941	-0.776280	-0.225507
H93	H	0.832869	-0.939362	-0.229408
H94	H	0.465005	-0.315991	-0.199740
O95	O	0.337631	-0.314530	-0.184873
H96	H	0.371336	-0.310756	-0.145615
H97	H	0.978163	-0.404230	-0.660050
O98	O	0.988818	-1.076633	-0.385621
H99	H	1.016656	-1.040122	-0.413508
O100	O	0.822333	-1.076978	-0.218832
H101	H	0.794466	-1.040583	-0.190932
H102	H	0.978181	-0.939069	-0.374992
O103	O	0.473886	-0.337080	-0.419462
H104	H	0.440185	-0.340832	-0.458724
O105	O	0.822283	-0.235771	-0.532621
H106	H	0.794440	-0.205669	-0.566355
H107	H	0.832862	-0.247187	-0.659987
O108	O	0.788187	-0.314609	-0.734389
H109	H	0.748934	-0.310900	-0.768103
H110	H	0.666935	-0.404509	-0.374635
O111	O	0.788183	-0.314596	-0.870397
H112	H	0.797665	-0.315489	-0.921401
H113	H	0.832872	-0.247119	-0.944916
O114	O	0.988770	-0.415577	-1.072332
H115	H	0.982049	-0.408292	-1.123326
O116	O	0.988749	-0.415696	-0.532686
H117	H	1.016602	-0.445778	-0.566440
H118	H	0.346503	-0.335627	-0.404591
