data_functionalizedCrystal
_audit_creation_method	'MofGen! by Chris Wilmer'
_symmetry_space_group_name_H-M	'P1'
_symmetry_Int_Tables_number	1
_symmetry_cell_setting	triclinic
loop_
_symmetry_equiv_pos_as_xyz
  x,y,z
_cell_length_a	6.817900
_cell_length_b	17.982959
_cell_length_c	16.256277
_cell_angle_alpha	95.646547
_cell_angle_beta	103.500353
_cell_angle_gamma	102.451857
loop_
_atom_site_label
_atom_site_type_symbol
_atom_site_fract_x
_atom_site_fract_y
_atom_site_fract_z
V1	V	-4.021676	-0.106029	-0.264229
O2	O	-4.014535	0.004462	-0.258836
O3	O	-3.968181	-0.209628	-0.262772
O4	O	-3.973361	-0.104676	-0.379309
O5	O	-4.009319	-0.101217	-0.141492
V6	V	-4.505954	-0.092780	-0.249506
O7	O	-4.281280	-0.135091	-0.296525
O8	O	-4.696547	-0.063718	-0.217210
O9	O	-4.336243	0.010819	-0.250964
O10	O	-4.630492	-0.203271	-0.254900
O11	O	-4.635708	-0.097592	-0.372244
O12	O	-4.331063	-0.094133	-0.134426
C13	C	-3.811939	-0.234875	-0.258694
C14	C	-3.849488	-0.319571	-0.258269
C15	C	-3.818546	-0.100997	-0.407348
C16	C	-3.860292	-0.100576	-0.501428
C17	C	-4.049048	-0.363251	-0.262304
C18	C	-4.084320	-0.442832	-0.261910
C19	C	-3.920025	-0.478730	-0.257475
C20	C	-3.720450	-0.435044	-0.253443
C21	C	-3.685184	-0.355466	-0.253843
C22	C	-3.862669	-0.755976	-0.251831
C23	C	-3.897950	-0.835560	-0.251428
C24	C	-4.261804	-0.843343	-0.259898
C25	C	-4.226539	-0.763764	-0.260298
C26	C	-4.026970	-0.720086	-0.256270
C27	C	-3.988728	-0.633795	-0.256699
C28	C	-3.958262	-0.565019	-0.257041
C29	C	-4.151092	-0.103516	-0.733259
C30	C	-4.047745	-0.038129	-0.776130
C31	C	-3.936628	-0.099784	-0.673672
C32	C	-4.114315	-0.164375	-0.798427
C33	C	-4.010380	-0.099023	-0.840053
C34	C	-3.832702	-0.034351	-0.715295
C35	C	-3.899327	-0.160654	-0.737598
C36	C	-3.795821	-0.095249	-0.780438
C37	C	-3.894146	-0.100222	-0.577824
C38	C	-4.052843	-0.098579	-0.935897
C39	C	-4.155826	0.036062	-0.255039
C40	C	-4.097516	0.120757	-0.255469
C41	C	-4.149220	-0.097815	-0.106384
C42	C	-4.086712	-0.098232	-0.012302
H43	H	-4.182837	-0.334028	-0.265908
Br44	Br	-3.414346	-0.296185	-0.248375
Br45	Br	-3.545884	-0.089391	-0.814944
H46	H	-3.764152	-0.864787	-0.247822
Br47	Br	-4.449512	-0.715047	-0.266303
H48	H	-4.246819	-0.478394	-0.265198
Br49	Br	-3.497478	-0.483763	-0.247432
Br50	Br	-4.152932	0.048228	-0.804816
Br51	Br	-3.794216	-0.247013	-0.708870
Br52	Br	-4.532655	-0.902625	-0.265365
H53	H	-4.233801	-0.219319	-0.834498
Br54	Br	-3.591827	-0.696707	-0.246358
Br55	Br	-3.633731	0.057324	-0.655340
Br56	Br	-4.400610	-0.109220	-0.698458
