data_functionalizedCrystal
_audit_creation_method	'MofGen! by Chris Wilmer'
_symmetry_space_group_name_H-M	'P1'
_symmetry_Int_Tables_number	1
_symmetry_cell_setting	triclinic
loop_
_symmetry_equiv_pos_as_xyz
  x,y,z
_cell_length_a	19.288840
_cell_length_b	14.853559
_cell_length_c	18.366186
_cell_angle_alpha	89.995958
_cell_angle_beta	89.983729
_cell_angle_gamma	83.378735
loop_
_atom_site_label
_atom_site_type_symbol
_atom_site_fract_x
_atom_site_fract_y
_atom_site_fract_z
O1	O	0.921740	0.112357	-0.060668
O2	O	0.719528	0.127552	-0.060642
O3	O	0.826039	-0.011307	-0.060655
O4	O	0.815230	0.251216	-0.060655
O5	O	0.826021	-0.011314	0.060444
O6	O	0.719510	0.127545	0.060457
O7	O	0.921722	0.112350	0.060432
Zn8	Zn	0.820613	0.119947	0.079672
Zn9	Zn	0.820637	0.119956	-0.079882
O10	O	0.815212	0.251209	0.060444
C11	C	0.693641	0.127063	-0.000089
C12	C	0.616531	0.125607	-0.000080
C13	C	0.580335	0.124911	-0.066093
C14	C	0.507884	0.123533	-0.066102
C15	C	0.471633	0.122832	-0.000094
C16	C	0.507837	0.123533	0.065928
C17	C	0.580286	0.124921	0.065935
C18	C	0.362113	0.067825	0.050468
C19	C	0.289666	0.066432	0.050458
C20	C	0.248175	0.118556	-0.000113
C21	C	0.279141	0.172062	-0.050686
C22	C	0.351591	0.173450	-0.050679
C23	C	0.393074	0.121328	-0.000094
C24	C	0.133419	0.116367	-0.066140
C25	C	0.060965	0.114994	-0.066146
C26	C	0.060921	0.114986	0.065886
C27	C	0.133372	0.116368	0.065890
C28	C	0.169617	0.117054	-0.000125
C29	C	0.825541	-0.044896	-0.000107
C30	C	0.824077	-0.144972	-0.000110
C31	C	0.817874	-0.568107	-0.066121
C32	C	0.817854	-0.568109	0.065906
C33	C	0.819236	-0.474084	0.065907
C34	C	0.819935	-0.427066	-0.000108
C35	C	0.819253	-0.474073	-0.066123
C36	C	0.819911	-0.427069	0.131920
C37	C	0.821292	-0.333038	0.131923
C38	C	0.821996	-0.286019	0.065908
C39	C	0.821315	-0.333032	-0.000109
C40	C	0.822015	-0.286013	-0.066124
C41	C	0.821339	-0.333026	-0.132142
C42	C	0.819958	-0.427054	-0.132138
C43	C	0.823377	-0.191990	0.065904
C44	C	0.823395	-0.191979	-0.066125
C45	C	0.947610	0.112839	-0.000123
C46	C	1.024719	0.114295	-0.000137
C47	C	0.815709	0.284799	-0.000106
C48	C	0.817174	0.384874	-0.000107
N49	N	0.820602	0.119940	0.188563
N50	N	0.820654	0.119955	-0.188773
C51	C	0.867780	0.058483	0.226657
C52	C	0.867785	0.058479	0.302885
C53	C	0.820618	0.119947	0.341015
C54	C	0.773430	0.181409	0.302911
C55	C	0.773423	0.181405	0.226685
C56	C	0.811595	0.202092	0.461776
C57	C	0.811607	0.202097	0.538001
C58	C	0.820637	0.119959	0.576123
C59	C	0.829670	0.037812	0.538010
C60	C	0.829662	0.037808	0.461784
C61	C	0.820620	0.119958	0.423670
C62	C	0.867823	0.058493	0.696873
C63	C	0.867823	0.058487	0.773102
C64	C	0.773471	0.181425	0.773127
C65	C	0.773468	0.181422	0.696899
C66	C	0.820648	0.119957	0.658776
H67	H	0.162844	0.116928	0.119645
N68	N	0.819160	-0.477782	0.203116
H69	H	0.819797	-0.433734	0.244936
H70	H	0.775565	-0.509310	0.205995
N71	N	0.918660	-0.007815	0.185540
H72	H	0.949440	0.026531	0.153899
H73	H	0.948500	-0.046732	0.221291
H74	H	0.031405	0.114421	0.119631
H75	H	0.823912	-0.153714	0.119655
H76	H	0.804257	0.268986	0.569027
N77	N	0.406859	0.011598	0.105014
H78	H	0.457454	0.020598	0.097348
H79	H	0.392203	0.031095	0.155952
N80	N	0.619423	0.125673	-0.137293
H81	H	0.670813	0.126660	-0.127274
H82	H	0.612358	0.069557	-0.166123
H83	H	0.821903	-0.294730	-0.185891
H84	H	0.245360	0.214510	-0.091863
H85	H	0.837015	-0.029079	0.430755
H86	H	0.821845	-0.294769	0.185680
N87	N	0.817149	-0.618809	-0.137322
H88	H	0.773556	-0.650335	-0.140264
H89	H	0.817830	-0.574700	-0.179098
H90	H	0.906204	0.008432	0.333908
H91	H	0.819407	-0.465340	-0.185886
H92	H	0.735025	0.231456	0.333961
N93	N	0.817108	-0.618818	0.137104
H94	H	0.816134	-0.685519	0.127088
H95	H	0.860376	-0.609871	0.165914
H96	H	0.162930	0.116936	-0.119893
H97	H	0.264459	0.022860	0.091634
H98	H	0.837023	-0.029073	0.569047
N99	N	0.021921	0.114237	-0.137349
H100	H	-0.013721	0.169538	-0.140302
H101	H	0.055926	0.114846	-0.179123
H102	H	0.478317	0.122965	0.119672
H103	H	0.906238	0.008441	0.665832
H104	H	0.906239	0.008437	0.804119
N105	N	0.722591	0.247718	0.814241
H106	H	0.729752	0.238394	0.868312
H107	H	0.730669	0.311648	0.800910
N108	N	0.722582	0.247707	0.655805
H109	H	0.692701	0.286647	0.691525
H110	H	0.749202	0.287473	0.624161
N111	N	0.801856	0.290690	0.420663
H112	H	0.796143	0.342728	0.456371
H113	H	0.844054	0.295803	0.389020
N114	N	0.619331	0.125675	0.137138
H115	H	0.585375	0.125026	0.178954
H116	H	0.654975	0.070373	0.140018
N117	N	0.722532	0.247695	0.185598
H118	H	0.730587	0.311656	0.198855
H119	H	0.729709	0.238291	0.131537
N120	N	0.468832	0.122784	-0.137304
H121	H	0.502786	0.123431	-0.179122
H122	H	0.444361	0.066331	-0.140176
H123	H	0.376800	0.217018	-0.091855
H124	H	0.823968	-0.153704	-0.119883
