data_functionalizedCrystal
_audit_creation_method	'MofGen! by Chris Wilmer'
_symmetry_space_group_name_H-M	'P1'
_symmetry_Int_Tables_number	1
_symmetry_cell_setting	triclinic
loop_
_symmetry_equiv_pos_as_xyz
  x,y,z
_cell_length_a	15.995350
_cell_length_b	19.188930
_cell_length_c	15.072220
_cell_angle_alpha	89.993728
_cell_angle_beta	89.991149
_cell_angle_gamma	83.318578
loop_
_atom_site_label
_atom_site_type_symbol
_atom_site_fract_x
_atom_site_fract_y
_atom_site_fract_z
O1	O	1.110666	0.089991	-0.073718
O2	O	1.444000	0.423325	0.259616
O3	O	1.777333	0.756658	0.592949
O4	O	0.866850	0.101105	-0.073737
O5	O	1.200184	0.434438	0.259596
O6	O	1.533517	0.767771	0.592930
O7	O	0.995794	-0.006090	-0.073709
O8	O	1.329128	0.327244	0.259624
O9	O	1.662461	0.660577	0.592957
O10	O	0.981722	0.197186	-0.073745
O11	O	1.315056	0.530519	0.259588
O12	O	1.648389	0.863853	0.592921
O13	O	0.995763	-0.006084	0.073856
O14	O	1.329096	0.327250	0.407189
O15	O	1.662429	0.660583	0.740522
O16	O	0.866819	0.101111	0.073828
O17	O	1.200152	0.434444	0.407161
O18	O	1.533485	0.767777	0.740495
O19	O	1.110634	0.089997	0.073848
O20	O	1.443968	0.423331	0.407181
O21	O	1.777301	0.756664	0.740514
Zn22	Zn	0.988721	0.095555	0.097267
Zn23	Zn	1.322055	0.428888	0.430600
Zn24	Zn	1.655388	0.762222	0.763934
Zn25	Zn	0.988763	0.095547	-0.097156
Zn26	Zn	1.322097	0.428881	0.236177
Zn27	Zn	1.655430	0.762214	0.569510
O28	O	0.981690	0.197192	0.073820
O29	O	1.315024	0.530525	0.407153
O30	O	1.648357	0.863858	0.740487
C31	C	0.835641	0.100648	0.000043
C32	C	1.168975	0.433982	0.333377
C33	C	1.502308	0.767315	0.666710
C34	C	0.742696	0.099271	0.000037
C35	C	1.076029	0.432604	0.333370
C36	C	1.409363	0.765938	0.666703
C37	C	0.404967	0.094324	0.000056
C38	C	0.738300	0.427658	0.333389
C39	C	1.071633	0.760991	0.666723
C40	C	0.452680	0.017982	0.000398
C41	C	0.786014	0.351316	0.333732
C42	C	1.119347	0.684649	0.667065
C43	C	0.549365	0.019360	0.000059
C44	C	0.882699	0.352693	0.333393
C45	C	1.216032	0.686027	0.666726
C46	C	0.572518	0.096778	0.000047
C47	C	0.905852	0.430111	0.333380
C48	C	1.239185	0.763445	0.666713
C49	C	0.531311	0.134429	-0.084223
C50	C	0.864645	0.467762	0.249110
C51	C	1.197978	0.801096	0.582443
C52	C	0.434683	0.132511	-0.084287
C53	C	0.768016	0.465844	0.249046
C54	C	1.101349	0.799178	0.582379
C55	C	0.434302	0.134095	0.083522
C56	C	0.767635	0.467429	0.416855
C57	C	1.100968	0.800762	0.750188
C58	C	0.531247	0.134077	0.084629
C59	C	0.864580	0.467411	0.417962
C60	C	1.197914	0.800744	0.751296
C61	C	0.667211	0.098169	0.000039
C62	C	1.000544	0.431502	0.333372
C63	C	1.333877	0.764835	0.666705
C64	C	0.310274	0.092936	0.000058
C65	C	0.643607	0.426269	0.333391
C66	C	0.976941	0.759602	0.666725
C67	C	0.995323	-0.032099	0.000076
C68	C	1.328656	0.301235	0.333409
C69	C	1.661989	0.634568	0.666742
C70	C	0.993955	-0.109607	0.000083
C71	C	1.327288	0.223727	0.333416
C72	C	1.660621	0.557060	0.666750
C73	C	1.069615	-0.154338	0.000093
C74	C	1.402948	0.178995	0.333427
C75	C	1.736282	0.512329	0.666760
C76	C	1.068330	-0.227165	0.000079
C77	C	1.401663	0.106168	0.333412
C78	C	1.734996	0.439502	0.666746
C79	C	0.991380	-0.255258	0.000072
C80	C	1.324713	0.078076	0.333406
C81	C	1.658047	0.411409	0.666739
C82	C	0.915710	-0.210517	0.000057
C83	C	1.249043	0.122817	0.333390
C84	C	1.582377	0.456150	0.666724
C85	C	0.916997	-0.137691	0.000062
C86	C	1.250331	0.195642	0.333396
C87	C	1.583664	0.528976	0.666729
N88	N	0.932550	-0.363410	0.050287
N89	N	1.265884	-0.030077	0.383620
N90	N	1.599217	0.303256	0.716954
N91	N	0.931333	-0.432592	0.050284
N92	N	1.264666	-0.099259	0.383617
N93	N	1.597999	0.234075	0.716950
C94	C	0.987497	-0.474676	0.000054
C95	C	1.320830	-0.141343	0.333387
C96	C	1.654164	0.191990	0.666721
N97	N	1.044937	-0.444966	-0.050161
N98	N	1.378271	-0.111633	0.283172
N99	N	1.711604	0.221700	0.616506
N100	N	1.046158	-0.375779	-0.050154
N101	N	1.379491	-0.042445	0.283180
N102	N	1.712824	0.290888	0.616513
C103	C	0.989976	-0.334224	0.000066
C104	C	1.323309	-0.000890	0.333399
C105	C	1.656642	0.332443	0.666733
C106	C	1.061769	-0.598375	0.000048
C107	C	1.395102	-0.265042	0.333381
C108	C	1.728435	0.068291	0.666714
C109	C	1.060480	-0.671204	0.000028
C110	C	1.393814	-0.337870	0.333361
C111	C	1.727147	-0.004537	0.666694
C112	C	0.907859	-0.654553	0.000015
C113	C	1.241192	-0.321220	0.333348
C114	C	1.574525	0.012113	0.666681
C115	C	0.909149	-0.581727	0.000025
C116	C	1.242482	-0.248394	0.333359
C117	C	1.575816	0.084940	0.666692
C118	C	0.986106	-0.553643	0.000046
C119	C	1.319440	-0.220309	0.333380
C120	C	1.652773	0.113024	0.666713
C121	C	1.141843	0.090454	0.000065
C122	C	1.475177	0.423787	0.333399
C123	C	1.808510	0.757121	0.666732
C124	C	1.234789	0.091831	0.000066
C125	C	1.568122	0.425165	0.333399
C126	C	1.901455	0.758498	0.666733
C127	C	0.982162	0.223201	0.000033
C128	C	1.315495	0.556534	0.333366
C129	C	1.648829	0.889868	0.666700
C130	C	0.983530	0.300709	0.000019
C131	C	1.316863	0.634042	0.333353
C132	C	1.650197	0.967376	0.666686
N133	N	0.988699	0.095560	0.229956
N134	N	1.322032	0.428893	0.563289
N135	N	1.655366	0.762227	0.896622
N136	N	0.988792	0.095537	-0.229845
N137	N	1.322126	0.428870	0.103488
N138	N	1.655459	0.762203	0.436821
C139	C	0.988762	0.095544	0.589157
C140	C	1.322095	0.428878	0.922491
C141	C	1.655428	0.762211	1.255824
C142	C	0.919536	0.152710	0.551535
C143	C	1.252869	0.486043	0.884869
C144	C	1.586203	0.819376	1.218202
C145	C	0.919693	0.152918	0.448710
C146	C	1.253027	0.486252	0.782043
C147	C	1.586360	0.819585	1.115376
C148	C	0.988730	0.095552	0.410953
C149	C	1.322063	0.428886	0.744286
C150	C	1.655396	0.762219	1.077620
C151	C	1.076036	0.111464	0.448248
C152	C	1.409370	0.444797	0.781581
C153	C	1.742703	0.778130	1.114915
C154	C	1.075648	0.111870	0.551106
C155	C	1.408981	0.445203	0.884439
C156	C	1.742315	0.778537	1.217773
C157	C	0.971460	0.022298	0.551269
C158	C	1.304794	0.355632	0.884602
C159	C	1.638127	0.688965	1.217936
C160	C	0.969454	0.022787	0.448405
C161	C	1.302787	0.356120	0.781738
C162	C	1.636121	0.689453	1.115072
C163	C	0.988717	0.095555	0.310240
C164	C	1.322051	0.428888	0.643573
C165	C	1.655384	0.762222	0.976906
C166	C	0.988780	0.095543	0.689871
C167	C	1.322113	0.428876	1.023204
C168	C	1.655447	0.762210	1.356537
H169	H	0.546404	0.190533	0.089710
H170	H	0.879738	0.523866	0.423043
H171	H	1.213071	0.857200	0.756376
F172	F	1.143672	-0.568483	0.000074
F173	F	1.477005	-0.235150	0.333407
F174	F	1.810339	0.098183	0.666741
H175	H	0.855384	-0.101270	0.000054
H176	H	1.188717	0.232063	0.333388
H177	H	1.522050	0.565397	0.666721
F178	F	0.392519	0.207665	0.084255
F179	F	0.725852	0.540999	0.417589
F180	F	1.059186	0.874332	0.750922
H181	H	0.577890	-0.010236	0.060468
H182	H	0.911223	0.323098	0.393802
H183	H	1.244556	0.656431	0.727135
F184	F	1.144923	0.059464	0.583636
F185	F	1.478257	0.392797	0.916970
F186	F	1.811590	0.726131	1.250303
H187	H	0.909194	0.006998	0.577257
H188	H	1.242527	0.340331	0.910591
H189	H	1.575860	0.673665	1.243924
H190	H	1.090935	0.165288	0.575079
H191	H	1.424268	0.498621	0.908413
H192	H	1.757602	0.831955	1.241746
F193	F	0.568539	0.100243	-0.166187
F194	F	0.901872	0.433576	0.167146
F195	F	1.235205	0.766909	0.500480
F196	F	0.825962	-0.684447	0.000003
F197	F	1.159296	-0.351113	0.333336
F198	F	1.492629	-0.017780	0.666670
F199	F	0.834846	0.140563	0.415751
F200	F	1.168179	0.473896	0.749084
F201	F	1.501512	0.807229	1.082417
H202	H	1.132280	-0.131477	0.000107
H203	H	1.465613	0.201856	0.333441
H204	H	1.798946	0.535190	0.666774
H205	H	0.854420	0.143386	0.576294
H206	H	1.187754	0.476719	0.909627
H207	H	1.521087	0.810052	1.242960
H208	H	1.122095	-0.707624	0.000031
H209	H	1.455428	-0.374290	0.333365
H210	H	1.788761	-0.040957	0.666698
F211	F	0.410899	0.096616	-0.166612
F212	F	0.744232	0.429950	0.166721
F213	F	1.077565	0.763283	0.500055
F214	F	0.933746	0.223358	0.585282
F215	F	1.267080	0.556692	0.918615
F216	F	1.600413	0.890025	1.251948
F217	F	0.828620	-0.534118	0.000018
F218	F	1.161953	-0.200785	0.333351
F219	F	1.495287	0.132548	0.666685
F220	F	0.934070	0.223971	0.416522
F221	F	1.267404	0.557304	0.749856
F222	F	1.600737	0.890637	1.083189
F223	F	1.144964	0.058490	0.416284
F224	F	1.478297	0.391823	0.749617
F225	F	1.811630	0.725156	1.082951
H226	H	1.016620	-0.021746	0.422708
H227	H	1.349953	0.311587	0.756041
H228	H	1.683286	0.644921	1.089375
H229	H	1.129943	-0.263592	0.000084
H230	H	1.463277	0.069741	0.333417
H231	H	1.796610	0.403074	0.666751
H232	H	1.091695	0.164273	0.422471
H233	H	1.425028	0.497606	0.755804
H234	H	1.758362	0.830940	1.089138
H235	H	0.905232	0.010712	0.424030
H236	H	1.238565	0.344045	0.757364
H237	H	1.571898	0.677378	1.090697
H238	H	1.021947	-0.020242	0.575598
H239	H	1.355280	0.313091	0.908931
H240	H	1.688613	0.646424	1.242265
H241	H	0.434257	-0.012531	0.060832
H242	H	0.767590	0.320802	0.394166
H243	H	1.100923	0.654136	0.727499
H244	H	0.577345	-0.010441	-0.060444
H245	H	0.910679	0.322893	0.272889
H246	H	1.244012	0.656226	0.606223
F247	F	0.427228	-0.021728	-0.078138
F248	F	0.760562	0.311606	0.255195
F249	F	1.093895	0.644939	0.588528
F250	F	0.833815	-0.240416	0.000044
F251	F	1.167148	0.092918	0.333377
F252	F	1.500482	0.426251	0.666711
F253	F	0.549521	0.208766	-0.088348
F254	F	0.882854	0.542099	0.244985
F255	F	1.216188	0.875432	0.578319
H256	H	0.402230	0.188560	-0.088121
H257	H	0.735563	0.521893	0.245213
H258	H	1.068896	0.855227	0.578546
F259	F	0.566983	0.098096	0.166115
F260	F	0.900316	0.431429	0.499448
F261	F	1.233649	0.764763	0.832782
F262	F	0.407566	0.101475	0.167011
F263	F	0.740900	0.434808	0.500344
F264	F	1.074233	0.768142	0.833677
