data_functionalizedCrystal
_audit_creation_method	'MofGen! by Chris Wilmer'
_symmetry_space_group_name_H-M	'P1'
_symmetry_Int_Tables_number	1
_symmetry_cell_setting	triclinic
loop_
_symmetry_equiv_pos_as_xyz
  x,y,z
_cell_length_a	11.792241
_cell_length_b	10.540539
_cell_length_c	10.868271
_cell_angle_alpha	89.997005
_cell_angle_beta	89.999893
_cell_angle_gamma	84.359454
loop_
_atom_site_label
_atom_site_type_symbol
_atom_site_fract_x
_atom_site_fract_y
_atom_site_fract_z
O1	O	1.507361	0.173992	-0.102197
O2	O	1.177067	0.191924	-0.102225
O3	O	1.349750	-0.001773	-0.102208
O4	O	1.334679	0.367689	-0.102213
O5	O	1.349735	-0.001781	0.102436
O6	O	1.177053	0.191916	0.102420
O7	O	1.507347	0.173984	0.102448
Zn8	Zn	1.342198	0.182949	0.134926
Zn9	Zn	1.342216	0.182959	-0.134702
O10	O	1.334664	0.367681	0.102432
C11	C	1.134766	0.190793	0.000094
C12	C	1.008743	0.187422	0.000083
C13	C	0.778015	0.181223	0.000119
C14	C	0.906409	0.184667	0.000099
C15	C	1.348612	-0.049076	0.000112
C16	C	1.345231	-0.190014	0.000105
C17	C	1.215660	-0.373018	-0.000366
C18	C	1.219087	-0.226411	0.000095
C19	C	1.405929	-0.251873	0.116972
C20	C	1.401623	-0.398404	0.117070
C21	C	1.404205	-0.398922	-0.115649
C22	C	1.405367	-0.251943	-0.117194
C23	C	1.549648	0.175114	0.000127
C24	C	1.675671	0.178486	0.000130
C25	C	1.335802	0.414984	0.000109
C26	C	1.339183	0.555921	0.000108
N27	N	1.342193	0.182941	0.318940
N28	N	1.342230	0.182957	-0.318716
C29	C	1.342211	0.182956	0.569946
C30	C	1.342197	0.182952	0.430268
H31	H	1.171327	-0.183649	-0.083680
H32	H	1.166027	-0.403067	0.082965
O33	O	1.509788	-0.456132	0.123590
C34	C	1.521725	-0.531869	0.230616
H35	H	1.434440	-0.557901	0.261039
H36	H	1.560910	-0.476331	0.307060
C37	C	1.706947	-0.622485	0.165797
C38	C	1.599742	-0.654467	0.203157
H39	H	1.755075	-0.698107	0.148863
H40	H	1.698907	-0.571456	0.093694
H41	H	1.739585	-0.576202	0.229507
H42	H	1.567099	-0.700735	0.139441
H43	H	1.607778	-0.705506	0.275249
H44	H	1.495318	-0.446444	-0.116427
O45	O	1.352652	-0.202896	-0.220432
C46	C	1.431244	-0.143045	-0.292655
H47	H	1.521546	-0.184542	-0.269037
H48	H	1.421841	-0.036269	-0.273091
C49	C	1.296905	-0.114882	-0.458885
C50	C	1.407815	-0.165857	-0.429885
H51	H	1.282450	-0.128948	-0.543536
H52	H	1.243953	-0.155201	-0.410227
H53	H	1.289082	-0.025906	-0.442573
H54	H	1.415632	-0.254834	-0.446182
H55	H	1.460767	-0.125554	-0.478550
O56	O	1.516403	-0.225401	0.122020
C57	C	1.540535	-0.150414	0.019640
H58	H	1.457942	-0.098672	-0.016930
H59	H	1.582429	-0.214358	-0.055492
C60	C	1.723317	-0.115572	0.103611
C61	C	1.621876	-0.052012	0.058702
H62	H	1.773495	-0.054876	0.127703
H63	H	1.707061	-0.166095	0.172584
H64	H	1.758213	-0.168856	0.040993
H65	H	1.586974	0.001258	0.121324
H66	H	1.638128	-0.001477	-0.010260
O67	O	1.156066	-0.406753	-0.100307
C68	C	1.045827	-0.341496	-0.097976
H69	H	1.046616	-0.251525	-0.039905
H70	H	0.983615	-0.405796	-0.056374
C71	C	1.007412	-0.415393	-0.301395
C72	C	1.008383	-0.304883	-0.230079
H73	H	0.984311	-0.392813	-0.382882
H74	H	1.081680	-0.459363	-0.302964
H75	H	0.955569	-0.468966	-0.266712
H76	H	1.060235	-0.251320	-0.264753
H77	H	0.934122	-0.260904	-0.228518
H78	H	1.363753	-0.209140	0.203933
H79	H	1.170980	-0.184502	0.084002
O80	O	1.347964	-0.432017	0.221148
C81	C	1.250213	-0.491732	0.189230
H82	H	1.260585	-0.532425	0.092251
H83	H	1.172096	-0.418942	0.192675
C84	C	1.222206	-0.550342	0.399822
C85	C	1.234950	-0.600331	0.280715
H86	H	1.212786	-0.617327	0.456257
H87	H	1.288061	-0.510106	0.421328
H88	H	1.157110	-0.489683	0.402676
H89	H	1.300052	-0.660976	0.277859
H90	H	1.169105	-0.640579	0.259211
O91	O	1.355350	-0.436227	-0.221296
C92	C	1.241048	-0.382786	-0.226414
H93	H	1.229916	-0.294127	-0.165863
H94	H	1.182874	-0.455446	-0.192076
C95	C	1.223485	-0.454912	-0.434553
C96	C	1.209815	-0.346014	-0.360192
H97	H	1.204216	-0.432234	-0.517073
H98	H	1.300491	-0.490922	-0.431104
H99	H	1.175005	-0.515452	-0.405923
H100	H	1.258304	-0.285483	-0.388812
H101	H	1.132816	-0.309993	-0.363648
H102	H	1.497336	-0.228021	-0.124243
