data_functionalizedCrystal
_audit_creation_method	'MofGen! by Chris Wilmer'
_symmetry_space_group_name_H-M	'P1'
_symmetry_Int_Tables_number	1
_symmetry_cell_setting	triclinic
loop_
_symmetry_equiv_pos_as_xyz
  x,y,z
_cell_length_a	12.759395
_cell_length_b	12.759394
_cell_length_c	12.645323
_cell_angle_alpha	90.027117
_cell_angle_beta	90.022528
_cell_angle_gamma	90.013090
loop_
_atom_site_label
_atom_site_type_symbol
_atom_site_fract_x
_atom_site_fract_y
_atom_site_fract_z
Zn1	Zn	-1.606263	0.418307	-0.599426
Zn2	Zn	-1.606155	0.594010	-0.422159
Zn3	Zn	-1.430563	0.418340	-0.422170
Zn4	Zn	-1.430554	0.593939	-0.599375
O5	O	-1.518384	0.506149	-0.510782
O6	O	-1.753270	0.441630	-0.575927
O7	O	-1.582821	0.570751	-0.273813
O8	O	-1.453919	0.271315	-0.445710
O9	O	-1.753190	0.570719	-0.445690
O10	O	-1.583006	0.271290	-0.575939
O11	O	-1.453814	0.441687	-0.273821
O12	O	-1.283541	0.441618	-0.445660
O13	O	-1.453903	0.570598	-0.747729
O14	O	-1.283534	0.570630	-0.575852
O15	O	-1.582997	0.441562	-0.747766
O16	O	-1.582812	0.741022	-0.445640
O17	O	-1.453798	0.740970	-0.575840
C18	C	-1.245416	0.506121	-0.510752
C19	C	-1.128639	0.506134	-0.510765
C20	C	-0.909288	0.371945	-0.646628
C21	C	-0.964195	0.304835	-0.714534
C22	C	-1.073917	0.304822	-0.714520
C23	C	-1.128733	0.371928	-0.646593
C24	C	-1.073826	0.439038	-0.578686
C25	C	-0.964102	0.439041	-0.578706
C26	C	-1.073732	0.573244	-0.442858
C27	C	-0.964010	0.573253	-0.442866
C28	C	-1.128548	0.640349	-0.374931
C29	C	-1.073640	0.707455	-0.307017
C30	C	-0.963912	0.707465	-0.307034
C31	C	-0.909102	0.640363	-0.374959
C32	C	-1.518321	0.779117	-0.510757
C33	C	-1.518390	0.895893	-0.510781
C34	C	-1.518461	0.506068	-0.787288
C35	C	-1.518494	0.506033	-0.905118
C36	C	-0.792417	0.506168	-0.510804
C37	C	-0.909194	0.506147	-0.510792
C38	C	-1.518476	0.232116	-0.510831
C39	C	-1.518515	0.115339	-0.510852
C40	C	-1.652832	0.895894	-0.375306
C41	C	-1.720081	0.950756	-0.307580
C42	C	-1.720143	1.060477	-0.307609
C43	C	-1.652951	1.115340	-0.375373
C44	C	-1.585702	1.060479	-0.443098
C45	C	-1.585645	0.950755	-0.443060
C46	C	-1.451266	1.060478	-0.578577
C47	C	-1.451198	0.950756	-0.578545
C48	C	-1.384074	1.115341	-0.646341
C49	C	-1.316818	1.060480	-0.714062
C50	C	-1.316759	0.950751	-0.714030
C51	C	-1.383949	0.895895	-0.646270
C52	C	-1.437031	0.586828	-1.072658
C53	C	-1.437244	0.587228	-0.950098
C54	C	-1.629197	0.536084	-0.949636
C55	C	-1.628750	0.536591	-1.072234
C56	C	-1.490301	0.394737	-1.072320
C57	C	-1.487832	0.395403	-0.949714
C58	C	-1.518367	0.506154	-0.235353
C59	C	-1.518538	0.505893	-0.117523
H60	H	-1.218074	0.371921	-0.646597
O61	O	-0.911064	0.239505	-0.780465
C62	C	-0.937859	0.134760	-0.757461
H63	H	-1.017502	0.132524	-0.716698
H64	H	-0.876080	0.099308	-0.703034
C65	C	-0.845181	0.073998	-0.910987
C66	C	-0.943003	0.071252	-0.860929
H67	H	-0.848349	0.034821	-0.974809
H68	H	-0.827124	0.144566	-0.926483
H69	H	-0.793709	0.044457	-0.865620
H70	H	-0.994470	0.100805	-0.906290
H71	H	-0.961068	0.000687	-0.845443
H72	H	-1.774791	0.906077	-0.252410
H73	H	-1.542860	0.331914	-0.919095
O74	O	-1.657445	0.633531	-1.106238
C75	C	-1.758760	0.657008	-1.068601
H76	H	-1.775927	0.607767	-0.995427
H77	H	-1.818910	0.638534	-1.132644
C78	C	-1.743906	0.834604	-1.129693
C79	C	-1.764987	0.774132	-1.039814
H80	H	-1.747749	0.906852	-1.111940
H81	H	-1.675649	0.818787	-1.155054
H82	H	-1.794034	0.819198	-1.183054
H83	H	-1.714851	0.789529	-0.986460
H84	H	-1.833235	0.789954	-1.014443
O85	O	-1.127049	0.772537	-0.241076
C86	C	-1.235665	0.758162	-0.255653
H87	H	-1.250680	0.677126	-0.290517
H88	H	-1.266816	0.820551	-0.311993
C89	C	-1.273510	0.867176	-0.105551
C90	C	-1.291952	0.767643	-0.148364
H91	H	-1.308232	0.873029	-0.039372
H92	H	-1.200334	0.876865	-0.095732
H93	H	-1.299469	0.919156	-0.152511
H94	H	-1.265981	0.715666	-0.101411
H95	H	-1.365125	0.757946	-0.158172
H96	H	-0.919213	0.762119	-0.251741
H97	H	-0.819761	0.640351	-0.374966
O98	O	-1.561052	0.322668	-1.106803
C99	C	-1.534963	0.223291	-1.065815
H100	H	-1.485718	0.233341	-0.991255
H101	H	-1.488305	0.177508	-1.127272
C102	C	-1.696497	0.150663	-1.130319
C103	C	-1.636021	0.163007	-1.038738
H104	H	-1.758833	0.113474	-1.113620
H105	H	-1.714072	0.217614	-1.157937
H106	H	-1.657603	0.112514	-1.181524
H107	H	-1.674909	0.201167	-0.987540
H108	H	-1.618455	0.096061	-1.011110
H109	H	-1.355155	0.568422	-0.919997
H110	H	-1.691538	0.480201	-1.101915
H111	H	-0.819947	0.371926	-0.646623
O112	O	-1.251531	0.897300	-0.779786
C113	C	-1.265857	0.788691	-0.765212
H114	H	-1.346942	0.773663	-0.730554
H115	H	-1.203543	0.757649	-0.708701
C116	C	-1.156564	0.750745	-0.915019
C117	C	-1.256157	0.732286	-0.872458
H118	H	-1.150576	0.715949	-0.981171
H119	H	-1.146908	0.823916	-0.924835
H120	H	-1.104646	0.724876	-0.867916
H121	H	-1.308072	0.758167	-0.919555
H122	H	-1.265821	0.659117	-0.862652
H123	H	-1.217889	0.640340	-0.374930
O124	O	-1.127308	0.239785	-0.780595
C125	C	-1.190827	0.299686	-0.848924
H126	H	-1.157748	0.382442	-0.855333
H127	H	-1.273962	0.303261	-0.816120
C128	C	-1.233221	0.146858	-0.951349
C129	C	-1.192588	0.248498	-0.959227
H130	H	-1.234312	0.115282	-1.019388
H131	H	-1.190430	0.106500	-0.905312
H132	H	-1.302496	0.149851	-0.924008
H133	H	-1.123310	0.245503	-0.986555
H134	H	-1.235367	0.288854	-1.005271
H135	H	-1.383900	0.806554	-0.646230
H136	H	-1.653540	0.616490	-0.918944
H137	H	-1.455490	0.668718	-1.103474
H138	H	-1.652775	0.806553	-0.375262
O139	O	-1.703588	0.468073	-0.914702
C140	C	-1.707263	0.470665	-0.803296
H141	H	-1.674419	0.548511	-0.773917
H142	H	-1.658411	0.403546	-0.769991
C143	C	-1.861977	0.363395	-0.802364
C144	C	-1.821645	0.459011	-0.766280
H145	H	-1.932532	0.356202	-0.779528
H146	H	-1.859499	0.361645	-0.877420
H147	H	-1.821257	0.307474	-0.774606
H148	H	-1.862356	0.514931	-0.794048
H149	H	-1.824132	0.460770	-0.691227
O150	O	-1.785615	1.113656	-0.241875
C151	C	-1.890304	1.086769	-0.265142
H152	H	-1.892423	1.007070	-0.305872
H153	H	-1.925697	1.148454	-0.319694
C154	C	-1.951386	1.179619	-0.111825
C155	C	-1.953989	1.081728	-0.161841
H156	H	-1.990673	1.176514	-0.048105
H157	H	-1.880856	1.197737	-0.096151
H158	H	-1.980879	1.231013	-0.157296
H159	H	-1.924486	1.030339	-0.116376
H160	H	-2.024516	1.063601	-0.177505
H161	H	-1.653016	1.204681	-0.375399
H162	H	-1.354698	0.568203	-1.102133
O163	O	-1.384036	1.221924	-0.646543
C164	C	-1.310297	1.258579	-0.720855
H165	H	-1.295523	1.195309	-0.782757
H166	H	-1.233716	1.278142	-0.678766
C167	C	-1.371296	1.435367	-0.699233
C168	C	-1.353158	1.357662	-0.775268
H169	H	-1.397732	1.496489	-0.732795
H170	H	-1.420974	1.410673	-0.649165
H171	H	-1.307474	1.451657	-0.664165
H172	H	-1.416982	1.341364	-0.810325
H173	H	-1.303492	1.382356	-0.825344
H174	H	-1.262121	1.105158	-0.769235
O175	O	-1.459658	0.685445	-0.914976
C176	C	-1.551695	0.682760	-0.853366
H177	H	-1.563892	0.600192	-0.821239
H178	H	-1.621680	0.705795	-0.904377
C179	C	-1.526239	0.861661	-0.800019
C180	C	-1.541214	0.760251	-0.760552
H181	H	-1.519777	0.909463	-0.742769
H182	H	-1.464234	0.863472	-0.841529
H183	H	-1.584562	0.880842	-0.842528
H184	H	-1.482885	0.741067	-0.718055
H185	H	-1.603209	0.758438	-0.719032
O186	O	-1.395641	0.362228	-1.109253
C187	C	-1.353478	0.439489	-1.176624
H188	H	-1.389760	0.518760	-1.156906
H189	H	-1.371620	0.418530	-1.262348
C190	C	-1.189341	0.347756	-1.185269
C191	C	-1.233897	0.445119	-1.161045
H192	H	-1.115577	0.351227	-1.175664
H193	H	-1.217747	0.295701	-1.139883
H194	H	-1.204470	0.330301	-1.256705
H195	H	-1.218779	0.462567	-1.089606
H196	H	-1.205485	0.497178	-1.206418
H197	H	-1.406364	0.372741	-0.920615
