data_functionalizedCrystal
_audit_creation_method	'MofGen! by Chris Wilmer'
_symmetry_space_group_name_H-M	'P1'
_symmetry_Int_Tables_number	1
_symmetry_cell_setting	triclinic
loop_
_symmetry_equiv_pos_as_xyz
  x,y,z
_cell_length_a	14.519709
_cell_length_b	19.288840
_cell_length_c	17.766277
_cell_angle_alpha	89.983415
_cell_angle_beta	90.000159
_cell_angle_gamma	96.596919
loop_
_atom_site_label
_atom_site_type_symbol
_atom_site_fract_x
_atom_site_fract_y
_atom_site_fract_z
O1	O	-0.114935	0.921778	-0.062710
O2	O	0.385065	1.421778	0.437290
O3	O	-0.130478	0.719571	-0.062682
O4	O	0.369522	1.219571	0.437318
O5	O	0.011566	0.826035	-0.062704
O6	O	0.511566	1.326035	0.437296
O7	O	-0.256980	0.815313	-0.062689
O8	O	0.243020	1.315313	0.437311
O9	O	0.011574	0.826017	0.062485
O10	O	0.511574	1.326017	0.562485
O11	O	-0.130471	0.719552	0.062506
O12	O	0.369529	1.219552	0.562506
O13	O	-0.114928	0.921759	0.062479
O14	O	0.385072	1.421759	0.562479
Cu15	Cu	-0.122699	0.820654	0.073923
Cu16	Cu	0.377301	1.320654	0.573923
Cu17	Cu	-0.122707	0.820676	-0.074127
Cu18	Cu	0.377293	1.320676	0.425873
O19	O	-0.256973	0.815294	0.062500
O20	O	0.243027	1.315294	0.562500
C21	C	-0.129979	0.693683	-0.000085
C22	C	0.370021	1.193683	0.499915
C23	C	-0.128489	0.616573	-0.000075
C24	C	0.371511	1.116573	0.499925
C25	C	-0.127777	0.580377	-0.068317
C26	C	0.372223	1.080377	0.431683
C27	C	-0.126367	0.507925	-0.068326
C28	C	0.373633	1.007925	0.431674
C29	C	-0.125650	0.471673	-0.000090
C30	C	0.374350	0.971673	0.499910
C31	C	-0.126367	0.507878	0.068162
C32	C	0.373633	1.007878	0.568162
C33	C	-0.127787	0.580327	0.068169
C34	C	0.372213	1.080327	0.568169
C35	C	-0.069381	0.362135	0.052176
C36	C	0.430619	0.862135	0.552176
C37	C	-0.067956	0.289688	0.052166
C38	C	0.432044	0.789688	0.552166
C39	C	-0.121276	0.248214	-0.000109
C40	C	0.378724	0.748214	0.499891
C41	C	-0.176010	0.279198	-0.052387
C42	C	0.323990	0.779198	0.447613
C43	C	-0.177429	0.351648	-0.052380
C44	C	0.322571	0.851648	0.447620
C45	C	-0.124112	0.393114	-0.000090
C46	C	0.375888	0.893114	0.499910
C47	C	-0.119037	0.133457	-0.068366
C48	C	0.380963	0.633457	0.431634
C49	C	-0.117633	0.061003	-0.068373
C50	C	0.382367	0.561003	0.431627
C51	C	-0.117624	0.060958	0.068117
C52	C	0.382376	0.560958	0.568117
C53	C	-0.119037	0.133410	0.068122
C54	C	0.380963	0.633410	0.568122
C55	C	-0.119740	0.169655	-0.000122
C56	C	0.380260	0.669655	0.499878
C57	C	-0.291333	0.815803	-0.000093
C58	C	0.208667	1.315803	0.499907
C59	C	-0.393704	0.817301	-0.000088
C60	C	0.106296	1.317301	0.499912
C61	C	-0.768565	0.822813	-0.000118
C62	C	-0.268565	1.322813	0.499882
C63	C	-0.664266	0.821283	-0.000110
C64	C	-0.164266	1.321283	0.499890
C65	C	-0.581138	0.820057	-0.000102
C66	C	-0.081138	1.320057	0.499898
C67	C	-0.476833	0.818526	-0.000095
C68	C	0.023167	1.318526	0.499905
C69	C	0.045927	0.825526	-0.000113
C70	C	0.545927	1.325526	0.499887
C71	C	0.148298	0.824029	-0.000123
C72	C	0.648298	1.324029	0.499877
C73	C	-0.115428	0.947647	-0.000121
C74	C	0.384572	1.447647	0.499879
C75	C	-0.116917	1.024757	-0.000135
C76	C	0.383083	1.524757	0.499865
N77	N	-0.122692	0.820643	0.178053
N78	N	0.377308	1.320643	0.678053
N79	N	-0.122707	0.820692	-0.178257
N80	N	0.377293	1.320692	0.321743
C81	C	-0.059826	0.867801	0.217431
C82	C	0.440174	1.367801	0.717431
C83	C	-0.059821	0.867805	0.296233
C84	C	0.440179	1.367805	0.796233
C85	C	-0.122700	0.820658	0.335654
C86	C	0.377300	1.320658	0.835654
C87	C	-0.185571	0.773491	0.296267
C88	C	0.314429	1.273491	0.796267
C89	C	-0.185568	0.773484	0.217467
C90	C	0.314432	1.273484	0.717467
C91	C	-0.206729	0.811661	0.460497
C92	C	0.293271	1.311661	0.960497
C93	C	-0.206734	0.811673	0.539296
C94	C	0.293266	1.311673	1.039296
C95	C	-0.122711	0.820676	0.578700
C96	C	0.377289	1.320676	1.078700
C97	C	-0.038679	0.829682	0.539296
C98	C	0.461321	1.329682	1.039296
C99	C	-0.038676	0.829675	0.460496
C100	C	0.461324	1.329675	0.960496
C101	C	-0.122710	0.820660	0.421100
C102	C	0.377290	1.320660	0.921100
C103	C	-0.059834	0.867841	0.703524
C104	C	0.440166	1.367841	1.203524
C105	C	-0.059829	0.867840	0.782327
C106	C	0.440171	1.367840	1.282327
C107	C	-0.185587	0.773530	0.782360
C108	C	0.314413	1.273530	1.282360
C109	C	-0.185584	0.773527	0.703558
C110	C	0.314416	1.273527	1.203558
C111	C	-0.122709	0.820687	0.664145
C112	C	0.377291	1.320687	1.164145
H113	H	-0.221997	0.376872	-0.094944
H114	H	0.278003	0.876872	0.405056
C115	C	0.009349	0.919709	0.825642
C116	C	0.509349	1.419709	1.325642
N117	N	0.061459	0.958774	0.858268
N118	N	0.561459	1.458774	1.358268
C119	C	-0.128548	0.620243	-0.143388
C120	C	0.371452	1.120243	0.356612
N121	N	-0.129127	0.650271	-0.199931
N122	N	0.370873	1.150271	0.300069
H123	H	-0.236762	0.735081	0.185405
H124	H	0.263238	1.235081	0.685405
H125	H	-0.025959	0.395898	0.094748
H126	H	0.474041	0.895898	0.594748
H127	H	-0.236780	0.735129	0.671495
H128	H	0.263220	1.235129	1.171495
C129	C	-0.299169	0.801761	0.582634
C130	C	0.200831	1.301761	1.082634
N131	N	-0.368794	0.794290	0.615274
N132	N	0.131206	1.294290	1.115274
H133	H	-0.125786	0.478357	0.123720
H134	H	0.374214	0.978357	0.623720
C135	C	-0.128562	0.620145	0.143244
C136	C	0.371438	1.120145	0.643244
N137	N	-0.129142	0.650136	0.199792
N138	N	0.370858	1.150136	0.699792
H139	H	-0.119611	0.162882	0.123692
H140	H	0.380389	0.662882	0.623692
H141	H	-0.236780	0.735139	0.814456
H142	H	0.263220	1.235139	1.314456
C143	C	-0.299167	0.801757	0.417161
C144	C	0.200833	1.301757	0.917161
N145	N	-0.368789	0.794297	0.384521
N146	N	0.131211	1.294297	0.884521
H147	H	-0.125789	0.478448	-0.123899
H148	H	0.374211	0.978448	0.376101
H149	H	-0.219432	0.245431	-0.094952
H150	H	0.280568	0.745431	0.405048
H151	H	-0.117059	0.031533	-0.123946
H152	H	0.382941	0.531533	0.376054
C153	C	0.009338	0.919711	0.660166
C154	C	0.509338	1.419711	1.160166
N155	N	0.061440	0.958778	0.627512
N156	N	0.561440	1.458778	1.127512
C157	C	-0.254734	0.721626	0.339632
C158	C	0.245266	1.221626	0.839632
N159	N	-0.306826	0.682557	0.372294
N160	N	0.193174	1.182557	0.872294
C161	C	-0.119826	0.173328	-0.143435
C162	C	0.380174	0.673328	0.356565
N163	N	-0.120424	0.203357	-0.199978
N164	N	0.379576	0.703357	0.300022
H165	H	-0.008626	0.906208	0.328300
H166	H	0.491374	1.406208	0.828300
H167	H	-0.117046	0.031443	0.123677
H168	H	0.382954	0.531443	0.623677
C169	C	0.009348	0.919671	0.174081
C170	C	0.509348	1.419671	0.674081
N171	N	0.061453	0.958738	0.141428
N172	N	0.561453	1.458738	0.641428
C173	C	-0.007758	0.255611	0.109677
C174	C	0.492242	0.755611	0.609677
N175	N	0.037581	0.229946	0.153000
N176	N	0.537581	0.729946	0.653000
C177	C	0.053757	0.839571	0.417154
C178	C	0.553757	1.339571	0.917154
N179	N	0.123379	0.847021	0.384509
N180	N	0.623379	1.347021	0.884509
H181	H	0.029740	0.837013	0.571377
H182	H	0.529740	1.337013	1.071377
