data_functionalizedCrystal
_audit_creation_method	'MofGen! by Chris Wilmer'
_symmetry_space_group_name_H-M	'P1'
_symmetry_Int_Tables_number	1
_symmetry_cell_setting	triclinic
loop_
_symmetry_equiv_pos_as_xyz
  x,y,z
_cell_length_a	13.635800
_cell_length_b	23.753515
_cell_length_c	9.582880
_cell_angle_alpha	85.531912
_cell_angle_beta	111.207034
_cell_angle_gamma	79.923165
loop_
_atom_site_label
_atom_site_type_symbol
_atom_site_fract_x
_atom_site_fract_y
_atom_site_fract_z
V1	V	2.050037	-0.078919	0.467444
O2	O	2.051617	0.004041	0.457676
O3	O	2.017349	-0.156722	0.465084
O4	O	2.045563	-0.077596	0.670931
O5	O	2.023208	-0.075633	0.250404
V6	V	2.290395	-0.069009	0.441383
O7	O	2.183745	-0.100658	0.524612
O8	O	2.381785	-0.047270	0.384215
O9	O	2.211479	0.008794	0.443743
O10	O	2.347513	-0.151969	0.451151
O11	O	2.375922	-0.072295	0.658423
O12	O	2.183266	-0.070332	0.237896
V13	V	2.550037	-0.078919	0.467444
O14	O	2.551617	0.004041	0.457676
O15	O	2.517349	-0.156722	0.465084
O16	O	2.545563	-0.077596	0.670931
O17	O	2.523208	-0.075633	0.250404
V18	V	2.790395	-0.069009	0.441383
O19	O	2.683745	-0.100658	0.524612
O20	O	2.881785	-0.047270	0.384215
O21	O	2.711479	0.008794	0.443743
O22	O	2.847513	-0.151969	0.451151
O23	O	2.875922	-0.072295	0.658423
O24	O	2.683266	-0.070332	0.237896
C25	C	1.937147	-0.175692	0.457926
C26	C	1.951195	-0.239297	0.457352
C27	C	1.979383	-0.506114	0.317791
C28	C	1.966192	-0.446351	0.318316
O29	O	1.931723	-0.408550	0.201963
N30	N	1.992069	-0.424563	0.455716
C31	C	2.031130	-0.462542	0.592598
O32	O	2.051928	-0.438522	0.709515
C33	C	2.044314	-0.522304	0.592070
C34	C	2.018444	-0.544089	0.454662
C35	C	1.953516	-0.527899	0.180394
C36	C	1.966708	-0.587659	0.179869
C37	C	2.005769	-0.625633	0.316741
C38	C	2.031637	-0.603848	0.454137
C39	C	2.083367	-0.560282	0.728949
C40	C	2.096548	-0.620048	0.728410
C41	C	2.070678	-0.641832	0.591002
C42	C	2.083890	-0.701582	0.590484
N43	N	2.058013	-0.723370	0.453085
C44	C	2.018953	-0.685395	0.316213
C45	C	2.003439	-0.337037	0.593695
C46	C	1.990263	-0.277277	0.594225
C47	C	1.925324	-0.261089	0.319943
C48	C	1.938508	-0.320851	0.319415
C49	C	1.977562	-0.358825	0.456296
C50	C	2.046662	-0.810895	0.315121
C51	C	2.059863	-0.870661	0.314609
C52	C	2.124795	-0.886843	0.588889
C53	C	2.111601	-0.827082	0.589403
C54	C	2.072528	-0.789109	0.452507
O55	O	2.118349	-0.739417	0.706777
O56	O	1.998148	-0.709423	0.199314
C57	C	1.973135	-0.074758	0.720502
C58	C	2.010062	-0.074192	0.886859
C59	C	2.123352	0.027761	0.450897
C60	C	2.098923	0.091365	0.451480
C61	C	2.087364	-0.073171	0.188317
C62	C	2.040056	-0.073735	0.021958
C63	C	2.437147	-0.175692	0.457926
C64	C	2.451195	-0.239297	0.457352
C65	C	2.473135	-0.074758	0.720502
C66	C	2.510062	-0.074192	0.886859
C67	C	2.623352	0.027761	0.450897
C68	C	2.598923	0.091365	0.451480
C69	C	2.587364	-0.073171	0.188317
C70	C	2.540056	-0.073735	0.021958
C71	C	2.549274	-0.272079	0.464591
C72	C	2.562494	-0.331844	0.464076
C73	C	2.477631	-0.358824	0.456310
C74	C	2.379546	-0.326038	0.449075
C75	C	2.366330	-0.266275	0.449602
C76	C	2.673339	0.124147	0.444245
C77	C	2.650391	0.183912	0.444769
C78	C	2.553031	0.210892	0.452537
C79	C	2.478609	0.178105	0.459768
C80	C	2.501554	0.118343	0.459234
H81	H	2.038796	-0.888393	0.202710
Br82	Br	1.931595	-0.617213	-0.006623
Br83	Br	2.346478	0.214731	0.470299
Br84	Br	2.495586	-0.439933	0.455597
Br85	Br	2.025399	-0.247721	0.780716
H86	H	2.014843	-0.779983	0.203646
Br87	Br	2.664466	-0.235478	0.475143
Br88	Br	2.695615	-0.376328	0.473891
H89	H	2.035249	-0.367953	0.705168
H90	H	1.921705	-0.496985	0.068930
Br91	Br	2.264383	-0.362662	0.438531
H92	H	2.104428	-0.542556	0.840841
Br93	Br	2.149563	-0.671581	0.914188
H94	H	2.711002	0.210598	0.438882
H95	H	1.917439	-0.338583	0.207526
H96	H	1.893513	-0.230159	0.208495
H97	H	2.132698	-0.809346	0.701294
Br98	Br	2.177810	-0.938390	0.774635
Br99	Br	2.400546	0.073859	0.469055
Br100	Br	2.805480	0.087545	0.433704
H101	H	2.286460	-0.239587	0.443699
Br102	Br	2.521907	0.292000	0.453257
