data_functionalizedCrystal
_audit_creation_method	'MofGen! by Chris Wilmer'
_symmetry_space_group_name_H-M	'P1'
_symmetry_Int_Tables_number	1
_symmetry_cell_setting	triclinic
loop_
_symmetry_equiv_pos_as_xyz
  x,y,z
_cell_length_a	25.639239
_cell_length_b	25.639242
_cell_length_c	25.639233
_cell_angle_alpha	89.977834
_cell_angle_beta	90.018747
_cell_angle_gamma	89.965787
loop_
_atom_site_label
_atom_site_type_symbol
_atom_site_fract_x
_atom_site_fract_y
_atom_site_fract_z
Zn1	Zn	-0.208277	-0.799225	0.295742
Zn2	Zn	-0.295696	-0.799149	0.208307
Zn3	Zn	-0.208269	-0.711801	0.208306
Zn4	Zn	-0.295676	-0.711746	0.295696
O5	O	-0.251979	-0.755480	0.252013
O6	O	-0.219884	-0.872380	0.284163
O7	O	-0.284103	-0.787553	0.135141
O8	O	-0.135105	-0.723453	0.219924
O9	O	-0.284111	-0.872324	0.219924
O10	O	-0.135111	-0.787683	0.284163
O11	O	-0.219871	-0.723379	0.135141
O12	O	-0.219853	-0.638629	0.219880
O13	O	-0.284078	-0.723360	0.368868
O14	O	-0.284070	-0.638589	0.284085
O15	O	-0.219866	-0.787630	0.368901
O16	O	-0.368858	-0.787499	0.219880
O17	O	-0.368844	-0.723286	0.284085
C18	C	-0.251959	-0.619638	0.251977
C19	C	-0.251963	-0.561524	0.251975
C20	C	-0.387822	-0.755392	0.251989
C21	C	-0.445936	-0.755403	0.251996
C22	C	-0.251970	-0.755497	0.388386
C23	C	-0.251966	-0.755504	0.446500
C24	C	-0.806294	-0.789004	0.218638
C25	C	-0.860898	-0.789024	0.218645
O26	O	-0.889131	-0.817502	0.190257
N27	N	-0.888218	-0.755572	0.252048
C28	C	-0.860932	-0.722102	0.285449
O29	O	-0.889184	-0.693651	0.313861
C30	C	-0.806328	-0.722085	0.285444
C31	C	-0.779011	-0.755535	0.252036
C32	C	-0.778976	-0.822452	0.185233
C33	C	-0.724376	-0.822431	0.185226
C34	C	-0.697093	-0.788962	0.218623
C35	C	-0.724410	-0.755514	0.252028
C36	C	-0.779042	-0.688617	0.318847
C37	C	-0.724435	-0.688603	0.318840
C38	C	-0.697118	-0.722053	0.285432
C39	C	-0.642527	-0.722024	0.285418
N40	N	-0.615206	-0.755475	0.252016
C41	C	-0.642490	-0.788944	0.218618
C42	C	-0.975602	-0.722141	0.285457
C43	C	-1.030204	-0.722155	0.285459
C44	C	-1.030167	-0.789078	0.218656
C45	C	-0.975564	-0.789061	0.218652
C46	C	-0.948282	-0.755593	0.252055
C47	C	-0.527824	-0.788897	0.218605
C48	C	-0.473219	-0.788872	0.218599
C49	C	-0.473261	-0.721951	0.285403
C50	C	-0.527862	-0.721974	0.285408
C51	C	-0.555142	-0.755452	0.252007
O52	O	-0.614260	-0.693562	0.313793
O53	O	-0.614231	-0.817396	0.190216
C54	C	-0.115606	-0.755583	0.252048
C55	C	-0.057492	-0.755627	0.252064
C56	C	-0.252000	-0.891853	0.252049
C57	C	-0.252009	-0.949967	0.252064
C58	C	-0.285473	-0.201149	0.285413
C59	C	-0.285477	-0.146544	0.285421
O60	O	-0.313943	-0.118297	0.313821
N61	N	-0.251994	-0.119241	0.252047
C62	C	-0.218502	-0.146545	0.218666
O63	O	-0.190022	-0.118308	0.190280
C64	C	-0.218496	-0.201149	0.218661
C65	C	-0.251985	-0.228449	0.252034
C66	C	-0.318959	-0.228449	0.318783
C67	C	-0.318956	-0.283049	0.318774
C68	C	-0.285468	-0.310350	0.285395
C69	C	-0.251983	-0.283049	0.252024
C70	C	-0.185002	-0.228452	0.185283
C71	C	-0.185000	-0.283059	0.185281
C72	C	-0.218488	-0.310359	0.218654
C73	C	-0.218492	-0.364950	0.218636
N74	N	-0.251974	-0.392253	0.252010
C75	C	-0.285463	-0.364953	0.285389
C76	C	-0.218515	-0.031875	0.218680
C77	C	-0.218523	0.022728	0.218683
C78	C	-0.285497	0.022725	0.285438
C79	C	-0.285492	-0.031878	0.285433
C80	C	-0.251998	-0.059178	0.252054
C81	C	-0.285455	-0.479618	0.285368
C82	C	-0.285451	-0.534223	0.285354
C83	C	-0.218475	-0.534216	0.218601
C84	C	-0.218481	-0.479615	0.218612
C85	C	-0.251972	-0.452318	0.252000
O86	O	-0.190038	-0.393232	0.190252
O87	O	-0.313933	-0.393197	0.313776
C88	C	-0.251951	-0.755494	0.116170
C89	C	-0.251807	-0.755588	0.058057
C90	C	-0.218432	-0.789012	0.806886
C91	C	-0.218417	-0.789019	0.861491
O92	O	-0.189967	-0.817466	0.889747
N93	N	-0.251844	-0.755562	0.888783
C94	C	-0.285283	-0.722093	0.861468
O95	O	-0.313713	-0.693636	0.889695
C96	C	-0.285294	-0.722084	0.806864
C97	C	-0.251870	-0.755547	0.779575
C98	C	-0.185009	-0.822472	0.779597
C99	C	-0.185025	-0.822466	0.724997
C100	C	-0.218462	-0.789000	0.697685
C101	C	-0.251885	-0.755541	0.724974
C102	C	-0.318731	-0.688613	0.779550
C103	C	-0.318739	-0.688607	0.724943
C104	C	-0.285314	-0.722069	0.697654
C105	C	-0.285338	-0.722070	0.643063
N106	N	-0.251912	-0.755526	0.615771
C107	C	-0.218474	-0.788992	0.643082
C108	C	-0.285256	-0.722113	0.976138
C109	C	-0.285247	-0.722124	1.030741
C110	C	-0.218381	-0.789049	1.030760
C111	C	-0.218392	-0.789041	0.976157
C112	C	-0.251829	-0.755570	0.948846
C113	C	-0.218509	-0.788977	0.528417
C114	C	-0.218529	-0.788970	0.473811
C115	C	-0.285393	-0.722043	0.473797
C116	C	-0.285375	-0.722052	0.528397
C117	C	-0.251929	-0.755521	0.555706
O118	O	-0.313773	-0.693635	0.614771
O119	O	-0.190044	-0.817439	0.614847
H120	H	-0.450979	-0.816111	0.191392
H121	H	-0.345949	-0.661364	0.801759
H122	H	-0.191241	-0.054099	0.191496
O123	O	-0.152470	-0.854911	0.698522
C124	C	-0.063532	-0.880362	0.681891
C125	C	-0.100348	-0.843578	0.711887
H126	H	-0.021384	-0.871220	0.692694
H127	H	-0.069224	-0.874618	0.638163
H128	H	-0.072740	-0.922512	0.692636
H129	H	-0.091162	-0.801414	0.701186
H130	H	-0.094648	-0.849367	0.755608
O131	O	-0.949006	-0.821482	0.186146
C132	C	-0.887361	-0.828552	0.115577
C133	C	-0.917410	-0.791774	0.152349
H134	H	-0.861799	-0.804549	0.088249
H135	H	-0.916222	-0.852464	0.091670
H136	H	-0.861787	-0.855879	0.139618
H137	H	-0.942985	-0.764415	0.128348
H138	H	-0.888521	-0.767898	0.176257
H139	H	-0.191153	-0.816298	1.053007
H140	H	-0.157777	-0.849723	0.801828
H141	H	-0.312723	-0.556449	0.312530
O142	O	-0.318037	-0.453187	0.317817
C143	C	-0.384443	-0.458967	0.384050
C144	C	-0.347578	-0.488964	0.347321
H145	H	-0.408329	-0.487880	0.407921
H146	H	-0.411786	-0.433389	0.360029
H147	H	-0.360474	-0.433418	0.411417
H148	H	-0.371505	-0.514542	0.319947
H149	H	-0.320234	-0.514509	0.371375
H150	H	-0.191174	-0.816288	0.953941
H151	H	-0.346225	-0.305272	0.345950
O152	O	-0.185979	0.049306	0.186328
C153	C	-0.115370	0.110904	0.179411
C154	C	-0.152200	0.080846	0.216112
H155	H	-0.088043	0.136403	0.203477
H156	H	-0.139317	0.136526	0.152045
H157	H	-0.091462	0.082002	0.155536
H158	H	-0.176117	0.109710	0.240021
H159	H	-0.128223	0.055216	0.243443
H160	H	-1.052391	-0.816333	0.191464
O161	O	-1.056657	-0.689641	0.317957
C162	C	-1.050915	-0.623239	0.384193
C163	C	-1.020896	-0.660042	0.347421
H164	H	-1.022016	-0.599291	0.408016
H165	H	-1.076428	-0.647207	0.411599
H166	H	-1.076531	-0.595947	0.360156
H167	H	-0.995252	-0.687341	0.371415
H168	H	-0.995416	-0.636042	0.320014
H169	H	-0.191310	-0.816221	0.451595
O170	O	-0.152494	-0.202009	0.152786
C171	C	-0.126999	-0.185295	0.063888
C172	C	-0.163843	-0.215274	0.100640
H173	H	-0.136169	-0.196000	0.021720
H174	H	-0.084848	-0.196080	0.073106
H175	H	-0.132729	-0.141577	0.069634
H176	H	-0.158160	-0.258999	0.094915
H177	H	-0.205980	-0.204446	0.091413
O178	O	-0.318100	0.049227	0.317811
C179	C	-0.407070	0.065957	0.343059
C180	C	-0.370210	0.035919	0.306359
H181	H	-0.449208	0.055200	0.333820
H182	H	-0.401362	0.109678	0.337326
H183	H	-0.397921	0.055203	0.385230
H184	H	-0.379336	0.046629	0.264174
H185	H	-0.375925	-0.007795	0.312137
O186	O	-0.949079	-0.689697	0.317957
C187	C	-0.887390	-0.682581	0.388517
C188	C	-0.917400	-0.719382	0.351752
H189	H	-0.861762	-0.706567	0.415843
H190	H	-0.916276	-0.658687	0.412427
H191	H	-0.861885	-0.655239	0.364470
H192	H	-0.942905	-0.746756	0.375759
H193	H	-0.888486	-0.743240	0.327841
H194	H	-0.312619	-0.694798	0.451550
H195	H	-0.191272	-0.816229	0.550645
H196	H	-0.345963	-0.661345	0.702710
H197	H	-0.312487	-0.694857	0.953905
H198	H	-0.157721	-0.305283	0.158103
H199	H	-0.801275	-0.661376	0.346049
H200	H	-0.312597	-0.694809	0.550617
H201	H	-0.550030	-0.816159	0.191408
H202	H	-0.312760	-0.054103	0.312609
H203	H	-0.702225	-0.661350	0.346042
H204	H	-0.191213	-0.457387	0.191436
H205	H	-0.312471	-0.694881	1.052955
O206	O	-0.554320	-0.689463	0.317907
C207	C	-0.548587	-0.623066	0.384148
C208	C	-0.518564	-0.659861	0.347372
H209	H	-0.519691	-0.599115	0.407972
H210	H	-0.574096	-0.647039	0.411552
H211	H	-0.574208	-0.595776	0.360114
H212	H	-0.492915	-0.687158	0.371364
H213	H	-0.493088	-0.635855	0.319966
O214	O	-0.185962	-0.560822	0.186228
C215	C	-0.156298	-0.644947	0.156623
C216	C	-0.193140	-0.614880	0.193316
H217	H	-0.162097	-0.688658	0.162334
H218	H	-0.114142	-0.634279	0.165887
H219	H	-0.165406	-0.634158	0.114452
H220	H	-0.184080	-0.625653	0.235499
H221	H	-0.235285	-0.625550	0.184007
H222	H	-0.346229	-0.206227	0.345967
O223	O	-0.697924	-0.854979	0.152762
C224	C	-0.703671	-0.921344	0.086490
C225	C	-0.733687	-0.884514	0.123236
H226	H	-0.732572	-0.945225	0.062601
H227	H	-0.678088	-0.948694	0.110497
H228	H	-0.678125	-0.897350	0.059140
H229	H	-0.759261	-0.908466	0.150593
H230	H	-0.759237	-0.857162	0.099196
H231	H	-0.451039	-0.694699	0.312594
H232	H	-0.801185	-0.849709	0.158037
