data_functionalizedCrystal
_audit_creation_method	'MofGen! by Chris Wilmer'
_symmetry_space_group_name_H-M	'P1'
_symmetry_Int_Tables_number	1
_symmetry_cell_setting	triclinic
loop_
_symmetry_equiv_pos_as_xyz
  x,y,z
_cell_length_a	15.995300
_cell_length_b	14.853567
_cell_length_c	13.930277
_cell_angle_alpha	90.004245
_cell_angle_beta	89.999991
_cell_angle_gamma	96.446631
loop_
_atom_site_label
_atom_site_type_symbol
_atom_site_fract_x
_atom_site_fract_y
_atom_site_fract_z
O1	O	0.109319	-1.196200	-0.079755
O2	O	0.122342	-0.933720	-0.079770
O3	O	-0.006051	-1.072159	-0.079767
O4	O	0.237713	-1.057761	-0.079758
O5	O	-0.006054	-1.072139	0.079895
O6	O	0.122339	-0.933701	0.079892
O7	O	0.109317	-1.196181	0.079907
Zn8	Zn	0.115828	-1.064938	0.105249
Zn9	Zn	0.115831	-1.064963	-0.105112
O10	O	0.237710	-1.057742	0.079904
C11	C	0.121751	-0.900123	0.000059
C12	C	0.119982	-0.800042	0.000053
C13	C	-0.037249	-1.071562	0.000061
C14	C	-0.130204	-1.069801	0.000051
C15	C	0.109908	-1.229778	0.000076
C16	C	0.111676	-1.329859	0.000076
C17	C	-0.300390	-1.066550	0.000060
C18	C	-0.347742	-1.165121	0.000064
C19	C	-0.444432	-1.163323	0.000430
C20	C	-0.467951	-1.063350	0.000068
C21	C	-0.426875	-1.014435	0.091060
C22	C	-0.330239	-1.016929	0.091133
C23	C	-0.329961	-1.015492	-0.090439
C24	C	-0.426906	-1.015501	-0.091631
C25	C	-0.562648	-1.061537	0.000076
C26	C	-0.205693	-1.068361	0.000059
C27	C	0.268908	-1.058339	0.000074
C28	C	0.361862	-1.060099	0.000078
N29	N	0.115825	-1.064927	0.248815
C30	C	0.036239	-0.387637	0.000071
C31	C	0.188774	-0.366121	0.000075
C32	C	0.190436	-0.460152	0.000072
C33	C	0.114999	-0.517930	0.000067
C34	C	0.037900	-0.481677	0.000065
C35	C	0.267534	-0.496412	0.000065
C36	C	0.269200	-0.590449	0.000061
C37	C	0.193762	-0.648229	0.000063
C38	C	0.116659	-0.611970	0.000061
C39	C	0.041222	-0.669749	0.000056
C40	C	-0.035881	-0.633492	0.000062
C41	C	-0.037538	-0.539457	0.000067
C42	C	0.195419	-0.742264	0.000058
C43	C	0.042883	-0.763789	0.000050
N44	N	0.115828	-1.064981	-0.248678
C45	C	0.172661	-1.003660	0.701083
C46	C	0.058994	-1.126291	0.701055
C47	C	0.058992	-1.126280	0.600560
C48	C	0.115826	-1.064959	0.550321
C49	C	0.172662	-1.003649	0.600578
C50	C	0.002162	-1.187595	0.550295
C51	C	0.002158	-1.187587	0.449793
C52	C	0.058988	-1.126262	0.399553
C53	C	0.115826	-1.064949	0.449816
C54	C	0.172660	-1.003628	0.399577
C55	C	0.229495	-0.942310	0.449839
C56	C	0.229493	-0.942323	0.550338
C57	C	0.058991	-1.126248	0.299054
C58	C	0.172661	-1.003617	0.299072
H59	H	-0.472850	-1.201759	-0.064781
Br60	Br	-0.074973	-1.270800	0.381587
H61	H	0.012726	-1.176221	0.741963
H62	H	-0.442335	-0.942617	-0.097403
Br63	Br	0.373838	-0.639646	0.000053
H64	H	-0.298050	-0.944547	0.095012
H65	H	0.258196	-0.771780	0.000055
H66	H	-0.329216	-1.204737	-0.065186
Br67	Br	0.249791	-0.920384	0.230899
H68	H	-0.328029	-1.204164	0.065173
H69	H	-0.298275	-0.942812	-0.091311
H70	H	0.250191	-0.319073	0.000072
Br71	Br	0.249786	-0.920440	0.769288
Br72	Br	-0.059502	-0.842196	0.000055
Br73	Br	-0.018129	-1.209467	0.230848
Br74	Br	0.306632	-0.859100	0.381647
H75	H	0.275766	-0.892401	0.591267
Br76	Br	-0.138256	-0.711916	0.000044
Br77	Br	-0.474071	-1.070343	0.204361
H78	H	-0.044107	-1.237525	0.591203
H79	H	-0.472235	-1.201577	0.066042
H80	H	-0.441060	-0.940977	0.094184
Br81	Br	-0.299631	-1.075654	0.204939
H82	H	-0.309421	-1.047951	-0.159428
Br83	Br	-0.142169	-0.490246	0.000071
Br84	Br	-0.472404	-1.075033	-0.203835
H85	H	-0.026537	-0.358113	0.000079
Br86	Br	0.369907	-0.417997	0.000051
