data_functionalizedCrystal
_audit_creation_method	'MofGen! by Chris Wilmer'
_symmetry_space_group_name_H-M	'P1'
_symmetry_Int_Tables_number	1
_symmetry_cell_setting	triclinic
loop_
_symmetry_equiv_pos_as_xyz
  x,y,z
_cell_length_a	14.519709
_cell_length_b	23.532416
_cell_length_c	13.596369
_cell_angle_alpha	90.002050
_cell_angle_beta	89.999684
_cell_angle_gamma	83.266196
loop_
_atom_site_label
_atom_site_type_symbol
_atom_site_fract_x
_atom_site_fract_y
_atom_site_fract_z
O1	O	-1.222991	-0.074649	0.081658
O2	O	-0.889657	0.258684	0.414991
O3	O	-0.556324	0.592018	0.748324
O4	O	-0.954410	-0.083440	0.081687
O5	O	-0.621077	0.249893	0.415021
O6	O	-0.287744	0.583226	0.748354
O7	O	-1.096795	0.003850	0.081671
O8	O	-0.763462	0.337184	0.415005
O9	O	-0.430129	0.670517	0.748338
O10	O	-1.080606	-0.161939	0.081674
O11	O	-0.747272	0.171394	0.415007
O12	O	-0.413939	0.504727	0.748340
O13	O	-1.096778	0.003845	-0.081912
O14	O	-0.763444	0.337179	0.251422
O15	O	-0.430111	0.670512	0.584755
O16	O	-0.954393	-0.083445	-0.081896
O17	O	-0.621059	0.249888	0.251438
O18	O	-0.287726	0.583222	0.584771
O19	O	-1.222973	-0.074654	-0.081925
O20	O	-0.889640	0.258680	0.251408
O21	O	-0.556307	0.592013	0.584742
Zn22	Zn	-1.088680	-0.079050	-0.107883
Zn23	Zn	-0.755347	0.254283	0.225451
Zn24	Zn	-0.422014	0.587617	0.558784
Zn25	Zn	-1.088703	-0.079044	0.107645
Zn26	Zn	-0.755370	0.254290	0.440978
Zn27	Zn	-0.422037	0.587623	0.774312
O28	O	-1.080588	-0.161944	-0.081909
O29	O	-0.747255	0.171389	0.251424
O30	O	-0.413921	0.504722	0.584757
C31	C	-0.920046	-0.083033	-0.000100
C32	C	-0.586713	0.250300	0.333233
C33	C	-0.253380	0.583634	0.666566
C34	C	-0.817680	-0.081805	-0.000089
C35	C	-0.484346	0.251528	0.333244
C36	C	-0.151013	0.584862	0.666578
C37	C	-1.096373	0.025066	-0.000118
C38	C	-0.763040	0.358399	0.333215
C39	C	-0.429706	0.691732	0.666549
C40	C	-1.095130	0.088288	-0.000112
C41	C	-0.761796	0.421621	0.333221
C42	C	-0.428463	0.754955	0.666555
N43	N	-1.088671	-0.079054	-0.254975
N44	N	-0.755338	0.254279	0.078359
N45	N	-0.422005	0.587613	0.411692
C46	C	-1.257337	-0.075061	-0.000135
C47	C	-0.924004	0.258272	0.333198
C48	C	-0.590670	0.591606	0.666531
C49	C	-1.359704	-0.076289	-0.000140
C50	C	-1.026370	0.257045	0.333193
C51	C	-0.693037	0.590378	0.666526
C52	C	-0.442837	-0.077285	-0.000134
C53	C	-0.109504	0.256048	0.333200
C54	C	0.223830	0.589381	0.666533
C55	C	-0.547130	-0.078540	-0.000121
C56	C	-0.213797	0.254793	0.333212
C57	C	0.119536	0.588126	0.666546
C58	C	-0.630255	-0.079545	-0.000110
C59	C	-0.296922	0.253788	0.333223
C60	C	0.036412	0.587122	0.666556
C61	C	-0.734555	-0.080800	-0.000099
C62	C	-0.401222	0.252533	0.333234
C63	C	-0.067888	0.585866	0.666567
C64	C	-1.089851	0.361559	0.089057
C65	C	-0.756518	0.694892	0.422390
C66	C	-0.423185	1.028225	0.755724
C67	C	-1.091006	0.302153	0.089058
C68	C	-0.757673	0.635487	0.422391
C69	C	-0.424339	0.968820	0.755725
O70	O	-1.091644	0.271428	0.164891
O71	O	-0.758310	0.604762	0.498224
O72	O	-0.424977	0.938095	0.831557
N73	N	-1.091568	0.272446	-0.000112
N74	N	-0.758235	0.605780	0.333221
N75	N	-0.424901	0.939113	0.666555
C76	C	-1.090985	0.302148	-0.089289
C77	C	-0.757651	0.635481	0.244044
C78	C	-0.424318	0.968815	0.577378
O79	O	-1.091570	0.271425	-0.165135
O80	O	-0.758236	0.604758	0.168198
O81	O	-0.424903	0.938092	0.501532
C82	C	-1.089837	0.361553	-0.089289
C83	C	-0.756503	0.694886	0.244044
C84	C	-0.423170	1.028219	0.577378
C85	C	-1.089265	0.391256	-0.000113
C86	C	-0.755932	0.724589	0.333220
C87	C	-0.422599	1.057923	0.666553
C88	C	-1.089281	0.391262	0.178226
C89	C	-0.755948	0.724596	0.511559
C90	C	-0.422614	1.057929	0.844892
C91	C	-1.088125	0.450663	0.178224
C92	C	-0.754792	0.783997	0.511557
C93	C	-0.421458	1.117330	0.844891
C94	C	-1.087539	0.480361	0.089054
C95	C	-0.754206	0.813694	0.422387
C96	C	-0.420872	1.147027	0.755721
C97	C	-1.088109	0.450657	-0.000115
C98	C	-0.754776	0.783990	0.333219
C99	C	-0.421442	1.117324	0.666552
C100	C	-1.089260	0.391254	-0.178465
C101	C	-0.755927	0.724587	0.154868
C102	C	-0.422593	1.057921	0.488202
C103	C	-1.088113	0.450663	-0.178458
C104	C	-0.754779	0.783996	0.154876
C105	C	-0.421446	1.117329	0.488209
C106	C	-1.087541	0.480366	-0.089282
C107	C	-0.754208	0.813699	0.244052
C108	C	-0.420875	1.147033	0.577385
C109	C	-1.086367	0.539756	-0.089286
C110	C	-0.753034	0.873089	0.244047
C111	C	-0.419700	1.206422	0.577380
N112	N	-1.085805	0.569463	-0.000116
N113	N	-0.752472	0.902796	0.333217
N114	N	-0.419138	1.236129	0.666550
C115	C	-1.086391	0.539765	0.089054
C116	C	-0.753058	0.873099	0.422387
C117	C	-0.419724	1.206432	0.755720
C118	C	-1.093397	0.177394	-0.089282
C119	C	-0.760064	0.510728	0.244052
C120	C	-0.426731	0.844061	0.577385
C121	C	-1.094539	0.117990	-0.089283
C122	C	-0.761205	0.451324	0.244051
C123	C	-0.427872	0.784657	0.577384
C124	C	-1.094562	0.118000	0.089065
C125	C	-0.761228	0.451333	0.422398
C126	C	-0.427895	0.784667	0.755731
C127	C	-1.093414	0.177405	0.089065
C128	C	-0.760080	0.510738	0.422398
C129	C	-0.426747	0.844071	0.755731
C130	C	-1.092835	0.207102	-0.000112
C131	C	-0.759502	0.540435	0.333222
C132	C	-0.426169	0.873768	0.666555
C133	C	-1.083962	0.664512	0.089044
C134	C	-0.750628	0.997845	0.422377
C135	C	-0.417295	1.331178	0.755710
C136	C	-1.082801	0.723918	0.089034
C137	C	-0.749468	1.057251	0.422368
C138	C	-0.416135	1.390584	0.755701
C139	C	-1.082783	0.723903	-0.089313
C140	C	-0.749450	1.057236	0.244021
C141	C	-0.416117	1.390570	0.577354
C142	C	-1.083939	0.664502	-0.089304
C143	C	-0.750605	0.997835	0.244030
C144	C	-0.417272	1.331169	0.577363
C145	C	-1.084531	0.634808	-0.000118
C146	C	-0.751198	0.968141	0.333216
C147	C	-0.417864	1.301475	0.666549
O148	O	-1.085733	0.570519	-0.165080
O149	O	-0.752399	0.903852	0.168253
O150	O	-0.419066	1.237185	0.501586
O151	O	-1.085818	0.570497	0.164887
O152	O	-0.752485	0.903830	0.498220
O153	O	-0.419151	1.237163	0.831554
C154	C	-1.081001	0.816840	-0.000122
C155	C	-0.747667	1.150173	0.333211
C156	C	-0.414334	1.483506	0.666544
C157	C	-1.082215	0.753615	-0.000136
C158	C	-0.748882	1.086948	0.333197
C159	C	-0.415549	1.420282	0.666531
C160	C	-1.088676	-0.079055	-0.343972
C161	C	-0.755343	0.254278	-0.010639
C162	C	-0.422009	0.587611	0.322694
C163	C	-1.088685	-0.079051	-0.455624
C164	C	-0.755352	0.254282	-0.122290
C165	C	-0.422018	0.587615	0.211043
C166	C	-1.088697	-0.079045	-0.544614
C167	C	-0.755364	0.254288	-0.211281
C168	C	-0.422030	0.587622	0.122052
C169	C	-1.088707	-0.079042	-0.656273
C170	C	-0.755374	0.254292	-0.322939
C171	C	-0.422041	0.587625	0.010394
N172	N	-1.088720	-0.079035	0.254737
N173	N	-0.755386	0.254298	0.588070
N174	N	-0.422053	0.587631	0.921403
H175	H	-1.082333	0.748099	0.161655
H176	H	-0.748999	1.081433	0.494988
H177	H	-0.415666	1.414766	0.828322
N178	N	-1.084602	0.632490	0.185234
N179	N	-0.751269	0.965823	0.518568
N180	N	-0.417935	1.299156	0.851901
H181	H	-1.084064	0.660328	0.241715
H182	H	-0.750730	0.993661	0.575048
H183	H	-0.417397	1.326995	0.908381
H184	H	-1.027905	0.603290	0.189130
H185	H	-0.694571	0.936623	0.522464
H186	H	-0.361238	1.269957	0.855797
N187	N	-1.084545	0.632454	-0.185477
N188	N	-0.751211	0.965788	0.147856
N189	N	-0.417878	1.299121	0.481189
H190	H	-1.027164	0.638234	-0.224457
H191	H	-0.693830	0.971567	0.108877
H192	H	-0.360497	1.304901	0.442210
H193	H	-1.141550	0.647362	-0.224392
H194	H	-0.808217	0.980695	0.108942
H195	H	-0.474883	1.314028	0.442275
N196	N	-1.089916	0.359237	0.274410
N197	N	-0.756583	0.692571	0.607743
N198	N	-0.423250	1.025904	0.941077
H199	H	-1.089381	0.387077	0.330888
H200	H	-0.756048	0.720410	0.664222
H201	H	-0.422715	1.053744	0.997555
H202	H	-1.033215	0.330041	0.278307
H203	H	-0.699882	0.663374	0.611640
H204	H	-0.366548	0.996708	0.944973
H205	H	-1.087666	0.474843	0.250840
H206	H	-0.754333	0.808176	0.584174
H207	H	-0.420999	1.141510	0.917507
H208	H	-1.092947	0.201585	0.161680
H209	H	-0.759613	0.534918	0.495013
H210	H	-0.426280	0.868252	0.828346
H211	H	-1.095036	0.093809	0.161672
H212	H	-0.761702	0.427143	0.495005
H213	H	-0.428369	0.760476	0.828339
H214	H	-1.094986	0.093809	-0.161899
H215	H	-0.761653	0.427143	0.171435
H216	H	-0.428320	0.760476	0.504768
H217	H	-1.092918	0.201569	-0.161904
H218	H	-0.759585	0.534903	0.171429
H219	H	-0.426252	0.868236	0.504762
N220	N	-1.082166	0.755941	-0.185486
N221	N	-0.748833	1.089274	0.147848
N222	N	-0.415500	1.422607	0.481181
H223	H	-1.081358	0.798080	-0.171947
H224	H	-0.748025	1.131413	0.161387
H225	H	-0.414691	1.464747	0.494720
H226	H	-1.139549	0.750107	-0.224415
H227	H	-0.806216	1.083440	0.108919
H228	H	-0.472883	1.416773	0.442252
N229	N	-1.089884	0.359227	-0.274649
N230	N	-0.756550	0.692560	0.058685
N231	N	-0.423217	1.025894	0.392018
H232	H	-1.089346	0.387063	-0.331128
H233	H	-0.756013	0.720397	0.002205
H234	H	-0.422680	1.053730	0.335538
H235	H	-1.147542	0.339136	-0.278535
H236	H	-0.814208	0.672469	0.054798
H237	H	-0.480875	1.005802	0.388131
N238	N	-1.087494	0.482693	-0.274643
N239	N	-0.754161	0.816027	0.058691
N240	N	-0.420827	1.149360	0.392024
H241	H	-1.088031	0.454858	-0.331128
H242	H	-0.754698	0.788192	0.002205
H243	H	-0.421364	1.121525	0.335538
H244	H	-1.029839	0.502787	-0.278529
H245	H	-0.696506	0.836121	0.054804
H246	H	-0.363172	1.169454	0.388138
