data_functionalizedCrystal
_audit_creation_method	'MofGen! by Chris Wilmer'
_symmetry_space_group_name_H-M	'P1'
_symmetry_Int_Tables_number	1
_symmetry_cell_setting	triclinic
loop_
_symmetry_equiv_pos_as_xyz
  x,y,z
_cell_length_a	6.817900
_cell_length_b	11.102183
_cell_length_c	16.015572
_cell_angle_alpha	76.743797
_cell_angle_beta	104.485554
_cell_angle_gamma	108.603876
loop_
_atom_site_label
_atom_site_type_symbol
_atom_site_fract_x
_atom_site_fract_y
_atom_site_fract_z
V1	V	-3.999217	-0.051261	-0.269393
O2	O	-3.960399	0.130656	-0.264266
O3	O	-3.976752	-0.224934	-0.267549
O4	O	-3.927020	0.005776	-0.386885
O5	O	-4.010476	-0.101651	-0.144104
V6	V	-4.482568	-0.036148	-0.254407
O7	O	-4.260853	-0.084413	-0.302264
O8	O	-4.671130	-0.002996	-0.221536
O9	O	-4.281827	0.137524	-0.256251
O10	O	-4.638784	-0.218066	-0.259534
O11	O	-4.588707	0.014242	-0.379696
O12	O	-4.331560	-0.093186	-0.136915
C13	C	-3.828833	-0.269029	-0.263298
C14	C	-3.891593	-0.410646	-0.262574
C15	C	-3.837209	-0.447552	-0.104320
C16	C	-3.839497	-0.532534	-0.024855
C17	C	-3.898472	-0.665595	-0.024179
C18	C	-3.955169	-0.713674	-0.102976
C19	C	-3.952881	-0.628691	-0.182441
C20	C	-3.893895	-0.495630	-0.183108
C21	C	-4.007279	-0.591787	-0.340693
C22	C	-3.948290	-0.458725	-0.341371
C23	C	-4.063976	-0.639866	-0.419490
C24	C	-4.061673	-0.554883	-0.498956
C25	C	-4.002691	-0.421815	-0.499629
C26	C	-3.946001	-0.373743	-0.420835
C27	C	-3.765392	0.025266	-0.415522
C28	C	-3.787818	0.070751	-0.511573
C29	C	-4.136742	-0.332976	-0.889202
C30	C	-4.157812	-0.290194	-0.979452
C31	C	-4.047771	-0.068856	-0.954747
C32	C	-4.026681	-0.111619	-0.864493
C33	C	-4.071172	-0.243680	-0.831728
C34	C	-3.961111	-0.022324	-0.807019
C35	C	-3.940034	-0.065084	-0.716773
C36	C	-3.984526	-0.197140	-0.684001
C37	C	-4.050095	-0.286441	-0.741482
C38	C	-3.916635	0.109736	-0.839786
C39	C	-3.851066	0.199031	-0.782312
C40	C	-3.829973	0.156272	-0.692064
C41	C	-3.874465	0.024216	-0.659292
C42	C	-3.764404	0.245573	-0.634583
C43	C	-3.743326	0.202812	-0.544337
C44	C	-3.853387	-0.018544	-0.569047
C45	C	-4.093090	0.181612	-0.260499
C46	C	-4.009567	0.323231	-0.261229
C47	C	-4.156531	-0.112681	-0.108273
C48	C	-4.113343	-0.158160	-0.012222
H49	H	-3.889589	-0.126081	-0.542367
C50	C	-4.128849	-0.786233	-0.418748
C51	C	-4.319897	-0.873834	-0.378955
C52	C	-4.384764	-1.020201	-0.378215
C53	C	-4.258584	-1.078968	-0.417267
C54	C	-4.067525	-0.991367	-0.457063
C55	C	-4.002657	-0.844999	-0.457803
H56	H	-4.413313	-0.830332	-0.350044
H57	H	-4.526200	-1.085049	-0.348756
H58	H	-4.306603	-1.187319	-0.416719
H59	H	-3.974108	-1.034869	-0.485974
H60	H	-3.861222	-0.780151	-0.487263
C61	C	-4.124019	-0.607778	-0.585621
C62	C	-3.964754	-0.570013	-0.646884
C63	C	-4.027089	-0.622916	-0.733549
C64	C	-4.248689	-0.713585	-0.758951
C65	C	-4.407968	-0.751354	-0.697686
C66	C	-4.345633	-0.698451	-0.611022
H67	H	-3.800699	-0.502890	-0.628082
H68	H	-3.909179	-0.594956	-0.778901
H69	H	-4.294834	-0.752747	-0.823105
H70	H	-4.572023	-0.818477	-0.716489
H71	H	-4.463543	-0.726411	-0.565670
H72	H	-3.814854	0.306556	-0.809002
H73	H	-4.000859	-0.352628	-0.564339
C74	C	-4.229937	-0.388428	-1.042675
C75	C	-4.278874	-0.533686	-1.006631
C76	C	-4.351003	-0.631917	-1.069854
C77	C	-4.374196	-0.584891	-1.169122
C78	C	-4.325258	-0.439626	-1.205171
C79	C	-4.253129	-0.341395	-1.141948
H80	H	-4.261706	-0.568504	-0.933142
H81	H	-4.387230	-0.739452	-1.043167
H82	H	-4.427591	-0.657607	-1.215923
H83	H	-4.342426	-0.404807	-1.278660
H84	H	-4.216902	-0.233860	-1.168635
H85	H	-3.967367	-0.231953	-0.610517
H86	H	-3.789126	-0.339207	-0.104861
C87	C	-3.777115	-0.479662	0.061825
C88	C	-3.589211	-0.508940	0.131288
C89	C	-3.526831	-0.456081	0.217971
C90	C	-3.652356	-0.373945	0.235191
C91	C	-3.840272	-0.344663	0.165727
C92	C	-3.902652	-0.397521	0.079044
H93	H	-3.496279	-0.569746	0.118542
H94	H	-3.387723	-0.477758	0.269393
H95	H	-3.606179	-0.334815	0.299359
H96	H	-3.933203	-0.283857	0.178473
H97	H	-4.041760	-0.375845	0.027621
H98	H	-4.011559	0.038668	-0.981437
H99	H	-4.086297	-0.393977	-0.714803
H100	H	-3.897942	-0.265399	-0.421375
H101	H	-4.172944	-0.440512	-0.862523
H102	H	-3.728205	0.353097	-0.661275
H103	H	-3.900340	-0.734789	0.040527
H104	H	-3.689934	0.275526	-0.497540
H105	H	-4.003212	-0.822021	-0.102419
H106	H	-3.933769	0.144548	-0.913270
