data_functionalizedCrystal
_audit_creation_method	'MofGen! by Chris Wilmer'
_symmetry_space_group_name_H-M	'P1'
_symmetry_Int_Tables_number	1
_symmetry_cell_setting	triclinic
loop_
_symmetry_equiv_pos_as_xyz
  x,y,z
_cell_length_a	16.109301
_cell_length_b	10.489741
_cell_length_c	14.586319
_cell_angle_alpha	89.996488
_cell_angle_beta	89.999213
_cell_angle_gamma	84.000327
loop_
_atom_site_label
_atom_site_type_symbol
_atom_site_fract_x
_atom_site_fract_y
_atom_site_fract_z
O1	O	1.104141	0.163947	-0.076182
O2	O	1.604141	0.663947	0.423818
O3	O	0.862205	0.184350	-0.076196
O4	O	1.362205	0.684350	0.423804
O5	O	0.988678	-0.011529	-0.076183
O6	O	1.488678	0.488471	0.423817
O7	O	0.977668	0.359826	-0.076195
O8	O	1.477668	0.859826	0.423805
O9	O	0.988670	-0.011532	0.076298
O10	O	1.488670	0.488468	0.576298
O11	O	0.862196	0.184347	0.076284
O12	O	1.362196	0.684347	0.576284
O13	O	1.104132	0.163944	0.076299
O14	O	1.604132	0.663944	0.576299
Cu15	Cu	0.983164	0.174145	0.090214
Cu16	Cu	1.483164	0.674145	0.590214
Cu17	Cu	0.983174	0.174149	-0.090112
Cu18	Cu	1.483174	0.674149	0.409888
O19	O	0.977659	0.359823	0.076286
O20	O	1.477659	0.859823	0.576286
C21	C	0.831221	0.183522	0.000042
C22	C	1.331221	0.683522	0.500042
C23	C	0.738910	0.181044	0.000037
C24	C	1.238910	0.681044	0.500037
C25	C	0.987842	-0.059050	0.000057
C26	C	1.487842	0.440950	0.500057
C27	C	0.985354	-0.200644	0.000055
C28	C	1.485354	0.299356	0.500055
C29	C	0.517319	0.291514	0.000044
C30	C	1.017319	0.791514	0.500044
C31	C	0.430584	0.289175	0.000050
C32	C	0.930584	0.789175	0.500050
C33	C	0.449026	0.056771	0.000053
C34	C	0.949026	0.556771	0.500053
C35	C	0.535759	0.059111	0.000054
C36	C	1.035759	0.559111	0.500054
C37	C	0.569903	0.176486	0.000045
C38	C	1.069903	0.676486	0.500045
C39	C	0.396435	0.171808	0.000050
C40	C	0.896435	0.671808	0.500050
C41	C	0.302393	0.169272	0.000056
C42	C	0.802393	0.669272	0.500056
C43	C	0.663950	0.179022	0.000040
C44	C	1.163950	0.679022	0.500040
C45	C	0.904883	-0.267616	0.000043
C46	C	1.404883	0.232384	0.500043
C47	C	0.942893	-0.360292	0.075226
C48	C	1.442893	0.139708	0.575226
C49	C	0.942920	-0.360264	-0.075108
C50	C	1.442920	0.139736	0.424892
C51	C	1.023397	-0.291454	0.075300
C52	C	1.523397	0.208546	0.575300
C53	C	1.023414	-0.291417	-0.075102
C54	C	1.523414	0.208583	0.424898
C55	C	1.061482	-0.384066	0.000100
C56	C	1.561482	0.115934	0.500100
C57	C	1.135117	0.164772	0.000058
C58	C	1.635117	0.664772	0.500058
C59	C	1.227427	0.167250	0.000058
C60	C	1.727427	0.667250	0.500058
C61	C	0.978495	0.407344	0.000044
C62	C	1.478495	0.907344	0.500044
C63	C	0.980983	0.548938	0.000040
C64	C	1.480983	1.048938	0.500040
N65	N	0.983162	0.174142	0.217046
N66	N	1.483162	0.674142	0.717046
N67	N	0.983182	0.174142	-0.216944
N68	N	1.483182	0.674142	0.283056
C69	C	1.039183	0.087436	0.452058
C70	C	1.539183	0.587436	0.952058
C71	C	1.039186	0.087433	0.548040
C72	C	1.539186	0.587433	1.048040
C73	C	0.927155	0.260852	0.548038
C74	C	1.427155	0.760852	1.048038
C75	C	0.927149	0.260848	0.452058
C76	C	1.427149	0.760848	0.952058
C77	C	0.983168	0.174141	0.404071
C78	C	1.483168	0.674141	0.904071
C79	C	0.983176	0.174142	0.596032
C80	C	1.483176	0.674142	1.096032
C81	C	0.983178	0.174140	0.700099
C82	C	1.483178	0.674140	1.200099
C83	C	0.983165	0.174142	0.299997
C84	C	1.483165	0.674142	0.799997
H85	H	0.545116	0.387088	0.000043
H86	H	1.045116	0.887088	0.500043
N87	N	0.897798	-0.400742	0.159416
N88	N	1.397798	0.099258	0.659416
H89	H	0.927605	-0.374487	0.216199
H90	H	1.427605	0.125513	0.716199
H91	H	0.838650	-0.357947	0.159281
H92	H	1.338650	0.142053	0.659281
H93	H	0.838720	-0.217005	0.000115
H94	H	1.338720	0.282995	0.500115
H95	H	1.127704	-0.434450	0.000146
H96	H	1.627704	0.065550	0.500146
N97	N	0.373867	0.413240	0.000100
N98	N	0.873867	0.913240	0.500100
H99	H	0.408661	0.487946	0.000111
H100	H	0.908661	0.987946	0.500111
H101	H	0.337456	0.417382	-0.056409
H102	H	0.837456	0.917382	0.443591
H103	H	1.084796	0.016832	0.412990
H104	H	1.584796	0.516832	0.912990
N105	N	1.099614	-0.006068	0.599799
N106	N	1.599614	0.493932	1.099799
H107	H	1.135102	-0.060986	0.554832
H108	H	1.635102	0.439014	1.054832
H109	H	1.136654	0.042804	0.639608
H110	H	1.636654	0.542804	1.139608
N111	N	0.866745	0.354385	0.599791
N112	N	1.366745	0.854385	1.099791
H113	H	0.807650	0.339670	0.583096
H114	H	1.307650	0.839670	1.083096
H115	H	0.875319	0.341193	0.667860
H116	H	1.375319	0.841193	1.167860
H117	H	1.057413	-0.261117	0.138933
H118	H	1.557413	0.238883	0.638933
N119	N	0.866734	0.354381	0.400295
N120	N	1.366734	0.854381	0.900295
H121	H	0.875230	0.341216	0.332211
H122	H	1.375230	0.841216	0.832211
H123	H	0.807668	0.339623	0.417077
H124	H	1.307668	0.839623	0.917077
H125	H	0.421215	-0.038791	0.000067
H126	H	0.921215	0.461209	0.500067
H127	H	0.578575	-0.034565	0.000057
H128	H	1.078575	0.465435	0.500057
H129	H	0.908865	-0.390732	-0.138675
H130	H	1.408865	0.109268	0.361325
N131	N	1.068489	-0.250945	-0.159291
N132	N	1.568489	0.249055	0.340709
H133	H	1.038045	-0.275684	-0.216056
H134	H	1.538045	0.224316	0.283944
H135	H	1.070302	-0.155006	-0.158257
H136	H	1.570302	0.344994	0.341743
