data_functionalizedCrystal
_audit_creation_method	'MofGen! by Chris Wilmer'
_symmetry_space_group_name_H-M	'P1'
_symmetry_Int_Tables_number	1
_symmetry_cell_setting	triclinic
loop_
_symmetry_equiv_pos_as_xyz
  x,y,z
_cell_length_a	12.645331
_cell_length_b	14.908520
_cell_length_c	14.908308
_cell_angle_alpha	83.639235
_cell_angle_beta	86.715213
_cell_angle_gamma	93.319567
loop_
_atom_site_label
_atom_site_type_symbol
_atom_site_fract_x
_atom_site_fract_y
_atom_site_fract_z
Zn1	Zn	1.558108	-0.389885	0.532418
Zn2	Zn	1.557988	-0.532530	0.389788
Zn3	Zn	1.391688	-0.381186	0.381092
Zn4	Zn	1.369939	-0.541202	0.541115
O5	O	1.469431	-0.461201	0.461103
O6	O	1.706438	-0.408818	0.513498
O7	O	1.544979	-0.505184	0.261973
O8	O	1.422916	-0.255675	0.393886
O9	O	1.706350	-0.513619	0.408708
O10	O	1.545184	-0.262066	0.505065
O11	O	1.422799	-0.393993	0.255584
O12	O	1.240456	-0.402401	0.402320
O13	O	1.385848	-0.528399	0.666623
O14	O	1.224477	-0.519964	0.519888
O15	O	1.524095	-0.417227	0.660233
O16	O	1.523890	-0.660345	0.417142
O17	O	1.385732	-0.666716	0.528321
C18	C	1.452465	-0.696374	0.474639
C19	C	1.445302	-0.796985	0.480459
C20	C	1.194002	-0.461180	0.461105
C21	C	1.076170	-0.461195	0.461128
C22	C	1.575839	-0.979352	0.375719
C23	C	1.569113	-1.073884	0.381185
C24	C	1.425129	-1.080582	0.496861
C25	C	1.431855	-0.986050	0.491395
C26	C	1.507212	-0.935438	0.430821
C27	C	1.513933	-0.840904	0.425351
C28	C	1.369954	-0.847605	0.541031
C29	C	1.363228	-0.942137	0.546497
C30	C	0.898587	-0.535516	0.534748
C31	C	1.021143	-0.535306	0.535026
C32	C	1.036666	-0.367362	0.481696
C33	C	0.914002	-0.367819	0.482211
C34	C	0.914065	-0.479926	0.366675
C35	C	1.036484	-0.482041	0.367312
C36	C	1.745934	-0.461222	0.461103
C37	C	1.863764	-0.461231	0.461103
C38	C	1.452559	-0.474751	0.697188
C39	C	1.445370	-0.480525	0.797794
C40	C	1.486490	-0.225110	0.447535
C41	C	1.493759	-0.124502	0.441753
C42	C	1.486302	-0.447638	0.225933
C43	C	1.493715	-0.441609	0.125314
C44	C	1.575815	-0.375590	0.980189
C45	C	1.569063	-0.381013	1.074716
C46	C	1.425111	-0.496786	1.081378
C47	C	1.431862	-0.491364	0.986850
C48	C	1.507218	-0.430765	0.936259
C49	C	1.513974	-0.425348	0.841730
C50	C	1.370017	-0.541116	0.848393
C51	C	1.363265	-0.546538	0.942920
H52	H	1.575289	-0.799696	0.376026
H53	H	1.637178	-0.326253	0.938996
Cl54	Cl	1.078734	-0.341232	0.586818
H55	H	1.314070	-0.811840	0.585897
Cl56	Cl	1.670556	-0.915721	0.299558
Cl57	Cl	1.655302	-0.311646	1.129939
H58	H	0.865162	-0.605515	0.522682
H59	H	1.624998	-1.109634	0.336317
H60	H	0.891690	-0.310796	0.430720
Cl61	Cl	1.093054	-0.279952	0.401100
Cl62	Cl	1.268502	-1.005772	0.622646
Cl63	Cl	1.330416	-1.144225	0.573017
Cl64	Cl	1.075767	-0.588609	0.343210
Cl65	Cl	1.061546	-0.643013	0.516137
H66	H	0.879937	-0.546893	0.346925
Cl67	Cl	1.283786	-0.610492	0.793162
H68	H	1.363760	-0.546122	1.122585
H69	H	0.863863	-0.523765	0.604425
Cl70	Cl	1.095065	-0.403881	0.278732
Cl71	Cl	1.060369	-0.516878	0.643220
Cl72	Cl	0.880687	-0.396286	0.282060
Cl73	Cl	0.864391	-0.342342	0.588537
Cl74	Cl	1.268537	-0.622714	1.006529
Cl75	Cl	1.608708	-0.349170	0.778131
