data_functionalizedCrystal
_audit_creation_method	'MofGen! by Chris Wilmer'
_symmetry_space_group_name_H-M	'P1'
_symmetry_Int_Tables_number	1
_symmetry_cell_setting	triclinic
loop_
_symmetry_equiv_pos_as_xyz
  x,y,z
_cell_length_a	15.995350
_cell_length_b	15.711784
_cell_length_c	14.750779
_cell_angle_alpha	106.501906
_cell_angle_beta	77.354388
_cell_angle_gamma	101.540588
loop_
_atom_site_label
_atom_site_type_symbol
_atom_site_fract_x
_atom_site_fract_y
_atom_site_fract_z
O1	O	-1.132695	-0.130152	-0.079738
O2	O	-0.893131	-0.143916	-0.079757
O3	O	-0.981035	-0.011202	-0.079748
O4	O	-1.044792	-0.262866	-0.079746
O5	O	-1.005885	0.026310	0.079904
O6	O	-0.917982	-0.106403	0.079896
O7	O	-1.157546	-0.092640	0.079915
Zn8	Zn	-1.041709	-0.093566	0.105254
Zn9	Zn	-1.008968	-0.142990	-0.105096
O10	O	-1.069642	-0.225353	0.079906
C11	C	-0.874187	-0.124591	0.000067
C12	C	-0.780713	-0.122888	0.000059
C13	C	-0.983045	0.039757	0.000075
C14	C	-0.952000	0.135714	0.000068
C15	C	-1.176490	-0.111965	0.000089
C16	C	-1.269963	-0.113670	0.000090
C17	C	-0.441093	-0.116759	0.000079
C18	C	-0.459633	-0.022161	0.000435
C19	C	-0.556789	-0.023953	0.000068
C20	C	-0.609583	-0.119799	0.000070
C21	C	-0.568584	-0.187837	-0.091095
C22	C	-0.471211	-0.185479	-0.091165
C23	C	-0.499729	-0.144773	0.090390
C24	C	-0.596854	-0.144469	0.091588
C25	C	-0.704806	-0.121523	0.000062
C26	C	-0.345869	-0.115039	0.000081
C27	C	-1.067632	-0.276314	0.000080
C28	C	-1.098676	-0.372271	0.000081
N29	N	-1.064061	-0.059835	0.248811
C30	C	-0.835129	0.260658	0.000053
C31	C	-0.864308	0.170494	0.000059
C32	C	-1.010547	0.191094	0.000075
C33	C	-0.981380	0.281263	0.000073
C34	C	-0.893670	0.316038	0.000061
C35	C	-1.039921	0.336643	0.000082
C36	C	-1.010756	0.426803	0.000075
C37	C	-0.923049	0.461584	0.000060
C38	C	-0.864504	0.406198	0.000054
C39	C	-1.127630	0.301865	0.000087
C40	C	-1.186172	0.357244	0.000095
C41	C	-1.157007	0.447408	0.000095
C42	C	-1.069300	0.482189	0.000080
C43	C	-1.215552	0.502794	0.000101
C44	C	-1.186386	0.592954	0.000094
C45	C	-1.040135	0.572349	0.000073
N46	N	-0.986621	-0.176714	-0.248654
C47	C	-0.924186	-0.270882	0.600616
C48	C	-0.939856	-0.247251	0.701117
C49	C	-1.017731	-0.129777	0.701087
C50	C	-1.002064	-0.153395	0.600584
C51	C	-0.955291	-0.223949	0.550357
C52	C	-1.033170	-0.106462	0.550325
C53	C	-1.017507	-0.130082	0.449831
C54	C	-0.970739	-0.200635	0.399597
C55	C	-0.939629	-0.247569	0.449863
C56	C	-1.079947	-0.035913	0.600554
C57	C	-1.111053	0.011020	0.550295
C58	C	-1.095385	-0.012595	0.449799
C59	C	-1.048617	-0.083148	0.399565
C60	C	-1.126495	0.034339	0.399533
C61	C	-1.110833	0.010719	0.299039
C62	C	-1.032955	-0.106768	0.299071
H63	H	-0.584166	0.028047	0.065420
H64	H	-1.234056	0.638045	0.000095
H65	H	-0.994860	-0.164214	0.258174
Cl66	Cl	-0.886386	0.574937	0.000082
H67	H	-1.164585	0.091779	0.440441
Cl68	Cl	-1.169853	0.099712	0.613445
Cl69	Cl	-1.120807	0.147368	0.000087
H70	H	-0.886091	-0.328328	0.559719
H71	H	-0.439715	0.030980	0.065813
H72	H	-1.055816	-0.072333	0.741994
H73	H	-1.136164	0.048937	0.258117
Cl74	Cl	-0.951053	-0.230332	0.273260
H75	H	-1.257586	0.328919	0.000109
H76	H	-0.793085	0.434518	0.000066
H77	H	-1.092701	-0.016687	0.682383
Cl78	Cl	-1.164295	0.188518	0.000092
H79	H	-0.563157	-0.002443	-0.065397
H80	H	-0.914522	-0.285477	0.742033
H81	H	-0.418400	0.000168	-0.064584
Cl82	Cl	-0.410486	-0.157713	-0.196381
Cl83	Cl	-0.453237	-0.294111	-0.097553
Cl84	Cl	-0.580770	-0.162462	-0.195851
H85	H	-1.286965	0.474465	0.000104
Cl86	Cl	-0.622895	-0.297781	-0.096352
H87	H	-0.480485	-0.097638	0.159491
H88	H	-0.624245	-0.094592	0.159032
Cl89	Cl	-0.880816	-0.336259	0.386716
Cl90	Cl	-0.654947	-0.250388	0.100091
H91	H	-0.816630	0.125406	0.000054
Cl92	Cl	-0.929871	0.616076	0.000075
Cl93	Cl	-0.724865	0.304385	0.000055
Cl94	Cl	-0.483796	-0.252136	0.091346
