data_functionalizedCrystal
_audit_creation_method	'MofGen! by Chris Wilmer'
_symmetry_space_group_name_H-M	'P1'
_symmetry_Int_Tables_number	1
_symmetry_cell_setting	triclinic
loop_
_symmetry_equiv_pos_as_xyz
  x,y,z
_cell_length_a	16.625548
_cell_length_b	19.077068
_cell_length_c	19.076919
_cell_angle_alpha	85.529249
_cell_angle_beta	87.719059
_cell_angle_gamma	92.328114
loop_
_atom_site_label
_atom_site_type_symbol
_atom_site_fract_x
_atom_site_fract_y
_atom_site_fract_z
Zn1	Zn	1.200104	-0.296663	0.409849
Zn2	Zn	1.200004	-0.409817	0.296694
Zn3	Zn	1.070916	-0.291950	0.291979
Zn4	Zn	1.059584	-0.414516	0.414538
O5	O	1.132652	-0.353236	0.353265
O6	O	1.312922	-0.311679	0.394850
O7	O	1.187581	-0.390242	0.197422
O8	O	1.092838	-0.193926	0.303680
O9	O	1.312849	-0.394813	0.311715
O10	O	1.187751	-0.197389	0.390279
O11	O	1.092741	-0.303646	0.193958
O12	O	0.956582	-0.308202	0.308226
O13	O	1.073523	-0.402822	0.512563
O14	O	0.948256	-0.398251	0.398269
O15	O	1.176762	-0.316236	0.509118
O16	O	1.176592	-0.509089	0.316261
O17	O	1.073426	-0.512542	0.402841
C18	C	1.123790	-0.536395	0.360587
C19	C	1.120071	-0.614752	0.363742
C20	C	0.923163	-0.353225	0.353245
C21	C	0.833540	-0.353238	0.353254
C22	C	1.172076	-0.649745	0.320185
C23	C	1.168583	-0.723370	0.323158
C24	C	1.113081	-0.762000	0.369684
C25	C	1.061075	-0.727002	0.413246
C26	C	1.064572	-0.653379	0.410277
C27	C	1.096861	-0.982386	0.383397
C28	C	1.093366	-1.056015	0.386362
C29	C	1.200875	-1.052377	0.296274
C30	C	1.204365	-0.978752	0.293306
C31	C	1.152361	-0.943761	0.336870
N32	N	1.109508	-0.837257	0.372722
N33	N	1.155939	-0.868506	0.333836
C34	C	0.505363	-0.353244	0.353284
C35	C	0.596672	-0.353241	0.353273
C36	C	0.669449	-0.353242	0.353268
C37	C	0.760764	-0.353237	0.353259
C38	C	1.342959	-0.353248	0.353286
C39	C	1.432580	-0.353253	0.353294
C40	C	1.123890	-0.360579	0.537134
C41	C	1.120156	-0.363708	0.615488
C42	C	1.141570	-0.169363	0.345930
C43	C	1.145370	-0.091008	0.342805
C44	C	1.141429	-0.345872	0.170110
C45	C	1.145329	-0.342544	0.091748
C46	C	1.172150	-0.320099	0.650506
C47	C	1.168632	-0.323036	0.724128
C48	C	1.113123	-0.369586	0.762730
C49	C	1.061123	-0.413196	0.727706
C50	C	1.064638	-0.410255	0.654086
C51	C	1.096844	-0.383213	0.983104
C52	C	1.093334	-0.386153	1.056729
C53	C	1.200843	-0.295991	1.053146
C54	C	1.204356	-0.293057	0.979525
C55	C	1.152353	-0.336665	0.944507
N56	N	1.109527	-0.372591	0.837983
N57	N	1.155946	-0.333656	0.869255
H58	H	1.210930	-0.751857	0.287688
C59	C	1.033107	-0.436801	1.098561
C60	C	1.048111	-0.505838	1.083427
C61	C	0.992644	-0.552510	1.121943
H62	H	1.038413	-0.432400	1.147435
H63	H	0.979992	-0.426037	1.086068
H64	H	1.101212	-0.516599	1.095925
H65	H	1.042799	-0.510261	1.034560
H66	H	0.939530	-0.541745	1.109450
H67	H	0.997955	-0.548103	1.170815
H68	H	1.002812	-0.599355	1.111676
H69	H	1.022291	-0.445759	0.625574
C70	C	1.033081	-1.097834	0.436957
C71	C	0.988303	-1.051434	0.474489
C72	C	0.932772	-1.089933	0.521107
H73	H	0.997816	-1.125520	0.411204
H74	H	1.061057	-1.127733	0.468885
H75	H	0.960328	-1.021547	0.442565
H76	H	1.023545	-1.023747	0.500257
H77	H	0.960748	-1.119832	0.553035
H78	H	0.897513	-1.117617	0.495348
H79	H	0.902388	-1.058457	0.546583
C80	C	1.040516	-0.430601	0.945011
C81	C	1.085982	-0.474093	0.904538
C82	C	1.034116	-0.517752	0.869431
H83	H	1.006943	-0.458805	0.978476
H84	H	1.008071	-0.402505	0.915175
H85	H	1.118414	-0.502187	0.934372
H86	H	1.119553	-0.445908	0.871061
H87	H	1.001671	-0.489656	0.839594
H88	H	1.000546	-0.545952	0.902900
H89	H	1.064957	-0.547263	0.841961
H90	H	1.249558	-0.947300	0.255420
H91	H	1.015924	-0.451096	0.759141
C92	C	1.040524	-0.944372	0.430776
C93	C	1.085982	-0.903873	0.474310
C94	C	1.034107	-0.868851	0.517972
H95	H	1.008047	-0.914556	0.402707
H96	H	1.006983	-0.977908	0.458945
H97	H	1.119509	-0.870341	0.446144
H98	H	1.118457	-0.933672	0.502394
H99	H	1.000566	-0.902387	0.546141
H100	H	1.001633	-0.839040	0.489897
H101	H	1.064943	-0.841374	0.547519
H102	H	1.243215	-1.080875	0.260807
C103	C	1.232418	-0.607932	0.269646
C104	C	1.277227	-0.654340	0.232151
C105	C	1.332831	-0.615851	0.185594
H106	H	1.204523	-0.578016	0.237686
H107	H	1.267648	-0.580266	0.295465
H108	H	1.242001	-0.681995	0.206334
H109	H	1.305139	-0.684258	0.264092
H110	H	1.368061	-0.588185	0.211413
H111	H	1.304929	-0.585936	0.153639
H112	H	1.363245	-0.647333	0.160153
H113	H	1.015887	-0.758461	0.451132
H114	H	1.022226	-0.624888	0.445746
H115	H	1.217354	-0.282195	0.619082
H116	H	1.210973	-0.287527	0.752637
C117	C	1.257257	-0.248525	1.091071
C118	C	1.243948	-0.178061	1.070363
C119	C	1.295909	-0.134311	1.105277
H120	H	1.247271	-0.256845	1.140452
H121	H	1.311524	-0.258319	1.079409
H122	H	1.189693	-0.168271	1.082030
H123	H	1.253939	-0.169719	1.020988
H124	H	1.350176	-0.144105	1.093614
H125	H	1.285919	-0.142637	1.154656
H126	H	1.286891	-0.086497	1.091226
H127	H	1.249559	-0.255153	0.948100
