data_functionalizedCrystal
_audit_creation_method	'MofGen! by Chris Wilmer'
_symmetry_space_group_name_H-M	'P1'
_symmetry_Int_Tables_number	1
_symmetry_cell_setting	triclinic
loop_
_symmetry_equiv_pos_as_xyz
  x,y,z
_cell_length_a	16.992694
_cell_length_b	16.974755
_cell_length_c	15.455313
_cell_angle_alpha	89.009783
_cell_angle_beta	87.142206
_cell_angle_gamma	87.020575
loop_
_atom_site_label
_atom_site_type_symbol
_atom_site_fract_x
_atom_site_fract_y
_atom_site_fract_z
O1	O	-1.044183	-0.163897	0.083532
O2	O	-0.815895	-0.162063	0.083428
O3	O	-0.936028	-0.048639	0.075444
O4	O	-0.924050	-0.277322	0.091516
O5	O	-0.929158	-0.055096	-0.068364
O6	O	-0.809025	-0.168520	-0.060379
O7	O	-1.037313	-0.170355	-0.060276
Cu8	Cu	-0.922542	-0.170027	-0.073458
Cu9	Cu	-0.930666	-0.162391	0.096611
O10	O	-0.917181	-0.283779	-0.052292
C11	C	-0.783243	-0.162933	0.011362
C12	C	-0.696183	-0.155895	0.010877
C13	C	-0.932012	-0.022471	0.001476
C14	C	-0.930273	0.065122	-0.004674
C15	C	-1.069966	-0.169485	0.011792
C16	C	-1.157025	-0.176523	0.012282
C17	C	-0.646092	-0.223797	0.015649
C18	C	-0.564291	-0.217180	0.015172
C19	C	-0.532582	-0.142661	0.009930
C20	C	-0.582679	-0.074754	0.005155
C21	C	-0.664479	-0.081371	0.005626
C22	C	-0.288923	-0.115233	0.007979
C23	C	-0.207116	-0.108621	0.007511
C24	C	-0.188733	-0.251048	0.017526
C25	C	-0.270536	-0.257659	0.018002
C26	C	-0.320626	-0.189752	0.013223
N27	N	-0.448968	-0.135896	0.009445
N28	N	-0.404238	-0.196518	0.013702
C29	C	-0.921196	-0.309947	0.021678
C30	C	-0.922936	-0.397540	0.027833
C31	C	-0.920011	0.557799	-0.047670
C32	C	-0.921653	0.475496	-0.041896
C33	C	-0.926225	0.437857	0.039383
C34	C	-0.929147	0.482524	0.114892
C35	C	-0.927500	0.564825	0.109117
C36	C	-0.931548	0.192090	0.065061
C37	C	-0.933198	0.109783	0.070830
C38	C	-0.925702	0.102761	-0.085959
C39	C	-0.924060	0.185064	-0.091726
C40	C	-0.926978	0.229724	-0.016217
N41	N	-0.927905	0.353730	0.045287
N42	N	-0.925292	0.313848	-0.022122
N43	N	-0.916834	-0.175399	-0.193076
C44	C	-0.967888	-0.127232	-0.241861
C45	C	-0.963578	-0.131302	-0.332382
C46	C	-0.908217	-0.183543	-0.374117
C47	C	-0.857157	-0.231711	-0.325325
C48	C	-0.861464	-0.227637	-0.234806
C49	C	-0.889628	-0.201108	-0.644462
C50	C	-0.885327	-0.205180	-0.734988
C51	C	-0.991747	-0.104769	-0.742038
C52	C	-0.996052	-0.100703	-0.651516
C53	C	-0.944989	-0.148868	-0.602733
N54	N	-0.903812	-0.187706	-0.466644
N55	N	-0.949391	-0.144701	-0.510208
N56	N	-0.936381	-0.157013	0.216228
H57	H	-0.671903	-0.284479	0.019918
H58	H	-0.819889	-0.266858	-0.195086
H59	H	-0.923325	0.066391	-0.147434
H60	H	-0.329697	-0.059939	0.004087
F61	F	-1.046086	-0.053510	-0.793962
F62	F	-1.026815	-0.071634	-0.197452
H63	H	-0.812077	-0.274244	-0.359311
F64	F	-0.919192	0.225117	-0.178234
H65	H	-0.147942	-0.306334	0.021415
F66	F	-0.510983	-0.289451	0.020254
F67	F	-0.304277	-0.336972	0.023586
H68	H	-0.919283	0.439137	-0.103379
F69	F	-0.173372	-0.029304	0.001916
F70	F	-0.548930	0.004556	-0.000430
F71	F	-0.717790	-0.009101	0.000545
F72	F	-0.934025	0.442464	0.201395
F73	F	-0.915152	0.597851	-0.134179
F74	F	-0.938065	0.069727	0.157342
H75	H	-0.933931	0.228443	0.126546
H76	H	-0.929877	0.601187	0.170600
H77	H	-1.005150	-0.092080	-0.372102
F78	F	-1.054974	-0.045104	-0.607100
H79	H	-0.840243	-0.247724	-0.768963
H80	H	-0.848052	-0.240327	-0.604749
