data_functionalizedCrystal
_audit_creation_method	'MofGen! by Chris Wilmer'
_symmetry_space_group_name_H-M	'P1'
_symmetry_Int_Tables_number	1
_symmetry_cell_setting	triclinic
loop_
_symmetry_equiv_pos_as_xyz
  x,y,z
_cell_length_a	20.016444
_cell_length_b	14.560438
_cell_length_c	20.016444
_cell_angle_alpha	60.000278
_cell_angle_beta	90.002955
_cell_angle_gamma	60.002114
loop_
_atom_site_label
_atom_site_type_symbol
_atom_site_fract_x
_atom_site_fract_y
_atom_site_fract_z
Zr1	Zr	0.643577	1.005323	-0.087662
O2	O	0.536899	1.196924	-0.194337
O3	O	0.676279	0.813722	-0.054962
O4	O	0.676272	1.005332	-0.194339
O5	O	0.536912	1.005306	0.054986
O6	O	0.786212	1.005339	-0.194340
O7	O	0.536906	1.005314	-0.054960
O8	O	0.786225	0.662584	0.054981
O9	O	0.536900	1.348061	-0.194335
O10	O	0.772273	0.892536	-0.041014
O11	O	0.690231	0.892525	0.041037
O12	O	0.690223	1.118121	-0.123062
O13	O	0.608180	1.118110	-0.041011
Zr14	Zr	0.818928	1.005323	0.087688
Zr15	Zr	0.818918	1.005334	-0.087662
Zr16	Zr	0.643586	1.005311	0.087688
Zr17	Zr	0.643577	1.246370	-0.087659
Zr18	Zr	0.818927	0.764275	0.087684
O19	O	0.786225	1.196924	0.054988
O20	O	0.786212	1.196940	-0.194337
O21	O	0.536913	1.196907	0.054988
O22	O	0.925605	0.813722	0.194362
O23	O	0.925592	0.813739	-0.054963
O24	O	0.676292	0.813706	0.194362
O25	O	0.925592	1.005339	-0.054960
O26	O	0.786233	1.005314	0.194365
O27	O	0.676293	1.005306	0.194365
O28	O	0.925598	1.005332	0.054985
O29	O	0.676273	1.348071	-0.194335
O30	O	0.786232	0.662575	0.194360
O31	O	0.925605	0.662584	0.194360
O32	O	0.925598	0.662593	0.054980
O33	O	0.536907	1.348052	-0.054955
O34	O	0.676280	1.348061	-0.054955
O35	O	0.772282	0.892525	0.123087
O36	O	0.854325	0.892536	0.041036
O37	O	0.772274	1.118121	-0.041011
O38	O	0.690231	1.118110	0.041040
C39	C	0.731252	0.703809	0.000009
C40	C	0.731252	0.601478	0.000007
C41	C	0.774075	0.553408	-0.042823
C42	C	0.774079	0.457248	-0.042815
C43	C	0.688428	0.457242	0.042853
C44	C	0.688430	0.553393	0.042850
C45	C	0.511927	1.005308	0.000013
C46	C	0.437490	1.005304	0.000013
C47	C	0.309053	0.887565	0.042843
C48	C	0.239107	0.887571	0.042845
C49	C	0.153454	1.123089	-0.042819
C50	C	0.223398	1.123083	-0.042815
C51	C	0.301197	1.005317	0.000013
C52	C	0.161308	1.005329	0.000012
C53	C	0.085470	1.005336	0.000014
C54	C	0.377040	1.005309	0.000013
C55	C	0.950578	1.005337	0.000012
C56	C	1.025015	1.005342	0.000012
C57	C	0.731241	1.005337	-0.219323
C58	C	0.731237	1.005342	-0.293764
C59	C	0.731253	1.306837	0.000017
C60	C	0.731253	1.409168	0.000018
C61	C	0.688421	1.123080	-0.507848
C62	C	0.688428	1.123075	-0.577789
C63	C	0.774089	0.887556	-0.492118
C64	C	0.774086	0.887563	-0.422179
C65	C	0.731248	1.005329	-0.430047
C66	C	0.731257	1.005317	-0.569928
C67	C	0.731264	1.005310	-0.645761
C68	C	0.731241	1.005336	-0.354209
C69	C	0.731264	1.005308	0.219349
C70	C	0.731268	1.005304	0.293789
C71	C	0.950577	0.703823	0.000008
C72	C	1.025014	0.601497	0.000007
C73	C	0.731264	0.703795	0.219344
C74	C	0.731267	0.601459	0.293784
C75	C	0.950589	0.703809	0.219344
C76	C	1.025030	0.601478	0.293783
C77	C	0.511916	1.306837	-0.219319
C78	C	0.437475	1.409168	-0.293758
C79	C	0.511927	1.306822	0.000017
C80	C	0.437491	1.409148	0.000019
C81	C	0.731241	1.306851	-0.219319
C82	C	0.731237	1.409187	-0.293758
C83	C	1.017141	0.553444	-0.042831
C84	C	1.087075	0.457311	-0.042849
C85	C	1.164883	0.409227	-0.000023
C86	C	1.172755	0.457290	0.042816
C87	C	1.102821	0.553427	0.042828
C88	C	0.774099	0.553401	0.371578
C89	C	0.774099	0.457259	0.441528
C90	C	0.731273	0.409170	0.433682
C91	C	0.688436	0.457237	0.355880
C92	C	0.688431	0.553384	0.285931
C93	C	1.102821	0.553428	0.285911
C94	C	1.172772	0.457290	0.355848
C95	C	1.164931	0.409198	0.433656
C96	C	1.087132	0.457258	0.441527
C97	C	1.017182	0.553400	0.371591
C98	C	0.359684	1.457229	-0.285885
C99	C	0.289732	1.553397	-0.355822
C100	C	0.297573	1.601494	-0.433630
C101	C	0.375372	1.553428	-0.441501
C102	C	0.445322	1.457269	-0.371565
C103	C	0.445364	1.457212	0.042849
C104	C	0.375429	1.553371	0.042848
C105	C	0.297622	1.601459	0.000020
C106	C	0.289750	1.553392	-0.042816
C107	C	0.359684	1.457240	-0.042819
C108	C	0.774073	1.457245	-0.285886
C109	C	0.774085	1.553388	-0.355823
C110	C	0.731257	1.601477	-0.433631
C111	C	0.688420	1.553409	-0.441502
C112	C	0.688413	1.457262	-0.371566
H113	H	0.808951	0.418110	-0.077690
H114	H	0.226390	1.592559	-0.077685
C115	C	0.204161	1.606249	-0.347146
N116	N	0.139711	1.646055	-0.340609
C117	C	0.641320	0.606223	0.200359
N118	N	0.605835	0.646015	0.135906
C119	C	0.220618	1.707262	-0.510555
N120	N	0.162652	1.786921	-0.568491
H121	H	0.808974	0.592544	0.377982
C122	C	0.351009	1.404366	-0.089928
N123	N	0.344469	1.364544	-0.125411
C124	C	0.821196	1.404358	-0.200303
N125	N	0.856696	1.364523	-0.135844
C126	C	0.821235	0.404390	0.527103
N127	N	0.856739	0.364569	0.591556
H128	H	0.653567	0.418069	0.349504
H129	H	0.808966	1.592515	-0.349398
H130	H	1.236115	0.418125	0.077682
H131	H	0.731269	1.679767	-0.490571
C132	C	0.931614	0.606242	0.380264
N133	N	0.867164	0.646040	0.386803
H134	H	0.653551	1.592578	-0.504862
C135	C	0.931559	0.606326	-0.089951
N136	N	0.867100	0.646157	-0.125449
C137	C	0.731295	0.303393	0.510636
N138	N	0.731318	0.223715	0.568601
C139	C	0.641319	0.404350	0.089970
N140	N	0.605832	0.364517	0.125457
H141	H	0.653528	1.418143	-0.377987
H142	H	0.245511	0.791686	0.077722
C143	C	1.111466	0.606318	0.200328
N144	N	1.117984	0.646156	0.135869
C145	C	1.258343	0.404431	0.347171
N146	N	1.322794	0.364616	0.340634
H147	H	0.381747	1.592602	-0.504861
H148	H	1.221896	0.330913	0.490596
C149	C	0.394630	0.758020	0.089963
N150	N	0.459087	0.660442	0.125459
C151	C	0.530891	1.404396	-0.380239
N152	N	0.595341	1.364575	-0.386778
C153	C	0.067871	1.252625	-0.089939
N154	N	0.003409	1.350194	-0.125434
C155	C	0.384107	1.606217	0.089979
N156	N	0.390645	1.646015	0.125481
H157	H	1.080650	0.418190	-0.077733
C158	C	0.214754	1.252625	-0.089937
N159	N	0.208244	1.350192	-0.125428
H160	H	1.109243	0.592540	0.077716
C161	C	0.641306	1.252626	-0.516506
N162	N	0.605820	1.350204	-0.523031
C163	C	1.078521	0.404332	0.527124
N164	N	1.072037	0.364457	0.591598
C165	C	0.220700	1.707223	0.000035
N166	N	0.162765	1.786880	0.000053
H167	H	0.653555	1.218960	-0.641136
H168	H	0.653557	0.592531	0.077731
H169	H	0.353284	1.418074	-0.222536
C170	C	0.821199	0.758021	-0.483473
N171	N	0.856680	0.660452	-0.476959
H172	H	0.808945	0.592554	-0.077706
H173	H	1.221821	0.330944	-0.000040
H174	H	0.508713	1.418066	0.077730
H175	H	0.808965	0.791670	-0.358825
