data_functionalizedCrystal
_audit_creation_method	'MofGen! by Chris Wilmer'
_symmetry_space_group_name_H-M	'P1'
_symmetry_Int_Tables_number	1
_symmetry_cell_setting	triclinic
loop_
_symmetry_equiv_pos_as_xyz
  x,y,z
_cell_length_a	15.944551
_cell_length_b	11.026607
_cell_length_c	10.065875
_cell_angle_alpha	79.268236
_cell_angle_beta	98.743338
_cell_angle_gamma	96.042377
loop_
_atom_site_label
_atom_site_type_symbol
_atom_site_fract_x
_atom_site_fract_y
_atom_site_fract_z
O1	O	-1.147764	-0.138698	-0.113343
O2	O	-0.647764	0.361302	0.386657
O3	O	-0.906134	-0.157989	-0.113377
O4	O	-0.406134	0.342011	0.386623
O5	O	-1.006922	0.028311	-0.113358
O6	O	-0.506922	0.528311	0.386642
O7	O	-1.046975	-0.324998	-0.113362
O8	O	-0.546975	0.175002	0.386638
O9	O	-0.987725	-0.007357	0.113627
O10	O	-0.487725	0.492643	0.613627
O11	O	-0.886936	-0.193656	0.113609
O12	O	-0.386936	0.306344	0.613609
O13	O	-1.128566	-0.174365	0.113642
O14	O	-0.628566	0.325635	0.613642
Zn15	Zn	-1.004703	-0.189674	0.149664
Zn16	Zn	-0.504703	0.310326	0.649664
Zn17	Zn	-1.029997	-0.142680	-0.149399
Zn18	Zn	-0.529997	0.357320	0.350601
O19	O	-1.027778	-0.360665	0.113623
O20	O	-0.527778	0.139335	0.613623
C21	C	-0.865120	-0.175021	0.000112
C22	C	-0.365120	0.324979	0.500112
C23	C	-0.771512	-0.172617	0.000099
C24	C	-0.271512	0.327383	0.500099
C25	C	-0.989935	0.055689	0.000132
C26	C	-0.489935	0.555689	0.500132
C27	C	-0.967908	0.190406	0.000124
C28	C	-0.467908	0.690406	0.500124
C29	C	-1.169580	-0.157333	0.000151
C30	C	-0.669580	0.342667	0.500151
C31	C	-1.263189	-0.159735	0.000154
C32	C	-0.763189	0.340265	0.500154
C33	C	-0.538329	-0.051402	0.000127
C34	C	-0.038329	0.448598	0.500127
C35	C	-0.495283	-0.090106	-0.111789
C36	C	0.004717	0.409894	0.388211
C37	C	-0.600128	-0.168275	0.000115
C38	C	-0.100128	0.331725	0.500115
C39	C	-0.476383	-0.125299	0.112000
C40	C	0.023617	0.374701	0.612000
C41	C	-0.434578	-0.164073	0.000137
C42	C	0.065422	0.335927	0.500137
C43	C	-0.558324	-0.206997	-0.111894
C44	C	-0.058324	0.293003	0.388106
C45	C	-0.539418	-0.242189	0.111996
C46	C	-0.039418	0.257811	0.611996
C47	C	-0.496406	-0.280974	0.000053
C48	C	0.003594	0.219026	0.500053
C49	C	-0.695497	-0.170692	0.000101
C50	C	-0.195497	0.329308	0.500101
C51	C	-0.339212	-0.161664	0.000141
C52	C	0.160788	0.338336	0.500141
C53	C	-1.044765	-0.388043	0.000130
C54	C	-0.544765	0.111957	0.500130
C55	C	-1.066792	-0.522759	0.000129
C56	C	-0.566792	-0.022759	0.500129
N57	N	-0.987447	-0.221745	0.353766
N58	N	-0.487447	0.278255	0.853766
C59	C	-1.028728	0.264206	0.000131
C60	C	-0.528728	0.764206	0.500131
C61	C	-1.005964	0.403443	0.000123
C62	C	-0.505964	0.903443	0.500123
N63	N	-1.047258	-0.110600	-0.353501
N64	N	-0.547258	0.389400	0.146499
C65	C	-1.023986	-0.153831	0.421552
C66	C	-0.523986	0.346169	0.921552
C67	C	-1.010713	-0.178523	0.578717
C68	C	-0.510713	0.321477	1.078717
H69	H	-0.557011	0.045616	-0.000010
H70	H	-0.057011	0.545616	0.499990
Cl71	Cl	-1.087226	-0.035564	0.331523
Cl72	Cl	-0.587226	0.464436	0.831523
H73	H	-0.475703	-0.025806	-0.206406
H74	H	0.024297	0.474194	0.293594
Cl75	Cl	-0.899547	0.465029	0.000094
Cl76	Cl	-0.399547	0.965029	0.500094
Cl77	Cl	-1.173212	0.415663	0.000137
Cl78	Cl	-0.673212	0.915663	0.500137
Cl79	Cl	-0.569677	-0.341403	0.258084
Cl80	Cl	-0.069677	0.158597	0.758084
H81	H	-0.440819	-0.090712	0.206613
H82	H	0.059181	0.409288	0.706613
H83	H	-0.593789	-0.241509	-0.206613
H84	H	-0.093789	0.258491	0.293387
H85	H	-0.477930	-0.378061	-0.000011
H86	H	0.022070	0.121939	0.499989
Cl87	Cl	-1.135143	0.202618	0.000137
Cl88	Cl	-0.635143	0.702618	0.500137
Cl89	Cl	-0.861495	0.251997	0.000096
Cl90	Cl	-0.361495	0.751997	0.500096
Cl91	Cl	-0.947235	-0.296518	0.668741
Cl92	Cl	-0.447235	0.203482	1.168741
Cl93	Cl	-1.110950	0.007143	0.556478
Cl94	Cl	-0.610950	0.507143	1.056478
Cl95	Cl	-0.923971	-0.339734	0.443796
Cl96	Cl	-0.423971	0.160266	0.943796
