data_functionalizedCrystal
_audit_creation_method	'MofGen! by Chris Wilmer'
_symmetry_space_group_name_H-M	'P1'
_symmetry_Int_Tables_number	1
_symmetry_cell_setting	triclinic
loop_
_symmetry_equiv_pos_as_xyz
  x,y,z
_cell_length_a	19.077105
_cell_length_b	17.640280
_cell_length_c	17.640968
_cell_angle_alpha	65.682561
_cell_angle_beta	76.072762
_cell_angle_gamma	76.093206
loop_
_atom_site_label
_atom_site_type_symbol
_atom_site_fract_x
_atom_site_fract_y
_atom_site_fract_z
Zn1	Zn	1.206422	-0.279225	-0.444938
Zn2	Zn	1.706422	0.220775	0.055062
Zn3	Zn	1.206364	-0.444891	-0.279297
Zn4	Zn	1.706364	0.055109	0.220703
Zn5	Zn	1.067051	-0.301870	-0.301913
Zn6	Zn	1.567051	0.198130	0.198087
Zn7	Zn	1.107160	-0.413257	-0.413357
Zn8	Zn	1.607160	0.086743	0.086643
O9	O	1.146749	-0.359811	-0.359876
O10	O	1.646749	0.140189	0.140124
O11	O	1.306259	-0.304962	-0.426718
O12	O	1.806259	0.195038	0.073282
O13	O	1.171074	-0.448635	-0.166337
O14	O	1.671074	0.051365	0.333663
O15	O	1.068778	-0.182918	-0.343568
O16	O	1.568778	0.317082	0.156432
O17	O	1.306216	-0.426677	-0.305022
O18	O	1.806216	0.073323	0.194978
O19	O	1.171173	-0.166281	-0.448647
O20	O	1.671173	0.333719	0.051353
O21	O	1.068722	-0.343558	-0.182952
O22	O	1.568722	0.156442	0.317048
O23	O	0.972527	-0.312884	-0.312944
O24	O	1.472527	0.187116	0.187056
O25	O	1.137137	-0.372761	-0.533507
O26	O	1.637137	0.127239	-0.033507
O27	O	1.001995	-0.394720	-0.394821
O28	O	1.501995	0.105280	0.105179
O29	O	1.210065	-0.274288	-0.556710
O30	O	1.710065	0.225712	-0.056710
O31	O	1.209965	-0.556643	-0.274399
O32	O	1.709965	-0.056643	0.225601
O33	O	1.137080	-0.533401	-0.372891
O34	O	1.637080	-0.033401	0.127109
C35	C	0.961373	-0.352827	-0.352910
C36	C	1.461373	0.147173	0.147090
C37	C	0.882073	-0.349856	-0.349946
C38	C	1.382073	0.150144	0.150054
C39	C	0.860178	-0.391163	-0.391083
C40	C	1.360178	0.108837	0.108917
C41	C	0.785667	-0.388359	-0.388304
C42	C	1.285667	0.111641	0.111696
C43	C	0.733053	-0.344253	-0.344381
C44	C	1.233053	0.155747	0.155619
C45	C	0.754952	-0.302940	-0.303243
C46	C	1.254952	0.197060	0.196757
C47	C	0.829461	-0.305739	-0.306028
C48	C	1.329461	0.194261	0.193972
C49	C	0.508564	-0.331297	-0.331497
C50	C	1.008564	0.168703	0.168503
C51	C	0.434050	-0.328503	-0.328713
C52	C	0.934050	0.171497	0.171287
C53	C	0.464771	-0.413921	-0.413775
C54	C	0.964771	0.086079	0.086225
C55	C	0.539281	-0.416721	-0.416552
C56	C	1.039281	0.083279	0.083448
C57	C	0.561173	-0.375404	-0.375417
C58	C	1.061173	0.124596	0.124583
N59	N	0.656890	-0.341388	-0.341537
N60	N	1.156890	0.158612	0.158463
N61	N	0.637335	-0.378265	-0.378267
N62	N	1.137335	0.121735	0.121733
C63	C	1.177891	-0.575083	-0.317783
C64	C	1.677891	-0.075083	0.182217
C65	C	1.191282	-0.667175	-0.299805
C66	C	1.691282	-0.167175	0.200195
C67	C	1.045351	-0.909740	-0.496763
C68	C	1.545351	-0.409740	0.003237
C69	C	1.057932	-0.996279	-0.479844
C70	C	1.557932	-0.496279	0.020156
C71	C	1.133899	-1.020396	-0.377393
C72	C	1.633899	-0.520396	0.122607
C73	C	1.121327	-0.933856	-0.394306
C74	C	1.621327	-0.433856	0.105694
C75	C	1.077052	-0.878535	-0.453991
C76	C	1.577052	-0.378535	0.046009
C77	C	1.153028	-0.902652	-0.351534
C78	C	1.653028	-0.402652	0.148466
C79	C	1.140454	-0.816120	-0.368444
C80	C	1.640454	-0.316120	0.131556
C81	C	1.096179	-0.760794	-0.428124
C82	C	1.596179	-0.260794	0.071876
C83	C	1.064477	-0.792003	-0.470900
C84	C	1.564477	-0.292003	0.029100
C85	C	1.197299	-0.957975	-0.291845
C86	C	1.697299	-0.457975	0.208155
C87	C	1.229000	-0.926771	-0.249074
C88	C	1.729000	-0.426771	0.250926
C89	C	1.216430	-0.840237	-0.265987
C90	C	1.716430	-0.340237	0.234013
C91	C	1.172155	-0.784911	-0.325667
C92	C	1.672155	-0.284911	0.174333
C93	C	1.248132	-0.809027	-0.223211
C94	C	1.748132	-0.309027	0.276789
C95	C	1.235558	-0.722496	-0.240120
C96	C	1.735558	-0.222496	0.259880
C97	C	1.159581	-0.698379	-0.342577
C98	C	1.659581	-0.198379	0.157423
C99	C	1.332850	-0.366822	-0.366870
C100	C	1.832850	0.133178	0.133130
C101	C	1.412155	-0.369810	-0.369851
C102	C	1.912155	0.130190	0.130149
C103	C	1.178081	-0.317470	-0.576016
C104	C	1.678081	0.182530	-0.076016
C105	C	1.191433	-0.299427	-0.668122
C106	C	1.691433	0.200573	-0.168122
C107	C	1.115508	-0.143695	-0.402153
C108	C	1.615508	0.356305	0.097847
C109	C	1.102195	-0.051599	-0.420169
C110	C	1.602195	0.448401	0.079831
C111	C	1.045526	-0.496442	-0.910644
C112	C	1.545526	0.003558	-0.410644
C113	C	1.058085	-0.479478	-0.997194
C114	C	1.558085	0.020522	-0.497194
C115	C	1.134018	-0.376946	-1.021343
C116	C	1.634018	0.123054	-0.521343
C117	C	1.121462	-0.393899	-0.934794
C118	C	1.621462	0.106101	-0.434794
C119	C	1.077216	-0.453648	-0.879450
C120	C	1.577216	0.046352	-0.379450
C121	C	1.153153	-0.351106	-0.903600
C122	C	1.653153	0.148894	-0.403600
C123	C	1.140601	-0.368060	-0.817057
C124	C	1.640601	0.131940	-0.317057
C125	C	1.096358	-0.427809	-0.761709
C126	C	1.596358	0.072191	-0.261709
C127	C	1.064664	-0.470603	-0.792908
C128	C	1.564664	0.029397	-0.292908
C129	C	1.197403	-0.291361	-0.958944
C130	C	1.697403	0.208639	-0.458944
C131	C	1.229093	-0.248567	-0.927750
C132	C	1.729093	0.251433	-0.427750
C133	C	1.216537	-0.265517	-0.841207
C134	C	1.716537	0.234483	-0.341207
C135	C	1.172295	-0.325266	-0.785858
C136	C	1.672295	0.174734	-0.285858
C137	C	1.248232	-0.222723	-0.810008
C138	C	1.748232	0.277277	-0.310008
C139	C	1.235679	-0.239678	-0.723465
C140	C	1.735679	0.260322	-0.223465
C141	C	1.159743	-0.342220	-0.699316
C142	C	1.659743	0.157780	-0.199316
C143	C	1.115572	-0.401929	-0.144590
C144	C	1.615572	0.098071	0.355410
C145	C	1.102324	-0.419743	-0.052536
C146	C	1.602324	0.080257	0.447464
H147	H	0.767845	-0.421997	-0.421801
H148	H	1.267845	0.078003	0.078199
H149	H	0.582117	-0.452639	-0.452316
H150	H	1.082117	0.047361	0.047684
H151	H	1.261371	-0.697090	-0.205290
H152	H	1.761371	-0.197090	0.294710
H153	H	1.086142	-0.441615	-0.691240
H154	H	1.586142	0.058385	-0.191240
H155	H	1.032124	-1.021679	-0.514688
H156	H	1.532124	-0.521679	-0.014688
H157	H	1.207623	-0.277560	-1.029411
H158	H	1.707623	0.222440	-0.529411
H159	H	1.265121	-0.199922	-0.972822
H160	H	1.765121	0.300078	-0.472822
H161	H	0.847286	-0.272097	-0.272535
H162	H	1.347286	0.227903	0.227465
H163	H	1.009476	-0.545075	-0.865583
H164	H	1.509476	-0.045075	-0.365583
F165	F	1.276121	-0.985656	-0.185555
F166	F	1.776121	-0.485656	0.314445
F167	F	1.017565	-0.534189	-0.734003
F168	F	1.517565	-0.034189	-0.234003
H169	H	0.446937	-0.447557	-0.447266
H170	H	0.946937	0.052443	0.052734
F171	F	0.378053	-0.281562	-0.281957
F172	F	0.878053	0.218438	0.218043
F173	F	1.181019	-1.079281	-0.313874
F174	F	1.681019	-0.579281	0.186126
H175	H	1.207537	-1.028434	-0.278082
H176	H	1.707537	-0.528434	0.221918
F177	F	0.916170	-0.438113	-0.437826
F178	F	1.416170	0.061887	0.062174
H179	H	1.284175	-0.854084	-0.174609
H180	H	1.784175	-0.354084	0.325391
F181	F	1.181109	-0.313362	-1.080251
F182	F	1.681109	0.186638	-0.580251
H183	H	0.712106	-0.267023	-0.267485
H184	H	1.212106	0.232977	0.232515
F185	F	1.112644	-0.405806	-0.640411
F186	F	1.612644	0.094194	-0.140411
H187	H	1.085936	-0.690336	-0.441885
H188	H	1.585936	-0.190336	0.058115
F189	F	1.017361	-0.733120	-0.534432
F190	F	1.517361	-0.233120	-0.034432
H191	H	0.526379	-0.297661	-0.297995
H192	H	1.026379	0.202339	0.202005
F193	F	1.024350	-0.525027	-1.030389
F194	F	1.524350	-0.025027	-0.530389
H195	H	1.123534	-0.653332	-0.391185
H196	H	1.623534	-0.153332	0.108815
F197	F	1.269410	-0.194134	-0.690264
F198	F	1.769410	0.305866	-0.190264
F199	F	0.998234	-0.850856	-0.560294
F200	F	1.498234	-0.350856	-0.060294
F201	F	1.295328	-0.159144	-0.868916
F202	F	1.795328	0.340856	-0.368916
