data_functionalizedCrystal
_audit_creation_method	'MofGen! by Chris Wilmer'
_symmetry_space_group_name_H-M	'P1'
_symmetry_Int_Tables_number	1
_symmetry_cell_setting	triclinic
loop_
_symmetry_equiv_pos_as_xyz
  x,y,z
_cell_length_a	11.026607
_cell_length_b	14.519709
_cell_length_c	9.482900
_cell_angle_alpha	99.350820
_cell_angle_beta	78.636152
_cell_angle_gamma	96.133081
loop_
_atom_site_label
_atom_site_type_symbol
_atom_site_fract_x
_atom_site_fract_y
_atom_site_fract_z
O1	O	1.629894	0.375017	-0.120915
O2	O	2.129894	0.875017	0.379085
O3	O	1.276492	0.331026	-0.120914
O4	O	1.776492	0.831026	0.379086
O5	O	1.462561	0.220328	-0.120901
O6	O	1.962561	0.720328	0.379099
O7	O	1.443825	0.485715	-0.120927
O8	O	1.943825	0.985715	0.379073
O9	O	1.424766	0.242929	0.120889
O10	O	1.924766	0.742929	0.620889
O11	O	1.238698	0.353627	0.120876
O12	O	1.738698	0.853627	0.620876
O13	O	1.592099	0.397617	0.120875
O14	O	2.092099	0.897617	0.620875
Cu15	Cu	1.411948	0.377686	0.142953
Cu16	Cu	1.911948	0.877686	0.642953
Cu17	Cu	1.456644	0.350958	-0.142992
Cu18	Cu	1.956644	0.850958	0.357008
O19	O	1.406031	0.508316	0.120862
O20	O	1.906031	1.008316	0.620862
C21	C	1.212367	0.334211	-0.000019
C22	C	1.712367	0.834211	0.499981
C23	C	1.077600	0.310019	-0.000019
C24	C	1.577600	0.810019	0.499981
C25	C	1.003940	0.376817	-0.000026
C26	C	1.503940	0.876817	0.499974
C27	C	0.864652	0.351815	-0.000026
C28	C	1.364652	0.851815	0.499974
C29	C	1.442790	0.197125	-0.000006
C30	C	1.942790	0.697125	0.499994
C31	C	1.440173	0.094312	-0.000005
C32	C	1.940173	0.594312	0.499995
C33	C	1.430544	-0.282175	-0.000043
C34	C	1.930544	0.217825	0.499957
C35	C	1.433218	-0.177425	-0.000032
C36	C	1.933218	0.322575	0.499968
C37	C	1.435358	-0.093934	-0.000023
C38	C	1.935358	0.406066	0.499977
C39	C	1.438033	0.010822	-0.000015
C40	C	1.938033	0.510822	0.499985
C41	C	1.656226	0.394432	-0.000023
C42	C	2.156226	0.894432	0.499977
C43	C	1.790994	0.418624	-0.000033
C44	C	2.290994	0.918624	0.499967
C45	C	1.425802	0.531518	-0.000036
C46	C	1.925802	1.031518	0.499964
C47	C	1.428421	0.634330	-0.000046
C48	C	1.928421	1.134330	0.499954
N49	N	1.380519	0.396486	0.344071
N50	N	1.880519	0.896486	0.844071
N51	N	1.488082	0.332152	-0.344110
N52	N	1.988082	0.832152	0.155890
C53	C	1.447366	0.356497	0.416275
C54	C	1.947366	0.856497	0.916275
C55	C	1.421226	0.372147	0.583690
C56	C	1.921226	0.872147	1.083690
H57	H	0.831042	0.494329	-0.000031
H58	H	1.331042	0.994329	0.499969
O59	O	1.029999	0.219656	-0.000206
O60	O	1.529999	0.719656	0.499794
C61	C	1.089102	0.163798	-0.125447
C62	C	1.589102	0.663798	0.374553
H63	H	1.183560	0.199533	-0.167199
H64	H	1.683560	0.699533	0.332801
H65	H	1.101973	0.092493	-0.097278
H66	H	1.601973	0.592493	0.402722
H67	H	1.029568	0.154200	-0.213133
H68	H	1.529568	0.654200	0.286867
H69	H	0.824606	0.276108	-0.000055
H70	H	1.324606	0.776108	0.499945
O71	O	1.579507	0.277528	0.581808
O72	O	2.079507	0.777528	1.081808
C73	C	1.694160	0.315627	0.618622
C74	C	2.194160	0.815627	1.118622
H75	H	1.677239	0.361420	0.729215
H76	H	2.177239	0.861420	1.229215
H77	H	1.752735	0.256488	0.623463
H78	H	2.252735	0.756488	1.123463
H79	H	1.745219	0.359778	0.532959
H80	H	2.245219	0.859778	1.032959
H81	H	1.303933	0.442304	0.406195
H82	H	1.803933	0.942304	0.906195
H83	H	1.043996	0.452517	-0.000025
H84	H	1.543996	0.952517	0.499975
H85	H	1.523943	0.310669	0.354152
H86	H	2.023943	0.810669	0.854152
O87	O	1.329781	0.426697	0.657948
O88	O	1.829781	0.926697	1.157948
C89	C	1.240886	0.373148	0.745986
C90	C	1.740886	0.873148	1.245986
H91	H	1.285312	0.310988	0.768631
H92	H	1.785312	0.810988	1.268631
H93	H	1.205263	0.418468	0.853085
H94	H	1.705263	0.918468	1.353085
H95	H	1.160203	0.346687	0.687436
H96	H	1.660203	0.846687	1.187436
