data_functionalizedCrystal
_audit_creation_method	'MofGen! by Chris Wilmer'
_symmetry_space_group_name_H-M	'P1'
_symmetry_Int_Tables_number	1
_symmetry_cell_setting	triclinic
loop_
_symmetry_equiv_pos_as_xyz
  x,y,z
_cell_length_a	12.594517
_cell_length_b	16.120484
_cell_length_c	16.120297
_cell_angle_alpha	84.385569
_cell_angle_beta	92.877961
_cell_angle_gamma	87.074624
loop_
_atom_site_label
_atom_site_type_symbol
_atom_site_fract_x
_atom_site_fract_y
_atom_site_fract_z
Zn1	Zn	1.572401	0.356753	-0.489463
Zn2	Zn	1.572267	0.489442	-0.356773
Zn3	Zn	1.403914	0.349688	-0.349708
Zn4	Zn	1.384857	0.496483	-0.496495
O5	O	1.483360	0.423092	-0.423110
O6	O	1.721327	0.374364	-0.471875
O7	O	1.557854	0.465001	-0.238874
O8	O	1.434296	0.233660	-0.362347
O9	O	1.721229	0.471851	-0.374389
O10	O	1.558082	0.238850	-0.465024
O11	O	1.434165	0.362324	-0.233683
O12	O	1.252442	0.369151	-0.369165
O13	O	1.401816	0.483851	-0.612524
O14	O	1.238440	0.477000	-0.477009
O15	O	1.539603	0.381191	-0.607357
O16	O	1.539375	0.607342	-0.381207
O17	O	1.401685	0.612514	-0.483860
C18	C	1.206821	0.423074	-0.423084
C19	C	1.088514	0.423087	-0.423094
C20	C	1.468475	0.640257	-0.434082
C21	C	1.462203	0.733162	-0.438803
C22	C	1.468599	0.434094	-0.641115
C23	C	1.462308	0.438783	-0.734016
C24	C	1.026844	0.364357	-0.364541
C25	C	0.952230	0.439556	-0.347840
C26	C	0.952325	0.347926	-0.439811
C27	C	1.015459	0.498324	-0.406355
C28	C	1.015562	0.406645	-0.498360
C29	C	0.940975	0.481898	-0.481690
C30	C	1.760977	0.423110	-0.423136
C31	C	1.879282	0.423118	-0.423147
C32	C	1.498330	0.205080	-0.412113
C33	C	1.504709	0.112176	-0.407427
C34	C	1.450757	0.903262	-0.447441
C35	C	1.516152	0.942081	-0.398791
C36	C	1.509783	1.036731	-0.403598
C37	C	1.457124	0.808604	-0.442636
C38	C	1.450786	0.447325	-0.904106
C39	C	1.516159	0.398608	-0.942952
C40	C	1.509748	0.403361	-1.037596
C41	C	1.457196	0.442573	-0.809454
C42	C	1.498128	0.412071	-0.205949
C43	C	1.504641	0.407147	-0.113036
H44	H	1.064297	0.314734	-0.314968
O45	O	1.588712	0.344524	-0.897961
C46	C	1.648260	0.300179	-0.952720
H47	H	1.600728	0.300339	-1.014816
H48	H	1.665830	0.233081	-0.924087
H49	H	1.726374	0.331257	-0.963535
O50	O	1.378375	0.501322	-0.949349
C51	C	1.388012	0.494093	-1.035141
H52	H	1.471245	0.467299	-1.045586
H53	H	1.374297	0.558337	-1.071558
H54	H	1.326287	0.450801	-1.057654
O55	O	0.918922	0.456284	-0.271958
C56	C	0.952480	0.534984	-0.253873
H57	H	1.024126	0.551366	-0.291487
H58	H	0.975649	0.532919	-0.184393
H59	H	0.884804	0.584305	-0.271112
H60	H	1.043190	0.561915	-0.392167
O61	O	0.896557	0.541334	-0.540704
C62	C	0.928838	0.620440	-0.522802
H63	H	0.953158	0.618418	-0.453525
H64	H	0.860043	0.668957	-0.539183
H65	H	0.999414	0.637912	-0.561222
O66	O	1.588739	0.897061	-0.344769
C67	C	1.648270	0.951794	-0.300460
H68	H	1.645505	1.015760	-0.337797
H69	H	1.734411	0.925986	-0.290334
H70	H	1.613036	0.957895	-0.237420
H71	H	1.389992	0.941110	-0.492698
O72	O	1.048901	0.389859	-0.574210
C73	C	1.016932	0.310511	-0.591573
H74	H	1.003494	0.271375	-0.530582
H75	H	1.081653	0.278088	-0.625774
H76	H	0.939802	0.317906	-0.632402
H77	H	0.924414	0.284358	-0.453900
