data_functionalizedCrystal
_audit_creation_method	'MofGen! by Chris Wilmer'
_symmetry_space_group_name_H-M	'P1'
_symmetry_Int_Tables_number	1
_symmetry_cell_setting	triclinic
loop_
_symmetry_equiv_pos_as_xyz
  x,y,z
_cell_length_a	10.654562
_cell_length_b	14.519709
_cell_length_c	9.730223
_cell_angle_alpha	89.997715
_cell_angle_beta	89.996961
_cell_angle_gamma	84.085124
loop_
_atom_site_label
_atom_site_type_symbol
_atom_site_fract_x
_atom_site_fract_y
_atom_site_fract_z
O1	O	1.666579	0.129584	-0.114384
O2	O	1.300984	0.141913	-0.114367
O3	O	1.493474	0.001560	-0.114363
O4	O	1.474088	0.269936	-0.114387
O5	O	1.493472	0.001564	0.114217
O6	O	1.300982	0.141916	0.114213
O7	O	1.666576	0.129588	0.114196
Zn8	Zn	1.483779	0.135752	0.150497
Zn9	Zn	1.483782	0.135748	-0.150667
O10	O	1.474086	0.269940	0.114193
C11	C	1.254194	0.141007	-0.000075
C12	C	1.114777	0.138291	-0.000068
C13	C	1.049258	0.137026	0.124521
C14	C	0.918260	0.134482	0.124498
C15	C	0.918312	0.134471	-0.124713
C16	C	1.049309	0.137009	-0.124688
C17	C	1.049225	0.137037	0.268400
C18	C	0.918228	0.134492	0.268378
C19	C	1.492570	-0.032802	-0.000073
C20	C	1.489862	-0.135198	-0.000072
C21	C	1.479895	-0.510145	-0.000107
C22	C	1.482663	-0.405823	-0.000097
C23	C	1.484879	-0.322675	-0.000088
C24	C	1.487647	-0.218346	-0.000081
C25	C	1.713367	0.130493	-0.000099
C26	C	1.852783	0.133209	-0.000115
C27	C	1.474990	0.304302	-0.000100
C28	C	1.477698	0.406698	-0.000110
N29	N	1.483786	0.135755	0.356033
N30	N	1.483784	0.135738	-0.356204
C31	C	1.569042	0.073628	0.427961
C32	C	1.569039	0.073617	0.571844
C33	C	1.398519	0.197868	0.571859
C34	C	1.398517	0.197874	0.427978
C35	C	1.667495	0.001896	0.427953
C36	C	1.667492	0.001885	0.571836
H37	H	0.864992	0.133427	-0.226174
C38	C	1.790375	0.032242	0.367641
H39	H	1.786180	0.031219	0.270131
H40	H	1.859959	-0.008976	0.397779
H41	H	1.800781	0.093220	0.397787
H42	H	1.096097	0.073303	0.323659
C43	C	0.854855	0.220592	0.342974
H44	H	0.765963	0.218855	0.342968
H45	H	0.875032	0.274857	0.296959
H46	H	0.884462	0.221166	0.435032
C47	C	1.627165	-0.088610	0.632129
H48	H	1.609214	-0.128905	0.559416
H49	H	1.553897	-0.075070	0.687089
H50	H	1.693528	-0.117695	0.687066
C51	C	1.304744	0.266215	0.348856
H52	H	1.316950	0.257322	0.252861
H53	H	1.318517	0.327857	0.372445
H54	H	1.220906	0.255619	0.372433
C55	C	1.797652	0.023239	0.624600
H56	H	1.797647	0.023222	0.722237
H57	H	1.814967	0.082307	0.592072
H58	H	1.860640	-0.022654	0.592057
C59	C	1.121378	0.138391	-0.261735
H60	H	1.063622	0.137273	-0.335953
H61	H	1.181927	0.085697	-0.266893
H62	H	1.163033	0.193073	-0.266919
C63	C	1.088316	0.227890	0.328719
H64	H	1.015075	0.266590	0.355569
H65	H	1.133114	0.258692	0.261282
H66	H	1.140861	0.214433	0.406542
H67	H	1.329094	0.248442	0.630452
C68	C	1.639412	-0.093849	0.375187
H69	H	1.639416	-0.093840	0.277549
H70	H	1.559120	-0.107017	0.407733
H71	H	1.702389	-0.139757	0.407710
H72	H	0.889286	0.067234	0.313030
