data_functionalizedCrystal
_audit_creation_method	'MofGen! by Chris Wilmer'
_symmetry_space_group_name_H-M	'P1'
_symmetry_Int_Tables_number	1
_symmetry_cell_setting	triclinic
loop_
_symmetry_equiv_pos_as_xyz
  x,y,z
_cell_length_a	17.699083
_cell_length_b	6.394989
_cell_length_c	16.176319
_cell_angle_alpha	90.003737
_cell_angle_beta	89.998611
_cell_angle_gamma	95.109637
loop_
_atom_site_label
_atom_site_type_symbol
_atom_site_fract_x
_atom_site_fract_y
_atom_site_fract_z
O1	O	1.006774	-0.264132	-0.068625
O2	O	0.786747	-0.298496	-0.068651
O3	O	0.899883	0.022766	-0.068638
O4	O	0.893637	-0.585394	-0.068638
O5	O	0.899867	0.022787	0.068855
O6	O	0.786730	-0.298475	0.068842
O7	O	1.006758	-0.264111	0.068868
Cu8	Cu	0.896743	-0.281291	0.081409
Cu9	Cu	0.896762	-0.281315	-0.081193
O10	O	0.893621	-0.585373	0.068855
C11	C	0.758529	-0.297254	0.000092
C12	C	0.674473	-0.293560	0.000081
C13	C	0.627777	-0.482134	0.000082
C14	C	0.548798	-0.478651	0.000092
C15	C	0.516517	-0.286591	0.000097
C16	C	0.563220	-0.098003	0.000099
C17	C	0.642197	-0.101488	0.000094
C18	C	0.244713	-0.083942	0.000119
C19	C	0.165730	-0.080470	0.000122
C20	C	0.151314	-0.461104	0.000118
C21	C	0.230291	-0.464590	0.000113
C22	C	0.276987	-0.276002	0.000119
C23	C	0.362625	-0.279782	0.000109
C24	C	0.430881	-0.282810	0.000101
C25	C	1.034976	-0.265353	0.000123
C26	C	1.119031	-0.269047	0.000128
C27	C	0.898640	0.100592	0.000105
C28	C	0.894866	0.336808	0.000104
N29	N	0.896735	-0.281273	0.195774
N30	N	0.896776	-0.281317	-0.195558
C31	C	0.946848	-0.139076	0.239044
C32	C	0.946852	-0.139074	0.325591
C33	C	0.896746	-0.281280	0.368867
C34	C	0.846627	-0.423484	0.325591
C35	C	0.846620	-0.423474	0.239045
C36	C	0.846653	-0.423523	0.674619
C37	C	0.846666	-0.423526	0.761171
C38	C	0.946885	-0.139123	0.761165
C39	C	0.946878	-0.139113	0.674620
C40	C	0.896757	-0.281308	0.631351
C41	C	0.896753	-0.281306	0.537507
C42	C	0.896753	-0.281294	0.462710
H43	H	0.536930	0.058376	0.000114
C44	C	0.099941	-0.668557	0.000122
N45	N	0.061249	-0.824805	0.000124
C46	C	1.001969	0.017366	0.191449
N47	N	1.043486	0.135210	0.155603
C48	C	0.693563	0.105958	0.000091
N49	N	0.732252	0.262214	0.000091
C50	C	0.296068	0.123511	0.000121
N51	N	0.334752	0.279775	0.000121
C52	C	1.001962	0.017404	0.373184
N53	N	1.043466	0.135290	0.409031
H54	H	0.654053	-0.638531	0.000078
C55	C	1.001997	0.017329	0.627021
N56	N	1.043511	0.135173	0.591171
C57	C	1.002013	0.017315	0.808768
N58	N	1.043534	0.135139	0.844621
C59	C	0.791620	-0.580213	0.627035
N60	N	0.750202	-0.698336	0.591192
C61	C	0.791537	-0.579958	0.808772
N62	N	0.750016	-0.697775	0.844626
C63	C	0.791502	-0.579893	0.373197
N64	N	0.749981	-0.697703	0.409053
H65	H	0.805812	-0.539263	0.203816
C66	C	0.497434	-0.686098	0.000108
N67	N	0.458748	-0.842357	0.000125
H68	H	0.256569	-0.620984	0.000106
H69	H	0.139450	0.075937	0.000126
