data_functionalizedCrystal
_audit_creation_method	'MofGen! by Chris Wilmer'
_symmetry_space_group_name_H-M	'P1'
_symmetry_Int_Tables_number	1
_symmetry_cell_setting	triclinic
loop_
_symmetry_equiv_pos_as_xyz
  x,y,z
_cell_length_a	14.908571
_cell_length_b	14.909229
_cell_length_c	14.908308
_cell_angle_alpha	96.748174
_cell_angle_beta	89.824947
_cell_angle_gamma	96.363944
loop_
_atom_site_label
_atom_site_type_symbol
_atom_site_fract_x
_atom_site_fract_y
_atom_site_fract_z
Zn1	Zn	1.370862	0.473894	0.616449
Zn2	Zn	1.870862	0.973894	1.116449
Zn3	Zn	1.387192	0.617528	0.474839
Zn4	Zn	1.887192	1.117528	0.974839
Zn5	Zn	1.228237	0.456452	0.456385
Zn6	Zn	1.728237	0.956452	0.956385
Zn7	Zn	1.228161	0.616449	0.616425
Zn8	Zn	1.728161	1.116449	1.116425
O9	O	1.303613	0.541081	0.541025
O10	O	1.803613	1.041081	1.041025
O11	O	1.499273	0.500699	0.605398
O12	O	1.999273	1.000699	1.105398
O13	O	1.372971	0.589313	0.346149
O14	O	1.872971	1.089313	0.846149
O15	O	1.240354	0.331696	0.469905
O16	O	1.740354	0.831696	0.969905
O17	O	1.511270	0.606226	0.501357
O18	O	2.011270	1.106226	1.001357
O19	O	1.345140	0.344510	0.587503
O20	O	1.845140	0.844510	1.087503
O21	O	1.256188	0.470971	0.332591
O22	O	1.756188	0.970971	0.832591
O23	O	1.101982	0.469925	0.469881
O24	O	1.601982	0.969925	0.969881
O25	O	1.240226	0.604387	0.742670
O26	O	1.740226	1.104387	1.242670
O27	O	1.101927	0.587474	0.587462
O28	O	1.601927	1.087474	1.087462
O29	O	1.345067	0.499653	0.742688
O30	O	1.845067	0.999653	1.242688
O31	O	1.372899	0.744455	0.501334
O32	O	1.872899	1.244455	1.001334
O33	O	1.256060	0.743663	0.605356
O34	O	1.756060	1.243663	1.105356
C35	C	1.069221	0.526691	0.526667
C36	C	1.569221	1.026691	1.026667
C37	C	0.968947	0.520557	0.520547
C38	C	1.468947	1.020557	1.020547
C39	C	1.316266	0.777009	0.555366
C40	C	1.816266	1.277009	1.055366
C41	C	1.321760	0.877947	0.561537
C42	C	1.821760	1.377947	1.061537
C43	C	1.290817	0.553845	0.776327
C44	C	1.790817	1.053845	1.276327
C45	C	1.285363	0.559284	0.876599
C46	C	1.785363	1.059284	1.376599
C47	C	0.780531	0.631608	0.631341
C48	C	1.280531	1.131608	1.131341
C49	C	0.686315	0.625848	0.625594
C50	C	1.186315	1.125848	1.125594
C51	C	0.686296	0.503275	0.503313
C52	C	1.186296	1.003275	1.003313
C53	C	0.780512	0.509034	0.509059
C54	C	1.280512	1.009034	1.009059
C55	C	0.827627	0.573204	0.573075
C56	C	1.327627	1.073204	1.073075
C57	C	0.921845	0.578967	0.578816
C58	C	1.421845	1.078967	1.078816
C59	C	0.921824	0.456390	0.456539
C60	C	1.421824	0.956390	0.956539
C61	C	0.827608	0.450630	0.450793
C62	C	1.327608	0.950630	0.950793
C63	C	1.538920	0.555528	0.555439
C64	C	2.038920	1.055528	1.055439
C65	C	1.639194	0.561685	0.561581
C66	C	2.139194	1.061685	1.061581
C67	C	1.223081	1.054431	0.450577
C68	C	1.723081	1.554431	0.950577
C69	C	1.228240	1.149271	0.456372
C70	C	1.728240	1.649271	0.956372
C71	C	1.337242	1.162469	0.578917
C72	C	1.837242	1.662469	1.078917
C73	C	1.332083	1.067629	0.573122
C74	C	1.832083	1.567629	1.073122
C75	C	1.274999	1.013613	0.508951
C76	C	1.774999	1.513613	1.008951
C77	C	1.269836	0.918771	0.503161
C78	C	1.769836	1.418771	1.003161
C79	C	1.378842	0.931971	0.625700
C80	C	1.878842	1.431971	1.125700
C81	C	1.384002	1.026811	0.631495
C82	C	1.884002	1.526811	1.131495
C83	C	1.290880	1.304231	0.526653
C84	C	1.790880	1.804231	1.026653
C85	C	1.285318	1.203292	0.520540
C86	C	1.785318	1.703292	1.020540
C87	C	1.316408	0.528304	0.306636
C88	C	1.816408	1.028304	0.806636
C89	C	1.322022	0.522620	0.206360
C90	C	1.822022	1.022620	0.706360
C91	C	1.384284	0.460424	1.065040
C92	C	1.884284	0.960424	1.565040
C93	C	1.379163	0.465532	1.159255
C94	C	1.879163	0.965532	1.659255
C95	C	1.269996	0.574602	1.159244
C96	C	1.769996	1.074602	1.659244
C97	C	1.275117	0.569494	1.065030
C98	C	1.775117	1.069494	1.565030
C99	C	1.332264	0.512404	1.017931
C100	C	1.832264	1.012404	1.517931
C101	C	1.337389	0.507302	0.923715
C102	C	1.837389	1.007302	1.423715
C103	C	1.228218	0.616367	0.923706
C104	C	1.728218	1.116367	1.423706
C105	C	1.223097	0.621475	1.017920
C106	C	1.723097	1.121475	1.517920
H107	H	0.960204	0.631219	0.630939
H108	H	1.460204	1.131219	1.130939
H109	H	1.421521	0.423201	1.197607
H110	H	1.921521	0.923201	1.697607
H111	H	1.185862	0.658696	0.885340
H112	H	1.685862	1.158696	1.385340
O113	O	0.781944	0.388345	0.388495
O114	O	1.281944	0.888345	0.888495
C115	C	0.810875	0.404600	0.301151
C116	C	1.310875	0.904600	0.801151
H117	H	0.881263	0.443582	0.305519
H118	H	1.381263	0.943582	0.805519
H119	H	0.812753	0.337012	0.257007
H120	H	1.312753	0.837012	0.757007
H121	H	0.762004	0.446348	0.270299
H122	H	1.262004	0.946348	0.770299
O123	O	1.214550	0.630023	1.205145
O124	O	1.714550	1.130023	1.705145
C125	C	1.221161	0.623353	1.298399
C126	C	1.721161	1.123353	1.798399
H127	H	1.288496	0.598596	1.313724
H128	H	1.788496	1.098596	1.813724
H129	H	1.216719	0.692926	1.337974
H130	H	1.716719	1.192926	1.837974
H131	H	1.163614	0.573144	1.318906
H132	H	1.663614	1.073144	1.818906
H133	H	1.421115	0.898727	0.673235
H134	H	1.921115	1.398727	1.173235
O135	O	0.826355	0.694034	0.693398
O136	O	1.326355	1.194034	1.193398
C137	C	0.886805	0.753128	0.648825
C138	C	1.386805	1.253128	1.148825
H139	H	0.862554	0.753033	0.576366
H140	H	1.362554	1.253033	1.076366
H141	H	0.889875	0.824892	0.685656
H142	H	1.389875	1.324892	1.185656
H143	H	0.956865	0.729245	0.648411
H144	H	1.456865	1.229245	1.148411
H145	H	1.176568	0.667954	1.056281
H146	H	1.676568	1.167954	1.556281
H147	H	0.647973	0.673405	0.673043
H148	H	1.147973	1.173405	1.173043
H149	H	0.960180	0.408835	0.409092
H150	H	1.460180	0.908835	0.909092
O151	O	1.392551	1.214997	0.641334
O152	O	1.892551	1.714997	1.141334
C153	C	1.340945	1.269902	0.699728
C154	C	1.840945	1.769902	1.199728
H155	H	1.268040	1.237305	0.699145
H156	H	1.768040	1.737305	1.199145
H157	H	1.369787	1.276716	0.771244
H158	H	1.869787	1.776716	1.271244
H159	H	1.343276	1.340079	0.676016
H160	H	1.843276	1.840079	1.176016
O161	O	0.640382	0.440994	0.441188
O162	O	1.140382	0.940994	0.941188
C163	C	0.547122	0.448404	0.448649
C164	C	1.047122	0.948404	0.948649
H165	H	0.536428	0.519351	0.481526
H166	H	1.036428	1.019351	0.981526
H167	H	0.514608	0.436236	0.378533
H168	H	1.014608	0.936236	0.878533
H169	H	0.514917	0.395619	0.491921
H170	H	1.014917	0.895619	0.991921
H171	H	1.223353	0.874792	0.450912
H172	H	1.723353	1.374792	0.950912
O173	O	1.167524	1.001913	0.388371
O174	O	1.667524	1.501913	0.888371
C175	C	1.103460	0.946277	0.432768
C176	C	1.603460	1.446277	0.932768
H177	H	1.095521	0.978349	0.505215
H178	H	1.595521	1.478349	1.005215
H179	H	1.035780	0.939236	0.395774
H180	H	1.535780	1.439236	0.895774
H181	H	1.127272	0.876257	0.433217
H182	H	1.627272	1.376257	0.933217
H183	H	1.185963	1.182500	0.408838
H184	H	1.685963	1.682500	0.908838
H185	H	1.430480	1.070803	0.683739
H186	H	1.930480	1.570803	1.183739
H187	H	1.430821	0.413944	1.026692
H188	H	1.930821	0.913944	1.526692
O189	O	1.392773	0.451785	0.877853
O190	O	1.892773	0.951785	1.377853
C191	C	1.341222	0.387019	0.816667
C192	C	1.841222	0.887019	1.316667
H193	H	1.275342	0.414093	0.800309
H194	H	1.775342	0.914093	1.300309
H195	H	1.380917	0.373503	0.751927
H196	H	1.880917	0.873503	1.251927
H197	H	1.325722	0.321089	0.848286
H198	H	1.825722	0.821089	1.348286
