data_functionalizedCrystal
_audit_creation_method	'MofGen! by Chris Wilmer'
_symmetry_space_group_name_H-M	'P1'
_symmetry_Int_Tables_number	1
_symmetry_cell_setting	triclinic
loop_
_symmetry_equiv_pos_as_xyz
  x,y,z
_cell_length_a	21.295417
_cell_length_b	21.295418
_cell_length_c	21.295411
_cell_angle_alpha	90.043738
_cell_angle_beta	89.978356
_cell_angle_gamma	89.953681
loop_
_atom_site_label
_atom_site_type_symbol
_atom_site_fract_x
_atom_site_fract_y
_atom_site_fract_z
Zn1	Zn	-0.250415	-0.962356	-0.356234
Zn2	Zn	0.249585	-0.462356	0.143766
Zn3	Zn	-0.355667	-0.962258	-0.250959
Zn4	Zn	0.144333	-0.462258	0.249041
Zn5	Zn	-0.250445	-0.857079	-0.250943
Zn6	Zn	0.249555	-0.357079	0.249057
Zn7	Zn	-0.355680	-0.857048	-0.356155
Zn8	Zn	0.144320	-0.357048	0.143845
O9	O	-0.303052	-0.909685	-0.303573
O10	O	0.196948	-0.409685	0.196427
O11	O	-0.264360	-1.050432	-0.342308
O12	O	0.235640	-0.550432	0.157692
O13	O	-0.341716	-0.948278	-0.162867
O14	O	0.158284	-0.448278	0.337133
O15	O	-0.162351	-0.871098	-0.264937
O16	O	0.337649	-0.371098	0.235063
O17	O	-0.341688	-1.050361	-0.264963
O18	O	0.158312	-0.550361	0.235037
O19	O	-0.162330	-0.948444	-0.342293
O20	O	0.337670	-0.448444	0.157707
O21	O	-0.264410	-0.871003	-0.162856
O22	O	0.235590	-0.371003	0.337144
O23	O	-0.264422	-0.768985	-0.264861
O24	O	0.235578	-0.268985	0.235139
O25	O	-0.341709	-0.871046	-0.444255
O26	O	0.158291	-0.371046	0.055745
O27	O	-0.341738	-0.768963	-0.342160
O28	O	0.158262	-0.268963	0.157840
O29	O	-0.264372	-0.948415	-0.444313
O30	O	0.235628	-0.448415	0.055687
O31	O	-0.443758	-0.948248	-0.264887
O32	O	0.056242	-0.448248	0.235113
O33	O	-0.443767	-0.870951	-0.342175
O34	O	0.056233	-0.370951	0.157825
C35	C	-0.303085	-0.746134	-0.303500
C36	C	0.196915	-0.246134	0.196500
C37	C	-0.303114	-0.676166	-0.303484
C38	C	0.196886	-0.176166	0.196516
C39	C	-0.466603	-0.909603	-0.303538
C40	C	0.033397	-0.409603	0.196462
C41	C	-0.536571	-0.909625	-0.303544
C42	C	-0.036571	-0.409625	0.196456
C43	C	-0.303038	-0.909738	-0.467763
C44	C	0.196962	-0.409738	0.032237
C45	C	-0.303033	-0.909760	-0.537731
C46	C	0.196967	-0.409760	-0.037731
C47	C	-0.569412	-0.949910	-0.263342
C48	C	-0.069412	-0.449910	0.236658
C49	C	-0.635155	-0.949939	-0.263356
C50	C	-0.135155	-0.449939	0.236644
C51	C	-0.668054	-0.909673	-0.303566
C52	C	-0.168054	-0.409673	0.196434
C53	C	-0.635205	-0.869386	-0.343776
C54	C	-0.135205	-0.369386	0.156224
C55	C	-0.569464	-0.869362	-0.343765
C56	C	-0.069464	-0.369362	0.156235
N57	N	-0.771336	-0.854606	-0.308340
N58	N	-0.271336	-0.354606	0.191660
N59	N	-0.833787	-0.854630	-0.308347
N60	N	-0.333787	-0.354630	0.191653
C61	C	-0.866129	-0.909743	-0.303602
C62	C	-0.366129	-0.409743	0.196398
N63	N	-0.833659	-0.964832	-0.298838
N64	N	-0.333659	-0.464832	0.201162
N65	N	-0.771202	-0.964807	-0.298828
N66	N	-0.271202	-0.464807	0.201172
C67	C	-0.739339	-0.909695	-0.303582
C68	C	-0.239339	-0.409695	0.196418
C69	C	-0.970255	-0.950063	-0.263413
C70	C	-0.470255	-0.450063	0.236587
C71	C	-1.035999	-0.950094	-0.263431
C72	C	-0.535999	-0.450094	0.236569
C73	C	-1.036048	-0.869535	-0.343848
C74	C	-0.536048	-0.369535	0.156152
C75	C	-0.970305	-0.869510	-0.343833
C76	C	-0.470305	-0.369510	0.156167
C77	C	-0.937413	-0.909773	-0.303612
C78	C	-0.437413	-0.409773	0.196388
C79	C	-0.138861	-0.909785	-0.303622
C80	C	0.361139	-0.409785	0.196378
C81	C	-0.068893	-0.909828	-0.303642
C82	C	0.431107	-0.409828	0.196358
C83	C	-0.303019	-1.073876	-0.303646
C84	C	0.196981	-0.573876	0.196354
C85	C	-0.303005	-1.143844	-0.303677
C86	C	0.196995	-0.643844	0.196323
C87	C	-0.343426	-0.643304	-0.343674
C88	C	0.156574	-0.143304	0.156326
C89	C	-0.343410	-0.577561	-0.343702
C90	C	0.156590	-0.077561	0.156298
C91	C	-0.303090	-0.544683	-0.303530
C92	C	0.196910	-0.044683	0.196470
C93	C	-0.262770	-0.577553	-0.263337
C94	C	0.237230	-0.077553	0.236663
C95	C	-0.262783	-0.643294	-0.263315
C96	C	0.237217	-0.143294	0.236685
N97	N	-0.298163	-0.441407	-0.248472
N98	N	0.201837	0.058593	0.251528
N99	N	-0.298155	-0.378956	-0.248495
N100	N	0.201845	0.121044	0.251505
C101	C	-0.303050	-0.346608	-0.303596
C102	C	0.196950	0.153392	0.196404
N103	N	-0.307965	-0.379072	-0.358675
N104	N	0.192035	0.120928	0.141325
N105	N	-0.307976	-0.441529	-0.358650
N106	N	0.192024	0.058471	0.141350
C107	C	-0.303072	-0.473398	-0.303550
C108	C	0.196928	0.026602	0.196450
C109	C	-0.343346	-0.242461	-0.343820
C110	C	0.156654	0.257539	0.156180
C111	C	-0.343326	-0.176717	-0.343849
C112	C	0.156674	0.323283	0.156151
C113	C	-0.262690	-0.176710	-0.263479
C114	C	0.237310	0.323290	0.236521
C115	C	-0.262707	-0.242453	-0.263455
C116	C	0.237293	0.257547	0.236545
C117	C	-0.303038	-0.275324	-0.303625
C118	C	0.196962	0.224676	0.196375
C119	C	-0.262761	-0.950044	-0.570629
C120	C	0.237239	-0.450044	-0.070629
C121	C	-0.262734	-0.950043	-0.636371
C122	C	0.237266	-0.450043	-0.136371
C123	C	-0.302989	-0.909765	-0.669214
C124	C	0.197011	-0.409765	-0.169214
C125	C	-0.343263	-0.869473	-0.636308
C126	C	0.156737	-0.369473	-0.136308
C127	C	-0.343285	-0.869470	-0.570567
C128	C	0.156715	-0.369470	-0.070567
N129	N	-0.358058	-0.904908	-0.772428
N130	N	0.141942	-0.404908	-0.272428
N131	N	-0.358036	-0.904914	-0.834879
N132	N	0.141964	-0.404914	-0.334879
C133	C	-0.302926	-0.909769	-0.867289
C134	C	0.197074	-0.409769	-0.367289
N135	N	-0.247837	-0.914629	-0.834888
N136	N	0.252163	-0.414629	-0.334888
N137	N	-0.247860	-0.914627	-0.772430
N138	N	0.252140	-0.414627	-0.272430
C139	C	-0.302970	-0.909763	-0.740499
C140	C	0.197030	-0.409763	-0.240499
C141	C	-0.262621	-0.950054	-0.971472
C142	C	0.237379	-0.450054	-0.471472
C143	C	-0.262593	-0.950049	-1.037216
C144	C	0.237407	-0.450049	-0.537216
C145	C	-0.343128	-0.869482	-1.037151
C146	C	0.156872	-0.369482	-0.537151
C147	C	-0.343151	-0.869484	-0.971409
C148	C	0.156849	-0.369484	-0.471409
C149	C	-0.302898	-0.909773	-0.938573
C150	C	0.197102	-0.409773	-0.438573
C151	C	-0.303019	-0.909670	-0.140021
C152	C	0.196981	-0.409670	0.359979
C153	C	-0.302848	-0.909769	-0.070054
C154	C	0.197152	-0.409769	0.429946
H155	H	-0.661899	-0.982746	-0.230619
H156	H	-0.161899	-0.482746	0.269381
H157	H	-0.229795	-0.982852	-1.064000
H158	H	0.270205	-0.482852	-0.564000
C159	C	-0.387400	-0.825163	-1.073270
C160	C	0.112600	-0.325163	-0.573270
C161	C	-0.431695	-0.780845	-1.037079
C162	C	0.068305	-0.280845	-0.537079
C163	C	-0.475961	-0.736519	-1.073201
C164	C	0.024039	-0.236519	-0.573201
C165	C	-0.475932	-0.736511	-1.145513
C166	C	0.024068	-0.236511	-0.645513
C167	C	-0.431635	-0.780831	-1.181709
C168	C	0.068365	-0.280831	-0.681709
C169	C	-0.387369	-0.825157	-1.145587
C170	C	0.112631	-0.325157	-0.645587
H171	H	-0.431718	-0.780850	-0.983545
H172	H	0.068282	-0.280850	-0.483545
H173	H	-0.508753	-0.703710	-1.046406
H174	H	-0.008753	-0.203710	-0.546406
H175	H	-0.508701	-0.703697	-1.172253
H176	H	-0.008701	-0.203697	-0.672253
H177	H	-0.431612	-0.780826	-1.235242
H178	H	0.068388	-0.280826	-0.735242
H179	H	-0.354577	-0.857966	-1.172381
H180	H	0.145423	-0.357966	-0.672381
H181	H	-0.229954	-0.670050	-0.230588
H182	H	0.270046	-0.170050	0.269412
H183	H	-0.376152	-0.149962	-0.376580
H184	H	0.123848	0.350038	0.123420
C185	C	-0.387447	-0.825170	-0.935212
C186	C	0.112553	-0.325170	-0.435212
C187	C	-0.436874	-0.852409	-0.890025
C188	C	0.063126	-0.352409	-0.390025
C189	C	-0.481167	-0.808089	-0.853826
C190	C	0.018833	-0.308089	-0.353826
C191	C	-0.476032	-0.736532	-0.862812
C192	C	0.023968	-0.236532	-0.362812
C193	C	-0.426603	-0.709290	-0.908001
C194	C	0.073397	-0.209290	-0.408001
C195	C	-0.382310	-0.753609	-0.944200
C196	C	0.117690	-0.253609	-0.444200
H197	H	-0.440677	-0.905383	-0.883371
H198	H	0.059323	-0.405383	-0.383371
H199	H	-0.517758	-0.828256	-0.820374
H200	H	-0.017758	-0.328256	-0.320374
H201	H	-0.508820	-0.703724	-0.836015
H202	H	-0.008820	-0.203724	-0.336015
H203	H	-0.422800	-0.656315	-0.914655
H204	H	0.077200	-0.156315	-0.414655
H205	H	-0.345719	-0.733443	-0.977652
H206	H	0.154281	-0.233443	-0.477652
C207	C	-0.387784	-0.679464	-0.387863
C208	C	0.112216	-0.179464	0.112137
C209	C	-0.360589	-0.724741	-0.437319
C210	C	0.139411	-0.224741	0.062681
C211	C	-0.404946	-0.760904	-0.481508
C212	C	0.095054	-0.260904	0.018492
C213	C	-0.476498	-0.751789	-0.476241
C214	C	0.023502	-0.251789	0.023759
C215	C	-0.503697	-0.706509	-0.426782
C216	C	-0.003697	-0.206509	0.073218
C217	C	-0.459340	-0.670347	-0.382593
C218	C	0.040660	-0.170347	0.117407
H219	H	-0.307618	-0.731490	-0.441220
H220	H	0.192382	-0.231490	0.058780
H221	H	-0.384811	-0.794423	-0.518120
H222	H	0.115189	-0.294423	-0.018120
H223	H	-0.509334	-0.778559	-0.508952
H224	H	-0.009334	-0.278559	-0.008952
H225	H	-0.556668	-0.699760	-0.422881
H226	H	-0.056668	-0.199760	0.077119
H227	H	-0.479475	-0.636828	-0.345981
H228	H	0.020525	-0.136828	0.154019
C229	C	-0.934177	-0.825190	-0.388053
C230	C	-0.434177	-0.325190	0.111947
C231	C	-0.943303	-0.753635	-0.382828
C232	C	-0.443303	-0.253635	0.117172
C233	C	-0.907176	-0.709315	-0.427053
C234	C	-0.407176	-0.209315	0.072947
C235	C	-0.861923	-0.736551	-0.476503
C236	C	-0.361923	-0.236551	0.023497
C237	C	-0.852796	-0.808111	-0.481730
C238	C	-0.352796	-0.308111	0.018270
C239	C	-0.888923	-0.852430	-0.437505
C240	C	-0.388923	-0.352430	0.062495
H241	H	-0.976803	-0.733469	-0.346221
H242	H	-0.476803	-0.233469	0.153779
H243	H	-0.913933	-0.656342	-0.423184
H244	H	-0.413933	-0.156342	0.076816
H245	H	-0.835180	-0.703744	-0.509242
H246	H	-0.335180	-0.203744	-0.009242
H247	H	-0.819296	-0.828276	-0.518338
H248	H	-0.319296	-0.328276	-0.018338
H249	H	-0.882166	-0.905404	-0.441375
H250	H	-0.382166	-0.405404	0.058625
H251	H	-1.062737	-0.982902	-0.230695
H252	H	-0.562737	-0.482902	0.269305
H253	H	-0.229940	-0.550779	-0.230630
H254	H	0.270060	-0.050779	0.269370
C255	C	-0.934070	-0.994360	-0.219179
C256	C	-0.434070	-0.494360	0.280821
C257	C	-0.888800	-1.043749	-0.246514
C258	C	-0.388800	-0.543749	0.253486
C259	C	-0.852618	-1.088047	-0.202281
C260	C	-0.352618	-0.588047	0.297719
C261	C	-0.861707	-1.082957	-0.130715
C262	C	-0.361707	-0.582957	0.369285
C263	C	-0.906979	-1.033567	-0.103377
C264	C	-0.406979	-0.533567	0.396623
C265	C	-0.943160	-0.989268	-0.147609
C266	C	-0.443160	-0.489268	0.352391
H267	H	-0.882071	-1.047518	-0.299495
H268	H	-0.382071	-0.547518	0.200505
H269	H	-0.819105	-1.124609	-0.222519
H270	H	-0.319105	-0.624609	0.277481
H271	H	-0.834923	-1.115750	-0.097971
H272	H	-0.334923	-0.615750	0.402029
H273	H	-0.913708	-1.029797	-0.050396
H274	H	-0.413708	-0.529797	0.449604
H275	H	-0.976674	-0.952706	-0.127372
H276	H	-0.476674	-0.452706	0.372628
H277	H	-0.542633	-0.982696	-0.230593
H278	H	-0.042633	-0.482696	0.269407
H279	H	-0.229937	-0.982846	-0.663162
H280	H	0.270063	-0.482846	-0.163162
C281	C	-0.671391	-0.825092	-0.388008
C282	C	-0.171391	-0.325092	0.111992
C283	C	-0.743703	-0.825114	-0.388019
C284	C	-0.243703	-0.325114	0.111981
C285	C	-0.779888	-0.780821	-0.432256
C286	C	-0.279888	-0.280821	0.067744
C287	C	-0.743760	-0.736507	-0.476480
C288	C	-0.243760	-0.236507	0.023520
C289	C	-0.671443	-0.736484	-0.476470
C290	C	-0.171443	-0.236484	0.023530
C291	C	-0.635259	-0.780776	-0.432234
C292	C	-0.135259	-0.280776	0.067766
H293	H	-0.770451	-0.857919	-0.355280
H294	H	-0.270451	-0.357919	0.144720
H295	H	-0.833422	-0.780839	-0.432263
H296	H	-0.333422	-0.280839	0.067737
H297	H	-0.770547	-0.703719	-0.509226
H298	H	-0.270547	-0.203719	-0.009226
H299	H	-0.644696	-0.703678	-0.509209
H300	H	-0.144696	-0.203678	-0.009209
H301	H	-0.581725	-0.780759	-0.432226
H302	H	-0.081725	-0.280759	0.067774
H303	H	-0.376038	-0.836676	-0.663053
H304	H	0.123962	-0.336676	-0.163053
C305	C	-1.072228	-0.825239	-0.388079
C306	C	-0.572228	-0.325239	0.111921
C307	C	-1.144541	-0.825261	-0.388093
C308	C	-0.644541	-0.325261	0.111907
C309	C	-1.180725	-0.780965	-0.432326
C310	C	-0.680725	-0.280965	0.067674
C311	C	-1.144596	-0.736647	-0.476545
C312	C	-0.644596	-0.236647	0.023455
C313	C	-1.072279	-0.736623	-0.476533
C314	C	-0.572279	-0.236623	0.023467
C315	C	-1.036095	-0.780919	-0.432300
C316	C	-0.536095	-0.280919	0.067700
H317	H	-1.171289	-0.858070	-0.355357
H318	H	-0.671289	-0.358070	0.144643
H319	H	-1.234259	-0.780984	-0.432335
H320	H	-0.734259	-0.280984	0.067665
H321	H	-1.171382	-0.703856	-0.509289
H322	H	-0.671382	-0.203856	-0.009289
H323	H	-1.045531	-0.703814	-0.509268
H324	H	-0.545531	-0.203814	-0.009268
H325	H	-0.982562	-0.780901	-0.432291
H326	H	-0.482562	-0.280901	0.067709
H327	H	-0.229857	-0.149942	-0.230773
H328	H	0.270143	0.350058	0.269227
C329	C	-0.387704	-0.278625	-0.388009
C330	C	0.112296	0.221375	0.111991
C331	C	-0.432041	-0.242474	-0.432226
C332	C	0.067959	0.257526	0.067774
C333	C	-0.476399	-0.278635	-0.476415
C334	C	0.023601	0.221365	0.023585
C335	C	-0.476419	-0.350948	-0.476388
C336	C	0.023581	0.149052	0.023612
C337	C	-0.432080	-0.387103	-0.432169
C338	C	0.067920	0.112897	0.067831
C339	C	-0.387723	-0.350942	-0.387980
C340	C	0.112277	0.149058	0.112020
H341	H	-0.432028	-0.188940	-0.432247
H342	H	0.067972	0.311060	0.067753
H343	H	-0.509222	-0.251871	-0.509148
H344	H	-0.009222	0.248129	-0.009148
H345	H	-0.509256	-0.377717	-0.509099
H346	H	-0.009256	0.122283	-0.009099
H347	H	-0.432094	-0.440637	-0.432148
H348	H	0.067906	0.059363	0.067852
H349	H	-0.354900	-0.377706	-0.355247
H350	H	0.145100	0.122294	0.144753
H351	H	-0.542724	-0.836557	-0.376503
H352	H	-0.042724	-0.336557	0.123497
H353	H	-0.229842	-0.982857	-0.944736
H354	H	0.270158	-0.482857	-0.444736
C355	C	-0.387758	-0.541404	-0.387911
C356	C	0.112242	-0.041404	0.112089
C357	C	-0.360552	-0.496289	-0.437400
C358	C	0.139448	0.003711	0.062600
C359	C	-0.404900	-0.460135	-0.481608
C360	C	0.095100	0.039865	0.018392
C361	C	-0.476455	-0.469096	-0.476327
C362	C	0.023545	0.030904	0.023673
C363	C	-0.503666	-0.514213	-0.426836
C364	C	-0.003666	-0.014213	0.073164
C365	C	-0.459317	-0.550367	-0.382627
C366	C	0.040683	-0.050367	0.117373
H367	H	-0.307579	-0.489653	-0.441311
H368	H	0.192421	0.010347	0.058689
H369	H	-0.384757	-0.426736	-0.518245
H370	H	0.115243	0.073264	-0.018245
H371	H	-0.509285	-0.442332	-0.509052
H372	H	-0.009285	0.057668	-0.009052
H373	H	-0.556638	-0.520848	-0.422924
H374	H	-0.056638	-0.020848	0.077076
H375	H	-0.479460	-0.583766	-0.345991
H376	H	0.020540	-0.083766	0.154009
H377	H	-0.229984	-0.982850	-0.543898
H378	H	0.270016	-0.482850	-0.043898
C379	C	-0.218374	-0.278605	-0.219234
C380	C	0.281626	0.221395	0.280766
C381	C	-0.174025	-0.242445	-0.175040
C382	C	0.325975	0.257555	0.324960
C383	C	-0.129691	-0.278597	-0.130816
C384	C	0.370309	0.221403	0.369184
C385	C	-0.129707	-0.350910	-0.130785
C386	C	0.370293	0.149090	0.369215
C387	C	-0.174057	-0.387074	-0.174981
C388	C	0.325943	0.112926	0.325019
C389	C	-0.218391	-0.350922	-0.219205
C390	C	0.281609	0.149078	0.280795
H391	H	-0.174012	-0.188911	-0.175061
H392	H	0.325988	0.311089	0.324939
H393	H	-0.096860	-0.251826	-0.098099
H394	H	0.403140	0.248174	0.401901
H395	H	-0.096888	-0.377672	-0.098048
H396	H	0.403112	0.122328	0.401952
H397	H	-0.174070	-0.440608	-0.174960
H398	H	0.325930	0.059392	0.325040
H399	H	-0.251222	-0.377694	-0.251922
H400	H	0.248778	0.122306	0.248078
H401	H	-0.376078	-0.836663	-0.543782
H402	H	0.123922	-0.336663	-0.043782
