data_functionalizedCrystal
_audit_creation_method	'MofGen! by Chris Wilmer'
_symmetry_space_group_name_H-M	'P1'
_symmetry_Int_Tables_number	1
_symmetry_cell_setting	triclinic
loop_
_symmetry_equiv_pos_as_xyz
  x,y,z
_cell_length_a	12.594517
_cell_length_b	12.594516
_cell_length_c	16.625548
_cell_angle_alpha	90.008008
_cell_angle_beta	90.009454
_cell_angle_gamma	90.011248
loop_
_atom_site_label
_atom_site_type_symbol
_atom_site_fract_x
_atom_site_fract_y
_atom_site_fract_z
Zn1	Zn	1.627164	-0.423935	0.455954
Zn2	Zn	2.127164	0.076065	0.955954
Zn3	Zn	1.627108	-0.601883	0.321129
Zn4	Zn	2.127108	-0.101883	0.821129
Zn5	Zn	1.449208	-0.423917	0.321132
Zn6	Zn	1.949208	0.076083	0.821132
Zn7	Zn	1.449163	-0.601870	0.455916
Zn8	Zn	1.949163	-0.101870	0.955916
O9	O	1.538161	-0.512901	0.388532
O10	O	2.038161	-0.012901	0.888532
O11	O	1.776103	-0.447553	0.438084
O12	O	2.276103	0.052447	0.938084
O13	O	1.603504	-0.578274	0.208297
O14	O	2.103504	-0.078274	0.708297
O15	O	1.472856	-0.274974	0.339033
O16	O	1.972856	0.225026	0.839033
O17	O	1.776061	-0.578291	0.339028
O18	O	2.276061	-0.078291	0.839028
O19	O	1.603600	-0.274987	0.438086
O20	O	2.103600	0.225013	0.938086
O21	O	1.472802	-0.447523	0.208299
O22	O	1.972802	0.052477	0.708299
O23	O	1.300256	-0.447510	0.338996
O24	O	1.800256	0.052490	0.838996
O25	O	1.472781	-0.578268	0.568753
O26	O	1.972781	-0.078268	1.068753
O27	O	1.300224	-0.578251	0.438022
O28	O	1.800224	-0.078251	0.938022
O29	O	1.603557	-0.447540	0.568781
O30	O	2.103557	0.052460	1.068781
O31	O	1.603461	-0.750827	0.338992
O32	O	2.103461	-0.250827	0.838992
O33	O	1.472726	-0.750817	0.438019
O34	O	1.972726	-0.250817	0.938019
C35	C	1.261620	-0.512878	0.388505
C36	C	1.761620	-0.012878	0.888505
C37	C	1.143314	-0.512894	0.388513
C38	C	1.643314	-0.012894	0.888513
C39	C	1.003285	-0.441706	0.334776
C40	C	1.503285	0.058294	0.834776
C41	C	1.074120	-0.415806	0.408353
C42	C	1.574120	0.084194	0.908353
C43	C	1.074051	-0.538746	0.314944
C44	C	1.574051	-0.038746	0.814944
C45	C	1.003364	-0.486986	0.462188
C46	C	1.503364	0.013014	0.962188
C47	C	1.003289	-0.609971	0.368729
C48	C	1.503289	-0.109971	0.868729
C49	C	1.074092	-0.584108	0.442357
C50	C	1.574092	-0.084108	0.942357
C51	C	1.538112	-0.789442	0.388518
C52	C	2.038112	-0.289442	0.888518
C53	C	1.538188	-0.907748	0.388539
C54	C	2.038188	-0.407748	0.888539
C55	C	1.609377	-0.976968	0.334736
C56	C	2.109377	-0.476968	0.834736
C57	C	1.635366	-1.047698	0.408331
C58	C	2.135366	-0.547698	0.908331
C59	C	1.512332	-1.047816	0.314991
C60	C	2.012332	-0.547816	0.814991
C61	C	1.564226	-0.976920	0.462173
C62	C	2.064226	-0.476920	0.962173
C63	C	1.441147	-0.977032	0.368784
C64	C	1.941147	-0.477032	0.868784
C65	C	1.467099	-1.047730	0.442430
C66	C	1.967099	-0.547730	0.942430
C67	C	1.815782	-0.512925	0.388560
C68	C	2.315782	-0.012925	0.888560
C69	C	1.934087	-0.512936	0.388572
C70	C	2.434087	-0.012936	0.888572
C71	C	1.538170	-0.512904	0.598841
C72	C	2.038170	-0.012904	1.098841
C73	C	1.538174	-0.512906	0.688462
C74	C	2.038174	-0.012906	1.188462
C75	C	1.538239	-0.235281	0.388564
C76	C	2.038239	0.264719	0.888564
C77	C	1.538273	-0.116975	0.388578
C78	C	2.038273	0.383025	0.888578
C79	C	1.538130	-0.512915	1.016638
C80	C	2.038130	-0.012915	1.516638
C81	C	1.538139	-0.512916	0.925330
C82	C	2.038139	-0.012916	1.425330
C83	C	1.538153	-0.512911	0.852553
C84	C	2.038153	-0.012911	1.352553
C85	C	1.538161	-0.512910	0.761239
C86	C	2.038161	-0.012910	1.261239
C87	C	1.538141	-0.512920	1.179042
C88	C	2.038141	-0.012920	1.679042
C89	C	1.538131	-0.512912	1.089421
C90	C	2.038131	-0.012912	1.589421
H91	H	1.105104	-0.560593	0.252703
H92	H	1.605104	-0.060593	0.752703
Br93	Br	1.125963	-0.279004	0.436303
Br94	Br	1.625963	0.220996	0.936303
Br95	Br	1.304337	-0.925259	0.340866
Br96	Br	1.804337	-0.425259	0.840866
H97	H	0.972197	-0.381442	0.289364
H98	H	1.472197	0.118558	0.789364
Br99	Br	0.951835	-0.450412	0.565959
Br100	Br	1.451835	0.049588	1.065959
Br101	Br	1.125584	-0.684483	0.518222
Br102	Br	1.625584	-0.184483	1.018222
H103	H	1.669589	-0.945896	0.289277
H104	H	2.169589	-0.445896	0.789277
Br105	Br	0.951387	-0.746735	0.340754
Br106	Br	1.451387	-0.246735	0.840754
Br107	Br	1.772211	-1.099410	0.436235
Br108	Br	2.272211	-0.599410	0.936235
H109	H	1.586049	-0.945910	0.524441
H110	H	2.086049	-0.445910	1.024441
H111	H	1.406933	-1.078605	0.487998
H112	H	1.906933	-0.578605	0.987998
H113	H	1.490428	-1.078958	0.252777
H114	H	1.990428	-0.578958	0.752777
