data_functionalizedCrystal
_audit_creation_method	'MofGen! by Chris Wilmer'
_symmetry_space_group_name_H-M	'P1'
_symmetry_Int_Tables_number	1
_symmetry_cell_setting	triclinic
loop_
_symmetry_equiv_pos_as_xyz
  x,y,z
_cell_length_a	15.944551
_cell_length_b	11.792241
_cell_length_c	10.268362
_cell_angle_alpha	89.999626
_cell_angle_beta	90.006236
_cell_angle_gamma	96.153923
loop_
_atom_site_label
_atom_site_type_symbol
_atom_site_fract_x
_atom_site_fract_y
_atom_site_fract_z
O1	O	0.115128	-1.505960	0.108177
O2	O	0.615128	-1.005960	0.608177
O3	O	0.126993	-1.175521	0.108207
O4	O	0.626993	-0.675521	0.608207
O5	O	-0.001173	-1.349764	0.108180
O6	O	0.498827	-0.849764	0.608180
O7	O	0.243295	-1.331717	0.108205
O8	O	0.743295	-0.831717	0.608205
O9	O	-0.001179	-1.349749	-0.108421
O10	O	0.498821	-0.849749	0.391579
O11	O	0.126988	-1.175506	-0.108393
O12	O	0.626988	-0.675506	0.391607
O13	O	0.115123	-1.505945	-0.108424
O14	O	0.615123	-1.005945	0.391576
Cu15	Cu	0.121055	-1.340724	-0.128186
Cu16	Cu	0.621055	-0.840724	0.371814
Cu17	Cu	0.121061	-1.340742	0.127970
Cu18	Cu	0.621061	-0.840742	0.627970
O19	O	0.243290	-1.331702	-0.108396
O20	O	0.743290	-0.831702	0.391604
C21	C	-0.032473	-1.349008	-0.000121
C22	C	0.467527	-0.849008	0.499879
C23	C	-0.125729	-1.346761	-0.000121
C24	C	0.374271	-0.846761	0.499879
C25	C	0.126245	-1.133229	-0.000089
C26	C	0.626245	-0.633229	0.499911
C27	C	0.124015	-1.007234	-0.000078
C28	C	0.624015	-0.507234	0.499922
C29	C	0.115871	-1.548237	-0.000124
C30	C	0.615871	-1.048237	0.499876
C31	C	0.118102	-1.674233	-0.000127
C32	C	0.618102	-1.174233	0.499873
C33	C	-0.341098	-1.233389	-0.000093
C34	C	0.158902	-0.733389	0.499907
C35	C	-0.401880	-1.286028	-0.106895
C36	C	0.098120	-0.786028	0.393105
C37	C	-0.296474	-1.342698	-0.000111
C38	C	0.203526	-0.842698	0.499889
C39	C	-0.401858	-1.286069	0.106656
C40	C	0.098142	-0.786069	0.606656
C41	C	-0.461404	-1.338765	-0.000095
C42	C	0.038596	-0.838765	0.499905
C43	C	-0.356028	-1.395367	-0.107001
C44	C	0.143972	-0.895367	0.392999
C45	C	-0.355999	-1.395392	0.106646
C46	C	0.144001	-0.895392	0.606646
C47	C	-0.416764	-1.448111	-0.000182
C48	C	0.083236	-0.948111	0.499818
C49	C	-0.201461	-1.344961	-0.000121
C50	C	0.298539	-0.844961	0.499879
C51	C	-0.556415	-1.336511	-0.000095
C52	C	-0.056415	-0.836511	0.499905
C53	C	0.274590	-1.332459	-0.000093
C54	C	0.774590	-0.832459	0.499907
C55	C	0.367846	-1.334705	-0.000084
C56	C	0.867846	-0.834705	0.499916
N57	N	0.121050	-1.340720	-0.308352
N58	N	0.621050	-0.840720	0.191648
C59	C	0.119913	-0.776555	-0.000116
C60	C	0.619913	-0.276555	0.499884
C61	C	0.122192	-0.904922	-0.000095
C62	C	0.622192	-0.404922	0.499905
C63	C	0.121060	-1.340736	-0.574022
C64	C	0.621060	-0.840736	-0.074022
C65	C	0.121057	-1.340724	-0.426184
C66	C	0.621057	-0.840724	0.073816
N67	N	0.121060	-1.340756	0.308135
N68	N	0.621060	-0.840756	0.808135
H69	H	-0.308200	-1.142657	-0.000191
H70	H	0.191800	-0.642657	0.499809
C71	C	-0.429335	-1.223560	-0.228862
C72	C	0.070665	-0.723560	0.271138
N73	N	-0.450012	-1.176501	-0.320722
N74	N	0.049988	-0.676501	0.179278
C75	C	-0.328745	-1.457761	-0.229121
C76	C	0.171255	-0.957761	0.270879
N77	N	-0.308194	-1.504751	-0.321103
N78	N	0.191806	-1.004751	0.178897
H79	H	-0.449513	-1.538922	-0.000251
H80	H	0.050487	-1.038922	0.499749
C81	C	-0.429272	-1.223594	0.228635
C82	C	0.070728	-0.723594	0.728635
N83	N	-0.449916	-1.176531	0.320505
N84	N	0.050084	-0.676531	0.820505
C85	C	-0.328516	-1.457806	0.228624
C86	C	0.171484	-0.957806	0.728624
N87	N	-0.307813	-1.504807	0.320508
N88	N	0.192187	-1.004807	0.820508
