data_functionalizedCrystal
_audit_creation_method	'MofGen! by Chris Wilmer'
_symmetry_space_group_name_H-M	'P1'
_symmetry_Int_Tables_number	1
_symmetry_cell_setting	triclinic
loop_
_symmetry_equiv_pos_as_xyz
  x,y,z
_cell_length_a	14.044191
_cell_length_b	14.044190
_cell_length_c	14.586319
_cell_angle_alpha	89.991348
_cell_angle_beta	89.998893
_cell_angle_gamma	93.191777
loop_
_atom_site_label
_atom_site_type_symbol
_atom_site_fract_x
_atom_site_fract_y
_atom_site_fract_z
O1	O	1.277177	0.230199	-0.076215
O2	O	1.000504	0.221887	-0.076226
O3	O	1.134684	0.087707	-0.076203
O4	O	1.142997	0.364379	-0.076238
O5	O	1.134674	0.087704	0.076278
O6	O	1.000494	0.221884	0.076255
O7	O	1.277167	0.230196	0.076266
Cu8	Cu	1.138829	0.226040	0.090183
Cu9	Cu	1.138842	0.226043	-0.090143
O10	O	1.142987	0.364376	0.076242
C11	C	0.964877	0.218249	0.000013
C12	C	0.858734	0.207401	0.000010
C13	C	0.613277	0.264502	0.000012
C14	C	0.664400	0.187585	0.000020
C15	C	0.772537	0.198614	0.000014
C16	C	0.505130	0.253475	0.000017
C17	C	1.131043	0.052083	0.000040
C18	C	1.120195	-0.054060	0.000048
C19	C	1.177296	-0.299517	0.000014
C20	C	1.100379	-0.248394	0.000018
C21	C	1.111408	-0.140257	0.000034
C22	C	1.166269	-0.407664	-0.000003
C23	C	1.312794	0.233834	0.000024
C24	C	1.418937	0.244682	0.000022
C25	C	1.146628	0.400000	-0.000003
C26	C	1.157476	0.506143	-0.000016
N27	N	1.138828	0.226037	0.217015
N28	N	1.138850	0.226039	-0.216975
C29	C	1.198266	0.166646	0.452032
C30	C	1.198268	0.166644	0.548013
C31	C	1.079405	0.285433	0.548002
C32	C	1.079399	0.285429	0.452022
C33	C	1.138834	0.226037	0.404040
C34	C	1.138844	0.226039	0.596000
C35	C	1.138846	0.226037	0.700067
C36	C	1.138831	0.226038	0.299966
H37	H	0.650720	0.338629	-0.000001
H38	H	1.246661	0.118284	0.412966
F39	F	1.261521	0.103430	0.599086
H40	H	1.251423	-0.262074	0.000027
F41	F	1.016136	0.348641	0.400941
H42	H	1.031016	0.333790	0.587079
F43	F	0.615459	0.090688	0.000033
F44	F	1.003482	-0.297335	0.000011
