data_functionalizedCrystal
_audit_creation_method	'MofGen! by Chris Wilmer'
_symmetry_space_group_name_H-M	'P1'
_symmetry_Int_Tables_number	1
_symmetry_cell_setting	triclinic
loop_
_symmetry_equiv_pos_as_xyz
  x,y,z
_cell_length_a	27.440280
_cell_length_b	20.875641
_cell_length_c	27.440280
_cell_angle_alpha	57.589493
_cell_angle_beta	90.008670
_cell_angle_gamma	62.438438
loop_
_atom_site_label
_atom_site_type_symbol
_atom_site_fract_x
_atom_site_fract_y
_atom_site_fract_z
Zr1	Zr	0.489067	0.702045	-0.083465
O2	O	0.414970	0.835886	-0.165023
O3	O	0.509195	0.568220	-0.055876
O4	O	0.512913	0.702052	-0.161280
O5	O	0.411262	0.702043	0.020583
O6	O	0.593115	0.702039	-0.161270
O7	O	0.411252	0.702054	-0.059619
O8	O	0.586465	0.462638	0.027278
O9	O	0.417913	0.941445	-0.167965
O10	O	0.580759	0.623249	-0.047227
O11	O	0.520913	0.623250	0.012619
O12	O	0.525290	0.780820	-0.111480
O13	O	0.465444	0.780822	-0.051634
Zr14	Zr	0.616998	0.702008	0.044465
Zr15	Zr	0.616981	0.702025	-0.083448
Zr16	Zr	0.489084	0.702028	0.044449
Zr17	Zr	0.493761	0.870399	-0.088157
Zr18	Zr	0.612304	0.533655	0.049158
O19	O	0.596870	0.835834	0.016877
O20	O	0.596846	0.835858	-0.165000
O21	O	0.414994	0.835862	0.016853
O22	O	0.691096	0.568167	0.126024
O23	O	0.691072	0.568192	-0.055853
O24	O	0.509219	0.568195	0.126000
O25	O	0.694803	0.702010	-0.059583
O26	O	0.593152	0.702002	0.122281
O27	O	0.512950	0.702014	0.122271
O28	O	0.694813	0.702000	0.020620
O29	O	0.519587	0.941429	-0.167952
O30	O	0.586478	0.462625	0.128953
O31	O	0.688152	0.462609	0.128966
O32	O	0.688139	0.462622	0.027292
O33	O	0.417926	0.941431	-0.066291
O34	O	0.519600	0.941416	-0.066278
O35	O	0.580775	0.623233	0.072481
O36	O	0.640621	0.623232	0.012635
O37	O	0.585152	0.780803	-0.051619
O38	O	0.525306	0.780805	0.008228
C39	C	0.547161	0.491442	-0.013630
C40	C	0.545168	0.419971	-0.011638
C41	C	0.575470	0.386394	-0.041942
C42	C	0.573599	0.319235	-0.040064
C43	C	0.541423	0.285659	-0.007887
C44	C	0.511120	0.319240	0.022421
C45	C	0.512995	0.386393	0.020546
C46	C	0.532469	0.084816	0.001072
C47	C	0.530596	0.017660	0.002942
C48	C	0.593075	0.017658	-0.059542
C49	C	0.594944	0.084817	-0.061416
C50	C	0.564644	0.118388	-0.031106
N51	N	0.539508	0.217014	-0.005968
N52	N	0.566563	0.187027	-0.033021
C53	C	0.393032	0.702051	-0.019520
C54	C	0.338729	0.702060	-0.019528
C55	C	0.030985	0.619761	0.014057
C56	C	-0.020034	0.619756	0.014062
O57	O	-0.021797	0.549805	0.042604
N58	N	-0.074505	0.702006	-0.019478
C59	C	-0.077957	0.784266	-0.053021
O60	O	-0.128973	0.854225	-0.081548
C61	C	-0.026939	0.784270	-0.053022
C62	C	0.027532	0.702015	-0.019485
C63	C	0.085453	0.537513	0.047592
C64	C	0.136468	0.537518	0.047585
C65	C	0.133015	0.619772	0.014044
C66	C	0.078547	0.702020	-0.019491
C67	C	-0.030391	0.866529	-0.086561
C68	C	0.020633	0.866526	-0.086559
C69	C	0.075103	0.784271	-0.053022
C70	C	0.126109	0.784279	-0.053040
N71	N	0.180580	0.702030	-0.019499
C72	C	0.184033	0.619776	0.014042
C73	C	-0.185096	0.784251	-0.053014
C74	C	-0.236113	0.784248	-0.053016
C75	C	-0.178187	0.619738	0.014067
C76	C	-0.127169	0.619742	0.014066
C77	C	-0.130625	0.702001	-0.019474
C78	C	0.291166	0.619793	0.014026
C79	C	0.342182	0.619806	0.014014
C80	C	0.284252	0.784316	-0.053067
C81	C	0.233239	0.784304	-0.053058
C82	C	0.236700	0.702035	-0.019507
O83	O	0.127917	0.854195	-0.081565
O84	O	0.235051	0.549828	0.042571
C85	C	0.713033	0.702002	-0.019479
C86	C	0.767336	0.701994	-0.019472
C87	C	0.553012	0.702048	-0.179500
C88	C	0.553004	0.702055	-0.233803
C89	C	0.558904	0.912612	-0.025369
C90	C	0.560897	0.984082	-0.027361
C91	C	0.597233	0.702000	-0.570493
C92	C	0.597238	0.701993	-0.621511
O93	O	0.634827	0.701953	-0.647880
N94	N	0.553053	0.702001	-0.647034
C95	C	0.508864	0.702007	-0.621534
O96	O	0.471282	0.702013	-0.647928
C97	C	0.508861	0.702007	-0.570514
C98	C	0.553046	0.702008	-0.544997
C99	C	0.641414	0.701999	-0.544975
C100	C	0.641408	0.702008	-0.493962
C101	C	0.597221	0.702016	-0.468466
C102	C	0.553040	0.702016	-0.493984
C103	C	0.464675	0.702007	-0.545012
C104	C	0.464676	0.702006	-0.493989
C105	C	0.508861	0.702007	-0.468472
C106	C	0.508847	0.702033	-0.417474
N107	N	0.553032	0.702025	-0.391951
C108	C	0.597218	0.702016	-0.417447
C109	C	0.508872	0.702005	-0.728677
C110	C	0.508872	0.702012	-0.779698
C111	C	0.597247	0.701996	-0.779671
C112	C	0.597244	0.701996	-0.728652
C113	C	0.553057	0.701997	-0.703154
C114	C	0.597203	0.702035	-0.310315
C115	C	0.597191	0.702047	-0.259299
C116	C	0.508819	0.702058	-0.259328
C117	C	0.508828	0.702051	-0.310342
C118	C	0.553025	0.702036	-0.335833
O119	O	0.471278	0.702069	-0.391071
O120	O	0.634798	0.701999	-0.391042
C121	C	0.553054	0.702006	0.140501
C122	C	0.553061	0.701998	0.194803
C123	C	0.707161	0.491417	-0.013610
C124	C	0.759471	0.419938	-0.011611
C125	C	0.547182	0.491421	0.146370
C126	C	0.545196	0.419943	0.202665
C127	C	0.707182	0.491396	0.146391
C128	C	0.759500	0.419910	0.202692
C129	C	0.398883	0.912657	-0.185390
C130	C	0.346566	0.984144	-0.241692
C131	C	0.398904	0.912636	-0.025390
C132	C	0.346594	0.984115	-0.027389
C133	C	0.558883	0.912633	-0.185369
C134	C	0.560869	0.984111	-0.241664
C135	C	0.752789	0.386380	-0.041925
C136	C	0.801935	0.319227	-0.040058
C137	C	0.857763	0.285630	-0.007875
C138	C	0.864444	0.319194	0.022440
C139	C	0.815299	0.386351	0.020570
C140	C	0.575511	0.386367	0.260354
C141	C	0.573644	0.319216	0.313253
C142	C	0.541464	0.285637	0.308462
C143	C	0.511145	0.319219	0.250767
C144	C	0.513010	0.386374	0.197869
C145	C	0.815313	0.386339	0.197893
C146	C	0.864475	0.319179	0.250789
C147	C	0.857823	0.285588	0.308485
C148	C	0.802004	0.319166	0.313283
C149	C	0.752843	0.386328	0.260387
C150	C	0.290753	1.017723	-0.236893
C151	C	0.241591	1.084903	-0.289790
C152	C	0.248243	1.118498	-0.347485
C153	C	0.304062	1.084916	-0.352283
C154	C	0.353222	1.017742	-0.299387
C155	C	0.353276	1.017681	0.002920
C156	C	0.304130	1.084852	0.001039
C157	C	0.248303	1.118452	-0.031147
C158	C	0.241622	1.084884	-0.061459
C159	C	0.290767	1.017718	-0.059582
C160	C	0.593054	1.017669	-0.236853
C161	C	0.594931	1.084821	-0.289743
C162	C	0.564619	1.118418	-0.347443
C163	C	0.532433	1.084853	-0.352252
C164	C	0.530560	1.017698	-0.299363
H165	H	0.598273	0.291896	-0.064739
H166	H	0.897858	0.230899	0.351551
H167	H	0.472888	0.702025	-0.800477
F168	F	0.693378	0.422128	-0.076183
F169	F	0.194435	0.449970	0.083284
F170	F	0.609765	0.422090	0.265467
F171	F	0.794813	0.283514	-0.072323
H172	H	0.677399	0.701989	-0.565728
H173	H	0.484925	0.291893	0.048624
F174	F	0.539485	0.214163	0.364767
H175	H	0.909921	0.291847	0.246872
F176	F	0.480746	0.422096	0.136473
F177	F	0.283660	0.981979	-0.175494
H178	H	0.598335	0.291881	0.360226
F179	F	0.195916	1.189992	-0.403777
F180	F	0.794934	0.283406	0.374691
F181	F	0.412622	0.982006	-0.304504
H182	H	0.188886	0.851282	-0.080375
H183	H	0.601668	0.413731	-0.068147
F184	F	0.629187	0.120549	-0.095667
F185	F	0.625321	-0.018077	-0.091796
H186	H	0.017813	0.933514	-0.113865
H187	H	0.707399	0.413654	0.264303
F188	F	0.182190	1.120630	-0.284670
H189	H	0.309471	1.112278	-0.399265
F190	F	0.688436	0.702002	-0.466807
F191	F	0.182201	1.120651	-0.095710
F192	F	0.412687	0.981935	0.037176
F193	F	0.461836	0.702015	-0.701548
F194	F	0.311253	1.120563	0.033305
F195	F	0.644271	0.701995	-0.701499
H196	H	0.208291	1.173142	-0.032671
H197	H	0.285318	0.990391	-0.084261
H198	H	0.484945	0.291869	0.246875
F199	F	0.500171	1.120625	-0.413666
F200	F	0.280588	0.871852	-0.088756
H201	H	0.897775	0.230946	-0.006356
H202	H	0.820740	0.413679	0.150920
H203	H	0.428696	0.702005	-0.565781
F204	F	-0.294081	0.871795	-0.088720
H205	H	0.909905	0.291829	0.048643
H206	H	0.633172	0.702050	-0.238525
H207	H	0.504349	0.990383	-0.303289
H208	H	0.617738	0.990324	-0.189876
F209	F	0.629186	1.120534	-0.284612
F210	F	0.822419	0.422054	0.052840
H211	H	0.566149	1.173100	-0.390504
H212	H	0.507800	0.112138	0.025755
F213	F	0.496346	-0.018070	0.037190
F214	F	-0.188782	0.871809	-0.088719
F215	F	0.417645	0.702004	-0.466854
F216	F	0.400154	0.532255	0.049709
F217	F	0.480745	0.422127	0.052801
H218	H	0.293992	0.552803	0.041346
H219	H	0.088274	0.470528	0.074909
H220	H	-0.175383	0.552762	0.041377
F221	F	-0.069201	0.532196	0.049761
H222	H	-0.074735	0.933510	-0.113870
F223	F	0.644242	0.702019	-0.337437
H224	H	0.633227	0.701987	-0.800438
H225	H	0.472841	0.702069	-0.238563
F226	F	0.461796	0.702064	-0.337504
