data_functionalizedCrystal
_audit_creation_method	'MofGen! by Chris Wilmer'
_symmetry_space_group_name_H-M	'P1'
_symmetry_Int_Tables_number	1
_symmetry_cell_setting	triclinic
loop_
_symmetry_equiv_pos_as_xyz
  x,y,z
_cell_length_a	15.944551
_cell_length_b	11.792241
_cell_length_c	10.868271
_cell_angle_alpha	90.005281
_cell_angle_beta	89.991490
_cell_angle_gamma	96.153923
loop_
_atom_site_label
_atom_site_type_symbol
_atom_site_fract_x
_atom_site_fract_y
_atom_site_fract_z
O1	O	1.115184	-0.146380	-0.102442
O2	O	0.870716	-0.164428	-0.102419
O3	O	0.998883	0.009815	-0.102422
O4	O	0.987018	-0.320623	-0.102439
O5	O	0.998872	0.009822	0.102222
O6	O	0.870706	-0.164421	0.102226
O7	O	1.115174	-0.146374	0.102202
Zn8	Zn	0.992938	-0.155396	0.134706
Zn9	Zn	0.992952	-0.155405	-0.134922
O10	O	0.987007	-0.320617	0.102206
C11	C	0.839414	-0.163675	-0.000093
C12	C	0.746157	-0.161429	-0.000084
C13	C	0.998132	0.052104	-0.000100
C14	C	0.995901	0.178099	-0.000101
C15	C	1.146476	-0.147126	-0.000126
C16	C	1.239733	-0.149372	-0.000143
C17	C	1.455101	-0.262745	-0.000121
C18	C	1.515889	-0.210102	-0.101017
C19	C	1.410477	-0.153436	-0.000125
C20	C	1.515856	-0.210069	0.100746
C21	C	1.575407	-0.157369	-0.000103
C22	C	1.470036	-0.100763	-0.101106
C23	C	1.469997	-0.100745	0.100749
C24	C	1.530767	-0.048023	-0.000173
C25	C	1.315464	-0.151173	-0.000139
C26	C	1.670419	-0.159623	-0.000098
C27	C	0.987758	-0.362905	-0.000119
C28	C	0.989989	-0.488900	-0.000126
N29	N	0.992935	-0.155389	0.318720
C30	C	0.991799	0.408777	-0.000122
C31	C	0.994079	0.280411	-0.000111
N32	N	0.992962	-0.155403	-0.318936
C33	C	0.992948	-0.155403	0.569726
C34	C	0.992938	-0.155399	0.430049
H35	H	1.536216	-0.256340	-0.186320
C36	C	1.443054	-0.039390	-0.215085
C37	C	1.387367	-0.113895	-0.284385
C38	C	1.362501	-0.057409	-0.389399
H39	H	1.415707	0.024841	-0.191137
H40	H	1.491311	-0.014781	-0.263276
H41	H	1.339118	-0.138487	-0.236204
H42	H	1.414695	-0.178126	-0.308365
H43	H	1.410758	-0.032800	-0.437590
H44	H	1.335158	0.006820	-0.365439
H45	H	1.324721	-0.107955	-0.436438
H46	H	1.563510	0.042791	-0.000219
H47	H	1.449651	-0.054549	0.186059
H48	H	1.536145	-0.256319	0.186046
H49	H	1.422204	-0.353478	-0.000225
