data_functionalizedCrystal
_audit_creation_method	'MofGen! by Chris Wilmer'
_symmetry_space_group_name_H-M	'P1'
_symmetry_Int_Tables_number	1
_symmetry_cell_setting	triclinic
loop_
_symmetry_equiv_pos_as_xyz
  x,y,z
_cell_length_a	18.050590
_cell_length_b	18.050590
_cell_length_c	18.050583
_cell_angle_alpha	90.000303
_cell_angle_beta	89.977105
_cell_angle_gamma	89.994859
loop_
_atom_site_label
_atom_site_type_symbol
_atom_site_fract_x
_atom_site_fract_y
_atom_site_fract_z
Zn1	Zn	0.295895	-1.135421	0.419594
Zn2	Zn	0.420100	-1.135368	0.295425
Zn3	Zn	0.295900	-1.011233	0.295459
Zn4	Zn	0.420020	-1.011232	0.419614
O5	O	0.357979	-1.073313	0.357523
O6	O	0.312403	-1.239339	0.403101
O7	O	0.403660	-1.118880	0.191505
O8	O	0.191975	-1.027729	0.311932
O9	O	0.403656	-1.239300	0.311874
O10	O	0.191971	-1.118970	0.403134
O11	O	0.312411	-1.027678	0.191530
O12	O	0.312333	-0.907308	0.311950
O13	O	0.403519	-1.027727	0.523536
O14	O	0.403523	-0.907307	0.403167
O15	O	0.312325	-1.118969	0.523522
O16	O	0.524014	-1.118879	0.311893
O17	O	0.523955	-1.027676	0.403134
C18	C	0.357920	-0.880361	0.357565
C19	C	0.357913	-0.797816	0.357600
C20	C	0.164273	-1.073355	0.357534
C21	C	0.081727	-1.073373	0.357539
C22	C	0.407636	-0.598386	0.407096
C23	C	0.339916	-0.548970	0.425362
C24	C	0.357948	-0.646685	0.357571
C25	C	0.425701	-0.549019	0.339312
C26	C	0.357988	-0.500700	0.357545
C27	C	0.290192	-0.598357	0.375873
C28	C	0.376023	-0.598410	0.289791
C29	C	0.308256	-0.549017	0.308032
C30	C	0.357926	-0.730784	0.357588
C31	C	0.358003	-0.416604	0.357528
C32	C	-0.117725	-1.122987	0.407150
C33	C	-0.167089	-1.141137	0.339394
C34	C	-0.069403	-1.073366	0.357543
C35	C	-0.167120	-1.055243	0.425301
C36	C	-0.215388	-1.073360	0.357553
C37	C	-0.117680	-1.091551	0.289751
C38	C	-0.117707	-1.005625	0.375704
C39	C	-0.167049	-1.023750	0.307901
C40	C	0.014695	-1.073371	0.357538
C41	C	-0.299485	-1.073355	0.357550
C42	C	0.550931	-1.073292	0.357528
C43	C	0.633477	-1.073350	0.357555
C44	C	0.357912	-1.073354	0.551229
C45	C	0.357884	-1.073371	0.633775
C46	C	0.358028	-0.267019	0.357494
C47	C	0.358023	-0.349565	0.357514
C48	C	0.357991	-1.073316	0.164571
C49	C	0.357810	-1.073443	0.082026
C50	C	0.308243	-1.123034	0.882593
C51	C	0.376011	-1.141180	0.833184
C52	C	0.357837	-1.073419	0.930895
C53	C	0.290097	-1.055284	0.833222
C54	C	0.357857	-1.073397	0.784910
C55	C	0.425640	-1.091600	0.882574
C56	C	0.339681	-1.005673	0.882616
C57	C	0.407495	-1.023793	0.833230
C58	C	0.357825	-1.073433	1.014993
C59	C	0.357876	-1.073383	0.700813
H60	H	0.449584	-0.620065	0.449020
O61	O	0.493957	-1.110003	0.908445
C62	C	0.570599	-1.130629	1.015755
C63	C	0.493196	-1.109784	0.986555
H64	H	0.570013	-1.130444	1.078909
H65	H	0.586185	-1.188212	0.995002
H66	H	0.612919	-1.088607	0.994963
H67	H	0.450824	-1.151756	1.007335
H68	H	0.477673	-1.052183	1.007301
H69	H	0.324290	-0.948408	0.904346
H70	H	0.266206	-0.527476	0.266140
H71	H	0.391379	-1.198462	0.811469
O72	O	0.394396	-0.624308	0.221464
C73	C	0.486001	-0.627427	0.124371
C74	C	0.465285	-0.598059	0.201764
H75	H	0.543309	-0.606203	0.108413
H76	H	0.486414	-0.690578	0.125188
H77	H	0.443584	-0.607198	0.082191
H78	H	0.507681	-0.618232	0.243987
H79	H	0.464848	-0.534909	0.200885
H80	H	-0.096068	-1.164985	0.449045
O81	O	0.221831	-0.624008	0.394472
C82	C	0.125349	-0.627405	0.486710
C83	C	0.202763	-0.598290	0.465731
H84	H	0.109915	-0.606637	0.544330
H85	H	0.082937	-0.606626	0.444793
H86	H	0.125908	-0.690560	0.486555
H87	H	0.202277	-0.535138	0.465894
H88	H	0.245142	-0.619125	0.507653
O89	O	0.493997	-0.523036	0.320933
C90	C	0.570320	-0.415608	0.299606
C91	C	0.492945	-0.444932	0.320437
H92	H	0.569491	-0.352458	0.299182
H93	H	0.612622	-0.435833	0.341904
H94	H	0.586118	-0.436834	0.242251
H95	H	0.477078	-0.423719	0.377774
H96	H	0.450689	-0.424713	0.278091
H97	H	0.232802	-1.039956	0.811541
H98	H	-0.096000	-0.948357	0.391085
O99	O	0.321668	-0.522930	0.493674
C100	C	0.300679	-0.415438	0.570014
C101	C	0.321331	-0.444825	0.492611
H102	H	0.300415	-0.352288	0.569184
H103	H	0.243325	-0.436524	0.585995
H104	H	0.343064	-0.435756	0.612183
H105	H	0.278996	-0.424520	0.450390
H106	H	0.378703	-0.423746	0.476692
O107	O	-0.192940	-1.209520	0.321189
C108	C	-0.197102	-1.339140	0.352849
C109	C	-0.167795	-1.261736	0.373553
H110	H	-0.176772	-1.381380	0.395165
H111	H	-0.260255	-1.338384	0.352534
H112	H	-0.175933	-1.354965	0.295479
H113	H	-0.188909	-1.245863	0.430927
H114	H	-0.104644	-1.262533	0.373817
H115	H	-0.188569	-0.981784	0.265905
O116	O	-0.091764	-1.109929	0.221424
C117	C	0.015596	-1.130492	0.144748
C118	C	-0.013655	-1.109691	0.222166
H119	H	0.078750	-1.130291	0.145319
H120	H	-0.005127	-1.188073	0.129146
H121	H	-0.005188	-1.088457	0.102448
H122	H	0.007116	-1.151676	0.264517
H123	H	0.007062	-1.052091	0.237705
O124	O	-0.192929	-1.037033	0.493714
C125	C	-0.197158	-1.068805	0.623306
C126	C	-0.167877	-1.089500	0.545871
H127	H	-0.176929	-1.111222	0.665494
H128	H	-0.175967	-1.011485	0.639239
H129	H	-0.260308	-1.068411	0.622499
H130	H	-0.104729	-1.089936	0.546619
H131	H	-0.189125	-1.146806	0.529969
H132	H	0.266347	-1.165034	0.904266
O133	O	0.457694	-0.973810	0.807563
C134	C	0.585794	-0.936441	0.803760
C135	C	0.529024	-0.993103	0.832866
H136	H	0.643475	-0.952010	0.824219
H137	H	0.585158	-0.936455	0.740606
H138	H	0.570763	-0.878872	0.824952
H139	H	0.544015	-1.050699	0.811728
H140	H	0.529670	-0.993024	0.896019
