data_functionalizedCrystal
_audit_creation_method	'MofGen! by Chris Wilmer'
_symmetry_space_group_name_H-M	'P1'
_symmetry_Int_Tables_number	1
_symmetry_cell_setting	triclinic
loop_
_symmetry_equiv_pos_as_xyz
  x,y,z
_cell_length_a	14.853558
_cell_length_b	8.559649
_cell_length_c	7.088929
_cell_angle_alpha	95.344185
_cell_angle_beta	96.212767
_cell_angle_gamma	103.295101
loop_
_atom_site_label
_atom_site_type_symbol
_atom_site_fract_x
_atom_site_fract_y
_atom_site_fract_z
O1	O	1.171397	-0.224912	-0.158955
O2	O	0.907197	-0.249775	-0.158963
O3	O	1.062574	-0.004792	-0.158957
O4	O	1.016021	-0.469895	-0.158962
O5	O	1.083343	0.028022	0.159019
O6	O	0.927967	-0.216961	0.159013
O7	O	1.192167	-0.192098	0.159021
Cu8	Cu	1.061963	-0.201534	0.188050
Cu9	Cu	1.037401	-0.240340	-0.187993
O10	O	1.036791	-0.437082	0.159014
C11	C	0.884072	-0.232245	0.000024
C12	C	0.784223	-0.228877	0.000020
C13	C	0.725991	-0.245185	-0.173316
C14	C	0.748635	-0.209391	0.173354
C15	C	0.654823	-0.206218	0.173357
C16	C	0.596592	-0.222526	0.000021
C17	C	0.632171	-0.242007	-0.173318
C18	C	0.619239	-0.186721	0.346693
C19	C	0.525422	-0.183545	0.346703
C20	C	0.467187	-0.199865	0.173365
C21	C	0.502772	-0.219349	0.000019
C22	C	0.444540	-0.235657	-0.173317
C23	C	0.480121	-0.255152	-0.346665
C24	C	0.573936	-0.258327	-0.346656
C25	C	0.373372	-0.196690	0.173356
C26	C	0.350720	-0.232479	-0.173319
C27	C	1.076486	0.071137	0.000028
C28	C	1.086987	0.248494	0.000018
C29	C	1.215292	-0.209629	0.000029
C30	C	1.315140	-0.212998	0.000020
C31	C	1.022878	-0.513011	0.000025
C32	C	1.012377	-0.690369	0.000023
N33	N	1.079246	-0.174239	0.452539
N34	N	1.020126	-0.267622	-0.452482
H35	H	0.940466	0.226290	0.000027
C36	C	1.160909	-0.044966	0.561164
C37	C	1.153894	0.107037	0.512583
C38	C	1.229108	0.226157	0.612592
H39	H	1.159811	-0.046615	0.694700
H40	H	1.217793	-0.065610	0.528391
H41	H	1.097025	0.127676	0.545370
H42	H	1.155004	0.108739	0.379065
H43	H	1.285992	0.205513	0.579818
H44	H	1.228004	0.224492	0.746123
H45	H	1.224363	0.329302	0.579631
C46	C	1.182834	0.359654	-0.000368
C47	C	1.182627	0.439520	-0.163974
C48	C	1.270906	0.541916	-0.164408
H49	H	1.197439	0.437017	0.110394
H50	H	1.228254	0.297561	-0.000479
H51	H	1.137221	0.501610	-0.163845
H52	H	1.168038	0.362198	-0.274762
H53	H	1.316326	0.479823	-0.164519
H54	H	1.285503	0.619269	-0.053639
H55	H	1.270779	0.596106	-0.275420
C56	C	0.938393	-0.396799	0.439006
C57	C	0.886658	-0.478569	0.569310
C58	C	0.811365	-0.597593	0.469406
H59	H	0.899632	-0.347493	0.360922
H60	H	0.961179	-0.471400	0.360948
H61	H	0.863872	-0.403980	0.647334
H62	H	0.925392	-0.527909	0.647397
H63	H	0.834151	-0.672194	0.391349
H64	H	0.772611	-0.548273	0.391325
H65	H	0.776259	-0.653098	0.557801
H66	H	0.303312	-0.245769	-0.314472
C67	C	0.416801	-0.273180	-0.534795
C68	C	0.342633	-0.409753	-0.544913
C69	C	0.284287	-0.426422	-0.718193
H70	H	0.392960	-0.179715	-0.542186
H71	H	0.451376	-0.285340	-0.638094
H72	H	0.308063	-0.397581	-0.441642
H73	H	0.366447	-0.503242	-0.537555
H74	H	0.318863	-0.438582	-0.821492
H75	H	0.260453	-0.332950	-0.725568
H76	H	0.233962	-0.519095	-0.725088
C77	C	0.764520	-0.266690	-0.361571
C78	C	0.715221	-0.414072	-0.466105
C79	C	0.750696	-0.433950	-0.639523
H80	H	0.757827	-0.180570	-0.433033
H81	H	0.828722	-0.266350	-0.336830
H82	H	0.651034	-0.414399	-0.490851
H83	H	0.721909	-0.500221	-0.394701
H84	H	0.814899	-0.433610	-0.614782
H85	H	0.744002	-0.347822	-0.710967
H86	H	0.717258	-0.533955	-0.710462
H87	H	0.602916	-0.274197	-0.487787
H88	H	0.796054	-0.196102	0.314476
H89	H	0.666659	-0.173429	0.487814
H90	H	0.344404	-0.180832	0.314494
H91	H	0.496461	-0.167669	0.487854
