data_functionalizedCrystal
_audit_creation_method	'MofGen! by Chris Wilmer'
_symmetry_space_group_name_H-M	'P1'
_symmetry_Int_Tables_number	1
_symmetry_cell_setting	triclinic
loop_
_symmetry_equiv_pos_as_xyz
  x,y,z
_cell_length_a	19.805407
_cell_length_b	18.050589
_cell_length_c	19.805398
_cell_angle_alpha	90.020430
_cell_angle_beta	89.985905
_cell_angle_gamma	89.967986
loop_
_atom_site_label
_atom_site_type_symbol
_atom_site_fract_x
_atom_site_fract_y
_atom_site_fract_z
Zn1	Zn	1.034672	0.295742	-0.382713
Zn2	Zn	1.534672	0.795742	0.117287
Zn3	Zn	1.034578	0.419931	-0.269536
Zn4	Zn	1.534578	0.919931	0.230464
Zn5	Zn	0.921494	0.295753	-0.269542
Zn6	Zn	1.421494	0.795753	0.230458
Zn7	Zn	0.921434	0.419889	-0.382686
Zn8	Zn	1.421434	0.919889	0.117314
O9	O	0.978044	0.357829	-0.326119
O10	O	1.478044	0.857829	0.173881
O11	O	1.129376	0.312229	-0.367709
O12	O	1.629376	0.812229	0.132291
O13	O	1.019563	0.403480	-0.174820
O14	O	1.519563	0.903480	0.325180
O15	O	0.936572	0.191827	-0.284568
O16	O	1.436572	0.691827	0.215432
O17	O	1.129307	0.403470	-0.284558
O18	O	1.629307	0.903470	0.215442
O19	O	1.019723	0.191819	-0.367715
O20	O	1.519723	0.691819	0.132285
O21	O	0.936480	0.312248	-0.174824
O22	O	1.436480	0.812248	0.325176
O23	O	0.826769	0.312207	-0.284541
O24	O	1.326769	0.812207	0.215459
O25	O	0.936469	0.403399	-0.477406
O26	O	1.436469	0.903399	0.022594
O27	O	0.826725	0.403409	-0.367668
O28	O	1.326725	0.903409	0.132332
O29	O	1.019665	0.312188	-0.477426
O30	O	1.519665	0.812188	0.022574
O31	O	1.019504	0.523850	-0.284532
O32	O	1.519504	1.023850	0.215468
O33	O	0.936378	0.523819	-0.367663
O34	O	1.436378	1.023819	0.132337
C35	C	0.802188	0.357805	-0.326103
C36	C	1.302188	0.857805	0.173897
C37	C	0.726956	0.357813	-0.326112
C38	C	1.226956	0.857813	0.173888
C39	C	0.691649	0.310388	-0.369474
C40	C	1.191649	0.810388	0.130526
C41	C	0.620960	0.310392	-0.369477
C42	C	1.120960	0.810392	0.130523
C43	C	0.585581	0.357825	-0.326120
C44	C	1.085581	0.857825	0.173880
C45	C	0.620893	0.405253	-0.282753
C46	C	1.120893	0.905253	0.217247
C47	C	0.691580	0.405244	-0.282747
C48	C	1.191580	0.905244	0.217253
C49	C	0.335820	0.405286	-0.282773
C50	C	0.835820	0.905286	0.217227
C51	C	0.265128	0.405292	-0.282784
C52	C	0.765128	0.905292	0.217216
C53	C	0.265200	0.310434	-0.369503
C54	C	0.765200	0.810434	0.130497
C55	C	0.335887	0.310426	-0.369498
C56	C	0.835887	0.810426	0.130502
C57	C	0.371193	0.357850	-0.326128
C58	C	0.871193	0.857850	0.173872
C59	C	0.447842	0.357844	-0.326125
C60	C	0.947842	0.857844	0.173875
C61	C	0.508934	0.357836	-0.326126
C62	C	1.008934	0.857836	0.173874
C63	C	0.977943	0.550781	-0.326109
C64	C	1.477943	1.050781	0.173891
C65	C	0.977961	0.633327	-0.326127
C66	C	1.477961	1.133327	0.173873
C67	C	0.932781	0.832788	-0.371318
C68	C	1.432781	1.332788	0.128682
C69	C	0.916281	0.882224	-0.309556
C70	C	1.416281	1.382224	0.190444
C71	C	0.978012	0.784457	-0.326136
C72	C	1.478012	1.284457	0.173864
C73	C	0.994530	0.882103	-0.387906
C74	C	1.494530	1.382103	0.112094
C75	C	0.978060	0.930442	-0.326151
C76	C	1.478060	1.430442	0.173849
C77	C	0.961480	0.832806	-0.264341
C78	C	1.461480	1.332806	0.235659
C79	C	1.039757	0.832680	-0.342733
C80	C	1.539757	1.332680	0.157267
C81	C	1.023281	0.882094	-0.280928
C82	C	1.523281	1.382094	0.219072
C83	C	0.977983	0.700359	-0.326129
C84	C	1.477983	1.200359	0.173871
C85	C	0.978089	1.014539	-0.326151
C86	C	1.478089	1.514539	0.173849
C87	C	1.154587	0.357853	-0.326136
C88	C	1.654587	0.857853	0.173864
C89	C	1.229819	0.357863	-0.326143
C90	C	1.729819	0.857863	0.173857
C91	C	0.978071	0.357788	-0.502662
C92	C	1.478071	0.857788	-0.002662
C93	C	0.978082	0.357770	-0.577894
C94	C	1.478082	0.857770	-0.077894
C95	C	0.978139	1.164123	-0.326146
C96	C	1.478139	1.664123	0.173854
C97	C	0.978113	1.081577	-0.326159
C98	C	1.478113	1.581577	0.173841
C99	C	1.021484	0.310145	-1.039697
C100	C	1.521484	0.810145	-0.539697
C101	C	1.021473	0.310168	-0.969008
C102	C	1.521473	0.810168	-0.469008
C103	C	0.978152	0.357667	-0.933656
C104	C	1.478152	0.857667	-0.433656
C105	C	0.934843	0.405151	-0.968996
C106	C	1.434843	0.905151	-0.468996
C107	C	0.934857	0.405131	-1.039683
C108	C	1.434857	0.905131	-0.539683
C109	C	0.934784	0.405232	-0.683922
C110	C	1.434784	0.905232	-0.183922
C111	C	0.934771	0.405246	-0.613230
C112	C	1.434771	0.905246	-0.113230
C113	C	1.021400	0.310268	-0.613248
C114	C	1.521400	0.810268	-0.113248
C115	C	1.021414	0.310249	-0.683935
C116	C	1.521414	0.810249	-0.183935
C117	C	0.978108	0.357735	-0.719269
C118	C	1.478108	0.857735	-0.219269
C119	C	0.978121	0.357711	-0.795917
C120	C	1.478121	0.857711	-0.295917
C121	C	0.978135	0.357688	-0.857009
C122	C	1.478135	0.857688	-0.357009
C123	C	0.978057	0.357816	-0.150263
C124	C	1.478057	0.857816	0.349737
C125	C	0.978177	0.357624	-0.075032
C126	C	1.478177	0.857624	0.424968
H127	H	0.592081	0.443870	-0.247447
H128	H	1.092081	0.943870	0.252553
N129	N	0.374044	0.259262	-0.416259
N130	N	0.874044	0.759262	0.083741
H131	H	0.424182	0.266454	-0.409676
H132	H	0.924182	0.766454	0.090324
H133	H	0.361700	0.270892	-0.464582
H134	H	0.861700	0.770892	0.035418
N135	N	0.888113	0.456377	-0.930867
N136	N	1.388113	0.956377	-0.430867
H137	H	0.860680	0.486452	-0.963980
H138	H	1.360680	0.986452	-0.463980
H139	H	0.915635	0.490756	-0.901534
H140	H	1.415635	0.990756	-0.401534
H141	H	0.947468	0.811241	-0.212094
H142	H	1.447468	1.311241	0.287906
N143	N	0.227125	0.259273	-0.416279
N144	N	0.727125	0.759273	0.083721
H145	H	0.197792	0.289501	-0.447601
H146	H	0.697792	0.789501	0.052399
H147	H	0.197844	0.224825	-0.388783
H148	H	0.697844	0.724825	0.111217
N149	N	1.073979	0.910595	-0.230272
N150	N	1.573979	1.410595	0.269728
H151	H	1.061435	0.892565	-0.183660
H152	H	1.561435	1.392565	0.316340
H153	H	1.073981	0.966542	-0.230888
H154	H	1.573981	1.466542	0.269112
N155	N	0.847149	0.911060	-0.290957
N156	N	1.347149	1.411060	0.209043
H157	H	0.834341	0.892355	-0.244639
H158	H	1.334341	1.392355	0.255361
H159	H	0.813038	0.893127	-0.325146
H160	H	1.313038	1.393127	0.174854
H161	H	1.091938	0.810904	-0.356787
H162	H	1.591938	1.310904	0.143213
N163	N	0.882047	0.804100	-0.421851
N164	N	1.382047	1.304100	0.078149
H165	H	0.882691	0.748150	-0.421791
H166	H	1.382691	1.248150	0.078209
H167	H	0.894051	0.822853	-0.468366
H168	H	1.394051	1.322853	0.031634
H169	H	1.008481	0.903757	-0.440139
H170	H	1.508481	1.403757	0.059861
N171	N	0.729667	0.456397	-0.235981
N172	N	1.229667	0.956397	0.264019
H173	H	0.758995	0.426164	-0.204660
H174	H	1.258995	0.926164	0.295340
H175	H	0.696488	0.486439	-0.208561
H176	H	1.196488	0.986439	0.291439
N177	N	1.068203	0.258907	-1.077825
N178	N	1.568203	0.758907	-0.577825
H179	H	1.095636	0.228833	-1.044711
H180	H	1.595636	0.728833	-0.544711
H181	H	1.099514	0.289129	-1.107154
H182	H	1.599514	0.789129	-0.607154
N183	N	0.226966	0.456454	-0.236017
N184	N	0.726966	0.956454	0.263983
H185	H	0.260057	0.486494	-0.208540
H186	H	0.760057	0.986494	0.291460
H187	H	0.197638	0.426176	-0.204749
H188	H	0.697638	0.926176	0.295251
N189	N	0.582880	0.259248	-0.416255
N190	N	1.082880	0.759248	0.083745
H191	H	0.532732	0.266447	-0.409680
H192	H	1.032732	0.766447	0.090320
H193	H	0.595256	0.206191	-0.405807
H194	H	1.095256	0.706191	0.094193
N195	N	0.373895	0.456432	-0.235997
N196	N	0.873895	0.956432	0.264003
H197	H	0.340754	0.486481	-0.208534
H198	H	0.840754	0.986481	0.291466
H199	H	0.403221	0.490839	-0.263488
H200	H	0.903221	0.990839	0.236512
N201	N	0.888075	0.456444	-0.722026
N202	N	1.388075	0.956444	-0.222026
H203	H	0.898552	0.509509	-0.709713
H204	H	1.398552	1.009509	-0.209713
H205	H	0.839738	0.444842	-0.709707
H206	H	1.339738	0.944842	-0.209707
H207	H	0.899593	0.443794	-1.068452
H208	H	1.399593	0.943794	-0.568452
N209	N	1.068185	0.258961	-0.930896
N210	N	1.568185	0.758961	-0.430896
H211	H	1.095628	0.228866	-0.964018
H212	H	1.595628	0.728866	-0.464018
H213	H	1.040649	0.224600	-0.901567
H214	H	1.540649	0.724600	-0.401567
N215	N	0.729806	0.259234	-0.416244
N216	N	1.229806	0.759234	0.083756
H217	H	0.717528	0.206156	-0.405818
H218	H	1.217528	0.706156	0.094182
H219	H	0.779931	0.266492	-0.409641
H220	H	1.279931	0.766492	0.090359
H221	H	1.056689	0.271568	-0.712715
H222	H	1.556689	0.771568	-0.212715
H223	H	1.056664	0.271604	-0.584471
H224	H	1.556664	0.771604	-0.084471
N225	N	0.888036	0.456470	-0.575098
N226	N	1.388036	0.956470	-0.075098
H227	H	0.860603	0.486549	-0.608207
H228	H	1.360603	0.986549	-0.108207
H229	H	0.915557	0.490848	-0.545760
H230	H	1.415557	0.990848	-0.045760
