data_functionalizedCrystal
_audit_creation_method	'MofGen! by Chris Wilmer'
_symmetry_space_group_name_H-M	'P1'
_symmetry_Int_Tables_number	1
_symmetry_cell_setting	triclinic
loop_
_symmetry_equiv_pos_as_xyz
  x,y,z
_cell_length_a	17.699077
_cell_length_b	16.776229
_cell_length_c	9.065218
_cell_angle_alpha	89.995234
_cell_angle_beta	95.851769
_cell_angle_gamma	90.006585
loop_
_atom_site_label
_atom_site_type_symbol
_atom_site_fract_x
_atom_site_fract_y
_atom_site_fract_z
O1	O	1.005536	0.066274	-0.186519
O2	O	0.785346	0.066278	-0.210800
O3	O	0.899992	0.066275	0.016118
O4	O	0.890890	0.066278	-0.413437
O5	O	0.899977	-0.066302	0.016132
O6	O	0.785331	-0.066299	-0.210786
O7	O	1.005520	-0.066302	-0.186505
Zn8	Zn	0.895423	-0.087350	-0.198643
Zn9	Zn	0.895444	0.087326	-0.198661
O10	O	0.890874	-0.066299	-0.413423
C11	C	0.757135	-0.000010	-0.209924
C12	C	0.673096	-0.000008	-0.207319
C13	C	0.633611	-0.072277	-0.206083
C14	C	0.554649	-0.072278	-0.203612
C15	C	0.515173	-0.000009	-0.202386
C16	C	0.554664	0.072265	-0.203617
C17	C	0.633625	0.072265	-0.206078
C18	C	0.236224	0.072266	-0.193689
C19	C	0.157257	0.072260	-0.191232
C20	C	0.157247	-0.072276	-0.191222
C21	C	0.236208	-0.072276	-0.193684
C22	C	0.275693	-0.000003	-0.194907
C23	C	0.361312	-0.000003	-0.197584
C24	C	0.429554	-0.000009	-0.199719
N25	N	0.895415	-0.206561	-0.198630
C26	C	0.946196	-0.248280	-0.098192
C27	C	0.946200	-0.331732	-0.098190
C28	C	0.895426	-0.373464	-0.198635
C29	C	0.844639	-0.331739	-0.299078
C30	C	0.844632	-0.248289	-0.299071
C31	C	0.844667	-0.668287	-0.299107
C32	C	0.844680	-0.751743	-0.299110
C33	C	0.946235	-0.751730	-0.098226
C34	C	0.946228	-0.668279	-0.098219
C35	C	0.895439	-0.626562	-0.198656
C36	C	0.895434	-0.536073	-0.198655
C37	C	0.895434	-0.463951	-0.198645
C38	C	1.033732	-0.000013	-0.187380
C39	C	1.117771	-0.000009	-0.189986
C40	C	0.899110	-0.000012	0.071086
C41	C	0.896494	-0.000009	0.234851
N42	N	0.895458	0.206537	-0.198663
C43	C	0.891757	-0.000010	-0.468390
C44	C	0.894373	-0.000009	-0.632156
H45	H	0.268345	-0.131124	-0.194689
H46	H	0.987545	-0.214307	-0.016404
H47	H	0.665745	-0.131126	-0.207094
O48	O	0.995458	-0.372380	-0.000684
C49	C	0.984590	-0.454985	-0.022242
H50	H	0.924796	-0.466392	-0.077523
H51	H	0.992253	-0.486704	0.089502
H52	H	1.027930	-0.478654	-0.096135
O53	O	0.995577	-0.627865	-0.000503
C54	C	1.040412	-0.682583	0.088126
H55	H	1.009379	-0.742078	0.089710
H56	H	1.051149	-0.658477	0.205974
H57	H	1.096962	-0.691440	0.040366
H58	H	0.987588	-0.785705	-0.016440
O59	O	0.795277	-0.792160	-0.396734
C60	C	0.750458	-0.737445	-0.485403
H61	H	0.749185	-0.677962	-0.424920
H62	H	0.690175	-0.761574	-0.508044
H63	H	0.775770	-0.728557	-0.594945
H64	H	0.803314	-0.634327	-0.380889
H65	H	0.803294	-0.365722	-0.380858
O66	O	0.795278	-0.207884	-0.396784
C67	C	0.750452	-0.262610	-0.485419
H68	H	0.781498	-0.322090	-0.487017
H69	H	0.739707	-0.238491	-0.603262
H70	H	0.693906	-0.271503	-0.437654
H71	H	0.522505	-0.131126	-0.202581
H72	H	0.268363	0.131115	-0.194680
H73	H	0.125118	0.131114	-0.190232
O74	O	0.118874	-0.142465	-0.189752
C75	C	0.080888	-0.146788	-0.060625
H76	H	0.110071	-0.105777	0.027897
H77	H	0.082576	-0.210708	-0.017725
H78	H	0.019305	-0.127375	-0.087631
O79	O	0.516200	0.142396	-0.202486
C80	C	0.438041	0.126901	-0.200016
H81	H	0.424435	0.064792	-0.246363
H82	H	0.403720	0.173057	-0.270681
H83	H	0.422766	0.130325	-0.081011
H84	H	0.665773	0.131113	-0.207087
