data_functionalizedCrystal
_audit_creation_method	'MofGen! by Chris Wilmer'
_symmetry_space_group_name_H-M	'P1'
_symmetry_Int_Tables_number	1
_symmetry_cell_setting	triclinic
loop_
_symmetry_equiv_pos_as_xyz
  x,y,z
_cell_length_a	6.817900
_cell_length_b	9.514063
_cell_length_c	9.514088
_cell_angle_alpha	83.787405
_cell_angle_beta	118.843545
_cell_angle_gamma	118.843314
loop_
_atom_site_label
_atom_site_type_symbol
_atom_site_fract_x
_atom_site_fract_y
_atom_site_fract_z
V1	V	-4.303769	-0.225060	-0.502027
O2	O	-4.198339	0.007885	-0.491166
O3	O	-4.337709	-0.443439	-0.499849
O4	O	-4.337712	-0.222884	-0.720406
O5	O	-4.198336	-0.214197	-0.269082
V6	V	-4.766057	-0.197045	-0.474013
O7	O	-4.611606	-0.286513	-0.563480
O8	O	-4.908417	-0.135593	-0.412560
O9	O	-4.508910	0.021333	-0.476191
O10	O	-4.988884	-0.429991	-0.484874
O11	O	-4.988887	-0.207909	-0.706958
O12	O	-4.508907	-0.199222	-0.255634
C13	C	-4.200076	-0.496635	-0.492253
C14	C	-4.309662	-0.675170	-0.491928
C15	C	-4.200078	-0.215293	-0.773594
C16	C	-4.309659	-0.214959	-0.952128
C17	C	-4.309886	0.074521	-0.483783
C18	C	-4.179543	0.253054	-0.484119
C19	C	-4.309882	-0.206818	-0.202438
C20	C	-4.179536	-0.207144	-0.023902
H21	H	-3.984289	-0.671801	-0.477678
H22	H	-4.504885	-0.750303	-0.498344
H23	H	-3.984311	-0.200725	-0.948770
H24	H	-4.504912	-0.221397	-1.027272
