data_functionalizedCrystal
_audit_creation_method	'MofGen! by Chris Wilmer'
_symmetry_space_group_name_H-M	'P1'
_symmetry_Int_Tables_number	1
_symmetry_cell_setting	triclinic
loop_
_symmetry_equiv_pos_as_xyz
  x,y,z
_cell_length_a	15.995350
_cell_length_b	9.065218
_cell_length_c	7.540329
_cell_angle_alpha	90.001757
_cell_angle_beta	89.999312
_cell_angle_gamma	84.254130
loop_
_atom_site_label
_atom_site_type_symbol
_atom_site_fract_x
_atom_site_fract_y
_atom_site_fract_z
O1	O	-1.112426	-0.190160	-0.147325
O2	O	-0.612426	0.309840	0.352675
O3	O	-0.868829	-0.213643	-0.147360
O4	O	-0.368829	0.286357	0.352640
O5	O	-0.995662	0.012860	-0.147338
O6	O	-0.495662	0.512860	0.352662
O7	O	-0.985592	-0.416662	-0.147347
O8	O	-0.485592	0.083338	0.352653
O9	O	-0.995655	0.012862	0.147627
O10	O	-0.495655	0.512862	0.647627
O11	O	-0.868821	-0.213640	0.147605
O12	O	-0.368821	0.286360	0.647605
O13	O	-1.112418	-0.190157	0.147640
O14	O	-0.612418	0.309843	0.647640
Cu15	Cu	-0.990619	-0.201898	0.174555
Cu16	Cu	-0.490619	0.298102	0.674555
Cu17	Cu	-0.990628	-0.201902	-0.174275
Cu18	Cu	-0.490628	0.298098	0.325725
O19	O	-0.985585	-0.416660	0.147618
O20	O	-0.485585	0.083340	0.647618
C21	C	-0.994691	0.067825	0.000141
C22	C	-0.494691	0.567825	0.500141
C23	C	-0.991797	0.231600	0.000132
C24	C	-0.491797	0.731600	0.500132
C25	C	-0.837623	-0.212670	0.000117
C26	C	-0.337623	0.287330	0.500117
C27	C	-0.744650	-0.209760	0.000104
C28	C	-0.244650	0.290240	0.500104
C29	C	-1.143624	-0.191129	0.000158
C30	C	-0.643624	0.308871	0.500158
C31	C	-1.236597	-0.194040	0.000161
C32	C	-0.736597	0.305960	0.500161
C33	C	-0.406824	-0.199308	0.000141
C34	C	0.093176	0.300692	0.500141
C35	C	-0.453034	-0.037997	0.000802
C36	C	0.046966	0.462003	0.500802
C37	C	-0.549747	-0.040908	0.000125
C38	C	-0.049747	0.459092	0.500125
C39	C	-0.574423	-0.204492	0.000123
C40	C	-0.074423	0.295508	0.500123
C41	C	-0.533944	-0.284058	-0.168311
C42	C	-0.033944	0.215942	0.331689
C43	C	-0.437278	-0.280005	-0.168439
C44	C	0.062722	0.219995	0.331561
C45	C	-0.436955	-0.283335	0.166991
C46	C	0.063045	0.216665	0.666991
C47	C	-0.533900	-0.283297	0.169205
C48	C	-0.033900	0.216703	0.669205
C49	C	-0.669143	-0.207431	0.000108
C50	C	-0.169143	0.292569	0.500108
C51	C	-0.312103	-0.196374	0.000145
C52	C	0.187897	0.303626	0.500145
C53	C	-0.986556	-0.471625	0.000135
C54	C	-0.486556	0.028375	0.500135
C55	C	-0.989450	-0.635400	0.000132
C56	C	-0.489450	-0.135400	0.500132
N57	N	-0.990619	-0.201895	0.419904
N58	N	-0.490619	0.298105	0.919904
N59	N	-0.990635	-0.201893	-0.419624
N60	N	-0.490635	0.298107	0.080376
H61	H	-0.577698	0.021635	0.120866
H62	H	-0.077698	0.521635	0.620866
H63	H	-0.548981	-0.404239	-0.174575
H64	H	-0.048981	0.095761	0.325425
Br65	Br	-0.561010	-0.482131	0.186162
Br66	Br	-0.061010	0.017869	0.686162
Br67	Br	-0.385020	-0.477392	-0.181181
Br68	Br	0.114980	0.022608	0.318819
H69	H	-0.418532	-0.221985	-0.294347
H70	H	0.081468	0.278015	0.205653
Br71	Br	-0.421339	0.069480	0.202132
Br72	Br	0.078661	0.569480	0.702132
Br73	Br	-0.580539	-0.191959	-0.377245
Br74	Br	-0.080539	0.308041	0.122755
Br75	Br	-0.385524	-0.481565	0.168889
Br76	Br	0.114476	0.018435	0.668889
Br77	Br	-0.402061	-0.195432	0.379784
Br78	Br	0.097939	0.304568	0.879784
Br79	Br	-0.419566	0.068993	-0.199393
Br80	Br	0.080434	0.568993	0.300607
H81	H	-0.577130	0.022055	-0.120824
H82	H	-0.077130	0.522055	0.379176
H83	H	-0.560773	-0.225215	0.293812
H84	H	-0.060773	0.274785	0.793812
