data_functionalizedCrystal
_audit_creation_method	'MofGen! by Chris Wilmer'
_symmetry_space_group_name_H-M	'P1'
_symmetry_Int_Tables_number	1
_symmetry_cell_setting	triclinic
loop_
_symmetry_equiv_pos_as_xyz
  x,y,z
_cell_length_a	13.635800
_cell_length_b	17.982959
_cell_length_c	17.982626
_cell_angle_alpha	101.319935
_cell_angle_beta	77.554083
_cell_angle_gamma	102.451857
loop_
_atom_site_label
_atom_site_type_symbol
_atom_site_fract_x
_atom_site_fract_y
_atom_site_fract_z
V1	V	1.869725	0.106146	0.237871
O2	O	1.869034	-0.004347	0.233015
O3	O	1.843755	0.209745	0.236559
O4	O	1.784108	0.104844	0.341471
O5	O	1.929095	0.101280	0.127377
V6	V	2.119726	0.092891	0.224617
O7	O	1.982279	0.135223	0.266945
O8	O	2.232271	0.063814	0.195542
O9	O	2.034092	-0.010708	0.225929
O10	O	2.179115	0.203384	0.229472
O11	O	2.119054	0.097757	0.335110
O12	O	2.093740	0.094193	0.121017
V13	V	2.369725	0.106146	0.237871
O14	O	2.369034	-0.004347	0.233015
O15	O	2.343755	0.209745	0.236559
O16	O	2.284108	0.104844	0.341471
O17	O	2.429095	0.101280	0.127377
V18	V	2.619726	0.092891	0.224617
O19	O	2.482279	0.135223	0.266945
O20	O	2.732271	0.063814	0.195542
O21	O	2.534092	-0.010708	0.225929
O22	O	2.679115	0.203384	0.229472
O23	O	2.619054	0.097757	0.335110
O24	O	2.593740	0.094193	0.121017
C25	C	1.767812	0.234990	0.232887
C26	C	1.786813	0.319685	0.232505
C27	C	1.691726	0.101177	0.366712
C28	C	1.662355	0.100798	0.451408
C29	C	1.941707	-0.035949	0.229598
C30	C	1.912323	-0.120643	0.229985
C31	C	2.017795	0.097862	0.095771
C32	C	2.036786	0.098237	0.011075
C33	C	1.737223	0.104431	0.495077
C34	C	1.709638	0.104065	0.574656
C35	C	1.607184	0.100072	0.610566
C36	C	1.532310	0.096436	0.566891
C37	C	1.559895	0.096797	0.487312
C38	C	1.884439	0.363367	0.236138
C39	C	1.902285	0.442948	0.235783
C40	C	1.822506	0.478844	0.231791
C41	C	1.724872	0.435157	0.228160
C42	C	1.707025	0.355578	0.228520
C43	C	1.796842	0.756088	0.226709
C44	C	1.814698	0.835672	0.226347
C45	C	1.992102	0.843458	0.233972
C46	C	1.974255	0.763880	0.234332
C47	C	1.876622	0.720199	0.230706
C48	C	1.857272	0.633909	0.231092
C49	C	1.841856	0.565132	0.231399
C50	C	1.957014	0.102233	-0.024827
C51	C	1.974867	0.102594	-0.104407
C52	C	2.072494	0.098963	-0.148083
C53	C	2.152270	0.094965	-0.112176
C54	C	2.134415	0.094599	-0.032598
C55	C	2.224279	0.096439	-0.433105
C56	C	2.242129	0.096808	-0.512688
C57	C	2.064730	0.104434	-0.504914
C58	C	2.046875	0.104068	-0.425336
C59	C	2.126652	0.100065	-0.389437
C60	C	2.107292	0.099673	-0.303147
C61	C	2.091855	0.099361	-0.234371
C62	C	2.191726	0.101177	0.366712
C63	C	2.162355	0.100798	0.451408
C64	C	2.267812	0.234990	0.232887
C65	C	2.286813	0.319685	0.232505
C66	C	2.441707	-0.035949	0.229598
C67	C	2.412323	-0.120643	0.229985
C68	C	2.517795	0.097862	0.095771
C69	C	2.536786	0.098237	0.011075
C70	C	2.384444	0.363356	0.236144
C71	C	2.402307	0.442938	0.235797
C72	C	2.322541	0.478848	0.231805
C73	C	2.224902	0.435172	0.228168
C74	C	2.207038	0.355592	0.228521
C75	C	2.487185	-0.164313	0.226348
C76	C	2.459591	-0.243896	0.226699
C77	C	2.357133	-0.279805	0.230693
C78	C	2.282266	-0.236130	0.234327
C79	C	2.309861	-0.156550	0.233971
C80	C	2.456998	0.102222	-0.024815
C81	C	2.474825	0.102565	-0.104398
C82	C	2.572443	0.098929	-0.148087
C83	C	2.652236	0.094942	-0.112192
C84	C	2.634407	0.094593	-0.032612
H85	H	1.820651	0.107685	0.465850
H86	H	2.449407	0.334128	0.239390
H87	H	2.377505	0.105182	0.010747
N88	N	2.229104	-0.109457	0.237899
H89	H	2.177506	-0.114072	0.287102
H90	H	2.262198	-0.053614	0.237036
H91	H	2.409842	0.105812	-0.133612
H92	H	2.570616	-0.135087	0.223097
N93	N	2.341811	0.564681	0.231419
H94	H	2.366288	0.592919	0.280301
H95	H	2.395573	0.577757	0.185325
H96	H	2.520564	-0.279445	0.223740
N97	N	2.171758	-0.274862	0.238642
H98	H	2.164390	-0.315256	0.191493
H99	H	2.148402	-0.300111	0.286465
N100	N	1.421813	0.092140	0.605632
H101	H	1.378559	0.089893	0.565898
H102	H	1.398458	0.044353	0.630938
N103	N	1.479138	0.092896	0.440221
H104	H	1.512147	0.093732	0.384358
H105	H	1.427547	0.043696	0.444890
N106	N	2.138881	0.473905	0.223842
H107	H	2.165027	0.530943	0.224160
H108	H	2.111704	0.450750	0.174756
H109	H	2.127537	0.320040	0.225554
N110	N	2.060301	0.725167	0.238647
H111	H	2.034181	0.668126	0.238324
H112	H	2.116815	0.733230	0.192778
N113	N	2.327383	-0.365637	0.231087
H114	H	2.277891	-0.375734	0.280145
H115	H	2.294010	-0.390783	0.185169
N116	N	2.591675	0.099316	-0.233918
H117	H	2.616135	0.050434	-0.262164
H118	H	2.526283	0.102425	-0.249955
H119	H	1.949408	0.334146	0.239382
N120	N	2.757519	0.091016	-0.159320
H121	H	2.756696	0.091844	-0.215177
H122	H	2.807802	0.136765	-0.139576
N123	N	2.720478	0.090297	0.006086
H124	H	2.777018	0.136165	-0.001934
H125	H	2.694302	0.090601	0.063115
N126	N	1.790400	0.107983	0.621752
H127	H	1.859487	0.110574	0.586925
H128	H	1.790865	0.155471	0.662489
H129	H	1.584737	0.099779	0.675365
H130	H	1.981779	0.478512	0.238742
N131	N	2.097410	0.890602	0.237807
H132	H	2.094172	0.931368	0.285276
H133	H	2.145238	0.855763	0.240331
H134	H	1.749725	0.864896	0.223101
N135	N	1.691542	0.708982	0.222804
H136	H	1.643715	0.743800	0.220219
H137	H	1.694916	0.668244	0.175318
N138	N	1.941578	0.108000	-0.378238
H139	H	1.891240	0.062262	-0.397936
H140	H	1.942453	0.107194	-0.322387
H141	H	1.877518	0.105193	0.010729
H142	H	1.627529	0.320013	0.225565
N143	N	1.638827	0.473869	0.223842
H144	H	1.627620	0.514265	0.270988
H145	H	1.657005	0.499113	0.176017
N146	N	1.888820	0.106912	-0.143119
H147	H	1.906936	0.154705	-0.168415
H148	H	1.877639	0.059727	-0.183474
H149	H	1.999773	0.107690	-0.534153
H150	H	2.289240	0.093178	-0.403886
N151	N	2.347431	0.092891	-0.559799
H152	H	2.395260	0.090298	-0.524982
H153	H	2.344034	0.045405	-0.600537
H154	H	2.199376	0.091347	-0.003368
N155	N	2.257562	0.091041	-0.159288
H156	H	2.283586	0.138495	-0.184929
H157	H	2.305316	0.088423	-0.124426
N158	N	2.507619	0.490036	0.239718
H159	H	2.555436	0.455205	0.242292
H160	H	2.533549	0.515682	0.192265
