data_functionalizedCrystal
_audit_creation_method	'MofGen! by Chris Wilmer'
_symmetry_space_group_name_H-M	'P1'
_symmetry_Int_Tables_number	1
_symmetry_cell_setting	triclinic
loop_
_symmetry_equiv_pos_as_xyz
  x,y,z
_cell_length_a	23.532355
_cell_length_b	23.532357
_cell_length_c	22.610064
_cell_angle_alpha	89.998517
_cell_angle_beta	89.997644
_cell_angle_gamma	82.827896
loop_
_atom_site_label
_atom_site_type_symbol
_atom_site_fract_x
_atom_site_fract_y
_atom_site_fract_z
O1	O	0.755270	0.068988	-0.049111
O2	O	1.255270	0.568988	0.450889
O3	O	0.589401	0.079022	-0.049131
O4	O	1.089401	0.579022	0.450869
O5	O	0.677352	-0.008929	-0.049108
O6	O	1.177352	0.491071	0.450892
O7	O	0.667319	0.156940	-0.049134
O8	O	1.167319	0.656940	0.450866
O9	O	0.677337	-0.008917	0.049261
O10	O	1.177337	0.491083	0.549261
O11	O	0.589385	0.079035	0.049238
O12	O	1.089385	0.579035	0.549238
O13	O	0.755255	0.069001	0.049258
O14	O	1.255255	0.569001	0.549258
Zn15	Zn	0.672318	0.074020	0.064866
Zn16	Zn	1.172318	0.574020	0.564866
Zn17	Zn	0.672338	0.074003	-0.064739
Zn18	Zn	1.172338	0.574003	0.435261
O19	O	0.667303	0.156953	0.049235
O20	O	1.167303	0.656953	0.549235
C21	C	0.568177	0.078778	0.000051
C22	C	1.068177	0.578778	0.500051
C23	C	0.504958	0.078024	0.000044
C24	C	1.004958	0.578024	0.500044
C25	C	0.677094	-0.030140	0.000078
C26	C	1.177094	0.469860	0.500078
C27	C	0.676339	-0.093358	0.000084
C28	C	1.176339	0.406642	0.500084
C29	C	0.671611	-0.485375	-0.053570
C30	C	1.171611	0.014625	0.446430
C31	C	0.670893	-0.544775	-0.053573
C32	C	1.170893	-0.044775	0.446427
O33	O	0.670510	-0.575497	-0.099176
O34	O	1.170510	-0.075497	0.400824
N35	N	0.670529	-0.574479	0.000047
N36	N	1.170529	-0.074479	0.500047
C37	C	0.670877	-0.544780	0.053674
C38	C	1.170877	-0.044780	0.553674
O39	O	0.670500	-0.575500	0.099282
O40	O	1.170500	-0.075500	0.599282
C41	C	0.671590	-0.485381	0.053677
C42	C	1.171590	0.014619	0.553677
C43	C	0.671960	-0.455681	0.000053
C44	C	1.171960	0.044319	0.500053
C45	C	0.671980	-0.455675	-0.107189
C46	C	1.171980	0.044325	0.392811
C47	C	0.672698	-0.396280	-0.107186
C48	C	1.172698	0.103720	0.392814
C49	C	0.673047	-0.366585	-0.053563
C50	C	1.173047	0.133415	0.446437
C51	C	0.672678	-0.396286	0.000057
C52	C	1.172678	0.103714	0.500057
C53	C	0.671933	-0.455682	0.107303
C54	C	1.171933	0.044318	0.607303
C55	C	0.672646	-0.396280	0.107302
C56	C	1.172646	0.103720	0.607302
C57	C	0.673016	-0.366579	0.053678
C58	C	1.173016	0.133421	0.553678
C59	C	0.673745	-0.307196	0.053684
C60	C	1.173745	0.192804	0.553684
N61	N	0.674109	-0.277492	0.000063
N62	N	1.174109	0.222508	0.500063
C63	C	0.673760	-0.307186	-0.053560
C64	C	1.173760	0.192814	0.446440
C65	C	0.669378	-0.669521	0.053664
C66	C	1.169378	-0.169521	0.553664
C67	C	0.668669	-0.728919	0.053662
C68	C	1.168669	-0.228919	0.553662
C69	C	0.668685	-0.728910	-0.053586
C70	C	1.168685	-0.228910	0.446414
C71	C	0.669398	-0.669511	-0.053583
C72	C	1.169398	-0.169511	0.446417
C73	C	0.669742	-0.639817	0.000044
C74	C	1.169742	-0.139817	0.500044
C75	C	0.675269	-0.182453	-0.053548
C76	C	1.175269	0.317547	0.446452
C77	C	0.675990	-0.123053	-0.053540
C78	C	1.175990	0.376947	0.446460
C79	C	0.675971	-0.123067	0.053708
C80	C	1.175971	0.376933	0.553708
C81	C	0.675253	-0.182462	0.053700
C82	C	1.175253	0.317538	0.553700
C83	C	0.674901	-0.212153	0.000067
C84	C	1.174901	0.287847	0.500067
O85	O	0.674126	-0.276436	0.099263
O86	O	1.174126	0.223564	0.599263
O87	O	0.674129	-0.276458	-0.099160
O88	O	1.174129	0.223542	0.400840
C89	C	0.112937	0.073293	0.053691
C90	C	0.612937	0.573293	0.553691
C91	C	0.053537	0.072575	0.053693
C92	C	0.553537	0.572575	0.553693
O93	O	0.022812	0.072191	0.099295
O94	O	0.522812	0.572191	0.599295
N95	N	0.023837	0.072212	0.000072
N96	N	0.523837	0.572212	0.500072
C97	C	0.053541	0.072561	-0.053554
C98	C	0.553541	0.572561	0.446446
O99	O	0.022824	0.072186	-0.099163
O100	O	0.522824	0.572186	0.400837
C101	C	0.112939	0.073275	-0.053556
C102	C	0.612939	0.573275	0.446444
C103	C	0.142636	0.073643	0.000068
C104	C	0.642636	0.573643	0.500068
C105	C	0.142633	0.073661	0.107311
C106	C	0.642633	0.573661	0.607311
C107	C	0.202028	0.074379	0.107308
C108	C	0.702028	0.574379	0.607308
C109	C	0.231727	0.074730	0.053686
C110	C	0.731727	0.574730	0.553686
C111	C	0.202031	0.074362	0.000066
C112	C	0.702031	0.574362	0.500066
C113	C	0.142642	0.073620	-0.107182
C114	C	0.642642	0.573620	0.392818
C115	C	0.202045	0.074333	-0.107179
C116	C	0.702045	0.574333	0.392821
C117	C	0.231741	0.074701	-0.053555
C118	C	0.731741	0.574701	0.446445
C119	C	0.291124	0.075431	-0.053560
C120	C	0.791124	0.575431	0.446440
N121	N	0.320824	0.075794	0.000061
N122	N	0.820824	0.575794	0.500061
C123	C	0.291126	0.075443	0.053684
C124	C	0.791126	0.575443	0.553684
C125	C	-0.071201	0.071062	-0.053546
C126	C	0.428799	0.571062	0.446454
C127	C	-0.130599	0.070353	-0.053545
C128	C	0.369401	0.570353	0.446455
C129	C	-0.130598	0.070366	0.053702
C130	C	0.369402	0.570366	0.553702
C131	C	-0.071199	0.071079	0.053701
C132	C	0.428801	0.571079	0.553701
C133	C	-0.041501	0.071425	0.000074
C134	C	0.458499	0.571425	0.500074
C135	C	0.415859	0.076952	0.053674
C136	C	0.915859	0.576952	0.553674
C137	C	0.475259	0.077673	0.053667
C138	C	0.975259	0.577673	0.553667
C139	C	0.475254	0.077657	-0.053581
C140	C	0.975254	0.577657	0.446419
C141	C	0.415858	0.076940	-0.053574
C142	C	0.915858	0.576940	0.446426
C143	C	0.386163	0.076585	0.000059
C144	C	0.886163	0.576585	0.500059
O145	O	0.321888	0.075813	-0.099138
O146	O	0.821888	0.575813	0.400862
O147	O	0.321850	0.075811	0.099285
O148	O	0.821850	0.575811	0.599285
C149	C	0.776479	0.069245	0.000074
C150	C	1.276479	0.569245	0.500074
C151	C	0.839698	0.069999	0.000078
C152	C	1.339698	0.569999	0.500078
C153	C	0.667562	0.178163	0.000048
C154	C	1.167562	0.678163	0.500048
C155	C	0.668317	0.241381	0.000038
C156	C	1.168317	0.741381	0.500038
N157	N	0.672308	0.074031	0.153319
N158	N	1.172308	0.574031	0.653319
N159	N	0.672352	0.073987	-0.153192
N160	N	1.172352	0.573987	0.346808
C161	C	0.711285	0.035064	0.561970
C162	C	1.211285	0.535064	1.061970
C163	C	0.711288	0.035060	0.623890
C164	C	1.211288	0.535060	1.123890
O165	O	0.744403	0.001937	0.655917
O166	O	1.244403	0.501937	1.155917
N167	N	0.672338	0.073991	0.654856
N168	N	1.172338	0.573991	1.154856
C169	C	0.633378	0.112926	0.623899
C170	C	1.133378	0.612926	1.123899
O171	O	0.600249	0.146039	0.655923
O172	O	1.100249	0.646039	1.155923
C173	C	0.633373	0.112927	0.561980
C174	C	1.133373	0.612927	1.061980
C175	C	0.672330	0.073996	0.531017
C176	C	1.172330	0.573996	1.031017
C177	C	0.750237	-0.003863	0.531008
C178	C	1.250237	0.496137	1.031008
C179	C	0.750235	-0.003858	0.469092
C180	C	1.250235	0.496142	0.969092
C181	C	0.711280	0.035074	0.438139
C182	C	1.211280	0.535074	0.938139
C183	C	0.672327	0.074001	0.469102
C184	C	1.172327	0.574001	0.969102
C185	C	0.594412	0.151858	0.531024
C186	C	1.094412	0.651858	1.031024
C187	C	0.594410	0.151855	0.469101
C188	C	1.094410	0.651855	0.969101
C189	C	0.633366	0.112925	0.438138
C190	C	1.133366	0.612925	0.938138
C191	C	0.633370	0.112939	0.376233
C192	C	1.133370	0.612939	0.876233
N193	N	0.672320	0.074007	0.345267
N194	N	1.172320	0.574007	0.845267
C195	C	0.711275	0.035075	0.376220
C196	C	1.211275	0.535075	0.876220
C197	C	0.633392	0.112920	0.753932
C198	C	1.133392	0.612920	1.253932
C199	C	0.633399	0.112922	0.815850
C200	C	1.133399	0.612922	1.315850
C201	C	0.711308	0.035056	0.815837
C202	C	1.211308	0.535056	1.315837
C203	C	0.711302	0.035057	0.753918
C204	C	1.211302	0.535057	1.253918
C205	C	0.672342	0.073989	0.722966
C206	C	1.172342	0.573989	1.222966
C207	C	0.711267	0.035089	0.246193
C208	C	1.211267	0.535089	0.746193
C209	C	0.711263	0.035099	0.184272
C210	C	1.211263	0.535099	0.684272
C211	C	0.633353	0.112963	0.184290
C212	C	1.133353	0.612963	0.684290
C213	C	0.633359	0.112955	0.246206
C214	C	1.133359	0.612955	0.746206
C215	C	0.672318	0.074013	0.277156
C216	C	1.172318	0.574013	0.777156
O217	O	0.600270	0.146043	0.344166
O218	O	1.100270	0.646043	0.844166
O219	O	0.744394	0.001962	0.344188
O220	O	1.244394	0.501962	0.844188
H221	H	0.676292	-0.098873	-0.097208
H222	H	1.176292	0.401127	0.402792
H223	H	0.674979	-0.206620	-0.097221
H224	H	1.174979	0.293380	0.402779
H225	H	0.671694	-0.479846	-0.150858
H226	H	1.171694	0.020154	0.349142
C227	C	0.788857	0.022307	0.315807
C228	C	1.288857	0.522307	0.815807
C229	C	0.754093	-0.007715	0.280207
C230	C	1.254093	0.492285	0.780207
H231	H	0.815295	-0.004118	0.336808
H232	H	1.315295	0.495882	0.836808
H233	H	0.809196	0.045907	0.291651
H234	H	1.309196	0.545907	0.791651
H235	H	0.765656	0.045484	0.343115
H236	H	1.265656	0.545484	0.843115
H237	H	0.777294	-0.030889	0.252897
H238	H	1.277294	0.469111	0.752897
H239	H	0.733753	-0.031325	0.304365
H240	H	1.233753	0.468675	0.804365
C241	C	0.667552	-0.819970	0.101288
C242	C	1.167552	-0.319970	0.601288
C243	C	0.668259	-0.761562	0.112606
C244	C	1.168259	-0.261562	0.612606
H245	H	0.667296	-0.840119	0.137680
H246	H	1.167296	-0.340119	0.637680
H247	H	0.634226	-0.825157	0.079249
H248	H	1.134226	-0.325157	0.579249
H249	H	0.700660	-0.834246	0.079267
H250	H	1.200660	-0.334246	0.579267
H251	H	0.635148	-0.747285	0.134624
H252	H	1.135148	-0.247285	0.634624
H253	H	0.701588	-0.756371	0.134655
H254	H	1.201588	-0.256371	0.634655
C255	C	0.002284	0.022897	-0.115778
C256	C	0.502284	0.522897	0.384222
C257	C	-0.038561	0.071452	-0.112499
C258	C	0.461439	0.571452	0.387501
H259	H	0.022428	0.023137	-0.152174
H260	H	0.522428	0.523137	0.347826
H261	H	0.028474	0.023219	-0.083852
H262	H	0.528474	0.523219	0.416148
H263	H	-0.016354	-0.010595	-0.113540
H264	H	0.483646	0.489405	0.386460
H265	H	-0.019922	0.104944	-0.114731
H266	H	0.480078	0.604944	0.385269
H267	H	-0.064755	0.071135	-0.144433
H268	H	0.435245	0.571135	0.355567
H269	H	0.118459	0.073374	0.150979
H270	H	0.618459	0.573374	0.650979
H271	H	0.226202	0.074676	0.150975
H272	H	0.726202	0.574676	0.650975
C273	C	0.784852	-0.038453	0.625914
C274	C	1.284852	0.461547	1.125914
C275	C	0.793062	-0.046662	0.565025
C276	C	1.293062	0.453338	1.065025
H277	H	0.811293	-0.064878	0.646911
H278	H	1.311293	0.435122	1.146911
H279	H	0.790815	-0.000480	0.636061
H280	H	1.290815	0.499520	1.136061
H281	H	0.746882	-0.044444	0.636067
H282	H	1.246882	0.455556	1.136067
H283	H	0.831031	-0.040666	0.554871
H284	H	1.331031	0.459334	1.054871
H285	H	0.787105	-0.084644	0.554875
H286	H	1.287105	0.415356	1.054875
H287	H	0.391688	0.076669	0.097347
H288	H	0.891688	0.576669	0.597347
H289	H	0.672997	-0.372103	-0.150852
H290	H	1.172997	0.127897	0.349148
H291	H	0.601683	0.144629	0.841055
H292	H	1.101683	0.644629	1.341055
H293	H	0.669698	-0.645333	-0.097248
H294	H	1.169698	-0.145333	0.402752
H295	H	0.671633	-0.479854	0.150970
H296	H	1.171633	0.020146	0.650970
C297	C	0.669296	-0.675507	0.159674
C298	C	1.169296	-0.175507	0.659674
C299	C	0.669765	-0.636885	0.112616
C300	C	1.169765	-0.136885	0.612616
H301	H	0.669537	-0.655360	0.196068
H302	H	1.169537	-0.155360	0.696068
H303	H	0.635803	-0.694133	0.157436
H304	H	1.135803	-0.194133	0.657436
H305	H	0.702237	-0.703215	0.157438
H306	H	1.202237	-0.203215	0.657438
H307	H	0.636822	-0.609179	0.114850
H308	H	1.136822	-0.109179	0.614850
H309	H	0.703261	-0.618249	0.114856
H310	H	1.203261	-0.118249	0.614856
C311	C	0.788320	-0.041917	0.809620
C312	C	1.288320	0.458083	1.309620
C313	C	0.754127	-0.007744	0.849868
C314	C	1.254127	0.492256	1.349868
H315	H	0.814755	-0.068334	0.830632
H316	H	1.314755	0.431666	1.330632
H317	H	0.764735	-0.062279	0.785473
H318	H	1.264735	0.437721	1.285473
H319	H	0.808666	-0.018313	0.785467
H320	H	1.308666	0.481687	1.285467
H321	H	0.733777	-0.031348	0.874019
H322	H	1.233777	0.468652	1.374019
H323	H	0.777715	0.012619	0.874026
H324	H	1.277715	0.512619	1.374026
C325	C	0.516819	0.164630	0.399481
C326	C	1.016819	0.664630	0.899481
C327	C	0.551582	0.194653	0.435080
C328	C	1.051582	0.694653	0.935080
H329	H	0.490378	0.191053	0.378483
H330	H	0.990378	0.691053	0.878483
H331	H	0.540016	0.141454	0.372178
H332	H	1.040016	0.641454	0.872178
H333	H	0.496478	0.141028	0.423643
H334	H	0.996478	0.641028	0.923643
H335	H	0.571926	0.218253	0.410918
H336	H	1.071926	0.718253	0.910918
H337	H	0.528382	0.217839	0.462386
H338	H	1.028382	0.717839	0.962386
H339	H	-0.047025	0.071380	0.097366
H340	H	0.452975	0.571380	0.597366
H341	H	0.601666	0.144628	0.728734
H342	H	1.101666	0.644628	1.228734
H343	H	0.226222	0.074614	-0.150849
H344	H	0.726222	0.574614	0.349151
C345	C	0.672541	-0.402257	0.213313
C346	C	1.172541	0.097743	0.713313
C347	C	0.673019	-0.363640	0.166252
C348	C	1.173019	0.136360	0.666252
H349	H	0.672774	-0.382107	0.249704
H350	H	1.172774	0.117893	0.749704
H351	H	0.639050	-0.420885	0.211068
H352	H	1.139050	0.079115	0.711068
H353	H	0.705483	-0.429965	0.211085
H354	H	1.205483	0.070035	0.711085
H355	H	0.640075	-0.335935	0.168476
H356	H	1.140075	0.164065	0.668476
H357	H	0.706514	-0.345003	0.168498
H358	H	1.206514	0.154997	0.668498
H359	H	0.674958	-0.206646	0.097365
H360	H	1.174958	0.293354	0.597365
H361	H	0.781955	-0.035560	0.443886
H362	H	1.281955	0.464440	0.943886
H363	H	0.743024	0.003356	0.728712
H364	H	1.243024	0.503356	1.228712
H365	H	-0.154789	0.070079	0.097365
H366	H	0.345211	0.570079	0.597365
C367	C	0.559805	0.186434	0.625935
C368	C	1.059805	0.686434	1.125935
C369	C	0.551586	0.194648	0.565048
C370	C	1.051586	0.694648	1.065048
H371	H	0.533365	0.212855	0.646938
H372	H	1.033365	0.712855	1.146938
H373	H	0.553848	0.148459	0.636082
H374	H	1.053848	0.648459	1.136082
H375	H	0.597775	0.192429	0.636079
H376	H	1.097775	0.692429	1.136079
H377	H	0.513616	0.188649	0.554902
H378	H	1.013616	0.688649	1.054902
H379	H	0.557538	0.232632	0.554897
H380	H	1.057538	0.732632	1.054897
H381	H	0.601642	0.144661	0.271416
H382	H	1.101642	0.644661	0.771416
C383	C	0.667585	-0.819964	-0.101203
C384	C	1.167585	-0.319964	0.398797
C385	C	0.668294	-0.761557	-0.112531
C386	C	1.168294	-0.261557	0.387469
H387	H	0.667340	-0.840118	-0.137592
H388	H	1.167340	-0.340118	0.362408
H389	H	0.700680	-0.834235	-0.079173
H390	H	1.200680	-0.334235	0.420827
H391	H	0.634247	-0.825148	-0.079170
H392	H	1.134247	-0.325148	0.420830
H393	H	0.701634	-0.756372	-0.134561
H394	H	1.201634	-0.256372	0.365439
H395	H	0.635195	-0.747282	-0.134571
H396	H	1.135195	-0.247282	0.365429
H397	H	0.601637	0.144663	0.159078
H398	H	1.101637	0.644663	0.659078
C399	C	-0.124619	0.070412	-0.159553
C400	C	0.375381	0.570412	0.340447
C401	C	-0.163237	0.069954	-0.112491
C402	C	0.336763	0.569954	0.387509
H403	H	-0.144767	0.070160	-0.195944
H404	H	0.355233	0.570160	0.304056
H405	H	-0.105995	0.103907	-0.157326
H406	H	0.394005	0.603907	0.342674
H407	H	-0.096908	0.037474	-0.157310
H408	H	0.403092	0.537474	0.342690
H409	H	-0.190946	0.102894	-0.114731
H410	H	0.309054	0.602894	0.385269
H411	H	-0.181870	0.036455	-0.114719
H412	H	0.318130	0.536455	0.385281
C413	C	0.421826	0.077008	-0.159583
C414	C	0.921826	0.577008	0.340417
C415	C	0.383212	0.076544	-0.112517
C416	C	0.883212	0.576544	0.387483
H417	H	0.401673	0.076758	-0.195972
H418	H	0.901673	0.576758	0.304028
H419	H	0.440449	0.110504	-0.157355
H420	H	0.940449	0.610504	0.342645
H421	H	0.449537	0.044070	-0.157346
H422	H	0.949537	0.544070	0.342654
H423	H	0.355502	0.109484	-0.114752
H424	H	0.855502	0.609484	0.385248
H425	H	0.364579	0.043045	-0.114746
H426	H	0.864579	0.543045	0.385254
H427	H	0.676258	-0.098879	0.097366
H428	H	1.176258	0.401121	0.597366
H429	H	0.499435	0.077975	0.097336
H430	H	0.999435	0.577975	0.597336
H431	H	0.118474	0.073319	-0.150849
H432	H	0.618474	0.573319	0.349151
H433	H	0.499445	0.077945	-0.097239
H434	H	0.999445	0.577945	0.402761
C435	C	0.788272	-0.041874	0.190488
C436	C	1.288272	0.458126	0.690488
C437	C	0.754084	-0.007699	0.150239
C438	C	1.254084	0.492301	0.650239
H439	H	0.814703	-0.068297	0.169478
H440	H	1.314703	0.431703	0.669478
H441	H	0.808618	-0.018275	0.214636
H442	H	1.308618	0.481725	0.714636
H443	H	0.764679	-0.062234	0.214641
H444	H	1.264679	0.437766	0.714641
H445	H	0.777676	0.012665	0.126088
H446	H	1.277676	0.512665	0.626088
H447	H	0.733737	-0.031301	0.126080
H448	H	1.233737	0.468699	0.626080
