data_functionalizedCrystal
_audit_creation_method	'MofGen! by Chris Wilmer'
_symmetry_space_group_name_H-M	'P1'
_symmetry_Int_Tables_number	1
_symmetry_cell_setting	triclinic
loop_
_symmetry_equiv_pos_as_xyz
  x,y,z
_cell_length_a	18.050589
_cell_length_b	12.759395
_cell_length_c	12.759387
_cell_angle_alpha	89.977726
_cell_angle_beta	90.029987
_cell_angle_gamma	89.971216
loop_
_atom_site_label
_atom_site_type_symbol
_atom_site_fract_x
_atom_site_fract_y
_atom_site_fract_z
Zn1	Zn	-0.295609	-1.606170	0.594060
Zn2	Zn	0.204391	-1.106170	1.094060
Zn3	Zn	-0.419818	-1.606019	0.418383
Zn4	Zn	0.080182	-1.106019	0.918383
Zn5	Zn	-0.295647	-1.430468	0.418392
Zn6	Zn	0.204353	-0.930468	0.918392
Zn7	Zn	-0.419763	-1.430419	0.594017
Zn8	Zn	0.080237	-0.930419	1.094017
O9	O	-0.357709	-1.518269	0.506213
O10	O	0.142291	-1.018269	1.006213
O11	O	-0.312093	-1.753171	0.570771
O12	O	0.187907	-1.253171	1.070771
O13	O	-0.403386	-1.582689	0.271363
O14	O	0.096614	-1.082689	0.771363
O15	O	-0.191718	-1.453859	0.441716
O16	O	0.308282	-0.953859	0.941716
O17	O	-0.403348	-1.753060	0.441702
O18	O	0.096652	-1.253060	0.941702
O19	O	-0.191690	-1.582946	0.570779
O20	O	0.308310	-1.082946	1.070779
O21	O	-0.312158	-1.453713	0.271370
O22	O	0.187842	-0.953713	0.771370
O23	O	-0.312105	-1.283441	0.441674
O24	O	0.187895	-0.783441	0.941674
O25	O	-0.403255	-1.453775	0.741044
O26	O	0.096745	-0.953775	1.241044
O27	O	-0.403292	-1.283405	0.570705
O28	O	0.096708	-0.783405	1.070705
O29	O	-0.312039	-1.582899	0.741076
O30	O	0.187961	-1.082899	1.241076
O31	O	-0.523735	-1.582642	0.441660
O32	O	-0.023735	-1.082642	0.941660
O33	O	-0.523695	-1.453629	0.570697
O34	O	-0.023695	-0.953629	1.070697
C35	C	-0.357697	-1.245302	0.506187
C36	C	0.142303	-0.745302	1.006187
C37	C	-0.357710	-1.128525	0.506200
C38	C	0.142290	-0.628525	1.006200
C39	C	-0.452816	-1.128526	0.640343
C40	C	0.047184	-0.628526	1.140343
C41	C	-0.500375	-1.073666	0.707416
C42	C	-0.000375	-0.573666	1.207416
C43	C	-0.500383	-0.963944	0.707425
C44	C	-0.000383	-0.463944	1.207425
C45	C	-0.452825	-0.909080	0.640357
C46	C	0.047175	-0.409080	1.140357
C47	C	-0.405267	-0.963940	0.573284
C48	C	0.094733	-0.463940	1.073284
C49	C	-0.405266	-1.073665	0.573280
C50	C	0.094734	-0.573665	1.073280
C51	C	-0.310157	-0.963939	0.439149
C52	C	0.189843	-0.463939	0.939149
C53	C	-0.310152	-1.073661	0.439132
C54	C	0.189848	-0.573661	0.939132
C55	C	-0.262600	-0.909076	0.372080
C56	C	0.237400	-0.409076	0.872080
C57	C	-0.215044	-0.963936	0.305001
C58	C	0.284956	-0.463936	0.805001
C59	C	-0.215039	-1.073664	0.304993
C60	C	0.284961	-0.573664	0.804993
C61	C	-0.262594	-1.128521	0.372059
C62	C	0.237406	-0.628521	0.872059
C63	C	-0.550662	-1.518142	0.506196
C64	C	-0.050662	-1.018142	1.006196
C65	C	-0.633207	-1.518184	0.506223
C66	C	-0.133207	-1.018184	1.006223
C67	C	-0.832663	-1.448096	0.576369
C68	C	-0.332663	-0.948096	1.076369
C69	C	-0.882111	-1.422480	0.480500
C70	C	-0.382111	-0.922480	0.980500
C71	C	-0.784338	-1.518287	0.506237
C72	C	-0.284338	-1.018287	1.006237
C73	C	-0.881971	-1.543955	0.602118
C74	C	-0.381971	-1.043955	1.102118
C75	C	-0.930323	-1.518385	0.506259
C76	C	-0.430323	-1.018385	1.006259
C77	C	-0.832699	-1.492621	0.410317
C78	C	-0.332699	-0.992621	0.910317
C79	C	-0.832554	-1.614141	0.531999
C80	C	-0.332554	-1.114141	1.031999
C81	C	-0.881980	-1.588561	0.436064
C82	C	-0.381980	-1.088561	0.936064
C83	C	-0.700239	-1.518228	0.506226
C84	C	-0.200239	-1.018228	1.006226
C85	C	-1.014419	-1.518444	0.506259
C86	C	-0.514419	-1.018444	1.006259
C87	C	-0.164004	-1.518425	0.506254
C88	C	0.335996	-1.018425	1.006254
C89	C	-0.081458	-1.518492	0.506271
C90	C	0.418542	-1.018492	1.006271
C91	C	-0.357637	-1.518348	0.780247
C92	C	0.142363	-1.018348	1.280247
C93	C	-0.357606	-1.518382	0.897024
C94	C	0.142394	-1.018382	1.397024
C95	C	-0.357719	-0.792302	0.506233
C96	C	0.142281	-0.292302	1.006233
C97	C	-0.357716	-0.909079	0.506221
C98	C	0.142284	-0.409079	1.006221
C99	C	-0.357728	-1.518251	0.233246
C100	C	0.142272	-1.018251	0.733246
C101	C	-0.357550	-1.518420	0.116470
C102	C	0.142450	-1.018420	0.616470
C103	C	-0.262629	-1.652848	0.897077
C104	C	0.237371	-1.152848	1.397077
C105	C	-0.215130	-1.720095	0.951964
C106	C	0.284870	-1.220095	1.451964
C107	C	-0.215103	-1.720121	1.061686
C108	C	0.284897	-1.220121	1.561686
C109	C	-0.262579	-1.652889	1.116522
C110	C	0.237421	-1.152889	1.616522
C111	C	-0.310078	-1.585642	1.061635
C112	C	0.189922	-1.085642	1.561635
C113	C	-0.310101	-1.585626	0.951911
C114	C	0.189899	-1.085626	1.451911
C115	C	-0.405049	-1.451173	1.061582
C116	C	0.094951	-0.951173	1.561582
C117	C	-0.405081	-1.451151	0.951860
C118	C	0.094919	-0.951151	1.451860
C119	C	-0.452525	-1.383942	1.116419
C120	C	0.047475	-0.883942	1.616419
C121	C	-0.500029	-1.316698	1.061532
C122	C	-0.000029	-0.816698	1.561532
C123	C	-0.500055	-1.316676	0.951803
C124	C	-0.000055	-0.816676	1.451803
C125	C	-0.452581	-1.383904	0.896973
C126	C	0.047419	-0.883904	1.396973
H127	H	-0.262596	-1.217863	0.372057
H128	H	0.237404	-0.717863	0.872057
C129	C	-0.803400	-1.367789	0.656374
C130	C	-0.303400	-0.867789	1.156374
N131	N	-0.781357	-1.307299	0.716627
N132	N	-0.281357	-0.807299	1.216627
H133	H	-0.903498	-1.647961	0.376696
H134	H	-0.403498	-1.147961	0.876696
H135	H	-0.176305	-1.118325	0.250382
H136	H	0.323695	-0.618325	0.750382
C137	C	-0.452500	-1.383981	1.237116
C138	C	0.047500	-0.883981	1.737116
N139	N	-0.452487	-1.384015	1.328026
N140	N	0.047513	-0.884015	1.828026
H141	H	-0.262654	-1.652843	0.807735
H142	H	0.237346	-1.152843	1.307735
C143	C	-0.262602	-0.788379	0.372103
C144	C	0.237398	-0.288379	0.872103
N145	N	-0.262603	-0.697469	0.372119
N146	N	0.237397	-0.197469	0.872119
C147	C	-0.911518	-1.313028	0.451067
C148	C	-0.411518	-0.813028	0.951067
N149	N	-0.933666	-1.230586	0.428905
N150	N	-0.433666	-0.730586	0.928905
C151	C	-0.803582	-1.463212	0.300756
C152	C	-0.303582	-0.963212	0.800756
N153	N	-0.781650	-1.441057	0.218239
N154	N	-0.281650	-0.941057	0.718239
C155	C	-0.803112	-1.723554	0.561481
C156	C	-0.303112	-1.223554	1.061481
N157	N	-0.780931	-1.805961	0.583702
N158	N	-0.280931	-1.305961	1.083702
H159	H	-0.452829	-0.819739	0.640380
H160	H	0.047171	-0.319739	1.140380
H161	H	-0.538676	-1.261958	1.106189
H162	H	-0.038676	-0.761958	1.606189
C163	C	-0.911211	-1.573233	0.711648
C164	C	-0.411211	-1.073233	1.211648
N165	N	-0.933231	-1.595278	0.794148
N166	N	-0.433231	-1.095278	1.294148
H167	H	-0.176475	-1.774831	0.907304
H168	H	0.323525	-1.274831	1.407304
H169	H	-0.262546	-1.652907	1.205864
H170	H	0.237454	-1.152907	1.705864
C171	C	-0.552700	-0.903596	0.781207
C172	C	-0.052700	-0.403596	1.281207
N173	N	-0.592106	-0.858142	0.836778
N174	N	-0.092106	-0.358142	1.336778
C175	C	-0.452603	-1.383884	0.776276
C176	C	0.047397	-0.883884	1.276276
N177	N	-0.452615	-1.383869	0.685366
N178	N	0.047385	-0.883869	1.185366
C179	C	-0.552308	-1.242696	0.891436
C180	C	-0.052308	-0.742696	1.391436
N181	N	-0.591667	-1.186972	0.845971
N182	N	-0.091667	-0.686972	1.345971
C183	C	-0.162852	-1.794096	1.122063
C184	C	0.337148	-1.294096	1.622063
N185	N	-0.123497	-1.849815	1.167540
N186	N	0.376503	-1.349815	1.667540
H187	H	-0.452820	-1.217867	0.640334
H188	H	0.047180	-0.717867	1.140334
H189	H	-0.539094	-1.118348	0.762023
H190	H	-0.039094	-0.618348	1.262023
H191	H	-0.176323	-0.919257	0.250404
H192	H	0.323677	-0.419257	0.750404
