data_functionalizedCrystal
_audit_creation_method	'MofGen! by Chris Wilmer'
_symmetry_space_group_name_H-M	'P1'
_symmetry_Int_Tables_number	1
_symmetry_cell_setting	triclinic
loop_
_symmetry_equiv_pos_as_xyz
  x,y,z
_cell_length_a	13.033293
_cell_length_b	18.101395
_cell_length_c	13.032268
_cell_angle_alpha	82.853748
_cell_angle_beta	90.920818
_cell_angle_gamma	97.200663
loop_
_atom_site_label
_atom_site_type_symbol
_atom_site_fract_x
_atom_site_fract_y
_atom_site_fract_z
Zn1	Zn	1.498387	-0.230407	0.781470
Zn2	Zn	1.998387	0.269593	1.281470
Zn3	Zn	1.520095	-0.336834	0.609491
Zn4	Zn	2.020095	0.163166	1.109491
Zn5	Zn	1.348249	-0.226497	0.587646
Zn6	Zn	1.848249	0.273503	1.087646
Zn7	Zn	1.326336	-0.367707	0.759530
Zn8	Zn	1.826336	0.132293	1.259530
O9	O	1.423267	-0.290361	0.684534
O10	O	1.923267	0.209639	1.184534
O11	O	1.645189	-0.233242	0.776981
O12	O	2.145189	0.266758	1.276981
O13	O	1.515555	-0.307641	0.462686
O14	O	2.015555	0.192359	0.962686
O15	O	1.368250	-0.123378	0.613397
O16	O	1.868250	0.376622	1.113397
O17	O	1.661138	-0.311433	0.650629
O18	O	2.161138	0.188567	1.150629
O19	O	1.478557	-0.126252	0.755799
O20	O	1.978557	0.373748	1.255799
O21	O	1.389300	-0.226576	0.446636
O22	O	1.889300	0.273424	0.946636
O23	O	1.201420	-0.256512	0.592122
O24	O	1.701420	0.243488	1.092122
O25	O	1.330904	-0.364051	0.906348
O26	O	1.830904	0.135949	1.406348
O27	O	1.185321	-0.360259	0.718405
O28	O	1.685321	0.139741	1.218405
O29	O	1.457309	-0.263177	0.922467
O30	O	1.957309	0.236823	1.422467
O31	O	1.494307	-0.444567	0.629355
O32	O	1.994307	0.055433	1.129355
O33	O	1.351953	-0.467249	0.739587
O34	O	1.851953	0.032751	1.239587
C35	C	1.156053	-0.311312	0.650513
C36	C	1.656053	0.188688	1.150513
C37	C	1.041734	-0.320295	0.635982
C38	C	1.541734	0.179705	1.135982
C39	C	0.982863	-0.285692	0.692118
C40	C	1.482863	0.214308	1.192118
C41	C	0.864709	-0.294975	0.677101
C42	C	1.364709	0.205025	1.177101
C43	C	1.423133	-0.482780	0.684487
C44	C	1.923133	0.017220	1.184487
C45	C	1.423166	-0.565093	0.684513
C46	C	1.923166	-0.065093	1.184513
C47	C	1.423384	-0.864172	0.684597
C48	C	1.923384	-0.364172	1.184597
C49	C	1.333978	-0.847154	0.754173
C50	C	1.833978	-0.347154	1.254173
C51	C	1.333633	-0.761540	0.753876
C52	C	1.833633	-0.261540	1.253876
C53	C	1.423276	-0.715795	0.684556
C54	C	1.923276	-0.215795	1.184556
C55	C	1.407704	-0.738262	0.572444
C56	C	1.907704	-0.238262	1.072444
C57	C	1.407133	-0.823996	0.572856
C58	C	1.907133	-0.323996	1.072856
C59	C	1.528656	-0.826793	0.726200
C60	C	2.028656	-0.326793	1.226200
C61	C	1.527715	-0.741433	0.728496
C62	C	2.027715	-0.241433	1.228496
C63	C	1.423217	-0.631939	0.684526
C64	C	1.923217	-0.131939	1.184526
C65	C	1.423441	-0.948028	0.684619
C66	C	1.923441	-0.448028	1.184619
C67	C	1.691525	-0.269330	0.718689
C68	C	2.191525	0.230670	1.218689
C69	C	1.805840	-0.260367	0.733244
C70	C	2.305840	0.239633	1.233244
C71	C	1.389240	-0.317494	0.952765
C72	C	1.889240	0.182506	1.452765
C73	C	1.374740	-0.329057	1.067068
C74	C	1.874740	0.170943	1.567068
C75	C	1.423426	-0.097192	0.684608
C76	C	1.923426	0.402808	1.184608
C77	C	1.423494	-0.014874	0.684640
C78	C	1.923494	0.485126	1.184640
C79	C	1.457220	-0.263276	0.417355
C80	C	1.957220	0.236724	0.917355
C81	C	1.471919	-0.251489	0.303077
C82	C	1.971919	0.248511	0.803077
C83	C	1.430819	-0.284301	1.126004
C84	C	1.930819	0.215699	1.626004
C85	C	1.415833	-0.296251	1.244143
C86	C	1.915833	0.203749	1.744143
H87	H	1.341780	-0.747182	0.836573
H88	H	1.841780	-0.247182	1.336573
H89	H	1.489919	-0.237136	1.088999
H90	H	1.989919	0.262864	1.588999
H91	H	1.315629	-0.376215	1.104072
H92	H	1.815629	0.123785	1.604072
H93	H	1.470174	-0.834156	0.518505
H94	H	1.970174	-0.334156	1.018505
H95	H	1.356718	-0.343413	1.281143
H96	H	1.856718	0.156587	1.781143
F97	F	1.549191	-0.189845	1.254723
F98	F	2.049191	0.310155	1.754723
H99	H	1.019936	-0.249191	0.751290
H100	H	1.519936	0.250809	1.251290
H101	H	0.827642	-0.331474	0.617919
H102	H	1.327642	0.168526	1.117919
H103	H	1.539707	-0.727420	0.811071
H104	H	2.039707	-0.227420	1.311071
H105	H	0.842907	-0.223862	0.792420
H106	H	1.342907	0.276138	1.292420
H107	H	1.330589	-0.847895	0.539220
H108	H	1.830589	-0.347895	1.039220
F109	F	0.993285	-0.367997	0.558627
F110	F	1.493285	0.132003	1.058627
H111	H	1.341909	-0.874449	0.837107
H112	H	1.841909	-0.374449	1.337107
H113	H	1.256131	-0.873189	0.725817
H114	H	1.756131	-0.373189	1.225817
H115	H	1.255325	-0.745581	0.725226
H116	H	1.755325	-0.245581	1.225226
H117	H	1.471382	-0.707322	0.518587
H118	H	1.971382	-0.207322	1.018587
H119	H	1.332057	-0.720625	0.538494
H120	H	1.832057	-0.220625	1.038494
H121	H	1.545538	-0.854117	0.807286
H122	H	2.045538	-0.354117	1.307286
H123	H	1.595098	-0.836526	0.675694
H124	H	2.095098	-0.336526	1.175694
F125	F	1.617946	-0.699935	0.668534
F126	F	2.117946	-0.199935	1.168534
