data_functionalizedCrystal
_audit_creation_method	'MofGen! by Chris Wilmer'
_symmetry_space_group_name_H-M	'P1'
_symmetry_Int_Tables_number	1
_symmetry_cell_setting	triclinic
loop_
_symmetry_equiv_pos_as_xyz
  x,y,z
_cell_length_a	12.827893
_cell_length_b	18.101395
_cell_length_c	12.827885
_cell_angle_alpha	89.967625
_cell_angle_beta	89.980538
_cell_angle_gamma	90.031075
loop_
_atom_site_label
_atom_site_type_symbol
_atom_site_fract_x
_atom_site_fract_y
_atom_site_fract_z
Zn1	Zn	1.597557	-0.294794	-0.590830
Zn2	Zn	1.597403	-0.418654	-0.416082
Zn3	Zn	1.422798	-0.294830	-0.416103
Zn4	Zn	1.422736	-0.418598	-0.590782
O5	O	1.510124	-0.356719	-0.503449
O6	O	1.743773	-0.311233	-0.567660
O7	O	1.574203	-0.402266	-0.269849
O8	O	1.446071	-0.191193	-0.439310
O9	O	1.743660	-0.402231	-0.439274
O10	O	1.574466	-0.191166	-0.567681
O11	O	1.445921	-0.311294	-0.269865
O12	O	1.276554	-0.311241	-0.439264
O13	O	1.445965	-0.402137	-0.737025
O14	O	1.276508	-0.402172	-0.567600
O15	O	1.574406	-0.311179	-0.737060
O16	O	1.574143	-0.522279	-0.439228
O17	O	1.445816	-0.522239	-0.567579
C18	C	1.238614	-0.356705	-0.503430
C19	C	1.122461	-0.356717	-0.503446
C20	C	1.070681	-0.401783	-0.566852
C21	C	0.950631	-0.401796	-0.566871
C22	C	1.509984	-0.549130	-0.503419
C23	C	1.510020	-0.631444	-0.503440
C24	C	1.510249	-0.930535	-0.503497
C25	C	1.429696	-0.899215	-0.584452
C26	C	1.429314	-0.813597	-0.584199
C27	C	1.510135	-0.782152	-0.503470
C28	C	1.480315	-0.813311	-0.393335
C29	C	1.479796	-0.898956	-0.393820
C30	C	1.620798	-0.898877	-0.531706
C31	C	1.620148	-0.813226	-0.534121
C32	C	1.510073	-0.698293	-0.503448
C33	C	1.510309	-1.014394	-0.503511
C34	C	1.782694	-0.356734	-0.503470
C35	C	1.898847	-0.356740	-0.503479
C36	C	1.510196	-0.356648	-0.776020
C37	C	1.510227	-0.356618	-0.892173
C38	C	1.510293	-0.163557	-0.503503
C39	C	1.510365	-0.081243	-0.503526
C40	C	1.573741	-0.401583	-1.063994
C41	C	1.573711	-0.401615	-0.943944
C42	C	1.510112	-0.356737	-0.231940
C43	C	1.510284	-0.356558	-0.115787
H44	H	0.943370	-0.318158	-0.449188
H45	H	1.455930	-0.318037	-1.071252
H46	H	0.906101	-0.440381	-0.621152
C47	C	1.646930	-0.453797	-1.124154
N48	N	1.701973	-0.493187	-1.169465
C49	C	1.647109	-0.453694	-0.883775
N50	N	1.702393	-0.492921	-0.838453
H51	H	1.455900	-0.318065	-0.936707
C52	C	1.062286	-0.304603	-0.430126
N53	N	1.016963	-0.265351	-0.374898
H54	H	1.447971	-0.792528	-0.665863
C55	C	1.454643	-0.926973	-0.695136
N56	N	1.473432	-0.947887	-0.778504
C57	C	1.319666	-0.928368	-0.559520
N58	N	1.236790	-0.950325	-0.540734
H59	H	1.398985	-0.919000	-0.369923
C60	C	1.130856	-0.453897	-0.640171
N61	N	1.176178	-0.493153	-0.695395
H62	H	1.347372	-0.793175	-0.565514
H63	H	1.535922	-0.919677	-0.331445
H64	H	1.537140	-0.792944	-0.331373
H65	H	1.683339	-0.791817	-0.479455
C66	C	1.372294	-0.784431	-0.360476
N67	N	1.290929	-0.762681	-0.335733
C68	C	1.657522	-0.927975	-0.638356
N69	N	1.685171	-0.949892	-0.718690
H70	H	1.680813	-0.919130	-0.472743
C71	C	1.650554	-0.785678	-0.643598
N72	N	1.673461	-0.764915	-0.726050
