data_functionalizedCrystal
_audit_creation_method	'MofGen! by Chris Wilmer'
_symmetry_space_group_name_H-M	'P1'
_symmetry_Int_Tables_number	1
_symmetry_cell_setting	triclinic
loop_
_symmetry_equiv_pos_as_xyz
  x,y,z
_cell_length_a	8.634740
_cell_length_b	10.868271
_cell_length_c	8.597304
_cell_angle_alpha	97.705004
_cell_angle_beta	92.879752
_cell_angle_gamma	90.003825
loop_
_atom_site_label
_atom_site_type_symbol
_atom_site_fract_x
_atom_site_fract_y
_atom_site_fract_z
O1	O	2.053795	0.156687	0.512869
O2	O	2.553795	0.656687	1.012869
O3	O	1.604194	0.152130	0.469863
O4	O	2.104194	0.652130	0.969863
O5	O	1.837842	0.130327	0.264236
O6	O	2.337842	0.630327	0.764236
O7	O	1.820147	0.178490	0.718496
O8	O	2.320147	0.678490	1.218496
O9	O	1.837822	-0.074318	0.264224
O10	O	2.337822	0.425682	0.764224
O11	O	1.604175	-0.052516	0.469851
O12	O	2.104175	0.447484	0.969851
O13	O	2.053775	-0.047959	0.512857
O14	O	2.553775	0.452041	1.012857
Zn15	Zn	1.828972	-0.082729	0.491352
Zn16	Zn	2.328972	0.417271	0.991352
Zn17	Zn	1.828998	0.186901	0.491368
Zn18	Zn	2.328998	0.686901	0.991368
O19	O	1.820128	-0.026156	0.718483
O20	O	2.320128	0.473844	1.218483
C21	C	1.546587	0.048775	0.460114
C22	C	2.046587	0.548775	0.960114
C23	C	1.374966	0.045696	0.431066
C24	C	1.874966	0.545696	0.931066
N25	N	1.828965	-0.266744	0.491341
N26	N	2.328965	0.233256	0.991341
C27	C	1.828989	-0.517748	0.491363
C28	C	2.328989	-0.017748	0.991363
C29	C	1.828971	-0.378071	0.491355
C30	C	2.328971	0.121929	0.991355
C31	C	2.111382	0.055400	0.522605
C32	C	2.611382	0.555400	1.022605
C33	C	2.283003	0.058486	0.551654
C34	C	2.783003	0.558486	1.051654
C35	C	1.835931	0.021777	0.205471
C36	C	2.335931	0.521777	0.705471
C37	C	1.830249	0.003222	0.030384
C38	C	2.330249	0.503222	0.530384
N39	N	1.829016	0.370915	0.491368
N40	N	2.329016	0.870915	0.991368
C41	C	1.822038	0.082397	0.777249
C42	C	2.322038	0.582397	1.277249
C43	C	1.827721	0.100960	0.952335
C44	C	2.327721	0.600960	1.452335
H45	H	1.335566	0.071777	0.677117
H46	H	1.835566	0.571777	1.177117
Cl47	Cl	1.293814	0.025154	0.237344
Cl48	Cl	1.793814	0.525154	0.737344
Cl49	Cl	1.831092	0.252087	0.055967
Cl50	Cl	2.331092	0.752087	0.555967
H51	H	1.828047	-0.094666	-0.036749
H52	H	2.328047	0.405334	0.463251
