data_functionalizedCrystal
_audit_creation_method	'MofGen! by Chris Wilmer'
_symmetry_space_group_name_H-M	'P1'
_symmetry_Int_Tables_number	1
_symmetry_cell_setting	triclinic
loop_
_symmetry_equiv_pos_as_xyz
  x,y,z
_cell_length_a	6.394989
_cell_length_b	16.109301
_cell_length_c	15.186229
_cell_angle_alpha	90.000638
_cell_angle_beta	90.000778
_cell_angle_gamma	84.979596
loop_
_atom_site_label
_atom_site_type_symbol
_atom_site_fract_x
_atom_site_fract_y
_atom_site_fract_z
O1	O	-0.268480	-1.105973	-0.073167
O2	O	-0.301892	-0.864264	-0.073180
O3	O	0.018881	-0.988549	-0.073174
O4	O	-0.589252	-0.981688	-0.073173
O5	O	0.018885	-0.988541	0.073283
O6	O	-0.301887	-0.864256	0.073277
O7	O	-0.268475	-1.105964	0.073290
Zn8	Zn	-0.285181	-0.985109	0.096537
Zn9	Zn	-0.285187	-0.985120	-0.096427
O10	O	-0.589248	-0.981679	0.073284
C11	C	-0.300536	-0.833271	0.000047
C12	C	-0.296479	-0.740933	0.000041
C13	C	-0.269831	-1.136958	0.000061
C14	C	-0.273889	-1.229296	0.000061
N15	N	-0.285175	-0.985107	0.228229
C16	C	0.096703	-0.987189	0.000051
C17	C	0.332935	-0.983042	0.000050
N18	N	-0.285175	-0.985128	-0.228120
C19	C	-0.477384	-0.520575	0.000052
C20	C	-0.473555	-0.433814	0.000057
C21	C	-0.092969	-0.449660	0.000053
C22	C	-0.096800	-0.536419	0.000054
C23	C	-0.289014	-0.571874	0.000049
C24	C	-0.281354	-0.398354	0.000054
C25	C	-0.277201	-0.304284	0.000060
C26	C	-0.293168	-0.665950	0.000044
C27	C	-0.143185	-1.040160	0.453955
C28	C	-0.143180	-1.040163	0.546145
C29	C	-0.427172	-0.930069	0.546148
C30	C	-0.427166	-0.930063	0.453960
C31	C	-0.285175	-0.985113	0.407866
C32	C	-0.285176	-0.985122	0.592244
C33	C	-0.285172	-0.985124	0.692200
C34	C	-0.285176	-0.985110	0.307904
H35	H	-0.633896	-0.549440	0.000054
H36	H	0.056603	-0.578189	0.000054
H37	H	-0.027557	-1.084986	0.583668
C38	C	0.011372	-1.099821	0.403979
C39	C	0.216601	-1.084151	0.426421
C40	C	0.359064	-1.139085	0.380405
H41	H	-0.011048	-1.155578	0.419052
H42	H	-0.008764	-1.091945	0.342460
H43	H	0.236729	-1.092034	0.487926
H44	H	0.239088	-1.028404	0.411345
H45	H	0.338928	-1.131209	0.318887
H46	H	0.336625	-1.194839	0.395482
H47	H	0.498328	-1.128456	0.395619
H48	H	-0.542782	-0.885249	0.583687
H49	H	-0.626945	-0.392050	0.000062
C50	C	-0.581677	-0.870394	0.403962
C51	C	-0.786947	-0.886041	0.426361
C52	C	-0.929325	-0.831098	0.380312
H53	H	-0.559239	-0.814638	0.419037
H54	H	-0.561474	-0.878278	0.342448
H55	H	-0.807142	-0.878150	0.487861
H56	H	-0.809452	-0.941786	0.411283
H57	H	-0.909122	-0.838983	0.318798
H58	H	-0.906868	-0.775346	0.395391
H59	H	-1.068616	-0.841712	0.395497
H60	H	0.063525	-0.420781	0.000063
