data_functionalizedCrystal
_audit_creation_method	'MofGen! by Chris Wilmer'
_symmetry_space_group_name_H-M	'P1'
_symmetry_Int_Tables_number	1
_symmetry_cell_setting	triclinic
loop_
_symmetry_equiv_pos_as_xyz
  x,y,z
_cell_length_a	12.645331
_cell_length_b	16.120484
_cell_length_c	16.120256
_cell_angle_alpha	84.383827
_cell_angle_beta	92.878155
_cell_angle_gamma	87.075450
loop_
_atom_site_label
_atom_site_type_symbol
_atom_site_fract_x
_atom_site_fract_y
_atom_site_fract_z
Zn1	Zn	1.566080	0.356785	-0.489464
Zn2	Zn	1.899413	0.690119	-0.156130
Zn3	Zn	2.232747	1.023452	0.177203
Zn4	Zn	1.565947	0.489471	-0.356773
Zn5	Zn	1.899280	0.822804	-0.023440
Zn6	Zn	2.232613	1.156138	0.309893
Zn7	Zn	1.398270	0.349715	-0.349708
Zn8	Zn	1.731604	0.683048	-0.016375
Zn9	Zn	2.064937	1.016381	0.316958
Zn10	Zn	1.379289	0.496514	-0.496496
Zn11	Zn	1.712623	0.829847	-0.163163
Zn12	Zn	2.045956	1.163180	0.170171
O13	O	1.477397	0.423121	-0.423110
O14	O	1.810730	0.756455	-0.089777
O15	O	2.144063	1.089788	0.243556
O16	O	1.714408	0.374398	-0.471876
O17	O	2.047741	0.707731	-0.138543
O18	O	2.381074	1.041065	0.194791
O19	O	1.551592	0.465025	-0.238874
O20	O	1.884925	0.798359	0.094460
O21	O	2.218259	1.131692	0.427793
O22	O	1.428530	0.233687	-0.362347
O23	O	1.761863	0.567021	-0.029014
O24	O	2.095197	0.900354	0.304319
O25	O	1.714310	0.471882	-0.374389
O26	O	2.047643	0.805215	-0.041056
O27	O	2.380977	1.138548	0.292278
O28	O	1.551819	0.238882	-0.465025
O29	O	1.885152	0.572215	-0.131692
O30	O	2.218486	0.905549	0.201642
O31	O	1.428401	0.362347	-0.233683
O32	O	1.761734	0.695680	0.099650
O33	O	2.095067	1.029014	0.432984
O34	O	1.247407	0.369176	-0.369166
O35	O	1.580740	0.702510	-0.035833
O36	O	1.914074	1.035843	0.297501
O37	O	1.396180	0.483885	-0.612526
O38	O	1.729513	0.817218	-0.279192
O39	O	2.062846	1.150552	0.054141
O40	O	1.233462	0.477029	-0.477010
O41	O	1.566795	0.810362	-0.143677
O42	O	1.900128	1.143695	0.189656
O43	O	1.533414	0.381227	-0.607359
O44	O	1.866747	0.714561	-0.274026
O45	O	2.200081	1.047894	0.059308
O46	O	1.533187	0.607371	-0.381208
O47	O	1.866520	0.940704	-0.047874
O48	O	2.199854	1.274037	0.285459
O49	O	1.396051	0.612545	-0.483861
O50	O	1.729384	0.945878	-0.150528
O51	O	2.062717	1.279211	0.182805
C52	C	1.201970	0.423100	-0.423085
C53	C	1.535303	0.756433	-0.089752
C54	C	1.868637	1.089767	0.243581
C55	C	1.084138	0.423112	-0.423095
C56	C	1.417472	0.756446	-0.089762
C57	C	1.750805	1.089779	0.243571
C58	C	1.462572	0.640286	-0.434082
C59	C	1.795905	0.973620	-0.100749
C60	C	2.129239	1.306953	0.232584
C61	C	1.456325	0.733192	-0.438804
C62	C	1.789659	1.066525	-0.105471
C63	C	2.122992	1.399859	0.227862
C64	C	1.462694	0.434130	-0.641117
C65	C	1.796028	0.767464	-0.307784
C66	C	2.129361	1.100797	0.025549
C67	C	1.456429	0.438822	-0.734019
C68	C	1.789763	0.772155	-0.400686
C69	C	2.123096	1.105489	-0.067352
C70	C	0.925308	0.354983	-0.355592
C71	C	1.258641	0.688317	-0.022258
C72	C	1.591975	1.021650	0.311075
C73	C	1.047875	0.355137	-0.355317
C74	C	1.381209	0.688470	-0.021984
C75	C	1.714542	1.021803	0.311349
C76	C	1.035270	0.509941	-0.403489
C77	C	1.368603	0.843274	-0.070156
C78	C	1.701937	1.176607	0.263177
C79	C	0.912725	0.509564	-0.403033
C80	C	1.246059	0.842898	-0.069700
C81	C	1.579392	1.176231	0.263633
C82	C	0.912503	0.405263	-0.510495
C83	C	1.245836	0.738597	-0.177162
C84	C	1.579169	1.071930	0.156171
C85	C	1.035275	0.403271	-0.509904
C86	C	1.368609	0.736605	-0.176571
C87	C	1.701942	1.069938	0.156763
C88	C	1.753899	0.423143	-0.423136
C89	C	2.087232	0.756476	-0.089803
C90	C	2.420565	1.089810	0.243531
C91	C	1.871727	0.423152	-0.423147
C92	C	2.205061	0.756486	-0.089814
C93	C	2.538394	1.089819	0.243520
C94	C	1.492307	0.205109	-0.412114
C95	C	1.825640	0.538442	-0.078780
C96	C	2.158973	0.871776	0.254553
C97	C	1.498660	0.112205	-0.407428
C98	C	1.831994	0.445538	-0.074094
C99	C	2.165327	0.778872	0.259239
C100	C	1.444925	0.903292	-0.447442
C101	C	1.778258	1.236625	-0.114109
C102	C	2.111592	1.569959	0.219224
C103	C	1.510057	0.942110	-0.398792
C104	C	1.843390	1.275444	-0.065459
C105	C	2.176724	1.608777	0.267875
C106	C	1.503714	1.036760	-0.403598
C107	C	1.837047	1.370093	-0.070265
C108	C	2.170381	1.703427	0.263068
C109	C	1.451267	0.808634	-0.442637
C110	C	1.784600	1.141967	-0.109304
C111	C	2.117933	1.475301	0.224029
C112	C	1.510068	0.398634	-0.942945
C113	C	1.843402	0.731968	-0.609612
C114	C	2.176735	1.065301	-0.276278
C115	C	1.444958	0.447353	-0.904104
C116	C	1.778291	0.780686	-0.570771
C117	C	2.111624	1.114019	-0.237437
C118	C	1.451342	0.442605	-0.809460
C119	C	1.784676	0.775938	-0.476126
C120	C	2.118009	1.109271	-0.142793
C121	C	1.503685	0.403381	-1.037598
C122	C	1.837018	0.736714	-0.704264
C123	C	2.170352	1.070048	-0.370931
C124	C	1.492107	0.412094	-0.205948
C125	C	1.825440	0.745428	0.127385
C126	C	2.158773	1.078761	0.460718
C127	C	1.498593	0.407168	-0.113035
C128	C	1.831927	0.740501	0.220298
C129	C	2.165260	1.073834	0.553631
H130	H	0.899280	0.290252	-0.367198
H131	H	1.232613	0.623585	-0.033864
H132	H	1.565946	0.956918	0.299469
O133	O	0.865554	0.471092	-0.577104
O134	O	1.198888	0.804426	-0.243771
O135	O	1.532221	1.137759	0.089562
H136	H	0.889743	0.533442	-0.562279
H137	H	1.223077	0.866776	-0.228946
H138	H	1.556410	1.200109	0.104388
H139	H	1.570581	0.904259	-0.353531
H140	H	1.903915	1.237593	-0.020198
H141	H	2.237248	1.570926	0.313136
H142	H	1.384404	0.941140	-0.492699
H143	H	1.717737	1.274474	-0.159365
H144	H	2.051071	1.607807	0.173968
H145	H	1.384414	0.492623	-0.941931
H146	H	1.717747	0.825956	-0.608597
H147	H	2.051080	1.159290	-0.275264
O148	O	1.590271	0.338675	-0.892850
O149	O	1.923604	0.672008	-0.559517
O150	O	2.256937	1.005342	-0.226184
H151	H	1.582769	0.344322	-0.825299
H152	H	1.916102	0.677655	-0.491966
H153	H	2.249436	1.010988	-0.158632
H154	H	0.897887	0.366302	-0.291150
H155	H	1.231220	0.699636	0.042183
H156	H	1.564553	1.032969	0.375517
O157	O	1.092282	0.269659	-0.370890
O158	O	1.425616	0.602992	-0.037556
O159	O	1.758949	0.936325	0.295777
H160	H	1.026205	0.227838	-0.378683
H161	H	1.359538	0.561172	-0.045350
H162	H	1.692871	0.894505	0.287983
H163	H	1.080595	0.366600	-0.290498
H164	H	1.413929	0.699934	0.042835
H165	H	1.747262	1.033267	0.376169
H166	H	0.876649	0.561834	-0.450334
H167	H	1.209983	0.895168	-0.117001
H168	H	1.543316	1.228501	0.216333
O169	O	0.878874	0.530339	-0.318622
O170	O	1.212207	0.863673	0.014712
O171	O	1.545541	1.197006	0.348045
H172	H	0.905186	0.593012	-0.306959
H173	H	1.238519	0.926345	0.026374
H174	H	1.571853	1.259679	0.359707
O175	O	1.065364	0.578769	-0.466871
O176	O	1.398697	0.912103	-0.133538
O177	O	1.732031	1.245436	0.199796
H178	H	1.115596	0.551756	-0.513126
H179	H	1.448929	0.885089	-0.179793
H180	H	1.782262	1.218423	0.153541
H181	H	1.068954	0.525998	-0.340477
H182	H	1.402287	0.859332	-0.007143
H183	H	1.735620	1.192665	0.326190
H184	H	1.067549	0.339398	-0.524769
H185	H	1.400883	0.672731	-0.191436
H186	H	1.734216	1.006064	0.141898
O187	O	0.875305	0.323167	-0.535255
O188	O	1.208638	0.656500	-0.201922
O189	O	1.541971	0.989834	0.131412
H190	H	0.787306	0.325371	-0.538988
H191	H	1.120639	0.658704	-0.205655
H192	H	1.453973	0.992037	0.127678
O193	O	1.067383	0.464738	-0.579660
O194	O	1.400716	0.798071	-0.246327
O195	O	1.734049	1.131404	0.087007
H196	H	1.155091	0.461584	-0.581691
H197	H	1.488424	0.794917	-0.248358
H198	H	1.821758	1.128250	0.084975
