data_functionalizedCrystal
_audit_creation_method	'MofGen! by Chris Wilmer'
_symmetry_space_group_name_H-M	'P1'
_symmetry_Int_Tables_number	1
_symmetry_cell_setting	triclinic
loop_
_symmetry_equiv_pos_as_xyz
  x,y,z
_cell_length_a	16.625548
_cell_length_b	12.594516
_cell_length_c	16.625539
_cell_angle_alpha	90.025003
_cell_angle_beta	90.020568
_cell_angle_gamma	90.012884
loop_
_atom_site_label
_atom_site_type_symbol
_atom_site_fract_x
_atom_site_fract_y
_atom_site_fract_z
Zn1	Zn	1.232740	-0.423710	0.455928
Zn2	Zn	1.482740	-0.173710	0.705928
Zn3	Zn	1.732740	0.076290	0.955928
Zn4	Zn	1.982740	0.326290	1.205928
Zn5	Zn	1.232668	-0.601711	0.321103
Zn6	Zn	1.482668	-0.351711	0.571103
Zn7	Zn	1.732668	-0.101711	0.821103
Zn8	Zn	1.982668	0.148289	1.071103
Zn9	Zn	1.097902	-0.423750	0.321108
Zn10	Zn	1.347902	-0.173750	0.571108
Zn11	Zn	1.597902	0.076250	0.821108
Zn12	Zn	1.847902	0.326250	1.071108
Zn13	Zn	1.097897	-0.601650	0.455893
Zn14	Zn	1.347897	-0.351650	0.705893
Zn15	Zn	1.597897	-0.101650	0.955893
Zn16	Zn	1.847897	0.148350	1.205893
O17	O	1.165302	-0.512705	0.388508
O18	O	1.415302	-0.262705	0.638508
O19	O	1.665302	-0.012705	0.888508
O20	O	1.915302	0.237295	1.138508
O21	O	1.345563	-0.447331	0.438055
O22	O	1.595563	-0.197331	0.688055
O23	O	1.845563	0.052669	0.938055
O24	O	2.095563	0.302669	1.188055
O25	O	1.214763	-0.578147	0.208271
O26	O	1.464763	-0.328147	0.458271
O27	O	1.714763	-0.078147	0.708271
O28	O	1.964763	0.171853	0.958271
O29	O	1.115820	-0.274799	0.339010
O30	O	1.365820	-0.024799	0.589010
O31	O	1.615820	0.225201	0.839010
O32	O	1.865820	0.475201	1.089010
O33	O	1.345510	-0.578107	0.339000
O34	O	1.595510	-0.328107	0.589000
O35	O	1.845510	-0.078107	0.839000
O36	O	2.095510	0.171893	1.089000
O37	O	1.214885	-0.274769	0.438061
O38	O	1.464885	-0.024769	0.688061
O39	O	1.714885	0.225231	0.938061
O40	O	1.964885	0.475231	1.188061
O41	O	1.115751	-0.447400	0.208275
O42	O	1.365751	-0.197400	0.458275
O43	O	1.615751	0.052600	0.708275
O44	O	1.865751	0.302600	0.958275
O45	O	0.985069	-0.447341	0.338975
O46	O	1.235069	-0.197341	0.588975
O47	O	1.485069	0.052659	0.838975
O48	O	1.735069	0.302659	1.088975
O49	O	1.115813	-0.578003	0.568730
O50	O	1.365813	-0.328003	0.818730
O51	O	1.615813	-0.078003	1.068730
O52	O	1.865813	0.171997	1.318730
O53	O	0.985066	-0.578043	0.438001
O54	O	1.235066	-0.328043	0.688001
O55	O	1.485066	-0.078043	0.938001
O56	O	1.735066	0.171957	1.188001
O57	O	1.214881	-0.447271	0.568756
O58	O	1.464881	-0.197271	0.818756
O59	O	1.714881	0.052729	1.068756
O60	O	1.964881	0.302729	1.318756
O61	O	1.214759	-0.750649	0.338966
O62	O	1.464759	-0.500649	0.588966
O63	O	1.714759	-0.250649	0.838966
O64	O	1.964759	-0.000649	1.088966
O65	O	1.115743	-0.750604	0.437996
O66	O	1.365743	-0.500604	0.687996
O67	O	1.615743	-0.250604	0.937996
O68	O	1.865743	-0.000604	1.187996
C69	C	0.955811	-0.512690	0.388485
C70	C	1.205811	-0.262690	0.638485
C71	C	1.455811	-0.012690	0.888485
C72	C	1.705811	0.237310	1.138485
C73	C	0.866190	-0.512709	0.388495
C74	C	1.116190	-0.262709	0.638495
C75	C	1.366190	-0.012709	0.888495
C76	C	1.616190	0.237291	1.138495
C77	C	0.538014	-0.512716	0.388529
C78	C	0.788014	-0.262716	0.638529
C79	C	1.038014	-0.012716	0.888529
C80	C	1.288014	0.237284	1.138529
C81	C	0.629323	-0.512711	0.388517
C82	C	0.879323	-0.262711	0.638517
C83	C	1.129323	-0.012711	0.888517
C84	C	1.379323	0.237289	1.138517
C85	C	0.702099	-0.512713	0.388512
C86	C	0.952099	-0.262713	0.638512
C87	C	1.202099	-0.012713	0.888512
C88	C	1.452099	0.237287	1.138512
C89	C	0.793414	-0.512707	0.388501
C90	C	1.043414	-0.262707	0.638501
C91	C	1.293414	-0.012707	0.888501
C92	C	1.543414	0.237293	1.138501
C93	C	1.165265	-0.789246	0.388494
C94	C	1.415265	-0.539246	0.638494
C95	C	1.665265	-0.289246	0.888494
C96	C	1.915265	-0.039246	1.138494
C97	C	1.165322	-0.907552	0.388515
C98	C	1.415322	-0.657552	0.638515
C99	C	1.665322	-0.407552	0.888515
C100	C	1.915322	-0.157552	1.138515
C101	C	1.219240	-0.976791	0.334710
C102	C	1.469240	-0.726791	0.584710
C103	C	1.719240	-0.476791	0.834710
C104	C	1.969240	-0.226791	1.084710
C105	C	1.238943	-1.047491	0.408305
C106	C	1.488943	-0.797491	0.658305
C107	C	1.738943	-0.547491	0.908305
C108	C	1.988943	-0.297491	1.158305
C109	C	1.145720	-1.047650	0.314967
C110	C	1.395720	-0.797650	0.564967
C111	C	1.645720	-0.547650	0.814967
C112	C	1.895720	-0.297650	1.064967
C113	C	1.185064	-0.976694	0.462148
C114	C	1.435064	-0.726694	0.712148
C115	C	1.685064	-0.476694	0.962148
C116	C	1.935064	-0.226694	1.212148
C117	C	1.091806	-0.976846	0.368761
C118	C	1.341806	-0.726846	0.618761
C119	C	1.591806	-0.476846	0.868761
C120	C	1.841806	-0.226846	1.118761
C121	C	1.111482	-1.047515	0.442406
C122	C	1.361482	-0.797515	0.692406
C123	C	1.611482	-0.547515	0.942406
C124	C	1.861482	-0.297515	1.192406
C125	C	1.375611	-0.512721	0.388531
C126	C	1.625611	-0.262721	0.638531
C127	C	1.875611	-0.012721	0.888531
C128	C	2.125611	0.237279	1.138531
C129	C	1.465232	-0.512728	0.388541
C130	C	1.715232	-0.262728	0.638541
C131	C	1.965232	-0.012728	0.888541
C132	C	2.215232	0.237272	1.138541
C133	C	1.165354	-0.512626	0.598817
C134	C	1.415354	-0.262626	0.848817
C135	C	1.665354	-0.012626	1.098817
C136	C	1.915354	0.237374	1.348817
C137	C	1.165377	-0.512592	0.688438
C138	C	1.415377	-0.262592	0.938438
C139	C	1.665377	-0.012592	1.188438
C140	C	1.915377	0.237408	1.438438
C141	C	1.165361	-0.235085	0.388540
C142	C	1.415361	0.014915	0.638540
C143	C	1.665361	0.264915	0.888540
C144	C	1.915361	0.514915	1.138540
C145	C	1.165387	-0.116779	0.388553
C146	C	1.415387	0.133221	0.638553
C147	C	1.665387	0.383221	0.888553
C148	C	1.915387	0.633221	1.138553
C149	C	1.165296	-0.512708	0.179017
C150	C	1.415296	-0.262708	0.429017
C151	C	1.665296	-0.012708	0.679017
C152	C	1.915296	0.237292	0.929017
C153	C	1.165430	-0.512441	0.089396
C154	C	1.415430	-0.262441	0.339396
C155	C	1.665430	-0.012441	0.589396
C156	C	1.915430	0.237559	0.839396
C157	C	1.165414	-0.512473	1.016614
C158	C	1.415414	-0.262473	1.266614
C159	C	1.665414	-0.012473	1.516614
C160	C	1.915414	0.237527	1.766614
C161	C	1.165401	-0.512510	0.925305
C162	C	1.415401	-0.262510	1.175305
C163	C	1.665401	-0.012510	1.425305
C164	C	1.915401	0.237490	1.675305
C165	C	1.165396	-0.512534	0.852529
C166	C	1.415396	-0.262534	1.102529
C167	C	1.665396	-0.012534	1.352529
C168	C	1.915396	0.237466	1.602529
C169	C	1.165382	-0.512568	0.761215
C170	C	1.415382	-0.262568	1.011215
C171	C	1.665382	-0.012568	1.261215
C172	C	1.915382	0.237432	1.511215
H173	H	1.264843	-0.945736	0.289250
H174	H	1.514843	-0.695736	0.539250
H175	H	1.764843	-0.445736	0.789250
H176	H	2.014843	-0.195736	1.039250
H177	H	1.065913	-1.078374	0.487976
H178	H	1.315913	-0.828374	0.737976
H179	H	1.565913	-0.578374	0.987976
H180	H	1.815913	-0.328374	1.237976
H181	H	1.029625	-0.945789	0.352009
H182	H	1.279625	-0.695789	0.602009
H183	H	1.529625	-0.445789	0.852009
H184	H	1.779625	-0.195789	1.102009
H185	H	1.301142	-1.078526	0.425034
H186	H	1.551142	-0.828526	0.675034
H187	H	1.801142	-0.578526	0.925034
H188	H	2.051142	-0.328526	1.175034
N189	N	1.205988	-0.937754	0.540214
N190	N	1.455988	-0.687754	0.790214
N191	N	1.705988	-0.437754	1.040214
N192	N	1.955988	-0.187754	1.290214
N193	N	1.209366	-0.839998	0.552788
N194	N	1.459366	-0.589998	0.802788
N195	N	1.709366	-0.339998	1.052788
N196	N	1.959366	-0.089998	1.302788
H197	H	1.224147	-0.812492	0.607920
H198	H	1.474147	-0.562492	0.857920
H199	H	1.724147	-0.312492	1.107920
H200	H	1.974147	-0.062492	1.357920
N201	N	1.124894	-1.086743	0.236918
N202	N	1.374894	-0.836743	0.486918
N203	N	1.624894	-0.586743	0.736918
N204	N	1.874894	-0.336743	0.986918
N205	N	1.167710	-1.064087	0.177568
N206	N	1.417710	-0.814087	0.427568
N207	N	1.667710	-0.564087	0.677568
N208	N	1.917710	-0.314087	0.927568
H209	H	1.153008	-1.091693	0.122444
H210	H	1.403008	-0.841693	0.372444
H211	H	1.653008	-0.591693	0.622444
H212	H	1.903008	-0.341693	0.872444
