data_functionalizedCrystal
_audit_creation_method	'MofGen! by Chris Wilmer'
_symmetry_space_group_name_H-M	'P1'
_symmetry_Int_Tables_number	1
_symmetry_cell_setting	triclinic
loop_
_symmetry_equiv_pos_as_xyz
  x,y,z
_cell_length_a	21.295417
_cell_length_b	12.759401
_cell_length_c	12.759393
_cell_angle_alpha	90.023540
_cell_angle_beta	89.960830
_cell_angle_gamma	89.968461
loop_
_atom_site_label
_atom_site_type_symbol
_atom_site_fract_x
_atom_site_fract_y
_atom_site_fract_z
Zn1	Zn	-0.250555	-1.606140	-0.594067
Zn2	Zn	0.249445	-1.106140	-0.094067
Zn3	Zn	-0.355839	-1.605986	-0.418364
Zn4	Zn	0.144161	-1.105986	0.081636
Zn5	Zn	-0.250589	-1.430442	-0.418391
Zn6	Zn	0.249411	-0.930442	0.081609
Zn7	Zn	-0.355792	-1.430382	-0.593990
Zn8	Zn	0.144208	-0.930382	-0.093990
O9	O	-0.303194	-1.518238	-0.506203
O10	O	0.196806	-1.018238	-0.006203
O11	O	-0.264526	-1.753141	-0.570781
O12	O	0.235474	-1.253141	-0.070781
O13	O	-0.341911	-1.582660	-0.271346
O14	O	0.158089	-1.082660	0.228654
O15	O	-0.162495	-1.453838	-0.441739
O16	O	0.337505	-0.953838	0.058261
O17	O	-0.341878	-1.753027	-0.441692
O18	O	0.158122	-1.253027	0.058308
O19	O	-0.162470	-1.582923	-0.570807
O20	O	0.337530	-1.082923	-0.070807
O21	O	-0.264585	-1.453689	-0.271366
O22	O	0.235415	-0.953689	0.228634
O23	O	-0.264539	-1.283413	-0.441664
O24	O	0.235461	-0.783413	0.058336
O25	O	-0.341798	-1.453736	-0.741021
O26	O	0.158202	-0.953736	-0.241021
O27	O	-0.341831	-1.283369	-0.570675
O28	O	0.158169	-0.783369	-0.070675
O29	O	-0.264481	-1.582865	-0.741078
O30	O	0.235519	-1.082865	-0.241078
O31	O	-0.443922	-1.582602	-0.441617
O32	O	0.056078	-1.082602	0.058383
O33	O	-0.443888	-1.453587	-0.570649
O34	O	0.056112	-0.953587	-0.070649
C35	C	-0.303185	-1.245270	-0.506165
C36	C	0.196815	-0.745270	-0.006165
C37	C	-0.303196	-1.128494	-0.506173
C38	C	0.196804	-0.628494	-0.006173
C39	C	-0.343501	-0.963911	-0.573273
C40	C	0.156499	-0.463911	-0.073273
C41	C	-0.343501	-1.073635	-0.573249
C42	C	0.156499	-0.573635	-0.073249
C43	C	-0.262893	-1.073622	-0.439110
C44	C	0.237107	-0.573622	0.060890
C45	C	-0.262897	-0.963900	-0.439130
C46	C	0.237103	-0.463900	0.060870
C47	C	-0.390038	-0.963920	-0.650720
C48	C	0.109962	-0.463920	-0.150720
C49	C	-0.390038	-1.073644	-0.650696
C50	C	0.109962	-0.573644	-0.150696
C51	C	-0.466745	-1.518100	-0.506145
C52	C	0.033255	-1.018100	-0.006145
C53	C	-0.536713	-1.518137	-0.506155
C54	C	-0.036713	-1.018137	-0.006155
C55	C	-0.569577	-1.585375	-0.439037
C56	C	-0.069577	-1.085375	0.060963
C57	C	-0.635320	-1.585424	-0.439061
C58	C	-0.135320	-1.085424	0.060939
C59	C	-0.668196	-1.518217	-0.506191
C60	C	-0.168196	-1.018217	-0.006191
C61	C	-0.635324	-1.450974	-0.573322
C62	C	-0.135324	-0.950974	-0.073322
C63	C	-0.569583	-1.450934	-0.573304
C64	C	-0.069583	-0.950934	-0.073304
N65	N	-0.771462	-1.426310	-0.514188
N66	N	-0.271462	-0.926310	-0.014188
N67	N	-0.833913	-1.426350	-0.514199
N68	N	-0.333913	-0.926350	-0.014199
C69	C	-0.866271	-1.518334	-0.506252
C70	C	-0.366271	-1.018334	-0.006252
N71	N	-0.833817	-1.610278	-0.498272
N72	N	-0.333817	-1.110278	0.001728
N73	N	-0.771360	-1.610236	-0.498256
N74	N	-0.271360	-1.110236	0.001744
C75	C	-0.739481	-1.518253	-0.506219
C76	C	-0.239481	-1.018253	-0.006219
C77	C	-0.970420	-1.585631	-0.439156
C78	C	-0.470420	-1.085631	0.060844
C79	C	-1.036163	-1.585682	-0.439187
C80	C	-0.536163	-1.085682	0.060813
C81	C	-1.036167	-1.451223	-0.573443
C82	C	-0.536167	-0.951223	-0.073443
C83	C	-0.970424	-1.451181	-0.573417
C84	C	-0.470424	-0.951181	-0.073417
C85	C	-0.937555	-1.518384	-0.506268
C86	C	-0.437555	-1.018384	-0.006268
C87	C	-0.139003	-1.518404	-0.506284
C88	C	0.360997	-1.018404	-0.006284
C89	C	-0.069035	-1.518476	-0.506319
C90	C	0.430965	-1.018476	-0.006319
C91	C	-0.303130	-1.518311	-0.780237
C92	C	0.196870	-1.018311	-0.280237
C93	C	-0.303103	-1.518342	-0.897013
C94	C	0.196897	-1.018342	-0.397013
C95	C	-0.303201	-0.792271	-0.506232
C96	C	0.196799	-0.292271	-0.006232
C97	C	-0.303200	-0.909047	-0.506217
C98	C	0.196800	-0.409047	-0.006217
C99	C	-0.262840	-1.585589	-0.951907
C100	C	0.237160	-1.085589	-0.451907
C101	C	-0.262817	-1.585614	-1.061631
C102	C	0.237183	-1.085614	-0.561631
C103	C	-0.343326	-1.451143	-1.061559
C104	C	0.156674	-0.951143	-0.561559
C105	C	-0.343345	-1.451114	-0.951837
C106	C	0.156655	-0.951114	-0.451837
C107	C	-0.216361	-1.663228	-0.951949
C108	C	0.283639	-1.163228	-0.451949
C109	C	-0.216338	-1.663253	-1.061673
C110	C	0.283662	-1.163253	-0.561673
C111	C	-0.303211	-1.518225	-0.233236
C112	C	0.196789	-1.018225	0.266764
C113	C	-0.303061	-1.518397	-0.116460
C114	C	0.196939	-1.018397	0.383540
H115	H	-0.436331	-1.107618	-0.621403
H116	H	0.063669	-0.607618	-0.121403
C117	C	-1.072313	-1.659653	-0.365347
C118	C	-0.572313	-1.159653	0.134653
N119	N	-1.099542	-1.715367	-0.309727
N120	N	-0.599542	-1.215367	0.190273
H121	H	-0.943665	-1.396425	-0.628067
H122	H	-0.443665	-0.896425	-0.128067
C123	C	-0.239952	-1.767618	-0.905967
C124	C	0.260048	-1.267618	-0.405967
N125	N	-0.257718	-1.846247	-0.871332
N126	N	0.242282	-1.346247	-0.371332
H127	H	-0.377032	-1.103482	-0.732100
H128	H	0.122968	-0.603482	-0.232100
H129	H	-0.170018	-1.634161	-1.095729
H130	H	0.329982	-1.134161	-0.595729
H131	H	-0.229395	-1.744618	-1.091456
H132	H	0.270605	-1.244618	-0.591456
C133	C	-0.387628	-1.377122	-0.891458
C134	C	0.112372	-0.877122	-0.391458
N135	N	-0.420982	-1.321385	-0.845981
N136	N	0.079018	-0.821385	-0.345981
C137	C	-0.533424	-1.659289	-0.365160
C138	C	-0.033424	-1.159289	0.134840
N139	N	-0.506193	-1.714957	-0.309510
N140	N	-0.006193	-1.214957	0.190490
H141	H	-0.438778	-0.934091	-0.628786
H142	H	0.061222	-0.434091	-0.128786
C143	C	-1.072327	-1.377295	-0.647290
C144	C	-0.572327	-0.877295	-0.147290
N145	N	-1.099566	-1.321613	-0.702915
N146	N	-0.599566	-0.821613	-0.202915
C147	C	-0.150504	-1.633842	-0.911757
C148	C	0.349496	-1.133842	-0.411757
N149	N	-0.100903	-1.611705	-0.881485
N150	N	0.399097	-1.111705	-0.381485
C151	C	-0.218564	-0.903554	-0.365360
C152	C	0.281436	-0.403554	0.134640
N153	N	-0.185170	-0.858101	-0.309795
N154	N	0.314830	-0.358101	0.190205
C155	C	-0.218556	-1.133970	-0.365328
C156	C	0.281444	-0.633970	0.134672
N157	N	-0.185158	-1.179423	-0.309757
N158	N	0.314842	-0.679423	0.190243
C159	C	-0.366514	-0.918019	-0.755215
C160	C	0.133486	-0.418019	-0.255215
N161	N	-0.348793	-0.883446	-0.833920
N162	N	0.151207	-0.383446	-0.333920
C163	C	-0.671477	-1.659389	-0.365217
C164	C	-0.171477	-1.159389	0.134783
N165	N	-0.698709	-1.715096	-0.309596
N166	N	-0.198709	-1.215096	0.190404
H167	H	-0.662096	-1.396255	-0.627982
H168	H	-0.162096	-0.896255	-0.127982
C169	C	-0.387589	-1.377194	-1.121874
C170	C	0.112411	-0.877194	-0.621874
N171	N	-0.420929	-1.321493	-1.167303
N172	N	0.079071	-0.821493	-0.667303
H173	H	-0.542825	-1.396180	-0.627961
H174	H	-0.042825	-0.896180	-0.127961
H175	H	-0.943656	-1.640356	-0.384482
H176	H	-0.443656	-1.140356	0.115518
