data_functionalizedCrystal
_audit_creation_method	'MofGen! by Chris Wilmer'
_symmetry_space_group_name_H-M	'P1'
_symmetry_Int_Tables_number	1
_symmetry_cell_setting	triclinic
loop_
_symmetry_equiv_pos_as_xyz
  x,y,z
_cell_length_a	22.863218
_cell_length_b	22.862586
_cell_length_c	22.858745
_cell_angle_alpha	60.006856
_cell_angle_beta	60.013818
_cell_angle_gamma	59.991795
loop_
_atom_site_label
_atom_site_type_symbol
_atom_site_fract_x
_atom_site_fract_y
_atom_site_fract_z
O1	O	0.081006	-0.854581	0.714630
O2	O	0.030492	-0.665350	0.575795
O3	O	0.150314	-0.785089	0.575706
O4	O	-0.038816	-0.734841	0.714718
O5	O	0.190066	-0.745348	0.615369
O6	O	0.070244	-0.625609	0.615458
O7	O	0.120758	-0.814840	0.754293
Zn8	Zn	0.101812	-0.713914	0.691173
Zn9	Zn	0.049438	-0.766275	0.638915
O10	O	0.000936	-0.695100	0.754381
N11	N	0.137558	-0.678184	0.726840
N12	N	0.013698	-0.802011	0.603247
C13	C	0.187224	-0.518558	0.776483
C14	C	0.187235	-0.628552	0.776467
C15	C	0.214753	-0.601061	0.803961
C16	C	0.334724	-0.580392	0.740801
C17	C	0.409718	-0.605392	0.715784
C18	C	0.409746	-0.726732	0.762051
C19	C	0.334754	-0.701730	0.787070
C20	C	0.205297	-0.481049	0.702756
C21	C	0.180267	-0.406048	0.677779
C22	C	0.119099	-0.406071	0.800259
C23	C	0.144128	-0.481071	0.825236
C24	C	0.113501	-0.610437	0.794610
C25	C	0.088492	-0.635428	0.769607
C26	C	0.210943	-0.696652	0.708337
C27	C	0.235956	-0.671660	0.733331
C28	C	0.113585	-0.610461	0.923980
C29	C	0.088635	-0.635476	0.998978
C30	C	0.211128	-0.696714	0.998930
C31	C	0.236077	-0.671700	0.923930
C32	C	0.187303	-0.628571	0.886457
C33	C	0.297246	-0.628559	0.776441
C34	C	-0.117796	-0.823430	0.581283
C35	C	-0.007671	-0.823587	0.471446
C36	C	-0.007879	-0.933535	0.581483
C37	C	-0.007861	-0.823583	0.581554
C38	C	-0.035301	-0.851035	0.553942
N39	N	0.446162	-0.678198	0.726752
O40	O	0.691234	-0.690164	0.550341
O41	O	0.691462	-0.829422	0.739388
O42	O	0.691373	-0.829102	0.619485
O43	O	0.691323	-0.690484	0.670244
O44	O	0.572233	-0.789455	0.659278
O45	O	0.572322	-0.789775	0.779181
O46	O	0.572094	-0.650517	0.590134
Zn47	Zn	0.553292	-0.713851	0.690976
Zn48	Zn	0.710264	-0.766088	0.638547
O49	O	0.572183	-0.650837	0.710037
N50	N	0.817394	-0.801741	0.602763
N51	N	0.137538	-0.369628	0.726874
O52	O	-0.038795	-0.124419	0.714761
O53	O	0.150256	-0.124417	0.575522
O54	O	0.030331	-0.124432	0.575860
O55	O	0.081131	-0.124404	0.714423
O56	O	0.070086	-0.243584	0.615573
O57	O	0.190011	-0.243569	0.615236
O58	O	0.000960	-0.243571	0.754474
Zn59	Zn	0.101797	-0.262488	0.691160
Zn60	Zn	0.049419	-0.105500	0.638836
O61	O	0.120885	-0.243556	0.754137
N62	N	0.013669	0.001640	0.603123
N63	N	0.137749	-0.678230	1.035381
O64	O	0.125655	-0.854547	1.280566
O65	O	-0.013567	-0.665426	1.280590
O66	O	-0.013245	-0.785328	1.280537
O67	O	0.125333	-0.734644	1.280618
O68	O	0.026456	-0.745599	1.161392
O69	O	0.026134	-0.625697	1.161444
O70	O	0.165355	-0.814817	1.161420
Zn71	Zn	0.102048	-0.713949	1.142516
Zn72	Zn	0.049740	-0.766294	1.299495
O73	O	0.165033	-0.694915	1.161473
N74	N	0.014038	-0.802020	1.406629
C75	C	0.045634	-0.621635	0.576499
C76	C	0.194019	-0.769918	0.576389
C77	C	0.105616	-0.858555	0.753588
C78	C	-0.042769	-0.710272	0.753698
C79	C	0.631920	-0.828776	0.783102
C80	C	0.631811	-0.828380	0.634616
C81	C	0.631633	-0.651162	0.546422
C82	C	0.631745	-0.651559	0.694907
C83	C	0.193900	-0.183846	0.576155
C84	C	0.045437	-0.184012	0.576622
C85	C	-0.042734	-0.183994	0.753792
C86	C	0.105780	-0.183977	0.753375
C87	C	-0.012889	-0.621735	1.221020
C88	C	-0.012483	-0.770211	1.220931
C89	C	0.164678	-0.858508	1.220991
C90	C	0.164280	-0.710023	1.221052
H91	H	0.073862	-0.575336	0.893474
N92	N	0.631535	-0.593242	0.474510
H93	H	0.631523	-0.611610	0.442481
H94	H	0.675678	-0.579374	0.451742
H95	H	0.631977	-0.872492	0.837399
H96	H	0.631832	-0.871926	0.623751
H97	H	0.034845	-0.567275	0.532897
H98	H	0.248082	-0.183515	0.532333
N99	N	0.265974	-0.784105	0.518566
H100	H	0.288826	-0.748919	0.504675
H101	H	0.259298	-0.778396	0.475308
H102	H	-0.097093	-0.699562	0.797349
H103	H	-0.097027	-0.183996	0.797505
H104	H	0.631735	-0.608016	0.705768
N105	N	0.031025	-0.184105	0.519012
H106	H	-0.010546	-0.139966	0.507131
H107	H	0.018985	-0.228334	0.536714
H108	H	0.073825	-0.575337	0.829731
H109	H	0.116656	-0.183968	0.796904
H110	H	-0.056598	-0.567419	1.221026
N111	N	0.119906	-0.930556	0.811349
H112	H	0.131973	-0.969291	0.793842
H113	H	0.075856	-0.930725	0.855636
H114	H	0.208389	-0.912821	1.220975
N115	N	-0.070132	-0.784541	1.220836
H116	H	-0.051543	-0.834966	1.220807
H117	H	-0.083973	-0.749354	1.176649
N118	N	0.221948	-0.695665	1.221079
H119	H	0.233810	-0.654119	1.176921
H120	H	0.266253	-0.739719	1.221105
N121	N	0.009118	-0.615931	1.039439
H122	H	-0.013312	-0.562130	1.026401
H123	H	0.000768	-0.638364	1.092623
N124	N	0.263734	-0.743208	1.039342
H125	H	0.314220	-0.750879	1.004188
H126	H	0.256064	-0.790987	1.070456
H127	H	0.296108	-0.686456	0.893383
H128	H	0.250621	-0.731757	0.673222
N129	N	0.008965	-0.615896	0.789172
H130	H	-0.013421	-0.634238	0.842971
H131	H	0.000577	-0.638272	0.766742
N132	N	0.315480	-0.691192	0.713781
H133	H	0.328556	-0.646115	0.686736
H134	H	0.342508	-0.722312	0.682688
N135	N	0.294327	-0.753684	0.825514
H136	H	0.329471	-0.803831	0.828446
H137	H	0.263188	-0.740298	0.798351
H138	H	0.440232	-0.566167	0.686761
N139	N	0.450209	-0.805652	0.773500
H140	H	0.415086	-0.832374	0.799874
H141	H	0.481349	-0.824325	0.802679
H142	H	0.304191	-0.520811	0.732143
H143	H	0.240384	-0.511568	0.663058
H144	H	0.084019	-0.375548	0.839959
N145	N	0.199753	-0.365580	0.598257
H146	H	0.181413	-0.378623	0.575836
H147	H	0.253547	-0.378641	0.575880
N148	N	0.124634	-0.521535	0.904760
H149	H	0.093534	-0.486406	0.931854
H150	H	0.169753	-0.552654	0.917783
