data_functionalizedCrystal
_audit_creation_method	'MofGen! by Chris Wilmer'
_symmetry_space_group_name_H-M	'P1'
_symmetry_Int_Tables_number	1
_symmetry_cell_setting	triclinic
loop_
_symmetry_equiv_pos_as_xyz
  x,y,z
_cell_length_a	12.759395
_cell_length_b	13.033615
_cell_length_c	13.032268
_cell_angle_alpha	89.080892
_cell_angle_beta	97.164484
_cell_angle_gamma	97.186608
loop_
_atom_site_label
_atom_site_type_symbol
_atom_site_fract_x
_atom_site_fract_y
_atom_site_fract_z
Zn1	Zn	1.476977	-0.483212	-0.529475
Zn2	Zn	1.482478	-0.633379	-0.335677
Zn3	Zn	1.326027	-0.461425	-0.357521
Zn4	Zn	1.282132	-0.655146	-0.507609
O5	O	1.391904	-0.558291	-0.432571
O6	O	1.624726	-0.503141	-0.503776
O7	O	1.482397	-0.592341	-0.194657
O8	O	1.362119	-0.320398	-0.398624
O9	O	1.628767	-0.613467	-0.361394
O10	O	1.473022	-0.336405	-0.524958
O11	O	1.367453	-0.466008	-0.210706
O12	O	1.173185	-0.487114	-0.377422
O13	O	1.287306	-0.650566	-0.654428
O14	O	1.140936	-0.629440	-0.487691
O15	O	1.430458	-0.524247	-0.670492
O16	O	1.439833	-0.780184	-0.340192
O17	O	1.292640	-0.796176	-0.466510
C18	C	1.118940	-0.558276	-0.432555
C19	C	1.002159	-0.558297	-0.432569
C20	C	1.362096	-0.825499	-0.398630
C21	C	1.349435	-0.939817	-0.384144
C22	C	1.353372	-0.592265	-0.700819
C23	C	1.336952	-0.606743	-0.815131
C24	C	0.968623	-0.706687	-0.547152
C25	C	0.896993	-0.780890	-0.604446
C26	C	0.787268	-0.780904	-0.604457
C27	C	0.749172	-0.706705	-0.547171
C28	C	0.820802	-0.632502	-0.489877
C29	C	0.930528	-0.632498	-0.489870
C30	C	0.854338	-0.484110	-0.375301
C31	C	0.964063	-0.484098	-0.375282
C32	C	0.816243	-0.409911	-0.318014
C33	C	0.887873	-0.335711	-0.260713
C34	C	0.997604	-0.335700	-0.260704
C35	C	1.035694	-0.409895	-0.317989
C36	C	1.665933	-0.558306	-0.432587
C37	C	1.782708	-0.558313	-0.432594
C38	C	1.421853	-0.290041	-0.466666
C39	C	1.434616	-0.175730	-0.481196
C40	C	1.385434	-0.116846	-0.425166
C41	C	1.398624	0.001302	-0.440182
C42	C	1.400461	-0.550698	-0.874043
C43	C	1.383492	-0.565660	-0.992190
C44	C	1.430354	-0.524374	-0.165375
C45	C	1.447009	-0.509607	-0.051101
H46	H	1.057965	-0.706689	-0.547141
H47	H	1.486484	-0.138676	-0.540286
H48	H	0.728945	-0.841322	-0.651117
Br49	Br	1.271912	-0.664096	-1.053896
H50	H	1.450495	0.038351	-0.499276
Br51	Br	1.512000	-0.452226	-0.812338
H52	H	1.513944	-0.450537	-1.014076
Br53	Br	1.225378	-0.705175	-0.876841
H54	H	0.659827	-0.706715	-0.547195
Br55	Br	0.948698	-0.881588	-0.682182
H56	H	0.726897	-0.409924	-0.318032
H57	H	0.856846	-0.275300	-0.214081
H58	H	1.055921	-0.275268	-0.214056
Br59	Br	1.262967	-0.001559	-0.285658
H60	H	1.125035	-0.409897	-0.317983
Br61	Br	1.298957	-0.178598	-0.326697
