data_functionalizedCrystal
_audit_creation_method	'MofGen! by Chris Wilmer'
_symmetry_space_group_name_H-M	'P1'
_symmetry_Int_Tables_number	1
_symmetry_cell_setting	triclinic
loop_
_symmetry_equiv_pos_as_xyz
  x,y,z
_cell_length_a	10.489711
_cell_length_b	14.044190
_cell_length_c	12.503572
_cell_angle_alpha	93.839403
_cell_angle_beta	86.444559
_cell_angle_gamma	88.859393
loop_
_atom_site_label
_atom_site_type_symbol
_atom_site_fract_x
_atom_site_fract_y
_atom_site_fract_z
O1	O	1.714381	0.128259	-0.089373
O2	O	1.344458	0.140851	-0.089368
O3	O	1.523861	-0.003466	-0.089349
O4	O	1.534978	0.272576	-0.089392
O5	O	1.510371	0.007406	0.089291
O6	O	1.330968	0.151723	0.089273
O7	O	1.700891	0.139131	0.089268
Cu8	Cu	1.514698	0.146420	0.105581
Cu9	Cu	1.530651	0.133563	-0.105682
O10	O	1.521488	0.283448	0.089249
C11	C	1.512253	-0.033377	-0.000026
C12	C	1.497749	-0.138700	-0.000016
C13	C	1.290085	0.145342	-0.000047
C14	C	1.148166	0.142515	-0.000044
C15	C	1.574098	-0.388474	-0.000059
C16	C	1.471257	-0.331538	-0.000050
C17	C	1.486001	-0.224233	-0.000031
C18	C	1.559357	-0.495789	-0.000078
C19	C	0.974587	0.229302	-0.000069
C20	C	1.068985	0.180590	-0.088140
C21	C	1.055655	0.191285	0.087985
C22	C	0.989718	0.088712	-0.088210
C23	C	0.976374	0.099425	0.087995
C24	C	1.070739	0.050645	-0.000097
C25	C	1.755265	0.134640	-0.000056
C26	C	1.897184	0.137467	-0.000066
C27	C	1.533096	0.313359	-0.000077
C28	C	1.547601	0.418682	-0.000094
N29	N	1.503486	0.155462	0.254173
N30	N	1.541872	0.124513	-0.254273
C31	C	1.486994	0.168772	0.473286
C32	C	1.558360	0.111206	0.526621
C33	C	1.549184	0.118612	0.648543
C34	C	1.496169	0.161367	0.351353
H35	H	1.372139	-0.363383	-0.000055
H36	H	0.960599	0.045354	-0.162754
H37	H	1.112534	-0.024909	-0.000130
O38	O	1.639164	0.045565	0.471858
C39	C	1.568611	-0.017234	0.406998
H40	H	1.474481	0.019096	0.390181
H41	H	1.548324	-0.084653	0.450460
C42	C	1.761712	-0.088460	0.320808
C43	C	1.646104	-0.043835	0.300146
H44	H	1.809514	-0.104873	0.254898
H45	H	1.809246	-0.046154	0.364508
H46	H	1.744790	-0.144637	0.357030
H47	H	1.663027	0.012346	0.263937
H48	H	1.598575	-0.086133	0.256437
H49	H	1.109546	0.214919	-0.162606
O50	O	1.692283	-0.350387	-0.000186
C51	C	1.713929	-0.299376	-0.092706
H52	H	1.618406	-0.277411	-0.123557
H53	H	1.770432	-0.346567	-0.157495
C54	C	1.907607	-0.236558	-0.026682
C55	C	1.790283	-0.209573	-0.064569
H56	H	1.954710	-0.181165	-0.009329
H57	H	1.893027	-0.270928	0.035648
H58	H	1.954676	-0.275885	-0.080679
H59	H	1.743209	-0.170257	-0.010568
H60	H	1.804857	-0.175194	-0.126890
O61	O	0.924510	0.319345	-0.000374
C62	C	0.971897	0.361755	-0.093411
H63	H	1.004033	0.303602	-0.157987
H64	H	1.056528	0.407884	-0.073317
C65	C	0.826455	0.495747	-0.055636
C66	C	0.865916	0.424322	-0.134953
H67	H	0.761084	0.534345	-0.081260
H68	H	0.794532	0.467177	0.007047
H69	H	0.896991	0.534177	-0.038899
H70	H	0.795384	0.385886	-0.151679
H71	H	0.897824	0.452887	-0.197640
O72	O	1.090427	0.243186	0.176785
C73	C	1.041293	0.337333	0.176416
H74	H	0.955435	0.338108	0.124848
H75	H	1.118224	0.384924	0.142034
C76	C	1.105132	0.373888	0.355455
C77	C	0.999673	0.374839	0.292126
H78	H	1.079464	0.397026	0.426830
H79	H	1.138239	0.310460	0.355703
H80	H	1.169232	0.413546	0.326791
H81	H	0.935582	0.335172	0.320783
H82	H	0.966554	0.438261	0.291886
O83	O	1.405817	0.234080	0.528161
C84	C	1.316326	0.186715	0.593214
H85	H	1.357307	0.113793	0.609922
H86	H	1.224430	0.177140	0.549973
C87	C	1.237015	0.335983	0.679592
C88	C	1.287354	0.246421	0.700122
H89	H	1.219138	0.372813	0.745536
H90	H	1.297303	0.367894	0.635762
H91	H	1.160441	0.327990	0.643556
H92	H	1.363935	0.254414	0.736145
H93	H	1.227078	0.214512	0.743960
H94	H	0.935788	0.065132	0.162468
