data_functionalizedCrystal
_audit_creation_method	'MofGen! by Chris Wilmer'
_symmetry_space_group_name_H-M	'P1'
_symmetry_Int_Tables_number	1
_symmetry_cell_setting	triclinic
loop_
_symmetry_equiv_pos_as_xyz
  x,y,z
_cell_length_a	16.625548
_cell_length_b	13.897448
_cell_length_c	16.625539
_cell_angle_alpha	90.025684
_cell_angle_beta	89.982945
_cell_angle_gamma	89.981240
loop_
_atom_site_label
_atom_site_type_symbol
_atom_site_fract_x
_atom_site_fract_y
_atom_site_fract_z
Zn1	Zn	1.232679	0.384003	-0.455914
Zn2	Zn	1.232602	0.545311	-0.321083
Zn3	Zn	1.097849	0.384035	-0.321094
Zn4	Zn	1.097823	0.545261	-0.455872
O5	O	1.165238	0.464653	-0.388491
O6	O	1.345501	0.405409	-0.438040
O7	O	1.214706	0.523952	-0.208252
O8	O	1.115778	0.249049	-0.339000
O9	O	1.345445	0.523921	-0.338981
O10	O	1.214837	0.249026	-0.438052
O11	O	1.115703	0.405463	-0.208260
O12	O	0.985013	0.405414	-0.338960
O13	O	1.115733	0.523836	-0.568710
O14	O	0.984994	0.523866	-0.437981
O15	O	1.214811	0.405360	-0.568741
O16	O	1.214680	0.680286	-0.338941
O17	O	1.115658	0.680249	-0.437970
C18	C	0.955747	0.464639	-0.388468
C19	C	0.866126	0.464656	-0.388478
C20	C	1.165179	0.715267	-0.388467
C21	C	1.165228	0.822481	-0.388484
C22	C	1.165278	0.464589	-0.598800
C23	C	1.165295	0.464562	-0.688421
C24	C	0.537951	0.464663	-0.388512
C25	C	0.629259	0.464658	-0.388500
C26	C	0.702036	0.464660	-0.388494
C27	C	0.793350	0.464654	-0.388483
C28	C	1.375547	0.464667	-0.388514
C29	C	1.465168	0.464673	-0.388524
C30	C	1.165319	0.213060	-0.388532
C31	C	1.165354	0.105846	-0.388549
C32	C	1.165313	1.018776	-0.388535
C33	C	1.165263	0.909544	-0.388509
C34	C	1.165308	0.464541	-0.761203
C35	C	1.165327	0.464505	-0.852512
C36	C	1.165346	0.464471	-0.925288
C37	C	1.165366	0.464436	-1.016603
C38	C	1.165245	0.464647	-0.179000
C39	C	1.165385	0.464402	-0.089379
