data_functionalizedCrystal
_audit_creation_method	'MofGen! by Chris Wilmer'
_symmetry_space_group_name_H-M	'P1'
_symmetry_Int_Tables_number	1
_symmetry_cell_setting	triclinic
loop_
_symmetry_equiv_pos_as_xyz
  x,y,z
_cell_length_a	17.639617
_cell_length_b	16.959454
_cell_length_c	17.646359
_cell_angle_alpha	101.197825
_cell_angle_beta	87.679650
_cell_angle_gamma	101.205930
loop_
_atom_site_label
_atom_site_type_symbol
_atom_site_fract_x
_atom_site_fract_y
_atom_site_fract_z
Zn1	Zn	1.075642	-0.232075	-0.664131
Zn2	Zn	1.100950	-0.333443	-0.537208
Zn3	Zn	0.973983	-0.221711	-0.511527
Zn4	Zn	0.948573	-0.384652	-0.638390
O5	O	1.024787	-0.292970	-0.587814
O6	O	1.185314	-0.228428	-0.668815
O7	O	1.105334	-0.292854	-0.427591
O8	O	0.987510	-0.112472	-0.531796
O9	O	1.203908	-0.302903	-0.575565
O10	O	1.062199	-0.120086	-0.643913
O11	O	1.012051	-0.210765	-0.408723
O12	O	0.864297	-0.260419	-0.506836
O13	O	0.944203	-0.390180	-0.748015
O14	O	0.845629	-0.380131	-0.600041
O15	O	1.037560	-0.278083	-0.766927
O16	O	1.080695	-0.450851	-0.550605
O17	O	0.968744	-0.488473	-0.624943
C18	C	1.024726	-0.498344	-0.587789
C19	C	1.024764	-0.586198	-0.587817
C20	C	0.827397	-0.324708	-0.547859
C21	C	0.742949	-0.338309	-0.530784
C22	C	0.966566	-0.977276	-0.626531
C23	C	1.083205	-0.938046	-0.549218
C24	C	1.083179	-0.855503	-0.549205
C25	C	1.024846	-0.833843	-0.587856
C26	C	0.966538	-0.894726	-0.626518
C27	C	1.141482	-0.794613	-0.510537
C28	C	1.141459	-0.712064	-0.510522
C29	C	1.083128	-0.690403	-0.549178
C30	C	1.024818	-0.751292	-0.587842
C31	C	0.966484	-0.729632	-0.626493
C32	C	0.908176	-0.790520	-0.665163
C33	C	0.908206	-0.873065	-0.665173
C34	C	1.083098	-0.607859	-0.549167
C35	C	0.966456	-0.647081	-0.626480
C36	C	0.416707	-0.189674	-0.717720
C37	C	0.337358	-0.202470	-0.701660
C38	C	0.356770	-0.279819	-0.604419
C39	C	0.436122	-0.267033	-0.620474
C40	C	0.466084	-0.221959	-0.677125
C41	C	0.485498	-0.299318	-0.579878
C42	C	0.564844	-0.286529	-0.595929
C43	C	0.594812	-0.241454	-0.652575
C44	C	0.545429	-0.209169	-0.693175
C45	C	0.455536	-0.344387	-0.523224
C46	C	0.504912	-0.376672	-0.482628
C47	C	0.584258	-0.363888	-0.498682
C48	C	0.614227	-0.318814	-0.555329
C49	C	0.633642	-0.396173	-0.458082
C50	C	0.712987	-0.383383	-0.474133
C51	C	0.693572	-0.306024	-0.571379
C52	C	1.222948	-0.261109	-0.627926
C53	C	1.307393	-0.247532	-0.645020
C54	C	0.985224	-0.341000	-0.785781
C55	C	0.968365	-0.361467	-0.870142
C56	C	1.024866	-0.086796	-0.587861
C57	C	1.024899	0.001064	-0.587881
C58	C	1.064240	-0.245064	-0.390627
C59	C	1.081246	-0.224351	-0.306296
C60	C	0.896170	-0.449293	0.020998
C61	C	0.912172	-0.429811	0.100235
C62	C	1.008582	-0.312581	0.080248
C63	C	0.992591	-0.332055	0.001006
C64	C	0.936383	-0.400412	-0.028612
C65	C	1.032804	-0.283175	-0.048603
C66	C	1.016811	-0.302646	-0.127837
C67	C	0.960605	-0.370998	-0.157461
C68	C	0.920390	-0.419883	-0.107846
C69	C	1.089007	-0.214815	-0.018983
C70	C	1.129221	-0.165934	-0.068592
C71	C	1.113232	-0.185408	-0.147829
C72	C	1.057026	-0.253760	-0.177453
C73	C	1.153446	-0.136523	-0.197444
C74	C	1.137454	-0.155994	-0.276678
C75	C	1.041033	-0.273232	-0.256686
H76	H	0.918956	-0.629453	-0.657957
Cl77	Cl	0.731243	-0.249367	-0.642605
Cl78	Cl	0.893271	-1.053817	-0.675146
H79	H	1.170196	-0.116187	-0.317071
H80	H	0.753191	-0.409673	-0.441076
Cl81	Cl	1.156534	-0.965278	-0.500632
Cl82	Cl	1.199863	-0.079989	-0.031347
Cl83	Cl	0.467239	-0.433332	-0.411411
H84	H	0.332365	-0.316516	-0.558292
H85	H	0.947579	-0.386845	-0.221978
Cl86	Cl	1.214814	-0.821848	-0.461957
H87	H	0.860678	-0.772875	-0.696628
H88	H	0.659421	-0.231039	-0.665640
H89	H	0.860735	-0.922646	-0.696655
Cl90	Cl	1.224083	-0.050574	-0.160195
Cl91	Cl	1.079224	-0.226636	0.117493
Cl92	Cl	1.214764	-0.635528	-0.461918
Cl93	Cl	0.275286	-0.161872	-0.752698
Cl94	Cl	0.583100	-0.152512	-0.764401
H95	H	1.130568	-0.558287	-0.517678
H96	H	0.879406	-0.469608	0.140629
H97	H	0.441103	-0.152973	-0.763854
Cl98	Cl	0.355787	-0.360459	-0.503042
H99	H	0.609235	-0.432865	-0.411952
Cl100	Cl	0.825512	-0.535233	-0.016243
Cl101	Cl	0.849733	-0.505823	-0.145087
Cl102	Cl	0.970375	-0.359171	-0.293928
H103	H	1.102029	-0.198965	0.045535
