data_functionalizedCrystal
_audit_creation_method	'MofGen! by Chris Wilmer'
_symmetry_space_group_name_H-M	'P1'
_symmetry_Int_Tables_number	1
_symmetry_cell_setting	triclinic
loop_
_symmetry_equiv_pos_as_xyz
  x,y,z
_cell_length_a	14.908571
_cell_length_b	14.908520
_cell_length_c	14.908391
_cell_angle_alpha	89.754652
_cell_angle_beta	89.785512
_cell_angle_gamma	90.205961
loop_
_atom_site_label
_atom_site_type_symbol
_atom_site_fract_x
_atom_site_fract_y
_atom_site_fract_z
Zn1	Zn	1.321058	-0.400068	-0.609294
Zn2	Zn	1.319931	-0.559120	-0.467536
Zn3	Zn	1.179278	-0.401151	-0.450338
Zn4	Zn	1.162042	-0.541756	-0.608258
O5	O	1.245577	-0.475524	-0.533857
O6	O	1.446321	-0.427981	-0.598120
O7	O	1.308015	-0.545885	-0.339838
O8	O	1.205770	-0.275600	-0.464660
O9	O	1.445493	-0.544835	-0.493971
O10	O	1.309936	-0.274804	-0.581444
O11	O	1.204677	-0.429826	-0.327203
O12	O	1.051579	-0.412989	-0.463656
O13	O	1.176394	-0.515240	-0.733812
O14	O	1.038916	-0.516290	-0.579679
O15	O	1.293223	-0.411143	-0.734573
O16	O	1.291302	-0.682224	-0.492967
O17	O	1.175301	-0.669466	-0.596355
C18	C	1.012729	-0.462873	-0.519689
C19	C	0.913113	-0.457482	-0.513651
C20	C	0.712784	-0.555106	-0.622975
C21	C	0.619185	-0.550042	-0.617305
C22	C	0.632316	-0.442288	-0.496645
C23	C	0.725914	-0.447351	-0.502315
C24	C	0.766145	-0.503763	-0.565481
C25	C	0.859745	-0.508830	-0.571147
C26	C	0.872874	-0.401071	-0.450492
C27	C	0.779275	-0.396008	-0.444822
C28	C	1.231332	-0.708362	-0.546436
C29	C	1.225318	-0.807974	-0.551852
C30	C	1.334922	-1.008379	-0.454471
C31	C	1.329274	-1.101974	-0.459558
C32	C	1.208381	-1.088759	-0.567116
C33	C	1.214028	-0.995165	-0.562029
C34	C	1.277300	-0.954978	-0.505704
C35	C	1.282942	-0.861382	-0.500613
C36	C	1.162054	-0.848169	-0.608176
C37	C	1.156407	-0.941764	-0.613262
C38	C	1.479334	-0.488224	-0.548080
C39	C	1.578948	-0.493636	-0.554141
C40	C	1.233011	-0.461134	-0.767621
C41	C	1.227657	-0.455002	-0.867238
C42	C	1.259901	-0.241776	-0.521249
C43	C	1.266005	-0.142167	-0.515877
C44	C	1.258149	-0.489796	-0.301001
C45	C	1.263693	-0.495685	-0.201382
C46	C	1.325746	-0.564011	-0.067508
C47	C	1.320541	-0.558482	-0.161110
C48	C	1.212048	-0.438411	-0.148045
C49	C	1.217253	-0.443940	-0.054443
C50	C	1.274102	-0.506743	-0.014178
C51	C	1.279302	-0.512276	0.079425
C52	C	1.170814	-0.392201	0.092489
C53	C	1.165609	-0.386672	-0.001113
H54	H	0.892499	-0.554765	-0.622579
H55	H	0.599544	-0.396354	-0.445223
H56	H	0.916331	-0.359266	-0.403675
C57	C	0.756591	-0.616211	-0.691598
C58	C	0.810358	-0.564927	-0.749630
C59	C	0.850735	-0.621189	-0.812850
H60	H	0.711503	-0.646090	-0.725119
H61	H	0.792613	-0.659279	-0.661593
H62	H	0.774338	-0.521874	-0.779633
H63	H	0.855461	-0.535049	-0.716135
H64	H	0.886757	-0.664257	-0.782844
H65	H	0.805641	-0.651065	-0.846364
H66	H	0.887227	-0.586402	-0.852226
H67	H	0.746507	-0.350077	-0.393396
H68	H	0.575742	-0.591849	-0.664123
C69	C	1.150313	-0.370137	-0.191602
C70	C	1.106211	-0.321149	-0.124866
C71	C	1.049343	-0.258239	-0.164957
H72	H	1.107303	-0.400341	-0.227462
H73	H	1.184670	-0.330476	-0.228197
H74	H	1.071857	-0.360804	-0.088286
H75	H	1.149199	-0.290926	-0.089001
H76	H	1.083700	-0.218578	-0.201553
H77	H	1.006339	-0.288451	-0.200817
H78	H	1.019420	-0.224988	-0.119683
C79	C	1.351724	-0.817917	-0.439443
C80	C	1.400994	-0.884720	-0.395684
C81	C	1.464374	-0.844717	-0.339337
H82	H	1.321882	-0.782005	-0.396223
H83	H	1.391152	-0.781385	-0.474133
H84	H	1.361572	-0.921236	-0.360997
H85	H	1.430856	-0.920636	-0.438883
H86	H	1.503802	-0.808186	-0.374026
H87	H	1.434524	-0.808807	-0.296122
H88	H	1.497817	-0.890037	-0.309646
C89	C	1.114636	-0.329969	0.150238
C90	C	1.063722	-0.273804	0.094937
C91	C	1.011951	-0.216477	0.148103
H92	H	1.152967	-0.294586	0.186660
H93	H	1.075708	-0.364569	0.187385
H94	H	1.102646	-0.239207	0.057805
H95	H	1.025374	-0.309163	0.058515
H96	H	0.973023	-0.251077	0.185251
H97	H	1.050289	-0.181100	0.184523
H98	H	0.977394	-0.178368	0.110590
C99	C	1.391883	-1.159799	-0.403826
C100	C	1.448484	-1.104568	-0.353397
C101	C	1.506165	-1.157805	-0.302036
H102	H	1.426941	-1.196283	-0.442404
H103	H	1.357552	-1.196886	-0.364600
H104	H	1.482811	-1.067497	-0.392619
H105	H	1.413450	-1.068085	-0.314802
H106	H	1.471834	-1.194892	-0.262810
H107	H	1.541217	-1.194287	-0.340621
H108	H	1.544570	-1.120340	-0.267808
C109	C	1.139722	-1.132570	-0.628178
C110	C	1.147102	-1.225965	-0.621649
C111	C	1.083859	-1.266353	-0.677877
H112	H	1.150407	-1.114302	-0.688406
H113	H	1.081124	-1.114890	-0.610507
H114	H	1.205686	-1.243638	-0.639325
H115	H	1.136408	-1.244258	-0.561434
H116	H	1.025260	-1.248673	-0.660206
H117	H	1.094549	-1.248079	-0.738101
H118	H	1.088852	-1.329726	-0.673448
H119	H	1.386434	-0.975659	-0.408603
H120	H	1.104895	-0.974497	-0.659123
H121	H	1.119327	-0.335537	-0.033909
C122	C	1.099598	-0.790035	-0.663769
C123	C	1.118095	-0.699466	-0.647276
C124	C	1.060587	-0.645888	-0.698476
H125	H	1.039140	-0.802865	-0.647822
H126	H	1.108511	-0.802287	-0.725642
H127	H	1.109174	-0.687219	-0.585416
H128	H	1.178543	-0.686608	-0.663227
H129	H	1.069500	-0.658140	-0.760350
H130	H	1.000132	-0.658726	-0.682526
H131	H	1.073135	-0.584431	-0.687300
H132	H	1.325596	-0.563410	0.112207
H133	H	1.372039	-0.615144	-0.034725
C134	C	1.376765	-0.620623	-0.218902
C135	C	1.467782	-0.606623	-0.200615
C136	C	1.519605	-0.663862	-0.253826
H137	H	1.365646	-0.608402	-0.280440
H138	H	1.361308	-0.681177	-0.205849
H139	H	1.483233	-0.546084	-0.213674
H140	H	1.478929	-0.618851	-0.139087
H141	H	1.504148	-0.724415	-0.240774
H142	H	1.508478	-0.651635	-0.315361
H143	H	1.581365	-0.654376	-0.241420
