data_functionalizedCrystal
_audit_creation_method	'MofGen! by Chris Wilmer'
_symmetry_space_group_name_H-M	'P1'
_symmetry_Int_Tables_number	1
_symmetry_cell_setting	triclinic
loop_
_symmetry_equiv_pos_as_xyz
  x,y,z
_cell_length_a	17.038272
_cell_length_b	10.654550
_cell_length_c	9.130313
_cell_angle_alpha	89.993418
_cell_angle_beta	90.000151
_cell_angle_gamma	92.201771
loop_
_atom_site_label
_atom_site_type_symbol
_atom_site_fract_x
_atom_site_fract_y
_atom_site_fract_z
O1	O	0.109872	-1.678042	0.121922
O2	O	0.120341	-1.313535	0.121899
O3	O	0.001279	-1.493622	0.121899
O4	O	0.228934	-1.497955	0.121923
O5	O	0.001286	-1.493610	-0.121700
O6	O	0.120348	-1.313523	-0.121700
O7	O	0.109880	-1.678029	-0.121676
Cu8	Cu	0.115114	-1.495775	-0.143931
Cu9	Cu	0.115106	-1.495790	0.144153
O10	O	0.228941	-1.497942	-0.121676
C11	C	0.119576	-1.266660	0.000097
C12	C	0.117276	-1.127003	0.000087
C13	C	-0.027867	-1.489675	0.000100
C14	C	-0.114726	-1.477918	0.000099
C15	C	0.110645	-1.724905	0.000129
C16	C	0.112944	-1.864562	0.000148
C17	C	-0.164237	-1.585862	0.000105
C18	C	-0.245850	-1.574808	0.000118
C19	C	-0.277949	-1.455808	0.000115
C20	C	-0.228431	-1.347856	0.000114
C21	C	-0.146821	-1.358911	0.000111
C22	C	-0.523925	-1.416750	0.000133
C23	C	-0.605542	-1.405702	0.000131
C24	C	-0.622955	-1.632656	0.000137
C25	C	-0.541342	-1.643701	0.000126
C26	C	-0.491831	-1.535749	0.000133
C27	C	-0.361370	-1.444505	0.000124
C28	C	-0.408412	-1.547052	0.000134
C29	C	0.258088	-1.501889	0.000126
C30	C	0.344947	-1.513646	0.000136
N31	N	0.115120	-1.495774	-0.346553
C32	C	0.187378	-1.054026	0.000116
C33	C	0.185212	-0.922804	0.000141
C34	C	0.042837	-0.937548	0.000115
C35	C	0.045004	-1.068767	0.000080
C36	C	0.269577	-1.045513	0.000137
C37	C	0.267411	-0.914292	0.000162
C38	C	0.163005	-1.577049	-0.423209
C39	C	0.162990	-1.577066	-0.576546
C40	C	0.067204	-1.414521	-0.576558
C41	C	0.067215	-1.414511	-0.423224
C42	C	0.218309	-1.670890	-0.423203
C43	C	0.218294	-1.670907	-0.576540
N44	N	0.115094	-1.495800	0.346776
H45	H	-0.138109	-1.682764	0.000098
F46	F	0.307887	-0.863504	0.133424
H47	H	0.292256	-0.870921	-0.105003
H48	H	0.279982	-1.645702	-0.618176
F49	F	0.016252	-1.328002	-0.341646
F50	F	0.311603	-1.087752	-0.133109
F51	F	-0.298540	-1.689698	0.000121
H52	H	0.295747	-1.083605	0.105312
F53	F	0.186167	-1.791565	-0.638673
H54	H	-0.515213	-1.740603	0.000128
F55	F	-0.471243	-1.301856	0.000144
H56	H	0.277215	-1.636829	-0.375665
H57	H	0.199088	-1.768157	-0.381567
F58	F	-0.262596	-1.221206	0.000128
H59	H	-0.012080	-1.128180	0.000035
F60	F	-0.034076	-0.875558	0.000106
F61	F	0.016223	-1.328040	-0.658168
H62	H	-0.631674	-1.308794	0.000105
F63	F	-0.675652	-1.747537	0.000132
H64	H	-0.382273	-1.643941	0.000169
F65	F	-0.094127	-1.244022	0.000110
H66	H	-0.387514	-1.347615	0.000119
