data_functionalizedCrystal
_audit_creation_method	'MofGen! by Chris Wilmer'
_symmetry_space_group_name_H-M	'P1'
_symmetry_Int_Tables_number	1
_symmetry_cell_setting	triclinic
loop_
_symmetry_equiv_pos_as_xyz
  x,y,z
_cell_length_a	14.971486
_cell_length_b	17.038272
_cell_length_c	14.048226
_cell_angle_alpha	89.993466
_cell_angle_beta	89.998499
_cell_angle_gamma	87.362843
loop_
_atom_site_label
_atom_site_type_symbol
_atom_site_fract_x
_atom_site_fract_y
_atom_site_fract_z
O1	O	1.194576	0.101897	-0.079052
O2	O	0.935090	0.114100	-0.079077
O3	O	1.063291	-0.005819	-0.079057
O4	O	1.066375	0.221816	-0.079072
O5	O	1.063274	-0.005826	0.079264
O6	O	0.935073	0.114093	0.079244
O7	O	1.194559	0.101890	0.079270
Zn8	Zn	1.064813	0.107990	0.104394
Zn9	Zn	1.064836	0.108000	-0.104201
O10	O	1.066358	0.221809	0.079249
C11	C	0.901716	0.113551	0.000080
C12	C	0.802296	0.111915	0.000070
C13	C	1.060477	-0.034954	0.000103
C14	C	1.052107	-0.121756	0.000102
C15	C	0.750345	0.182364	0.000067
C16	C	0.656930	0.180823	0.000081
C17	C	0.615468	0.108832	0.000092
C18	C	0.667426	0.038378	0.000098
C19	C	0.760839	0.039920	0.000091
C20	C	0.472723	0.035169	0.000111
C21	C	0.379303	0.033626	0.000117
C22	C	0.368815	0.176072	0.000102
C23	C	0.462228	0.177614	0.000095
C24	C	0.514179	0.107159	0.000099
C25	C	1.128951	-0.171781	0.000111
C26	C	1.121081	-0.253341	0.000101
C27	C	1.036367	-0.284874	0.000089
C28	C	0.959518	-0.234843	0.000078
C29	C	0.967388	-0.153285	0.000081
C30	C	1.008563	-0.530664	0.000073
C31	C	1.000698	-0.612229	0.000073
C32	C	1.162262	-0.630721	0.000095
C33	C	1.170125	-0.549161	0.000103
C34	C	1.093276	-0.499137	0.000087
C35	C	1.028321	-0.368241	0.000082
C36	C	1.101323	-0.415771	0.000087
C37	C	1.227933	0.102440	0.000110
C38	C	1.327353	0.104075	0.000114
C39	C	1.069172	0.250944	0.000087
C40	C	1.077542	0.337746	0.000082
N41	N	1.064804	0.107984	0.246754
N42	N	1.064851	0.108000	-0.246562
C43	C	1.121592	0.054906	0.296581
C44	C	1.121599	0.054905	0.396239
C45	C	1.064820	0.107987	0.446068
C46	C	1.008026	0.161067	0.396234
C47	C	1.008016	0.161064	0.296578
C48	C	1.008052	0.161073	0.603948
C49	C	1.008063	0.161078	0.703611
C50	C	1.121635	0.054915	0.703609
C51	C	1.121625	0.054911	0.603953
C52	C	1.064831	0.107993	0.554126
H53	H	0.784097	0.240987	0.000058
Cl54	Cl	0.936650	0.227804	0.541312
H55	H	0.890541	-0.260524	0.000062
Cl56	Cl	0.911950	-0.467788	0.000050
H57	H	0.961791	0.204285	0.436810
Cl58	Cl	0.826149	-0.048648	0.000099
Cl59	Cl	0.591624	0.269391	0.000071
Cl60	Cl	0.514351	0.268118	0.000071
H61	H	1.167839	0.011685	0.436808
Cl62	Cl	0.921826	-0.407890	0.000062
Cl63	Cl	1.192980	-0.011826	0.233950
Cl64	Cl	0.894192	-0.651869	0.000064
H65	H	1.167877	0.011694	0.744184
Cl66	Cl	1.258867	-0.693612	0.000113
H67	H	0.904813	-0.112555	0.000073
Cl68	Cl	0.615301	-0.052126	0.000117
Cl69	Cl	0.327180	-0.056878	0.000162
Cl70	Cl	0.936679	0.227811	0.766245
H71	H	1.167862	0.011692	0.563383
H72	H	0.326511	0.233438	0.000103
Cl73	Cl	1.235454	-0.132148	0.000135
H74	H	1.239108	-0.523493	0.000113
Cl75	Cl	0.538032	-0.053404	0.000118
Cl76	Cl	1.217690	-0.316226	0.000115
Cl77	Cl	1.207817	-0.376128	0.000097
H78	H	0.961772	0.204284	0.256010
