data_functionalizedCrystal
_audit_creation_method	'MofGen! by Chris Wilmer'
_symmetry_space_group_name_H-M	'P1'
_symmetry_Int_Tables_number	1
_symmetry_cell_setting	triclinic
loop_
_symmetry_equiv_pos_as_xyz
  x,y,z
_cell_length_a	17.077404
_cell_length_b	19.120786
_cell_length_c	19.121278
_cell_angle_alpha	95.011609
_cell_angle_beta	87.574698
_cell_angle_gamma	92.463145
loop_
_atom_site_label
_atom_site_type_symbol
_atom_site_fract_x
_atom_site_fract_y
_atom_site_fract_z
Zn1	Zn	1.169078	-0.263213	0.385861
Zn2	Zn	1.168984	-0.385909	0.263171
Zn3	Zn	1.043184	-0.268250	0.268211
Zn4	Zn	1.032405	-0.380847	0.380801
O5	O	1.103413	-0.324555	0.324511
O6	O	1.278911	-0.279500	0.369594
O7	O	1.156768	-0.374528	0.165374
O8	O	1.064434	-0.169112	0.288045
O9	O	1.278843	-0.369644	0.279454
O10	O	1.156928	-0.165411	0.374481
O11	O	1.064343	-0.288085	0.169077
O12	O	0.931908	-0.283176	0.283138
O13	O	1.046063	-0.361016	0.479937
O14	O	0.923989	-0.365900	0.365857
O15	O	1.146476	-0.274591	0.483655
O16	O	1.146316	-0.483708	0.274548
O17	O	1.045972	-0.479989	0.360970
C18	C	0.899466	-0.324536	0.324496
C19	C	0.812216	-0.324544	0.324506
C20	C	0.771255	-0.277683	0.371507
C21	C	0.689275	-0.277687	0.371510
C22	C	0.648255	-0.324556	0.324515
C23	C	0.689222	-0.371419	0.277508
C24	C	0.771201	-0.371411	0.277503
C25	C	0.518350	-0.371435	0.277525
C26	C	0.436365	-0.371444	0.277532
C27	C	0.436423	-0.277711	0.371532
C28	C	0.518403	-0.277702	0.371526
C29	C	0.559364	-0.324567	0.324521
C30	C	1.094985	-0.507380	0.316678
C31	C	1.091450	-0.585592	0.313351
C32	C	1.137907	-0.620348	0.356827
C33	C	1.134583	-0.693837	0.353702
C34	C	1.084805	-0.732569	0.307096
C35	C	1.038343	-0.697808	0.263618
C36	C	1.041664	-0.624321	0.266748
C37	C	1.072367	-0.954553	0.295398
C38	C	1.069051	-1.028046	0.292271
C39	C	1.165291	-1.024069	0.382356
C40	C	1.168610	-0.950581	0.385478
C41	C	1.122145	-0.915826	0.342002
C42	C	1.081407	-0.807686	0.303899
C43	C	1.125539	-0.840710	0.345203
C44	C	1.308155	-0.324575	0.324526
C45	C	1.395404	-0.324583	0.324533
C46	C	1.095078	-0.316677	0.508041
C47	C	1.091526	-0.313319	0.586250
C48	C	1.111894	-0.141015	0.332390
C49	C	1.115508	-0.062801	0.335747
C50	C	1.111763	-0.332352	0.141697
C51	C	1.115476	-0.335511	0.063497
C52	C	1.069026	-0.292081	1.028684
C53	C	1.072368	-0.295232	0.955198
C54	C	1.122154	-0.341818	0.916526
C55	C	1.168609	-0.385250	0.951344
C56	C	1.165271	-0.382094	1.024829
C57	C	1.134643	-0.353595	0.694553
C58	C	1.137975	-0.356750	0.621063
C59	C	1.041734	-0.266730	0.624922
C60	C	1.038398	-0.263582	0.698408
C61	C	1.084855	-0.307011	0.733220
C62	C	1.125569	-0.345043	0.841411
C63	C	1.081444	-0.303782	0.808333
H64	H	1.178445	-0.588817	0.394775
C65	C	1.021235	-0.916332	0.247590
N66	N	0.982712	-0.887542	0.211584
C67	C	1.223375	-0.436496	0.908802
N68	N	1.264624	-0.475097	0.876760
H69	H	1.034543	-0.259868	0.926857
H70	H	0.997853	-0.225649	0.729890
C71	C	0.983636	-0.740418	0.212309
N72	N	0.942450	-0.772512	0.173644
H73	H	1.172419	-0.722132	0.389100
C74	C	0.990558	-0.586090	0.218920
N75	N	0.952062	-0.557296	0.182895
H76	H	1.203119	-1.052374	0.417752
C77	C	0.644222	-0.226138	0.423217
N78	N	0.610289	-0.187310	0.462165
H79	H	0.804550	-0.409570	0.239229
C80	C	1.180295	-0.798103	0.396467
N81	N	1.221541	-0.766005	0.435075
H82	H	1.003913	-0.231372	0.596571
H83	H	1.040911	-0.265850	0.839823
H84	H	1.178536	-0.394673	0.589579
H85	H	1.040880	-0.839230	0.265951
C86	C	1.185741	-0.401375	0.732836
N87	N	1.224229	-0.437367	0.761673
H88	H	0.804647	-0.239518	0.409777
C89	C	1.014257	-0.240831	1.071216
N90	N	0.973007	-0.202226	1.103250
C91	C	1.216367	-0.429873	1.063122
N92	N	1.254856	-0.465860	1.091964
H93	H	0.551798	-0.239541	0.409798
C94	C	0.391365	-0.226162	0.423241
N95	N	0.357424	-0.187340	0.462190
H96	H	0.402969	-0.409610	0.239265
H97	H	1.028513	-1.059580	0.254319
C98	C	0.644097	-0.422975	0.225812
N99	N	0.610110	-0.461810	0.186875
H100	H	0.551698	-0.409595	0.239247
H101	H	1.209143	-0.919046	0.423428
H102	H	1.166104	-0.382975	0.809916
