data_functionalizedCrystal
_audit_creation_method	'MofGen! by Chris Wilmer'
_symmetry_space_group_name_H-M	'P1'
_symmetry_Int_Tables_number	1
_symmetry_cell_setting	triclinic
loop_
_symmetry_equiv_pos_as_xyz
  x,y,z
_cell_length_a	11.792254
_cell_length_b	10.268362
_cell_length_c	8.559649
_cell_angle_alpha	90.003615
_cell_angle_beta	76.988631
_cell_angle_gamma	90.004525
loop_
_atom_site_label
_atom_site_type_symbol
_atom_site_fract_x
_atom_site_fract_y
_atom_site_fract_z
O1	O	1.486859	0.108292	0.218936
O2	O	1.986859	0.608292	0.718936
O3	O	1.154458	0.108295	0.241469
O4	O	1.654458	0.608295	0.741469
O5	O	1.349943	0.108292	-0.002144
O6	O	1.849943	0.608292	0.497856
O7	O	1.291374	0.108295	0.462549
O8	O	1.791374	0.608295	0.962549
O9	O	1.349929	-0.108309	-0.002154
O10	O	1.849929	0.391691	0.497846
O11	O	1.154443	-0.108306	0.241459
O12	O	1.654443	0.391694	0.741459
O13	O	1.486845	-0.108308	0.218926
O14	O	1.986845	0.391692	0.718926
Cu15	Cu	1.320643	-0.128084	0.230191
Cu16	Cu	1.820643	0.371916	0.730191
Cu17	Cu	1.320660	0.128071	0.230203
Cu18	Cu	1.820660	0.628071	0.730203
O19	O	1.291359	-0.108306	0.462539
O20	O	1.791359	0.391694	0.962539
C21	C	1.112290	-0.000005	0.240044
C22	C	1.612290	0.499995	0.740044
C23	C	0.986666	-0.000004	0.235796
C24	C	1.486666	0.499996	0.735796
N25	N	1.320639	-0.308250	0.230182
N26	N	1.820639	0.191750	0.730182
C27	C	0.884645	0.000001	0.232344
C28	C	1.384645	0.500001	0.732344
C29	C	0.756653	0.000002	0.228028
C30	C	1.256653	0.500002	0.728028
C31	C	1.320654	-0.573921	0.230200
C32	C	1.820654	-0.073921	0.730200
C33	C	1.320642	-0.426083	0.230195
C34	C	1.820642	0.073917	0.730195
C35	C	1.529013	-0.000005	0.220351
C36	C	2.029013	0.499995	0.720351
C37	C	1.654637	0.000002	0.224599
C38	C	2.154637	0.500002	0.724599
C39	C	1.354375	-0.000006	-0.061640
C40	C	1.854375	0.499994	0.438360
C41	C	1.367587	0.000001	-0.238905
C42	C	1.867587	0.500001	0.261095
N43	N	1.320673	0.308237	0.230200
N44	N	1.820673	0.808237	0.730200
C45	C	1.286928	-0.000005	0.522035
C46	C	1.786928	0.499995	1.022035
C47	C	1.273716	-0.000003	0.699300
C48	C	1.773716	0.499997	1.199300
H49	H	1.458067	-0.000010	-0.321621
H50	H	1.958067	0.499990	0.178379
H51	H	1.183241	-0.000007	-0.217993
H52	H	1.683241	0.499993	0.282007
