data_functionalizedCrystal
_audit_creation_method	'MofGen! by Chris Wilmer'
_symmetry_space_group_name_H-M	'P1'
_symmetry_Int_Tables_number	1
_symmetry_cell_setting	triclinic
loop_
_symmetry_equiv_pos_as_xyz
  x,y,z
_cell_length_a	28.938199
_cell_length_b	28.937346
_cell_length_c	28.934044
_cell_angle_alpha	60.005004
_cell_angle_beta	60.009897
_cell_angle_gamma	59.994060
loop_
_atom_site_label
_atom_site_type_symbol
_atom_site_fract_x
_atom_site_fract_y
_atom_site_fract_z
O1	O	0.064043	-0.675186	0.564597
O2	O	0.024124	-0.525682	0.454913
O3	O	0.118795	-0.620275	0.454833
O4	O	-0.030629	-0.580593	0.564678
O5	O	0.150204	-0.588870	0.486157
O6	O	0.055533	-0.494276	0.486238
O7	O	0.095452	-0.643780	0.595921
Cu8	Cu	0.078360	-0.566161	0.543940
Cu9	Cu	0.041215	-0.603301	0.506895
O10	O	0.000780	-0.549187	0.596002
N11	N	0.104487	-0.540042	0.569998
N12	N	0.015094	-0.629425	0.480837
C13	C	0.165467	-0.323909	0.630915
C14	C	0.165587	-0.479117	0.786068
C15	C	0.165481	-0.479095	0.630906
C16	C	0.320696	-0.479083	0.630835
C17	C	0.182557	-0.375118	0.647971
C18	C	0.182626	-0.462038	0.734858
C19	C	0.269485	-0.462018	0.647928
C20	C	0.182566	-0.462025	0.647966
C21	C	0.143714	-0.258726	0.609206
C22	C	0.143738	-0.500820	0.609192
C23	C	0.204309	-0.440300	0.669680
C24	C	0.415481	-0.462740	0.580919
C25	C	0.474732	-0.482485	0.561145
C26	C	0.474757	-0.578356	0.597704
C27	C	0.415508	-0.558609	0.617479
C28	C	0.157989	-0.229089	0.550957
C29	C	0.138212	-0.169834	0.531225
C30	C	0.089890	-0.169857	0.627992
C31	C	0.109667	-0.229112	0.647725
C32	C	0.085482	-0.486515	0.623535
C33	C	0.065722	-0.506265	0.603789
C34	C	0.162467	-0.554625	0.555370
C35	C	0.182230	-0.534875	0.575110
C36	C	0.085661	-0.486557	0.880902
C37	C	0.065952	-0.506323	0.940155
C38	C	0.162734	-0.554693	0.940102
C39	C	0.182441	-0.534928	0.880847
C40	C	0.143904	-0.500859	0.851249
C41	C	0.385871	-0.500801	0.609083
C42	C	-0.110907	-0.668480	0.441278
C43	C	-0.024049	-0.668588	0.441475
C44	C	-0.045729	-0.690282	0.419668
C45	C	-0.062146	-0.785032	0.469507
C46	C	-0.042446	-0.844287	0.489286
C47	C	0.053426	-0.844399	0.452899
C48	C	0.033725	-0.785144	0.433120
C49	C	-0.140617	-0.682751	0.499509
C50	C	-0.199867	-0.662928	0.519152
C51	C	-0.199694	-0.614571	0.422330
C52	C	-0.140443	-0.634393	0.402687
C53	C	-0.038320	-0.610337	0.427144
C54	C	-0.018610	-0.590621	0.446974
C55	C	0.029642	-0.687402	0.495454
C56	C	0.009933	-0.707121	0.475630
C57	C	-0.038148	-0.610347	0.324832
C58	C	-0.018301	-0.590634	0.265579
C59	C	0.030035	-0.687421	0.265643
C60	C	0.010190	-0.707133	0.324897
C61	C	-0.023903	-0.668595	0.354491
C62	C	-0.024062	-0.755463	0.441426
N63	N	0.503527	-0.540005	0.569810
O64	O	0.684453	-0.545211	0.434650
O65	O	0.684643	-0.655237	0.584005
O66	O	0.684567	-0.654986	0.489282
O67	O	0.684529	-0.545462	0.529373
O68	O	0.590438	-0.623674	0.520735
O69	O	0.590513	-0.623924	0.615457
O70	O	0.590323	-0.513899	0.466102
Cu71	Cu	0.581823	-0.566053	0.543652
Cu72	Cu	0.693143	-0.603083	0.506456
O73	O	0.590399	-0.514149	0.560825
N74	N	0.771439	-0.629131	0.480292
N75	N	0.104456	-0.141061	0.570015
O76	O	-0.030629	0.039964	0.564688
O77	O	0.118732	0.039984	0.454661
O78	O	0.023980	0.039958	0.454946
O79	O	0.064123	0.039990	0.564403
O80	O	0.055392	-0.054179	0.486321
O81	O	0.150144	-0.054153	0.486036
O82	O	0.000784	-0.054173	0.596063
Cu83	Cu	0.078332	-0.062759	0.543914
Cu84	Cu	0.041183	0.048570	0.506810
O85	O	0.095535	-0.054147	0.595778
N86	N	0.015053	0.126872	0.480710
N87	N	0.104760	-0.540096	0.968910
O88	O	0.099447	-0.675167	1.149923
O89	O	-0.010552	-0.525757	1.149951
O90	O	-0.010297	-0.620493	1.149918
O91	O	0.099192	-0.580431	1.149956
O92	O	0.021064	-0.589100	1.055785
O93	O	0.020809	-0.494365	1.055818
O94	O	0.130808	-0.643774	1.055790
Cu95	Cu	0.078672	-0.566203	1.047209
Cu96	Cu	0.041584	-0.603328	1.158532
O97	O	0.130553	-0.549038	1.055823
N98	N	0.015495	-0.629442	1.236831
C99	C	0.036087	-0.491140	0.455465
C100	C	0.153325	-0.608283	0.455364
C101	C	0.083488	-0.678322	0.595370
C102	C	-0.033750	-0.561180	0.595470
C103	C	0.637601	-0.654732	0.618548
C104	C	0.637509	-0.654422	0.501245
C105	C	0.637362	-0.514403	0.431560
C106	C	0.637458	-0.514713	0.548862
C107	C	0.153215	-0.006966	0.455158
C108	C	0.035916	-0.007114	0.455550
C109	C	-0.033739	-0.007106	0.595527
C110	C	0.083600	-0.007076	0.595174
C111	C	-0.010020	-0.491238	1.102888
C112	C	-0.009698	-0.608550	1.102828
C113	C	0.130276	-0.678293	1.102853
C114	C	0.129961	-0.560974	1.102892
H115	H	0.018524	-0.494668	0.964293
H116	H	0.637300	-0.479859	0.388668
O117	O	0.171069	-0.550793	1.102821
C118	C	0.265296	-0.545464	1.054037
C119	C	0.218795	-0.557021	1.054054
H120	H	0.303889	-0.550484	1.014607
H121	H	0.277726	-0.576814	1.093401
H122	H	0.248679	-0.500495	1.054075
H123	H	0.235373	-0.601975	1.053996
H124	H	0.206372	-0.525637	1.014693
O125	O	0.171549	-0.729444	1.102819
C126	C	0.266958	-0.787460	1.102855
C127	C	0.220272	-0.729504	1.102880
H128	H	0.306358	-0.787532	1.102916
H129	H	0.277690	-0.795758	1.063442
H130	H	0.251369	-0.822014	1.142231
H131	H	0.235822	-0.694914	1.063530
H132	H	0.209547	-0.721255	1.142319
O133	O	-0.071231	-0.572831	0.353491
C134	C	-0.117089	-0.474750	0.347174
C135	C	-0.079616	-0.517171	0.314648
H136	H	-0.123890	-0.429740	0.315783
H137	H	-0.095434	-0.481562	0.374963
H138	H	-0.159721	-0.481549	0.374863
H139	H	-0.036978	-0.510397	0.286928
H140	H	-0.101316	-0.510348	0.286895
O141	O	0.048146	-0.453485	0.852241
C142	C	-0.049929	-0.407563	0.858553
C143	C	-0.007508	-0.445029	0.891082
H144	H	-0.094935	-0.400705	0.889942
H145	H	-0.043165	-0.429259	0.830827
H146	H	-0.043088	-0.364952	0.830801
H147	H	-0.014323	-0.487646	0.918865
H148	H	-0.014283	-0.423288	0.918772
O149	O	0.239017	-0.548889	0.852018
C150	C	0.317438	-0.594437	0.785064
C151	C	0.253363	-0.578675	0.817685
H152	H	0.329055	-0.618512	0.757289
H153	H	0.341622	-0.622211	0.816375
H154	H	0.329066	-0.554217	0.757350
H155	H	0.241683	-0.618864	0.845400
H156	H	0.229215	-0.550880	0.786344
O157	O	0.200246	-0.587800	0.968766
C158	C	0.298320	-0.633669	0.962459
C159	C	0.255901	-0.596175	0.929926
H160	H	0.343326	-0.640442	0.931071
H161	H	0.291555	-0.676318	0.990175
H162	H	0.291477	-0.611970	0.990220
H163	H	0.262718	-0.617824	0.902134
H164	H	0.262676	-0.553528	0.902246
H165	H	0.092017	-0.721269	0.629819
O166	O	-0.050789	-0.618668	1.102792
C167	C	-0.146118	-0.581590	1.102677
C168	C	-0.099637	-0.570060	1.102731
H169	H	-0.185619	-0.542294	1.102616
H170	H	-0.156746	-0.618619	1.142060
H171	H	-0.130379	-0.592383	1.063271
H172	H	-0.115337	-0.559242	1.142110
H173	H	-0.089015	-0.533046	1.063322
O174	O	-0.111603	-0.620603	0.346112
C175	C	-0.093354	-0.625116	0.257320
C176	C	-0.126040	-0.640780	0.321382
H177	H	-0.105024	-0.641412	0.237305
H178	H	-0.045927	-0.645156	0.249878
H179	H	-0.104944	-0.577141	0.237344
H180	H	-0.114498	-0.688747	0.341401
H181	H	-0.173460	-0.620700	0.328784
H182	H	0.391402	-0.589605	0.640414
H183	H	0.196022	-0.006699	0.420530
O184	O	0.048014	-0.453417	0.656611
C185	C	-0.050033	-0.407555	0.702574
C186	C	-0.007662	-0.445033	0.665099
H187	H	-0.095056	-0.400775	0.709459
H188	H	-0.043263	-0.364908	0.680874
H189	H	-0.043143	-0.429272	0.745171
H190	H	-0.014526	-0.423366	0.622496
H191	H	-0.014442	-0.487678	0.686844
H192	H	-0.076633	-0.007113	0.630069
O193	O	0.025857	-0.439932	0.414348
C194	C	-0.031532	-0.371756	0.354769
C195	C	-0.019999	-0.429765	0.401325
H196	H	-0.068614	-0.363512	0.344234
H197	H	0.007719	-0.371548	0.315236
H198	H	-0.042261	-0.337242	0.370402
H199	H	-0.009284	-0.464311	0.385745
H200	H	-0.059259	-0.429925	0.440848
H201	H	-0.076669	-0.552723	0.629962
H202	H	0.196241	-0.616742	0.420869
H203	H	-0.044554	-0.448327	1.102896
O204	O	0.009137	-0.492305	0.617623
C205	C	-0.069354	-0.446737	0.583627
C206	C	-0.005268	-0.462500	0.567881
H207	H	-0.081019	-0.422648	0.543420
H208	H	-0.093499	-0.418978	0.611355
H209	H	-0.080982	-0.486958	0.607769
H210	H	0.006412	-0.422311	0.543719
H211	H	0.018841	-0.490281	0.540181
O212	O	0.637418	-0.473719	0.559194
C213	C	0.637496	-0.447839	0.626417
C214	C	0.637528	-0.494310	0.614797
H215	H	0.637597	-0.464473	0.671367
H216	H	0.598063	-0.409222	0.621430
H217	H	0.676849	-0.435427	0.595036
H218	H	0.598201	-0.506770	0.646167
H219	H	0.676987	-0.532896	0.619765
H220	H	0.193817	-0.582360	0.527624
H221	H	0.092195	-0.007066	0.629560
O222	O	0.025586	-0.007165	0.414600
C223	C	-0.041680	-0.007191	0.388745
C224	C	-0.030057	-0.007135	0.435171
H225	H	-0.086670	-0.007154	0.405355
H226	H	-0.010375	-0.046604	0.376391
H227	H	-0.036606	0.032189	0.350099
H228	H	-0.035137	-0.046488	0.473847
H229	H	-0.061359	0.032304	0.447476
O230	O	0.056806	-0.141174	0.665485
C231	C	0.011005	-0.147451	0.763551
C232	C	0.048467	-0.180002	0.721152
H233	H	0.004261	-0.178829	0.808566
H234	H	-0.031655	-0.119732	0.756794
H235	H	0.032713	-0.119688	0.756675
H236	H	0.026809	-0.207796	0.728001
H237	H	0.091125	-0.207685	0.727919
H238	H	0.229667	-0.546519	0.563426
H239	H	0.637525	-0.688829	0.492664
H240	H	0.498884	-0.625426	0.604536
H241	H	0.391352	-0.415667	0.574082
O242	O	0.503473	-0.445477	0.533698
C243	C	0.521528	-0.363320	0.453850
C244	C	0.488953	-0.405198	0.484873
H245	H	0.509791	-0.330738	0.414375
H246	H	0.568973	-0.387331	0.441112
H247	H	0.509905	-0.340866	0.483123
H248	H	0.500528	-0.427664	0.455632
H249	H	0.441516	-0.381157	0.497620
O250	O	0.191035	-0.257767	0.513463
C251	C	0.236898	-0.251490	0.415398
C252	C	0.199458	-0.218940	0.457796
H253	H	0.243730	-0.220113	0.370382
H254	H	0.215199	-0.279222	0.422194
H255	H	0.279519	-0.279241	0.422234
H256	H	0.156831	-0.191158	0.450986
H257	H	0.221202	-0.191244	0.450990
H258	H	0.149834	-0.145702	0.483792
H259	H	-0.029909	-0.543201	0.241439
O260	O	0.095867	-0.257987	0.704290
C261	C	0.105019	-0.349282	0.777580
C262	C	0.120659	-0.316650	0.713504
H263	H	0.125066	-0.396716	0.785050
H264	H	0.057053	-0.337706	0.797638
H265	H	0.121391	-0.337575	0.797491
H266	H	0.104324	-0.328339	0.693544
H267	H	0.168627	-0.328229	0.693487
O268	O	0.063078	-0.724914	0.236963
C269	C	0.070639	-0.801535	0.218782
C270	C	0.033163	-0.759112	0.251306
H271	H	0.046463	-0.829187	0.230357
H272	H	0.110795	-0.829359	0.230534
H273	H	0.082394	-0.777434	0.171340
H274	H	0.021365	-0.783167	0.298755
H275	H	-0.006966	-0.731289	0.239507
O276	O	-0.032489	-0.534017	0.432969
C277	C	-0.082420	-0.440099	0.382783
C278	C	-0.066743	-0.504186	0.398599
H279	H	-0.110127	-0.415962	0.355002
H280	H	-0.042200	-0.428479	0.358702
H281	H	-0.106573	-0.428413	0.422978
H282	H	-0.042604	-0.515918	0.358433
H283	H	-0.106984	-0.515772	0.422702
O284	O	0.062627	-0.724911	0.528642
C285	C	0.108437	-0.822990	0.574603
C286	C	0.071067	-0.780572	0.537022
H287	H	0.115282	-0.868001	0.581380
H288	H	0.086676	-0.816182	0.617242
H289	H	0.151057	-0.816185	0.552974
H290	H	0.028441	-0.787352	0.558601
H291	H	0.092873	-0.787391	0.494385
H292	H	-0.065985	-0.578958	0.399332
O293	O	0.070795	-0.756508	0.405875
C294	C	0.167972	-0.762874	0.371843
C295	C	0.126050	-0.795375	0.402721
H296	H	0.212656	-0.794284	0.369273
H297	H	0.156093	-0.735142	0.396079
H298	H	0.166203	-0.735129	0.327279
H299	H	0.127797	-0.823151	0.447285
H300	H	0.137943	-0.823072	0.378441
O301	O	0.637764	-0.695957	0.669696
C302	C	0.686602	-0.755751	0.737830
C303	C	0.686493	-0.709073	0.679889
H304	H	0.725989	-0.766361	0.746095
H305	H	0.686663	-0.795220	0.737914
H306	H	0.647204	-0.740197	0.772398
H307	H	0.725884	-0.724573	0.645289
H308	H	0.686403	-0.669613	0.679854
O309	O	0.109543	-0.873260	0.444936
C310	C	0.181119	-0.940244	0.488744
C311	C	0.117554	-0.907586	0.497845
H312	H	0.187615	-0.968013	0.531512
H313	H	0.204980	-0.908956	0.465307
H314	H	0.197818	-0.967970	0.462664
H315	H	0.100804	-0.879859	0.523938
H316	H	0.093731	-0.938905	0.521257
H317	H	0.021552	-0.754553	0.487300
O318	O	-0.079517	-0.872922	0.516537
C319	C	-0.149208	-0.890955	0.511217
C320	C	-0.107236	-0.858497	0.480263
H321	H	-0.171623	-0.879314	0.481899
H322	H	-0.181810	-0.879207	0.550678
H323	H	-0.125231	-0.938409	0.523983
H324	H	-0.131165	-0.811036	0.467459
H325	H	-0.074636	-0.870292	0.440827
O326	O	-0.112011	-0.715836	0.537071
C327	C	-0.118437	-0.761730	0.635181
C328	C	-0.150902	-0.724245	0.592703
H329	H	-0.149867	-0.768550	0.680168
H330	H	-0.090709	-0.740070	0.628462
H331	H	-0.090695	-0.804356	0.628356
H332	H	-0.178675	-0.681612	0.599502
H333	H	-0.178595	-0.745949	0.599433
O334	O	-0.118254	-0.756132	0.477467
C335	C	-0.189821	-0.689193	0.433638
C336	C	-0.126262	-0.721883	0.424549
H337	H	-0.196316	-0.661505	0.390861
H338	H	-0.206550	-0.661400	0.459658
H339	H	-0.213655	-0.720511	0.457129
H340	H	-0.102381	-0.690607	0.401042
H341	H	-0.109576	-0.749686	0.398551
H342	H	-0.224058	-0.674545	0.566571
H343	H	0.021795	-0.754566	0.349042
O344	O	-0.228417	-0.581540	0.384869
C345	C	-0.295261	-0.570883	0.350872
C346	C	-0.262757	-0.608354	0.393316
H347	H	-0.323041	-0.592542	0.357695
H348	H	-0.263877	-0.564103	0.305862
H349	H	-0.322958	-0.528237	0.357663
H350	H	-0.235059	-0.651021	0.386577
H351	H	-0.294171	-0.615087	0.438311
