data_functionalizedCrystal
_audit_creation_method	'MofGen! by Chris Wilmer'
_symmetry_space_group_name_H-M	'P1'
_symmetry_Int_Tables_number	1
_symmetry_cell_setting	triclinic
loop_
_symmetry_equiv_pos_as_xyz
  x,y,z
_cell_length_a	12.759401
_cell_length_b	18.101397
_cell_length_c	12.759393
_cell_angle_alpha	89.963423
_cell_angle_beta	89.979062
_cell_angle_gamma	90.021990
loop_
_atom_site_label
_atom_site_type_symbol
_atom_site_fract_x
_atom_site_fract_y
_atom_site_fract_z
Zn1	Zn	1.606224	-0.294764	-0.593976
Zn2	Zn	1.606098	-0.418623	-0.418277
Zn3	Zn	1.430523	-0.294803	-0.418311
Zn4	Zn	1.430497	-0.418571	-0.593914
O5	O	1.518336	-0.356690	-0.506120
O6	O	1.753228	-0.311199	-0.570681
O7	O	1.582765	-0.402236	-0.271261
O8	O	1.453894	-0.191165	-0.441653
O9	O	1.753135	-0.402198	-0.441596
O10	O	1.582981	-0.191136	-0.570713
O11	O	1.453771	-0.311266	-0.271285
O12	O	1.283499	-0.311216	-0.441594
O13	O	1.453850	-0.402110	-0.740944
O14	O	1.283480	-0.402148	-0.570609
O15	O	1.582956	-0.311149	-0.740989
O16	O	1.582740	-0.522249	-0.441536
O17	O	1.453727	-0.522211	-0.570576
C18	C	1.245368	-0.356681	-0.506099
C19	C	1.128592	-0.356695	-0.506115
C20	C	1.518246	-0.549101	-0.506069
C21	C	1.518303	-0.631415	-0.506082
C22	C	1.073747	-0.404115	-0.573187
C23	C	0.964023	-0.404118	-0.573208
C24	C	0.963997	-0.309278	-0.439075
C25	C	1.073719	-0.309272	-0.439060
C26	C	1.518437	-0.930506	-0.506178
C27	C	1.599382	-0.899174	-0.424772
C28	C	1.599663	-0.813555	-0.424983
C29	C	1.518371	-0.782123	-0.506129
C30	C	1.548391	-0.813122	-0.616871
C31	C	1.549018	-0.898767	-0.616428
C32	C	1.407256	-0.899019	-0.477801
C33	C	1.407805	-0.813370	-0.475329
C34	C	1.518332	-0.698264	-0.506109
C35	C	1.518479	-1.014365	-0.506206
C36	C	1.792369	-0.356700	-0.506141
C37	C	1.909145	-0.356704	-0.506150
C38	C	1.518414	-0.356619	-0.780153
C39	C	1.518448	-0.356589	-0.896930
C40	C	1.518454	-0.163528	-0.506194
C41	C	1.518505	-0.081214	-0.506225
C42	C	1.585678	-0.309218	-0.951817
C43	C	1.585696	-0.309186	-1.061541
C44	C	1.451250	-0.403902	-1.061481
C45	C	1.451228	-0.403930	-0.951759
C46	C	1.518318	-0.356708	-0.233152
C47	C	1.518488	-0.356529	-0.116376
H48	H	1.118421	-0.442728	-0.627790
H49	H	1.396473	-0.442504	-0.907069
H50	H	0.919307	-0.270670	-0.384480
H51	H	1.385169	-0.793117	-0.393832
N52	N	0.904868	-0.455267	-0.645545
H53	H	0.956282	-0.485308	-0.688017
H54	H	0.859308	-0.489502	-0.602689
N55	N	1.323606	-0.785026	-0.548092
H56	H	1.356087	-0.751383	-0.602301
H57	H	1.288647	-0.828106	-0.584229
N58	N	1.474322	-0.926225	-0.699510
H59	H	1.441137	-0.882691	-0.736262
H60	H	1.514005	-0.957103	-0.752129
H61	H	1.118375	-0.270652	-0.384442
H62	H	1.640410	-0.270668	-0.907178
H63	H	1.580827	-0.919823	-0.342413
N64	N	1.658196	-0.258085	-1.120742
H65	H	1.700770	-0.228099	-1.069355
H66	H	1.706808	-0.288214	-1.166271
H67	H	1.580880	-0.792600	-0.342870
H68	H	1.628750	-0.791611	-0.641315
N69	N	1.378735	-0.454950	-1.120619
H70	H	1.388946	-0.447743	-1.198456
H71	H	1.395031	-0.507850	-1.101430
H72	H	1.681289	-0.920639	-0.443331
H73	H	1.682020	-0.793009	-0.443758
H74	H	1.346946	-0.919281	-0.537092
H75	H	1.491238	-0.792759	-0.679156
N76	N	1.656670	-0.925155	-0.648243
H77	H	1.703272	-0.881153	-0.662424
H78	H	1.687733	-0.955799	-0.589836
H79	H	1.379946	-0.920686	-0.398448
