data_functionalizedCrystal
_audit_creation_method	'MofGen! by Chris Wilmer'
_symmetry_space_group_name_H-M	'P1'
_symmetry_Int_Tables_number	1
_symmetry_cell_setting	triclinic
loop_
_symmetry_equiv_pos_as_xyz
  x,y,z
_cell_length_a	16.109301
_cell_length_b	14.044190
_cell_length_c	14.586319
_cell_angle_alpha	89.991348
_cell_angle_beta	89.999213
_cell_angle_gamma	88.326629
loop_
_atom_site_label
_atom_site_type_symbol
_atom_site_fract_x
_atom_site_fract_y
_atom_site_fract_z
O1	O	1.112198	0.121835	-0.076192
O2	O	0.871264	0.136997	-0.076208
O3	O	0.988112	-0.008568	-0.076183
O4	O	0.995351	0.267399	-0.076218
O5	O	0.988103	-0.008570	0.076298
O6	O	0.871255	0.136995	0.076273
O7	O	1.112189	0.121833	0.076288
Cu8	Cu	0.991721	0.129413	0.090203
Cu9	Cu	0.991732	0.129416	-0.090123
O10	O	0.995342	0.267397	0.076263
C11	C	0.840239	0.136382	0.000030
C12	C	0.747807	0.134540	0.000025
C13	C	0.984940	-0.043882	0.000060
C14	C	0.975494	-0.149105	0.000068
C15	C	0.531644	0.216634	0.000025
C16	C	0.444795	0.214896	0.000031
C17	C	0.451816	0.042189	0.000050
C18	C	0.538664	0.043927	0.000050
C19	C	0.578576	0.131153	0.000033
C20	C	0.404878	0.127677	0.000039
C21	C	0.310712	0.125792	0.000045
C22	C	0.672748	0.133038	0.000028
C23	C	1.025219	-0.399407	0.000035
C24	C	0.958238	-0.341758	0.000037
C25	C	0.967842	-0.234556	0.000054
C26	C	1.015617	-0.506619	0.000018
C27	C	1.143214	0.122448	0.000048
C28	C	1.235646	0.124289	0.000047
C29	C	0.998513	0.302712	0.000018
C30	C	1.007959	0.407935	0.000004
N31	N	0.991720	0.129411	0.217035
N32	N	0.991740	0.129411	-0.216955
C33	C	1.043480	0.064977	0.452053
C34	C	1.043482	0.064974	0.548034
C35	C	0.939974	0.193848	0.548021
C36	C	0.939968	0.193845	0.452041
C37	C	0.991726	0.129411	0.404060
C38	C	0.991734	0.129411	0.596020
C39	C	0.991736	0.129409	0.700088
C40	C	0.991723	0.129411	0.299986
H41	H	0.564138	0.287658	0.000018
H42	H	0.576877	-0.025686	0.000059
H43	H	0.897819	0.246316	0.412963
H44	H	0.406587	0.284504	0.000027
H45	H	0.419309	-0.028827	0.000069
H46	H	1.085625	0.012505	0.587107
H47	H	1.089771	-0.368254	0.000049
H48	H	0.893681	-0.372913	0.000028
Br49	Br	0.869735	0.281294	0.613141
H50	H	1.085624	0.012509	0.412988
