data_functionalizedCrystal
_audit_creation_method	'MofGen! by Chris Wilmer'
_symmetry_space_group_name_H-M	'P1'
_symmetry_Int_Tables_number	1
_symmetry_cell_setting	triclinic
loop_
_symmetry_equiv_pos_as_xyz
  x,y,z
_cell_length_a	13.339070
_cell_length_b	10.540539
_cell_length_c	12.376457
_cell_angle_alpha	101.393660
_cell_angle_beta	75.589755
_cell_angle_gamma	100.077393
loop_
_atom_site_label
_atom_site_type_symbol
_atom_site_fract_x
_atom_site_fract_y
_atom_site_fract_z
O1	O	1.366170	0.620442	-0.094026
O2	O	1.071037	0.536703	-0.094022
O3	O	1.225337	0.396162	-0.094023
O4	O	1.211871	0.760984	-0.094026
O5	O	1.186775	0.431235	0.093989
O6	O	1.032476	0.571777	0.093990
O7	O	1.327609	0.655516	0.093986
Zn8	Zn	1.173920	0.619215	0.123839
Zn9	Zn	1.224726	0.573004	-0.123875
O10	O	1.173309	0.796058	0.093987
C11	C	1.013965	0.540095	-0.000016
C12	C	0.901358	0.497931	-0.000014
C13	C	1.205046	0.366051	-0.000019
C14	C	1.202026	0.224072	-0.000025
C15	C	0.538938	0.825771	-0.000035
C16	C	0.644738	0.865389	-0.000040
C17	C	0.708898	0.773528	-0.000033
C18	C	0.667248	0.642042	-0.000022
C19	C	0.561440	0.602418	-0.000026
C20	C	0.731400	0.550175	-0.000024
C21	C	0.689750	0.418690	-0.000014
C22	C	0.583951	0.379073	-0.000017
C23	C	0.519791	0.470934	-0.000024
C24	C	0.837208	0.589799	-0.000020
C25	C	0.859710	0.366447	-0.000012
C26	C	0.753910	0.326829	-0.000007
C27	C	1.086335	0.001104	-0.000445
C28	C	1.089311	0.148845	-0.000022
C29	C	1.234249	0.200932	0.107338
C30	C	1.230384	0.053093	0.107429
C31	C	1.276528	0.013471	-0.106376
C32	C	1.277857	0.160541	-0.107796
C33	C	1.384681	0.652124	-0.000023
C34	C	1.497290	0.694286	-0.000032
C35	C	1.193600	0.826168	-0.000020
C36	C	1.196622	0.968146	-0.000021
N37	N	1.139253	0.650755	0.292897
N38	N	1.259401	0.541457	-0.292934
C39	C	1.339873	0.468218	0.647881
C40	C	1.364130	0.446141	0.529541
C41	C	1.307913	0.497292	0.470375
C42	C	1.227434	0.570525	0.529559
C43	C	1.203180	0.592613	0.647911
C44	C	1.171220	0.621687	0.470404
C45	C	1.090741	0.694920	0.529589
C46	C	1.066490	0.717003	0.647929
C47	C	1.122707	0.665852	0.707096
C48	C	1.195474	0.599599	0.352053
C49	C	1.058781	0.723994	0.352082
C50	C	1.034523	0.746071	0.470422
H51	H	0.871108	0.696856	-0.000025
C52	C	0.690544	1.010012	-0.000038
H53	H	0.637180	1.059049	-0.000030
H54	H	0.744801	1.017885	-0.065598
H55	H	0.717895	1.042336	0.065538
H56	H	0.968996	0.805699	0.518625
C57	C	1.009894	0.204907	0.104119
H58	H	1.011434	0.295495	0.104727
H59	H	1.027384	0.192754	0.170906
H60	H	0.941854	0.161069	0.100961
C61	C	0.468364	0.926800	-0.000043
H62	H	0.399387	0.884369	-0.000037
H63	H	0.494528	0.966949	-0.065606
H64	H	0.467623	0.991409	0.065530
C65	C	0.825273	0.817108	-0.000025
H66	H	0.840887	0.908573	-0.000021
H67	H	0.866820	0.772594	-0.065581
H68	H	0.839903	0.797067	0.065556
H69	H	1.261000	0.539974	0.303875
C70	C	1.390671	0.229456	-0.116558
H71	H	1.393013	0.298176	-0.054323
H72	H	1.413640	0.264299	-0.185083
H73	H	1.434961	0.168404	-0.115646
H74	H	0.433639	0.438683	-0.000019
C75	C	1.401703	0.411964	0.712965
H76	H	1.375727	0.435604	0.791922
H77	H	1.473464	0.446051	0.693555
H78	H	1.394049	0.319518	0.693581
H79	H	1.013005	0.765649	0.303909
C80	C	1.344963	0.270239	0.112740
H81	H	1.362874	0.254963	0.178283
H82	H	1.346896	0.361405	0.115957
H83	H	1.393429	0.237083	0.047312
C84	C	0.538139	0.234443	-0.000010
H85	H	0.591498	0.185409	0.000005
H86	H	0.510781	0.202108	-0.065573
H87	H	0.483884	0.226586	0.065563
H88	H	1.358089	-0.006141	-0.107099
C89	C	0.708094	0.182200	-0.000004
H90	H	0.761450	0.133160	0.000008
H91	H	0.680735	0.149871	-0.065568
H92	H	0.653838	0.174341	0.065569
C93	C	1.096029	0.690141	0.837271
H94	H	1.141040	0.649190	0.864026
H95	H	1.025597	0.654849	0.864060
H96	H	1.105016	0.781378	0.864036
C97	C	1.338532	0.026840	0.114029
H98	H	1.384630	0.106493	0.116653
H99	H	1.365423	-0.032772	0.049292
H100	H	1.332259	-0.009374	0.180241
H101	H	0.911950	0.291645	-0.000011
H102	H	1.254458	0.173055	-0.187220
H103	H	1.327667	0.479314	0.374017
H104	H	1.062415	0.162543	-0.076985
H105	H	1.057601	-0.057036	-0.077437
H106	H	1.429656	0.386518	0.481358
C107	C	1.161202	0.261240	0.215276
H108	H	1.111029	0.300551	0.195141
H109	H	1.201009	0.325522	0.258717
H110	H	1.126481	0.194833	0.258549
H111	H	1.026288	-0.029936	0.076117
C112	C	1.153982	0.016753	0.215838
H113	H	1.125590	0.092302	0.259406
H114	H	1.190068	-0.016992	0.258766
H115	H	1.099133	-0.047456	0.196219
H116	H	1.000967	0.776645	0.696117
H117	H	1.256738	-0.045697	-0.187751
