data_functionalizedCrystal
_audit_creation_method	'MofGen! by Chris Wilmer'
_symmetry_space_group_name_H-M	'P1'
_symmetry_Int_Tables_number	1
_symmetry_cell_setting	triclinic
loop_
_symmetry_equiv_pos_as_xyz
  x,y,z
_cell_length_a	12.759394
_cell_length_b	12.759401
_cell_length_c	12.759393
_cell_angle_alpha	89.980387
_cell_angle_beta	89.967706
_cell_angle_gamma	90.015068
loop_
_atom_site_label
_atom_site_type_symbol
_atom_site_fract_x
_atom_site_fract_y
_atom_site_fract_z
Zn1	Zn	-0.418198	1.606254	-0.594007
Zn2	Zn	-0.593917	1.606148	-0.418325
Zn3	Zn	-0.418253	1.430556	-0.418343
Zn4	Zn	-0.593836	1.430545	-0.593963
O5	O	-0.506051	1.518376	-0.506160
O6	O	-0.441518	1.753261	-0.570714
O7	O	-0.570672	1.582816	-0.271307
O8	O	-0.271225	1.453912	-0.441672
O9	O	-0.570618	1.753183	-0.441641
O10	O	-0.271184	1.582997	-0.570731
O11	O	-0.441612	1.453810	-0.271320
O12	O	-0.441534	1.283534	-0.441629
O13	O	-0.570481	1.453892	-0.740990
O14	O	-0.570534	1.283525	-0.570656
O15	O	-0.441440	1.582986	-0.741023
O16	O	-0.740927	1.582805	-0.441598
O17	O	-0.740868	1.453789	-0.570638
C18	C	-0.506032	1.245409	-0.506140
C19	C	-0.506049	1.128632	-0.506157
C20	C	-0.779019	1.518313	-0.506134
C21	C	-0.895795	1.518382	-0.506159
C22	C	-0.573164	1.073733	-0.438857
C23	C	-0.573182	0.964009	-0.438875
C24	C	-0.438962	0.964092	-0.573496
C25	C	-0.438950	1.073815	-0.573482
C26	C	-0.640263	1.128550	-0.371531
C27	C	-0.707383	1.073651	-0.304225
C28	C	-0.707401	0.963927	-0.304243
C29	C	-0.640300	0.909102	-0.371568
C30	C	-0.895804	1.652826	-0.371889
C31	C	-0.950669	1.720076	-0.304767
C32	C	-1.060390	1.720138	-0.304796
C33	C	-1.115249	1.652945	-0.371956
C34	C	-1.060384	1.585695	-0.439078
C35	C	-0.950660	1.585638	-0.439040
C36	C	-1.060376	1.451257	-0.573351
C37	C	-0.950654	1.451189	-0.573319
C38	C	-1.115235	1.384064	-0.640511
C39	C	-1.060370	1.316808	-0.707630
C40	C	-0.950642	1.316748	-0.707598
C41	C	-0.895790	1.383939	-0.640441
C42	C	-0.232018	1.518468	-0.506208
C43	C	-0.115241	1.518507	-0.506229
C44	C	-0.505945	1.518449	-0.780193
C45	C	-0.505900	1.518481	-0.896970
C46	C	-0.506071	1.792409	-0.506180
C47	C	-0.506079	1.909186	-0.506189
C48	C	-0.438702	1.585709	-0.951851
C49	C	-0.438664	1.585734	-1.061575
C50	C	-0.573031	1.451300	-1.061528
C51	C	-0.573063	1.451270	-0.951806
C52	C	-0.371539	1.652920	-0.897015
C53	C	-0.304337	1.720154	-0.951895
C54	C	-0.304299	1.720179	-1.061620
C55	C	-0.371463	1.652969	-1.116463
C56	C	-0.506081	1.518363	-0.233192
C57	C	-0.505830	1.518535	-0.116416
H58	H	-0.762021	1.118297	-0.249419
H59	H	-0.640327	0.819757	-0.371584
H60	H	-1.204576	1.384124	-0.640534
H61	H	-0.249572	1.774917	-1.106301
H62	H	-0.627765	1.396511	-0.907121
H63	H	-0.905993	1.774786	-0.250088
H64	H	-1.105045	1.262110	-0.762311
C65	C	-1.183677	1.861537	-0.290359
C66	C	-1.120699	1.794067	-0.231020
H67	H	-1.220902	1.907183	-0.244813
H68	H	-1.232046	1.821526	-0.330344
H69	H	-1.140789	1.901673	-0.336152
H70	H	-1.163589	1.753925	-0.185233
H71	H	-1.072325	1.834082	-0.191018
H72	H	-0.905977	1.261990	-0.762261
H73	H	-0.249647	1.774867	-0.907235
H74	H	-0.806463	1.652770	-0.371846
C75	C	-0.738722	1.357126	-0.540425
C76	C	-0.775182	1.383879	-0.640402
H77	H	-0.664263	1.357099	-0.540401
H78	H	-0.763605	1.289352	-0.522226
H79	H	-0.763559	1.406796	-0.490847
H80	H	-0.750351	1.334204	-0.689979
H81	H	-0.750288	1.451662	-0.658614
C82	C	-0.840063	0.974871	-0.171170
C83	C	-0.781177	0.903580	-0.230264
H84	H	-0.885603	0.937615	-0.125491
H85	H	-0.880300	1.017681	-0.216866
H86	H	-0.794219	1.017655	-0.131063
H87	H	-0.827020	0.860801	-0.270377
H88	H	-0.740937	0.860752	-0.184562
H89	H	-0.384330	0.919445	-0.628307
C90	C	-0.298435	1.726075	-0.739860
C91	C	-0.371576	1.652890	-0.776405
H92	H	-0.298457	1.726050	-0.665402
H93	H	-0.316611	1.793862	-0.764681
H94	H	-0.230629	1.707934	-0.764702
H95	H	-0.439383	1.671035	-0.751570
H96	H	-0.353405	1.585089	-0.751574
C97	C	-0.298260	1.726203	-1.273668
C98	C	-0.371427	1.653001	-1.237074
H99	H	-0.298248	1.726229	-1.348126
H100	H	-0.230477	1.708046	-1.248870
H101	H	-0.316449	1.793984	-1.248836
H102	H	-0.353234	1.585219	-1.261900
H103	H	-0.439225	1.671152	-1.261883
C104	C	-0.714320	1.436695	-1.184873
C105	C	-0.646867	1.377437	-1.121807
H106	H	-0.759910	1.391095	-1.222080
H107	H	-0.674293	1.476726	-1.233259
H108	H	-0.754516	1.482441	-1.142047
H109	H	-0.606665	1.331696	-1.164634
H110	H	-0.686898	1.337388	-1.073416
C111	C	-0.713317	1.285684	-0.298213
C112	C	-0.640250	1.249160	-0.371514
H113	H	-0.713310	1.360143	-0.298209
H114	H	-0.695062	1.260836	-0.230461
H115	H	-0.781138	1.260857	-0.316269
H116	H	-0.572427	1.273981	-0.353454
H117	H	-0.658499	1.274019	-0.439280
C118	C	-0.387985	1.107693	-0.751468
C119	C	-0.365179	1.134170	-0.647459
H120	H	-0.342440	1.144951	-0.797140
H121	H	-0.458586	1.125670	-0.766705
H122	H	-0.378380	1.034500	-0.761099
H123	H	-0.374792	1.207361	-0.637826
H124	H	-0.294561	1.116199	-0.632218
H125	H	-1.204590	1.653010	-0.371982
