data_functionalizedCrystal
_audit_creation_method	'MofGen! by Chris Wilmer'
_symmetry_space_group_name_H-M	'P1'
_symmetry_Int_Tables_number	1
_symmetry_cell_setting	triclinic
loop_
_symmetry_equiv_pos_as_xyz
  x,y,z
_cell_length_a	19.288862
_cell_length_b	10.723024
_cell_length_c	18.366186
_cell_angle_alpha	89.994974
_cell_angle_beta	90.025700
_cell_angle_gamma	96.198424
loop_
_atom_site_label
_atom_site_type_symbol
_atom_site_fract_x
_atom_site_fract_y
_atom_site_fract_z
O1	O	-0.922367	0.155645	-0.060829
O2	O	-0.720242	0.176646	-0.060769
O3	O	-0.825967	-0.015529	-0.060798
O4	O	-0.816642	0.347819	-0.060800
O5	O	-0.825949	-0.015538	0.060302
O6	O	-0.720224	0.176636	0.060331
O7	O	-0.922348	0.155635	0.060270
Zn8	Zn	-0.821283	0.166134	0.079528
Zn9	Zn	-0.821307	0.166147	-0.080026
O10	O	-0.816624	0.347810	0.060299
C11	C	-0.694352	0.175966	-0.000211
C12	C	-0.617235	0.173939	-0.000188
C13	C	-0.573273	0.286698	-0.000198
C14	C	-0.500813	0.284794	-0.000203
C15	C	-0.472320	0.170124	-0.000211
C16	C	-0.516292	0.057350	-0.000197
C17	C	-0.588750	0.059257	-0.000186
C18	C	-0.363477	0.079985	-0.042656
C19	C	-0.291020	0.078082	-0.042672
C20	C	-0.248835	0.164235	-0.000244
C21	C	-0.279115	0.252313	0.042191
C22	C	-0.351573	0.254220	0.042203
C23	C	-0.393752	0.168043	-0.000224
C24	C	-0.126303	0.274938	-0.000258
C25	C	-0.053843	0.273028	-0.000258
C26	C	-0.069323	0.045581	-0.000259
C27	C	-0.141782	0.047494	-0.000252
C28	C	-0.170268	0.162175	-0.000255
C29	C	-0.825279	-0.062019	-0.000248
C30	C	-0.823249	-0.200531	-0.000250
C31	C	-0.882407	-0.276756	-0.000269
C32	C	-0.880310	-0.419916	-0.000271
C33	C	0.051762	0.156319	-0.000276
C34	C	-0.025354	0.158357	-0.000265
C35	C	-0.817312	0.394300	-0.000251
C36	C	-0.819342	0.532812	-0.000254
N37	N	-0.821272	0.166125	0.188419
N38	N	-0.821324	0.166146	-0.188917
C39	C	-0.868103	0.081072	0.226506
C40	C	-0.868107	0.081066	0.302734
C41	C	-0.821288	0.166135	0.340872
C42	C	-0.774448	0.251195	0.302775
C43	C	-0.774441	0.251190	0.226548
C44	C	-0.812729	0.279828	0.461633
C45	C	-0.812742	0.279835	0.537858
C46	C	-0.821307	0.166151	0.575979
C47	C	-0.829875	0.052455	0.537866
C48	C	-0.829867	0.052450	0.461640
C49	C	-0.821290	0.166150	0.423526
C50	C	-0.868145	0.081085	0.696722
C51	C	-0.868145	0.081077	0.772951
C52	C	-0.774489	0.251217	0.772990
C53	C	-0.774486	0.251214	0.696762
C54	C	-0.821318	0.166149	0.658633
H55	H	-0.596461	0.380081	-0.000202
H56	H	-0.906243	0.011803	0.333751
H57	H	-0.768695	-0.401699	-0.000233
H58	H	-0.624545	-0.032568	-0.000178
H59	H	-0.771049	-0.241256	-0.000240
H60	H	-0.906234	0.011804	0.195464
O61	O	-0.803473	0.402456	0.420523
H62	H	-0.804893	0.383354	0.361116
H63	H	-0.934606	-0.236031	-0.000280
H64	H	-0.736326	0.320458	0.333830
H65	H	-0.836842	-0.040124	0.430611
H66	H	-0.930953	-0.485413	-0.000284
O67	O	-0.839109	-0.070176	0.578969
H68	H	-0.837665	-0.051078	0.638376
O69	O	-0.006420	0.394652	-0.000266
H70	H	-0.038404	0.474712	-0.000272
H71	H	-0.149497	0.368318	-0.000249
H72	H	-0.906276	0.011816	0.665675
H73	H	-0.906278	0.011810	0.803962
O74	O	-0.723990	0.342978	0.814111
H75	H	-0.731865	0.328699	0.873516
O76	O	-0.453390	0.406424	-0.000216
H77	H	-0.419983	0.411003	0.049139
H78	H	-0.736355	0.320477	0.665749
O79	O	-0.233625	0.345245	0.087957
H80	H	-0.248385	0.332733	0.146115
O81	O	-0.384239	0.349163	0.087998
H82	H	-0.342739	0.408737	0.117514
H83	H	-0.397819	0.009826	-0.077210
H84	H	-0.736305	0.320452	0.195537
H85	H	-0.805770	0.372412	0.568883
H86	H	-0.493088	-0.036015	-0.000214
H87	H	-0.177578	-0.044327	-0.000248
O88	O	-0.038603	-0.078104	-0.000269
H89	H	0.019168	-0.060490	-0.000282
H90	H	-0.266372	0.006369	-0.077228
