data_functionalizedCrystal
_audit_creation_method	'MofGen! by Chris Wilmer'
_symmetry_space_group_name_H-M	'P1'
_symmetry_Int_Tables_number	1
_symmetry_cell_setting	triclinic
loop_
_symmetry_equiv_pos_as_xyz
  x,y,z
_cell_length_a	14.971486
_cell_length_b	15.944551
_cell_length_c	14.048226
_cell_angle_alpha	89.992615
_cell_angle_beta	89.998499
_cell_angle_gamma	83.556434
loop_
_atom_site_label
_atom_site_type_symbol
_atom_site_fract_x
_atom_site_fract_y
_atom_site_fract_z
O1	O	1.186829	0.109463	-0.079053
O2	O	0.926415	0.122572	-0.079079
O3	O	1.063733	-0.006251	-0.079057
O4	O	1.049510	0.238286	-0.079076
O5	O	1.063717	-0.006258	0.079264
O6	O	0.926398	0.122564	0.079242
O7	O	1.186812	0.109456	0.079268
Zn8	Zn	1.056603	0.116009	0.104392
Zn9	Zn	1.056624	0.116019	-0.104203
O10	O	1.049494	0.238278	0.079246
C11	C	0.893082	0.121982	0.000078
C12	C	0.793787	0.120225	0.000068
C13	C	0.736480	0.195904	0.000064
C14	C	0.643182	0.194249	0.000078
C15	C	0.607194	0.116913	0.000090
C16	C	0.664508	0.041227	0.000097
C17	C	0.757804	0.042884	0.000090
C18	C	0.470049	0.037780	0.000111
C19	C	0.376747	0.036123	0.000116
C20	C	0.355428	0.189145	0.000099
C21	C	0.448724	0.190801	0.000092
C22	C	0.506032	0.115116	0.000097
C23	C	1.063134	-0.037549	0.000104
C24	C	1.061364	-0.130797	0.000104
C25	C	0.972017	-0.345738	0.000082
C26	C	1.013499	-0.406720	0.078148
C27	C	1.058162	-0.301526	0.000096
C28	C	1.013535	-0.406696	-0.077944
C29	C	1.055062	-0.466441	0.000085
C30	C	1.099667	-0.361279	0.078227
C31	C	1.099692	-0.361248	-0.077935
C32	C	1.141236	-0.422212	0.000150
C33	C	1.059945	-0.206522	0.000104
C34	C	1.053286	-0.561444	0.000084
C35	C	1.220145	0.110046	0.000109
C36	C	1.319440	0.111802	0.000112
C37	C	1.050093	0.269576	0.000083
C38	C	1.051863	0.362824	0.000076
N39	N	1.056594	0.116001	0.246753
N40	N	1.056640	0.116019	-0.246564
C41	C	1.117418	0.058982	0.296581
C42	C	1.117424	0.058982	0.396238
C43	C	1.056610	0.116005	0.446066
C44	C	0.995780	0.173027	0.396231
C45	C	0.995770	0.173022	0.296575
C46	C	0.995806	0.173033	0.603945
C47	C	0.995816	0.173038	0.703608
C48	C	1.117459	0.058992	0.703608
C49	C	1.117450	0.058988	0.603952
C50	C	1.056621	0.116011	0.554124
H51	H	0.765774	0.258881	0.000053
C52	C	1.184316	-0.003746	0.241775
C53	C	1.182814	-0.099399	0.255498
C54	C	1.249712	-0.162131	0.200696
C55	C	1.318112	-0.129210	0.132171
C56	C	1.319616	-0.033551	0.118445
C57	C	1.252718	0.029181	0.173247
H58	H	1.132178	-0.123774	0.306228
H59	H	1.248598	-0.232944	0.210858
H60	H	1.367633	-0.175648	0.091603
H61	H	1.370252	-0.009177	0.067716
H62	H	1.253832	0.099994	0.163085
C63	C	1.148838	-0.334238	0.167489
C64	C	1.247606	-0.369014	0.185126
C65	C	1.296773	-0.341970	0.274386
C66	C	1.247171	-0.280150	0.346010
C67	C	1.148397	-0.245370	0.328374
C68	C	1.099231	-0.272414	0.239114
H69	H	1.284330	-0.414780	0.132104
H70	H	1.369892	-0.367717	0.287441
H71	H	1.283567	-0.260131	0.412086
H72	H	1.111674	-0.199604	0.381396
H73	H	1.026111	-0.246667	0.226059
C74	C	0.488318	0.275868	0.000085
C75	C	0.549527	0.298052	-0.082129
C76	C	0.589124	0.383118	-0.082128
C77	C	0.567513	0.446001	0.000086
C78	C	0.506301	0.423819	0.082306
C79	C	0.466704	0.338753	0.082306
H80	H	0.565528	0.251500	-0.142994
H81	H	0.634438	0.399538	-0.142993
H82	H	0.596825	0.508973	0.000086
H83	H	0.490300	0.470371	0.143171
H84	H	0.421391	0.322333	0.143171
H85	H	1.166973	0.012560	0.563383
H86	H	0.347448	-0.026851	0.000127
H87	H	0.946259	0.219453	0.436807
C88	C	1.237914	-0.466926	0.000212
C89	C	1.302554	-0.451379	-0.081562
C90	C	1.399229	-0.496094	-0.081496
C91	C	1.431265	-0.556357	0.000343
C92	C	1.366624	-0.571907	0.082122
C93	C	1.269948	-0.527191	0.082057
H94	H	1.278840	-0.406766	-0.142150
H95	H	1.447081	-0.484583	-0.142035
H96	H	1.502830	-0.589458	0.000391
H97	H	1.390337	-0.616519	0.142710
H98	H	1.222097	-0.538702	0.142596
C99	C	1.184369	-0.003737	0.758417
C100	C	1.149430	-0.068033	0.826943
C101	C	1.216339	-0.130755	0.881758
C102	C	1.318188	-0.129181	0.868048
C103	C	1.353132	-0.064883	0.799520
C104	C	1.286223	-0.002160	0.744704
H105	H	1.074031	-0.069200	0.837094
H106	H	1.190470	-0.178353	0.932487
H107	H	1.367718	-0.175612	0.908625
H108	H	1.428531	-0.063715	0.789368
H109	H	1.312091	0.045438	0.693975
H110	H	0.596526	0.255875	0.000074
C111	C	0.292396	0.272403	0.000102
C112	C	0.296421	0.335751	-0.082119
C113	C	0.233387	0.419007	-0.082120
C114	C	0.166328	0.438914	0.000101
C115	C	0.162300	0.375564	0.082329
C116	C	0.225334	0.292309	0.082330
H117	H	0.346065	0.321016	-0.142990
H118	H	0.236369	0.465903	-0.142991
H119	H	0.119666	0.500545	0.000101
H120	H	0.112657	0.390299	0.143199
H121	H	0.222352	0.245413	0.143200
H122	H	0.946240	0.219452	0.256006
H123	H	0.804463	-0.018742	0.000093
C124	C	1.148882	-0.333992	-0.167087
C125	C	1.112730	-0.351598	-0.266881
C126	C	1.161912	-0.324339	-0.356041
C127	C	1.247245	-0.279473	-0.345408
C128	C	1.283402	-0.261866	-0.245610
C129	C	1.234220	-0.289125	-0.156450
H130	H	1.049557	-0.384812	-0.274756
H131	H	1.135146	-0.337373	-0.429918
H132	H	1.283652	-0.259294	-0.411410
H133	H	1.346575	-0.228652	-0.237735
H134	H	1.260986	-0.276090	-0.082572
H135	H	0.516708	-0.023852	0.000117
C136	C	0.964308	-0.433876	-0.167104
C137	C	0.865270	-0.399758	-0.184239
C138	C	0.816036	-0.426935	-0.273393
C139	C	0.865841	-0.488230	-0.345411
C140	C	0.964885	-0.522352	-0.328277
C141	C	1.014119	-0.495175	-0.239124
H142	H	0.828396	-0.354381	-0.130925
H143	H	0.742717	-0.401675	-0.286076
H144	H	0.829395	-0.508347	-0.411408
H145	H	1.001758	-0.567729	-0.381591
H146	H	1.087438	-0.520434	-0.226441
H147	H	1.166951	0.012552	0.436808
H148	H	0.635199	-0.021741	0.000121
C149	C	0.928913	0.235760	0.758416
C150	C	0.861998	0.298472	0.703604
C151	C	0.795093	0.361194	0.758410
C152	C	0.795103	0.361205	0.868028
C153	C	0.862021	0.298490	0.922846
C154	C	0.928926	0.235768	0.868040
H155	H	0.861988	0.298466	0.622453
H156	H	0.745556	0.407620	0.717830
H157	H	0.745576	0.407635	0.908598
H158	H	0.862030	0.298496	1.003996
H159	H	0.978463	0.189342	0.908620
H160	H	0.946269	0.219464	0.563379
C161	C	0.875423	-0.300826	0.000172
C162	C	0.811329	-0.315135	0.082865
C163	C	0.714739	-0.270221	0.082960
C164	C	0.682243	-0.211000	0.000361
C165	C	0.746338	-0.196689	-0.082338
C166	C	0.842928	-0.241602	-0.082433
H167	H	0.835383	-0.358976	0.144014
H168	H	0.667291	-0.280816	0.144179
H169	H	0.610741	-0.177752	0.000432
H170	H	0.722284	-0.152847	-0.143487
H171	H	0.890376	-0.231008	-0.143652
H172	H	0.977056	-0.426866	0.144140
