data_functionalizedCrystal
_audit_creation_method	'MofGen! by Chris Wilmer'
_symmetry_space_group_name_H-M	'P1'
_symmetry_Int_Tables_number	1
_symmetry_cell_setting	triclinic
loop_
_symmetry_equiv_pos_as_xyz
  x,y,z
_cell_length_a	14.908571
_cell_length_b	25.639239
_cell_length_c	14.908308
_cell_angle_alpha	93.262277
_cell_angle_beta	90.175053
_cell_angle_gamma	86.734636
loop_
_atom_site_label
_atom_site_type_symbol
_atom_site_fract_x
_atom_site_fract_y
_atom_site_fract_z
Zn1	Zn	1.345148	-0.272845	-0.587542
Zn2	Zn	1.353683	-0.355542	-0.437170
Zn3	Zn	1.203468	-0.262803	-0.428541
Zn4	Zn	1.194711	-0.354921	-0.578822
O5	O	1.274253	-0.311528	-0.508019
O6	O	1.472104	-0.288277	-0.574855
O7	O	1.340994	-0.339297	-0.310201
O8	O	1.222355	-0.190974	-0.449671
O9	O	1.478375	-0.349035	-0.464378
O10	O	1.326446	-0.198352	-0.566488
O11	O	1.230632	-0.271162	-0.303862
O12	O	1.076483	-0.270560	-0.441216
O13	O	1.207430	-0.347976	-0.705803
O14	O	1.070049	-0.338239	-0.551626
O15	O	1.317955	-0.287675	-0.712209
O16	O	1.332503	-0.428620	-0.455922
O17	O	1.215707	-0.428164	-0.559993
C18	C	1.040642	-0.303242	-0.494539
C19	C	0.940701	-0.299711	-0.488793
C20	C	0.746258	-0.363649	-0.592813
C21	C	0.652355	-0.360332	-0.587418
C22	C	0.658987	-0.289761	-0.472613
C23	C	0.752891	-0.293077	-0.478008
C24	C	0.796523	-0.330022	-0.538109
C25	C	0.890429	-0.333341	-0.543499
C26	C	0.897060	-0.262767	-0.428700
C27	C	0.803156	-0.259451	-0.423304
C28	C	1.274104	-0.447364	-0.507969
C29	C	1.274121	-0.505479	-0.507982
C30	C	1.335213	-0.866081	-0.453936
C31	C	1.335247	-0.920687	-0.453950
O32	O	1.387035	-0.949120	-0.407943
N33	N	1.274407	-0.947774	-0.508087
C34	C	1.213536	-0.920253	-0.562222
O35	O	1.161791	-0.948307	-0.608272
C36	C	1.213506	-0.865649	-0.562212
C37	C	1.274344	-0.838564	-0.508064
C38	C	1.396046	-0.838996	-0.399793
C39	C	1.396010	-0.784393	-0.399778
C40	C	1.335142	-0.756876	-0.453906
C41	C	1.274309	-0.783961	-0.508048
C42	C	1.152640	-0.838129	-0.616350
C43	C	1.152616	-0.783521	-0.616336
C44	C	1.213454	-0.756436	-0.562188
C45	C	1.213404	-0.701842	-0.562161
N46	N	1.274244	-0.674754	-0.508024
C47	C	1.335113	-0.702272	-0.453896
C48	C	1.213603	-1.034927	-0.562239
C49	C	1.213627	-1.089530	-0.562245
C50	C	1.335339	-1.089960	-0.453974
C51	C	1.335310	-1.035355	-0.453964
C52	C	1.274442	-1.007839	-0.508102
C53	C	1.335033	-0.587603	-0.453867
C54	C	1.334989	-0.532996	-0.453854
C55	C	1.213280	-0.532571	-0.562128
C56	C	1.213320	-0.587173	-0.562138
C57	C	1.274204	-0.614688	-0.508005
O58	O	1.161645	-0.673375	-0.608147
O59	O	1.386857	-0.674211	-0.407862
C60	C	1.508776	-0.319846	-0.521552
C61	C	1.608716	-0.323390	-0.527319
C62	C	1.260764	-0.318877	-0.742543
C63	C	1.255015	-0.322008	-0.842483
C64	C	1.274426	-0.175163	-0.508090
C65	C	1.274499	-0.117052	-0.508120
C66	C	1.359301	-0.265089	-1.036954
C67	C	1.353903	-0.268030	-1.130857
C68	C	1.238817	-0.330827	-1.124193
C69	C	1.244215	-0.327887	-1.030291
C70	C	1.304460	-0.295017	-0.986674
C71	C	1.309862	-0.292079	-0.892770
C72	C	1.194772	-0.354874	-0.886108
C73	C	1.189374	-0.357814	-0.980011
C74	C	1.287741	-0.304171	-0.274410
C75	C	1.293664	-0.300899	-0.174480
H76	H	0.937996	-0.235387	-0.384154
H77	H	1.445618	-0.861394	-0.355715
O78	O	0.760909	-0.223520	-0.364903
C79	C	0.825415	-0.194562	-0.317757
H80	H	0.890245	-0.196301	-0.358437
H81	H	0.798862	-0.152106	-0.306727
H82	H	0.839298	-0.211863	-0.249985
H83	H	1.140323	-0.384575	-1.015536
O84	O	1.454993	-0.758058	-0.347081
C85	C	1.407190	-0.722872	-0.286012
H86	H	1.336705	-0.736678	-0.276314
H87	H	1.443750	-0.721243	-0.218724
H88	H	1.402458	-0.682242	-0.313612
H89	H	1.398557	-0.243658	-1.171792
O90	O	1.154646	-1.115900	-0.614890
C91	C	1.202463	-1.151063	-0.675985
H92	H	1.272453	-1.160637	-0.648265
H93	H	1.165156	-1.188557	-0.685910
H94	H	1.208446	-1.132430	-0.743184
H95	H	1.163719	-0.510158	-0.606196
O96	O	1.394496	-1.009130	-0.401345
C97	C	1.448203	-1.045132	-0.353556
H98	H	1.449184	-1.085309	-0.390576
H99	H	1.519597	-1.031531	-0.348103
H100	H	1.419261	-1.047668	-0.283346
H101	H	1.384531	-0.510945	-0.409757
O102	O	1.141362	-0.383917	-0.837353
C103	C	1.050442	-0.370023	-0.855115
H104	H	1.044680	-0.351995	-0.923197
H105	H	1.009892	-0.406425	-0.855980
H106	H	1.023232	-0.340413	-0.800531
H107	H	1.103051	-0.761120	-0.660424
O108	O	0.616644	-0.253796	-0.414339
C109	C	0.638541	-0.203143	-0.435471
H110	H	0.660242	-0.203740	-0.508796
H111	H	0.577260	-0.174876	-0.424263
H112	H	0.695826	-0.189854	-0.390444
H113	H	1.189768	-0.357588	-1.159722
H114	H	1.358918	-0.265316	-0.857259
H115	H	1.408359	-0.238328	-1.001442
H116	H	1.384612	-0.609999	-0.409789
H117	H	0.611432	-0.387713	-0.631965
H118	H	1.384905	-1.112374	-0.409903
O119	O	1.154377	-1.008278	-0.614847
C120	C	1.100706	-1.043902	-0.662644
H121	H	1.099772	-1.081570	-0.625636
H122	H	1.029295	-1.025958	-0.668086
H123	H	1.129650	-1.052983	-0.732857
H124	H	0.781785	-0.393734	-0.641745
O125	O	1.093511	-0.864352	-0.669037
C126	C	1.039778	-0.828344	-0.716789
H127	H	1.076410	-0.790802	-0.722032
H128	H	1.026069	-0.845982	-0.787077
H129	H	0.973407	-0.819131	-0.679873
O130	O	1.154188	-0.613408	-0.614816
C131	C	1.100439	-0.577407	-0.662567
H132	H	1.137056	-0.539860	-0.667814
H133	H	1.086732	-0.595047	-0.732854
H134	H	1.034068	-0.568202	-0.625647
H135	H	0.925953	-0.363425	-0.592435
