data_functionalizedCrystal
_audit_creation_method	'MofGen! by Chris Wilmer'
_symmetry_space_group_name_H-M	'P1'
_symmetry_Int_Tables_number	1
_symmetry_cell_setting	triclinic
loop_
_symmetry_equiv_pos_as_xyz
  x,y,z
_cell_length_a	16.120530
_cell_length_b	29.839125
_cell_length_c	16.120484
_cell_angle_alpha	87.117439
_cell_angle_beta	89.832673
_cell_angle_gamma	87.091446
loop_
_atom_site_label
_atom_site_type_symbol
_atom_site_fract_x
_atom_site_fract_y
_atom_site_fract_z
Zn1	Zn	1.254394	-0.299056	0.395737
Zn2	Zn	1.587727	0.034278	0.729071
Zn3	Zn	1.921060	0.367611	1.062404
Zn4	Zn	1.247256	-0.227530	0.534766
Zn5	Zn	1.580589	0.105803	0.868099
Zn6	Zn	1.913923	0.439136	1.201433
Zn7	Zn	1.115354	-0.219950	0.388670
Zn8	Zn	1.448688	0.113383	0.722003
Zn9	Zn	1.782021	0.446716	1.055337
Zn10	Zn	1.108246	-0.298644	0.527690
Zn11	Zn	1.441579	0.034689	0.861024
Zn12	Zn	1.774913	0.368022	1.194357
O13	O	1.181313	-0.261295	0.461716
O14	O	1.514646	0.072038	0.795049
O15	O	1.847979	0.405372	1.128383
O16	O	1.369812	-0.292912	0.420099
O17	O	1.703145	0.040422	0.753432
O18	O	2.036478	0.373755	1.086765
O19	O	1.229747	-0.163657	0.515389
O20	O	1.563080	0.169676	0.848723
O21	O	1.896413	0.503009	1.182056
O22	O	1.139760	-0.227444	0.273243
O23	O	1.473094	0.105890	0.606576
O24	O	1.806427	0.439223	0.939910
O25	O	1.364568	-0.240362	0.522242
O26	O	1.697901	0.092971	0.855576
O27	O	2.031234	0.426304	1.188909
O28	O	1.241912	-0.285562	0.278435
O29	O	1.575245	0.047771	0.611769
O30	O	1.908579	0.381105	0.945102
O31	O	1.132839	-0.158088	0.408053
O32	O	1.466173	0.175245	0.741387
O33	O	1.799506	0.508578	1.074720
O34	O	0.998047	-0.227045	0.401192
O35	O	1.331380	0.106288	0.734526
O36	O	1.664714	0.439622	1.067859
O37	O	1.127645	-0.361566	0.510183
O38	O	1.460979	-0.028233	0.843516
O39	O	1.794312	0.305100	1.176850
O40	O	0.992824	-0.284861	0.503330
O41	O	1.326158	0.048472	0.836663
O42	O	1.659491	0.381805	1.169997
O43	O	1.235019	-0.361868	0.413238
O44	O	1.568353	-0.028535	0.746571
O45	O	1.901686	0.304798	1.079905
O46	O	1.222854	-0.239964	0.650192
O47	O	1.556187	0.093369	0.983525
O48	O	1.889521	0.426703	1.316858
O49	O	1.120724	-0.292211	0.644993
O50	O	1.454057	0.041122	0.978327
O51	O	1.787391	0.374455	1.311660
C52	C	0.965264	-0.255086	0.450727
C53	C	1.298597	0.078247	0.784060
C54	C	1.631930	0.411580	1.117394
C55	C	0.872836	-0.252441	0.446046
C56	C	1.206169	0.080892	0.779379
C57	C	1.539503	0.414225	1.112713
C58	C	1.181335	-0.378474	0.461710
C59	C	1.514669	-0.045141	0.795043
C60	C	1.848002	0.288193	1.128376
C61	C	1.181345	-0.428409	0.461707
C62	C	1.514679	-0.095075	0.795040
C63	C	1.848012	0.238258	1.128374
C64	C	0.703610	-0.247616	0.437480
C65	C	1.036943	0.085718	0.770814
C66	C	1.370277	0.419051	1.104147
C67	C	0.659853	-0.275009	0.486013
C68	C	0.993186	0.058324	0.819346
C69	C	1.326519	0.391658	1.152679
C70	C	0.565690	-0.272324	0.481247
C71	C	0.899023	0.061009	0.814580
C72	C	1.232356	0.394343	1.147913
C73	C	0.797782	-0.250300	0.442245
C74	C	1.131115	0.083033	0.775579
C75	C	1.464448	0.416367	1.108912
C76	C	1.237318	-0.738210	0.411091
C77	C	1.570651	-0.404877	0.744424
C78	C	1.903985	-0.071544	1.077758
C79	C	1.237363	-0.925883	0.411022
C80	C	1.570696	-0.592550	0.744356
C81	C	1.904029	-0.259216	1.077689
O82	O	1.284887	-0.950283	0.368062
O83	O	1.618220	-0.616949	0.701396
O84	O	1.951554	-0.283616	1.034729
N85	N	1.181467	-0.949191	0.461490
N86	N	1.514800	-0.615858	0.794823
N87	N	1.848133	-0.282525	1.128156
C88	C	1.125552	-0.925579	0.511974
C89	C	1.458885	-0.592245	0.845307
C90	C	1.792219	-0.258912	1.178641
O91	O	1.078004	-0.949710	0.554892
O92	O	1.411338	-0.616376	0.888225
O93	O	1.744671	-0.283043	1.221559
C94	C	1.125504	-0.737907	0.512038
C95	C	1.458837	-0.404573	0.845371
C96	C	1.792170	-0.071240	1.178705
C97	C	1.181409	-0.714601	0.461573
C98	C	1.514742	-0.381268	0.794907
C99	C	1.848076	-0.047934	1.128240
C100	C	1.293218	-0.714905	0.360630
C101	C	1.626551	-0.381571	0.693963
C102	C	1.959885	-0.048238	1.027297
C103	C	1.293209	-0.667989	0.360651
C104	C	1.626543	-0.334656	0.693984
C105	C	1.959876	-0.001323	1.027318
C106	C	1.237300	-0.644380	0.411133
C107	C	1.570634	-0.311047	0.744467
C108	C	1.903967	0.022287	1.077800
C109	C	1.181400	-0.667686	0.461594
C110	C	1.514734	-0.334353	0.794928
C111	C	1.848067	-0.001019	1.128261
C112	C	1.069586	-0.714295	0.562517
C113	C	1.402919	-0.380961	0.895850
C114	C	1.736252	-0.047628	1.229184
C115	C	1.069577	-0.667374	0.562527
C116	C	1.402910	-0.334040	0.895860
C117	C	1.736244	-0.000707	1.229194
C118	C	1.125482	-0.644068	0.512062
C119	C	1.458816	-0.310735	0.845396
C120	C	1.792149	0.022599	1.178729
C121	C	1.125483	-0.597161	0.512098
C122	C	1.458816	-0.263828	0.845431
C123	C	1.792149	0.069505	1.178764
N124	N	1.181379	-0.573853	0.461630
N125	N	1.514712	-0.240520	0.794963
N126	N	1.848045	0.092814	1.128297
C127	C	1.237288	-0.597462	0.411148
C128	C	1.570621	-0.264129	0.744481
C129	C	1.903954	0.069204	1.077815
C130	C	1.125582	-1.024109	0.511938
C131	C	1.458916	-0.690776	0.845272
C132	C	1.792249	-0.357442	1.178605
C133	C	1.125595	-1.071027	0.511924
C134	C	1.458928	-0.737694	0.845257
C135	C	1.792262	-0.404360	1.178590
C136	C	1.237405	-1.071328	0.410970
C137	C	1.570739	-0.737995	0.744304
C138	C	1.904072	-0.404661	1.077637
C139	C	1.237396	-1.024409	0.410990
C140	C	1.570729	-0.691076	0.744323
C141	C	1.904062	-0.357743	1.077657
C142	C	1.181478	-1.000801	0.461471
C143	C	1.514812	-0.667467	0.794804
C144	C	1.848145	-0.334134	1.128137
C145	C	1.237266	-0.498937	0.411197
C146	C	1.570599	-0.165604	0.744530
C147	C	1.903932	0.167730	1.077863
C148	C	1.237254	-0.452018	0.411225
C149	C	1.570587	-0.118685	0.744558
C150	C	1.903921	0.214649	1.077891
C151	C	1.125442	-0.451721	0.512174
C152	C	1.458775	-0.118388	0.845508
C153	C	1.792108	0.214946	1.178841
C154	C	1.125455	-0.498636	0.512150
C155	C	1.458789	-0.165303	0.845483
C156	C	1.792122	0.168031	1.178816
C157	C	1.181371	-0.522243	0.461654
C158	C	1.514704	-0.188910	0.794988
C159	C	1.848037	0.144424	1.128321
O160	O	1.077977	-0.572733	0.555028
O161	O	1.411311	-0.239399	0.888361
O162	O	1.744644	0.093934	1.221695
O163	O	1.284816	-0.573322	0.368223
O164	O	1.618149	-0.239989	0.701556
O165	O	1.951483	0.093344	1.034890
C166	C	1.237327	-0.785126	0.411070
C167	C	1.570660	-0.451792	0.744403
C168	C	1.903993	-0.118459	1.077737
C169	C	1.181427	-0.808431	0.461531
C170	C	1.514760	-0.475098	0.794864
C171	C	1.848093	-0.141765	1.128198
C172	C	1.125518	-0.784822	0.512013
C173	C	1.458851	-0.451489	0.845347
C174	C	1.792184	-0.118155	1.178680
C175	C	1.181439	-0.855349	0.461516
C176	C	1.514773	-0.522016	0.794850
C177	C	1.848106	-0.188682	1.128183
C178	C	1.237348	-0.878958	0.411034
C179	C	1.570682	-0.545625	0.744368
C180	C	1.904015	-0.212292	1.077701
C181	C	1.293244	-0.855650	0.360567
C182	C	1.626578	-0.522317	0.693900
C183	C	1.959911	-0.188983	1.027233
C184	C	1.293236	-0.808735	0.360588
C185	C	1.626569	-0.475402	0.693921
C186	C	1.959902	-0.142068	1.027254
C187	C	1.069622	-0.808130	0.562481
C188	C	1.402955	-0.474797	0.895814
C189	C	1.736288	-0.141464	1.229148
C190	C	1.069636	-0.855046	0.562456
C191	C	1.402969	-0.521712	0.895790
C192	C	1.736302	-0.188379	1.229123
C193	C	1.125544	-0.878655	0.511974
C194	C	1.458878	-0.545322	0.845308
C195	C	1.792211	-0.211988	1.178641
C196	C	1.398205	-0.267528	0.472748
C197	C	1.731539	0.065805	0.806082
C198	C	2.064872	0.399138	1.139415
C199	C	1.490632	-0.270185	0.477450
C200	C	1.823965	0.063149	0.810783
C201	C	2.157299	0.396482	1.144116
C202	C	1.170266	-0.266876	0.677766
C203	C	1.503599	0.066457	1.011099
C204	C	1.836932	0.399791	1.344432
C205	C	1.165616	-0.269281	0.770197
C206	C	1.498949	0.064053	1.103530
C207	C	1.832283	0.397386	1.436863
C208	C	1.181341	-0.144572	0.461665
C209	C	1.514674	0.188761	0.794998
C210	C	1.848007	0.522095	1.128331
C211	C	1.181504	-0.094636	0.461441
C212	C	1.514837	0.238697	0.794775
C213	C	1.848171	0.572030	1.128108
C214	C	1.192425	-0.255703	0.244824
C215	C	1.525759	0.077630	0.578157
C216	C	1.859092	0.410964	0.911490
C217	C	1.197161	-0.253320	0.152397
C218	C	1.530494	0.080013	0.485730
C219	C	1.863828	0.413347	0.819064
C220	C	1.157131	-0.273680	0.939430
C221	C	1.490465	0.059653	1.272763
C222	C	1.823798	0.392986	1.606096
C223	C	1.205643	-0.248922	0.983169
C224	C	1.538976	0.084412	1.316503
C225	C	1.872310	0.417745	1.649836
C226	C	1.200922	-0.251370	1.077336
C227	C	1.534255	0.081964	1.410670
C228	C	1.867589	0.415297	1.744003
C229	C	1.161851	-0.271233	0.845254
C230	C	1.495184	0.062101	1.178587
C231	C	1.828518	0.395434	1.511921
H232	H	0.693109	-0.300478	0.531141
H233	H	1.026443	0.032855	0.864474
H234	H	1.359776	0.366188	1.197808
H235	H	1.250720	-0.225887	0.949894
H236	H	1.584053	0.107447	1.283227
H237	H	1.917386	0.440780	1.616561
H238	H	1.282917	-1.005437	0.369896
H239	H	1.616251	-0.672104	0.703229
H240	H	1.949584	-0.338770	1.036562
H241	H	0.670355	-0.222149	0.392355
H242	H	1.003688	0.111184	0.725689
H243	H	1.337022	0.444518	1.059022
Cl244	Cl	1.307542	-0.422722	0.347780
Cl245	Cl	1.640875	-0.089389	0.681113
Cl246	Cl	1.974208	0.243944	1.014447
Cl247	Cl	1.055323	-1.100320	0.575381
Cl248	Cl	1.388657	-0.766987	0.908714
Cl249	Cl	1.721990	-0.433654	1.242048
H250	H	1.282794	-0.518152	0.370075
H251	H	1.616128	-0.184819	0.703409
H252	H	1.949461	0.148514	1.036742
H253	H	1.338732	-0.649018	0.319556
H254	H	1.672065	-0.315685	0.652889
H255	H	2.005398	0.017649	0.986222
H256	H	1.338746	-0.734122	0.319517
H257	H	1.672080	-0.400789	0.652850
H258	H	2.005413	-0.067456	0.986183
H259	H	1.024112	-0.874017	0.603559
H260	H	1.357445	-0.540684	0.936892
H261	H	1.690778	-0.207351	1.270225
Cl262	Cl	1.087537	-0.309241	0.990801
Cl263	Cl	1.420870	0.024092	1.324134
Cl264	Cl	1.754204	0.357426	1.657467
H265	H	1.282929	-1.090559	0.369866
H266	H	1.616262	-0.757225	0.703200
H267	H	1.949596	-0.423892	1.036533
Cl268	Cl	1.055280	-0.994436	0.575408
Cl269	Cl	1.388613	-0.661103	0.908741
Cl270	Cl	1.721947	-0.327769	1.242075
Cl271	Cl	0.999302	-0.743582	0.625966
Cl272	Cl	1.332636	-0.410248	0.959299
Cl273	Cl	1.665969	-0.076915	1.292632
H274	H	1.024033	-0.648153	0.603626
H275	H	1.357366	-0.314820	0.936960
H276	H	1.690700	0.018513	1.270293
H277	H	1.079940	-0.517613	0.553250
H278	H	1.413274	-0.184280	0.886584
H279	H	1.746607	0.149054	1.219917
H280	H	1.079924	-0.432490	0.553278
H281	H	1.413258	-0.099156	0.886612
H282	H	1.746591	0.234177	1.219945
H283	H	1.338770	-0.874881	0.319465
H284	H	1.672103	-0.541548	0.652798
H285	H	2.005437	-0.208214	0.986132
Cl286	Cl	1.363519	-0.779443	0.297141
Cl287	Cl	1.696853	-0.446110	0.630475
Cl288	Cl	2.030186	-0.112777	0.963808
Cl289	Cl	0.999328	-0.778457	0.625951
Cl290	Cl	1.332662	-0.445124	0.959284
Cl291	Cl	1.665995	-0.111791	1.292618
