data_functionalizedCrystal
_audit_creation_method	'MofGen! by Chris Wilmer'
_symmetry_space_group_name_H-M	'P1'
_symmetry_Int_Tables_number	1
_symmetry_cell_setting	triclinic
loop_
_symmetry_equiv_pos_as_xyz
  x,y,z
_cell_length_a	15.698487
_cell_length_b	23.196402
_cell_length_c	15.698487
_cell_angle_alpha	60.004406
_cell_angle_beta	90.001637
_cell_angle_gamma	60.001116
loop_
_atom_site_label
_atom_site_type_symbol
_atom_site_fract_x
_atom_site_fract_y
_atom_site_fract_z
Zr1	Zr	-0.111722	0.630961	0.820725
O2	O	-0.247735	0.751222	0.684726
O3	O	-0.070031	0.510700	0.862404
O4	O	-0.247735	0.630958	0.862423
O5	O	0.070150	0.630966	0.684706
O6	O	-0.247730	0.630956	1.002607
O7	O	-0.070031	0.630964	0.684707
O8	O	0.070150	0.415836	1.002573
O9	O	-0.247729	0.846086	0.684740
O10	O	-0.052241	0.560163	0.984812
O11	O	0.052371	0.560167	0.880193
O12	O	-0.156852	0.701755	0.880216
O13	O	-0.052241	0.701759	0.775597
Zr14	Zr	0.111859	0.630961	1.044301
Zr15	Zr	-0.111713	0.630958	1.044303
Zr16	Zr	0.111851	0.630965	0.820723
Zr17	Zr	-0.111713	0.782258	0.820748
Zr18	Zr	0.111851	0.479664	1.044279
O19	O	0.070169	0.751222	1.002623
O20	O	-0.247723	0.751217	1.002625
O21	O	0.070157	0.751228	0.684724
O22	O	0.247872	0.510700	1.180300
O23	O	-0.070019	0.510695	1.180303
O24	O	0.247861	0.510705	0.862401
O25	O	-0.070013	0.630956	1.180321
O26	O	0.247873	0.630964	1.002604
O27	O	0.247867	0.630966	0.862419
O28	O	0.070169	0.630958	1.180320
O29	O	-0.247723	0.846084	0.862455
O30	O	0.247861	0.415839	1.002571
O31	O	0.247867	0.415836	1.180286
O32	O	0.070157	0.415833	1.180288
O33	O	-0.070019	0.846089	0.684739
O34	O	-0.070012	0.846086	0.862454
O35	O	0.156990	0.560167	0.984810
O36	O	0.052379	0.560163	1.089429
O37	O	-0.052233	0.701755	0.984833
O38	O	0.052379	0.701759	0.880214
C39	C	0.000058	0.441711	0.932485
C40	C	0.000055	0.377482	0.932475
C41	C	0.077277	0.295053	1.009704
C42	C	0.077287	0.234693	1.009712
C43	C	0.000058	0.256766	0.932497
C44	C	-0.077171	0.339209	0.855255
C45	C	-0.077173	0.399566	0.855244
C46	C	-0.094201	0.201177	0.908452
C47	C	-0.094200	0.140818	0.908470
C48	C	0.000062	0.070604	0.932526
C49	C	0.094330	0.060747	0.956585
C50	C	0.094329	0.121104	0.956574
C51	C	0.000051	0.191324	0.932500
C52	C	0.077302	-0.077278	1.009767
C53	C	0.077312	-0.137637	1.009767
C54	C	-0.077155	-0.033119	0.855314
C55	C	-0.077157	0.027238	0.855310
C56	C	0.000071	0.005153	0.932542
C57	C	-0.279586	0.630957	0.932515
C58	C	-0.374499	0.630955	0.932516
C59	C	-0.451578	0.630953	0.932516
C60	C	-0.548282	0.630958	0.932515
C61	C	0.279724	0.630966	0.932511
C62	C	0.374637	0.630967	0.932510
C63	C	0.000059	0.630966	0.652851
C64	C	0.000055	0.630967	0.557936
C65	C	0.000079	0.820211	0.932541
C66	C	0.000083	0.884441	0.932551
C67	C	0.000057	0.630969	0.480854
C68	C	0.000069	0.630965	0.384157
C69	C	0.000079	0.630957	1.212175
C70	C	0.000083	0.630955	1.307090
C71	C	0.000069	0.441707	1.212147
C72	C	0.000069	0.377476	1.307052
C73	C	0.279714	0.441716	0.932483
C74	C	0.374623	0.377488	0.932472
C75	C	0.279724	0.441711	1.212145
C76	C	0.374636	0.377482	1.307049
C77	C	-0.279586	0.820211	0.652882
C78	C	-0.374499	0.884441	0.557977
C79	C	0.000069	0.820216	0.652879
C80	C	0.000069	0.884447	0.557974
C81	C	-0.279576	0.820206	0.932544
C82	C	-0.374485	0.884435	0.932554
C83	C	-0.054551	0.347312	1.297012
C84	C	-0.054572	0.286968	1.386177
C85	C	0.000033	0.256785	1.485381
C86	C	0.054655	0.286955	1.495420
C87	C	0.054669	0.347302	1.406256
C88	C	0.473813	0.347326	0.987077
C89	C	0.562998	0.286985	0.987063
C90	C	0.552992	0.256803	0.932451
C91	C	0.453791	0.286972	0.877840
C92	C	0.364608	0.347315	0.877848
C93	C	0.364602	0.347317	1.406237
C94	C	0.453774	0.286975	1.495418
C95	C	0.552979	0.256794	1.485410
C96	C	0.563011	0.286965	1.386212
C97	C	0.473841	0.347310	1.297033
C98	C	-0.364464	0.914613	0.458790
C99	C	-0.453636	0.974974	0.369608
C100	C	-0.552841	1.005157	0.379617
C101	C	-0.562873	0.974983	0.478815
C102	C	-0.473703	0.914627	0.567994
C103	C	0.054680	0.914617	0.568015
C104	C	0.054676	0.974977	0.478850
C105	C	0.000067	1.005162	0.379645
C106	C	-0.054550	0.974990	0.369607
C107	C	-0.054552	0.914635	0.458771
C108	C	-0.364445	0.914597	0.987177
C109	C	-0.453613	0.974938	0.987207
C110	C	-0.552821	1.005120	0.932607
C111	C	-0.562859	0.974951	0.877983
C112	C	-0.473691	0.914607	0.877959
H113	H	0.140174	0.167567	1.072602
H114	H	0.099153	0.371853	1.414446
H115	H	0.283846	0.371865	0.833386
H116	H	0.000014	0.207646	1.557976
H117	H	0.481980	0.371893	1.031549
H118	H	0.099112	0.262371	1.576204
H119	H	-0.283673	0.890032	1.031639
H120	H	0.283832	0.371881	1.414406
H121	H	-0.099010	0.999576	0.288822
H122	H	-0.099030	0.371886	1.216242
H123	H	-0.170958	0.148850	0.888883
H124	H	0.643762	0.262429	1.031537
H125	H	0.625619	0.207668	0.932452
H126	H	0.445587	0.262416	1.576181
H127	H	0.445659	0.262389	0.833376
H128	H	-0.283694	0.890040	0.450621
H129	H	-0.099019	0.890072	0.450581
H130	H	-0.643645	0.999535	0.833529
H131	H	0.625579	0.207657	1.558034
H132	H	-0.170968	0.258352	0.888852
H133	H	-0.445420	0.999495	1.031688
H134	H	-0.445447	0.999532	0.288846
H135	H	0.099156	0.999533	0.487044
H136	H	0.643796	0.262383	1.378078
H137	H	0.482025	0.371862	1.216273
H138	H	-0.625441	1.054303	0.306993
H139	H	-0.625418	1.054256	0.932635
H140	H	0.140190	-0.095261	1.072648
H141	H	0.140163	0.277064	1.072591
H142	H	-0.481881	0.890056	0.833474
H143	H	0.000077	1.054307	0.307051
H144	H	-0.099051	0.262412	1.377982
H145	H	0.171085	0.113076	0.976161
H146	H	-0.140051	0.357177	0.792386
H147	H	-0.643657	0.999566	0.486951
H148	H	-0.481885	0.890061	0.648754
H149	H	0.171087	0.003578	0.976166
H150	H	0.140202	-0.204757	1.072655
H151	H	0.099155	0.890045	0.648784
H152	H	-0.140045	0.094357	0.792427
H153	H	-0.140036	-0.015145	0.792444
H154	H	-0.140056	0.466687	0.792350
