data_functionalizedCrystal
_audit_creation_method	'MofGen! by Chris Wilmer'
_symmetry_space_group_name_H-M	'P1'
_symmetry_Int_Tables_number	1
_symmetry_cell_setting	triclinic
loop_
_symmetry_equiv_pos_as_xyz
  x,y,z
_cell_length_a	15.944480
_cell_length_b	15.944551
_cell_length_c	15.021413
_cell_angle_alpha	89.996935
_cell_angle_beta	90.006395
_cell_angle_gamma	83.484293
loop_
_atom_site_label
_atom_site_type_symbol
_atom_site_fract_x
_atom_site_fract_y
_atom_site_fract_z
O1	O	-1.114566	-0.108038	-0.074015
O2	O	-0.614566	0.391962	0.425985
O3	O	-0.870008	-0.121456	-0.074021
O4	O	-0.370008	0.378544	0.425979
O5	O	-0.998965	0.007529	-0.074010
O6	O	-0.498965	0.507529	0.425990
O7	O	-0.985609	-0.237024	-0.074026
O8	O	-0.485609	0.262976	0.425974
O9	O	-0.998945	0.007511	0.074054
O10	O	-0.498945	0.507511	0.574054
O11	O	-0.869988	-0.121475	0.074043
O12	O	-0.369988	0.378525	0.574043
O13	O	-1.114545	-0.108056	0.074049
O14	O	-0.614545	0.391944	0.574049
Zn15	Zn	-0.992263	-0.114769	0.097555
Zn16	Zn	-0.492263	0.385231	0.597555
Zn17	Zn	-0.992290	-0.114744	-0.097526
Zn18	Zn	-0.492290	0.385256	0.402474
O19	O	-0.985588	-0.237042	0.074038
O20	O	-0.485588	0.262958	0.574038
C21	C	-0.838703	-0.120919	0.000010
C22	C	-0.338703	0.379081	0.500010
C23	C	-0.745454	-0.119280	0.000008
C24	C	-0.245454	0.380720	0.500008
C25	C	-0.509692	-0.195212	0.000001
C26	C	-0.009692	0.304788	0.500001
C27	C	-0.459124	-0.154282	0.073011
C28	C	0.040876	0.345718	0.573011
C29	C	-0.574732	-0.116244	0.000009
C30	C	-0.074732	0.383756	0.500009
C31	C	-0.459148	-0.154245	-0.072969
C32	C	0.040852	0.345755	0.427031
C33	C	-0.409821	-0.113317	0.000006
C34	C	0.090179	0.386683	0.500006
C35	C	-0.525391	-0.075336	0.073079
C36	C	-0.025391	0.424664	0.573079
C37	C	-0.525419	-0.075311	-0.072966
C38	C	-0.025419	0.424689	0.427034
C39	C	-0.474883	-0.034323	0.000061
C40	C	0.025117	0.465677	0.500061
C41	C	-0.669732	-0.117933	0.000012
C42	C	-0.169732	0.382067	0.500012
C43	C	-0.314823	-0.111622	0.000010
C44	C	0.185177	0.388378	0.500010
C45	C	-0.998401	0.038814	0.000022
C46	C	-0.498401	0.538814	0.500022
C47	C	-0.996738	0.132060	0.000023
C48	C	-0.496738	0.632060	0.500023
C49	C	-0.145849	-0.108605	0.000014
C50	C	0.354151	0.391395	0.500014
C51	C	-0.239094	-0.110278	0.000006
C52	C	0.260906	0.389722	0.500006
C53	C	-0.986153	-0.268327	0.000004
C54	C	-0.486153	0.231673	0.500004
C55	C	-0.987815	-0.361572	-0.000002
C56	C	-0.487815	0.138428	0.499998
N57	N	-0.992251	-0.114785	0.230692
N58	N	-0.492251	0.385215	0.730692
C59	C	-0.912831	0.346895	0.000009
C60	C	-0.412831	0.846895	0.500009
C61	C	-0.951785	0.407913	0.073014
C62	C	-0.451785	0.907913	0.573014
C63	C	-0.993731	0.302785	0.000016
C64	C	-0.493731	0.802785	0.500016
C65	C	-0.951824	0.407915	-0.072966
C66	C	-0.451824	0.907915	0.427034
C67	C	-0.990820	0.467697	0.000005
C68	C	-0.490820	0.967697	0.500005
C69	C	-1.032707	0.362575	0.073082
C70	C	-0.532707	0.862575	0.573082
C71	C	-1.032735	0.362570	-0.072963
C72	C	-0.532735	0.862570	0.427037
C73	C	-1.071747	0.423570	0.000060
C74	C	-0.571747	0.923570	0.500060
C75	C	-0.995405	0.207783	0.000023
C76	C	-0.495405	0.707783	0.500023
C77	C	-0.989152	0.562697	0.000005
C78	C	-0.489152	1.062697	0.500005
N79	N	-0.992309	-0.114722	-0.230664
N80	N	-0.492309	0.385278	0.269336
C81	C	-0.932612	-0.174399	0.470370
C82	C	-0.432612	0.325601	0.970370
C83	C	-1.008515	-0.190687	0.529705
C84	C	-0.508515	0.309313	1.029705
C85	C	-0.992272	-0.114764	0.412299
C86	C	-0.492272	0.385236	0.912299
C87	C	-0.916390	-0.098495	0.529706
C88	C	-0.416390	0.401505	1.029706
C89	C	-0.992286	-0.114745	0.587723
C90	C	-0.492286	0.385255	1.087723
C91	C	-1.068214	-0.131089	0.470328
C92	C	-0.568214	0.368911	0.970328
C93	C	-0.976039	-0.038863	0.470323
C94	C	-0.476039	0.461137	0.970323
C95	C	-1.051997	-0.055119	0.529631
C96	C	-0.551997	0.444881	1.029631
C97	C	-0.992263	-0.114776	0.311242
C98	C	-0.492263	0.385224	0.811242
C99	C	-0.992304	-0.114732	0.688778
C100	C	-0.492304	0.385268	1.188778
H101	H	-0.430218	-0.187603	-0.134685
H102	H	0.069782	0.312397	0.365315
H103	H	-0.845681	0.313570	0.000080
H104	H	-0.345681	0.813570	0.500080
C105	C	-0.497163	-0.328202	0.076635
C106	C	0.002837	0.171798	0.576635
C107	C	-0.530803	-0.287027	0.000089
C108	C	-0.030803	0.212973	0.500089
H109	H	-0.510203	-0.384881	0.076693
H110	H	-0.010203	0.115119	0.576693
H111	H	-0.437645	-0.327775	0.077160
H112	H	0.062355	0.172225	0.577160
H113	H	-0.520841	-0.299879	0.127965
H114	H	-0.020841	0.200121	0.627965
H115	H	-0.507120	-0.315347	-0.051242
H116	H	-0.007120	0.184653	0.448758
H117	H	-0.590333	-0.287459	-0.000444
H118	H	-0.090333	0.212541	0.499556
H119	H	-0.917605	0.427991	-0.134690
H120	H	-0.417605	0.927991	0.365310
H121	H	-0.882210	-0.224873	0.444350
H122	H	-0.382210	0.275127	0.944350
C123	C	-1.105725	0.406924	0.207811
C124	C	-0.605725	0.906924	0.707811
C125	C	-1.078849	0.335599	0.156497
C126	C	-0.578849	0.835599	0.656497
H127	H	-1.134214	0.390267	0.259303
H128	H	-0.634214	0.890267	0.759303
H129	H	-1.058187	0.433901	0.225253
H130	H	-0.558187	0.933901	0.725253
H131	H	-1.143015	0.444968	0.173678
H132	H	-0.643015	0.944968	0.673678
H133	H	-1.041554	0.297557	0.190627
H134	H	-0.541554	0.797557	0.690627
H135	H	-1.126394	0.308608	0.139056
H136	H	-0.626394	0.808608	0.639056
C137	C	-0.959447	-0.312239	0.617549
C138	C	-0.459447	0.187761	1.117549
C139	C	-1.027066	-0.277323	0.564928
C140	C	-0.527066	0.222677	1.064928
H141	H	-0.970899	-0.365723	0.639296
H142	H	-0.470899	0.134277	1.139296
H143	H	-0.909390	-0.318897	0.582767
H144	H	-0.409390	0.181103	1.082767
H145	H	-0.952206	-0.275780	0.666283
H146	H	-0.452206	0.224220	1.166283
H147	H	-1.034303	-0.313778	0.516191
H148	H	-0.534303	0.186222	1.016191
H149	H	-1.077137	-0.270669	0.599712
H150	H	-0.577137	0.229331	1.099712
C151	C	-0.822383	0.395957	0.156197
C152	C	-0.322383	0.895957	0.656197
C153	C	-0.905585	0.435045	0.156330
C154	C	-0.405585	0.935045	0.656330
H155	H	-0.793858	0.412709	0.207629
H156	H	-0.293858	0.912709	0.707629
H157	H	-0.822659	0.336419	0.156526
H158	H	-0.322659	0.836419	0.656526
H159	H	-0.794203	0.412245	0.104352
H160	H	-0.294203	0.912245	0.604352
H161	H	-0.933767	0.418751	0.208173
H162	H	-0.433767	0.918751	0.708173
H163	H	-0.905313	0.494595	0.156011
H164	H	-0.405313	0.994595	0.656011
C165	C	-1.154034	-0.149739	0.342062
C166	C	-0.654034	0.350261	0.842062
C167	C	-1.154850	-0.149831	0.435274
C168	C	-0.654850	0.350169	0.935274
H169	H	-1.207510	-0.161336	0.320423
H170	H	-0.707510	0.338664	0.820423
H171	H	-1.142456	-0.095999	0.321224
H172	H	-0.642456	0.404001	0.821224
H173	H	-1.111591	-0.191830	0.321326
H174	H	-0.611591	0.308170	0.821326
H175	H	-1.197289	-0.107735	0.456011
H176	H	-0.697289	0.392265	0.956011
H177	H	-1.166438	-0.203579	0.456121
H178	H	-0.666438	0.296421	0.956121
C179	C	-1.036422	0.358026	-0.232662
C180	C	-0.536422	0.858026	0.267338
C181	C	-1.078897	0.335405	-0.156283
C182	C	-0.578897	0.835405	0.343717
H183	H	-1.064914	0.341247	-0.284103
H184	H	-0.564914	0.841247	0.215897
H185	H	-1.035260	0.417447	-0.233557
H186	H	-0.535260	0.917447	0.266443
H187	H	-0.980286	0.330710	-0.232129
H188	H	-0.480286	0.830710	0.267871
H189	H	-1.135032	0.362725	-0.156812
H190	H	-0.635032	0.862725	0.343188
H191	H	-1.080068	0.275972	-0.155388
H192	H	-0.580068	0.775972	0.344612
H193	H	-1.138956	0.456746	0.000103
H194	H	-0.638956	0.956746	0.500103
H195	H	-0.554211	-0.042014	0.134864
H196	H	-0.054211	0.457986	0.634864
C197	C	-1.199551	-0.004258	0.534411
C198	C	-0.699551	0.495742	1.034411
C199	C	-1.120184	0.012975	0.564550
C200	C	-0.620184	0.512975	1.064550
H201	H	-1.241646	0.037775	0.555976
H202	H	-0.741646	0.537775	1.055976
H203	H	-1.200215	-0.004202	0.471184
H204	H	-0.700215	0.495798	0.971184
H205	H	-1.210621	-0.058032	0.555649
H206	H	-0.710621	0.441968	1.055649
H207	H	-1.109110	0.066747	0.543306
H208	H	-0.609110	0.566747	1.043306
H209	H	-1.119518	0.012928	0.627790
H210	H	-0.619518	0.512928	1.127790
H211	H	-0.962272	0.025295	0.444219
H212	H	-0.462272	0.525295	0.944219
H213	H	-0.852212	-0.084743	0.555790
H214	H	-0.352212	0.415257	1.055790
H215	H	-0.554374	-0.041979	-0.134688
H216	H	-0.054374	0.458021	0.365312
H217	H	-0.430177	-0.187639	0.134729
H218	H	0.069823	0.312361	0.634729
H219	H	-0.459417	0.033747	0.000108
H220	H	0.040583	0.533747	0.500108
