data_functionalizedCrystal
_audit_creation_method	'MofGen! by Chris Wilmer'
_symmetry_space_group_name_H-M	'P1'
_symmetry_Int_Tables_number	1
_symmetry_cell_setting	triclinic
loop_
_symmetry_equiv_pos_as_xyz
  x,y,z
_cell_length_a	6.817900
_cell_length_b	13.694049
_cell_length_c	12.200737
_cell_angle_alpha	78.576225
_cell_angle_beta	107.141108
_cell_angle_gamma	106.285429
loop_
_atom_site_label
_atom_site_type_symbol
_atom_site_fract_x
_atom_site_fract_y
_atom_site_fract_z
V1	V	-4.058810	-0.140474	-0.313587
O2	O	-4.055454	0.006507	-0.352894
O3	O	-4.000740	-0.278303	-0.267898
O4	O	-4.028661	-0.138421	-0.470220
O5	O	-4.027340	-0.134344	-0.149171
V6	V	-4.541326	-0.122881	-0.299212
O7	O	-4.322277	-0.179067	-0.345122
O8	O	-4.728056	-0.084289	-0.267678
O9	O	-4.376190	0.014947	-0.344902
O10	O	-4.662079	-0.269863	-0.259905
O11	O	-4.690193	-0.129012	-0.463628
O12	O	-4.348269	-0.124935	-0.142579
C13	C	-3.842798	-0.311899	-0.251715
C14	C	-3.876727	-0.424577	-0.215402
C15	C	-3.841200	-0.462955	-0.097848
C16	C	-3.873105	-0.568820	-0.063716
C17	C	-3.940525	-0.636316	-0.147134
C18	C	-3.976039	-0.597938	-0.264690
C19	C	-3.944146	-0.492063	-0.298826
C20	C	-4.043471	-0.665424	-0.348112
C21	C	-4.078985	-0.627046	-0.465668
C22	C	-4.047093	-0.521181	-0.499798
C23	C	-3.979673	-0.453685	-0.416380
C24	C	-4.075364	-0.771299	-0.313976
C25	C	-4.178310	-0.800407	-0.514954
C26	C	-4.146404	-0.694542	-0.549086
C27	C	-3.878412	-0.133464	-0.509796
C28	C	-3.934981	-0.132697	-0.637558
C29	C	-3.980919	-0.132072	-0.741316
C30	C	-4.038566	-0.131285	-0.871484
C31	C	-4.197473	0.048538	-0.361080
C32	C	-4.142783	0.161215	-0.397400
C33	C	-4.161858	-0.129895	-0.102996
C34	C	-4.084528	-0.130657	0.024766
H35	H	-3.966499	-0.722515	-0.119336
H36	H	-4.046442	-0.802536	-0.218261
H37	H	-3.786325	-0.407992	-0.029942
H38	H	-3.844193	-0.600060	0.031998
C39	C	-3.945057	-0.338772	-0.453669
C40	C	-3.990555	-0.319603	-0.574470
C41	C	-3.958663	-0.213756	-0.608858
H42	H	-4.035497	-0.312626	-0.427015
H43	H	-3.802092	-0.306120	-0.421716
H44	H	-4.133496	-0.352241	-0.606410
H45	H	-3.900126	-0.345724	-0.601154
H46	H	-3.815698	-0.181104	-0.576906
H47	H	-4.049105	-0.187620	-0.582197
H48	H	-3.989509	-0.200735	-0.690824
H49	H	-4.233205	-0.855363	-0.582880
H50	H	-4.076026	-0.489938	-0.595520
H51	H	-4.175315	-0.663279	-0.644802
