data_functionalizedCrystal
_audit_creation_method	'MofGen! by Chris Wilmer'
_symmetry_space_group_name_H-M	'P1'
_symmetry_Int_Tables_number	1
_symmetry_cell_setting	triclinic
loop_
_symmetry_equiv_pos_as_xyz
  x,y,z
_cell_length_a	13.897449
_cell_length_b	13.897448
_cell_length_c	11.169409
_cell_angle_alpha	89.964482
_cell_angle_beta	89.974584
_cell_angle_gamma	90.018519
loop_
_atom_site_label
_atom_site_type_symbol
_atom_site_fract_x
_atom_site_fract_y
_atom_site_fract_z
Zn1	Zn	1.474722	-0.383916	-0.678671
Zn2	Zn	1.974722	0.116084	-0.178671
Zn3	Zn	1.474610	-0.545252	-0.477977
Zn4	Zn	1.974610	-0.045252	0.022023
Zn5	Zn	1.313405	-0.383974	-0.477988
Zn6	Zn	1.813405	0.116026	0.022012
Zn7	Zn	1.313393	-0.545173	-0.678605
Zn8	Zn	1.813393	-0.045173	-0.178605
O9	O	1.394033	-0.464579	-0.578310
O10	O	1.894033	0.035421	-0.078310
O11	O	1.609689	-0.405326	-0.652071
O12	O	2.109689	0.094674	-0.152071
O13	O	1.453185	-0.523915	-0.310028
O14	O	1.953185	-0.023915	0.189972
O15	O	1.334856	-0.248985	-0.504642
O16	O	1.834856	0.251015	-0.004642
O17	O	1.609607	-0.523858	-0.504622
O18	O	2.109607	-0.023858	-0.004622
O19	O	1.453375	-0.248942	-0.652083
O20	O	1.953375	0.251058	-0.152083
O21	O	1.334748	-0.405426	-0.310037
O22	O	1.834748	0.094574	0.189963
O23	O	1.178422	-0.405349	-0.504578
O24	O	1.678422	0.094651	-0.004578
O25	O	1.334835	-0.523725	-0.846563
O26	O	1.834835	-0.023725	-0.346563
O27	O	1.178413	-0.523781	-0.651969
O28	O	1.678413	-0.023781	-0.151969
O29	O	1.453363	-0.405250	-0.846612
O30	O	1.953363	0.094750	-0.346612
O31	O	1.453172	-0.680223	-0.504558
O32	O	1.953172	-0.180223	-0.004558
O33	O	1.334727	-0.680165	-0.651958
O34	O	1.834727	-0.180165	-0.151958
C35	C	1.143418	-0.464564	-0.578268
C36	C	1.643418	0.035436	-0.078268
C37	C	1.036204	-0.464581	-0.578279
C38	C	1.536204	0.035419	-0.078279
C39	C	1.393962	-0.715193	-0.578275
C40	C	1.893962	-0.215193	-0.078275
C41	C	1.394020	-0.822407	-0.578301
C42	C	1.894020	-0.322407	-0.078301
C43	C	0.949135	-0.464584	-0.578299
C44	C	1.449135	0.035416	-0.078299
C45	C	0.839902	-0.464591	-0.578335
C46	C	1.339902	0.035409	-0.078335
C47	C	1.394122	-1.018702	-0.578376
C48	C	1.894122	-0.518702	-0.078376
C49	C	1.394063	-0.909470	-0.578338
C50	C	1.894063	-0.409470	-0.078338
C51	C	1.645625	-0.464594	-0.578353
C52	C	2.145625	0.035406	-0.078353
C53	C	1.752839	-0.464601	-0.578371
C54	C	2.252839	0.035399	-0.078371
C55	C	1.394110	-0.464472	-0.891353
C56	C	1.894110	0.035528	-0.391353
C57	C	1.394143	-0.464426	-1.024753
C58	C	1.894143	0.035574	-0.524753
C59	C	1.394130	-0.212986	-0.578371
C60	C	1.894130	0.287014	-0.078371
C61	C	1.394171	-0.105772	-0.578397
C62	C	1.894171	0.394228	-0.078397
C63	C	1.394011	-0.464616	-0.266485
C64	C	1.894011	0.035384	0.233515
C65	C	1.394165	-0.464389	-0.133086
C66	C	1.894165	0.035611	0.366914
