data_functionalizedCrystal
_audit_creation_method	'MofGen! by Chris Wilmer'
_symmetry_space_group_name_H-M	'P1'
_symmetry_Int_Tables_number	1
_symmetry_cell_setting	triclinic
loop_
_symmetry_equiv_pos_as_xyz
  x,y,z
_cell_length_a	14.519731
_cell_length_b	14.519709
_cell_length_c	12.996460
_cell_angle_alpha	90.008707
_cell_angle_beta	89.993690
_cell_angle_gamma	96.315501
loop_
_atom_site_label
_atom_site_type_symbol
_atom_site_fract_x
_atom_site_fract_y
_atom_site_fract_z
O1	O	1.223858	-0.120978	-0.085589
O2	O	0.955384	-0.135195	-0.085593
O3	O	1.096739	0.006151	-0.085562
O4	O	1.082503	-0.262324	-0.085620
O5	O	1.096721	0.006143	0.085572
O6	O	0.955366	-0.135203	0.085541
O7	O	1.223840	-0.120987	0.085545
Cu8	Cu	1.089601	-0.128095	0.101169
Cu9	Cu	1.089623	-0.128086	-0.101217
O10	O	1.082485	-0.262333	0.085514
C11	C	0.921016	-0.134532	-0.000026
C12	C	0.818635	-0.132536	-0.000026
C13	C	1.096067	0.040507	0.000010
C14	C	1.094079	0.142889	0.000026
C15	C	0.735491	-0.130915	-0.000030
C16	C	0.631182	-0.128888	-0.000030
C17	C	0.548043	-0.127280	-0.000029
C18	C	0.443728	-0.125253	-0.000031
C19	C	1.086759	0.517785	0.000053
C20	C	1.088792	0.413477	0.000046
C21	C	1.090419	0.330340	0.000040
C22	C	1.092452	0.226025	0.000031
C23	C	1.258209	-0.121649	-0.000024
C24	C	1.360589	-0.123645	-0.000031
N25	N	1.089593	-0.128102	0.243516
C26	C	1.083157	0.703312	-0.000024
C27	C	1.085146	0.600930	0.000063
N28	N	1.089639	-0.128072	-0.243564
C29	C	1.089597	-0.128104	0.336622
C30	C	1.089606	-0.128098	0.453427
C31	C	1.089617	-0.128088	0.546525
C32	C	1.089627	-0.128082	0.663338
