data_functionalizedCrystal
_audit_creation_method	'MofGen! by Chris Wilmer'
_symmetry_space_group_name_H-M	'P1'
_symmetry_Int_Tables_number	1
_symmetry_cell_setting	triclinic
loop_
_symmetry_equiv_pos_as_xyz
  x,y,z
_cell_length_a	19.077105
_cell_length_b	16.120484
_cell_length_c	19.077174
_cell_angle_alpha	95.281307
_cell_angle_beta	85.483752
_cell_angle_gamma	90.738523
loop_
_atom_site_label
_atom_site_type_symbol
_atom_site_fract_x
_atom_site_fract_y
_atom_site_fract_z
Zn1	Zn	1.077028	-0.405078	-0.458497
Zn2	Zn	1.066713	-0.538658	-0.346101
Zn3	Zn	0.954893	-0.393424	-0.335415
Zn4	Zn	0.953609	-0.538603	-0.459216
O5	O	1.013061	-0.468941	-0.399807
O6	O	1.174108	-0.427698	-0.447758
O7	O	1.048100	-0.514538	-0.245834
O8	O	0.975948	-0.278308	-0.346969
O9	O	1.166530	-0.525838	-0.365181
O10	O	1.065680	-0.286870	-0.437397
O11	O	0.965946	-0.407835	-0.237983
O12	O	0.856274	-0.407782	-0.347667
O13	O	0.973761	-0.525745	-0.557970
O14	O	0.855331	-0.514445	-0.438623
O15	O	1.064436	-0.427645	-0.557441
O16	O	1.046856	-0.655312	-0.365879
O17	O	0.963759	-0.655272	-0.448984
C18	C	0.830276	-0.459844	-0.392064
C19	C	0.752080	-0.455973	-0.388769
C20	C	0.714864	-0.509765	-0.434509
C21	C	0.641391	-0.506117	-0.431416
C22	C	0.605135	-0.448680	-0.382579
C23	C	0.642355	-0.394883	-0.336836
C24	C	0.715827	-0.398527	-0.339933
C25	C	0.385448	-0.431813	-0.368249
C26	C	0.311971	-0.428174	-0.365154
C27	C	0.311012	-0.539408	-0.459734
C28	C	0.384485	-0.543051	-0.462824
C29	C	0.421700	-0.489250	-0.417085
N30	N	0.530033	-0.444952	-0.379414
N31	N	0.496800	-0.492975	-0.420253
C32	C	1.004068	-0.685543	-0.408685
C33	C	1.000287	-0.778211	-0.412510
C34	C	0.993387	-0.947877	-0.419507
C35	C	1.032861	-0.989171	-0.380125
C36	C	1.029022	-1.083579	-0.384018
C37	C	0.997225	-0.853460	-0.415614
C38	C	1.196559	-0.478074	-0.407581
C39	C	1.274755	-0.481966	-0.410894
C40	C	1.020106	-0.477989	-0.584053
C41	C	1.023108	-0.481845	-0.662568
C42	C	1.022108	-0.251494	-0.390911
C43	C	1.025963	-0.158832	-0.387120
C44	C	0.981747	-0.428103	-0.695366
C45	C	0.984565	-0.431733	-0.769139
C46	C	1.028748	-0.489101	-0.810112
C47	C	1.070110	-0.542848	-0.777309
C48	C	1.067288	-0.539222	-0.703537
C49	C	1.041771	-0.505907	-1.031184
C50	C	1.044591	-0.509528	-1.104961
C51	C	0.959044	-0.398413	-1.096786
C52	C	0.956230	-0.394788	-1.023013
C53	C	0.997589	-0.448538	-0.990216
N54	N	1.031631	-0.492811	-0.885520
N55	N	0.994702	-0.444832	-0.914810
C56	C	1.006086	-0.459870	-0.216277
C57	C	1.003230	-0.455786	-0.137759
H58	H	0.744379	-0.556538	-0.474275
O59	O	1.081847	-0.558196	-0.999303
C60	C	1.083456	-0.667107	-0.920995
C61	C	1.037982	-0.607946	-0.957070
H62	H	1.048011	-0.707332	-0.886830
H63	H	1.115503	-0.708783	-0.962927
H64	H	1.120531	-0.628953	-0.886481
H65	H	1.000867	-0.646034	-0.991580
H66	H	1.005983	-0.566268	-0.915101
O67	O	0.913365	-0.339091	-0.983109
C68	C	0.871068	-0.284304	-0.865838
C69	C	0.919653	-0.347408	-0.910945
H70	H	0.876124	-0.291019	-0.807484
H71	H	0.886770	-0.218386	-0.878061
H72	H	0.814296	-0.296831	-0.878582
H73	H	0.976439	-0.334958	-0.898226
H74	H	0.903892	-0.413305	-0.898714
O75	O	0.938888	-0.372400	-0.655462
C76	C	0.896590	-0.317603	-0.538194
C77	C	0.945174	-0.380712	-0.583297
H78	H	0.901645	-0.324313	-0.479840
H79	H	0.912295	-0.251687	-0.550421
H80	H	0.839819	-0.330128	-0.550939
H81	H	1.001960	-0.368263	-0.570578
H82	H	0.929410	-0.446607	-0.571063
H83	H	0.925371	-0.354653	-1.123497
H84	H	1.080573	-0.556245	-1.138320
H85	H	1.100974	-0.582978	-0.676834
H86	H	1.069539	-0.953621	-0.343484
O87	O	0.419811	-0.598811	-0.510209
C88	C	0.532577	-0.653673	-0.556936
C89	C	0.492657	-0.590498	-0.503227
H90	H	0.591481	-0.646961	-0.551319
H91	H	0.514918	-0.719568	-0.546593
H92	H	0.520879	-0.641218	-0.612699
H93	H	0.504336	-0.602876	-0.447443
H94	H	0.510321	-0.524624	-0.513631
O95	O	0.274755	-0.591576	-0.504137
C96	C	0.161141	-0.635294	-0.541261
C97	C	0.202113	-0.576152	-0.490941
H98	H	0.102402	-0.622856	-0.530600
H99	H	0.178330	-0.624268	-0.598266
H100	H	0.172362	-0.702590	-0.532137
H101	H	0.190913	-0.508833	-0.500001
H102	H	0.184918	-0.587250	-0.433953
H103	H	0.956711	-0.983424	-0.456143
H104	H	0.282453	-0.381393	-0.325388
H105	H	0.950882	-0.387973	-0.795840
O106	O	1.113125	-0.598536	-0.817033
C107	C	1.231979	-0.646038	-0.846359
C108	C	1.183340	-0.582936	-0.801318
H109	H	1.288759	-0.633436	-0.833680
H110	H	1.216330	-0.711949	-0.834070
H111	H	1.226856	-0.639409	-0.904715
H112	H	1.188438	-0.589489	-0.742949
H113	H	1.199003	-0.517050	-0.813666
O114	O	0.421482	-0.379518	-0.323747
C115	C	0.414676	-0.268764	-0.229644
C116	C	0.373776	-0.327958	-0.279990
H117	H	0.376124	-0.227051	-0.194264
H118	H	0.446052	-0.306808	-0.195618
H119	H	0.452142	-0.228570	-0.261819
H120	H	0.336273	-0.368165	-0.247871
H121	H	0.342446	-0.289865	-0.314018
O122	O	0.607097	-0.339200	-0.289327
C123	C	0.520918	-0.319003	-0.190039
C124	C	0.560809	-0.382155	-0.243791
H125	H	0.483474	-0.353707	-0.153218
H126	H	0.560103	-0.281189	-0.157826
H127	H	0.489607	-0.275351	-0.219316
H128	H	0.592120	-0.425861	-0.214570
H129	H	0.521588	-0.419909	-0.276001
H130	H	0.746127	-0.354720	-0.302690
H131	H	0.611094	-0.549920	-0.468662
