data_functionalizedCrystal
_audit_creation_method	'MofGen! by Chris Wilmer'
_symmetry_space_group_name_H-M	'P1'
_symmetry_Int_Tables_number	1
_symmetry_cell_setting	triclinic
loop_
_symmetry_equiv_pos_as_xyz
  x,y,z
_cell_length_a	10.654549
_cell_length_b	14.044190
_cell_length_c	9.130313
_cell_angle_alpha	89.990619
_cell_angle_beta	89.997498
_cell_angle_gamma	88.838277
loop_
_atom_site_label
_atom_site_type_symbol
_atom_site_fract_x
_atom_site_fract_y
_atom_site_fract_z
O1	O	1.681232	0.133230	-0.121784
O2	O	1.317030	0.145924	-0.121796
O3	O	1.493660	0.001556	-0.121761
O4	O	1.504602	0.277598	-0.121818
O5	O	1.493646	0.001552	0.121838
O6	O	1.317016	0.145920	0.121803
O7	O	1.681219	0.133226	0.121815
Cu8	Cu	1.499116	0.139572	0.144052
Cu9	Cu	1.499132	0.139577	-0.144032
O10	O	1.504589	0.277594	0.121780
C11	C	1.270131	0.144990	0.000002
C12	C	1.130408	0.142202	-0.000001
C13	C	0.928174	0.224576	-0.000012
C14	C	1.059458	0.227203	-0.000021
C15	C	1.070066	0.054567	0.000014
C16	C	0.938784	0.051941	0.000013
C17	C	1.488866	-0.033792	0.000042
C18	C	1.474587	-0.139112	0.000055
C19	C	1.549752	-0.388904	-0.000000
C20	C	1.448502	-0.331940	0.000007
C21	C	1.463019	-0.224641	0.000033
C22	C	1.535237	-0.496214	-0.000027
C23	C	1.728117	0.134160	0.000014
C24	C	1.867841	0.136948	0.000007
C25	C	1.509383	0.312942	-0.000026
C26	C	1.523662	0.418261	-0.000048
N27	N	1.499114	0.139568	0.346674
N28	N	1.499144	0.139574	-0.346655
C29	C	1.577357	0.075670	0.423341
C30	C	1.577369	0.075670	0.576678
C31	C	1.420892	0.203476	0.576667
C32	C	1.420874	0.203470	0.423333
H33	H	1.350916	-0.363757	-0.000005
H34	H	1.641081	0.023636	0.639096
H35	H	0.870415	0.293794	-0.000018
H36	H	0.889660	-0.019420	0.000024
O37	O	1.666100	-0.350842	-0.000167
C38	C	1.680540	-0.294202	-0.126329
H39	H	1.584202	-0.270332	-0.168403
H40	H	1.737736	-0.229010	-0.097924
H41	H	1.731357	-0.337463	-0.214674
H42	H	1.127844	-0.014642	0.000022
O43	O	1.653385	0.013501	0.349101
C44	C	1.722467	-0.042882	0.449658
H45	H	1.670833	-0.044310	0.558970
H46	H	1.733152	-0.118506	0.405381
H47	H	1.819278	-0.011426	0.465936
O48	O	1.345044	0.265590	0.348690
C49	C	1.418895	0.324596	0.259988
H50	H	1.513003	0.287504	0.237013
H51	H	1.368109	0.339229	0.152167
H52	H	1.435289	0.394767	0.319053
O53	O	1.117866	0.312406	0.000030
C54	C	1.027093	0.386866	-0.000015
H55	H	0.935065	0.359686	0.046111
H56	H	1.061312	0.447992	0.070696
H57	H	1.011500	0.413131	-0.116886
O58	O	1.344836	0.265421	0.651302
C59	C	1.261608	0.214077	0.740008
H60	H	1.303355	0.140201	0.762992
H61	H	1.246177	0.253534	0.847824
H62	H	1.167996	0.206978	0.680941
