data_functionalizedCrystal
_audit_creation_method	'MofGen! by Chris Wilmer'
_symmetry_space_group_name_H-M	'P1'
_symmetry_Int_Tables_number	1
_symmetry_cell_setting	triclinic
loop_
_symmetry_equiv_pos_as_xyz
  x,y,z
_cell_length_a	12.811438
_cell_length_b	12.837943
_cell_length_c	11.892277
_cell_angle_alpha	93.957940
_cell_angle_beta	88.922097
_cell_angle_gamma	89.412034
loop_
_atom_site_label
_atom_site_type_symbol
_atom_site_fract_x
_atom_site_fract_y
_atom_site_fract_z
O1	O	1.390097	0.124732	-0.236485
O2	O	1.088197	0.141877	-0.205540
O3	O	1.232453	-0.017584	-0.220327
O4	O	1.245841	0.284193	-0.221698
O5	O	1.245504	-0.005784	-0.033663
O6	O	1.101248	0.153678	-0.018876
O7	O	1.403148	0.136533	-0.049820
Zn8	Zn	1.254270	0.146979	-0.004711
Zn9	Zn	1.237075	0.131431	-0.250649
O10	O	1.258892	0.295994	-0.035033
C11	C	1.055812	0.147178	-0.108220
C12	C	0.939871	0.145381	-0.096336
C13	C	0.783571	0.149280	0.022158
C14	C	0.892508	0.150970	0.010997
C15	C	0.878288	0.138105	-0.192515
C16	C	0.769350	0.136415	-0.181355
C17	C	0.721996	0.142001	-0.074014
C18	C	0.613056	0.140304	-0.062855
C19	C	0.598838	0.127447	-0.266366
C20	C	0.707775	0.129136	-0.277527
C21	C	1.234455	-0.050295	-0.126534
C22	C	1.220965	-0.165344	-0.125159
C23	C	1.435533	0.131231	-0.147143
C24	C	1.551473	0.133028	-0.159034
N25	N	1.266013	0.157589	0.163135
C26	C	1.256890	0.328704	-0.128829
C27	C	1.270379	0.443753	-0.130211
C28	C	1.108211	0.685056	-0.113609
C29	C	1.120880	0.793155	-0.114908
C30	C	1.308386	0.768050	-0.134115
C31	C	1.295717	0.659952	-0.132817
C32	C	1.195626	0.618459	-0.122562
C33	C	1.182958	0.510358	-0.121255
C34	C	1.370462	0.485256	-0.140470
C35	C	1.383132	0.593354	-0.141769
N36	N	1.225340	0.120812	-0.418496
C37	C	1.143511	0.046923	0.412388
C38	C	1.151744	0.054346	0.529883
C39	C	1.290705	0.179863	0.515622
C40	C	1.282473	0.172440	0.398127
C41	C	1.208874	0.105966	0.346515
C42	C	1.200647	0.098539	0.229017
C43	C	1.339603	0.224060	0.214759
C44	C	1.347836	0.231483	0.332253
H45	H	0.942639	0.156900	0.089311
Br46	Br	1.390557	0.270096	0.585690
Br47	Br	0.972380	0.628740	-0.099668
Br48	Br	1.047123	0.454047	-0.107330
H49	H	0.548691	0.121523	-0.344677
Br50	Br	0.772052	0.121556	-0.423196
H51	H	1.140721	0.044411	0.186996
Br52	Br	1.428326	0.304185	0.125351
Br53	Br	1.063028	-0.025783	0.619282
H54	H	1.389881	0.801858	-0.142394
H55	H	0.745014	0.153835	0.109559
Br56	Br	1.043657	-0.043317	0.342334
Br57	Br	0.942573	0.130526	-0.338180
Br58	Br	1.447706	0.321702	0.402310
H59	H	1.464624	0.627153	-0.150113
Br60	Br	0.548790	0.147876	0.082819
H61	H	1.049698	0.847375	-0.107619
H62	H	1.441642	0.431020	-0.147758
