data_functionalizedCrystal
_audit_creation_method	'MofGen! by Chris Wilmer'
_symmetry_space_group_name_H-M	'P1'
_symmetry_Int_Tables_number	1
_symmetry_cell_setting	triclinic
loop_
_symmetry_equiv_pos_as_xyz
  x,y,z
_cell_length_a	12.759401
_cell_length_b	19.077068
_cell_length_c	12.759393
_cell_angle_alpha	92.260983
_cell_angle_beta	89.982620
_cell_angle_gamma	92.327081
loop_
_atom_site_label
_atom_site_type_symbol
_atom_site_fract_x
_atom_site_fract_y
_atom_site_fract_z
Zn1	Zn	1.589350	-0.280154	-0.610733
Zn2	Zn	2.089350	0.219846	-0.110733
Zn3	Zn	1.582149	-0.397870	-0.442092
Zn4	Zn	2.082149	0.102130	0.057908
Zn5	Zn	1.413653	-0.280191	-0.435075
Zn6	Zn	1.913653	0.219809	0.064925
Zn7	Zn	1.406545	-0.397816	-0.617730
Zn8	Zn	1.906545	0.102184	-0.117730
O9	O	1.497924	-0.339008	-0.526407
O10	O	1.997924	0.160992	-0.026407
O11	O	1.735415	-0.295777	-0.588371
O12	O	2.235415	0.204223	-0.088371
O13	O	1.559758	-0.382298	-0.294142
O14	O	2.059758	0.117702	0.205858
O15	O	1.442948	-0.181696	-0.452511
O16	O	1.942948	0.318304	0.047489
O17	O	1.730124	-0.382262	-0.464471
O18	O	2.230124	0.117738	0.035529
O19	O	1.572031	-0.181668	-0.581567
O20	O	2.072031	0.318332	-0.081567
O21	O	1.435965	-0.295840	-0.288987
O22	O	1.935965	0.204160	0.211013
O23	O	1.265689	-0.295787	-0.459296
O24	O	1.765689	0.204213	0.040704
O25	O	1.430833	-0.382169	-0.763821
O26	O	1.930833	0.117831	-0.263821
O27	O	1.260467	-0.382205	-0.593492
O28	O	1.760467	0.117795	-0.093492
O29	O	1.565139	-0.295724	-0.758680
O30	O	2.065139	0.204276	-0.258680
O31	O	1.552866	-0.496353	-0.471256
O32	O	2.052866	0.003647	0.028744
O33	O	1.423851	-0.496313	-0.600296
O34	O	1.923851	0.003687	-0.100296
C35	C	1.224957	-0.338995	-0.526392
C36	C	1.724957	0.161005	-0.026392
C37	C	1.108180	-0.339006	-0.526412
C38	C	1.608180	0.160994	-0.026412
C39	C	1.050622	-0.384076	-0.596181
C40	C	1.550622	0.115924	-0.096181
C41	C	0.940897	-0.384085	-0.596193
C42	C	1.440897	0.115915	-0.096193
C43	C	0.946299	-0.293952	-0.456658
C44	C	1.446299	0.206048	0.043342
C45	C	1.056021	-0.293940	-0.456652
C46	C	1.556021	0.206060	0.043348
C47	C	1.047503	-0.436116	-0.676738
C48	C	1.547503	0.063884	-0.176738
C49	C	0.937778	-0.436125	-0.676750
C50	C	1.437778	0.063875	-0.176750
C51	C	1.486834	-0.521871	-0.537320
C52	C	1.986834	-0.021871	-0.037320
C53	C	1.482186	-0.600101	-0.542023
C54	C	1.982186	-0.100101	-0.042023
C55	C	1.547226	-0.636851	-0.477104
C56	C	2.047226	-0.136851	0.022896
C57	C	1.542860	-0.710356	-0.481534
C58	C	2.042860	-0.210356	0.018466
C59	C	1.473449	-0.747109	-0.550879
C60	C	1.973449	-0.247109	-0.050879
C61	C	1.408407	-0.710354	-0.615805
C62	C	1.908407	-0.210354	-0.115805
C63	C	1.412778	-0.636850	-0.611380
C64	C	1.912778	-0.136850	-0.111380
C65	C	1.453171	-0.966942	-0.571318
C66	C	1.953171	-0.466942	-0.071318
C67	C	1.448802	-1.040451	-0.575736
C68	C	1.948802	-0.540451	-0.075736
C69	C	1.583258	-1.040447	-0.441466
C70	C	2.083258	-0.540447	0.058534
C71	C	1.587619	-0.966942	-0.437042
C72	C	2.087619	-0.466942	0.062958
C73	C	1.522580	-0.930193	-0.501972
C74	C	2.022580	-0.430193	-0.001972
N75	N	1.468983	-0.822243	-0.555406
N76	N	1.968983	-0.322243	-0.055406
N77	N	1.527053	-0.855061	-0.497449
N78	N	2.027053	-0.355061	0.002551
C79	C	1.771956	-0.339021	-0.526423
C80	C	2.271956	0.160979	-0.026423
C81	C	1.888733	-0.339027	-0.526430
C82	C	2.388733	0.160973	-0.026430
C83	C	1.497996	-0.338936	-0.800437
C84	C	1.997996	0.161064	-0.300437
C85	C	1.498027	-0.338906	-0.917212
C86	C	1.998027	0.161094	-0.417212
C87	C	1.509086	-0.155431	-0.515476
C88	C	2.009086	0.344569	-0.015476
C89	C	1.513842	-0.077201	-0.510817
C90	C	2.013842	0.422799	-0.010817
C91	C	1.433597	-0.293879	-0.969395
C92	C	1.933597	0.206121	-0.469395
C93	C	1.433630	-0.293858	-1.079118
C94	C	1.933630	0.206142	-0.579118
C95	C	1.562533	-0.383893	-1.084465
C96	C	2.062533	0.116107	-0.584465
C97	C	1.562493	-0.383917	-0.974744
C98	C	2.062493	0.116083	-0.474744
C99	C	1.359180	-0.241895	-0.966308
C100	C	1.859180	0.258105	-0.466308
C101	C	1.359213	-0.241874	-1.076031
C102	C	1.859213	0.258126	-0.576031
C103	C	1.497915	-0.339028	-0.253441
C104	C	1.997915	0.160972	0.246559
C105	C	1.498100	-0.338861	-0.136655
C106	C	1.998100	0.161139	0.363345
H107	H	1.102882	-0.257235	-0.399845
H108	H	1.602882	0.242765	0.100155
F109	F	1.374911	-1.079566	-0.649535
F110	F	1.874911	-0.579566	-0.149535
H111	H	1.359817	-0.606929	-0.664245
H112	H	1.859817	-0.106929	-0.164245
H113	H	0.904696	-0.490621	-0.658076
H114	H	1.404696	0.009379	-0.158076
F115	F	1.612088	-0.749464	-0.412441
F116	F	2.112088	-0.249464	0.087559
F117	F	1.383949	-0.927841	-0.640422
F118	F	1.883949	-0.427841	-0.140422
F119	F	0.890779	-0.245992	-0.382419
F120	F	1.390779	0.254008	0.117581
F121	F	1.621098	-0.597741	-0.403291
F122	F	2.121098	-0.097741	0.096709
H123	H	1.351895	-0.740285	-0.672271
H124	H	1.851895	-0.240285	-0.172271
H125	H	1.384318	-0.187356	-1.102569
H126	H	1.884318	0.312644	-0.602569
H127	H	1.614943	-0.420592	-0.932262
H128	H	2.114943	0.079408	-0.432262
H129	H	1.644139	-0.937019	-0.380577
H130	H	2.144139	-0.437019	0.119423
H131	H	1.078186	-0.421579	-0.757275
H132	H	1.578186	0.078421	-0.257275
H133	H	1.615019	-0.420538	-1.131321
H134	H	2.115019	0.079462	-0.631321
F135	F	1.251651	-0.260976	-0.928523
F136	F	1.751651	0.239024	-0.428523
F137	F	1.401379	-0.174230	-0.917795
F138	F	1.901379	0.325770	-0.417795
F139	F	1.087887	-0.503778	-0.642586
F140	F	1.587887	-0.003778	-0.142586
H141	H	1.280739	-0.261386	-1.111224
H142	H	1.780739	0.238614	-0.611224
F143	F	1.652476	-1.079563	-0.372373
F144	F	2.152476	-0.579563	0.127627
F145	F	0.894866	-0.410693	-0.776331
F146	F	1.394866	0.089307	-0.276331
