data_functionalizedCrystal
_audit_creation_method	'MofGen! by Chris Wilmer'
_symmetry_space_group_name_H-M	'P1'
_symmetry_Int_Tables_number	1
_symmetry_cell_setting	triclinic
loop_
_symmetry_equiv_pos_as_xyz
  x,y,z
_cell_length_a	14.519709
_cell_length_b	14.519709
_cell_length_c	14.421503
_cell_angle_alpha	89.995739
_cell_angle_beta	89.997167
_cell_angle_gamma	96.319855
loop_
_atom_site_label
_atom_site_type_symbol
_atom_site_fract_x
_atom_site_fract_y
_atom_site_fract_z
O1	O	1.223874	-0.120877	-0.076993
O2	O	1.723874	0.379123	0.423007
O3	O	0.955397	-0.135114	-0.077022
O4	O	1.455397	0.364886	0.422978
O5	O	1.096754	0.006243	-0.076998
O6	O	1.596754	0.506243	0.423002
O7	O	1.082518	-0.262234	-0.077016
O8	O	1.582518	0.237766	0.422984
O9	O	1.096728	0.006219	0.077225
O10	O	1.596728	0.506219	0.577225
O11	O	0.955372	-0.135137	0.077202
O12	O	1.455372	0.364863	0.577202
O13	O	1.223848	-0.120901	0.077230
O14	O	1.723848	0.379099	0.577230
Cu15	Cu	1.089608	-0.128021	0.091298
Cu16	Cu	1.589608	0.371979	0.591298
Cu17	Cu	1.089638	-0.127993	-0.091089
Cu18	Cu	1.589638	0.372007	0.408911
O19	O	1.082492	-0.262258	0.077207
O20	O	1.582492	0.237742	0.577207
C21	C	0.921025	-0.134462	0.000087
C22	C	1.421025	0.365538	0.500087
C23	C	0.818643	-0.132474	0.000076
C24	C	1.318643	0.367526	0.500076
C25	C	1.096078	0.040591	0.000114
C26	C	1.596078	0.540591	0.500114
C27	C	1.094090	0.142972	0.000114
C28	C	1.594090	0.642972	0.500114
C29	C	0.443748	-0.125154	0.000119
C30	C	0.943748	0.374846	0.500119
C31	C	0.548056	-0.127187	0.000106
C32	C	1.048056	0.372813	0.500106
C33	C	0.631192	-0.128814	0.000096
C34	C	1.131192	0.371186	0.500096
C35	C	0.735507	-0.130847	0.000086
C36	C	1.235507	0.369153	0.500086
C37	C	1.258221	-0.121553	0.000120
C38	C	1.758221	0.378447	0.500120
C39	C	1.360602	-0.123541	0.000125
C40	C	1.860602	0.376459	0.500125
N41	N	1.089593	-0.128040	0.219579
N42	N	1.589593	0.371960	0.719579
C43	C	1.083168	-0.296606	0.000093
C44	C	1.583168	0.203394	0.500093
C45	C	1.085156	-0.398987	0.000087
C46	C	1.585156	0.101013	0.500087
C47	C	1.086770	0.517868	0.000089
C48	C	1.586770	1.017868	0.500089
C49	C	1.088803	0.413560	0.000096
C50	C	1.588803	0.913560	0.500096
C51	C	1.090430	0.330423	0.000102
C52	C	1.590430	0.830423	0.500102
C53	C	1.092463	0.226109	0.000108
C54	C	1.592463	0.726109	0.500108
C55	C	1.024214	-0.193379	0.469222
C56	C	1.524214	0.306621	0.969222
C57	C	1.107575	-0.211417	0.531032
C58	C	1.607575	0.288583	1.031032
C59	C	1.089612	-0.128022	0.408741
C60	C	1.589612	0.371978	0.908741
C61	C	1.006270	-0.110008	0.531024
C62	C	1.506270	0.389992	1.031024
C63	C	1.089624	-0.128006	0.591462
C64	C	1.589624	0.371994	1.091462
C65	C	1.173015	-0.146102	0.469190
C66	C	1.673015	0.353898	0.969190
C67	C	1.071655	-0.044657	0.469177
C68	C	1.571655	0.455343	0.969177
C69	C	1.155077	-0.062660	0.530959
C70	C	1.655077	0.437340	1.030959
C71	C	1.089604	-0.128033	0.303480
C72	C	1.589604	0.371967	0.803480
C73	C	1.089641	-0.127994	0.696721
C74	C	1.589641	0.372006	1.196721
N75	N	1.089644	-0.127984	0.780630
N76	N	1.589644	0.372016	1.280630
H77	H	0.968966	-0.248692	0.442115
H78	H	1.468966	0.251308	0.942115
H79	H	1.122775	-0.281910	0.558202
H80	H	1.622775	0.218090	1.058202
N81	N	1.261468	-0.165310	0.435286
N82	N	1.761468	0.334690	0.935286
N83	N	1.332618	-0.112769	0.455699
N84	N	1.832618	0.387231	0.955699
H85	H	1.395087	-0.126338	0.431755
H86	H	1.895087	0.373662	0.931755
H87	H	1.210447	-0.007379	0.557896
H88	H	1.710447	0.492621	1.057896
N89	N	1.052548	0.043749	0.435073
N90	N	1.552548	0.543749	0.935073
N91	N	0.977675	0.074073	0.454849
N92	N	1.477675	0.574073	0.954849
H93	H	0.964170	0.136511	0.430763
H94	H	1.464170	0.636511	0.930763
H95	H	0.935784	-0.094780	0.558188
H96	H	1.435784	0.405220	1.058188
