data_functionalizedCrystal
_audit_creation_method	'MofGen! by Chris Wilmer'
_symmetry_space_group_name_H-M	'P1'
_symmetry_Int_Tables_number	1
_symmetry_cell_setting	triclinic
loop_
_symmetry_equiv_pos_as_xyz
  x,y,z
_cell_length_a	10.723024
_cell_length_b	14.519731
_cell_length_c	9.798715
_cell_angle_alpha	89.995867
_cell_angle_beta	89.996609
_cell_angle_gamma	84.078361
loop_
_atom_site_label
_atom_site_type_symbol
_atom_site_fract_x
_atom_site_fract_y
_atom_site_fract_z
O1	O	1.655991	0.129346	-0.113486
O2	O	2.155991	0.629346	0.386514
O3	O	1.292724	0.141727	-0.113491
O4	O	1.792724	0.641727	0.386509
O5	O	1.483975	0.001349	-0.113475
O6	O	1.983975	0.501349	0.386525
O7	O	1.464740	0.269725	-0.113501
O8	O	1.964740	0.769725	0.386499
O9	O	1.483961	0.001348	0.113507
O10	O	1.983961	0.501348	0.613507
O11	O	1.292710	0.141727	0.113492
O12	O	1.792710	0.641727	0.613492
O13	O	1.655977	0.129346	0.113497
O14	O	2.155977	0.629346	0.613497
Zn15	Zn	1.474341	0.135536	0.149532
Zn16	Zn	1.974341	0.635536	0.649532
Zn17	Zn	1.474360	0.135537	-0.149526
Zn18	Zn	1.974360	0.635537	0.350474
O19	O	1.464726	0.269724	0.113482
O20	O	1.964726	0.769724	0.613482
C21	C	1.246226	0.140826	0.000000
C22	C	1.746226	0.640826	0.500000
C23	C	1.107697	0.138130	-0.000001
C24	C	1.607697	0.638130	0.499999
C25	C	1.483067	-0.033016	0.000016
C26	C	1.983067	0.466984	0.500016
C27	C	1.480366	-0.135410	0.000017
C28	C	1.980366	0.364590	0.500017
C29	C	1.031987	0.216679	-0.000010
C30	C	1.531987	0.716679	0.499990
C31	C	0.888810	0.213894	-0.000011
C32	C	1.388810	0.713894	0.499989
C33	C	1.478172	-0.218565	0.000013
C34	C	1.978172	0.281435	0.500013
C35	C	1.475429	-0.322888	0.000003
C36	C	1.975429	0.177112	0.500003
C37	C	1.473253	-0.406038	-0.000006
C38	C	1.973253	0.093962	0.499994
C39	C	1.470511	-0.510367	-0.000014
C40	C	1.970511	-0.010367	0.499986
C41	C	1.702475	0.130247	0.000003
C42	C	2.202475	0.630247	0.500003
C43	C	1.841005	0.132943	-0.000004
C44	C	2.341005	0.632943	0.499996
C45	C	1.465634	0.304089	-0.000013
C46	C	1.965634	0.804089	0.499987
C47	C	1.468335	0.406483	-0.000023
C48	C	1.968335	0.906483	0.499977
N49	N	1.474337	0.135535	0.353632
N50	N	1.974337	0.635535	0.853632
N51	N	1.474373	0.135530	-0.353626
N52	N	1.974373	0.635530	0.146374
C53	C	1.554641	0.076335	0.421415
C54	C	2.054641	0.576335	0.921415
C55	C	1.554661	0.076331	0.578578
C56	C	2.054661	0.576331	1.078578
H57	H	1.073169	0.285988	-0.000008
H58	H	1.573169	0.785988	0.499992
N59	N	0.807227	0.298264	-0.000031
N60	N	1.307227	0.798264	0.499969
N61	N	0.811847	0.354752	-0.095713
N62	N	1.311847	0.854752	0.404287
H63	H	0.754227	0.414342	-0.095728
H64	H	1.254227	0.914342	0.404272
H65	H	0.906052	0.065695	-0.000006
H66	H	1.406052	0.565695	0.499994
H67	H	1.066515	0.068821	-0.000030
H68	H	1.566515	0.568821	0.499970
N69	N	1.388102	0.199130	0.426759
N70	N	1.888102	0.699130	0.926759
N71	N	1.312606	0.254790	0.363112
N72	N	1.812606	0.754790	0.863112
H73	H	1.251698	0.299706	0.414754
H74	H	1.751698	0.799706	0.914754
H75	H	1.623374	0.025649	0.363098
H76	H	2.123374	0.525649	0.863098
N77	N	1.640903	0.012749	0.651713
N78	N	2.140903	0.512749	1.151713
N79	N	1.640794	0.012834	0.779279
N80	N	2.140794	0.512834	1.279279
H81	H	1.701701	-0.032075	0.830936
H82	H	2.201701	0.467925	1.330936
H83	H	1.405623	0.186221	0.588092
H84	H	1.905623	0.686221	1.088092
