data_functionalizedCrystal
_audit_creation_method	'MofGen! by Chris Wilmer'
_symmetry_space_group_name_H-M	'P1'
_symmetry_Int_Tables_number	1
_symmetry_cell_setting	triclinic
loop_
_symmetry_equiv_pos_as_xyz
  x,y,z
_cell_length_a	17.699097
_cell_length_b	10.540539
_cell_length_c	16.176319
_cell_angle_alpha	90.004634
_cell_angle_beta	90.011012
_cell_angle_gamma	83.906961
loop_
_atom_site_label
_atom_site_type_symbol
_atom_site_fract_x
_atom_site_fract_y
_atom_site_fract_z
O1	O	1.005117	0.160601	0.068811
O2	O	1.505117	0.660601	0.568811
O3	O	0.784875	0.181467	0.068798
O4	O	1.284875	0.681467	0.568798
O5	O	0.900021	-0.013764	0.068804
O6	O	1.400021	0.486236	0.568804
O7	O	0.889971	0.355832	0.068805
O8	O	1.389971	0.855832	0.568805
O9	O	0.900005	-0.013776	-0.068689
O10	O	1.400005	0.486224	0.431311
O11	O	0.784859	0.181455	-0.068696
O12	O	1.284859	0.681455	0.431304
O13	O	1.005101	0.160588	-0.068682
O14	O	1.505101	0.660588	0.431318
Cu15	Cu	0.894978	0.171020	-0.081243
Cu16	Cu	1.394978	0.671020	0.418757
Cu17	Cu	0.894997	0.171035	0.081359
Cu18	Cu	1.394997	0.671035	0.581359
O19	O	0.889955	0.355820	-0.068688
O20	O	1.389955	0.855820	0.431312
C21	C	0.756666	0.180710	0.000049
C22	C	1.256666	0.680710	0.500049
C23	C	0.672633	0.178459	0.000044
C24	C	1.172633	0.678459	0.500044
C25	C	0.156834	0.164664	0.075025
C26	C	0.656834	0.664664	0.575025
C27	C	0.235792	0.166771	0.075021
C28	C	0.735792	0.666771	0.575021
C29	C	0.275256	0.167820	0.000070
C30	C	0.775256	0.667820	0.500070
C31	C	0.235759	0.166749	-0.074882
C32	C	0.735759	0.666749	0.425118
C33	C	0.156803	0.164633	-0.074877
C34	C	0.656803	0.664633	0.425123
C35	C	0.554179	0.175281	-0.074904
C36	C	1.054179	0.675281	0.425096
C37	C	0.633140	0.177401	-0.074903
C38	C	1.133140	0.677401	0.425097
C39	C	0.633167	0.177419	0.074994
C40	C	1.133167	0.677419	0.574994
C41	C	0.554212	0.175303	0.074999
C42	C	1.054212	0.675303	0.574999
C43	C	0.514722	0.174225	0.000048
C44	C	1.014722	0.674225	0.500048
C45	C	0.429107	0.171938	0.000053
C46	C	0.929107	0.671938	0.500053
C47	C	0.360869	0.170116	0.000064
C48	C	0.860869	0.670116	0.500064
C49	C	0.899259	-0.061059	0.000059
C50	C	1.399259	0.438941	0.500059
C51	C	0.897004	-0.201966	0.000063
C52	C	1.397004	0.298034	0.500063
C53	C	0.810606	-0.383820	0.000366
C54	C	1.310606	0.116180	0.500366
C55	C	0.812891	-0.237243	0.000057
C56	C	1.312891	0.262757	0.500057
C57	C	0.937474	-0.264368	-0.078450
C58	C	1.437474	0.235632	0.421550
C59	C	0.934603	-0.410861	-0.078516
C60	C	1.434603	0.089139	0.421484
C61	C	0.936332	-0.411396	0.077839
C62	C	1.436332	0.088604	0.577839
C63	C	0.937107	-0.264428	0.078877
C64	C	1.437107	0.235572	0.578877
C65	C	1.033310	0.161345	0.000068
C66	C	1.533310	0.661345	0.500068
C67	C	1.117342	0.163597	0.000079
C68	C	1.617342	0.663597	0.500079
C69	C	0.890717	0.403115	0.000059
C70	C	1.390717	0.903115	0.500059
C71	C	0.892972	0.544022	0.000060
C72	C	1.392972	1.044022	0.500060
N73	N	0.894971	0.171009	-0.195608
N74	N	1.394971	0.671009	0.304392
C75	C	0.945973	0.084596	-0.238870
C76	C	1.445973	0.584596	0.261130
C77	C	0.945976	0.084595	-0.325417
C78	C	1.445976	0.584595	0.174583
C79	C	0.894981	0.171014	-0.368701
C80	C	1.394981	0.671014	0.131299
C81	C	0.843974	0.257431	-0.325433
C82	C	1.343974	0.757431	0.174567
C83	C	0.843967	0.257425	-0.238888
C84	C	1.343967	0.757425	0.261112
C85	C	0.844000	0.257455	-0.674462
C86	C	1.344000	0.757455	-0.174462
C87	C	0.844012	0.257456	-0.761013
C88	C	1.344012	0.757456	-0.261013
C89	C	0.946009	0.084624	-0.760990
C90	C	1.446009	0.584624	-0.260990
C91	C	0.946003	0.084619	-0.674445
C92	C	1.446003	0.584619	-0.174445
C93	C	0.894993	0.171031	-0.631185
C94	C	1.394993	0.671031	-0.131185
C95	C	0.894988	0.171030	-0.537341
C96	C	1.394988	0.671030	-0.037341
C97	C	0.894989	0.171022	-0.462543
C98	C	1.394989	0.671022	0.037457
N99	N	0.895011	0.171036	0.195724
N100	N	1.395011	0.671036	0.695724
H101	H	0.665269	0.178254	-0.135941
H102	H	1.165269	0.678254	0.364059
C103	C	1.002115	-0.010443	-0.808584
C104	C	1.502115	0.489557	-0.308584
N105	N	1.044374	-0.082045	-0.844430
N106	N	1.544374	0.417955	-0.344430
H107	H	0.522083	0.174456	0.136032
H108	H	1.022083	0.674456	0.636032
C109	C	0.899562	-0.453339	0.158232
C110	C	1.399562	0.046661	0.658232
N111	N	0.871857	-0.484928	0.218781
N112	N	1.371857	0.015072	0.718781
H113	H	0.802449	0.327791	-0.360680
H114	H	1.302449	0.827791	0.139320
H115	H	0.802435	0.327790	-0.203665
H116	H	1.302435	0.827790	0.296335
H117	H	0.777508	-0.413430	-0.055625
H118	H	1.277508	0.086570	0.444375
C119	C	0.765720	-0.421646	0.076423
C120	C	1.265720	0.078354	0.576423
N121	N	0.731911	-0.450149	0.133709
N122	N	1.231911	0.049851	0.633709
H123	H	0.267898	0.167594	-0.135908
H124	H	0.767898	0.667594	0.364092
C125	C	0.769554	-0.180046	-0.076111
C126	C	1.269554	0.319954	0.423889
N127	N	0.736912	-0.136966	-0.133485
N128	N	1.236912	0.363034	0.366515
C129	C	0.894171	-0.448229	-0.157804
C130	C	1.394171	0.051771	0.342196
N131	N	0.863713	-0.476368	-0.217523
N132	N	1.363713	0.023632	0.282477
H133	H	0.665329	0.178291	0.136023
H134	H	1.165329	0.678291	0.636023
C135	C	0.113363	0.163464	-0.157323
C136	C	0.613363	0.663464	0.342677
N137	N	0.080644	0.162581	-0.219425
N138	N	0.580644	0.662581	0.280575
C139	C	0.787987	0.352675	-0.626887
C140	C	1.287987	0.852675	-0.126887
N141	N	0.745830	0.424459	-0.591051
N142	N	1.245830	0.924459	-0.091051
H143	H	0.995096	-0.459931	-0.082074
H144	H	1.495096	0.040069	0.417926
C145	C	1.020918	-0.235664	-0.082402
C146	C	1.520918	0.264336	0.417598
N147	N	1.083766	-0.214033	-0.085381
N148	N	1.583766	0.285967	0.414619
H149	H	0.781047	-0.194055	0.056338
H150	H	1.281047	0.305945	0.556338
C151	C	1.019958	-0.233225	0.085286
C152	C	1.519958	0.266775	0.585286
N153	N	1.082366	-0.209728	0.090105
N154	N	1.582366	0.290272	0.590105
C155	C	0.897142	-0.208422	0.157347
C156	C	1.397142	0.291578	0.657347
N157	N	0.867033	-0.166242	0.216448
N158	N	1.367033	0.333758	0.716448
C159	C	0.899474	-0.206145	-0.157388
C160	C	1.399474	0.293855	0.342612
N161	N	0.870847	-0.162293	-0.216843
N162	N	1.370847	0.337707	0.283157
C163	C	1.018407	-0.476698	0.078562
C164	C	1.518407	0.023302	0.578562
N165	N	1.080222	-0.525891	0.079101
N166	N	1.580222	-0.025891	0.579101
H167	H	0.522037	0.174384	-0.135933
H168	H	1.022037	0.674384	0.364067
C169	C	1.002072	-0.010474	-0.191265
C170	C	1.502072	0.489526	0.308735
N171	N	1.044325	-0.082087	-0.155412
N172	N	1.544325	0.417913	0.344588
C173	C	1.002099	-0.010451	-0.626837
C174	C	1.502099	0.489549	-0.126837
N175	N	1.044350	-0.082065	-0.590980
N176	N	1.544350	0.417935	-0.090980
C177	C	0.113431	0.163509	0.157478
C178	C	0.613431	0.663509	0.657478
N179	N	0.080743	0.162632	0.219585
N180	N	0.580743	0.662632	0.719585
H181	H	0.987506	0.014230	-0.360640
H182	H	1.487506	0.514230	0.139360
C183	C	0.787906	0.352520	-0.808624
C184	C	1.287906	0.852520	-0.308624
N185	N	0.745648	0.424118	-0.844484
N186	N	1.245648	0.924118	-0.344484
H187	H	0.267943	0.167632	0.136049
H188	H	0.767943	0.667632	0.636049
