data_functionalizedCrystal
_audit_creation_method	'MofGen! by Chris Wilmer'
_symmetry_space_group_name_H-M	'P1'
_symmetry_Int_Tables_number	1
_symmetry_cell_setting	triclinic
loop_
_symmetry_equiv_pos_as_xyz
  x,y,z
_cell_length_a	8.597340
_cell_length_b	11.792241
_cell_length_c	7.088668
_cell_angle_alpha	96.929045
_cell_angle_beta	89.217760
_cell_angle_gamma	84.766049
loop_
_atom_site_label
_atom_site_type_symbol
_atom_site_fract_x
_atom_site_fract_y
_atom_site_fract_z
O1	O	2.067312	0.157356	-0.181568
O2	O	2.567312	0.657356	0.318432
O3	O	1.617247	0.175277	-0.107422
O4	O	2.117247	0.675277	0.392578
O5	O	1.853200	0.001099	-0.146308
O6	O	2.353200	0.501099	0.353692
O7	O	1.831359	0.331534	-0.142682
O8	O	2.331359	0.831534	0.357318
O9	O	1.824658	-0.019713	-0.459597
O10	O	2.324658	0.480287	0.040403
O11	O	1.588705	0.154465	-0.420711
O12	O	2.088705	0.654465	0.079289
O13	O	2.038770	0.136543	-0.494857
O14	O	2.538770	0.636543	0.005143
Cu15	Cu	1.811131	0.143604	-0.486390
Cu16	Cu	2.311131	0.643604	0.013610
Cu17	Cu	1.844886	0.168217	-0.115889
Cu18	Cu	2.344886	0.668217	0.384111
O19	O	1.802817	0.310721	-0.455972
O20	O	2.302817	0.810721	0.044028
C21	C	1.545358	0.164106	-0.254574
C22	C	2.045358	0.664106	0.245426
C23	C	1.373674	0.161812	-0.226290
C24	C	1.873674	0.661812	0.273710
C25	C	1.837557	-0.051592	-0.302725
C26	C	2.337557	0.448408	0.197275
C27	C	1.833450	-0.177588	-0.302047
C28	C	2.333450	0.322412	0.197953
C29	C	1.825901	-0.408267	-0.300771
C30	C	2.325901	0.091733	0.199229
C31	C	1.830096	-0.279900	-0.301480
C32	C	2.330096	0.220100	0.198520
C33	C	2.110660	0.147715	-0.347701
C34	C	2.610660	0.647715	0.152299
C35	C	2.282345	0.150010	-0.375973
C36	C	2.782345	0.650010	0.124027
C37	C	1.818460	0.363413	-0.299549
C38	C	2.318460	0.863413	0.200451
C39	C	1.822568	0.489410	-0.300216
C40	C	2.322568	0.989410	0.199784
N41	N	1.787402	0.126291	-0.746982
N42	N	2.287402	0.626291	-0.246982
N43	N	1.868628	0.185520	0.144701
N44	N	2.368628	0.685520	0.644701
H45	H	1.335498	0.141651	-0.525768
H46	H	1.835498	0.641651	-0.025768
H47	H	1.952779	0.246895	-0.787457
H48	H	2.452779	0.746895	-0.287457
H49	H	1.320514	0.170163	-0.076485
H50	H	1.820514	0.670163	0.423515
H51	H	1.703265	0.064914	-0.814817
H52	H	2.203265	0.564914	-0.314817
