data_functionalizedCrystal
_audit_creation_method	'MofGen! by Chris Wilmer'
_symmetry_space_group_name_H-M	'P1'
_symmetry_Int_Tables_number	1
_symmetry_cell_setting	triclinic
loop_
_symmetry_equiv_pos_as_xyz
  x,y,z
_cell_length_a	11.295483
_cell_length_b	10.654550
_cell_length_c	10.654550
_cell_angle_alpha	84.484931
_cell_angle_beta	85.865008
_cell_angle_gamma	94.141852
loop_
_atom_site_label
_atom_site_type_symbol
_atom_site_fract_x
_atom_site_fract_y
_atom_site_fract_z
O1	O	-0.098935	-1.676220	-0.168022
O2	O	-0.098957	-1.310743	-0.184827
O3	O	-0.098938	-1.501884	0.006314
O4	O	-0.098954	-1.485079	-0.359163
O5	O	0.099111	-1.485095	-0.010448
O6	O	0.099092	-1.293954	-0.201589
O7	O	0.099114	-1.659431	-0.184785
Cu8	Cu	0.117186	-1.475160	-0.194717
Cu9	Cu	-0.117030	-1.495014	-0.174894
O10	O	0.099095	-1.468290	-0.375925
C11	C	0.000065	-1.255551	-0.191974
C12	C	0.000057	-1.116108	-0.188281
N13	N	0.281921	-1.461204	-0.208659
N14	N	-0.281765	-1.508979	-0.160942
C15	C	0.531225	-1.609437	-0.060510
C16	C	0.655888	-1.598900	-0.071055
C17	C	0.655911	-1.429588	-0.240287
C18	C	0.531249	-1.440125	-0.229742
C19	C	0.468910	-1.530054	-0.139852
C20	C	0.344245	-1.540596	-0.129314
C21	C	0.344271	-1.371279	-0.298539
C22	C	0.468934	-1.360741	-0.309084
C23	C	0.000086	-1.492255	0.044731
C24	C	0.000084	-1.488564	0.184174
C25	C	0.000089	-1.714623	-0.177638
C26	C	0.000090	-1.854066	-0.181330
C27	C	0.000055	-1.036623	-0.300822
C28	C	0.000076	-0.905600	-0.297348
C29	C	0.000095	-0.933562	-0.068780
C30	C	0.000082	-1.064581	-0.072257
C31	C	0.000068	-1.477919	-0.414342
C32	C	0.000063	-1.481611	-0.553785
C33	C	0.000090	-1.601105	0.263659
C34	C	0.000075	-1.597629	0.394682
C35	C	0.000053	-1.369062	0.366720
C36	C	0.000059	-1.372539	0.235701
H37	H	0.293490	-1.613824	-0.056124
N38	N	0.000081	-1.719012	0.480413
H39	H	0.000098	-1.793035	0.427885
H40	H	0.073497	-1.716319	0.529178
N41	N	0.723102	-1.684532	0.014507
H42	H	0.701413	-1.671136	0.105617
H43	H	0.701358	-1.775583	0.000937
N44	N	0.000032	-1.243926	0.422296
H45	H	0.000033	-1.258797	0.517357
H46	H	0.073448	-1.188404	0.387079
H47	H	0.000043	-1.078571	-0.395297
N48	N	0.723158	-1.332585	-0.337218
H49	H	0.811586	-1.337955	-0.331849
H50	H	0.701376	-1.349702	-0.424612
H51	H	0.480468	-1.682669	0.012673
H52	H	0.000107	-1.695579	0.221711
N53	N	0.000044	-1.251151	0.149960
H54	H	0.000036	-1.177122	0.202480
H55	H	0.073463	-1.241390	0.088780
H56	H	0.519704	-1.287519	-0.382268
H57	H	0.293520	-1.306643	-0.363148
H58	H	0.000077	-0.840887	-0.388991
H59	H	0.000123	-0.891591	0.025683
N60	N	0.000098	-1.150323	0.049132
H61	H	0.000110	-1.097803	0.123161
H62	H	-0.073322	-1.211510	0.058887
