data_functionalizedCrystal
_audit_creation_method	'MofGen! by Chris Wilmer'
_symmetry_space_group_name_H-M	'P1'
_symmetry_Int_Tables_number	1
_symmetry_cell_setting	triclinic
loop_
_symmetry_equiv_pos_as_xyz
  x,y,z
_cell_length_a	19.077399
_cell_length_b	19.076808
_cell_length_c	19.077222
_cell_angle_alpha	94.702520
_cell_angle_beta	85.324226
_cell_angle_gamma	94.711600
loop_
_atom_site_label
_atom_site_type_symbol
_atom_site_fract_x
_atom_site_fract_y
_atom_site_fract_z
Zn1	Zn	1.052958	-0.224084	0.346737
Zn2	Zn	1.552958	0.275916	0.846737
Zn3	Zn	1.052897	-0.346689	0.224112
Zn4	Zn	1.552897	0.153311	0.724112
Zn5	Zn	0.939481	-0.233195	0.233236
Zn6	Zn	1.439481	0.266805	0.733236
Zn7	Zn	0.930305	-0.346681	0.346684
Zn8	Zn	1.430305	0.153319	0.846684
O9	O	0.993910	-0.287662	0.287692
O10	O	1.493910	0.212338	0.787692
O11	O	1.151746	-0.236538	0.326674
O12	O	1.651746	0.263462	0.826674
O13	O	1.041667	-0.335451	0.126525
O14	O	1.541667	0.164549	0.626525
O15	O	0.958399	-0.133182	0.252133
O16	O	1.458399	0.366818	0.752133
O17	O	1.151702	-0.326616	0.236582
O18	O	1.651702	0.173384	0.736582
O19	O	1.041771	-0.126487	0.335521
O20	O	1.541771	0.373513	0.835521
O21	O	0.958340	-0.252067	0.133228
O22	O	1.458340	0.247933	0.633228
O23	O	0.839467	-0.252059	0.252081
O24	O	1.339467	0.247941	0.752081
O25	O	0.942760	-0.326602	0.445488
O26	O	1.442760	0.173398	0.945488
O27	O	0.832726	-0.335437	0.335431
O28	O	1.332726	0.164563	0.835431
O29	O	1.032873	-0.236530	0.445527
O30	O	1.532873	0.263470	0.945527
O31	O	1.032770	-0.445493	0.236531
O32	O	1.532770	0.054507	0.736531
O33	O	0.942701	-0.445487	0.326584
O34	O	1.442701	0.054513	0.826584
C35	C	0.810480	-0.294736	0.294741
C36	C	1.310480	0.205264	0.794741
C37	C	0.732006	-0.297779	0.297772
C38	C	1.232006	0.202221	0.797772
C39	C	0.698628	-0.255727	0.255878
C40	C	1.198628	0.244273	0.755878
C41	C	0.624894	-0.258592	0.258726
C42	C	1.124894	0.241408	0.758726
C43	C	0.584539	-0.303506	0.303473
C44	C	1.084539	0.196494	0.803473
C45	C	0.617921	-0.345562	0.345369
C46	C	1.117921	0.154438	0.845369
C47	C	0.691655	-0.342700	0.342517
C48	C	1.191655	0.157300	0.842517
C49	C	0.363645	-0.316730	0.316645
C50	C	0.863645	0.183270	0.816645
C51	C	0.289907	-0.319587	0.319496
C52	C	0.789907	0.180413	0.819496
C53	C	0.296885	-0.232618	0.232851
C54	C	0.796885	0.267382	0.732851
C55	C	0.370619	-0.229757	0.230006
C56	C	0.870619	0.270243	0.730006
C57	C	0.403995	-0.271816	0.271899
C58	C	0.903995	0.228184	0.771899
N59	N	0.509170	-0.306433	0.306387
N60	N	1.009170	0.193567	0.806387
N61	N	0.479363	-0.268892	0.268981
N62	N	0.979363	0.231108	0.768981
C63	C	0.986752	-0.471108	0.280576
C64	C	1.486752	0.028892	0.780576
C65	C	0.983753	-0.549583	0.277553
C66	C	1.483753	-0.049583	0.777553
C67	C	1.025716	-0.582905	0.319586
C68	C	1.525716	-0.082905	0.819586
C69	C	1.022896	-0.656642	0.316747
C70	C	1.522896	-0.156642	0.816747
C71	C	0.978115	-0.697054	0.271870
C72	C	1.478115	-0.197054	0.771870
C73	C	0.936148	-0.663727	0.229835
C74	C	1.436148	-0.163727	0.729835
C75	C	0.938965	-0.589993	0.232678
C76	C	1.438965	-0.089993	0.732678
C77	C	0.965035	-0.917958	0.258710
C78	C	1.465035	-0.417958	0.758710
C79	C	0.962223	-0.991698	0.255868
C80	C	1.462223	-0.491698	0.755868
C81	C	1.048970	-0.984607	0.342781
C82	C	1.548970	-0.484607	0.842781
C83	C	1.051786	-0.910871	0.345618
C84	C	1.551786	-0.410871	0.845618
C85	C	1.009816	-0.877550	0.303585
C86	C	1.509816	-0.377550	0.803585
N87	N	0.975233	-0.772424	0.268965
N88	N	1.475233	-0.272424	0.768965
N89	N	1.012695	-0.802182	0.306494
N90	N	1.512695	-0.302182	0.806494
C91	C	1.178057	-0.280561	0.280616
C92	C	1.678057	0.219439	0.780616
C93	C	1.256529	-0.277535	0.277601
C94	C	1.756529	0.222465	0.777601
C95	C	0.986800	-0.280549	0.471841
C96	C	1.486800	0.219451	0.971841
C97	C	0.983770	-0.277517	0.550315
C98	C	1.483770	0.222483	1.050315
C99	C	1.001115	-0.103499	0.294851
C100	C	1.501115	0.396501	0.794851
C101	C	1.004186	-0.025020	0.297901
C102	C	1.504186	0.474980	0.797901
C103	C	0.962059	-0.255799	0.992411
C104	C	1.462059	0.244201	1.492411
C105	C	0.964910	-0.258644	0.918677
C106	C	1.464910	0.241356	1.418677
C107	C	1.009715	-0.303484	0.878319
C108	C	1.509715	0.196516	1.378319
C109	C	1.051677	-0.345476	0.911699
C110	C	1.551677	0.154524	1.411699
C111	C	1.048830	-0.342626	0.985432
C112	C	1.548830	0.157374	1.485432
C113	C	1.022885	-0.316659	0.657427
C114	C	1.522885	0.183341	1.157427
C115	C	1.025728	-0.319507	0.583689
C116	C	1.525728	0.180493	1.083689
C117	C	0.938961	-0.232674	0.590673
C118	C	1.438961	0.267326	1.090673
C119	C	0.936114	-0.229832	0.664407
C120	C	1.436114	0.270168	1.164407
C121	C	0.978080	-0.271821	0.697780
C122	C	1.478080	0.228179	1.197780
N123	N	1.012628	-0.306396	0.802951
N124	N	1.512628	0.193604	1.302951
N125	N	0.975170	-0.268905	0.773147
N126	N	1.475170	0.231095	1.273147
C127	C	1.000987	-0.294763	1.104259
C128	C	1.500987	0.205237	1.604259
C129	C	1.004017	-0.297789	1.025786
C130	C	1.504017	0.202211	1.525786
H131	H	0.269701	-0.198376	0.198743
H132	H	0.769701	0.301624	0.698743
O133	O	0.592457	-0.217864	0.217920
O134	O	1.092457	0.282136	0.717920
C135	C	0.550011	-0.261435	0.172354
C136	C	1.050011	0.238565	0.672354
H137	H	0.570239	-0.316348	0.164933
H138	H	1.070239	0.183652	0.664933
H139	H	0.493185	-0.265212	0.196212
H140	H	0.993185	0.234788	0.696212
C141	C	0.528239	-0.162301	0.109494
C142	C	1.028239	0.337699	0.609494
C143	C	0.553087	-0.229745	0.100374
C144	C	1.053087	0.270255	0.600374
H145	H	0.530133	-0.142753	0.065094
H146	H	1.030133	0.357247	0.565094
H147	H	0.556833	-0.132945	0.140194
H148	H	1.056833	0.367055	0.640194
H149	H	0.480886	-0.165458	0.129377
H150	H	0.980886	0.334542	0.629377
H151	H	0.600442	-0.226586	0.080499
H152	H	1.100442	0.273414	0.580499
H153	H	0.524501	-0.259099	0.069669
H154	H	1.024501	0.240901	0.569669
O155	O	0.396026	-0.357503	0.357450
O156	O	0.896026	0.142497	0.857450
C157	C	0.375887	-0.340170	0.429129
C158	C	0.875887	0.159830	0.929129
H159	H	0.357676	-0.284412	0.435755
H160	H	0.857676	0.215588	0.935755
H161	H	0.330904	-0.378997	0.447705
H162	H	0.830904	0.121003	0.947705
C163	C	0.461618	-0.412586	0.465247
C164	C	0.961618	0.087414	0.965247
C165	C	0.439257	-0.344101	0.473386
C166	C	0.939257	0.155899	0.973386
H167	H	0.500706	-0.415014	0.492548
H168	H	1.000706	0.084986	0.992548
H169	H	0.475184	-0.424267	0.416956
H170	H	0.975184	0.075733	0.916956
H171	H	0.424126	-0.444935	0.480727
H172	H	0.924126	0.055065	0.980727
H173	H	0.476745	-0.311755	0.457898
H174	H	0.976745	0.188245	0.957898
H175	H	0.425698	-0.332415	0.521676
H176	H	0.925698	0.167585	1.021676
O177	O	0.409852	-0.186051	0.186640
O178	O	0.909852	0.313949	0.686640
C179	C	0.452741	-0.137315	0.227029
C180	C	0.952741	0.362685	0.727029
H181	H	0.428550	-0.131752	0.283665
H182	H	0.928550	0.368248	0.783665
H183	H	0.507679	-0.156893	0.226422
H184	H	1.007679	0.343107	0.726422
C185	C	0.487768	-0.071978	0.125903
C186	C	0.987768	0.428022	0.625903
C187	C	0.458053	-0.065141	0.195463
C188	C	0.958053	0.434859	0.695463
H189	H	0.491048	-0.027459	0.106431
H190	H	0.991048	0.472541	0.606431
H191	H	0.458876	-0.104814	0.098691
H192	H	0.958876	0.395186	0.598691
H193	H	0.533547	-0.088295	0.125407
H194	H	1.033547	0.411705	0.625407
H195	H	0.412272	-0.048833	0.195958
H196	H	0.912272	0.451167	0.695958
H197	H	0.486938	-0.032301	0.222674
H198	H	0.986938	0.467699	0.722674
O199	O	1.063696	-0.689096	0.357469
O200	O	1.563696	-0.189096	0.857469
C201	C	1.109254	-0.731498	0.313904
C202	C	1.609254	-0.231498	0.813904
H203	H	1.086033	-0.745606	0.260911
H204	H	1.586033	-0.245606	0.760911
H205	H	1.162967	-0.701319	0.305272
H206	H	1.662967	-0.201319	0.805272
C207	C	1.146350	-0.782196	0.414651
C208	C	1.646350	-0.282196	0.914651
C209	C	1.117827	-0.799529	0.349565
C210	C	1.617827	-0.299529	0.849565
H211	H	1.151642	-0.824160	0.436648
H212	H	1.651642	-0.324160	0.936648
H213	H	1.115659	-0.753628	0.444002
H214	H	1.615659	-0.253628	0.944002
H215	H	1.191108	-0.757046	0.407448
H216	H	1.691108	-0.257046	0.907448
H217	H	1.073067	-0.824671	0.356769
H218	H	1.573067	-0.324671	0.856769
H219	H	1.148511	-0.828104	0.320216
H220	H	1.648511	-0.328104	0.820216
H221	H	0.731481	-0.219148	0.219446
H222	H	1.231481	0.280852	0.719446
O223	O	0.924045	-0.217933	0.886292
O224	O	1.424045	0.282067	1.386292
C225	C	0.852381	-0.235369	0.906427
C226	C	1.352381	0.264631	1.406427
H227	H	0.845826	-0.291131	0.924635
H228	H	1.345826	0.208869	1.424635
H229	H	0.833756	-0.196575	0.951410
H230	H	1.333756	0.303425	1.451410
C231	C	0.816164	-0.163004	0.820696
C232	C	1.316164	0.336996	1.320696
C233	C	0.808112	-0.231495	0.843054
C234	C	1.308112	0.268505	1.343054
H235	H	0.788855	-0.160611	0.781606
H236	H	1.288855	0.339389	1.281606
H237	H	0.864445	-0.151254	0.807132
H238	H	1.364445	0.348746	1.307132
H239	H	0.800644	-0.130683	0.858187
H240	H	1.300644	0.369317	1.358187
H241	H	0.823640	-0.263812	0.805566
H242	H	1.323640	0.236188	1.305566
H243	H	0.759832	-0.243249	0.856610
H244	H	1.259832	0.256751	1.356610
H245	H	0.257051	-0.356160	0.355938
H246	H	0.757051	0.143840	0.855938
O247	O	1.089795	-1.016862	0.383645
O248	O	1.589795	-0.516862	0.883645
C249	C	1.129904	-0.965381	0.423882
C250	C	1.629904	-0.465381	0.923882
H251	H	1.135506	-0.913853	0.396892
H252	H	1.635506	-0.413853	0.896892
H253	H	1.102225	-0.956466	0.478773
H254	H	1.602225	-0.456466	0.978773
C255	C	1.196658	-1.054082	0.463295
C256	C	1.696658	-0.554082	0.963295
C257	C	1.203544	-0.990796	0.430142
C258	C	1.703544	-0.490796	0.930142
H259	H	1.242082	-1.069760	0.467160
H260	H	1.742082	-0.569760	0.967160
H261	H	1.169635	-1.088767	0.436189
H262	H	1.669635	-0.588767	0.936189
H263	H	1.173590	-1.046645	0.509034
H264	H	1.673590	-0.546645	1.009034
H265	H	1.226603	-0.998236	0.384401
H266	H	1.726603	-0.498236	0.884401
H267	H	1.230573	-0.956113	0.457241
H268	H	1.730573	-0.456113	0.957241
O269	O	0.924193	-0.885567	0.217980
O270	O	1.424193	-0.385567	0.717980
C271	C	0.878644	-0.843141	0.261529
C272	C	1.378644	-0.343141	0.761529
H273	H	0.871243	-0.863364	0.316446
H274	H	1.371243	-0.363364	0.816446
H275	H	0.902506	-0.786299	0.265291
H276	H	1.402506	-0.286299	0.765291
C277	C	0.815744	-0.821428	0.162383
C278	C	1.315744	-0.321428	0.662383
C279	C	0.806649	-0.846269	0.229831
C280	C	1.306649	-0.346269	0.729831
H281	H	0.771335	-0.823354	0.142830
H282	H	1.271335	-0.323354	0.642830
H283	H	0.846432	-0.850009	0.133042
H284	H	1.346432	-0.350009	0.633042
H285	H	0.835631	-0.774061	0.165527
H286	H	1.335631	-0.274061	0.665527
H287	H	0.786771	-0.893637	0.226685
H288	H	1.286771	-0.393637	0.726685
H289	H	0.775956	-0.817696	0.259171
H290	H	1.275956	-0.317696	0.759171
H291	H	1.088250	-0.877968	0.382160
H292	H	1.588250	-0.377968	0.882160
H293	H	1.057054	-0.350852	0.684590
H294	H	1.557054	0.149148	1.184590
H295	H	0.585058	-0.382135	0.381800
H296	H	1.085058	0.117865	0.881800
H297	H	1.062230	-0.356009	0.550831
H298	H	1.562230	0.143991	1.050831
O299	O	1.095140	-0.389018	0.872392
O300	O	1.595140	0.110982	1.372392
C301	C	1.088669	-0.382519	0.800156
C302	C	1.588669	0.117481	1.300156
H303	H	1.035479	-0.361882	0.793078
H304	H	1.535479	0.138118	1.293078
H305	H	1.132826	-0.344115	0.779082
H306	H	1.632826	0.155885	1.279082
C307	C	1.159129	-0.480520	0.767972
C308	C	1.659129	0.019480	1.267972
C309	C	1.093798	-0.455179	0.759278
C310	C	1.593798	0.044821	1.259278
H311	H	1.162296	-0.525340	0.742755
H312	H	1.662296	-0.025340	1.242755
H313	H	1.163492	-0.484898	0.816638
H314	H	1.663492	0.015102	1.316638
H315	H	1.195920	-0.448511	0.750411
H316	H	1.695920	0.051489	1.250411
H317	H	1.057009	-0.487184	0.776846
H318	H	1.557009	0.012816	1.276846
H319	H	1.089429	-0.450809	0.710613
H320	H	1.589429	0.049191	1.210613
O321	O	0.892578	-0.186209	0.703502
O322	O	1.392578	0.313791	1.203502
C323	C	0.856142	-0.149769	0.658233
C324	C	1.356142	0.350231	1.158233
H325	H	0.887184	-0.148241	0.604657
H326	H	1.387184	0.351759	1.104657
H327	H	0.801812	-0.177992	0.651448
H328	H	1.301812	0.322008	1.151448
C329	C	0.809676	-0.075778	0.756124
C330	C	1.309676	0.424222	1.256124
C331	C	0.847805	-0.073897	0.690323
C332	C	1.347805	0.426103	1.190323
H333	H	0.804529	-0.028977	0.775920
H334	H	1.304529	0.471023	1.275920
H335	H	0.834221	-0.100330	0.786624
H336	H	1.334221	0.399670	1.286624
H337	H	0.764404	-0.099300	0.750461
H338	H	1.264404	0.400700	1.250461
H339	H	0.893078	-0.050383	0.695988
H340	H	1.393078	0.449617	1.195988
H341	H	0.823267	-0.049339	0.659825
H342	H	1.323267	0.450661	1.159825
H343	H	1.062184	-0.550006	0.356127
H344	H	1.562184	-0.050006	0.856127
O345	O	0.918655	-1.030851	0.212259
O346	O	1.418655	-0.530851	0.712259
C347	C	0.882227	-0.985631	0.175758
C348	C	1.382227	-0.485631	0.675758
H349	H	0.880649	-0.932040	0.206794
H350	H	1.380649	-0.432040	0.706794
H351	H	0.910488	-0.978855	0.121463
H352	H	1.410488	-0.478855	0.621463
C353	C	0.808327	-1.083602	0.129183
C354	C	1.308327	-0.583602	0.629183
C355	C	0.806384	-1.017782	0.167306
C356	C	1.306384	-0.517782	0.667306
H357	H	0.761545	-1.103435	0.123967
H358	H	1.261545	-0.603435	0.623967
H359	H	0.832871	-1.114068	0.153773
H360	H	1.332871	-0.614068	0.653773
H361	H	0.831881	-1.077947	0.083942
H362	H	1.331881	-0.577947	0.583942
H363	H	0.782838	-1.023440	0.212549
H364	H	1.282838	-0.523440	0.712549
H365	H	0.781834	-0.987318	0.142724
H366	H	1.281834	-0.487318	0.642724
O367	O	0.892688	-0.702906	0.186145
O368	O	1.392688	-0.202906	0.686145
C369	C	0.911590	-0.687029	0.115890
C370	C	1.411590	-0.187029	0.615890
H371	H	0.940833	-0.632477	0.115473
H372	H	1.440833	-0.132477	0.615473
H373	H	0.947239	-0.728019	0.089143
H374	H	1.447239	-0.228019	0.589143
C375	C	0.808661	-0.755009	0.076353
C376	C	1.308661	-0.255009	0.576353
C377	C	0.844573	-0.688004	0.075840
C378	C	1.344573	-0.188004	0.575840
H379	H	0.767323	-0.755613	0.051647
H380	H	1.267323	-0.255613	0.551647
H381	H	0.795928	-0.765708	0.123684
H382	H	1.295928	-0.265708	0.623684
H383	H	0.838376	-0.789159	0.054065
H384	H	1.338376	-0.289159	0.554065
H385	H	0.814861	-0.653856	0.098135
H386	H	1.314861	-0.153856	0.598135
H387	H	0.857300	-0.677299	0.028511
H388	H	1.357300	-0.177299	0.528511
O389	O	1.089611	-0.383487	1.017742
O390	O	1.589611	0.116513	1.517742
C391	C	1.129781	-0.423663	0.966312
C392	C	1.629781	0.076337	1.466312
H393	H	1.102796	-0.429255	0.914769
H394	H	1.602796	0.070745	1.414769
H395	H	1.184715	-0.396043	0.957413
H396	H	1.684715	0.103957	1.457413
C397	C	1.169047	-0.490435	1.055085
C398	C	1.669047	0.009565	1.555085
C399	C	1.135901	-0.497309	0.991781
C400	C	1.635901	0.002691	1.491781
H401	H	1.172826	-0.535863	1.070796
H402	H	1.672826	-0.035863	1.570796
H403	H	1.141987	-0.463367	1.089735
H404	H	1.641987	0.036633	1.589735
H405	H	1.214823	-0.467416	1.047661
H406	H	1.714823	0.032584	1.547661
H407	H	1.090124	-0.520319	0.999208
H408	H	1.590124	-0.020319	1.499208
H409	H	1.162954	-0.524383	0.957133
H410	H	1.662954	-0.024383	1.457133
H411	H	0.904793	-0.562863	0.198451
H412	H	1.404793	-0.062863	0.698451
H413	H	0.904796	-0.198488	0.563492
H414	H	1.404796	0.301512	1.063492
H415	H	0.718830	-0.376943	0.376632
H416	H	1.218830	0.123057	0.876632
H417	H	0.925572	-0.219287	1.025266
H418	H	1.425572	0.280713	1.525266
