data_functionalizedCrystal
_audit_creation_method	'MofGen! by Chris Wilmer'
_symmetry_space_group_name_H-M	'P1'
_symmetry_Int_Tables_number	1
_symmetry_cell_setting	triclinic
loop_
_symmetry_equiv_pos_as_xyz
  x,y,z
_cell_length_a	15.944551
_cell_length_b	15.995350
_cell_length_c	14.472310
_cell_angle_alpha	90.009379
_cell_angle_beta	89.997979
_cell_angle_gamma	96.504443
loop_
_atom_site_label
_atom_site_type_symbol
_atom_site_fract_x
_atom_site_fract_y
_atom_site_fract_z
O1	O	0.108264	-1.111003	-0.076765
O2	O	0.121634	-0.867228	-0.076784
O3	O	-0.007326	-0.995772	-0.076765
O4	O	0.237224	-0.982458	-0.076783
O5	O	-0.007319	-0.995739	0.076917
O6	O	0.121641	-0.867195	0.076898
O7	O	0.108272	-1.110969	0.076917
Cu8	Cu	0.114957	-0.989079	0.090940
Cu9	Cu	0.114948	-0.989118	-0.090807
O10	O	0.237232	-0.982425	0.076899
C11	C	0.121085	-0.836017	0.000055
C12	C	0.119428	-0.743066	0.000048
C13	C	-0.038616	-0.995203	0.000076
C14	C	-0.131862	-0.993546	0.000076
N15	N	0.114963	-0.989058	0.218771
C16	C	-0.346714	-0.909908	0.000057
C17	C	-0.407730	-0.948730	0.075834
C18	C	-0.302588	-0.990548	0.000069
C19	C	-0.407721	-0.948782	-0.075684
C20	C	-0.467501	-0.987647	0.000058
C21	C	-0.362376	-1.029393	0.075909
C22	C	-0.362360	-1.029433	-0.075678
C23	C	-0.423358	-1.068315	0.000119
C24	C	-0.207586	-0.992217	0.000076
C25	C	-0.562502	-0.985984	0.000057
C26	C	0.268522	-0.982995	0.000056
C27	C	0.361768	-0.984652	0.000049
C28	C	0.108821	-1.142181	0.000077
C29	C	0.110478	-1.235131	0.000078
C30	C	0.113477	-0.405318	0.000067
C31	C	0.021634	-0.452747	0.000417
C32	C	0.023291	-0.549438	0.000064
C33	C	0.116429	-0.572879	0.000058
C34	C	0.161724	-0.531813	-0.087701
C35	C	0.159417	-0.435178	-0.087768
C36	C	0.161323	-0.434801	0.086997
C37	C	0.161302	-0.531746	0.088150
C38	C	0.118102	-0.667577	0.000050
C39	C	0.111806	-0.310620	0.000069
N40	N	0.114936	-0.989146	-0.218638
C41	C	0.114945	-0.989117	0.592862
C42	C	0.183717	-0.920105	0.553686
C43	C	0.183968	-0.920264	0.446598
C44	C	0.114954	-0.989087	0.407271
C45	C	0.134096	-1.076453	0.446114
C46	C	0.134585	-1.076065	0.553235
C47	C	0.026826	-0.971543	0.553396
C48	C	0.027414	-0.969539	0.446269
C49	C	0.114957	-0.989075	0.302383
C50	C	0.114943	-0.989135	0.697750
H51	H	-0.313403	-0.842972	0.000127
H52	H	-0.342235	-1.063526	-0.139740
C53	C	-0.434898	-0.902638	0.162371
C54	C	-0.400699	-0.809922	0.179010
C55	C	-0.427863	-0.763824	0.265542
C56	C	-0.489227	-0.810442	0.335435
C57	C	-0.523430	-0.903164	0.318798
C58	C	-0.496266	-0.949262	0.232266
H59	H	-0.355270	-0.775407	0.127269
H60	H	-0.402543	-0.695185	0.277857
H61	H	-0.509336	-0.776318	0.399491
H62	H	-0.568859	-0.937678	0.370539
H63	H	-0.521586	-1.017901	0.219951
C64	C	-0.434861	-0.902710	-0.162230
C65	C	-0.400644	-0.810002	-0.178861
C66	C	-0.427780	-0.763924	-0.265401
C67	C	-0.489132	-0.810554	-0.335310
C68	C	-0.523352	-0.903268	-0.318681
C69	C	-0.496216	-0.949346	-0.232141
H70	H	-0.355225	-0.775479	-0.127108
H71	H	-0.402448	-0.695291	-0.277711
H72	H	-0.509219	-0.776445	-0.399372
H73	H	-0.568771	-0.937791	-0.370433
H74	H	-0.521548	-1.017979	-0.219831
C75	C	-0.335376	-1.075410	0.162555
C76	C	-0.241565	-1.085443	0.178593
C77	C	-0.214564	-1.131456	0.265239
C78	C	-0.281373	-1.167435	0.335847
C79	C	-0.375190	-1.157403	0.319812
C80	C	-0.402192	-1.111390	0.233166
H81	H	-0.192104	-1.058808	0.126322
H82	H	-0.145114	-1.138882	0.277109
H83	H	-0.261385	-1.201496	0.399988
H84	H	-0.424652	-1.184038	0.372082
H85	H	-0.471642	-1.103964	0.221295
H86	H	0.172500	-0.854954	0.579470
H87	H	-0.456521	-1.135309	0.000167
H88	H	0.012886	-0.905272	0.420882
C89	C	-0.024816	-0.587835	0.085042
C90	C	-0.102587	-0.653175	0.072096
C91	C	-0.150701	-0.691571	0.157074
C92	C	-0.121043	-0.664627	0.254996
C93	C	-0.043268	-0.599284	0.267946
C94	C	0.004845	-0.560888	0.182969
H95	H	-0.124545	-0.673124	-0.000396
H96	H	-0.208275	-0.739942	0.147487
H97	H	-0.156660	-0.693050	0.317902
H98	H	-0.021311	-0.579336	0.340438
H99	H	0.062420	-0.512517	0.192555
H100	H	-0.015075	-0.434210	0.063353
C101	C	-0.025138	-0.587096	-0.085065
C102	C	-0.033270	-0.682674	-0.102322
C103	C	-0.081702	-0.720332	-0.187455
C104	C	-0.122003	-0.662412	-0.255331
C105	C	-0.113872	-0.566828	-0.238076
C106	C	-0.065440	-0.529170	-0.152943
H107	H	-0.003436	-0.725555	-0.052074
H108	H	-0.087720	-0.791089	-0.200228
H109	H	-0.157855	-0.690289	-0.318351
H110	H	-0.143706	-0.523947	-0.288324
H111	H	-0.059422	-0.458413	-0.140170
C112	C	0.168581	-0.832530	0.411115
C113	C	0.155977	-0.761833	0.480251
C114	C	0.140597	-0.674093	0.444773
C115	C	0.137822	-0.657051	0.340158
C116	C	0.150426	-0.727750	0.271015
C117	C	0.165806	-0.815490	0.306493
H118	H	0.158031	-0.774447	0.557699
H119	H	0.131266	-0.621757	0.495957
H120	H	0.126437	-0.592100	0.313895
H121	H	0.148372	-0.715136	0.193567
H122	H	0.175137	-0.867826	0.255309
C123	C	0.253061	-0.552495	0.095301
C124	C	0.271507	-0.644732	0.102157
C125	C	0.363271	-0.665479	0.109296
C126	C	0.436589	-0.593989	0.109581
C127	C	0.418146	-0.501746	0.102725
C128	C	0.326381	-0.480999	0.095585
H129	H	0.217231	-0.697659	0.101946
H130	H	0.376924	-0.733763	0.114371
H131	H	0.504519	-0.609347	0.114866
H132	H	0.472422	-0.448819	0.102935
H133	H	0.312728	-0.412715	0.090511
H134	H	-0.014912	-0.433165	-0.062167
C135	C	0.114781	-0.410454	-0.176382
C136	C	0.081480	-0.478608	-0.246593
C137	C	0.036841	-0.453889	-0.335208
C138	C	0.025503	-0.361017	-0.353612
C139	C	0.058805	-0.292857	-0.283398
C140	C	0.103444	-0.317575	-0.194784
H141	H	0.089872	-0.547363	-0.232972
H142	H	0.012189	-0.504347	-0.387185
H143	H	-0.007541	-0.342719	-0.419210
H144	H	0.050413	-0.224102	-0.297020
H145	H	0.128096	-0.267118	-0.142807
H146	H	0.226847	-0.402934	-0.091755
C147	C	0.221403	-1.096978	0.586979
C148	C	0.289805	-1.113915	0.516456
C149	C	0.376625	-1.134826	0.550194
C150	C	0.395043	-1.138799	0.654457
C151	C	0.326638	-1.121861	0.724987
C152	C	0.239818	-1.100951	0.691248
H153	H	0.276173	-1.110974	0.439269
H154	H	0.427263	-1.147364	0.497983
H155	H	0.459312	-1.154278	0.679432
H156	H	0.340270	-1.124802	0.802174
H157	H	0.189181	-1.088412	0.743460
C158	C	0.254163	-0.550901	-0.092125
C159	C	0.274460	-0.642662	-0.096904
C160	C	0.366899	-0.661750	-0.101324
C161	C	0.439039	-0.589078	-0.100965
C162	C	0.418744	-0.497311	-0.096185
C163	C	0.326305	-0.478223	-0.091765
H164	H	0.221056	-0.696464	-0.097170
H165	H	0.381922	-0.729683	-0.104862
H166	H	0.507467	-0.603209	-0.104237
H167	H	0.472148	-0.443509	-0.095919
H168	H	0.311282	-0.410290	-0.088227
H169	H	-0.026162	-1.016539	0.419502
C170	C	0.068234	-1.147493	0.411696
C171	C	-0.025808	-1.145726	0.434887
C172	C	-0.091671	-1.216764	0.400468
C173	C	-0.063491	-1.289569	0.342857
C174	C	0.030555	-1.291339	0.319663
C175	C	0.096418	-1.220300	0.354082
H176	H	-0.046672	-1.091829	0.477537
H177	H	-0.161290	-1.215454	0.417638
H178	H	-0.112247	-1.342156	0.317377
H179	H	0.051419	-1.345236	0.277013
H180	H	0.166038	-1.221611	0.336912
C181	C	0.120762	-0.407059	0.176867
C182	C	0.173248	-0.348860	0.245312
C183	C	0.132674	-0.321123	0.335178
C184	C	0.039615	-0.351586	0.356600
C185	C	-0.012877	-0.409789	0.288154
C186	C	0.027697	-0.437525	0.198288
H187	H	0.242141	-0.326306	0.229456
H188	H	0.171532	-0.278038	0.385846
H189	H	0.009580	-0.331054	0.423124
H190	H	-0.081770	-0.432342	0.304010
H191	H	-0.011161	-0.480611	0.147619
C192	C	0.252802	-0.391900	0.087800
C193	C	0.283973	-0.330418	0.010003
C194	C	0.375447	-0.287513	0.010798
C195	C	0.435750	-0.306089	0.089390
C196	C	0.404580	-0.367573	0.167193
C197	C	0.313105	-0.410479	0.166398
H198	H	0.239332	-0.316664	-0.048181
H199	H	0.398521	-0.241998	-0.046798
H200	H	0.503464	-0.274328	0.089978
H201	H	0.449220	-0.381327	0.225377
H202	H	0.290032	-0.455994	0.223994
C203	C	0.219925	-1.097878	0.409863
C204	C	0.252974	-1.180918	0.438409
C205	C	0.338805	-1.202337	0.402161
C206	C	0.391587	-1.140717	0.337366
C207	C	0.358538	-1.057671	0.308817
C208	C	0.272707	-1.036252	0.345065
H209	H	0.213902	-1.226538	0.486377
H210	H	0.363270	-1.263813	0.423295
H211	H	0.455124	-1.156573	0.310533
H212	H	0.397611	-1.012051	0.260849
H213	H	0.248243	-0.974776	0.323930
C214	C	0.001972	-0.887330	0.589922
C215	C	0.061380	-0.833441	0.656065
C216	C	0.036537	-0.749225	0.692592
C217	C	-0.047715	-0.718897	0.662976
C218	C	-0.107129	-0.772787	0.596829
C219	C	-0.082286	-0.857004	0.560302
H220	H	0.123753	-0.855891	0.677992
H221	H	0.080520	-0.709332	0.741558
H222	H	-0.066105	-0.656555	0.690015
H223	H	-0.169502	-0.750338	0.574902
H224	H	-0.126268	-0.896896	0.511336
C225	C	-0.042318	-1.039522	0.587627
C226	C	-0.018992	-1.110634	0.651071
C227	C	-0.088128	-1.178613	0.685309
C228	C	-0.180590	-1.175481	0.656103
C229	C	-0.203920	-1.104367	0.592656
C230	C	-0.134784	-1.036387	0.558418
H231	H	0.049457	-1.112955	0.672694
H232	H	-0.070857	-1.231257	0.732276
H233	H	-0.231768	-1.225804	0.681448
H234	H	-0.272369	-1.102046	0.571033
H235	H	-0.152055	-0.983744	0.511450
H236	H	0.130258	-0.560200	-0.153010
H237	H	0.128236	-0.559047	0.153074
H238	H	0.248741	-0.931173	0.580592
H239	H	0.249360	-0.931487	0.420961
H240	H	0.086470	-1.129023	0.579148
