data_functionalizedCrystal
_audit_creation_method	'MofGen! by Chris Wilmer'
_symmetry_space_group_name_H-M	'P1'
_symmetry_Int_Tables_number	1
_symmetry_cell_setting	triclinic
loop_
_symmetry_equiv_pos_as_xyz
  x,y,z
_cell_length_a	29.839125
_cell_length_b	15.297475
_cell_length_c	15.299816
_cell_angle_alpha	107.348877
_cell_angle_beta	99.671620
_cell_angle_gamma	99.674916
loop_
_atom_site_label
_atom_site_type_symbol
_atom_site_fract_x
_atom_site_fract_y
_atom_site_fract_z
Zn1	Zn	-0.435059	-1.485837	-0.616736
Zn2	Zn	-0.375652	-1.512645	-0.772182
Zn3	Zn	-0.344237	-1.330328	-0.589776
Zn4	Zn	-0.435051	-1.357166	-0.745217
O5	O	-0.397500	-1.421494	-0.680978
O6	O	-0.440330	-1.619542	-0.659924
O7	O	-0.308617	-1.488447	-0.747987
O8	O	-0.343141	-1.328505	-0.463245
O9	O	-0.396684	-1.639237	-0.774129
O10	O	-0.409867	-1.442757	-0.483052
O11	O	-0.285536	-1.354500	-0.613975
O12	O	-0.343133	-1.203739	-0.587828
O13	O	-0.497920	-1.374247	-0.728171
O14	O	-0.409854	-1.223457	-0.702029
O15	O	-0.497926	-1.468781	-0.633777
O16	O	-0.396676	-1.514471	-0.898712
O17	O	-0.440316	-1.400242	-0.878901
C18	C	-0.373084	-1.179852	-0.639078
C19	C	-0.362651	-1.076480	-0.621175
C20	C	-0.514680	-1.421518	-0.680974
C21	C	-0.564615	-1.421528	-0.680972
C22	C	-0.421916	-1.463203	-0.922546
C23	C	-0.432385	-1.481131	-1.025905
C24	C	-0.874255	-1.470787	-0.631676
C25	C	-1.061925	-1.470819	-0.631605
O26	O	-1.086189	-1.512647	-0.589767
N27	N	-1.085388	-1.421608	-0.680744
C28	C	-1.061929	-1.372380	-0.729900
O29	O	-1.086190	-1.330515	-0.771687
C30	C	-0.874259	-1.372342	-0.729965
C31	C	-0.850800	-1.421565	-0.680830
C32	C	-0.850796	-1.520005	-0.582544
C33	C	-0.803882	-1.520000	-0.582566
C34	C	-0.780428	-1.470778	-0.631721
C35	C	-0.803887	-1.421560	-0.680853
C36	C	-0.850801	-1.323109	-0.779115
C37	C	-0.803880	-1.323102	-0.779125
C38	C	-0.780421	-1.372325	-0.729990
C39	C	-0.733518	-1.372334	-0.730030
N40	N	-0.710055	-1.421546	-0.680890
C41	C	-0.733510	-1.470768	-0.631736
C42	C	-1.160459	-1.372404	-0.729864
C43	C	-1.207376	-1.372415	-0.729849
C44	C	-1.207369	-1.470853	-0.631552
C45	C	-1.160451	-1.470848	-0.631573
C46	C	-1.136996	-1.421616	-0.680724
C47	C	-0.634988	-1.470755	-0.631787
C48	C	-0.588070	-1.470750	-0.631817
C49	C	-0.588081	-1.372308	-0.730110
C50	C	-0.634995	-1.372317	-0.730085
C51	C	-0.658447	-1.421543	-0.680916
O52	O	-0.709224	-1.330519	-0.771836
O53	O	-0.709238	-1.512609	-0.589938
C54	C	-0.921169	-1.470791	-0.631653
C55	C	-0.944628	-1.421574	-0.680785
C56	C	-0.921173	-1.372352	-0.729940
C57	C	-0.991546	-1.421584	-0.680770
C58	C	-1.015001	-1.470806	-0.631616
C59	C	-0.991538	-1.520018	-0.582476
C60	C	-0.944624	-1.520013	-0.582499
C61	C	-0.944636	-1.323140	-0.779079
C62	C	-0.991550	-1.323149	-0.779054
C63	C	-1.015005	-1.372372	-0.729899
C64	C	-0.280774	-1.421512	-0.680924
C65	C	-0.230831	-1.421637	-0.680695
C66	C	-0.422012	-1.664079	-0.723042
C67	C	-0.432457	-1.767455	-0.740967
C68	C	-0.472064	-0.826325	-0.808937
C69	C	-0.481865	-0.923449	-0.825764
C70	C	-0.452063	-0.961712	-0.774618
C71	C	-0.412457	-0.902841	-0.706642
C72	C	-0.402653	-0.805708	-0.689818
C73	C	-0.382652	-0.941095	-0.655500
C74	C	-0.343046	-0.882224	-0.587524
C75	C	-0.333244	-0.785101	-0.570703
C76	C	-0.363046	-0.746838	-0.621849
C77	C	-0.392456	-1.038227	-0.672324
C78	C	-0.323045	-1.017610	-0.553205
C79	C	-0.313244	-0.920486	-0.536378
C80	C	-0.322890	-1.293966	-1.276345
C81	C	-0.313055	-1.277117	-1.179233
C82	C	-0.342886	-1.328119	-1.140896
C83	C	-0.382556	-1.395974	-1.199681
C84	C	-0.392394	-1.412820	-1.296801
C85	C	-0.412390	-1.446972	-1.161352
C86	C	-0.452060	-1.514827	-1.220136
C87	C	-0.461896	-1.531670	-1.317247
C88	C	-0.432064	-1.480668	-1.355584
C89	C	-0.402552	-1.430127	-1.064232
C90	C	-0.472056	-1.548980	-1.084688
C91	C	-0.481891	-1.565829	-1.181799
C92	C	-0.373001	-1.379647	-0.438470
C93	C	-0.362560	-1.361815	-0.335128
H94	H	-0.568972	-1.510836	-0.591805
O95	O	-0.332276	-1.309963	-1.036157
H96	H	-0.299677	-1.254221	-1.001723
H97	H	-0.280757	-1.221870	-1.131375
H98	H	-0.370253	-1.374879	-1.016378
H99	H	-0.784786	-1.560080	-0.542554
H100	H	-1.141354	-1.510927	-0.591561
H101	H	-0.424703	-1.086151	-0.727670
O102	O	-0.504230	-1.604013	-1.043357
H103	H	-0.539754	-1.591247	-1.059193
O104	O	-0.562777	-1.319208	-0.783114
H105	H	-0.550384	-1.368985	-0.837640
H106	H	-0.496323	-0.795163	-0.850578
O107	O	-1.232666	-1.523925	-0.578513
H108	H	-1.269229	-1.515646	-0.586751
H109	H	-0.298607	-1.252443	-1.307568
O110	O	-0.660300	-1.319223	-0.783074
H111	H	-0.690666	-1.369004	-0.837589
O112	O	-0.442675	-1.498844	-1.460330
H113	H	-0.447240	-1.433135	-1.473829
O114	O	-0.504685	-1.604844	-1.380652
H115	H	-0.502490	-1.674609	-1.374622
H116	H	-1.226475	-1.332345	-0.769872
O117	O	-0.524681	-1.638999	-1.245208
H118	H	-0.513856	-1.694011	-1.297645
O119	O	-0.660284	-1.523843	-0.578760
H120	H	-0.660271	-1.599589	-0.607375
O121	O	-0.876092	-1.573106	-0.529531
H122	H	-0.851891	-1.607328	-0.495381
O123	O	-0.876096	-1.270016	-0.832109
H124	H	-0.888484	-1.215524	-0.782279
H125	H	-0.514111	-0.971375	-0.881112
H126	H	-0.784783	-1.282999	-0.819140
O127	O	-1.135157	-1.319266	-0.782845
H128	H	-1.159357	-1.285046	-0.817000
H129	H	-0.460045	-1.040795	-0.788322
O130	O	-0.919323	-1.573099	-0.529500
H131	H	-0.943520	-1.607317	-0.495315
O132	O	-1.016836	-1.573087	-0.529435
H133	H	-1.053397	-1.564802	-0.537668
O134	O	-0.352454	-0.642087	-0.603745
H135	H	-0.379825	-0.625379	-0.650749
H136	H	-1.010647	-1.283070	-0.819074
H137	H	-0.925544	-1.283058	-0.819109
H138	H	-0.300991	-0.737172	-0.515362
O139	O	-0.270520	-0.856979	-0.463088
H140	H	-0.281420	-0.804565	-0.408190
O141	O	-0.290897	-1.058863	-0.498029
H142	H	-0.304371	-1.136290	-0.521139
