data_functionalizedCrystal
_audit_creation_method	'MofGen! by Chris Wilmer'
_symmetry_space_group_name_H-M	'P1'
_symmetry_Int_Tables_number	1
_symmetry_cell_setting	triclinic
loop_
_symmetry_equiv_pos_as_xyz
  x,y,z
_cell_length_a	14.044220
_cell_length_b	19.288864
_cell_length_c	18.366186
_cell_angle_alpha	90.020214
_cell_angle_beta	89.997710
_cell_angle_gamma	91.837439
loop_
_atom_site_label
_atom_site_type_symbol
_atom_site_fract_x
_atom_site_fract_y
_atom_site_fract_z
O1	O	0.118208	-0.928946	-0.060787
O2	O	0.134155	-0.727710	-0.060738
O3	O	-0.011790	-0.825307	-0.060755
O4	O	0.264153	-0.831348	-0.060770
O5	O	-0.011785	-0.825294	0.060345
O6	O	0.134160	-0.727696	0.060362
O7	O	0.118213	-0.928932	0.060312
Zn8	Zn	0.126188	-0.828312	0.079564
Zn9	Zn	0.126181	-0.828330	-0.079990
O10	O	0.264159	-0.831335	0.060329
C11	C	0.133645	-0.701793	-0.000182
C12	C	0.132104	-0.624591	-0.000163
C13	C	-0.047091	-0.822656	-0.000204
C14	C	-0.152283	-0.814768	-0.000201
C15	C	0.118724	-0.954848	-0.000245
C16	C	0.120264	-1.032051	-0.000269
C17	C	-0.344882	-0.800348	-0.000208
C18	C	-0.402755	-0.856291	-0.000224
C19	C	-0.509924	-0.848267	-0.000228
C20	C	-0.237703	-0.808370	-0.000204
C21	C	0.299459	-0.833986	-0.000223
C22	C	0.404651	-0.841874	-0.000231
N23	N	0.126192	-0.828305	0.188455
C24	C	0.217738	-0.585397	-0.000179
C25	C	0.216291	-0.512857	-0.000187
C26	C	0.129205	-0.479514	-0.000193
C27	C	0.043560	-0.518717	-0.000173
C28	C	0.045010	-0.591256	-0.000157
C29	C	0.060744	-0.366858	-0.042640
C30	C	0.059298	-0.294320	-0.042660
C31	C	0.124731	-0.255781	-0.000237
C32	C	0.191625	-0.289787	0.042196
C33	C	0.193075	-0.362325	0.042212
C34	C	0.127624	-0.400858	-0.000209
C35	C	0.208802	-0.137930	-0.000261
C36	C	0.207351	-0.065389	-0.000264
C37	C	0.034617	-0.071251	-0.000257
C38	C	0.036070	-0.143790	-0.000247
C39	C	0.123165	-0.177126	-0.000252
N40	N	0.126169	-0.828342	-0.188881
C41	C	0.183489	-0.874017	0.772990
C42	C	0.183498	-0.874011	0.696763
C43	C	0.126170	-0.828336	0.658667
C44	C	0.068847	-0.782651	0.696805
C45	C	0.068847	-0.782655	0.773031
C46	C	0.040732	-0.821119	0.537907
C47	C	0.040731	-0.821121	0.461682
C48	C	0.126173	-0.828322	0.423559
C49	C	0.211618	-0.835536	0.461671
C50	C	0.211618	-0.835539	0.537897
C51	C	0.126165	-0.828327	0.576012
C52	C	0.183507	-0.873993	0.302775
C53	C	0.183519	-0.873981	0.226546
C54	C	0.068859	-0.782625	0.226589
C55	C	0.068857	-0.782633	0.302817
C56	C	0.126179	-0.828321	0.340906
H57	H	-0.371814	-0.910212	-0.000286
O58	O	0.299722	-0.023115	-0.000277
H59	H	0.284085	0.032927	-0.000276
O60	O	-0.385855	-0.728925	-0.000179
H61	H	-0.464821	-0.733753	-0.000175
H62	H	0.247540	-0.390010	0.076765
H63	H	0.022169	-0.745459	0.804075
O64	O	0.311671	-0.621353	-0.000164
H65	H	0.370976	-0.581907	-0.000165
H66	H	0.286027	-0.480939	-0.000198
O67	O	-0.059316	-0.035300	-0.000264
H68	H	-0.045939	0.021726	-0.000281
H69	H	0.022176	-0.745442	0.333862
H70	H	0.244906	-0.258409	0.076742
H71	H	0.279719	-0.165073	-0.000254
H72	H	0.230187	-0.911191	0.333789
H73	H	0.230201	-0.911175	0.195503
H74	H	-0.033662	-0.175703	-0.000237
O75	O	0.303781	-0.843301	0.420561
H76	H	0.363190	-0.848322	0.459868
H77	H	0.004833	-0.266638	-0.077215
O78	O	0.007005	-0.733371	0.185513
H79	H	0.016624	-0.741049	0.126101
H80	H	0.007459	-0.398231	-0.077190
H81	H	-0.028844	-0.815252	0.430657
O82	O	0.303768	-0.843318	0.579005
H83	H	0.354193	-0.800059	0.564399
H84	H	-0.028849	-0.815249	0.568940
O85	O	-0.050372	-0.482761	-0.000180
H86	H	-0.036994	-0.425735	-0.000200
H87	H	0.230167	-0.911219	0.803997
O88	O	-0.047356	-0.633537	-0.000143
H89	H	-0.108158	-0.598168	-0.000151
O90	O	0.245316	-0.923281	0.655623
H91	H	0.285170	-0.955053	0.694915
H92	H	0.022173	-0.745461	0.665782
