data_functionalizedCrystal
_audit_creation_method	'MofGen! by Chris Wilmer'
_symmetry_space_group_name_H-M	'P1'
_symmetry_Int_Tables_number	1
_symmetry_cell_setting	triclinic
loop_
_symmetry_equiv_pos_as_xyz
  x,y,z
_cell_length_a	18.215407
_cell_length_b	10.685194
_cell_length_c	18.215399
_cell_angle_alpha	85.603424
_cell_angle_beta	89.983101
_cell_angle_gamma	94.374677
loop_
_atom_site_label
_atom_site_type_symbol
_atom_site_fract_x
_atom_site_fract_y
_atom_site_fract_z
Zn1	Zn	1.102695	-0.502506	-0.393598
Zn2	Zn	1.352695	-0.252506	-0.143598
Zn3	Zn	1.602695	-0.002506	0.106402
Zn4	Zn	1.852695	0.247494	0.356402
Zn5	Zn	1.093205	-0.713547	-0.261098
Zn6	Zn	1.343205	-0.463547	-0.011098
Zn7	Zn	1.593205	-0.213547	0.238902
Zn8	Zn	1.843205	0.036453	0.488902
Zn9	Zn	0.979626	-0.502536	-0.270550
Zn10	Zn	1.229626	-0.252536	-0.020550
Zn11	Zn	1.479626	-0.002536	0.229450
Zn12	Zn	1.729626	0.247464	0.479450
Zn13	Zn	0.970199	-0.713466	-0.384133
Zn14	Zn	1.220199	-0.463466	-0.134133
Zn15	Zn	1.470199	-0.213466	0.115867
Zn16	Zn	1.720199	0.036534	0.365867
O17	O	1.036431	-0.608014	-0.327345
O18	O	1.286431	-0.358014	-0.077345
O19	O	1.536431	-0.108014	0.172655
O20	O	1.786431	0.141986	0.422655
O21	O	1.204419	-0.530522	-0.376027
O22	O	1.454419	-0.280522	-0.126027
O23	O	1.704419	-0.030522	0.123973
O24	O	1.954419	0.219478	0.373973
O25	O	1.078113	-0.685603	-0.159366
O26	O	1.328113	-0.435603	0.090634
O27	O	1.578113	-0.185603	0.340634
O28	O	1.828113	0.064397	0.590634
O29	O	1.003868	-0.325935	-0.294789
O30	O	1.253868	-0.075935	-0.044789
O31	O	1.503868	0.174065	0.205211
O32	O	1.753868	0.424065	0.455211
O33	O	1.197448	-0.685574	-0.278680
O34	O	1.447448	-0.435574	-0.028680
O35	O	1.697448	-0.185574	0.221320
O36	O	1.947448	0.064426	0.471320
O37	O	1.094286	-0.325913	-0.385191
O38	O	1.344286	-0.075913	-0.135191
O39	O	1.594286	0.174087	0.114809
O40	O	1.844286	0.424087	0.364809
O41	O	0.994667	-0.530574	-0.166310
O42	O	1.244667	-0.280574	0.083690
O43	O	1.494667	-0.030574	0.333690
O44	O	1.744667	0.219426	0.583690
O45	O	0.875392	-0.530495	-0.285612
O46	O	1.125392	-0.280495	-0.035612
O47	O	1.375392	-0.030495	0.214388
O48	O	1.625392	0.219505	0.464388
O49	O	0.987801	-0.685435	-0.488375
O50	O	1.237801	-0.435435	-0.238375
O51	O	1.487801	-0.185435	0.011625
O52	O	1.737801	0.064565	0.261625
O53	O	0.868466	-0.685465	-0.369061
O54	O	1.118466	-0.435465	-0.119061
O55	O	1.368466	-0.185465	0.130939
O56	O	1.618466	0.064535	0.380939
O57	O	1.085145	-0.530443	-0.495329
O58	O	1.335145	-0.280443	-0.245329
O59	O	1.585145	-0.030443	0.004671
O60	O	1.835145	0.219557	0.254671
O61	O	1.068972	-0.890133	-0.269503
O62	O	1.318972	-0.640133	-0.019503
O63	O	1.568972	-0.390133	0.230497
O64	O	1.818972	-0.140133	0.480497
O65	O	0.978600	-0.890074	-0.359896
O66	O	1.228600	-0.640074	-0.109896
O67	O	1.478600	-0.390074	0.140104
O68	O	1.728600	-0.140074	0.390104
C69	C	0.845227	-0.607975	-0.327335
C70	C	1.095227	-0.357975	-0.077335
C71	C	1.345227	-0.107975	0.172665
C72	C	1.595227	0.142025	0.422665
C73	C	0.763427	-0.607989	-0.327347
C74	C	1.013427	-0.357989	-0.077347
C75	C	1.263427	-0.107989	0.172653
C76	C	1.513427	0.142011	0.422653
C77	C	0.494776	-0.688839	-0.370726
C78	C	0.744776	-0.438839	-0.120726
C79	C	0.994776	-0.188839	0.129274
C80	C	1.244776	0.061161	0.379274
C81	C	0.571635	-0.688828	-0.370723
C82	C	0.821635	-0.438828	-0.120723
C83	C	1.071635	-0.188828	0.129277
C84	C	1.321635	0.061172	0.379277
C85	C	0.578827	-0.527217	-0.283975
C86	C	0.828827	-0.277217	-0.033975
C87	C	1.078827	-0.027217	0.216025
C88	C	1.328827	0.222783	0.466025
C89	C	0.501969	-0.527235	-0.283975
C90	C	0.751969	-0.277235	-0.033975
C91	C	1.001969	-0.027235	0.216025
C92	C	1.251969	0.222765	0.466025
C93	C	0.459945	-0.608044	-0.327354
C94	C	0.709945	-0.358044	-0.077354
C95	C	0.959945	-0.108044	0.172646
C96	C	1.209945	0.141956	0.422646
C97	C	0.613663	-0.608015	-0.327352
C98	C	0.863663	-0.358015	-0.077352
C99	C	1.113663	-0.108015	0.172648
C100	C	1.363663	0.141985	0.422648
C101	C	0.696997	-0.608003	-0.327348
C102	C	0.946997	-0.358003	-0.077348
C103	C	1.196997	-0.108003	0.172652
C104	C	1.446997	0.141997	0.422652
C105	C	0.376606	-0.608059	-0.327357
C106	C	0.626606	-0.358059	-0.077357
C107	C	0.876606	-0.108059	0.172643
C108	C	1.126606	0.141941	0.422643
C109	C	1.021753	-0.935893	-0.312663
C110	C	1.271753	-0.685893	-0.062663
C111	C	1.521753	-0.435893	0.187337
C112	C	1.771753	-0.185893	0.437337
C113	C	1.015541	-1.076161	-0.306406
C114	C	1.265541	-0.826161	-0.056406
C115	C	1.515541	-0.576161	0.193594
C116	C	1.765541	-0.326161	0.443594
C117	C	1.228383	-0.608054	-0.327355
C118	C	1.478383	-0.358054	-0.077355
C119	C	1.728383	-0.108054	0.172645
C120	C	1.978383	0.141946	0.422645
C121	C	1.310181	-0.608071	-0.327359
C122	C	1.560181	-0.358071	-0.077359
C123	C	1.810181	-0.108071	0.172641
C124	C	2.060181	0.141929	0.422641
C125	C	1.036480	-0.607927	-0.519302
C126	C	1.286480	-0.357927	-0.269302
C127	C	1.536480	-0.107927	-0.019302
C128	C	1.786480	0.142073	0.230698
C129	C	1.036501	-0.607890	-0.601102
C130	C	1.286501	-0.357890	-0.351102
C131	C	1.536501	-0.107890	-0.101102
C132	C	1.786501	0.142110	0.148898
C133	C	1.051187	-0.278854	-0.342100
C134	C	1.301187	-0.028854	-0.092100
C135	C	1.551187	0.221146	0.157900
C136	C	1.801187	0.471146	0.407900
C137	C	1.057475	-0.138586	-0.348388
C138	C	1.307475	0.111414	-0.098388
C139	C	1.557475	0.361414	0.151612
C140	C	1.807475	0.611414	0.401612
C141	C	1.087208	-0.527110	-0.792921
C142	C	1.337208	-0.277110	-0.542921
C143	C	1.587208	-0.027110	-0.292921
C144	C	1.837208	0.222890	-0.042921
C145	C	1.087219	-0.527073	-0.869782
C146	C	1.337219	-0.277073	-0.619782
C147	C	1.587219	-0.027073	-0.369782
C148	C	1.837219	0.222927	-0.119782
C149	C	0.985854	-0.688474	-0.862530
C150	C	1.235854	-0.438474	-0.612530
C151	C	1.485854	-0.188474	-0.362530
C152	C	1.735854	0.061526	-0.112530
C153	C	0.985841	-0.688504	-0.785671
C154	C	1.235841	-0.438504	-0.535671
C155	C	1.485841	-0.188504	-0.285671
C156	C	1.735841	0.061496	-0.035671
C157	C	1.036522	-0.607824	-0.750869
C158	C	1.286522	-0.357824	-0.500869
C159	C	1.536522	-0.107824	-0.250869
C160	C	1.786522	0.142176	-0.000869
C161	C	1.036546	-0.607757	-0.904588
C162	C	1.286546	-0.357757	-0.654588
C163	C	1.536546	-0.107757	-0.404588
C164	C	1.786546	0.142243	-0.154588
C165	C	1.036557	-0.607718	-0.987923
C166	C	1.286557	-0.357718	-0.737923
C167	C	1.536557	-0.107718	-0.487923
C168	C	1.786557	0.142282	-0.237923
C169	C	1.036510	-0.607861	-0.667528
C170	C	1.286510	-0.357861	-0.417528
C171	C	1.536510	-0.107861	-0.167528
C172	C	1.786510	0.142139	0.082472
C173	C	1.036429	-0.608009	-0.136139
C174	C	1.286429	-0.358009	0.113861
C175	C	1.536429	-0.108009	0.363861
C176	C	1.786429	0.141991	0.613861
C177	C	1.036567	-0.607691	-0.054354
C178	C	1.286567	-0.357691	0.195646
C179	C	1.536567	-0.107691	0.445646
C180	C	1.786567	0.142309	0.695646
H181	H	0.460562	-0.754639	-0.406049
H182	H	0.710562	-0.504639	-0.156049
H183	H	0.960562	-0.254639	0.093951
H184	H	1.210562	-0.004639	0.343951
H185	H	0.473610	-0.461440	-0.248653
H186	H	0.723610	-0.211440	0.001347
H187	H	0.973610	0.038560	0.251347
H188	H	1.223610	0.288560	0.501347
Br189	Br	0.635864	-0.417548	-0.225108
Br190	Br	0.885864	-0.167548	0.024892
Br191	Br	1.135864	0.082452	0.274892
Br192	Br	1.385864	0.332452	0.524892
H193	H	0.974877	-1.130032	-0.265678
H194	H	1.224877	-0.880032	-0.015678
H195	H	1.474877	-0.630032	0.234322
H196	H	1.724877	-0.380032	0.484322
H197	H	0.944561	-0.754229	-0.751430
H198	H	1.194561	-0.504229	-0.501430
H199	H	1.444561	-0.254229	-0.251430
H200	H	1.694561	-0.004229	-0.001430
H201	H	1.098131	-1.084723	-0.389121
H202	H	1.348131	-0.834723	-0.139121
H203	H	1.598131	-0.584723	0.110879
H204	H	1.848131	-0.334723	0.360879
H205	H	0.599990	-0.754621	-0.406040
H206	H	0.849990	-0.504621	-0.156040
H207	H	1.099990	-0.254621	0.093960
H208	H	1.349990	-0.004621	0.343960
Br209	Br	1.155988	-0.417614	-0.745692
Br210	Br	1.405988	-0.167614	-0.495692
Br211	Br	1.655988	0.082386	-0.245692
Br212	Br	1.905988	0.332386	0.004308
H213	H	1.128491	-0.461346	-0.904018
H214	H	1.378491	-0.211346	-0.654018
H215	H	1.628491	0.038654	-0.404018
H216	H	1.878491	0.288654	-0.154018
H217	H	0.944593	-0.754164	-0.890875
H218	H	1.194593	-0.504164	-0.640875
H219	H	1.444593	-0.254164	-0.390875
H220	H	1.694593	-0.004164	-0.140875
