data_functionalizedCrystal
_audit_creation_method	'MofGen! by Chris Wilmer'
_symmetry_space_group_name_H-M	'P1'
_symmetry_Int_Tables_number	1
_symmetry_cell_setting	triclinic
loop_
_symmetry_equiv_pos_as_xyz
  x,y,z
_cell_length_a	9.065215
_cell_length_b	9.198806
_cell_length_c	9.065218
_cell_angle_alpha	89.998664
_cell_angle_beta	85.015325
_cell_angle_gamma	89.996792
loop_
_atom_site_label
_atom_site_type_symbol
_atom_site_fract_x
_atom_site_fract_y
_atom_site_fract_z
O1	O	-1.960403	0.120862	-0.216334
O2	O	-1.627070	0.454195	0.116999
O3	O	-1.293736	0.787529	0.450332
O4	O	-1.531118	0.120870	-0.234085
O5	O	-1.197784	0.454203	0.099248
O6	O	-0.864451	0.787536	0.432582
O7	O	-1.754634	0.120863	-0.010567
O8	O	-1.421300	0.454196	0.322766
O9	O	-1.087967	0.787529	0.656100
O10	O	-1.736887	0.120869	-0.439852
O11	O	-1.403554	0.454202	-0.106519
O12	O	-1.070220	0.787536	0.226815
O13	O	-1.754616	-0.120922	-0.010566
O14	O	-1.421282	0.212411	0.322767
O15	O	-1.087949	0.545744	0.656100
O16	O	-1.531100	-0.120915	-0.234084
O17	O	-1.197766	0.212418	0.099249
O18	O	-0.864433	0.545751	0.432582
O19	O	-1.960385	-0.120923	-0.216334
O20	O	-1.627052	0.212410	0.117000
O21	O	-1.293718	0.545744	0.450333
Cu22	Cu	-1.745741	-0.142996	-0.225209
Cu23	Cu	-1.412407	0.190337	0.108124
Cu24	Cu	-1.079074	0.523671	0.441458
Cu25	Cu	-1.745762	0.142943	-0.225210
Cu26	Cu	-1.412429	0.476276	0.108124
Cu27	Cu	-1.079095	0.809609	0.441457
O28	O	-1.736869	-0.120916	-0.439851
O29	O	-1.403536	0.212417	-0.106518
O30	O	-1.070202	0.545751	0.226815
C31	C	-1.476122	-0.000022	-0.232380
C32	C	-1.142789	0.333311	0.100954
C33	C	-0.809455	0.666645	0.434287
C34	C	-1.312279	-0.000019	-0.227282
C35	C	-0.978946	0.333314	0.106052
C36	C	-0.645612	0.666648	0.439385
N37	N	-1.745737	-0.344110	-0.225207
N38	N	-1.412403	-0.010777	0.108126
N39	N	-1.079070	0.322557	0.441459
C40	C	-1.839582	-0.416310	-0.130943
C41	C	-1.506249	-0.082977	0.202390
C42	C	-1.172916	0.250357	0.535724
C43	C	-1.839605	-0.583722	-0.130938
C44	C	-1.506272	-0.250389	0.202395
C45	C	-1.172939	0.082944	0.535729
C46	C	-1.015381	-0.000027	-0.218039
C47	C	-0.682047	0.333306	0.115295
C48	C	-0.348714	0.666639	0.448628
C49	C	-1.179224	-0.000018	-0.223136
C50	C	-0.845890	0.333315	0.110197
C51	C	-0.512557	0.666648	0.443530
C52	C	-1.752919	-0.000027	0.044420
C53	C	-1.419586	0.333306	0.377753
C54	C	-1.086252	0.666639	0.711086
C55	C	-1.747819	-0.000020	0.208263
C56	C	-1.414486	0.333313	0.541596
C57	C	-1.081153	0.666646	0.874929
N58	N	-1.745778	0.344057	-0.225200
N59	N	-1.412444	0.677390	0.108134
N60	N	-1.079111	1.010723	0.441467
C61	C	-1.738584	-0.000023	-0.494838
C62	C	-1.405250	0.333311	-0.161505
C63	C	-1.071917	0.666644	0.171828
C64	C	-1.743683	-0.000020	-0.658681
C65	C	-1.410350	0.333313	-0.325348
C66	C	-1.077017	0.666646	0.007985
H67	H	-1.919906	-0.354186	-0.050237
H68	H	-1.586573	-0.020853	0.283097
H69	H	-1.253240	0.312480	0.616430
H70	H	-1.919956	-0.645811	-0.050239
H71	H	-1.586623	-0.312478	0.283094
H72	H	-1.253290	0.020856	0.616427
Cl73	Cl	-1.621728	-0.560098	-0.349818
Cl74	Cl	-1.288395	-0.226765	-0.016485
Cl75	Cl	-0.955061	0.106568	0.316849
H76	H	-1.665403	-0.406236	-0.305902
H77	H	-1.332069	-0.072902	0.027431
H78	H	-0.998736	0.260431	0.360765
