data_functionalizedCrystal
_audit_creation_method	'MofGen! by Chris Wilmer'
_symmetry_space_group_name_H-M	'P1'
_symmetry_Int_Tables_number	1
_symmetry_cell_setting	triclinic
loop_
_symmetry_equiv_pos_as_xyz
  x,y,z
_cell_length_a	17.699083
_cell_length_b	15.944551
_cell_length_c	16.776229
_cell_angle_alpha	89.992397
_cell_angle_beta	89.998886
_cell_angle_gamma	83.390877
loop_
_atom_site_label
_atom_site_type_symbol
_atom_site_fract_x
_atom_site_fract_y
_atom_site_fract_z
O1	O	1.004260	0.106222	-0.066178
O2	O	0.783905	0.120042	-0.066204
O3	O	0.900100	-0.009156	-0.066183
O4	O	0.888065	0.235419	-0.066199
O5	O	0.900084	-0.009164	0.066393
O6	O	0.783890	0.120034	0.066372
O7	O	1.004244	0.106214	0.066398
Zn8	Zn	0.894065	0.113123	0.087435
Zn9	Zn	0.894085	0.113133	-0.087241
O10	O	0.888050	0.235411	0.066377
C11	C	0.755700	0.119542	0.000080
C12	C	0.671679	0.118057	0.000071
C13	C	0.899593	-0.040453	0.000105
C14	C	0.898095	-0.133696	0.000105
C15	C	0.623187	0.193893	0.000066
C16	C	0.544242	0.192492	0.000076
C17	C	0.513789	0.115254	0.000086
C18	C	0.562287	0.039412	0.000093
C19	C	0.641231	0.040814	0.000088
C20	C	0.243914	0.033758	0.000113
C21	C	0.164964	0.032362	0.000115
C22	C	0.146925	0.185436	0.000101
C23	C	0.225869	0.186837	0.000096
C24	C	0.274360	0.110996	0.000108
C25	C	0.359962	0.112516	0.000098
C26	C	0.428189	0.113733	0.000090
C27	C	0.822492	-0.348393	0.000085
C28	C	0.857592	-0.409488	0.065458
C29	C	0.895385	-0.304416	0.000099
C30	C	0.857624	-0.409464	-0.065252
C31	C	0.892762	-0.469323	0.000089
C32	C	0.930505	-0.364283	0.065525
C33	C	0.930527	-0.364252	-0.065244
C34	C	0.965680	-0.425329	0.000145
C35	C	0.896894	-0.209417	0.000105
C36	C	0.891259	-0.564321	0.000089
C37	C	1.032450	0.106713	0.000112
C38	C	1.116471	0.108199	0.000116
C39	C	0.888557	0.266708	0.000087
C40	C	0.890055	0.359951	0.000082
N41	N	0.894056	0.113115	0.206646
N42	N	0.894099	0.113134	-0.206452
C43	C	0.945523	0.055930	0.248372
C44	C	0.945527	0.055929	0.331824
C45	C	0.894068	0.113118	0.373549
C46	C	0.842595	0.170306	0.331816
C47	C	0.842588	0.170302	0.248366
C48	C	0.842623	0.170323	0.668364
C49	C	0.842636	0.170324	0.751820
C50	C	0.945562	0.055949	0.751822
C51	C	0.945555	0.055945	0.668372
C52	C	0.894080	0.113130	0.626647
C53	C	0.894075	0.113129	0.536158
C54	C	0.894076	0.113124	0.464036
H55	H	0.647975	0.256789	0.000058
C56	C	0.798186	0.315798	0.642670
C57	C	0.786049	0.233189	0.622510
H58	H	0.763261	0.354611	0.614356
H59	H	0.790830	0.323972	0.698335
H60	H	0.848696	0.324836	0.628976
H61	H	0.735540	0.224149	0.636209
H62	H	0.793399	0.225011	0.566832
H63	H	0.800692	0.216868	0.365793
C64	C	0.444995	0.279719	-0.068086
C65	C	0.490941	0.275855	0.000063
H66	H	0.412088	0.331185	-0.068091
H67	H	0.476166	0.277081	-0.114311
H68	H	0.415562	0.233517	-0.068066
H69	H	0.520379	0.322053	0.000039
H70	H	0.459766	0.278501	0.046299
H71	H	0.283386	-0.027997	0.000123
H72	H	0.761987	-0.314958	0.000143
C73	C	0.853416	-0.412632	0.208473
C74	C	0.815966	-0.436559	0.140055
H75	H	0.827712	-0.429339	0.254523
H76	H	0.904268	-0.439240	0.208545
H77	H	0.853654	-0.353086	0.208756
H78	H	0.815733	-0.496107	0.139770
H79	H	0.765101	-0.409954	0.139984
C80	C	0.865720	-0.492115	-0.185226
C81	C	0.816001	-0.436492	-0.139860
H82	H	0.840016	-0.508801	-0.231280
H83	H	0.908250	-0.464742	-0.200933
H84	H	0.882601	-0.540533	-0.154233
H85	H	0.799124	-0.388071	-0.170851
H86	H	0.773456	-0.463865	-0.124154
H87	H	0.800678	0.216867	0.214393
C88	C	0.973070	-0.249712	0.139566
C89	C	0.972078	-0.337395	0.140221
H90	H	0.998730	-0.233114	0.185683
H91	H	0.998795	-0.233875	0.093214
H92	H	0.922355	-0.222684	0.139371
H93	H	1.022794	-0.364424	0.140410
H94	H	0.946355	-0.353241	0.186585
C95	C	0.711613	0.219814	0.777537
C96	C	0.786061	0.233183	0.797688
H97	H	0.676690	0.258615	0.805859
H98	H	0.704242	0.228002	0.721873
H99	H	0.703414	0.163760	0.791226
H100	H	0.794262	0.289235	0.783993
H101	H	0.793435	0.225001	0.853364
C102	C	0.989916	-0.089557	0.642865
C103	C	1.002116	-0.006993	0.622587
H104	H	1.024831	-0.128435	0.614619
H105	H	0.997243	-0.097658	0.698545
H106	H	0.939402	-0.098573	0.629170
H107	H	1.052629	0.002025	0.636287
H108	H	0.994796	0.001111	0.566894
C109	C	1.076584	0.006436	0.777508
C110	C	1.002138	-0.006921	0.797687
H111	H	1.111510	-0.032374	0.805826
H112	H	1.083938	-0.001747	0.721843
H113	H	1.084795	0.062486	0.791184
H114	H	0.993925	-0.062969	0.784006
H115	H	0.994781	0.001256	0.853365
C116	C	1.085395	-0.447487	0.068705
C117	C	1.047427	-0.470275	0.000202
H118	H	1.135859	-0.475241	0.068744
H119	H	1.086782	-0.388115	0.069138
H120	H	1.059299	-0.463664	0.114691
H121	H	1.073520	-0.454093	-0.045784
H122	H	1.046044	-0.529660	-0.000238
H123	H	0.250659	0.249732	0.000085
H124	H	0.987430	0.009363	0.214406
C125	C	0.047671	0.272672	-0.068049
C126	C	0.093619	0.268804	0.000098
H127	H	0.014762	0.324137	-0.068049
H128	H	0.078840	0.270040	-0.114275
H129	H	0.018240	0.226469	-0.068031
H130	H	0.123055	0.315004	0.000077
H131	H	0.062447	0.271444	0.046336
C132	C	0.190721	-0.118818	0.000148
C133	C	0.131489	-0.052545	0.000134
H134	H	0.170053	-0.171231	0.000164
H135	H	0.221136	-0.115095	-0.046083
H136	H	0.221138	-0.115081	0.046382
H137	H	0.101075	-0.056278	-0.046104
H138	H	0.101061	-0.056270	0.046369
C139	C	0.449283	-0.030708	0.000099
C140	C	0.528815	-0.045490	0.000102
H141	H	0.428622	-0.083126	0.000098
H142	H	0.432643	0.000501	0.046327
H143	H	0.432645	0.000515	-0.046138
H144	H	0.545452	-0.076707	0.046342
H145	H	0.545461	-0.076713	-0.046131
H146	H	0.680713	-0.020940	0.000091
C147	C	0.922784	-0.280308	-0.184415
C148	C	0.972121	-0.337147	-0.139843
H149	H	0.948461	-0.263569	-0.230471
H150	H	0.879718	-0.306755	-0.200110
H151	H	0.906724	-0.232043	-0.152893
H152	H	0.988177	-0.385415	-0.171363
H153	H	1.015201	-0.310701	-0.124149
C154	C	1.047288	-0.057105	0.323444
C155	C	1.002113	-0.006918	0.377690
H156	H	1.082228	-0.095899	0.351761
H157	H	1.015788	-0.087287	0.290910
H158	H	1.074495	-0.022161	0.290881
H159	H	0.974901	-0.041861	0.410250
H160	H	1.033617	0.023267	0.410238
