data_functionalizedCrystal
_audit_creation_method	'MofGen! by Chris Wilmer'
_symmetry_space_group_name_H-M	'P1'
_symmetry_Int_Tables_number	1
_symmetry_cell_setting	triclinic
loop_
_symmetry_equiv_pos_as_xyz
  x,y,z
_cell_length_a	12.645331
_cell_length_b	12.645330
_cell_length_c	16.959447
_cell_angle_alpha	90.026070
_cell_angle_beta	90.015785
_cell_angle_gamma	90.017906
loop_
_atom_site_label
_atom_site_type_symbol
_atom_site_fract_x
_atom_site_fract_y
_atom_site_fract_z
Zn1	Zn	1.620658	-0.422012	0.446963
Zn2	Zn	1.620561	-0.599304	0.314794
Zn3	Zn	1.443394	-0.422056	0.314797
Zn4	Zn	1.443354	-0.599235	0.446929
O5	O	1.531992	-0.510652	0.380871
O6	O	1.768992	-0.445541	0.429443
O7	O	1.597036	-0.575839	0.204184
O8	O	1.466966	-0.273703	0.332344
O9	O	1.768921	-0.575797	0.332339
O10	O	1.597200	-0.273671	0.429446
O11	O	1.466872	-0.445615	0.204186
O12	O	1.295041	-0.445548	0.332312
O13	O	1.466897	-0.575679	0.557545
O14	O	1.295012	-0.575721	0.429389
O15	O	1.597162	-0.445474	0.557569
O16	O	1.596997	-0.747642	0.332307
O17	O	1.466804	-0.747591	0.429386
C18	C	1.256562	-0.510633	0.380848
C19	C	1.138732	-0.510650	0.380856
C20	C	1.093833	-0.428631	0.319885
C21	C	0.971273	-0.428328	0.320093
C22	C	0.970889	-0.480855	0.464297
C23	C	1.093487	-0.480242	0.463916
C24	C	1.093520	-0.622708	0.359175
C25	C	0.970913	-0.622123	0.357366
C26	C	1.531914	-0.786082	0.380860
C27	C	1.531978	-0.903912	0.380882
C28	C	1.450411	-1.071488	0.442142
C29	C	1.449994	-0.948928	0.441945
C30	C	1.501747	-0.948508	0.297579
C31	C	1.501249	-1.071106	0.297951
C32	C	1.644276	-1.071000	0.402247
C33	C	1.643587	-0.948393	0.404069
C34	C	1.808497	-0.510672	0.380895
C35	C	1.926327	-0.510680	0.380905
C36	C	1.532036	-0.510564	0.587039
C37	C	1.532055	-0.510527	0.674896
C38	C	1.532098	-0.234146	0.380899
C39	C	1.532144	-0.116316	0.380911
C40	C	1.532009	-0.510663	0.175505
C41	C	1.532195	-0.510401	0.087648
C42	C	1.464359	-0.578206	1.046361
C43	C	1.600004	-0.442623	1.046382
C44	C	1.599976	-0.442646	0.963836
C45	C	1.532139	-0.510451	0.922549
C46	C	1.464330	-0.578233	0.963808
C47	C	1.667791	-0.374872	0.922571
C48	C	1.667766	-0.374893	0.840020
C49	C	1.599923	-0.442693	0.798732
C50	C	1.532111	-0.510477	0.839995
C51	C	1.464274	-0.578282	0.798708
C52	C	1.396456	-0.646062	0.839971
C53	C	1.396488	-0.646033	0.922519
C54	C	1.599891	-0.442722	0.716183
C55	C	1.464246	-0.578309	0.716155
H56	H	1.124657	-0.346067	0.334094
N57	N	1.728509	-0.907819	0.349297
H58	H	1.782867	-0.867021	0.380616
H59	H	1.695609	-0.859855	0.308502
H60	H	1.341277	-0.701220	0.956122
N61	N	1.134385	-0.658769	0.279954
H62	H	1.104389	-0.730810	0.267202
H63	H	1.214114	-0.662914	0.281610
H64	H	1.655111	-0.387539	0.682591
N65	N	1.391193	-0.651288	1.090858
H66	H	1.401492	-0.640979	1.149418
H67	H	1.407642	-0.727012	1.076425
N68	N	1.740893	-0.301781	0.795515
H69	H	1.789991	-0.344872	0.761255
H70	H	1.783800	-0.258836	0.834244
H71	H	0.941140	-0.446936	0.258270
H72	H	0.941784	-0.644621	0.295993
N73	N	1.578095	-0.909894	0.235490
H74	H	1.633145	-0.863007	0.260825
H75	H	1.538245	-0.868406	0.194192
N76	N	0.932433	-0.318351	0.339156
H77	H	0.994954	-0.269882	0.347461
H78	H	0.888261	-0.320539	0.388734
H79	H	1.123246	-0.447024	0.257851
N80	N	1.340978	-1.112405	0.423664
H81	H	1.340841	-1.192189	0.426429
H82	H	1.319878	-1.089139	0.368916
N83	N	1.391071	-0.651448	0.671637
H84	H	1.434116	-0.700596	0.637382
H85	H	1.341962	-0.608302	0.637438
H86	H	1.122553	-0.683811	0.403584
N87	N	1.394304	-0.907966	0.273196
H88	H	1.365059	-0.860723	0.315983
H89	H	1.344930	-0.969709	0.264639
N90	N	1.673174	-0.369501	1.090908
H91	H	1.662905	-0.379772	1.149464
H92	H	1.656697	-0.293792	1.076494
N93	N	0.930383	-0.707373	0.411866
H94	H	0.882336	-0.674815	0.452773
H95	H	0.992081	-0.742798	0.438915
N96	N	1.339885	-0.910191	0.423216
H97	H	1.291431	-0.972757	0.415051
H98	H	1.341782	-0.866027	0.373633
N99	N	1.724944	-1.109399	0.343183
H100	H	1.758255	-1.046739	0.315869
H101	H	1.689019	-1.155937	0.302844
H102	H	1.671856	-1.101842	0.461959
H103	H	1.666386	-0.919241	0.465375
N104	N	1.475038	-0.908972	0.523762
H105	H	1.486449	-0.971000	0.560282
H106	H	1.414141	-0.864763	0.543692
N107	N	1.740959	-0.301750	0.967099
H108	H	1.730681	-0.312016	1.025654
H109	H	1.724488	-0.226042	0.952681
H110	H	1.123194	-0.537408	0.510918
H111	H	1.122102	-0.398344	0.482244
H112	H	1.419280	-1.099799	0.279877
N113	N	0.932341	-0.557572	0.526150
H114	H	0.885506	-0.612530	0.500648
H115	H	0.890813	-0.517984	0.567577
N116	N	0.930270	-0.373575	0.489024
H117	H	0.850476	-0.375104	0.491375
H118	H	0.953803	-0.318701	0.449489
N119	N	1.475218	-1.110447	0.524233
H120	H	1.539676	-1.157536	0.522531
H121	H	1.412976	-1.151805	0.545242
N122	N	1.576674	-1.110404	0.235460
H123	H	1.610095	-1.048083	0.207790
H124	H	1.536690	-1.154759	0.195884
N125	N	1.323298	-0.719201	0.795437
H126	H	1.333580	-0.708932	0.736882
H127	H	1.247595	-0.702691	0.809858
