data_functionalizedCrystal
_audit_creation_method	'MofGen! by Chris Wilmer'
_symmetry_space_group_name_H-M	'P1'
_symmetry_Int_Tables_number	1
_symmetry_cell_setting	triclinic
loop_
_symmetry_equiv_pos_as_xyz
  x,y,z
_cell_length_a	14.519709
_cell_length_b	23.532407
_cell_length_c	13.596369
_cell_angle_alpha	89.989360
_cell_angle_beta	90.000291
_cell_angle_gamma	83.264412
loop_
_atom_site_label
_atom_site_type_symbol
_atom_site_fract_x
_atom_site_fract_y
_atom_site_fract_z
O1	O	1.222985	0.074654	-0.081674
O2	O	0.954404	0.083445	-0.081705
O3	O	1.096794	-0.003846	-0.081671
O4	O	1.080596	0.161945	-0.081708
O5	O	1.096780	-0.003850	0.081912
O6	O	0.954390	0.083441	0.081878
O7	O	1.222971	0.074649	0.081909
Zn8	Zn	1.088678	0.079044	0.107866
Zn9	Zn	1.088697	0.079050	-0.107662
O10	O	1.080582	0.161940	0.081874
C11	C	0.920042	0.083033	0.000083
C12	C	0.817676	0.081805	0.000071
C13	C	0.442833	0.077286	0.000117
C14	C	0.547126	0.078541	0.000104
C15	C	0.630251	0.079545	0.000093
C16	C	0.734551	0.080801	0.000082
C17	C	1.096374	-0.025066	0.000123
C18	C	1.095134	-0.088288	0.000131
C19	C	1.171619	-0.487046	0.000086
C20	C	1.170467	-0.546452	0.000078
O21	O	1.241369	-0.582876	0.000050
N22	N	1.085816	-0.569460	0.000069
C23	C	1.002312	-0.533059	0.000057
O24	O	0.930205	-0.558084	0.000048
C25	C	1.003465	-0.473655	0.000058
C26	C	1.088121	-0.450650	0.000077
C27	C	1.256268	-0.464041	0.000104
C28	C	1.257420	-0.404640	0.000113
C29	C	1.173922	-0.368244	0.000105
C30	C	1.089273	-0.391249	0.000087
C31	C	0.919962	-0.437255	0.000039
C32	C	0.921123	-0.377847	0.000039
C33	C	1.005779	-0.354843	0.000058
C34	C	1.006927	-0.295451	0.000087
N35	N	1.091578	-0.272443	0.000097
C36	C	1.175075	-0.308839	0.000105
C37	C	0.999897	-0.657813	0.000055
C38	C	0.998743	-0.717216	0.000061
C39	C	1.166898	-0.730604	0.000080
C40	C	1.168051	-0.671200	0.000080
C41	C	1.084548	-0.634804	0.000064
C42	C	1.177487	-0.184092	0.000126
C43	C	1.178632	-0.124685	0.000139
C44	C	1.010477	-0.111301	0.000115
C45	C	1.009332	-0.170703	0.000107
C46	C	1.092845	-0.207098	0.000109
O47	O	0.936062	-0.258992	0.000111
O48	O	1.247171	-0.283806	0.000102
C49	C	1.257333	0.075061	0.000119
C50	C	1.359700	0.076289	0.000124
C51	C	1.081001	0.183160	0.000078
C52	C	1.082241	0.246383	0.000064
N53	N	1.088673	0.079040	0.254958
N54	N	1.088710	0.079050	-0.254754
C55	C	1.088696	0.079051	0.656248
C56	C	1.088686	0.079050	0.544597
C57	C	1.088685	0.079046	0.455607
C58	C	1.088674	0.079044	0.343948
H59	H	1.247572	-0.105958	0.000158
O60	O	0.837783	-0.459658	-0.000121
C61	C	0.738862	-0.518895	-0.084945
C62	C	0.831979	-0.493576	-0.084869
H63	H	0.734132	-0.546314	-0.153467
H64	H	0.734074	-0.546418	-0.016540
H65	H	0.679411	-0.482658	-0.084912
H66	H	0.891484	-0.529777	-0.084937
H67	H	0.836687	-0.466038	-0.153269
O68	O	1.247987	-0.765988	-0.000097
C69	C	1.344237	-0.840845	-0.084824
C70	C	1.252388	-0.800796	-0.084757
H71	H	1.347816	-0.869006	-0.153254
H72	H	1.404979	-0.814231	-0.084881
H73	H	1.347885	-0.868977	-0.016339
H74	H	1.248649	-0.772657	-0.153231
H75	H	1.191688	-0.827445	-0.084649
H76	H	1.236985	-0.652474	0.000095
O77	O	0.840029	-0.342470	-0.000148
C78	C	0.743770	-0.267596	-0.084874
C79	C	0.835629	-0.307636	-0.084799
H80	H	0.740191	-0.239414	-0.153296
H81	H	0.683037	-0.294218	-0.084952
H82	H	0.740106	-0.239485	-0.016381
H83	H	0.839384	-0.335754	-0.153280
H84	H	0.896319	-0.280980	-0.084670
O85	O	0.916427	-0.739464	0.000010
C86	C	0.749764	-0.719898	0.000049
C87	C	0.842924	-0.694629	0.000092
H88	H	0.690313	-0.683662	0.000137
H89	H	0.744958	-0.747343	-0.068430
H90	H	0.745060	-0.747404	0.068488
H91	H	0.847691	-0.667098	-0.068300
H92	H	0.847691	-0.667217	0.068617
H93	H	0.940399	-0.189434	0.000119
O94	O	0.918800	-0.622436	-0.000122
C95	C	0.822523	-0.547568	-0.084842
C96	C	0.914387	-0.587603	-0.084774
H97	H	0.818933	-0.519388	-0.153265
H98	H	0.761794	-0.574194	-0.084910
H99	H	0.818861	-0.519457	-0.016350
H100	H	0.918139	-0.615723	-0.153254
H101	H	0.975072	-0.560944	-0.084654
H102	H	0.942496	-0.081657	0.000112
H103	H	1.245491	-0.213718	0.000124
H104	H	1.324266	-0.493670	0.000107
O105	O	1.339736	-0.382392	0.000080
C106	C	1.506398	-0.401964	0.000152
C107	C	1.413236	-0.427229	0.000170
H108	H	1.565847	-0.438202	0.000246
H109	H	1.511217	-0.374501	-0.068322
H110	H	1.511096	-0.374476	0.068597
H111	H	1.408475	-0.454743	-0.068228
H112	H	1.408457	-0.454659	0.068689
