data_functionalizedCrystal
_audit_creation_method	'MofGen! by Chris Wilmer'
_symmetry_space_group_name_H-M	'P1'
_symmetry_Int_Tables_number	1
_symmetry_cell_setting	triclinic
loop_
_symmetry_equiv_pos_as_xyz
  x,y,z
_cell_length_a	18.050591
_cell_length_b	25.639239
_cell_length_c	18.050582
_cell_angle_alpha	90.024638
_cell_angle_beta	90.020922
_cell_angle_gamma	90.034692
loop_
_atom_site_label
_atom_site_type_symbol
_atom_site_fract_x
_atom_site_fract_y
_atom_site_fract_z
Zn1	Zn	1.135238	-0.208240	0.420021
Zn2	Zn	1.135126	-0.295667	0.295826
Zn3	Zn	1.011058	-0.208242	0.295832
Zn4	Zn	1.010983	-0.295640	0.419962
O5	O	1.073101	-0.251947	0.357910
O6	O	1.239148	-0.219848	0.403568
O7	O	1.118653	-0.284083	0.191902
O8	O	1.027609	-0.135076	0.312333
O9	O	1.239066	-0.284081	0.312323
O10	O	1.118844	-0.135075	0.403574
O11	O	1.027500	-0.219851	0.191906
O12	O	0.907123	-0.219825	0.312276
O13	O	1.027481	-0.284034	0.523894
O14	O	0.907068	-0.284036	0.403473
O15	O	1.118771	-0.219821	0.523938
O16	O	1.118580	-0.368829	0.312266
O17	O	1.027373	-0.368809	0.403468
C18	C	0.880149	-0.251928	0.357869
C19	C	0.797604	-0.251932	0.357869
C20	C	0.598161	-0.216974	0.308390
C21	C	0.548729	-0.264661	0.290112
C22	C	0.646473	-0.251948	0.357903
C23	C	0.548824	-0.204277	0.376179
C24	C	0.500488	-0.251959	0.357934
C25	C	0.598128	-0.299660	0.339589
C26	C	0.598227	-0.239244	0.425688
C27	C	0.548817	-0.286965	0.407435
C28	C	0.730571	-0.251941	0.357883
C29	C	0.416392	-0.251971	0.357954
C30	C	1.072977	-0.387790	0.357876
C31	C	1.072991	-0.445904	0.357886
C32	C	1.120717	-0.806265	0.310502
C33	C	1.120746	-0.860869	0.310512
O34	O	1.161195	-0.889104	0.270187
N35	N	1.073232	-0.888186	0.357959
C36	C	1.025691	-0.860896	0.405405
O37	O	0.985280	-0.889145	0.445764
C38	C	1.025667	-0.806293	0.405398
C39	C	1.073179	-0.778979	0.357943
C40	C	1.168226	-0.778951	0.263051
C41	C	1.168196	-0.724350	0.263040
C42	C	1.120657	-0.697064	0.310481
C43	C	1.073149	-0.724378	0.357932
C44	C	0.978131	-0.779004	0.452847
C45	C	0.978111	-0.724397	0.452837
C46	C	1.025622	-0.697083	0.405381
C47	C	1.025580	-0.642491	0.405362
N48	N	1.073094	-0.615174	0.357914
C49	C	1.120633	-0.642460	0.310474
C50	C	1.025747	-0.975567	0.405416
C51	C	1.025768	-1.030169	0.405420
C52	C	1.120823	-1.030138	0.310528
C53	C	1.120799	-0.975535	0.310521
C54	C	1.073261	-0.948250	0.357969
C55	C	1.120566	-0.527795	0.310455
C56	C	1.120530	-0.473190	0.310446
C57	C	1.025477	-0.473226	0.405340
C58	C	1.025510	-0.527826	0.405347
C59	C	1.073061	-0.555110	0.357901
O60	O	0.985154	-0.614222	0.445668
O61	O	1.161044	-0.614205	0.270129
C62	C	1.266807	-0.251967	0.357952
C63	C	1.349353	-0.251976	0.357970
C64	C	1.073131	-0.251924	0.551616
C65	C	1.073143	-0.251914	0.634162
C66	C	1.073247	-0.115574	0.357961
C67	C	1.073309	-0.057460	0.357982
C68	C	1.073115	-0.251933	0.164958
C69	C	1.073247	-0.251795	0.082413
C70	C	1.023537	-0.286785	0.833589
C71	C	1.091289	-0.299569	0.882987
C72	C	1.073180	-0.251874	0.785292
C73	C	1.005465	-0.239076	0.882976
C74	C	1.073209	-0.251837	0.931277
C75	C	1.140967	-0.264683	0.833603
C76	C	1.055097	-0.204168	0.833588
C77	C	1.122896	-0.216933	0.882963
C78	C	1.073162	-0.251897	0.701194
C79	C	1.073235	-0.251814	1.015374
H80	H	0.619696	-0.339992	0.324080
O81	O	1.166722	-0.446600	0.264450
C82	C	1.214658	-0.414975	0.306773
H83	H	1.188424	-0.406787	0.363024
H84	H	1.269698	-0.435978	0.314995
C85	C	1.260327	-0.373172	0.196823
C86	C	1.228104	-0.363112	0.265909
H87	H	1.268625	-0.341182	0.171615
H88	H	1.228035	-0.394480	0.168308
H89	H	1.306191	-0.390676	0.203684
H90	H	1.182237	-0.345614	0.259047
H91	H	1.260389	-0.341800	0.294422
H92	H	1.164937	-0.187394	0.904505
O93	O	0.624051	-0.181668	0.258491
C94	C	0.667077	-0.143833	0.295472
H95	H	0.650284	-0.142281	0.356308
H96	H	0.728196	-0.154570	0.291060
C97	C	0.674820	-0.092005	0.184928
C98	C	0.654191	-0.090095	0.259646
H99	H	0.666876	-0.058857	0.162828
H100	H	0.645836	-0.117496	0.160012
H101	H	0.725753	-0.100955	0.181261
H102	H	0.603258	-0.081152	0.263312
H103	H	0.683168	-0.064601	0.284562
H104	H	0.948187	-0.228267	0.904665
H105	H	0.527288	-0.316580	0.449320
O106	O	1.166656	-0.554356	0.264339
C107	C	1.124434	-0.585983	0.216319
H108	H	1.068137	-0.594195	0.242447
H109	H	1.116305	-0.564970	0.161268
C110	C	1.234484	-0.627741	0.170843
C111	C	1.165342	-0.637830	0.202937
H112	H	1.259719	-0.659721	0.162585
H113	H	1.262931	-0.606431	0.203193
H114	H	1.227700	-0.610228	0.124971
H115	H	1.172127	-0.655336	0.248813
H116	H	1.136897	-0.659143	0.170595
O117	O	0.624156	-0.226309	0.494017
C118	C	0.599065	-0.175995	0.513065
H119	H	0.585178	-0.153388	0.460500
H120	H	0.547422	-0.179334	0.549097
C121	C	0.677234	-0.174829	0.620768
C122	C	0.660183	-0.147061	0.556206
H123	H	0.714932	-0.156982	0.647382
H124	H	0.694136	-0.208727	0.607937
H125	H	0.634193	-0.177609	0.650786
H126	H	0.703221	-0.144287	0.526185
H127	H	0.643289	-0.113161	0.569033
O128	O	0.979585	-1.056618	0.451582
C129	C	0.937610	-1.020819	0.493434
H130	H	0.968010	-0.981875	0.496024
H131	H	0.881222	-1.015060	0.466178
C132	C	0.889522	-1.089931	0.569289
C133	C	0.926864	-1.042101	0.572475
H134	H	0.882891	-1.103059	0.618044
H135	H	0.917800	-1.114050	0.541091
H136	H	0.842537	-1.085125	0.546572
H137	H	0.973852	-1.046908	0.595183
H138	H	0.898595	-1.017983	0.600679
O139	O	0.522895	-0.156218	0.394699
C140	C	0.479996	-0.159881	0.459751
H141	H	0.458678	-0.201491	0.466229
H142	H	0.515564	-0.149184	0.509707
C143	C	0.440067	-0.071016	0.446619
C144	C	0.413879	-0.122122	0.454573
H145	H	0.399284	-0.047724	0.443428
H146	H	0.468971	-0.068548	0.402794
H147	H	0.469707	-0.062110	0.488251
H148	H	0.384247	-0.131030	0.412937
H149	H	0.384968	-0.124591	0.498391
H150	H	0.526989	-0.275415	0.232800
O151	O	1.036678	-0.156087	0.807708
C152	C	0.965201	-0.142758	0.832834
H153	H	0.933125	-0.179802	0.846700
H154	H	0.969925	-0.117379	0.884497
C155	C	0.963469	-0.066946	0.754731
C156	C	0.924070	-0.112443	0.771756
H157	H	0.938097	-0.048244	0.717058
H158	H	1.011625	-0.075924	0.737805
H159	H	0.967402	-0.045802	0.797789
H160	H	0.920145	-0.133589	0.728701
H161	H	0.875912	-0.103468	0.788673
H162	H	1.206886	-0.702114	0.224400
O163	O	1.214430	-0.805370	0.216892
C164	C	1.256364	-0.769543	0.175030
H165	H	1.225923	-0.730642	0.172436
H166	H	1.312748	-0.763688	0.202279
C167	C	1.304515	-0.838641	0.099182
C168	C	1.267123	-0.790864	0.095991
H169	H	1.311155	-0.851793	0.050428
H170	H	1.276266	-0.862779	0.127386
H171	H	1.351498	-0.833755	0.121893
H172	H	1.220138	-0.795751	0.073289
H173	H	1.295365	-0.766727	0.067781
H174	H	1.159487	-0.953299	0.271879
H175	H	0.939401	-0.702184	0.491477
H176	H	1.159534	-1.052365	0.271902
O177	O	0.973493	-0.322087	0.807844
C178	C	0.938873	-0.347117	0.868150
H179	H	0.976122	-0.344429	0.919024
H180	H	0.883674	-0.327306	0.880324
C181	C	0.879552	-0.408151	0.786373
C182	C	0.925305	-0.404853	0.848856
H183	H	0.871180	-0.443765	0.774471
H184	H	0.902874	-0.391288	0.745743
H185	H	0.833559	-0.391639	0.796526
H186	H	0.971301	-0.421359	0.838699
H187	H	0.901991	-0.421721	0.889484
H188	H	0.939438	-0.801234	0.491487
O189	O	0.979522	-0.949007	0.451400
C190	C	0.931553	-0.917480	0.409066
H191	H	0.957781	-0.909297	0.352814
H192	H	0.876537	-0.938567	0.400847
C193	C	0.885831	-0.875661	0.519003
C194	C	0.918047	-0.865607	0.449916
H195	H	0.877496	-0.843664	0.544202
H196	H	0.918146	-0.896902	0.547525
H197	H	0.839987	-0.893235	0.512144
H198	H	0.963893	-0.848039	0.456776
H199	H	0.885739	-0.844361	0.421396
H200	H	0.986824	-0.550067	0.443991
H201	H	0.986769	-0.451001	0.443964
H202	H	1.106602	-0.339897	0.904685
O203	O	1.209266	-0.277652	0.807720
C204	C	1.208422	-0.277524	0.729614
H205	H	1.149231	-0.283338	0.709160
H206	H	1.230518	-0.238618	0.708475
C207	C	1.330310	-0.314949	0.725605
C208	C	1.257611	-0.322093	0.700482
H209	H	1.360654	-0.342440	0.707633
H210	H	1.330880	-0.315033	0.778226
H211	H	1.348713	-0.282526	0.707987
H212	H	1.239205	-0.354513	0.718107
H213	H	1.257038	-0.322016	0.647862
