data_functionalizedCrystal
_audit_creation_method	'MofGen! by Chris Wilmer'
_symmetry_space_group_name_H-M	'P1'
_symmetry_Int_Tables_number	1
_symmetry_cell_setting	triclinic
loop_
_symmetry_equiv_pos_as_xyz
  x,y,z
_cell_length_a	17.077404
_cell_length_b	13.897447
_cell_length_c	17.077404
_cell_angle_alpha	90.008559
_cell_angle_beta	90.007178
_cell_angle_gamma	90.017500
loop_
_atom_site_label
_atom_site_type_symbol
_atom_site_fract_x
_atom_site_fract_y
_atom_site_fract_z
Zn1	Zn	1.199986	-0.384234	0.443832
Zn2	Zn	1.199927	-0.545497	0.312571
Zn3	Zn	1.068744	-0.384212	0.312582
Zn4	Zn	1.068694	-0.545483	0.443797
O5	O	1.134338	-0.464857	0.378196
O6	O	1.309825	-0.405641	0.426429
O7	O	1.182521	-0.524099	0.202726
O8	O	1.086199	-0.249234	0.330012
O9	O	1.309781	-0.524121	0.329993
O10	O	1.182622	-0.249250	0.426440
O11	O	1.086141	-0.405604	0.202734
O12	O	0.958890	-0.405590	0.329978
O13	O	1.086114	-0.524096	0.553649
O14	O	0.958853	-0.524075	0.426382
O15	O	1.182574	-0.405627	0.553674
O16	O	1.182472	-0.680477	0.329960
O17	O	1.086056	-0.680467	0.426371
C18	C	0.930390	-0.464829	0.378178
C19	C	0.843140	-0.464841	0.378189
C20	C	0.802173	-0.403258	0.428480
C21	C	0.720193	-0.403265	0.428484
C22	C	0.679181	-0.464859	0.378200
C23	C	0.720153	-0.526444	0.327903
C24	C	0.802132	-0.526432	0.327896
C25	C	0.549283	-0.526466	0.327922
C26	C	0.467298	-0.526479	0.327930
C27	C	0.467344	-0.403298	0.428510
C28	C	0.549323	-0.403287	0.428503
C29	C	0.590290	-0.464873	0.378207
C30	C	1.134274	-0.715471	0.378177
C31	C	1.134318	-0.822685	0.378196
C32	C	1.134356	-0.909755	0.378214
C33	C	1.134411	-1.018987	0.378234
C34	C	1.339082	-0.464885	0.378214
C35	C	1.426332	-0.464897	0.378221
C36	C	1.134345	-0.464863	0.582940
C37	C	1.134348	-0.464865	0.670190
C38	C	1.134423	-0.213264	0.378231
C39	C	1.134459	-0.106050	0.378246
C40	C	1.184569	-0.403189	0.711194
C41	C	1.184562	-0.403187	0.793175
C42	C	1.134339	-0.464868	0.834149
C43	C	1.084112	-0.526547	0.793139
C44	C	1.084116	-0.526543	0.711160
C45	C	1.084111	-0.526554	0.964009
C46	C	1.084108	-0.526560	1.045993
C47	C	1.184557	-0.403198	1.046024
C48	C	1.184561	-0.403194	0.964045
C49	C	1.134335	-0.464874	0.923040
C50	C	1.134326	-0.464876	1.174248
C51	C	1.134329	-0.464883	1.086998
H52	H	0.835560	-0.353104	0.469430
C53	C	1.239810	-0.335340	0.838276
N54	N	1.281426	-0.284234	0.872246
H55	H	0.686841	-0.353120	0.469437
C56	C	0.422186	-0.594234	0.272614
N57	N	0.388208	-0.645268	0.230948
H58	H	0.582635	-0.576614	0.286964
H59	H	0.686754	-0.576591	0.286957
H60	H	0.433985	-0.353150	0.469462
C61	C	1.239805	-0.335348	1.091130
N62	N	1.281419	-0.284248	1.125108
C63	C	0.847195	-0.594180	0.272573
N64	N	0.881135	-0.645208	0.230901
H65	H	1.225469	-0.352964	0.677839
C66	C	1.028863	-0.594410	0.918906
N67	N	0.987255	-0.645522	0.884934
H68	H	1.225462	-0.352973	0.930685
H69	H	1.043217	-0.576765	0.826507
C70	C	1.028855	-0.594406	1.091064
N71	N	0.987236	-0.645507	1.125011
H72	H	0.582713	-0.353137	0.469454
H73	H	1.043213	-0.576757	0.677775
