data_functionalizedCrystal
_audit_creation_method	'MofGen! by Chris Wilmer'
_symmetry_space_group_name_H-M	'P1'
_symmetry_Int_Tables_number	1
_symmetry_cell_setting	triclinic
loop_
_symmetry_equiv_pos_as_xyz
  x,y,z
_cell_length_a	15.297475
_cell_length_b	16.625546
_cell_length_c	16.625539
_cell_angle_alpha	89.969603
_cell_angle_beta	80.314414
_cell_angle_gamma	80.324704
loop_
_atom_site_label
_atom_site_type_symbol
_atom_site_fract_x
_atom_site_fract_y
_atom_site_fract_z
Zn1	Zn	1.379242	-0.534655	-0.668851
Zn2	Zn	1.379134	-0.669482	-0.533997
Zn3	Zn	1.228372	-0.511313	-0.510738
Zn4	Zn	1.228339	-0.646074	-0.645504
O5	O	1.303772	-0.590381	-0.589773
O6	O	1.505475	-0.572106	-0.670468
O7	O	1.359103	-0.648528	-0.418074
O8	O	1.248444	-0.401586	-0.531749
O9	O	1.505396	-0.671162	-0.571391
O10	O	1.359288	-0.418736	-0.647914
O11	O	1.248339	-0.532322	-0.400986
O12	O	1.102120	-0.509624	-0.509110
O13	O	1.248388	-0.631266	-0.761439
O14	O	1.102096	-0.608632	-0.608122
O15	O	1.359256	-0.549408	-0.778592
O16	O	1.359071	-0.779200	-0.548752
O17	O	1.248283	-0.762002	-0.630676
C18	C	1.069373	-0.554055	-0.553559
C19	C	0.969096	-0.538534	-0.538086
C20	C	1.303686	-0.799859	-0.589726
C21	C	1.303732	-0.889487	-0.589745
C22	C	0.686482	-0.701316	-0.700364
C23	C	0.780697	-0.715905	-0.714899
C24	C	0.827802	-0.671563	-0.670697
C25	C	0.780682	-0.612631	-0.611957
C26	C	0.686458	-0.598046	-0.597416
C27	C	0.827777	-0.568293	-0.567749
C28	C	0.780657	-0.509360	-0.509009
C29	C	0.686442	-0.494777	-0.494471
C30	C	0.639338	-0.539119	-0.538672
C31	C	0.922001	-0.582878	-0.582291
C32	C	0.921977	-0.479607	-0.479343
C33	C	0.827762	-0.465019	-0.464807
C34	C	1.303890	-1.217687	-0.589854
C35	C	1.303843	-1.126371	-0.589825
C36	C	1.303810	-1.053590	-0.589799
C37	C	1.303765	-0.962268	-0.589772
C38	C	1.539086	-0.626849	-0.626128
C39	C	1.639362	-0.642389	-0.641620
C40	C	1.303830	-0.590330	-0.800091
C41	C	1.303855	-0.590308	-0.889716
C42	C	1.303882	-0.380089	-0.589841
C43	C	1.303929	-0.290475	-0.589870
C44	C	1.303897	-0.590224	-1.217898
C45	C	1.303883	-0.590250	-1.126587
C46	C	1.303877	-0.590267	-1.053810
C47	C	1.303862	-0.590291	-0.962493
C48	C	1.303765	-0.590382	-0.380281
C49	C	1.303915	-0.590203	-0.290683
H50	H	0.960357	-0.630861	-0.630118
H51	H	0.960329	-0.443502	-0.443349
H52	H	0.904516	-0.683445	-0.682536
H53	H	0.562620	-0.527242	-0.526842
Cl54	Cl	0.627208	-0.420697	-0.420619
Cl55	Cl	0.768515	-0.390935	-0.390965
H56	H	0.819055	-0.763889	-0.762724
Cl57	Cl	0.627262	-0.757070	-0.755906
