data_functionalizedCrystal
_audit_creation_method	'MofGen! by Chris Wilmer'
_symmetry_space_group_name_H-M	'P1'
_symmetry_Int_Tables_number	1
_symmetry_cell_setting	triclinic
loop_
_symmetry_equiv_pos_as_xyz
  x,y,z
_cell_length_a	6.817900
_cell_length_b	16.254434
_cell_length_c	16.418049
_cell_angle_alpha	83.901259
_cell_angle_beta	103.389670
_cell_angle_gamma	79.300613
loop_
_atom_site_label
_atom_site_type_symbol
_atom_site_fract_x
_atom_site_fract_y
_atom_site_fract_z
V1	V	-3.995011	0.261446	-0.116548
O2	O	-3.983636	0.256166	0.004920
O3	O	-3.946257	0.259950	-0.230441
O4	O	-3.932986	0.375338	-0.115054
O5	O	-3.997000	0.139978	-0.111266
V6	V	-4.480451	0.246882	-0.101984
O7	O	-4.252066	0.293393	-0.148496
O8	O	-4.673593	0.214935	-0.070036
O9	O	-4.305998	0.248378	0.011909
O10	O	-4.609222	0.252162	-0.223452
O11	O	-4.595859	0.368350	-0.107266
O12	O	-4.319269	0.132990	-0.103478
C13	C	-3.791613	0.255901	-0.258196
C14	C	-3.832947	0.255437	-0.351307
C15	C	-4.109604	0.258574	-0.569804
C16	C	-4.148429	0.258145	-0.657292
C17	C	-3.785215	0.249759	-0.648727
C18	C	-3.746395	0.250194	-0.561241
C19	C	-3.908595	0.254597	-0.521782
C20	C	-3.986240	0.253734	-0.696755
C21	C	-4.028335	0.253269	-0.791614
C22	C	-3.866499	0.255064	-0.426917
C23	C	-4.140915	0.105234	-0.107527
C24	C	-4.089585	0.012124	-0.107991
C25	C	-3.798392	-0.197826	-0.113235
C26	C	-3.750173	-0.285314	-0.113665
C27	C	-4.096459	-0.293846	-0.105293
C28	C	-4.144671	-0.206360	-0.104857
C29	C	-3.995634	-0.158352	-0.108832
C30	C	-3.899203	-0.333326	-0.109698
C31	C	-3.846923	-0.428184	-0.110164
C32	C	-4.047915	-0.063487	-0.108364
C33	C	-3.774683	0.403089	-0.111008
C34	C	-3.805251	0.496199	-0.110539
C35	C	-4.123984	0.252425	0.039660
C36	C	-4.061888	0.252895	0.132770
H37	H	-4.241680	0.262158	-0.537679
Br38	Br	-3.482478	-0.338883	-0.119639
H39	H	-4.312108	0.261385	-0.696389
H40	H	-4.217793	-0.332946	-0.102056
H41	H	-4.305293	-0.174221	-0.101269
H42	H	-3.653163	0.246172	-0.680866
H43	H	-3.582703	0.246959	-0.522140
H44	H	-3.677031	-0.158739	-0.116469
