data_functionalizedCrystal
_audit_creation_method	'MofGen! by Chris Wilmer'
_symmetry_space_group_name_H-M	'P1'
_symmetry_Int_Tables_number	1
_symmetry_cell_setting	triclinic
loop_
_symmetry_equiv_pos_as_xyz
  x,y,z
_cell_length_a	25.639239
_cell_length_b	25.639242
_cell_length_c	25.639233
_cell_angle_alpha	90.023283
_cell_angle_beta	89.981253
_cell_angle_gamma	89.966656
loop_
_atom_site_label
_atom_site_type_symbol
_atom_site_fract_x
_atom_site_fract_y
_atom_site_fract_z
Zn1	Zn	-0.208289	-0.799225	-0.295758
Zn2	Zn	0.041711	-0.549225	-0.045758
Zn3	Zn	0.291711	-0.299225	0.204242
Zn4	Zn	0.541711	-0.049225	0.454242
Zn5	Zn	-0.295708	-0.799149	-0.208322
Zn6	Zn	-0.045708	-0.549149	0.041678
Zn7	Zn	0.204292	-0.299149	0.291678
Zn8	Zn	0.454292	-0.049149	0.541678
Zn9	Zn	-0.208280	-0.711801	-0.208320
Zn10	Zn	0.041720	-0.461801	0.041680
Zn11	Zn	0.291720	-0.211801	0.291680
Zn12	Zn	0.541720	0.038199	0.541680
Zn13	Zn	-0.295687	-0.711746	-0.295710
Zn14	Zn	-0.045687	-0.461746	-0.045710
Zn15	Zn	0.204313	-0.211746	0.204290
Zn16	Zn	0.454313	0.038254	0.454290
O17	O	-0.251991	-0.755480	-0.252028
O18	O	-0.001991	-0.505480	-0.002028
O19	O	0.248009	-0.255480	0.247972
O20	O	0.498009	-0.005480	0.497972
O21	O	-0.219898	-0.872380	-0.284180
O22	O	0.030102	-0.622380	-0.034180
O23	O	0.280102	-0.372380	0.215820
O24	O	0.530102	-0.122380	0.465820
O25	O	-0.284115	-0.787553	-0.135157
O26	O	-0.034115	-0.537553	0.114843
O27	O	0.215885	-0.287553	0.364843
O28	O	0.465885	-0.037553	0.614843
O29	O	-0.135116	-0.723453	-0.219938
O30	O	0.114884	-0.473453	0.030062
O31	O	0.364884	-0.223453	0.280062
O32	O	0.614884	0.026547	0.530062
O33	O	-0.284124	-0.872324	-0.219941
O34	O	-0.034124	-0.622324	0.030059
O35	O	0.215876	-0.372324	0.280059
O36	O	0.465876	-0.122324	0.530059
O37	O	-0.135122	-0.787683	-0.284178
O38	O	0.114878	-0.537683	-0.034178
O39	O	0.364878	-0.287683	0.215822
O40	O	0.614878	-0.037683	0.465822
O41	O	-0.219882	-0.723379	-0.135155
O42	O	0.030118	-0.473379	0.114845
O43	O	0.280118	-0.223379	0.364845
O44	O	0.530118	0.026621	0.614845
O45	O	-0.219862	-0.638629	-0.219892
O46	O	0.030138	-0.388629	0.030108
O47	O	0.280138	-0.138629	0.280108
O48	O	0.530138	0.111371	0.530108
O49	O	-0.284089	-0.723360	-0.368882
O50	O	-0.034089	-0.473360	-0.118882
O51	O	0.215911	-0.223360	0.131118
O52	O	0.465911	0.026640	0.381118
O53	O	-0.284080	-0.638589	-0.284097
O54	O	-0.034080	-0.388589	-0.034097
O55	O	0.215920	-0.138589	0.215903
O56	O	0.465920	0.111411	0.465903
O57	O	-0.219878	-0.787630	-0.368917
O58	O	0.030122	-0.537630	-0.118917
O59	O	0.280122	-0.287630	0.131083
O60	O	0.530122	-0.037630	0.381083
O61	O	-0.368870	-0.787499	-0.219895
O62	O	-0.118870	-0.537499	0.030105
O63	O	0.131130	-0.287499	0.280105
O64	O	0.381130	-0.037499	0.530105
O65	O	-0.368855	-0.723286	-0.284099
O66	O	-0.118855	-0.473286	-0.034099
O67	O	0.131145	-0.223286	0.215901
O68	O	0.381145	0.026714	0.465901
C69	C	-0.251968	-0.619638	-0.251990
C70	C	-0.001968	-0.369638	-0.001990
C71	C	0.248032	-0.119638	0.248010
C72	C	0.498032	0.130362	0.498010
C73	C	-0.251971	-0.561524	-0.251986
C74	C	-0.001971	-0.311524	-0.001986
C75	C	0.248029	-0.061524	0.248014
C76	C	0.498029	0.188476	0.498014
C77	C	-0.218495	-0.310343	-0.218641
C78	C	0.031505	-0.060343	0.031359
C79	C	0.281505	0.189657	0.281359
C80	C	0.531505	0.439657	0.531359
C81	C	-0.218490	-0.364947	-0.218636
C82	C	0.031510	-0.114947	0.031364
C83	C	0.281510	0.135053	0.281364
C84	C	0.531510	0.385053	0.531364
O85	O	-0.189998	-0.393194	-0.190262
O86	O	0.060002	-0.143194	0.059738
O87	O	0.310002	0.106806	0.309738
O88	O	0.560002	0.356806	0.559738
N89	N	-0.251977	-0.392250	-0.252007
N90	N	-0.001977	-0.142250	-0.002007
N91	N	0.248023	0.107750	0.247993
N92	N	0.498023	0.357750	0.497993
C93	C	-0.285466	-0.364946	-0.285389
C94	C	-0.035466	-0.114946	-0.035389
C95	C	0.214534	0.135054	0.214611
C96	C	0.464534	0.385054	0.464611
O97	O	-0.313948	-0.393183	-0.313774
O98	O	-0.063948	-0.143183	-0.063774
O99	O	0.186052	0.106817	0.186226
O100	O	0.436052	0.356817	0.436226
C101	C	-0.285468	-0.310342	-0.285397
C102	C	-0.035468	-0.060342	-0.035397
C103	C	0.214532	0.189658	0.214603
C104	C	0.464532	0.439658	0.464603
C105	C	-0.251983	-0.283042	-0.252019
C106	C	-0.001983	-0.033042	-0.002019
C107	C	0.248017	0.216958	0.247981
C108	C	0.498017	0.466958	0.497981
C109	C	-0.185013	-0.283042	-0.185266
C110	C	0.064987	-0.033042	0.064734
C111	C	0.314987	0.216958	0.314734
C112	C	0.564987	0.466958	0.564734
C113	C	-0.185018	-0.228442	-0.185271
C114	C	0.064982	0.021558	0.064729
C115	C	0.314982	0.271558	0.314729
C116	C	0.564982	0.521558	0.564729
C117	C	-0.218506	-0.201141	-0.218650
C118	C	0.031494	0.048859	0.031350
C119	C	0.281494	0.298859	0.281350
C120	C	0.531494	0.548859	0.531350
C121	C	-0.251988	-0.228442	-0.252024
C122	C	-0.001988	0.021558	-0.002024
C123	C	0.248012	0.271558	0.247976
C124	C	0.498012	0.521558	0.497976
C125	C	-0.318954	-0.283039	-0.318781
C126	C	-0.068954	-0.033039	-0.068781
C127	C	0.181046	0.216961	0.181219
C128	C	0.431046	0.466961	0.431219
C129	C	-0.318953	-0.228432	-0.318786
C130	C	-0.068953	0.021568	-0.068786
C131	C	0.181047	0.271568	0.181214
C132	C	0.431047	0.521568	0.431214
C133	C	-0.285468	-0.201132	-0.285409
C134	C	-0.035468	0.048868	-0.035409
C135	C	0.214532	0.298868	0.214591
C136	C	0.464532	0.548868	0.464591
C137	C	-0.285482	-0.146541	-0.285407
C138	C	-0.035482	0.103459	-0.035407
C139	C	0.214518	0.353459	0.214593
C140	C	0.464518	0.603459	0.464593
N141	N	-0.251995	-0.119238	-0.252035
N142	N	-0.001995	0.130762	-0.002035
N143	N	0.248005	0.380762	0.247965
N144	N	0.498005	0.630762	0.497965
C145	C	-0.218508	-0.146538	-0.218657
C146	C	0.031492	0.103462	0.031343
C147	C	0.281492	0.353462	0.281343
C148	C	0.531492	0.603462	0.531343
C149	C	-0.285460	-0.479616	-0.285372
C150	C	-0.035460	-0.229616	-0.035372
C151	C	0.214540	0.020384	0.214628
C152	C	0.464540	0.270384	0.464628
C153	C	-0.285461	-0.534219	-0.285363
C154	C	-0.035461	-0.284219	-0.035363
C155	C	0.214539	-0.034219	0.214637
C156	C	0.464539	0.215781	0.464637
C157	C	-0.218485	-0.534216	-0.218609
C158	C	0.031515	-0.284216	0.031391
C159	C	0.281515	-0.034216	0.281391
C160	C	0.531515	0.215784	0.531391
C161	C	-0.218486	-0.479613	-0.218617
C162	C	0.031514	-0.229613	0.031383
C163	C	0.281514	0.020387	0.281383
C164	C	0.531514	0.270387	0.531383
C165	C	-0.251973	-0.452313	-0.252001
C166	C	-0.001973	-0.202313	-0.002001
C167	C	0.248027	0.047687	0.247999
C168	C	0.498027	0.297687	0.497999
C169	C	-0.218522	-0.031873	-0.218668
C170	C	0.031478	0.218127	0.031332
C171	C	0.281478	0.468127	0.281332
C172	C	0.531478	0.718127	0.531332
C173	C	-0.218532	0.022732	-0.218674
C174	C	0.031468	0.272732	0.031326
C175	C	0.281468	0.522732	0.281326
C176	C	0.531468	0.772732	0.531326
C177	C	-0.285506	0.022725	-0.285429
C178	C	-0.035506	0.272725	-0.035429
C179	C	0.214494	0.522725	0.214571
C180	C	0.464494	0.772725	0.464571
C181	C	-0.285498	-0.031876	-0.285422
C182	C	-0.035498	0.218124	-0.035422
C183	C	0.214502	0.468124	0.214578
C184	C	0.464502	0.718124	0.464578
C185	C	-0.252002	-0.059173	-0.252039
C186	C	-0.002002	0.190827	-0.002039
C187	C	0.247998	0.440827	0.247961
C188	C	0.497998	0.690827	0.497961
O189	O	-0.313958	-0.118259	-0.313767
O190	O	-0.063958	0.131741	-0.063767
O191	O	0.186042	0.381741	0.186233
O192	O	0.436042	0.631741	0.436233
O193	O	-0.190025	-0.118294	-0.190282
O194	O	0.059975	0.131706	0.059718
O195	O	0.309975	0.381706	0.309718
O196	O	0.559975	0.631706	0.559718
C197	C	-0.387833	-0.755392	-0.252004
C198	C	-0.137833	-0.505392	-0.002004
C199	C	0.112167	-0.255392	0.247996
C200	C	0.362167	-0.005392	0.497996
C201	C	-0.445947	-0.755403	-0.252011
C202	C	-0.195947	-0.505403	-0.002011
C203	C	0.054053	-0.255403	0.247989
C204	C	0.304053	-0.005403	0.497989
C205	C	-0.806306	-0.789004	-0.218654
C206	C	-0.556306	-0.539004	0.031346
C207	C	-0.306306	-0.289004	0.281346
C208	C	-0.056306	-0.039004	0.531346
C209	C	-0.860910	-0.789024	-0.218661
C210	C	-0.610910	-0.539024	0.031339
C211	C	-0.360910	-0.289024	0.281339
C212	C	-0.110910	-0.039024	0.531339
O213	O	-0.889143	-0.817502	-0.190273
O214	O	-0.639143	-0.567502	0.059727
O215	O	-0.389143	-0.317502	0.309727
O216	O	-0.139143	-0.067502	0.559727
N217	N	-0.888230	-0.755572	-0.252062
N218	N	-0.638230	-0.505572	-0.002062
N219	N	-0.388230	-0.255572	0.247938
N220	N	-0.138230	-0.005572	0.497938
C221	C	-0.860943	-0.722102	-0.285463
C222	C	-0.610943	-0.472102	-0.035463
C223	C	-0.360943	-0.222102	0.214537
C224	C	-0.110943	0.027898	0.464537
O225	O	-0.889194	-0.693651	-0.313874
O226	O	-0.639194	-0.443651	-0.063874
O227	O	-0.389194	-0.193651	0.186126
O228	O	-0.139194	0.056349	0.436126
C229	C	-0.806339	-0.722085	-0.285458
C230	C	-0.556339	-0.472085	-0.035458
C231	C	-0.306339	-0.222085	0.214542
C232	C	-0.056339	0.027915	0.464542
C233	C	-0.779022	-0.755535	-0.252051
C234	C	-0.529022	-0.505535	-0.002051
C235	C	-0.279022	-0.255535	0.247949
C236	C	-0.029022	-0.005535	0.497949
C237	C	-0.778989	-0.822452	-0.185249
C238	C	-0.528989	-0.572452	0.064751
C239	C	-0.278989	-0.322452	0.314751
C240	C	-0.028989	-0.072452	0.564751
C241	C	-0.724388	-0.822431	-0.185242
C242	C	-0.474388	-0.572431	0.064758
C243	C	-0.224388	-0.322431	0.314758
C244	C	0.025612	-0.072431	0.564758
C245	C	-0.697105	-0.788962	-0.218639
C246	C	-0.447105	-0.538962	0.031361
C247	C	-0.197105	-0.288962	0.281361
C248	C	0.052895	-0.038962	0.531361
C249	C	-0.724422	-0.755514	-0.252043
C250	C	-0.474422	-0.505514	-0.002043
C251	C	-0.224422	-0.255514	0.247957
C252	C	0.025578	-0.005514	0.497957
C253	C	-0.779053	-0.688617	-0.318861
C254	C	-0.529053	-0.438617	-0.068861
C255	C	-0.279053	-0.188617	0.181139
C256	C	-0.029053	0.061383	0.431139
C257	C	-0.724446	-0.688603	-0.318853
C258	C	-0.474446	-0.438603	-0.068853
C259	C	-0.224446	-0.188603	0.181147
C260	C	0.025554	0.061397	0.431147
C261	C	-0.697129	-0.722053	-0.285446
C262	C	-0.447129	-0.472053	-0.035446
C263	C	-0.197129	-0.222053	0.214554
C264	C	0.052871	0.027947	0.464554
C265	C	-0.642538	-0.722024	-0.285432
C266	C	-0.392538	-0.472024	-0.035432
C267	C	-0.142538	-0.222024	0.214568
C268	C	0.107462	0.027976	0.464568
N269	N	-0.615218	-0.755475	-0.252031
N270	N	-0.365218	-0.505475	-0.002031
N271	N	-0.115218	-0.255475	0.247969
N272	N	0.134782	-0.005475	0.497969
C273	C	-0.642501	-0.788944	-0.218634
C274	C	-0.392501	-0.538944	0.031366
C275	C	-0.142501	-0.288944	0.281366
C276	C	0.107499	-0.038944	0.531366
C277	C	-0.975613	-0.722141	-0.285471
C278	C	-0.725613	-0.472141	-0.035471
C279	C	-0.475613	-0.222141	0.214529
C280	C	-0.225613	0.027859	0.464529
C281	C	-1.030215	-0.722155	-0.285473
C282	C	-0.780215	-0.472155	-0.035473
C283	C	-0.530215	-0.222155	0.214527
C284	C	-0.280215	0.027845	0.464527
C285	C	-1.030179	-0.789078	-0.218672
C286	C	-0.780179	-0.539078	0.031328
C287	C	-0.530179	-0.289078	0.281328
C288	C	-0.280179	-0.039078	0.531328
C289	C	-0.975576	-0.789061	-0.218667
C290	C	-0.725576	-0.539061	0.031333
C291	C	-0.475576	-0.289061	0.281333
C292	C	-0.225576	-0.039061	0.531333
C293	C	-0.948293	-0.755593	-0.252069
C294	C	-0.698293	-0.505593	-0.002069
C295	C	-0.448293	-0.255593	0.247931
C296	C	-0.198293	-0.005593	0.497931
C297	C	-0.527836	-0.788897	-0.218620
C298	C	-0.277836	-0.538897	0.031380
C299	C	-0.027836	-0.288897	0.281380
C300	C	0.222164	-0.038897	0.531380
C301	C	-0.473231	-0.788872	-0.218614
C302	C	-0.223231	-0.538872	0.031386
C303	C	0.026769	-0.288872	0.281386
C304	C	0.276769	-0.038872	0.531386
C305	C	-0.473272	-0.721951	-0.285417
C306	C	-0.223272	-0.471951	-0.035417
C307	C	0.026728	-0.221951	0.214583
C308	C	0.276728	0.028049	0.464583
C309	C	-0.527873	-0.721974	-0.285422
C310	C	-0.277873	-0.471974	-0.035422
C311	C	-0.027873	-0.221974	0.214578
C312	C	0.222127	0.028026	0.464578
C313	C	-0.555153	-0.755452	-0.252021
C314	C	-0.305153	-0.505452	-0.002021
C315	C	-0.055153	-0.255452	0.247979
C316	C	0.194847	-0.005452	0.497979
O317	O	-0.614270	-0.693562	-0.313807
O318	O	-0.364270	-0.443562	-0.063807
O319	O	-0.114270	-0.193562	0.186193
O320	O	0.135730	0.056438	0.436193
O321	O	-0.614243	-0.817396	-0.190232
O322	O	-0.364243	-0.567396	0.059768
O323	O	-0.114243	-0.317396	0.309768
O324	O	0.135757	-0.067396	0.559768
C325	C	-0.115618	-0.755583	-0.252063
C326	C	0.134382	-0.505583	-0.002063
C327	C	0.384382	-0.255583	0.247937
C328	C	0.634382	-0.005583	0.497937
C329	C	-0.057504	-0.755627	-0.252078
C330	C	0.192496	-0.505627	-0.002078
C331	C	0.442496	-0.255627	0.247922
C332	C	0.692496	-0.005627	0.497922
C333	C	-0.251982	-0.755497	-0.388401
C334	C	-0.001982	-0.505497	-0.138401
C335	C	0.248018	-0.255497	0.111599
C336	C	0.498018	-0.005497	0.361599
C337	C	-0.251978	-0.755504	-0.446515
C338	C	-0.001978	-0.505504	-0.196515
C339	C	0.248022	-0.255504	0.053485
C340	C	0.498022	-0.005504	0.303485
C341	C	-0.252013	0.108147	-0.252059
C342	C	-0.002013	0.358147	-0.002059
C343	C	0.247987	0.608147	0.247941
C344	C	0.497987	0.858147	0.497941
C345	C	-0.252020	0.050033	-0.252053
C346	C	-0.002020	0.300033	-0.002053
C347	C	0.247980	0.550033	0.247947
C348	C	0.497980	0.800033	0.497947
C349	C	-0.218444	-0.789012	-0.806902
C350	C	0.031556	-0.539012	-0.556902
C351	C	0.281556	-0.289012	-0.306902
C352	C	0.531556	-0.039012	-0.056902
C353	C	-0.218429	-0.789019	-0.861506
C354	C	0.031571	-0.539019	-0.611506
C355	C	0.281571	-0.289019	-0.361506
C356	C	0.531571	-0.039019	-0.111506
O357	O	-0.189979	-0.817466	-0.889763
O358	O	0.060021	-0.567466	-0.639763
O359	O	0.310021	-0.317466	-0.389763
O360	O	0.560021	-0.067466	-0.139763
N361	N	-0.251855	-0.755562	-0.888797
N362	N	-0.001855	-0.505562	-0.638797
N363	N	0.248145	-0.255562	-0.388797
N364	N	0.498145	-0.005562	-0.138797
C365	C	-0.285294	-0.722093	-0.861482
C366	C	-0.035294	-0.472093	-0.611482
C367	C	0.214706	-0.222093	-0.361482
C368	C	0.464706	0.027907	-0.111482
O369	O	-0.313724	-0.693636	-0.889709
O370	O	-0.063724	-0.443636	-0.639709
O371	O	0.186276	-0.193636	-0.389709
O372	O	0.436276	0.056364	-0.139709
C373	C	-0.285305	-0.722084	-0.806878
C374	C	-0.035305	-0.472084	-0.556878
C375	C	0.214695	-0.222084	-0.306878
C376	C	0.464695	0.027916	-0.056878
C377	C	-0.251881	-0.755547	-0.779590
C378	C	-0.001881	-0.505547	-0.529590
C379	C	0.248119	-0.255547	-0.279590
C380	C	0.498119	-0.005547	-0.029590
C381	C	-0.185022	-0.822472	-0.779613
C382	C	0.064978	-0.572472	-0.529613
C383	C	0.314978	-0.322472	-0.279613
C384	C	0.564978	-0.072472	-0.029613
C385	C	-0.185037	-0.822466	-0.725013
C386	C	0.064963	-0.572466	-0.475013
C387	C	0.314963	-0.322466	-0.225013
C388	C	0.564963	-0.072466	0.024987
C389	C	-0.218474	-0.789000	-0.697701
C390	C	0.031526	-0.539000	-0.447701
C391	C	0.281526	-0.289000	-0.197701
C392	C	0.531526	-0.039000	0.052299
C393	C	-0.251896	-0.755541	-0.724989
C394	C	-0.001896	-0.505541	-0.474989
C395	C	0.248104	-0.255541	-0.224989
C396	C	0.498104	-0.005541	0.025011
C397	C	-0.318741	-0.688613	-0.779563
C398	C	-0.068741	-0.438613	-0.529563
C399	C	0.181259	-0.188613	-0.279563
C400	C	0.431259	0.061387	-0.029563
C401	C	-0.318749	-0.688607	-0.724956
C402	C	-0.068749	-0.438607	-0.474956
C403	C	0.181251	-0.188607	-0.224956
C404	C	0.431251	0.061393	0.025044
C405	C	-0.285325	-0.722069	-0.697668
C406	C	-0.035325	-0.472069	-0.447668
C407	C	0.214675	-0.222069	-0.197668
C408	C	0.464675	0.027931	0.052332
C409	C	-0.285349	-0.722070	-0.643077
C410	C	-0.035349	-0.472070	-0.393077
C411	C	0.214651	-0.222070	-0.143077
C412	C	0.464651	0.027930	0.106923
N413	N	-0.251923	-0.755526	-0.615785
N414	N	-0.001923	-0.505526	-0.365785
N415	N	0.248077	-0.255526	-0.115785
N416	N	0.498077	-0.005526	0.134215
C417	C	-0.218486	-0.788992	-0.643097
C418	C	0.031514	-0.538992	-0.393097
C419	C	0.281514	-0.288992	-0.143097
C420	C	0.531514	-0.038992	0.106903
C421	C	-0.285267	-0.722113	-0.976152
C422	C	-0.035267	-0.472113	-0.726152
C423	C	0.214733	-0.222113	-0.476152
C424	C	0.464733	0.027887	-0.226152
C425	C	-0.285258	-0.722124	-1.030755
C426	C	-0.035258	-0.472124	-0.780755
C427	C	0.214742	-0.222124	-0.530755
C428	C	0.464742	0.027876	-0.280755
C429	C	-0.218393	-0.789049	-1.030775
C430	C	0.031607	-0.539049	-0.780775
C431	C	0.281607	-0.289049	-0.530775
C432	C	0.531607	-0.039049	-0.280775
C433	C	-0.218404	-0.789041	-0.976172
C434	C	0.031596	-0.539041	-0.726172
C435	C	0.281596	-0.289041	-0.476172
C436	C	0.531596	-0.039041	-0.226172
C437	C	-0.251841	-0.755570	-0.948861
C438	C	-0.001841	-0.505570	-0.698861
C439	C	0.248159	-0.255570	-0.448861
C440	C	0.498159	-0.005570	-0.198861
C441	C	-0.218521	-0.788977	-0.528432
C442	C	0.031479	-0.538977	-0.278432
C443	C	0.281479	-0.288977	-0.028432
C444	C	0.531479	-0.038977	0.221568
C445	C	-0.218540	-0.788970	-0.473827
C446	C	0.031460	-0.538970	-0.223827
C447	C	0.281460	-0.288970	0.026173
C448	C	0.531460	-0.038970	0.276173
C449	C	-0.285404	-0.722043	-0.473811
C450	C	-0.035404	-0.472043	-0.223811
C451	C	0.214596	-0.222043	0.026189
C452	C	0.464596	0.027957	0.276189
C453	C	-0.285386	-0.722052	-0.528411
C454	C	-0.035386	-0.472052	-0.278411
C455	C	0.214614	-0.222052	-0.028411
C456	C	0.464614	0.027948	0.221589
C457	C	-0.251940	-0.755521	-0.555721
C458	C	-0.001940	-0.505521	-0.305721
C459	C	0.248060	-0.255521	-0.055721
C460	C	0.498060	-0.005521	0.194279
O461	O	-0.313783	-0.693635	-0.614785
O462	O	-0.063783	-0.443635	-0.364785
O463	O	0.186217	-0.193635	-0.114785
O464	O	0.436217	0.056365	0.135215
O465	O	-0.190056	-0.817439	-0.614863
O466	O	0.059944	-0.567439	-0.364863
O467	O	0.309944	-0.317439	-0.114863
O468	O	0.559944	-0.067439	0.135137
C469	C	-0.251962	-0.755494	-0.116185
C470	C	-0.001962	-0.505494	0.133815
C471	C	0.248038	-0.255494	0.383815
C472	C	0.498038	-0.005494	0.633815
C473	C	-0.251819	-0.755588	-0.058071
C474	C	-0.001819	-0.505588	0.191929
C475	C	0.248181	-0.255588	0.441929
C476	C	0.498181	-0.005588	0.691929
H477	H	-0.191218	-0.457388	-0.191440
H478	H	0.058782	-0.207388	0.058560
H479	H	0.308782	0.042612	0.308560
H480	H	0.558782	0.292612	0.558560
Br481	Br	-0.173087	0.059779	-0.173372
Br482	Br	0.076913	0.309779	0.076628
Br483	Br	0.326913	0.559779	0.326628
Br484	Br	0.576913	0.809779	0.576628
H485	H	-0.312482	-0.694881	-1.052968
H486	H	-0.062482	-0.444881	-0.802968
H487	H	0.187518	-0.194881	-0.552968
H488	H	0.437518	0.055119	-0.302968
Br489	Br	-0.564947	-0.676565	-0.330748
Br490	Br	-0.314947	-0.426565	-0.080748
Br491	Br	-0.064947	-0.176565	0.169252
Br492	Br	0.185053	0.073435	0.419252
Br493	Br	-1.067282	-0.676749	-0.330806
Br494	Br	-0.817282	-0.426749	-0.080806
Br495	Br	-0.567282	-0.176749	0.169194
Br496	Br	-0.317282	0.073251	0.419194
H497	H	-0.345959	-0.661364	-0.801772
H498	H	-0.095959	-0.411364	-0.551772
H499	H	0.154041	-0.161364	-0.301772
H500	H	0.404041	0.088636	-0.051772
H501	H	-0.345973	-0.661345	-0.702723
H502	H	-0.095973	-0.411345	-0.452723
H503	H	0.154027	-0.161345	-0.202723
H504	H	0.404027	0.088655	0.047277
Br505	Br	-0.330780	-0.676627	-0.436734
Br506	Br	-0.080780	-0.426627	-0.186734
Br507	Br	0.169220	-0.176627	0.063266
Br508	Br	0.419220	0.073373	0.313266
H509	H	-0.801197	-0.849709	-0.158054
H510	H	-0.551197	-0.599709	0.091946
H511	H	-0.301197	-0.349709	0.341946
H512	H	-0.051197	-0.099709	0.591946
H513	H	-0.312608	-0.694809	-0.550631
H514	H	-0.062608	-0.444809	-0.300631
H515	H	0.187392	-0.194809	-0.050631
H516	H	0.437392	0.055191	0.199369
H517	H	-0.312773	0.044963	-0.312603
H518	H	-0.062773	0.294963	-0.062603
H519	H	0.187227	0.544963	0.187397
H520	H	0.437227	0.794963	0.437397
Br521	Br	-0.938592	-0.676712	-0.330803
Br522	Br	-0.688592	-0.426712	-0.080803
Br523	Br	-0.438592	-0.176712	0.169197
Br524	Br	-0.188592	0.073288	0.419197
Br525	Br	-0.173041	-0.834456	-0.939143
Br526	Br	0.076959	-0.584456	-0.689143
Br527	Br	0.326959	-0.334456	-0.439143
Br528	Br	0.576959	-0.084456	-0.189143
H529	H	-0.191243	-0.054092	-0.191488
H530	H	0.058757	0.195908	0.058512
H531	H	0.308757	0.445908	0.308512
H532	H	0.558757	0.695908	0.558512
Br533	Br	-0.139567	-0.191400	-0.139976
Br534	Br	0.110433	0.058600	0.110024
Br535	Br	0.360433	0.308600	0.360024
Br536	Br	0.610433	0.558600	0.610024
H537	H	-0.191216	-0.556454	-0.191432
H538	H	0.058784	-0.306454	0.058568
H539	H	0.308784	-0.056454	0.308568
H540	H	0.558784	0.193546	0.558568
Br541	Br	-0.330916	-0.571262	-0.330653
Br542	Br	-0.080916	-0.321262	-0.080653
Br543	Br	0.169084	-0.071262	0.169347
Br544	Br	0.419084	0.178738	0.419347
Br545	Br	-0.139556	-0.320082	-0.139962
Br546	Br	0.110444	-0.070082	0.110038
Br547	Br	0.360444	0.179918	0.360038
Br548	Br	0.610444	0.429918	0.610038
H549	H	-0.312733	-0.457393	-0.312556
H550	H	-0.062733	-0.207393	-0.062556
H551	H	0.187267	0.042607	0.187444
H552	H	0.437267	0.292607	0.437444
Br553	Br	-0.938509	-0.834459	-0.173326
Br554	Br	-0.688509	-0.584459	0.076674
Br555	Br	-0.438509	-0.334459	0.326674
Br556	Br	-0.188509	-0.084459	0.576674
H557	H	-0.550042	-0.816159	-0.191424
H558	H	-0.300042	-0.566159	0.058576
H559	H	-0.050042	-0.316159	0.308576
H560	H	0.199958	-0.066159	0.558576
H561	H	-0.450991	-0.816111	-0.191408
H562	H	-0.200991	-0.566111	0.058592
H563	H	0.049009	-0.316111	0.308592
H564	H	0.299009	-0.066111	0.558592
Br565	Br	-0.816112	-0.643223	-0.364208
Br566	Br	-0.566112	-0.393223	-0.114208
Br567	Br	-0.316112	-0.143223	0.135792
Br568	Br	-0.066112	0.106777	0.385792
H569	H	-1.052404	-0.816333	-0.191480
H570	H	-0.802404	-0.566333	0.058520
H571	H	-0.552404	-0.316333	0.308520
H572	H	-0.302404	-0.066333	0.558520
H573	H	-0.191284	-0.816229	-0.550661
H574	H	0.058716	-0.566229	-0.300661
H575	H	0.308716	-0.316229	-0.050661
H576	H	0.558716	-0.066229	0.199339
Br577	Br	-0.687324	-0.867838	-0.139908
Br578	Br	-0.437324	-0.617838	0.110092
Br579	Br	-0.187324	-0.367838	0.360092
Br580	Br	0.062676	-0.117838	0.610092
H581	H	-0.191165	-0.816298	-1.053023
H582	H	0.058835	-0.566298	-0.803023
H583	H	0.308835	-0.316298	-0.553023
H584	H	0.558835	-0.066298	-0.303023
Br585	Br	-0.687422	-0.643181	-0.364190
Br586	Br	-0.437422	-0.393181	-0.114190
Br587	Br	-0.187422	-0.143181	0.135810
Br588	Br	0.062578	0.106819	0.385810
H589	H	-0.346222	-0.305258	-0.345960
H590	H	-0.096222	-0.055258	-0.095960
H591	H	0.153778	0.194742	0.154040
H592	H	0.403778	0.444742	0.404040
Br593	Br	-0.364400	-0.191386	-0.364098
Br594	Br	-0.114400	0.058614	-0.114098
Br595	Br	0.135600	0.308614	0.135902
Br596	Br	0.385600	0.558614	0.385902
H597	H	-0.451049	-0.694699	-0.312607
H598	H	-0.201049	-0.444699	-0.062607
H599	H	0.048951	-0.194699	0.187393
H600	H	0.298951	0.055301	0.437393
H601	H	-0.191322	-0.816221	-0.451611
H602	H	0.058678	-0.566221	-0.201611
H603	H	0.308678	-0.316221	0.048389
H604	H	0.558678	-0.066221	0.298389
Br605	Br	-0.330949	-0.068927	-0.330713
Br606	Br	-0.080949	0.181073	-0.080713
Br607	Br	0.169051	0.431073	0.169287
Br608	Br	0.419051	0.681073	0.419287
H609	H	-0.157818	-0.849714	-0.702799
H610	H	0.092182	-0.599714	-0.452799
H611	H	0.342182	-0.349714	-0.202799
H612	H	0.592182	-0.099714	0.047201
H613	H	-0.157790	-0.849723	-0.801845
H614	H	0.092210	-0.599723	-0.551845
H615	H	0.342210	-0.349723	-0.301845
H616	H	0.592210	-0.099723	-0.051845
H617	H	-0.312498	-0.694857	-0.953919
H618	H	-0.062498	-0.444857	-0.703919
H619	H	0.187502	-0.194857	-0.453919
H620	H	0.437502	0.055143	-0.203919
