data_functionalizedCrystal
_audit_creation_method	'MofGen! by Chris Wilmer'
_symmetry_space_group_name_H-M	'P1'
_symmetry_Int_Tables_number	1
_symmetry_cell_setting	triclinic
loop_
_symmetry_equiv_pos_as_xyz
  x,y,z
_cell_length_a	10.654534
_cell_length_b	10.654549
_cell_length_c	9.730223
_cell_angle_alpha	90.003420
_cell_angle_beta	89.995923
_cell_angle_gamma	95.518409
loop_
_atom_site_label
_atom_site_type_symbol
_atom_site_fract_x
_atom_site_fract_y
_atom_site_fract_z
O1	O	-1.667850	0.176303	0.114313
O2	O	-1.302369	0.193130	0.114309
O3	O	-1.493513	0.001977	0.114305
O4	O	-1.476707	0.367456	0.114317
O5	O	-1.493501	0.001972	-0.114275
O6	O	-1.302357	0.193125	-0.114270
O7	O	-1.667838	0.176298	-0.114267
Zn8	Zn	-1.485096	0.184711	-0.150561
Zn9	Zn	-1.485112	0.184718	0.150603
O10	O	-1.476694	0.367451	-0.114263
C11	C	-1.255565	0.191896	0.000019
C12	C	-1.116121	0.188212	0.000018
C13	C	-1.050609	0.186475	-0.124584
C14	C	-0.919589	0.182993	-0.124587
C15	C	-0.919603	0.182990	0.124624
C16	C	-1.050622	0.186464	0.124625
C17	C	-1.492273	-0.044824	0.000017
C18	C	-1.488581	-0.184267	0.000021
C19	C	-0.714641	0.177542	0.000020
C20	C	-0.854082	0.181257	0.000013
C21	C	-1.597646	-0.394788	0.000032
C22	C	-1.601124	-0.263767	0.000021
C23	C	-1.372553	-0.235792	0.000018
C24	C	-1.369076	-0.366811	0.000020
C25	C	-1.477934	0.414252	0.000028
C26	C	-1.481626	0.553695	0.000033
N27	N	-1.485094	0.184705	-0.356097
C28	C	-1.569761	0.100099	-0.428025
C29	C	-1.569774	0.100099	-0.571908
C30	C	-1.400447	0.269324	-0.571923
C31	C	-1.400429	0.269316	-0.428042
N32	N	-1.485124	0.184713	0.356139
H33	H	-0.866258	0.181568	0.226075
H34	H	-1.695598	-0.221829	0.000017
H35	H	-0.866255	0.181579	-0.226050
H36	H	-1.331517	0.338214	-0.630515
Cl37	Cl	-1.223211	-0.431580	0.000013
Cl38	Cl	-1.132987	0.188638	0.281280
H39	H	-1.280919	-0.171052	0.000011
H40	H	-1.331477	0.338214	-0.369475
H41	H	-1.103934	0.187899	-0.226047
H42	H	-1.689292	-0.459509	0.000043
Cl43	Cl	-1.676191	-0.006275	-0.337585
H44	H	-1.638716	0.031203	-0.630468
