data_functionalizedCrystal
_audit_creation_method	'MofGen! by Chris Wilmer'
_symmetry_space_group_name_H-M	'P1'
_symmetry_Int_Tables_number	1
_symmetry_cell_setting	triclinic
loop_
_symmetry_equiv_pos_as_xyz
  x,y,z
_cell_length_a	27.440280
_cell_length_b	27.440280
_cell_length_c	27.440280
_cell_angle_alpha	119.994654
_cell_angle_beta	89.990946
_cell_angle_gamma	60.004534
loop_
_atom_site_label
_atom_site_type_symbol
_atom_site_fract_x
_atom_site_fract_y
_atom_site_fract_z
Zr1	Zr	0.469568	0.533327	0.063884
O2	O	0.391760	0.634989	0.141703
O3	O	0.493411	0.431666	0.040030
O4	O	0.493421	0.533315	0.141691
O5	O	0.391753	0.533349	-0.040152
O6	O	0.573624	0.533306	0.141681
O7	O	0.391750	0.533339	0.040041
O8	O	0.573607	0.351473	-0.040173
O9	O	0.391770	0.715181	0.141702
O10	O	0.563446	0.473473	0.029848
O11	O	0.503593	0.473488	-0.029992
O12	O	0.503605	0.593167	0.089701
O13	O	0.443752	0.593181	0.029861
Zr14	Zr	0.597486	0.533327	-0.064031
Zr15	Zr	0.597482	0.533312	0.063868
Zr16	Zr	0.469572	0.533342	-0.064015
Zr17	Zr	0.469585	0.661225	0.063883
Zr18	Zr	0.597470	0.405430	-0.064029
O19	O	0.573643	0.634989	-0.040176
O20	O	0.573637	0.634968	0.141680
O21	O	0.391766	0.635010	-0.040153
O22	O	0.675295	0.431666	-0.141849
O23	O	0.675289	0.431644	0.040007
O24	O	0.493417	0.431687	-0.141826
O25	O	0.675302	0.533306	0.040006
O26	O	0.573633	0.533339	-0.141838
O27	O	0.493431	0.533349	-0.141828
O28	O	0.675305	0.533315	-0.040188
O29	O	0.493445	0.715169	0.141689
O30	O	0.573610	0.351485	-0.141835
O31	O	0.675285	0.351473	-0.141848
O32	O	0.675281	0.351461	-0.040185
O33	O	0.391773	0.715193	0.040039
O34	O	0.493448	0.715181	0.040026
O35	O	0.563450	0.473488	-0.089847
O36	O	0.623302	0.473473	-0.030007
O37	O	0.563461	0.593167	0.029846
O38	O	0.503609	0.593181	-0.029994
C39	C	0.533507	0.373347	-0.000071
C40	C	0.533500	0.319051	-0.000071
C41	C	0.564786	-0.017698	0.031157
C42	C	0.564792	-0.068722	0.031156
O43	O	0.591380	-0.095135	0.057702
N44	N	0.533549	-0.094231	-0.000079
C45	C	0.502303	-0.068718	-0.031319
O46	O	0.475730	-0.095101	-0.057887
C47	C	0.502302	-0.017699	-0.031320
C48	C	0.533542	0.007812	-0.000079
C49	C	0.596024	0.007812	0.062396
C50	C	0.596018	0.058833	0.062398
C51	C	0.564773	0.084344	0.031162
C52	C	0.533535	0.058833	-0.000076
C53	C	0.471060	0.007809	-0.062563
C54	C	0.471062	0.058832	-0.062563
C55	C	0.502302	0.084343	-0.031321
C56	C	0.502284	0.135365	-0.031310
N57	N	0.533527	0.160874	-0.000075
C58	C	0.564772	0.135364	0.031161
C59	C	0.502310	-0.175864	-0.031314
C60	C	0.502308	-0.226879	-0.031309
C61	C	0.564797	-0.226880	0.031164
C62	C	0.564795	-0.175861	0.031163
C63	C	0.533553	-0.150355	-0.000079
C64	C	0.564755	0.242512	0.031164
C65	C	0.564744	0.293540	0.031166
C66	C	0.502258	0.293534	-0.031311
C67	C	0.502266	0.242514	-0.031310
C68	C	0.533519	0.217002	-0.000072
O69	O	0.475711	0.161808	-0.057845
O70	O	0.591347	0.161746	0.057718
C71	C	0.373526	0.533346	-0.000053
C72	C	0.319223	0.533352	-0.000046
C73	C	0.013762	0.470837	-0.031332
C74	C	-0.037257	0.470833	-0.031338
O75	O	-0.037079	0.417698	-0.057927
N76	N	-0.094010	0.533311	-0.000094
C77	C	-0.099744	0.595797	0.031152
O78	O	-0.152701	0.648939	0.057726
C79	C	-0.048726	0.595800	0.031153
C80	C	0.008027	0.533318	-0.000088
C81	C	0.070512	0.408360	-0.062571
C82	C	0.121527	0.408364	-0.062565
C83	C	0.115791	0.470845	-0.031320
C84	C	0.059042	0.533322	-0.000081
C85	C	-0.054460	0.658286	0.062395
C86	C	-0.003436	0.658283	0.062393
C87	C	0.053316	0.595801	0.031153
C88	C	0.104321	0.595807	0.031170
N89	N	0.161074	0.533329	-0.000073
C90	C	0.166809	0.470848	-0.031318
C91	C	-0.206882	0.595786	0.031145
C92	C	-0.257900	0.595784	0.031148
C93	C	-0.195409	0.470819	-0.031343
C94	C	-0.144391	0.470823	-0.031341
C95	C	-0.150129	0.533308	-0.000098
C96	C	0.273942	0.470862	-0.031302
C97	C	0.324958	0.470871	-0.031291
C98	C	0.262463	0.595835	0.031196
C99	C	0.211451	0.595826	0.031188
C100	C	0.217194	0.533334	-0.000066
O101	O	0.104190	0.648916	0.057744
O102	O	0.219769	0.417715	-0.057894
C103	C	0.693528	0.533308	-0.000093
C104	C	0.747831	0.533302	-0.000100
C105	C	0.533522	0.533308	0.159909
C106	C	0.533520	0.533302	0.214206
C107	C	0.533548	0.693308	-0.000075
C108	C	0.533555	0.747604	-0.000076
C109	C	0.502286	0.595817	0.582183
C110	C	0.502287	0.595821	0.633205
O111	O	0.475739	0.648957	0.686164
N112	N	0.533522	0.533343	0.627480
C113	C	0.564763	0.470857	0.570727
O114	O	0.591331	0.417715	0.570542
C115	C	0.564765	0.470854	0.519706
C116	C	0.533523	0.533336	0.525436
C117	C	0.471047	0.658294	0.587911
C118	C	0.471046	0.658290	0.536892
C119	C	0.502283	0.595809	0.480145
C120	C	0.533522	0.533332	0.474418
C121	C	0.596009	0.408369	0.462955
C122	C	0.596009	0.408371	0.411933
C123	C	0.564767	0.470853	0.417663
C124	C	0.564757	0.470847	0.366652
N125	N	0.533522	0.533325	0.372378
C126	C	0.502285	0.595806	0.429124
C127	C	0.564756	0.470868	0.677877
C128	C	0.564751	0.470871	0.728897
C129	C	0.502276	0.595835	0.791371
C130	C	0.502278	0.595832	0.740350
C131	C	0.533521	0.533347	0.683603
C132	C	0.502284	0.595793	0.321979
C133	C	0.502283	0.595783	0.270952
C134	C	0.564760	0.470819	0.208482
C135	C	0.564759	0.470829	0.259504
C136	C	0.533520	0.533321	0.316253
O137	O	0.591293	0.417738	0.313675
O138	O	0.475728	0.648939	0.429299
C139	C	0.533528	0.533346	0.839945
C140	C	0.533516	0.533352	0.785648
C141	C	0.693508	0.373328	-0.000091
C142	C	0.747804	0.319026	-0.000097
C143	C	0.533512	0.373365	-0.160054
C144	C	0.533507	0.319076	-0.214350
C145	C	0.693513	0.373347	-0.160074
C146	C	0.747811	0.319051	-0.214376
C147	C	0.373542	0.693308	0.159927
C148	C	0.319244	0.747604	0.214230
C149	C	0.373547	0.693326	-0.000055
C150	C	0.319251	0.747629	-0.000049
C151	C	0.533543	0.693289	0.159907
C152	C	0.533548	0.747579	0.214203
C153	C	0.742057	0.293525	0.031149
C154	C	0.793069	0.242509	0.031155
C155	C	0.849827	0.216992	-0.000089
C156	C	0.855572	0.242498	-0.031336
C157	C	0.804561	0.293516	-0.031338
C158	C	0.564749	0.293581	-0.271097
C159	C	0.564741	0.242577	-0.322118
C160	C	0.533495	0.217066	-0.316392
C161	C	0.502250	0.242566	-0.259639
C162	C	0.502254	0.293572	-0.208618
C163	C	0.804557	0.293546	-0.208642
C164	C	0.855581	0.242536	-0.259660
C165	C	0.849856	0.217029	-0.316412
C166	C	0.793104	0.242539	-0.322146
C167	C	0.742082	0.293551	-0.271128
C168	C	0.262497	0.773115	0.208495
C169	C	0.211474	0.824141	0.259514
C170	C	0.217198	0.849650	0.316266
C171	C	0.273951	0.824137	0.322000
C172	C	0.324973	0.773116	0.270982
C173	C	0.324997	0.773135	-0.031290
C174	C	0.273985	0.824165	-0.031282
C175	C	0.217228	0.849684	-0.000036
C176	C	0.211482	0.824176	0.031209
C177	C	0.262494	0.773150	0.031204
C178	C	0.564800	0.773074	0.208458
C179	C	0.564817	0.824078	0.259469
C180	C	0.533577	0.849589	0.316227
C181	C	0.502324	0.824089	0.321971
C182	C	0.502311	0.773082	0.270960
H183	H	0.476862	-0.155095	-0.056752
N184	N	0.786857	0.215005	0.064854
H185	H	0.806629	0.163794	0.036204
H186	H	0.806614	0.223930	0.096299
N187	N	-0.083185	0.403428	-0.065042
H188	H	-0.060620	0.400643	-0.096482
H189	H	-0.060673	0.400676	-0.036353
N190	N	0.386212	0.745623	-0.064984
H191	H	0.408772	0.694414	-0.096429
H192	H	0.382054	0.769582	-0.084731
N193	N	0.598450	0.403466	0.616672
H194	H	0.569797	0.400680	0.594116
H195	H	0.629895	0.400710	0.594150
N196	N	0.598457	0.403431	0.147274
H197	H	0.593718	0.412916	0.115825
H198	H	0.642146	0.376155	0.142550
H199	H	0.167733	0.357485	-0.088002
H200	H	0.445622	-0.012954	-0.088004
H201	H	0.621458	0.079600	0.087836
N202	N	0.533505	0.162043	-0.371425
H203	H	0.508972	0.149744	-0.359191
H204	H	0.515744	0.179844	-0.395955
N205	N	0.533600	0.904597	0.371243
H206	H	0.558141	0.916872	0.358986
H207	H	0.491277	0.946902	0.395787
H208	H	0.257806	0.752384	0.056642
N209	N	0.904887	0.161998	-0.371439
H210	H	0.904922	0.179746	-0.396000
H211	H	0.941674	0.149729	-0.359145
N212	N	0.916783	0.215024	-0.253459
H213	H	0.939340	0.163812	-0.273237
H214	H	0.939307	0.223952	-0.273216
N215	N	0.786934	0.215024	-0.383359
H216	H	0.827870	0.178836	-0.414803
H217	H	0.764375	0.193891	-0.388085
H218	H	0.590188	0.221821	-0.368324
H219	H	0.371177	0.752345	0.275658
N220	N	-0.189227	0.403426	-0.065044
H221	H	-0.230160	0.412911	-0.060303
H222	H	-0.166664	0.376145	-0.108733
N223	N	0.162215	0.904711	-0.000045
H224	H	0.137657	0.886961	-0.017826
H225	H	0.137701	0.947031	0.042277
H226	H	0.278675	0.844925	-0.056727
N227	N	0.598454	0.215007	0.064863
H228	H	0.629898	0.163797	0.036213
H229	H	0.618200	0.238966	0.084653
N230	N	0.150264	0.851691	0.064896
H231	H	0.118825	0.887879	0.060149
H232	H	0.145539	0.812726	0.048482
H233	H	0.590190	0.419951	0.254837
N234	N	0.680875	0.321055	-0.277313
H235	H	0.676097	0.342222	-0.299851
H236	H	0.676141	0.282095	-0.299836
H237	H	0.891359	0.175449	-0.000083
H238	H	0.476860	0.752330	0.275646
N239	N	0.468554	0.215043	-0.253467
H240	H	0.473300	0.178860	-0.294402
H241	H	0.484962	0.193903	-0.230916
N242	N	0.629727	-0.019698	0.096089
H243	H	0.649512	0.004212	0.115875
H244	H	0.601042	-0.010820	0.127502
N245	N	0.076703	0.340966	-0.096266
H246	H	0.056936	0.338170	-0.127709
H247	H	0.120409	0.301432	-0.116014
H248	H	0.371169	0.419989	-0.056733
N249	N	0.256314	0.745605	0.147288
H250	H	0.212620	0.769516	0.151406
H251	H	0.276129	0.754479	0.124755
N252	N	0.280122	0.851647	0.383212
H253	H	0.302662	0.872813	0.387998
H254	H	0.239166	0.887809	0.414619
H255	H	0.476890	0.844868	0.368189
N256	N	0.598528	0.851571	0.253259
H257	H	0.582136	0.872742	0.230727
H258	H	0.593795	0.887724	0.294202
N259	N	0.916791	0.214973	-0.065033
H260	H	0.948230	0.178782	-0.060288
H261	H	0.921521	0.193841	-0.108723
H262	H	0.590239	-0.247661	0.056598
N263	N	0.598437	0.321059	0.064866
H264	H	0.618232	0.297151	0.084651
H265	H	0.629843	0.312189	0.036180
N266	N	0.598489	-0.148346	0.064859
H267	H	0.618279	-0.172252	0.084647
H268	H	0.629899	-0.157223	0.036172
N269	N	0.468599	0.663235	0.852578
H270	H	0.424893	0.690568	0.857375
H271	H	0.473389	0.653705	0.883997
H272	H	-0.304106	0.646663	0.056595
N273	N	0.598445	0.403479	0.722712
H274	H	0.629887	0.400692	0.742479
H275	H	0.569753	0.400734	0.742486
N276	N	0.468608	-0.254386	-0.065000
H277	H	0.448817	-0.230479	-0.084787
H278	H	0.497297	-0.305597	-0.096412
N279	N	0.680844	0.321039	0.064848
H280	H	0.684953	0.297139	0.084643
H281	H	0.658319	0.372251	0.096255
H282	H	0.165269	0.844905	0.254834
N283	N	0.810766	0.321017	-0.065041
H284	H	0.769842	0.357212	-0.060304
H285	H	0.833332	0.342137	-0.048634
H286	H	0.590193	0.314347	-0.275771
N287	N	0.468523	0.321074	-0.147424
H288	H	0.484891	0.282151	-0.142645
H289	H	0.473251	0.357280	-0.115988
H290	H	0.445619	0.079597	-0.088003
N291	N	0.810740	0.321044	-0.147434
H292	H	0.854435	0.297141	-0.151552
H293	H	0.790935	0.372257	-0.124900
N294	N	0.598495	0.745565	0.147245
H295	H	0.618295	0.769459	0.151355
H296	H	0.629898	0.694351	0.124715
H297	H	0.175648	0.891195	0.357803
N298	N	0.629715	0.340978	0.456768
H299	H	0.661153	0.338200	0.476539
H300	H	0.601028	0.338224	0.476540
H301	H	0.476820	0.221749	-0.056741
H302	H	0.278627	0.419974	-0.056753
N303	N	0.468561	0.321050	-0.065003
H304	H	0.437122	0.372260	-0.036350
H305	H	0.497259	0.312126	-0.096440
H306	H	0.621452	0.357487	0.365727
H307	H	-0.100663	0.709165	0.087834
N308	N	-0.213075	0.663185	0.064853
H309	H	-0.256770	0.702759	0.084645
H310	H	-0.193273	0.665904	0.096262
H311	H	0.165240	0.646704	0.056635
N312	N	-0.009623	0.725678	0.096093
H313	H	-0.032156	0.752995	0.079706
H314	H	-0.032150	0.752935	0.139789
N315	N	0.256284	0.663223	0.064898
H316	H	0.297217	0.653739	0.060157
H317	H	0.233730	0.690509	0.048494
H318	H	0.476840	0.646666	0.275625
H319	H	0.476846	0.646680	0.368181
H320	H	0.445608	0.709170	0.541565
H321	H	0.445611	0.709177	0.634113
H322	H	0.476838	0.646711	0.745022
