data_functionalizedCrystal
_audit_creation_method	'MofGen! by Chris Wilmer'
_symmetry_space_group_name_H-M	'P1'
_symmetry_Int_Tables_number	1
_symmetry_cell_setting	triclinic
loop_
_symmetry_equiv_pos_as_xyz
  x,y,z
_cell_length_a	6.817900
_cell_length_b	16.255661
_cell_length_c	13.167930
_cell_angle_alpha	99.749107
_cell_angle_beta	105.754568
_cell_angle_gamma	103.488922
loop_
_atom_site_label
_atom_site_type_symbol
_atom_site_fract_x
_atom_site_fract_y
_atom_site_fract_z
V1	V	-4.046148	-0.275635	-0.149802
O2	O	-4.013373	-0.258353	0.006304
O3	O	-4.016690	-0.285325	-0.296172
O4	O	-3.997462	-0.390568	-0.147891
O5	O	-4.032734	-0.152381	-0.143004
V6	V	-4.527358	-0.259487	-0.131084
O7	O	-4.312479	-0.311058	-0.190863
O8	O	-4.711225	-0.224064	-0.090023
O9	O	-4.333609	-0.249797	0.015286
O10	O	-4.677530	-0.276769	-0.287190
O11	O	-4.658169	-0.382741	-0.137882
O12	O	-4.352838	-0.144554	-0.132995
C13	C	-3.866308	-0.283963	-0.331842
C14	C	-3.923508	-0.292652	-0.451503
C15	C	-3.946516	-0.151503	-0.645106
C16	C	-4.000259	-0.159663	-0.757538
C17	C	-4.084750	-0.317130	-0.788802
C18	C	-4.031007	-0.308971	-0.676370
C19	C	-3.961888	-0.226154	-0.604525
C20	C	-3.908131	-0.217995	-0.492091
C21	C	-3.992637	-0.375462	-0.523357
C22	C	-4.046379	-0.383622	-0.635789
C23	C	-3.841779	-0.418211	-0.142692
C24	C	-3.883382	-0.512245	-0.142098
C25	C	-3.793017	-0.734506	-0.134997
C26	C	-3.961325	-0.811180	-0.226649
C27	C	-3.959622	-0.684406	-0.140983
C28	C	-3.865469	-0.775288	-0.048282
C29	C	-4.033250	-0.850705	-0.139902
C30	C	-4.127422	-0.759856	-0.232717
C31	C	-4.031494	-0.723942	-0.054270
C32	C	-4.199941	-0.800598	-0.145948
C33	C	-3.917202	-0.588606	-0.141607
C34	C	-4.075688	-0.946505	-0.139286
C35	C	-4.147334	-0.251157	0.050950
C36	C	-4.069373	-0.242474	0.170611
C37	C	-4.171863	-0.116907	-0.138197
C38	C	-4.109498	-0.022871	-0.138786
H39	H	-4.005143	-0.436249	-0.490305
H40	H	-3.620678	-0.705671	-0.130486
H41	H	-3.890209	-0.084070	-0.586608
H42	H	-3.851839	-0.150562	-0.433595
H43	H	-3.987739	-0.098874	-0.790573
H44	H	-3.932107	-0.848989	-0.299527
H45	H	-4.141063	-0.384556	-0.847317
H46	H	-4.237762	-0.752517	-0.310747
H47	H	-4.372417	-0.829311	-0.150602
H48	H	-4.102670	-0.451049	-0.694300
H49	H	-4.060632	-0.686110	0.018612
H50	H	-3.755124	-0.782778	0.029643
