data_functionalizedCrystal
_audit_creation_method	'MofGen! by Chris Wilmer'
_symmetry_space_group_name_H-M	'P1'
_symmetry_Int_Tables_number	1
_symmetry_cell_setting	triclinic
loop_
_symmetry_equiv_pos_as_xyz
  x,y,z
_cell_length_a	14.446369
_cell_length_b	20.875641
_cell_length_c	20.875641
_cell_angle_alpha	60.089808
_cell_angle_beta	90.002056
_cell_angle_gamma	62.438463
loop_
_atom_site_label
_atom_site_type_symbol
_atom_site_fract_x
_atom_site_fract_y
_atom_site_fract_z
Zr1	Zr	0.934142	0.694313	-0.105746
O2	O	0.798485	0.820558	-0.209014
O3	O	0.970653	0.563057	-0.070814
O4	O	0.984286	0.687080	-0.204286
O5	O	0.779872	0.703989	0.026017
O6	O	1.136622	0.687074	-0.204282
O7	O	0.784852	0.696536	-0.075542
O8	O	1.112236	0.465220	0.034475
O9	O	0.804259	0.925843	-0.212740
O10	O	1.106044	0.618896	-0.059870
O11	O	0.988640	0.624463	0.015919
O12	O	1.004691	0.770484	-0.141226
O13	O	0.887287	0.776051	-0.065437
Zr14	Zr	1.169159	0.706192	0.056235
Zr15	Zr	1.177102	0.694305	-0.105740
Zr16	Zr	0.926200	0.706201	0.056229
Zr17	Zr	0.943351	0.862231	-0.111689
Zr18	Zr	1.159951	0.538275	0.062177
O19	O	1.132649	0.837449	0.021302
O20	O	1.143942	0.820546	-0.209005
O21	O	0.787192	0.837461	0.021293
O22	O	1.304817	0.579947	0.159503
O23	O	1.316110	0.563044	-0.070805
O24	O	0.959360	0.579959	0.159494
O25	O	1.323429	0.696516	-0.075528
O26	O	1.119016	0.713426	0.154774
O27	O	0.966680	0.713431	0.154770
O28	O	1.318450	0.703970	0.026031
O29	O	0.997379	0.925836	-0.212735
O30	O	1.105923	0.474669	0.163223
O31	O	1.299043	0.474662	0.163228
O32	O	1.305356	0.465213	0.034480
O33	O	0.797946	0.935292	-0.083991
O34	O	0.991066	0.935285	-0.083986
O35	O	1.098611	0.630021	0.091715
O36	O	1.216015	0.624455	0.015925
O37	O	1.114662	0.776042	-0.065431
O38	O	0.997258	0.781609	0.010358
C39	C	1.040133	0.490214	-0.017323
C40	C	1.036223	0.418928	-0.014800
C41	C	1.095667	0.382533	-0.053176
C42	C	1.091996	0.315548	-0.050799
C43	C	1.028875	0.284965	-0.010049
C44	C	0.969429	0.321364	0.028332
C45	C	0.973107	0.388343	0.025958
C46	C	1.011310	0.084955	0.001296
C47	C	1.007635	0.017973	0.003665
C48	C	1.130204	0.012161	-0.075465
C49	C	1.133871	0.079145	-0.077839
C50	C	1.074430	0.115534	-0.039454
N51	N	1.025119	0.216498	-0.007620
N52	N	1.078193	0.183996	-0.041880
C53	C	0.747746	0.700264	-0.024764
C54	C	0.644603	0.700267	-0.024766
C55	C	0.434001	0.795881	-0.075837
C56	C	0.541250	0.795928	-0.076106
C57	C	0.640290	0.648478	-0.057892
C58	C	0.532572	0.649081	-0.058263
C59	C	0.528052	0.655679	0.059517
C60	C	0.634130	0.657537	0.059321
C61	C	1.355556	0.700242	-0.024748
C62	C	1.458699	0.700238	-0.024745
C63	C	1.061585	0.685383	-0.227362
C64	C	1.064957	0.680336	-0.296124
C65	C	1.063169	0.910292	-0.032189
C66	C	1.067079	0.981577	-0.034711
C67	C	1.013638	0.757091	-0.370896
C68	C	1.016820	0.752344	-0.435503
C69	C	1.071316	0.670842	-0.425337
C70	C	1.122642	0.594082	-0.350557
C71	C	1.119465	0.598830	-0.285952
C72	C	1.086495	0.648157	-0.614002
C73	C	1.089664	0.643415	-0.678615
C74	C	0.983844	0.801677	-0.763557
C75	C	0.980667	0.806418	-0.698947
C76	C	1.031998	0.729658	-0.624173
N77	N	1.074567	0.665987	-0.491374
N78	N	1.028752	0.734513	-0.558137
C79	C	1.041716	0.715122	0.177850
C80	C	1.038345	0.720169	0.246613
C81	C	1.344038	0.490203	-0.017315
C82	C	1.443271	0.418914	-0.014790
C83	C	1.030198	0.505083	0.185283
C84	C	1.022917	0.438845	0.256568
C85	C	1.334103	0.505072	0.185291
C86	C	1.429965	0.438830	0.256579
C87	C	0.769199	0.895433	-0.234802
C88	C	0.673337	0.961675	-0.306090
C89	C	0.759264	0.910303	-0.032197
C90	C	0.660031	0.981592	-0.034722
C91	C	1.073104	0.895422	-0.234795
C92	C	1.080385	0.961661	-0.306080
C93	C	1.432469	0.382534	-0.053175
C94	C	1.525701	0.315558	-0.050818
C95	C	1.629734	0.284960	-0.010070
C96	C	1.640534	0.321347	0.028316
C97	C	1.547303	0.388325	0.025954
C98	C	1.076901	0.410640	0.329616
C99	C	1.070056	0.348412	0.396602
C100	C	1.009232	0.314384	0.390539
C101	C	0.955242	0.342595	0.317483
C102	C	0.962081	0.404827	0.250499
C103	C	1.536276	0.404816	0.250495
C104	C	1.626358	0.342583	0.317471
C105	C	1.610127	0.314361	0.390530
C106	C	1.503805	0.348381	0.396612
C107	C	1.413725	0.410617	0.329637
C108	C	0.567026	0.995697	-0.300007
C109	C	0.476945	1.057951	-0.366984
C110	C	0.493177	1.086177	-0.440043
C111	C	0.599499	1.052152	-0.446125
C112	C	0.689578	0.989905	-0.379149
C113	C	0.670834	1.017978	0.003656
C114	C	0.577604	1.084971	0.001281
C115	C	0.473571	1.115571	-0.039469
C116	C	0.462770	1.079182	-0.077852
C117	C	0.556000	1.012195	-0.075481
C118	C	1.141217	0.995669	-0.299992
C119	C	1.148080	1.057899	-0.366965
C120	C	1.094103	1.086124	-0.440026
C121	C	1.033268	1.052109	-0.446113
C122	C	1.026412	0.989876	-0.379140
H123	H	0.956228	-0.006924	0.036848
Br124	Br	0.445190	0.712099	0.106201
H125	H	1.140401	0.285915	-0.082047
H126	H	0.540481	0.836454	-0.054274
Br127	Br	1.219528	0.120653	-0.133152
H128	H	0.936294	0.872786	-0.707234
H129	H	1.134040	0.577043	-0.670329
Br130	Br	1.189134	0.494659	-0.184472
H131	H	1.099693	1.136799	-0.494554
Br132	Br	1.732391	0.229896	0.481419
Br133	Br	1.143338	0.310139	0.495738
Br134	Br	1.230641	1.104052	-0.358687
H135	H	1.556114	0.417938	0.057217
H136	H	0.924698	0.417978	0.057206
H137	H	1.178600	-0.017475	-0.106715
Br138	Br	1.291293	0.424047	-0.108484
H139	H	0.547188	0.982570	-0.106731
H140	H	1.327164	0.438304	0.334601
Br141	Br	1.181327	0.424038	-0.108489
H142	H	0.976871	0.962193	-0.384108
Br143	Br	0.332664	1.104113	-0.358711
Br144	Br	0.350839	0.853022	-0.178909
Br145	Br	0.544967	0.957402	-0.200864
Br146	Br	0.370913	1.170659	-0.530933
Br147	Br	0.930648	0.134327	0.053395
Br148	Br	0.999961	0.229926	0.481455
Br149	Br	0.564225	0.538312	0.123191
H150	H	0.905720	0.314880	0.312558
H151	H	0.918124	0.427782	0.191023
H152	H	1.185173	0.972698	-0.240508
Br153	Br	0.960008	1.090432	-0.545274
Br154	Br	0.883784	0.279845	0.083652
Br155	Br	0.345721	0.863583	-0.039351
Br156	Br	0.634446	0.720536	0.100631
H157	H	0.612702	1.075142	-0.505618
H158	H	0.755534	0.993069	0.036845
H159	H	1.126430	0.438339	0.334567
Br160	Br	1.770639	0.296424	0.309199
Br161	Br	0.545694	0.853277	-0.179799
Br162	Br	1.156107	0.543982	-0.512531
H163	H	0.487122	0.679613	-0.120189
Br164	Br	1.781730	0.279808	0.083616
H165	H	1.516886	0.285940	-0.082076
H166	H	0.553648	0.578726	-0.023273
H167	H	0.712941	0.577981	-0.022323
H168	H	0.776139	0.962204	-0.384111
H169	H	0.969254	0.823459	-0.379184
Br170	Br	0.592287	1.134341	0.053378
H171	H	0.397666	1.170117	-0.041394
H172	H	0.707436	0.588006	0.100318
Br173	Br	1.558335	0.443109	0.151352
Br174	Br	0.651886	0.698113	-0.160100
Br175	Br	1.481795	0.310070	0.495771
H176	H	0.975033	0.814845	-0.496384
Br177	Br	0.914184	0.905846	-0.865036
Br178	Br	0.321574	1.120719	-0.133150
H179	H	1.167019	0.527721	-0.342284
Br180	Br	1.756252	0.194059	-0.006872
