data_functionalizedCrystal
_audit_creation_method	'MofGen! by Chris Wilmer'
_symmetry_space_group_name_H-M	'P1'
_symmetry_Int_Tables_number	1
_symmetry_cell_setting	triclinic
loop_
_symmetry_equiv_pos_as_xyz
  x,y,z
_cell_length_a	19.377625
_cell_length_b	19.376997
_cell_length_c	18.760492
_cell_angle_alpha	68.963578
_cell_angle_beta	75.507343
_cell_angle_gamma	64.065071
loop_
_atom_site_label
_atom_site_type_symbol
_atom_site_fract_x
_atom_site_fract_y
_atom_site_fract_z
Zr1	Zr	0.846952	0.619922	-0.152153
O2	O	0.763690	0.738087	-0.213905
O3	O	0.851294	0.501761	-0.148930
O4	O	0.881848	0.619921	-0.274987
O5	O	0.733131	0.619927	0.029456
O6	O	0.999149	0.619916	-0.305301
O7	O	0.733136	0.619927	-0.087848
O8	O	0.944493	0.408549	-0.079808
O9	O	0.787786	0.831294	-0.196037
O10	O	0.966279	0.550357	-0.151201
O11	O	0.878734	0.550361	-0.041035
O12	O	0.914708	0.689479	-0.189451
O13	O	0.827163	0.689483	-0.079285
Zr14	Zr	1.034026	0.619914	-0.013414
Zr15	Zr	1.034034	0.619914	-0.200500
Zr16	Zr	0.846944	0.619923	0.034934
Zr17	Zr	0.885383	0.768576	-0.123655
Zr18	Zr	0.995595	0.471261	-0.041911
O19	O	1.029685	0.738076	-0.016637
O20	O	1.029696	0.738076	-0.282649
O21	O	0.763678	0.738087	0.052107
O22	O	1.117289	0.501750	0.048339
O23	O	1.117300	0.501749	-0.217674
O24	O	0.851282	0.501761	0.117083
O25	O	1.147848	0.619909	-0.195022
O26	O	0.999131	0.619916	0.109420
O27	O	0.881830	0.619921	0.139734
O28	O	1.147843	0.619909	-0.077718
O29	O	0.936492	0.831287	-0.234467
O30	O	0.944487	0.408549	0.068901
O31	O	1.093192	0.408543	0.030471
O32	O	1.093199	0.408543	-0.118238
O33	O	0.787780	0.831294	-0.047329
O34	O	0.936485	0.831288	-0.085758
O35	O	0.966271	0.550358	0.023884
O36	O	1.053816	0.550354	-0.086281
O37	O	1.002244	0.689476	-0.124531
O38	O	0.914700	0.689479	-0.014366
C39	C	0.892418	0.433975	-0.118429
C40	C	0.876103	0.370868	-0.130527
C41	C	0.801767	0.333267	-0.185657
C42	C	0.817103	0.392560	-0.174285
C43	C	0.919793	0.289866	-0.098129
C44	C	0.904468	0.230563	-0.109498
C45	C	0.845453	0.252271	-0.153262
C46	C	0.948155	0.149566	-0.077103
C47	C	0.932828	0.090269	-0.088468
C48	C	0.873815	0.111968	-0.132228
C49	C	0.830127	0.192973	-0.164627
C50	C	1.007165	0.127861	-0.033334
C51	C	1.050852	0.046864	-0.000939
C52	C	1.035529	-0.012435	-0.012309
C53	C	0.976516	0.009264	-0.056069
C54	C	1.079217	-0.093440	0.020090
C55	C	1.063890	-0.152738	0.008725
C56	C	0.961189	-0.050034	-0.067434
C57	C	0.706478	0.619929	-0.022308
C58	C	0.627057	0.619932	-0.001783
C59	C	0.365848	0.619911	-0.257356
C60	C	0.291222	0.619908	-0.238044
C61	C	0.291237	0.619908	-0.108805
C62	C	0.365863	0.619915	-0.128107
C63	C	0.403163	0.619916	-0.202383
C64	C	0.403178	0.619920	-0.073134
C65	C	0.477800	0.619923	-0.092434
C66	C	0.515106	0.619921	-0.166705
C67	C	0.477784	0.619919	-0.221682
C68	C	0.365879	0.619914	0.001143
C69	C	0.403194	0.619918	0.056116
C70	C	0.477815	0.619927	0.036815
C71	C	0.515121	0.619925	-0.037457
C72	C	0.515136	0.619929	0.091792
C73	C	0.589757	0.619931	0.072493
C74	C	0.589742	0.619927	-0.056756
C75	C	1.174500	0.619908	-0.143259
C76	C	1.253922	0.619905	-0.163784
C77	C	0.940499	0.619918	-0.316800
C78	C	0.940503	0.619918	-0.396223
C79	C	0.988561	0.805862	-0.047137
C80	C	1.004876	0.868969	-0.035039
C81	C	0.967399	0.547295	-0.712065
C82	C	0.913558	0.692541	-0.751995
C83	C	0.913564	0.692542	-0.677375
C84	C	0.940487	0.619919	-0.620097
C85	C	0.967404	0.547294	-0.637438
C86	C	0.886640	0.765166	-0.660027
C87	C	0.886644	0.765170	-0.585403
C88	C	0.913573	0.692545	-0.528125
C89	C	0.940492	0.619918	-0.545470
C90	C	0.967415	0.547294	-0.488191
C91	C	0.994339	0.474666	-0.505536
C92	C	0.994332	0.474670	-0.580159
C93	C	0.913580	0.692541	-0.453501
C94	C	0.967420	0.547293	-0.413564
C95	C	0.940479	0.619919	0.151233
C96	C	0.940476	0.619919	0.230656
C97	C	1.126429	0.433965	-0.178905
C98	C	1.189535	0.370854	-0.211528
C99	C	0.892408	0.433975	0.115587
C100	C	0.876089	0.370868	0.182912
C101	C	1.126419	0.433965	0.055112
C102	C	1.189522	0.370854	0.101912
C103	C	0.754560	0.805872	-0.220678
C104	C	0.691457	0.868982	-0.267479
C105	C	0.754550	0.805872	0.013338
C106	C	0.691443	0.868983	0.045961
C107	C	0.988571	0.805861	-0.281154
C108	C	1.004889	0.868969	-0.348479
C109	C	1.173477	0.341218	-0.260743
C110	C	1.232767	0.281927	-0.291409
C111	C	1.308114	0.252269	-0.272855
C112	C	1.324172	0.281910	-0.223637
C113	C	1.264883	0.341204	-0.192976
C114	C	0.914120	0.341230	0.248424
C115	C	0.898785	0.281942	0.311693
C116	C	0.845425	0.252289	0.309446
C117	C	0.807391	0.281933	0.243928
C118	C	0.822721	0.341224	0.180663
C119	C	1.264861	0.341215	0.066383
C120	C	1.324162	0.281924	0.110349
C121	C	1.308121	0.252269	0.189844
C122	C	1.232775	0.281915	0.225375
C123	C	1.173477	0.341209	0.181410
C124	C	0.616120	0.898629	-0.231948
C125	C	0.556823	0.957939	-0.275911
C126	C	0.572865	0.987596	-0.355405
C127	C	0.648210	0.957947	-0.390937
C128	C	0.707506	0.898643	-0.346974
C129	C	0.707503	0.898625	0.095169
C130	C	0.648217	0.957932	0.125819
C131	C	0.572871	0.987593	0.107263
C132	C	0.556813	0.957949	0.058047
C133	C	0.616099	0.898646	0.027395
C134	C	1.058253	0.898603	-0.346210
C135	C	1.073601	0.957891	-0.409468
C136	C	1.035580	0.987548	-0.474992
C137	C	0.982213	0.957908	-0.477260
C138	C	0.966870	0.898617	-0.414005
H139	H	0.753717	0.350945	-0.221303
H140	H	0.781509	0.458515	-0.200650
H141	H	1.356413	0.203988	0.225635
C142	C	1.282554	0.373788	-0.138830
H143	H	1.335918	0.347622	-0.132169
H144	H	1.269821	0.429771	-0.160494
H145	H	1.252834	0.364055	-0.090412
H146	H	0.832949	0.204011	0.360966
H147	H	0.913140	-0.032356	-0.103080
H148	H	1.385507	0.257792	0.081406
H149	H	1.277936	0.365351	0.001654
C150	C	0.748707	0.249301	0.241461
H151	H	0.745037	0.209737	0.288521
H152	H	0.699588	0.291858	0.234151
H153	H	0.765306	0.226154	0.200193
C154	C	1.090605	0.373836	-0.281165
H155	H	1.089545	0.347695	-0.314876
H156	H	1.057074	0.364119	-0.235576
H157	H	1.074074	0.429823	-0.305664
C158	C	1.023920	0.394786	-0.599231
H159	H	1.039956	0.351533	-0.554432
H160	H	0.983682	0.391786	-0.616817
H161	H	1.066382	0.391753	-0.638204
H162	H	0.495459	0.982107	0.042945
C163	C	1.215139	0.249282	0.312817
H164	H	1.261248	0.209717	0.333903
H165	H	1.195136	0.291839	0.335552
H166	H	1.178160	0.226137	0.322939
C167	C	0.940389	0.990543	-0.549335
H168	H	0.957167	1.030105	-0.586673
H169	H	0.951939	0.947986	-0.569886
H170	H	0.886248	1.013691	-0.535909
H171	H	1.356383	0.203987	-0.297826
H172	H	0.957569	0.365367	0.250268
C173	C	0.665847	0.990565	-0.478381
H174	H	0.719209	0.964421	-0.493253
H175	H	0.636112	0.980848	-0.504209
H176	H	0.653110	1.046551	-0.491626
H177	H	1.112133	0.365333	0.210349
C178	C	0.598462	0.866025	-0.144506
H179	H	0.545101	0.892191	-0.129650
H180	H	0.611191	0.810043	-0.131248
H181	H	0.628191	0.875748	-0.118671
H182	H	0.967841	0.272203	-0.062494
C183	C	0.790376	0.866008	0.115590
H184	H	0.791440	0.892167	0.149282
H185	H	0.806912	0.810026	0.140092
H186	H	0.823902	0.875727	0.069992
H187	H	0.989323	0.488163	-0.726192
H188	H	0.495479	0.982069	-0.246966
C189	C	0.507631	1.052819	-0.403758
H190	H	0.460465	1.066216	-0.371207
H191	H	0.519574	1.099091	-0.428653
H192	H	0.502598	1.033374	-0.441237
H193	H	0.768847	0.874505	-0.375914
C194	C	1.024028	0.193083	-0.020829
H195	H	1.065424	0.168556	0.009883
H196	H	1.037768	0.225462	-0.069110
H197	H	0.979293	0.225463	0.004470
H198	H	0.989347	0.488154	-0.366931
H199	H	0.661307	0.982059	0.165892
H200	H	0.524604	1.035881	0.132227
C201	C	0.406883	0.619920	-0.339060
H202	H	0.456666	0.619928	-0.342679
H203	H	0.411877	0.573466	-0.349686
H204	H	0.377424	0.666388	-0.375220
C205	C	1.052458	1.052773	-0.544563
H206	H	1.089681	1.066177	-0.533818
H207	H	1.071902	1.033346	-0.588377
H208	H	1.006200	1.099047	-0.554404
H209	H	0.603011	0.874513	-0.012670
H210	H	1.089218	0.874465	-0.292863
H211	H	0.891652	0.751674	-0.439381
H212	H	1.117055	0.982018	-0.407607
H213	H	1.098900	0.029200	0.034696
H214	H	0.864722	0.824308	-0.571289
C215	C	0.908155	0.866036	-0.416499
H216	H	0.904457	0.826475	-0.369446
H217	H	0.859052	0.908621	-0.423814
H218	H	0.924741	0.842901	-0.457774
C219	C	0.856950	0.046747	-0.144733
H220	H	0.815543	0.071276	-0.175432
H221	H	0.901678	0.014365	-0.170030
H222	H	0.843208	0.014370	-0.096447
C223	C	0.250171	0.619911	-0.298519
H224	H	0.200389	0.619905	-0.276388
H225	H	0.245175	0.666369	-0.341007
H226	H	0.279623	0.573447	-0.315459
C227	C	0.765218	0.216841	-0.212775
H228	H	0.762353	0.169923	-0.214906
H229	H	0.717394	0.247662	-0.189777
H230	H	0.775876	0.247653	-0.263352
C231	C	1.144126	-0.117308	0.068230
H232	H	1.146998	-0.070392	0.070357
H233	H	1.133482	-0.148129	0.118802
H234	H	1.191951	-0.148121	0.045217
C235	C	1.215089	0.249324	-0.345536
H236	H	1.161721	0.275472	-0.352179
H237	H	1.244801	0.259044	-0.393956
H238	H	1.227826	0.193338	-0.323852
H239	H	0.620110	0.619936	-0.117241
C240	C	1.111943	-0.241837	0.044355
H241	H	1.094356	-0.274042	0.031324
H242	H	1.164787	-0.253221	0.025075
H243	H	1.106315	-0.253218	0.098658
C244	C	0.597188	0.619923	-0.187940
H245	H	0.614059	0.619916	-0.240047
H246	H	0.596851	0.666381	-0.181213
H247	H	0.631298	0.573459	-0.155667
H248	H	0.929763	0.257813	0.365033
C249	C	0.518819	0.619928	-0.303386
H250	H	0.568603	0.619936	-0.307005
H251	H	0.523813	0.573473	-0.314012
H252	H	0.489360	0.666395	-0.339547
H253	H	1.016255	0.415536	-0.458889
H254	H	0.791753	0.365347	0.127322
C255	C	0.250202	0.619912	-0.027109
H256	H	0.200414	0.619915	-0.023488
H257	H	0.279658	0.573459	0.009058
H258	H	0.245206	0.666381	-0.016501
H259	H	0.305119	0.619908	0.016854
C260	C	0.362161	0.619925	0.137813
H261	H	0.395075	0.619926	0.167788
H262	H	0.315827	0.666382	0.135250
H263	H	0.350279	0.573460	0.160807
C264	C	0.630802	0.619949	0.132957
H265	H	0.597896	0.619959	0.179954
H266	H	0.677139	0.573495	0.140891
H267	H	0.642680	0.666417	0.115332
C268	C	0.474104	0.619927	0.173491
H269	H	0.507017	0.619927	0.203469
H270	H	0.427768	0.666382	0.170933
H271	H	0.462227	0.573460	0.196480
H272	H	0.891634	0.751668	-0.798633
H273	H	1.385526	0.257753	-0.208537
C274	C	0.857033	0.845043	-0.723031
H275	H	0.860897	0.834640	-0.769960
H276	H	0.804630	0.874889	-0.708325
H277	H	0.887322	0.874876	-0.729691
