data_functionalizedCrystal
_audit_creation_method	'MofGen! by Chris Wilmer'
_symmetry_space_group_name_H-M	'P1'
_symmetry_Int_Tables_number	1
_symmetry_cell_setting	triclinic
loop_
_symmetry_equiv_pos_as_xyz
  x,y,z
_cell_length_a	13.339070
_cell_length_b	13.262508
_cell_length_c	9.482900
_cell_angle_alpha	115.010094
_cell_angle_beta	78.145528
_cell_angle_gamma	99.430496
loop_
_atom_site_label
_atom_site_type_symbol
_atom_site_fract_x
_atom_site_fract_y
_atom_site_fract_z
O1	O	1.332674	0.535737	0.090902
O2	O	1.041554	0.463799	0.062464
O3	O	1.202588	0.343065	0.014726
O4	O	1.171639	0.656472	0.138640
O5	O	1.169872	0.367725	0.266269
O6	O	1.008838	0.488460	0.314007
O7	O	1.299957	0.560398	0.342445
Cu8	Cu	1.151410	0.526681	0.351194
Cu9	Cu	1.190101	0.497516	0.053715
O10	O	1.138923	0.681132	0.390184
C11	C	0.988082	0.463978	0.183432
C12	C	0.877496	0.427757	0.169112
C13	C	1.187504	0.314463	0.124311
C14	C	1.191287	0.192493	0.076078
C15	C	1.130610	-0.097560	0.488598
C16	C	1.127048	0.017035	0.533916
C17	C	1.143108	0.060905	0.419461
C18	C	1.162730	-0.009831	0.259679
C19	C	1.166286	-0.124439	0.214355
C20	C	1.178783	0.034027	0.145218
C21	C	1.198405	-0.036709	-0.014564
C22	C	1.201961	-0.151305	-0.059880
C23	C	1.185901	-0.195176	0.054576
C24	C	1.175227	0.148635	0.190541
C25	C	1.210902	0.121756	-0.083702
C26	C	1.214465	0.007161	-0.129020
C27	C	0.499364	0.709393	0.280442
C28	C	0.603266	0.743428	0.293892
C29	C	0.671828	0.664513	0.262699
C30	C	0.636480	0.551558	0.218052
C31	C	0.532570	0.517518	0.204588
C32	C	0.705033	0.472638	0.186845
C33	C	0.669685	0.359683	0.142197
C34	C	0.565785	0.325649	0.128737
C35	C	0.497222	0.404564	0.159930
C36	C	0.808943	0.506677	0.200309
C37	C	0.842149	0.314803	0.124454
C38	C	0.738247	0.280768	0.111004
C39	C	1.353430	0.560219	0.221475
C40	C	1.464017	0.596439	0.235784
C41	C	1.154008	0.709734	0.280595
C42	C	1.150226	0.831702	0.328819
N43	N	1.124205	0.547195	0.560426
N44	N	1.217315	0.476996	-0.155519
C45	C	1.182070	0.503559	0.615372
C46	C	1.159441	0.520638	0.789542
H47	H	1.159241	0.206216	0.320636
Cl48	Cl	1.110404	-0.152721	0.632463
Cl49	Cl	1.138626	0.204970	0.476436
Cl50	Cl	1.102363	0.105948	0.734774
Cl51	Cl	1.190378	-0.339244	-0.002390
H52	H	1.283609	0.426986	0.762583
H53	H	1.057908	0.597192	0.642324
H54	H	0.412616	0.376859	0.148981
H55	H	0.709453	0.188796	0.074638
H56	H	1.230442	-0.050448	-0.259117
H57	H	1.093140	0.570638	0.871436
H58	H	1.248360	0.453552	0.533471
H59	H	1.217930	-0.208898	-0.189985
H60	H	1.223972	0.157473	-0.176902
Cl61	Cl	0.413173	0.808584	0.319627
Cl62	Cl	0.853368	0.648673	0.256437
Cl63	Cl	0.647698	0.885421	0.350012
H64	H	0.537011	0.233672	0.092365
Cl65	Cl	0.802447	0.707303	0.279615
Cl66	Cl	0.928336	0.215587	0.085225
