data_functionalizedCrystal
_audit_creation_method	'MofGen! by Chris Wilmer'
_symmetry_space_group_name_H-M	'P1'
_symmetry_Int_Tables_number	1
_symmetry_cell_setting	triclinic
loop_
_symmetry_equiv_pos_as_xyz
  x,y,z
_cell_length_a	19.288864
_cell_length_b	23.532407
_cell_length_c	18.366186
_cell_angle_alpha	89.989089
_cell_angle_beta	89.977106
_cell_angle_gamma	82.992461
loop_
_atom_site_label
_atom_site_type_symbol
_atom_site_fract_x
_atom_site_fract_y
_atom_site_fract_z
O1	O	0.921134	0.071045	-0.060790
O2	O	1.421134	0.571045	0.439210
O3	O	0.718843	0.080629	-0.060742
O4	O	1.218843	0.580629	0.439258
O5	O	0.826089	-0.007082	-0.060754
O6	O	1.326089	0.492918	0.439246
O7	O	0.813889	0.158756	-0.060778
O8	O	1.313889	0.658756	0.439222
O9	O	0.826071	-0.007086	0.060345
O10	O	1.326071	0.492914	0.560345
O11	O	0.718825	0.080625	0.060358
O12	O	1.218825	0.580625	0.560358
O13	O	0.921116	0.071041	0.060309
O14	O	1.421116	0.571041	0.560309
Zn15	Zn	0.819968	0.075832	0.079560
Zn16	Zn	1.319968	0.575832	0.579560
Zn17	Zn	0.819991	0.075838	-0.079993
Zn18	Zn	1.319991	0.575838	0.420007
O19	O	0.813870	0.158752	0.060321
O20	O	1.313870	0.658752	0.560321
C21	C	0.692959	0.080319	-0.000186
C22	C	1.192959	0.580319	0.499814
C23	C	0.615858	0.079393	-0.000166
C24	C	1.115858	0.579393	0.499834
C25	C	0.571003	0.130858	-0.000185
C26	C	1.071003	0.630858	0.499815
C27	C	0.498559	0.129988	-0.000193
C28	C	0.998559	0.629988	0.499807
C29	C	0.470973	0.077651	-0.000197
C30	C	0.970973	0.577651	0.499803
C31	C	0.515838	0.026179	-0.000174
C32	C	1.015838	0.526179	0.499826
C33	C	0.588280	0.027050	-0.000159
C34	C	1.088280	0.527050	0.499841
C35	C	0.362844	0.036509	-0.042642
C36	C	0.862844	0.536509	0.457358
C37	C	0.290402	0.035640	-0.042662
C38	C	0.790402	0.535640	0.457338
C39	C	0.247535	0.074961	-0.000240
C40	C	0.747535	0.574961	0.499760
C41	C	0.277118	0.115162	0.042191
C42	C	0.777118	0.615162	0.542191
C43	C	0.349561	0.116033	0.042206
C44	C	0.849561	0.616033	0.542206
C45	C	0.392422	0.076700	-0.000213
C46	C	0.892422	0.576700	0.499787
C47	C	0.124127	0.125487	-0.000267
C48	C	0.624127	0.625487	0.499733
C49	C	0.051682	0.124615	-0.000270
C50	C	0.551682	0.624615	0.499730
C51	C	0.068962	0.020805	-0.000258
C52	C	0.568962	0.520805	0.499742
C53	C	0.141406	0.021678	-0.000248
C54	C	0.641406	0.521678	0.499752
C55	C	0.168984	0.074021	-0.000255
C56	C	0.668984	0.574021	0.499745
C57	C	0.825769	-0.028301	-0.000203
C58	C	1.325769	0.471699	0.499797
C59	C	0.824835	-0.091520	-0.000197
C60	C	1.324835	0.408480	0.499803
C61	C	0.882442	-0.490503	-0.000251
C62	C	1.382442	0.009497	0.499749
C63	C	0.881574	-0.549905	-0.000256
C64	C	1.381574	-0.049905	0.499744
O65	O	0.934976	-0.586539	-0.000296
O66	O	1.434976	-0.086539	0.499704
N67	N	0.817817	-0.572664	-0.000240
N68	N	1.317817	-0.072664	0.499760
C69	C	0.754923	-0.536017	-0.000226
C70	C	1.254923	-0.036017	0.499774
O71	O	0.700613	-0.560829	-0.000214
O72	O	1.200613	-0.060829	0.499786
C73	C	0.755792	-0.476616	-0.000226
C74	C	1.255792	0.023384	0.499774
C75	C	0.819553	-0.453861	-0.000235
C76	C	1.319553	0.046139	0.499765
C77	C	0.946198	-0.467748	-0.000260
C78	C	1.446198	0.032252	0.499740
C79	C	0.947065	-0.408350	-0.000253
C80	C	1.447065	0.091650	0.499747
C81	C	0.884177	-0.371707	-0.000237
C82	C	1.384177	0.128293	0.499763
C83	C	0.820420	-0.394463	-0.000228
C84	C	1.320420	0.105537	0.499772
C85	C	0.692899	-0.439970	-0.000217
C86	C	1.192899	0.060030	0.499783
C87	C	0.693773	-0.380565	-0.000218
C88	C	1.193773	0.119435	0.499782
C89	C	0.757534	-0.357810	-0.000226
C90	C	1.257534	0.142190	0.499774
C91	C	0.758399	-0.298422	-0.000205
C92	C	1.258399	0.201578	0.499795
N93	N	0.822156	-0.275664	-0.000221
N94	N	1.322156	0.224336	0.499779
C95	C	0.885045	-0.312307	-0.000237
C96	C	1.385045	0.187693	0.499763
C97	C	0.753104	-0.660763	-0.000228
C98	C	1.253104	-0.160763	0.499772
C99	C	0.752235	-0.720163	-0.000223
C100	C	1.252235	-0.220163	0.499777
C101	C	0.878886	-0.734047	-0.000254
C102	C	1.378886	-0.234047	0.499746
C103	C	0.879755	-0.674647	-0.000254
C104	C	1.379755	-0.174647	0.499746
C105	C	0.816861	-0.638005	-0.000244
C106	C	1.316861	-0.138005	0.499756
C107	C	0.886862	-0.187566	-0.000222
C108	C	1.386862	0.312434	0.499778
C109	C	0.887724	-0.128162	-0.000213
C110	C	1.387724	0.371838	0.499787
C111	C	0.761073	-0.114283	-0.000185
C112	C	1.261073	0.385717	0.499815
C113	C	0.760211	-0.173681	-0.000191
C114	C	1.260211	0.326319	0.499809
C115	C	0.823111	-0.210322	-0.000212
C116	C	1.323111	0.289678	0.499788
O117	O	0.705025	-0.261754	-0.000168
O118	O	1.205025	0.238246	0.499832
O119	O	0.939346	-0.287486	-0.000259
O120	O	1.439346	0.212514	0.499741
C121	C	0.947000	0.071351	-0.000249
C122	C	1.447000	0.571351	0.499751
C123	C	1.024101	0.072277	-0.000273
C124	C	1.524101	0.572277	0.499727
C125	C	0.814190	0.179971	-0.000232
C126	C	1.314190	0.679971	0.499768
C127	C	0.815124	0.243190	-0.000242
C128	C	1.315124	0.743190	0.499758
N129	N	0.819956	0.075828	0.188452
N130	N	1.319956	0.575828	0.688452
N131	N	0.820008	0.075837	-0.188884
N132	N	1.320008	0.575837	0.311116
C133	C	0.867460	0.037009	0.226546
C134	C	1.367460	0.537009	0.726546
C135	C	0.867464	0.037006	0.302774
C136	C	1.367464	0.537006	0.802774
C137	C	0.819972	0.075833	0.340904
C138	C	1.319972	0.575833	0.840904
C139	C	0.772459	0.114655	0.302800
C140	C	1.272459	0.614655	0.802800
C141	C	0.772452	0.114653	0.226574
C142	C	1.272452	0.614653	0.726574
C143	C	0.810514	0.127724	0.461659
C144	C	1.310514	0.627724	0.961659
C145	C	0.810526	0.127727	0.537884
C146	C	1.310526	0.627727	1.037884
C147	C	0.819991	0.075840	0.576012
C148	C	1.319991	0.575840	1.076012
C149	C	0.829459	0.023947	0.537906
C150	C	1.329459	0.523947	1.037906
C151	C	0.829451	0.023945	0.461679
C152	C	1.329451	0.523945	0.961679
C153	C	0.819975	0.075839	0.423559
C154	C	1.319975	0.575839	0.923559
C155	C	0.867502	0.037014	0.696762
C156	C	1.367502	0.537014	1.196762
C157	C	0.867502	0.037011	0.772991
C158	C	1.367502	0.537011	1.272991
C159	C	0.772500	0.114665	0.773015
C160	C	1.272500	0.614665	1.273015
C161	C	0.772497	0.114663	0.696788
C162	C	1.272497	0.614663	1.196788
C163	C	0.820002	0.075839	0.658665
C164	C	1.320002	0.575839	1.158665
H165	H	0.462031	0.171898	-0.000206
H166	H	0.962031	0.671898	0.499794
H167	H	0.997412	-0.497577	-0.000276
H168	H	1.497412	0.002423	0.499724
O169	O	0.636662	-0.028463	-0.000143
O170	O	1.136662	0.471537	0.499857
H171	H	0.670049	-0.030551	0.049225
H172	H	1.170049	0.469449	0.549225
O173	O	0.230891	0.157573	0.087953
O174	O	0.730891	0.657573	0.587953
H175	H	0.237471	0.201752	0.070482
H176	H	0.737471	0.701752	0.570482
H177	H	0.939648	-0.109639	-0.000218
H178	H	1.439648	0.390361	0.499782
H179	H	0.373644	0.148763	0.076758
H180	H	0.873644	0.648763	0.576758
H181	H	0.642556	-0.350733	-0.000211
H182	H	1.142556	0.149267	0.499789
O183	O	0.954702	-0.227082	-0.000234
O184	O	1.454702	0.272918	0.499766
H185	H	0.999175	-0.201271	-0.000231
H186	H	1.499175	0.298729	0.499769
O187	O	0.800301	0.183688	0.420529
O188	O	1.300301	0.683688	0.920529
H189	H	0.842587	0.209645	0.435117
H190	H	1.342587	0.709645	0.935117
H191	H	0.931675	-0.656124	-0.000261
H192	H	1.431675	-0.156124	0.499739
O193	O	0.691442	-0.198230	-0.000180
O194	O	1.191442	0.301770	0.499820
H195	H	0.647858	-0.162768	-0.000171
H196	H	1.147858	0.337232	0.499829
H197	H	0.998986	-0.389829	-0.000263
H198	H	1.498986	0.110171	0.499737
H199	H	0.015161	0.166526	-0.000281
H200	H	0.515161	0.666526	0.499719
H201	H	0.709871	-0.084438	-0.000170
H202	H	1.209871	0.415562	0.499830
O203	O	0.946720	-0.773574	-0.000279
O204	O	1.446720	-0.273574	0.499721
H205	H	0.935399	-0.818701	-0.000286
H206	H	1.435399	-0.318701	0.499714
H207	H	0.906139	0.005394	0.195509
H208	H	1.406139	0.505394	0.695509
O209	O	0.918747	-0.004854	0.814085
O210	O	1.418747	0.495146	1.314085
H211	H	0.951784	-0.031844	0.774767
H212	H	1.451784	0.468156	1.274767
O213	O	0.918705	-0.004864	0.343875
O214	O	1.418705	0.495136	0.843875
H215	H	0.952288	0.019049	0.378580
H216	H	1.452288	0.519049	0.878580
H217	H	0.837158	-0.018308	0.430657
H218	H	1.337158	0.481692	0.930657
H219	H	0.733768	0.146265	0.195556
H220	H	1.233768	0.646265	0.695556
O221	O	0.839663	-0.032024	0.579016
O222	O	1.339663	0.467976	1.079016
H223	H	0.838068	-0.023307	0.638422
H224	H	1.338068	0.476693	1.138422
H225	H	0.700314	-0.738684	-0.000203
H226	H	1.200314	-0.238684	0.499797
H227	H	0.701886	-0.630931	-0.000213
H228	H	1.201886	-0.130931	0.499787
O229	O	0.486084	-0.030270	-0.000178
O230	O	0.986084	0.469730	0.499822
H231	H	0.504097	-0.054989	0.049192
H232	H	1.004097	0.445011	0.549192
H233	H	0.733828	0.146276	0.804060
H234	H	1.233828	0.646276	1.304060
H235	H	0.640978	-0.458486	-0.000215
H236	H	1.140978	0.041514	0.499785
H237	H	0.046503	-0.021810	-0.000307
H238	H	0.546503	0.478190	0.499693
H239	H	0.177928	-0.020230	-0.000236
H240	H	0.677928	0.479770	0.499764
H241	H	0.906182	0.005399	0.665721
H242	H	1.406182	0.505399	1.165721
O243	O	0.721269	0.156540	0.655692
O244	O	1.221269	0.656540	1.155692
H245	H	0.688249	0.183542	0.695010
H246	H	1.188249	0.683542	1.195010
O247	O	0.153875	0.181941	-0.000261
O248	O	0.653875	0.681941	0.499739
H249	H	0.186487	0.184829	-0.049616
H250	H	0.686487	0.684829	0.450384
O251	O	0.721245	0.156537	0.343929
O252	O	1.221245	0.656537	0.843929
H253	H	0.729787	0.200913	0.329271
H254	H	1.229787	0.700913	0.829271
H255	H	0.266322	0.002909	-0.077215
H256	H	0.766322	0.502909	0.422785
O257	O	0.409078	-0.005902	-0.088403
O258	O	0.909078	0.494098	0.411597
H259	H	0.376337	-0.033993	-0.117920
H260	H	0.876337	0.466007	0.382080
H261	H	0.593452	0.173479	-0.000193
H262	H	1.093452	0.673479	0.499807
O263	O	0.800329	0.183693	0.578983
O264	O	1.300329	0.683693	1.078983
H265	H	0.793737	0.219773	0.539666
H266	H	1.293737	0.719773	1.039666
