data_functionalizedCrystal
_audit_creation_method	'MofGen! by Chris Wilmer'
_symmetry_space_group_name_H-M	'P1'
_symmetry_Int_Tables_number	1
_symmetry_cell_setting	triclinic
loop_
_symmetry_equiv_pos_as_xyz
  x,y,z
_cell_length_a	16.120297
_cell_length_b	18.215407
_cell_length_c	18.215405
_cell_angle_alpha	90.025333
_cell_angle_beta	87.131114
_cell_angle_gamma	87.121904
loop_
_atom_site_label
_atom_site_type_symbol
_atom_site_fract_x
_atom_site_fract_y
_atom_site_fract_z
Zn1	Zn	-0.471369	-1.103973	0.314093
Zn2	Zn	-0.331950	-1.110122	0.430920
Zn3	Zn	-0.331972	-0.987145	0.307874
Zn4	Zn	-0.471315	-0.980874	0.437121
O5	O	-0.401652	-1.045528	0.372502
O6	O	-0.452888	-1.207772	0.329598
O7	O	-0.215291	-1.099007	0.409401
O8	O	-0.350495	-1.002694	0.205716
O9	O	-0.350458	-1.212290	0.415431
O10	O	-0.452909	-1.088527	0.210285
O11	O	-0.215307	-1.008656	0.318999
O12	O	-0.350443	-0.883329	0.325011
O13	O	-0.587985	-0.992005	0.425998
O14	O	-0.452818	-0.878722	0.419968
O15	O	-0.588024	-1.082446	0.335610
O16	O	-0.350406	-1.092926	0.534726
O17	O	-0.452797	-0.997968	0.539281
C18	C	-0.401628	-0.854323	0.372488
C19	C	-0.401637	-0.772524	0.372501
C20	C	-0.619100	-1.035840	0.382190
C21	C	-0.711763	-1.031711	0.386318
C22	C	-0.401612	-1.045452	0.563707
C23	C	-0.401622	-1.045486	0.645506
C24	C	-0.881420	-1.024147	0.393839
C25	C	-0.922735	-1.067055	0.350945
C26	C	-1.017138	-1.062846	0.355130
C27	C	-0.787008	-1.028355	0.389655
C28	C	-0.185050	-1.055221	0.362799
C29	C	-0.092387	-1.059493	0.358464
C30	C	-0.401676	-1.237480	0.372516
C31	C	-0.401687	-1.319279	0.372522
C32	C	-0.454877	-0.581953	0.422016
C33	C	-0.454887	-0.505094	0.422019
C34	C	-0.348445	-0.509855	0.323002
C35	C	-0.348439	-0.586712	0.322996
C36	C	-0.401654	-0.622760	0.372508
C37	C	-0.401670	-0.469043	0.372516
C38	C	-0.401681	-0.385709	0.372519
C39	C	-0.401644	-0.706099	0.372504
C40	C	-0.401710	-1.045624	0.180552
C41	C	-0.401735	-1.045664	0.098754
C42	C	-0.348406	-1.095037	0.831308
C43	C	-0.348426	-1.095069	0.908167
C44	C	-0.454958	-0.996111	0.912947
C45	C	-0.454941	-0.996083	0.836089
C46	C	-0.401660	-1.045545	0.795271
C47	C	-0.401697	-1.045605	0.948989
C48	C	-0.401719	-1.045640	1.032323
C49	C	-0.401639	-1.045512	0.711931
H50	H	-0.887208	-1.106951	0.311079
O51	O	-0.296614	-0.626329	0.274975
C52	C	-0.154879	-0.656126	0.232715
C53	C	-0.213468	-0.611232	0.287151
H54	H	-0.087645	-0.643924	0.242530
H55	H	-0.163948	-0.717262	0.241214
H56	H	-0.169683	-0.640389	0.174058
H57	H	-0.198701	-0.626906	0.345829
H58	H	-0.204389	-0.550108	0.278587
H59	H	-0.498228	-0.471872	0.462333
H60	H	-0.305022	-1.135313	0.798076
H61	H	-0.305118	-0.480496	0.282693
O62	O	-0.923925	-0.976620	0.441381
C63	C	-1.058146	-0.928997	0.488896
C64	C	-1.010100	-0.982862	0.435033
H65	H	-1.127827	-0.934015	0.483771
H66	H	-1.041145	-0.942639	0.547515
H67	H	-1.041025	-0.870416	0.475240
H68	H	-1.027195	-1.041462	0.448622
H69	H	-1.027106	-0.969156	0.376430
O70	O	-0.296697	-1.143063	0.943277
C71	C	-0.184217	-1.158168	1.025116
C72	C	-0.242732	-1.103717	0.985397
H73	H	-0.140560	-1.126377	1.059167
H74	H	-0.222561	-1.194887	1.062785
H75	H	-0.146173	-1.193557	0.982751
H76	H	-0.280788	-1.068279	1.027709
H77	H	-0.204341	-1.067049	0.947715
H78	H	-0.498336	-0.955840	0.946190
O79	O	-0.506652	-0.616852	0.470131
C80	C	-0.612201	-0.604016	0.568366
C81	C	-0.553618	-0.564402	0.513905
H82	H	-0.650175	-0.561628	0.603782
H83	H	-0.655913	-0.638049	0.536615
H84	H	-0.573836	-0.641708	0.605055
H85	H	-0.591916	-0.526673	0.477203
H86	H	-0.509903	-0.530414	0.545702
H87	H	-0.498312	-0.955781	0.806746
