data_functionalizedCrystal
_audit_creation_method	'MofGen! by Chris Wilmer'
_symmetry_space_group_name_H-M	'P1'
_symmetry_Int_Tables_number	1
_symmetry_cell_setting	triclinic
loop_
_symmetry_equiv_pos_as_xyz
  x,y,z
_cell_length_a	19.805407
_cell_length_b	19.805398
_cell_length_c	19.805405
_cell_angle_alpha	90.027637
_cell_angle_beta	90.025395
_cell_angle_gamma	90.017356
loop_
_atom_site_label
_atom_site_type_symbol
_atom_site_fract_x
_atom_site_fract_y
_atom_site_fract_z
Zn1	Zn	-1.034711	-0.382738	0.269508
Zn2	Zn	-0.534711	0.117262	0.769508
Zn3	Zn	-1.034633	-0.269547	0.382693
Zn4	Zn	-0.534633	0.230453	0.882693
Zn5	Zn	-0.921533	-0.269560	0.269522
Zn6	Zn	-0.421533	0.230440	0.769522
Zn7	Zn	-0.921489	-0.382691	0.382659
Zn8	Zn	-0.421489	0.117309	0.882659
O9	O	-0.978091	-0.326134	0.326096
O10	O	-0.478091	0.173866	0.826096
O11	O	-1.129417	-0.367738	0.284531
O12	O	-0.629417	0.132262	0.784531
O13	O	-1.019616	-0.174832	0.367701
O14	O	-0.519616	0.325168	0.867701
O15	O	-0.936597	-0.284599	0.174803
O16	O	-0.436597	0.215401	0.674803
O17	O	-1.129360	-0.284576	0.367688
O18	O	-0.629360	0.215424	0.867688
O19	O	-1.019748	-0.367751	0.174793
O20	O	-0.519748	0.132249	0.674793
O21	O	-0.936522	-0.174842	0.284554
O22	O	-0.436522	0.325158	0.784554
O23	O	-0.826810	-0.284553	0.284521
O24	O	-0.326810	0.215447	0.784521
O25	O	-0.936522	-0.477414	0.367629
O26	O	-0.436522	0.022586	0.867629
O27	O	-0.826778	-0.367669	0.367642
O28	O	-0.326778	0.132331	0.867642
O29	O	-1.019706	-0.477449	0.284498
O30	O	-0.519706	0.022551	0.784498
O31	O	-1.019573	-0.284530	0.477405
O32	O	-0.519573	0.215470	0.977405
O33	O	-0.936447	-0.367656	0.477380
O34	O	-0.436447	0.132344	0.977380
C35	C	-0.802235	-0.326108	0.326079
C36	C	-0.302235	0.173892	0.826079
C37	C	-0.727003	-0.326112	0.326089
C38	C	-0.227003	0.173888	0.826089
C39	C	-0.691660	-0.369320	0.369435
C40	C	-0.191660	0.130680	0.869435
C41	C	-0.620972	-0.369328	0.369435
C42	C	-0.120972	0.130672	0.869435
C43	C	-0.585628	-0.326124	0.326092
C44	C	-0.085628	0.173876	0.826092
C45	C	-0.620976	-0.282914	0.282741
C46	C	-0.120976	0.217086	0.782741
C47	C	-0.691663	-0.282910	0.282738
C48	C	-0.191663	0.217090	0.782738
C49	C	-0.335903	-0.282929	0.282751
C50	C	0.164097	0.217071	0.782751
C51	C	-0.265211	-0.282935	0.282759
C52	C	0.234789	0.217065	0.782759
C53	C	-0.265211	-0.369346	0.369447
C54	C	0.234789	0.130654	0.869447
C55	C	-0.335899	-0.369343	0.369445
C56	C	0.164101	0.130657	0.869445
C57	C	-0.371241	-0.326136	0.326092
C58	C	0.128759	0.173864	0.826092
C59	C	-0.447889	-0.326129	0.326091
C60	C	0.052111	0.173871	0.826091
C61	C	-0.508981	-0.326127	0.326095
C62	C	-0.008981	0.173873	0.826095
C63	C	-0.978118	-0.502677	0.326058
C64	C	-0.478118	-0.002677	0.826058
C65	C	-0.978129	-0.577909	0.326042
C66	C	-0.478129	-0.077909	0.826042
C67	C	-0.978015	-0.326101	0.501952
C68	C	-0.478015	0.173899	1.001952
C69	C	-0.978045	-0.326110	0.577184
C70	C	-0.478045	0.173890	1.077184
C71	C	-0.154634	-0.326154	0.326108
C72	C	0.345366	0.173846	0.826108
C73	C	-0.229866	-0.326146	0.326102
C74	C	0.270134	0.173854	0.826102
C75	C	-1.021525	-1.039719	0.282636
C76	C	-0.521525	-0.539719	0.782636
C77	C	-1.021514	-0.969031	0.282657
C78	C	-0.521514	-0.469031	0.782657
C79	C	-0.978199	-0.933671	0.325948
C80	C	-0.478199	-0.433671	0.825948
C81	C	-0.934896	-0.969003	0.369226
C82	C	-0.434896	-0.469003	0.869226
C83	C	-0.934911	-1.039690	0.369208
C84	C	-0.434911	-0.539690	0.869208
C85	C	-0.934837	-0.683929	0.369300
C86	C	-0.434837	-0.183929	0.869300
C87	C	-0.934825	-0.613237	0.369313
C88	C	-0.434825	-0.113237	0.869313
C89	C	-1.021441	-0.613270	0.282748
C90	C	-0.521441	-0.113270	0.782748
C91	C	-1.021455	-0.683958	0.282730
C92	C	-0.521455	-0.183958	0.782730
C93	C	-0.978155	-0.719283	0.326010
C94	C	-0.478155	-0.219283	0.826010
C95	C	-0.978168	-0.795932	0.325988
C96	C	-0.478168	-0.295932	0.825988
C97	C	-0.978182	-0.857024	0.325967
C98	C	-0.478182	-0.357024	0.825967
C99	C	-0.978104	-0.150278	0.326084
C100	C	-0.478104	0.349722	0.826084
C101	C	-0.978224	-0.075046	0.325909
C102	C	-0.478224	0.424954	0.825909
C103	C	-0.978186	-0.326182	0.149553
C104	C	-0.478186	0.173818	0.649553
C105	C	-0.978227	-0.326202	0.074321
C106	C	-0.478227	0.173798	0.574321
C107	C	-1.021371	-0.282871	0.612518
C108	C	-0.521371	0.217129	1.112518
C109	C	-1.021399	-0.282886	0.683207
C110	C	-0.521399	0.217114	1.183207
C111	C	-0.978098	-0.326137	0.718559
C112	C	-0.478098	0.173863	1.218559
C113	C	-0.934770	-0.369380	0.683219
C114	C	-0.434770	0.130620	1.183219
C115	C	-0.934746	-0.369368	0.612532
C116	C	-0.434746	0.130632	1.112532
C117	C	-0.934870	-0.369430	0.968292
C118	C	-0.434870	0.130570	1.468292
C119	C	-0.934897	-0.369438	1.038985
C120	C	-0.434897	0.130562	1.538985
C121	C	-1.021524	-0.282949	1.038967
C122	C	-0.521524	0.217051	1.538967
C123	C	-1.021499	-0.282936	0.968280
C124	C	-0.521499	0.217064	1.468280
C125	C	-0.978174	-0.326182	0.932946
C126	C	-0.478174	0.173818	1.432946
C127	C	-0.978144	-0.326166	0.856298
C128	C	-0.478144	0.173834	1.356298
C129	C	-0.978124	-0.326150	0.795206
C130	C	-0.478124	0.173850	1.295206
H131	H	-0.236436	-0.247753	0.247459
H132	H	0.263564	0.252247	0.747459
H133	H	-0.899579	-0.712683	0.404540
H134	H	-0.399579	-0.212683	0.904540
H135	H	-0.899517	-0.404598	0.712009
H136	H	-0.399517	0.095402	1.212009
O137	O	-1.068176	-0.722098	0.236041
O138	O	-0.568176	-0.222098	0.736041
H139	H	-1.098290	-0.685657	0.205958
H140	H	-0.598290	-0.185657	0.705958
O141	O	-0.888008	-0.415996	0.574415
O142	O	-0.388008	0.084004	1.074415
H143	H	-0.857895	-0.446066	0.610872
H144	H	-0.357895	0.053934	1.110872
H145	H	-0.720432	-0.404500	0.404732
H146	H	-0.220432	0.095500	0.904732
H147	H	-0.364670	-0.247742	0.247456
H148	H	0.135330	0.252258	0.747456
H149	H	-0.592193	-0.247740	0.247448
H150	H	-0.092193	0.252260	0.747448
H151	H	-0.899548	-0.584449	0.404565
H152	H	-0.399548	-0.084449	0.904565
O153	O	-0.729789	-0.236300	0.235995
O154	O	-0.229789	0.263700	0.735995
H155	H	-0.693338	-0.206251	0.205863
H156	H	-0.193338	0.293749	0.705863
O157	O	-0.888201	-1.077797	0.415875
O158	O	-0.388201	-0.577797	0.915875
H159	H	-0.899772	-1.064215	0.469002
H160	H	-0.399772	-0.564215	0.969002
O161	O	-1.068077	-0.236225	0.574389
O162	O	-0.568077	0.263775	1.074389
H163	H	-1.098214	-0.206167	0.610839
H164	H	-0.598214	0.293833	1.110839
O165	O	-1.068246	-1.077858	0.235945
O166	O	-0.568246	-0.577858	0.735945
H167	H	-1.098358	-1.041414	0.205863
H168	H	-0.598358	-0.541414	0.705863
H169	H	-1.056776	-0.940271	0.247421
H170	H	-0.556776	-0.440271	0.747421
H171	H	-1.056804	-0.247739	1.067745
H172	H	-0.556804	0.252261	1.567745
O173	O	-1.068155	-0.575171	0.236073
O174	O	-0.568155	-0.075171	0.736073
H175	H	-1.060878	-0.520077	0.243363
H176	H	-0.560878	-0.020077	0.743363
H177	H	-0.592199	-0.404511	0.404732
H178	H	-0.092199	0.095489	0.904732
H179	H	-0.899631	-0.940207	0.404478
H180	H	-0.399631	-0.440207	0.904478
O181	O	-1.068125	-0.236247	0.721321
O182	O	-0.568125	0.263753	1.221321
H183	H	-1.098223	-0.206163	0.684863
H184	H	-0.598223	0.293837	1.184863
H185	H	-1.056757	-0.247716	0.939499
H186	H	-0.556757	0.252284	1.439499
O187	O	-0.888197	-0.416093	1.077119
O188	O	-0.388197	0.083907	1.577119
H189	H	-0.858071	-0.446169	1.040674
H190	H	-0.358071	0.053831	1.540674
O191	O	-0.227119	-0.415955	0.416226
O192	O	0.272881	0.084045	0.916226
H193	H	-0.194939	-0.450473	0.386006
H194	H	0.305061	0.049527	0.886006
H195	H	-0.899592	-0.404641	0.939529
H196	H	-0.399592	0.095359	1.439529
H197	H	-0.364672	-0.404522	0.404741
H198	H	0.135328	0.095478	0.904741
