data_functionalizedCrystal
_audit_creation_method	'MofGen! by Chris Wilmer'
_symmetry_space_group_name_H-M	'P1'
_symmetry_Int_Tables_number	1
_symmetry_cell_setting	triclinic
loop_
_symmetry_equiv_pos_as_xyz
  x,y,z
_cell_length_a	6.817900
_cell_length_b	9.582860
_cell_length_c	14.858572
_cell_angle_alpha	92.654604
_cell_angle_beta	104.524003
_cell_angle_gamma	111.206767
loop_
_atom_site_label
_atom_site_type_symbol
_atom_site_fract_x
_atom_site_fract_y
_atom_site_fract_z
V1	V	-4.078434	-0.207997	-0.289789
V2	V	-3.745101	0.125336	0.043544
V3	V	-3.411768	0.458670	0.376878
O4	O	-4.023872	0.009026	-0.284448
O5	O	-3.690538	0.342359	0.048885
O6	O	-3.357205	0.675693	0.382219
O7	O	-4.069119	-0.411491	-0.287638
O8	O	-3.735785	-0.078157	0.045695
O9	O	-3.402452	0.255176	0.379028
O10	O	-4.034539	-0.205223	-0.416253
O11	O	-3.701206	0.128111	-0.082920
O12	O	-3.367872	0.461444	0.250414
O13	O	-4.058691	-0.198670	-0.154943
O14	O	-3.725357	0.134663	0.178390
O15	O	-3.392024	0.467997	0.511724
V16	V	-4.556414	-0.181988	-0.273681
V17	V	-4.223081	0.151345	0.059653
V18	V	-3.889747	0.484678	0.392986
O19	O	-4.351852	-0.265049	-0.325124
O20	O	-4.018519	0.068284	0.008210
O21	O	-3.685186	0.401618	0.341543
O22	O	-4.733193	-0.124936	-0.238346
O23	O	-4.399860	0.208397	0.094987
O24	O	-4.066527	0.541731	0.428320
O25	O	-4.342523	0.021506	-0.275831
O26	O	-4.009190	0.354839	0.057502
O27	O	-3.675856	0.688172	0.390835
O28	O	-4.728373	-0.399011	-0.279022
O29	O	-4.395040	-0.065678	0.054311
O30	O	-4.061707	0.267656	0.387645
O31	O	-4.693554	-0.191315	-0.408527
O32	O	-4.360221	0.142018	-0.075193
O33	O	-4.026888	0.475352	0.258140
O34	O	-4.377102	-0.184762	-0.147217
O35	O	-4.043769	0.148571	0.186116
O36	O	-3.710436	0.481904	0.519450
C37	C	-3.923482	-0.461085	-0.283023
C38	C	-3.590149	-0.127752	0.050310
C39	C	-3.256815	0.205582	0.383643
C40	C	-3.997182	-0.627447	-0.282108
C41	C	-3.663849	-0.294113	0.051225
C42	C	-3.330516	0.039220	0.384559
C43	C	-3.879371	-0.197968	-0.447083
C44	C	-3.546038	0.135366	-0.113749
C45	C	-3.212704	0.468699	0.219584
C46	C	-3.925024	-0.197046	-0.550467
C47	C	-3.591691	0.136287	-0.217133
C48	C	-3.258357	0.469621	0.116200
C49	C	-4.092116	-0.193677	-0.929037
C50	C	-3.758783	0.139656	-0.595704
C51	C	-3.425450	0.472989	-0.262371
C52	C	-4.045618	-0.194615	-0.823707
C53	C	-3.712284	0.138719	-0.490374
C54	C	-3.378951	0.472052	-0.157041
C55	C	-4.008572	-0.195363	-0.739755
C56	C	-3.675239	0.137970	-0.406422
C57	C	-3.341905	0.471304	-0.073089
C58	C	-3.962070	-0.196298	-0.634418
C59	C	-3.628736	0.137036	-0.301085
C60	C	-3.295403	0.470369	0.032248
C61	C	-4.151503	0.071092	-0.280444
C62	C	-3.818170	0.404425	0.052889
C63	C	-3.484836	0.737759	0.386223
C64	C	-4.057041	0.237452	-0.281365
C65	C	-3.723708	0.570785	0.051968
C66	C	-3.390375	0.904119	0.385301
C67	C	-4.195614	-0.192022	-0.116382
C68	C	-3.862280	0.141311	0.216951
C69	C	-3.528947	0.474644	0.550285
C70	C	-4.129197	-0.192936	-0.012997
C71	C	-3.795864	0.140397	0.320336
C72	C	-3.462531	0.473730	0.653669
