data_functionalizedCrystal
_audit_creation_method	'MofGen! by Chris Wilmer'
_symmetry_space_group_name_H-M	'P1'
_symmetry_Int_Tables_number	1
_symmetry_cell_setting	triclinic
loop_
_symmetry_equiv_pos_as_xyz
  x,y,z
_cell_length_a	21.295420
_cell_length_b	21.295417
_cell_length_c	17.077396
_cell_angle_alpha	89.967856
_cell_angle_beta	89.980351
_cell_angle_gamma	90.025484
loop_
_atom_site_label
_atom_site_type_symbol
_atom_site_fract_x
_atom_site_fract_y
_atom_site_fract_z
Zn1	Zn	0.962328	-0.250680	-0.443826
Zn2	Zn	1.462328	0.249320	0.056174
Zn3	Zn	0.962241	-0.355953	-0.312551
Zn4	Zn	1.462241	0.144047	0.187449
Zn5	Zn	0.857060	-0.250694	-0.312573
Zn6	Zn	1.357060	0.249306	0.187427
Zn7	Zn	0.857022	-0.355908	-0.443775
Zn8	Zn	1.357022	0.144092	0.056225
O9	O	0.909663	-0.303309	-0.378181
O10	O	1.409663	0.196691	0.121819
O11	O	1.050406	-0.264658	-0.426424
O12	O	1.550406	0.235342	0.073576
O13	O	0.948268	-0.342015	-0.202707
O14	O	1.448268	0.157985	0.297293
O15	O	0.871077	-0.162603	-0.330015
O16	O	1.371077	0.337397	0.169985
O17	O	1.050342	-0.342002	-0.329977
O18	O	1.550342	0.157998	0.170023
O19	O	0.948417	-0.162593	-0.426445
O20	O	1.448417	0.337407	0.073555
O21	O	0.870992	-0.264682	-0.202723
O22	O	1.370992	0.235318	0.297277
O23	O	0.768966	-0.264638	-0.329965
O24	O	1.268966	0.235362	0.170035
O25	O	0.871012	-0.341924	-0.553628
O26	O	1.371012	0.158076	-0.053628
O27	O	0.768938	-0.341938	-0.426358
O28	O	1.268938	0.158062	0.073642
O29	O	0.948380	-0.264614	-0.553666
O30	O	1.448380	0.235386	-0.053666
O31	O	0.948231	-0.444036	-0.329928
O32	O	1.448231	0.055964	0.170072
O33	O	0.870927	-0.444003	-0.426337
O34	O	1.370927	0.055997	0.073663
C35	C	0.746111	-0.303285	-0.378159
C36	C	1.246111	0.196715	0.121841
C37	C	0.676143	-0.303289	-0.378168
C38	C	1.176143	0.196711	0.121832
C39	C	0.176718	-0.263131	-0.428494
C40	C	0.676718	0.236869	0.071506
C41	C	0.242460	-0.263126	-0.428494
C42	C	0.742460	0.236874	0.071506
C43	C	0.275304	-0.303328	-0.378200
C44	C	0.775304	0.196672	0.121800
C45	C	0.242399	-0.343549	-0.327915
C46	C	0.742399	0.156451	0.172085
C47	C	0.176658	-0.343557	-0.327922
C48	C	0.676658	0.156443	0.172078
N49	N	0.378499	-0.308075	-0.309466
N50	N	0.878499	0.191925	0.190534
N51	N	0.440950	-0.308063	-0.309461
N52	N	0.940950	0.191937	0.190539
C53	C	0.473379	-0.303307	-0.378176
C54	C	0.973379	0.196693	0.121824
N55	N	0.440996	-0.298550	-0.446898
N56	N	0.940996	0.201450	0.053102
N57	N	0.378539	-0.298558	-0.446901
N58	N	0.878539	0.201442	0.053099
C59	C	0.346589	-0.303324	-0.378187
C60	C	0.846589	0.196676	0.121813
C61	C	0.577561	-0.263087	-0.428461
C62	C	1.077561	0.236913	0.071539
C63	C	0.643304	-0.263087	-0.428463
C64	C	1.143304	0.236913	0.071537
C65	C	0.643242	-0.343506	-0.327877
C66	C	1.143242	0.156494	0.172123
C67	C	0.577500	-0.343509	-0.327882
C68	C	1.077500	0.156491	0.172118
C69	C	0.544663	-0.303297	-0.378174
C70	C	1.044663	0.196703	0.121826
C71	C	0.909583	-0.466860	-0.378142
C72	C	1.409583	0.033140	0.121858
C73	C	0.909606	-0.536828	-0.378151
C74	C	1.409606	-0.036828	0.121849
C75	C	0.949854	-0.569633	-0.428398
C76	C	1.449854	-0.069633	0.071602
C77	C	0.949876	-0.635375	-0.428417
C78	C	1.449876	-0.135375	0.071583
C79	C	0.909657	-0.668311	-0.378176
C80	C	1.409657	-0.168311	0.121824
C81	C	0.869402	-0.635499	-0.327925
C82	C	1.369402	-0.135499	0.172075
C83	C	0.869376	-0.569758	-0.327912
C84	C	1.369376	-0.069758	0.172088
N85	N	0.904902	-0.771574	-0.309477
N86	N	1.404902	-0.271574	0.190523
N87	N	0.904930	-0.834025	-0.309491
N88	N	1.404930	-0.334025	0.190509
C89	C	0.909731	-0.866386	-0.378211
C90	C	1.409731	-0.366386	0.121789
N91	N	0.914514	-0.833935	-0.446918
N92	N	1.414514	-0.333935	0.053082
N93	N	0.914490	-0.771478	-0.446903
N94	N	1.414490	-0.271478	0.053097
C95	C	0.909680	-0.739596	-0.378184
C96	C	1.409680	-0.239596	0.121816
C97	C	0.950005	-0.970475	-0.428483
C98	C	1.450005	-0.470475	0.071517
C99	C	0.950022	-1.036219	-0.428504
C100	C	1.450022	-0.536219	0.071496
C101	C	0.869551	-1.036341	-0.328004
C102	C	1.369551	-0.536341	0.171996
C103	C	0.869530	-0.970599	-0.327991
C104	C	1.369530	-0.470599	0.172009
C105	C	0.909760	-0.937670	-0.378229
C106	C	1.409760	-0.437670	0.121771
C107	C	1.073853	-0.303333	-0.378204
C108	C	1.573853	0.196667	0.121796
C109	C	1.143821	-0.303344	-0.378214
C110	C	1.643821	0.196656	0.121786
C111	C	0.909701	-0.303262	-0.582926
C112	C	1.409701	0.196738	-0.082926
C113	C	0.909717	-0.303243	-0.670176
C114	C	1.409717	0.196757	-0.170176
C115	C	0.909761	-0.139118	-0.378238
C116	C	1.409761	0.360882	0.121762
C117	C	0.909802	-0.069150	-0.378263
C118	C	1.409802	0.430850	0.121737
C119	C	0.950004	-0.262984	-0.711187
C120	C	1.450004	0.237016	-0.211187
C121	C	0.950012	-0.262963	-0.793167
C122	C	1.450012	0.237037	-0.293167
C123	C	0.909735	-0.303204	-0.834135
C124	C	1.409735	0.196796	-0.334135
C125	C	0.869444	-0.343465	-0.793118
C126	C	1.369444	0.156535	-0.293118
C127	C	0.869434	-0.343482	-0.711139
C128	C	1.369434	0.156518	-0.211139
C129	C	0.869469	-0.343427	-0.963988
C130	C	1.369469	0.156573	-0.463988
C131	C	0.869480	-0.343411	-1.045973
C132	C	1.369480	0.156589	-0.545973
C133	C	0.950047	-0.262908	-1.046016
C134	C	1.450047	0.237092	-0.546016
C135	C	0.950037	-0.262925	-0.964037
C136	C	1.450037	0.237075	-0.464037
C137	C	0.909746	-0.303187	-0.923026
C138	C	1.409746	0.196813	-0.423026
C139	C	0.909661	-0.303309	-0.174233
C140	C	1.409661	0.196691	0.325767
C141	C	0.909767	-0.303152	-0.086984
C142	C	1.409767	0.196848	0.413016
H143	H	0.550824	-0.230343	-0.469412
H144	H	1.050824	0.269657	0.030588
O145	O	0.825974	-0.386902	-0.666909
O146	O	1.325974	0.113098	-0.166909
H147	H	0.854116	-0.418942	-0.629545
H148	H	1.354116	0.081058	-0.129545
H149	H	0.836682	-0.376177	-1.079327
H150	H	1.336682	0.123823	-0.579327
O151	O	0.825966	-0.534370	-0.273712
O152	O	1.325966	-0.034370	0.226288
H153	H	0.854151	-0.504417	-0.233807
H154	H	1.354151	-0.004417	0.266193
O155	O	0.277823	-0.386907	-0.273667
O156	O	0.777823	0.113093	0.226333
H157	H	0.243900	-0.414875	-0.238706
H158	H	0.743900	0.085125	0.261294
O159	O	0.542012	-0.386878	-0.273644
O160	O	1.042012	0.113122	0.226356
H161	H	0.512053	-0.358665	-0.233780
H162	H	1.012053	0.141335	0.266220
O163	O	0.141176	-0.386927	-0.273678
O164	O	0.641176	0.113073	0.226322
H165	H	0.111227	-0.418995	-0.308740
H166	H	0.611227	0.081005	0.191260
O167	O	0.826122	-0.935216	-0.273787
O168	O	1.326122	-0.435216	0.226213
H169	H	0.832858	-0.883969	-0.282223
H170	H	1.332858	-0.383969	0.217777
O171	O	0.993467	-0.219545	-0.837404
O172	O	1.493467	0.280455	-0.337404
H173	H	1.021479	-0.191573	-0.795143
H174	H	1.521479	0.308427	-0.295143
H175	H	0.982645	-0.662089	-0.469344
H176	H	1.482645	-0.162089	0.030656
H177	H	0.836650	-0.376202	-0.930600
H178	H	1.336650	0.123798	-0.430600
H179	H	0.982760	-0.943663	-0.469393
H180	H	1.482760	-0.443663	0.030607
H181	H	0.670088	-0.230342	-0.469413
H182	H	1.170088	0.269658	0.030587
O183	O	0.993449	-0.219579	-0.667007
O184	O	1.493449	0.280421	-0.167007
H185	H	1.025459	-0.247767	-0.629662
H186	H	1.525459	0.252233	-0.129662
O187	O	0.141300	-0.219764	-0.482739
O188	O	0.641300	0.280236	0.017261
H189	H	0.175224	-0.191803	-0.517706
H190	H	0.675224	0.308197	-0.017706
H191	H	0.836648	-0.376228	-0.826481
H192	H	1.336648	0.123772	-0.326481
H193	H	0.669982	-0.376244	-0.286932
H194	H	1.169982	0.123756	0.213068
O195	O	0.993433	-1.071606	-0.482703
O196	O	1.493433	-0.571606	0.017297
H197	H	1.021405	-1.037661	-0.517627
H198	H	1.521405	-0.537661	-0.017627
O199	O	0.993480	-0.219523	-0.919850
O200	O	1.493480	0.280477	-0.419850
H201	H	1.025486	-0.247715	-0.882504
H202	H	1.525486	0.252285	-0.382504
O203	O	0.826173	-1.071854	-0.273808
O204	O	1.326173	-0.571854	0.226192
H205	H	0.832955	-1.123080	-0.282253
H206	H	1.332955	-0.623080	0.217747
O207	O	0.993253	-0.534114	-0.482567
O208	O	1.493253	-0.034114	0.017433
H209	H	1.021246	-0.567975	-0.517509
H210	H	1.521246	-0.067975	-0.017509
O211	O	0.993500	-0.219475	-1.090242
O212	O	1.493500	0.280525	-0.590242
H213	H	0.986736	-0.226215	-1.154130
H214	H	1.486736	0.273785	-0.654130
O215	O	0.826031	-0.671022	-0.273727
O216	O	1.326031	-0.171022	0.226273
H217	H	0.794004	-0.700990	-0.308824
H218	H	1.294004	-0.200990	0.191176
O219	O	0.277955	-0.219746	-0.482719
O220	O	0.777955	0.280254	0.017281
H221	H	0.244076	-0.191782	-0.517686
H222	H	0.744076	0.308218	-0.017686
