data_functionalizedCrystal
_audit_creation_method	'MofGen! by Chris Wilmer'
_symmetry_space_group_name_H-M	'P1'
_symmetry_Int_Tables_number	1
_symmetry_cell_setting	triclinic
loop_
_symmetry_equiv_pos_as_xyz
  x,y,z
_cell_length_a	13.185408
_cell_length_b	17.699083
_cell_length_c	16.776229
_cell_angle_alpha	90.007545
_cell_angle_beta	89.994715
_cell_angle_gamma	112.371743
loop_
_atom_site_label
_atom_site_type_symbol
_atom_site_fract_x
_atom_site_fract_y
_atom_site_fract_z
O1	O	1.447494	0.197280	-0.066222
O2	O	1.947494	0.697280	0.433778
O3	O	1.129794	0.120521	-0.066238
O4	O	1.629794	0.620521	0.433762
O5	O	1.297620	0.270906	-0.066223
O6	O	1.797620	0.770906	0.433777
O7	O	1.279668	0.046894	-0.066238
O8	O	1.779668	0.546894	0.433762
O9	O	1.297597	0.270909	0.066354
O10	O	1.797597	0.770909	0.566354
O11	O	1.129771	0.120523	0.066338
O12	O	1.629771	0.620523	0.566338
O13	O	1.447472	0.197283	0.066355
O14	O	1.947472	0.697283	0.566355
Zn15	Zn	1.288618	0.158903	0.087396
Zn16	Zn	1.788618	0.658903	0.587396
Zn17	Zn	1.288647	0.158900	-0.087279
Zn18	Zn	1.788647	0.658900	0.412721
O19	O	1.279646	0.046897	0.066339
O20	O	1.779646	0.546897	0.566339
C21	C	1.089133	0.112740	0.000048
C22	C	1.589133	0.612740	0.500048
C23	C	0.968012	0.089562	0.000042
C24	C	1.468012	0.589562	0.500042
C25	C	0.897923	0.007036	0.000034
C26	C	1.397923	0.507036	0.500034
C27	C	0.784123	-0.014744	0.000040
C28	C	1.284123	0.485256	0.500040
C29	C	0.740400	0.046001	0.000047
C30	C	1.240400	0.546001	0.500047
C31	C	0.810489	0.128529	0.000048
C32	C	1.310489	0.628529	0.500048
C33	C	0.924300	0.150310	0.000049
C34	C	1.424300	0.650310	0.500049
C35	C	0.766777	0.189275	0.000061
C36	C	1.266777	0.689275	0.500061
C37	C	0.836866	0.271803	0.000063
C38	C	1.336866	0.771803	0.500063
C39	C	0.950666	0.293581	0.000063
C40	C	1.450666	0.793581	0.500063
C41	C	0.994389	0.232836	0.000056
C42	C	1.494389	0.732836	0.500056
C43	C	0.652965	0.167493	0.000061
C44	C	1.152965	0.667493	0.500061
C45	C	0.679343	0.310768	0.000075
C46	C	1.179343	0.810768	0.500075
C47	C	0.793143	0.332547	0.000069
C48	C	1.293143	0.832547	0.500069
C49	C	1.296965	0.298975	0.000066
C50	C	1.796965	0.798975	0.500066
C51	C	1.295036	0.382602	0.000066
C52	C	1.795036	0.882602	0.500066
C53	C	1.488132	0.205063	0.000067
C54	C	1.988132	0.705063	0.500067
C55	C	1.609254	0.228241	0.000068
C56	C	2.109254	0.728241	0.500068
N57	N	1.288606	0.158908	0.206607
N58	N	1.788606	0.658908	0.706607
C59	C	1.280300	0.018829	0.000049
C60	C	1.780300	0.518829	0.500049
C61	C	1.282230	-0.064799	0.000043
C62	C	1.782230	0.435201	0.500043
C63	C	1.393546	0.451163	0.000072
C64	C	1.893546	0.951163	0.500072
C65	C	1.391726	0.529738	0.000065
C66	C	1.891726	1.029738	0.500065
C67	C	1.291395	0.539750	0.000057
C68	C	1.791395	1.039750	0.500057
C69	C	1.192877	0.471182	0.000049
C70	C	1.692877	0.971182	0.500049
C71	C	1.194698	0.392608	0.000050
C72	C	1.694698	0.892608	0.500050
C73	C	1.185532	0.788058	0.000042
C74	C	1.685532	1.288058	0.500042
C75	C	1.183718	0.866639	0.000043
C76	C	1.683718	1.366639	0.500043
C77	C	1.382560	0.925187	0.000057
C78	C	1.882560	1.425187	0.500057
C79	C	1.384381	0.846614	0.000058
C80	C	1.884381	1.346614	0.500058
C81	C	1.285864	0.778053	0.000045
C82	C	1.785864	1.278053	0.500045
C83	C	1.287838	0.692853	0.000052
C84	C	1.787838	1.192853	0.500052
C85	C	1.289420	0.624948	0.000057
C86	C	1.789420	1.124948	0.500057
N87	N	1.288668	0.158903	-0.206491
N88	N	1.788668	0.658903	0.293509
C89	C	1.362942	0.225482	0.248331
C90	C	1.862942	0.725482	0.748331
C91	C	1.362948	0.225484	0.331783
C92	C	1.862948	0.725484	0.831783
C93	C	1.288623	0.158908	0.373510
C94	C	1.788623	0.658908	0.873510
C95	C	1.214279	0.092330	0.331780
C96	C	1.714279	0.592330	0.831780
C97	C	1.214268	0.092331	0.248329
C98	C	1.714268	0.592331	0.748329
C99	C	1.214318	0.092323	0.668327
C100	C	1.714318	0.592323	1.168327
C101	C	1.214336	0.092326	0.751784
C102	C	1.714336	0.592326	1.251784
C103	C	1.362998	0.225476	0.751781
C104	C	1.862998	0.725476	1.251781
C105	C	1.362988	0.225477	0.668331
C106	C	1.862988	0.725477	1.168331
C107	C	1.288640	0.158901	0.626608
C108	C	1.788640	0.658901	1.126608
C109	C	1.288633	0.158901	0.536120
C110	C	1.788633	0.658901	1.036120
C111	C	1.288634	0.158906	0.463997
C112	C	1.788634	0.658906	0.963997
H113	H	1.087053	0.250565	0.000054
H114	H	1.587053	0.750565	0.500054
Br115	Br	1.113460	0.001966	0.808413
Br116	Br	1.613460	0.501966	1.308413
H117	H	1.423477	0.279694	0.365755
H118	H	1.923477	0.779694	0.865755
Br119	Br	1.045785	0.405583	0.000084
Br120	Br	1.545785	0.905583	0.500084
H121	H	1.102012	0.874784	0.000038
H122	H	1.602012	1.374784	0.500038
H123	H	1.153784	0.038114	0.634363
H124	H	1.653784	0.538114	1.134363
H125	H	1.114480	0.336784	0.000045
H126	H	1.614480	0.836784	0.500045
Br127	Br	0.957266	-0.075393	0.000033
Br128	Br	1.457266	0.424607	0.500033
Br129	Br	0.620015	0.393212	0.000092
Br130	Br	1.120015	0.893212	0.500092
H131	H	1.105312	0.732243	0.000032
H132	H	1.605312	1.232243	0.500032
Br133	Br	0.888275	0.444546	0.000072
Br134	Br	1.388275	0.944546	0.500072
Br135	Br	0.585954	0.016442	0.000053
Br136	Br	1.085954	0.516442	0.500053
H137	H	1.423514	0.279688	0.634359
H138	H	1.923514	0.779688	1.134359
Br139	Br	1.056711	0.484768	0.000025
Br140	Br	1.556711	0.984768	0.500025
H141	H	1.475247	0.443020	0.000084
H142	H	1.975247	0.943020	0.500084
H143	H	1.471944	0.585560	0.000072
H144	H	1.971944	1.085560	0.500072
H145	H	1.466081	0.838469	0.000069
H146	H	1.966081	1.338469	0.500069
H147	H	1.153756	0.038124	0.365759
H148	H	1.653756	0.538124	0.865759
H149	H	1.462778	0.981021	0.000063
H150	H	1.962778	1.481021	0.500063
Br151	Br	1.463827	0.315837	0.191711
Br152	Br	1.963827	0.815837	0.691711
Br153	Br	1.463899	0.315832	0.808408
Br154	Br	1.963899	0.815832	1.308408
H155	H	0.595910	0.100298	0.000061
H156	H	1.095910	0.600298	0.500061
Br157	Br	0.689010	-0.126740	0.000036
Br158	Br	1.189010	0.373260	0.500036
H159	H	1.153735	0.038121	0.214358
H160	H	1.653735	0.538121	0.714358
