data_functionalizedCrystal
_audit_creation_method	'MofGen! by Chris Wilmer'
_symmetry_space_group_name_H-M	'P1'
_symmetry_Int_Tables_number	1
_symmetry_cell_setting	triclinic
loop_
_symmetry_equiv_pos_as_xyz
  x,y,z
_cell_length_a	10.654549
_cell_length_b	12.996460
_cell_length_c	10.654545
_cell_angle_alpha	90.003784
_cell_angle_beta	84.486172
_cell_angle_gamma	90.006595
loop_
_atom_site_label
_atom_site_type_symbol
_atom_site_fract_x
_atom_site_fract_y
_atom_site_fract_z
O1	O	1.667841	0.085586	0.176430
O2	O	1.302363	0.085582	0.193230
O3	O	1.493504	0.085583	0.002091
O4	O	1.476700	0.085585	0.367569
O5	O	1.493484	-0.085550	0.002080
O6	O	1.302343	-0.085552	0.193219
O7	O	1.667821	-0.085548	0.176420
Cu8	Cu	1.485080	-0.101176	0.184819
Cu9	Cu	1.485104	0.101210	0.184831
O10	O	1.476680	-0.085549	0.367559
C11	C	1.255555	0.000015	0.191990
C12	C	1.116112	0.000013	0.188296
C13	C	0.826129	0.000043	0.409919
C14	C	0.877666	0.000039	0.525937
C15	C	1.008684	0.000026	0.529413
C16	C	1.088169	0.000019	0.416857
C17	C	1.036632	0.000023	0.300839
C18	C	0.905609	0.000034	0.297376
C19	C	1.064575	0.000017	0.072277
C20	C	0.933557	0.000023	0.068799
C21	C	1.144060	0.000011	-0.040278
C22	C	1.092523	0.000007	-0.156300
C23	C	0.961496	0.000020	-0.159771
C24	C	0.882019	0.000027	-0.047220
N25	N	1.485073	-0.243523	0.184809
C26	C	1.485102	-0.663337	0.184833
C27	C	1.485090	-0.546532	0.184830
C28	C	1.485088	-0.453434	0.184822
C29	C	1.485075	-0.336621	0.184817
C30	C	1.714629	0.000022	0.177660
C31	C	1.854072	0.000030	0.181354
C32	C	1.492260	0.000019	-0.044712
C33	C	1.488568	0.000025	-0.184155
N34	N	1.485121	0.243557	0.184831
C35	C	1.488605	0.186600	-0.184152
C36	C	1.486893	0.279887	-0.249660
C37	C	1.483424	0.279888	-0.380679
C38	C	1.481663	0.186592	-0.446192
C39	C	1.483374	0.093305	-0.380684
C40	C	1.486847	0.093314	-0.249663
C41	C	1.483328	-0.093268	-0.380686
C42	C	1.486806	-0.093272	-0.249669
C43	C	1.481567	-0.186564	-0.446199
C44	C	1.483287	-0.279854	-0.380692
C45	C	1.486758	-0.279851	-0.249666
C46	C	1.488518	-0.186559	-0.184160
C47	C	1.477924	0.000018	0.414362
C48	C	1.481617	0.000019	0.553805
H49	H	0.775336	0.000028	-0.050035
C50	C	1.481350	-0.382465	-0.452756
H51	H	1.479040	-0.369103	-0.540167
H52	H	1.408806	-0.420795	-0.422344
H53	H	1.555032	-0.420796	-0.440234
C54	C	0.682013	0.000046	0.406094
H55	H	0.662703	0.000039	0.320879
H56	H	0.647219	0.059722	0.447522
H57	H	0.647208	-0.059642	0.447509
H58	H	1.491444	0.186608	-0.077471
C59	C	1.477839	0.186595	-0.590308
H60	H	1.477075	0.255514	-0.619940
H61	H	1.403939	0.152142	-0.611009
H62	H	1.550165	0.152140	-0.628889
H63	H	1.157248	0.000009	-0.247933
C64	C	1.477747	-0.186570	-0.590316
H65	H	1.476934	-0.255491	-0.619946
H66	H	1.550079	-0.152124	-0.628896
H67	H	1.403853	-0.152113	-0.611014
H68	H	1.250741	0.000005	-0.037440
C69	C	1.232286	0.000031	0.420675
H70	H	1.272242	0.000037	0.337029
H71	H	1.256770	-0.059639	0.463671
H72	H	1.256759	0.059725	0.463663
H73	H	1.491349	-0.186548	-0.077479
C74	C	1.488836	0.382505	-0.177596
H75	H	1.491159	0.369148	-0.090185
H76	H	1.415170	0.420844	-0.190128
H77	H	1.561397	0.420824	-0.208009
H78	H	1.488132	-0.355817	-0.196334
C79	C	0.790233	0.000041	0.649738
H80	H	0.704821	0.000039	0.631058
H81	H	0.805978	0.059716	0.697271
H82	H	0.805951	-0.059648	0.697255
C83	C	1.065385	0.000024	0.657025
H84	H	1.154798	0.000023	0.642967
H85	H	1.038158	-0.059648	0.703418
H86	H	1.038194	0.059716	0.703411
C87	C	1.481571	0.382500	-0.452745
H88	H	1.483131	0.438064	-0.394971
H89	H	1.407120	0.386395	-0.494933
H90	H	1.553347	0.386352	-0.512781
H91	H	0.919544	0.000028	-0.254247
