data_functionalizedCrystal
_audit_creation_method	'MofGen! by Chris Wilmer'
_symmetry_space_group_name_H-M	'P1'
_symmetry_Int_Tables_number	1
_symmetry_cell_setting	triclinic
loop_
_symmetry_equiv_pos_as_xyz
  x,y,z
_cell_length_a	12.759401
_cell_length_b	12.759394
_cell_length_c	12.759393
_cell_angle_alpha	89.968755
_cell_angle_beta	89.981287
_cell_angle_gamma	90.016362
loop_
_atom_site_label
_atom_site_type_symbol
_atom_site_fract_x
_atom_site_fract_y
_atom_site_fract_z
Zn1	Zn	1.606242	-0.418173	-0.594015
Zn2	Zn	1.606140	-0.593888	-0.418333
Zn3	Zn	1.430548	-0.418229	-0.418350
Zn4	Zn	1.430532	-0.593815	-0.593970
O5	O	1.518366	-0.506026	-0.506167
O6	O	1.753250	-0.441489	-0.570722
O7	O	1.582811	-0.570641	-0.271314
O8	O	1.453903	-0.271200	-0.441678
O9	O	1.753174	-0.570587	-0.441649
O10	O	1.582985	-0.271159	-0.570739
O11	O	1.453804	-0.441584	-0.271327
O12	O	1.283525	-0.441513	-0.441635
O13	O	1.453877	-0.570461	-0.740997
O14	O	1.283514	-0.570516	-0.570662
O15	O	1.582970	-0.441418	-0.741030
O16	O	1.582796	-0.740900	-0.441605
O17	O	1.453778	-0.740846	-0.570645
C18	C	1.245398	-0.506013	-0.506146
C19	C	1.128622	-0.506033	-0.506162
C20	C	1.073781	-0.573307	-0.573241
C21	C	0.964057	-0.573311	-0.573262
C22	C	0.964023	-0.438764	-0.439116
C23	C	1.073746	-0.438756	-0.439101
C24	C	0.814156	-0.611009	-0.697122
C25	C	0.759312	-0.678300	-0.764191
C26	C	0.794909	-0.780831	-0.780138
C27	C	0.885348	-0.816092	-0.728999
C28	C	0.940187	-0.748807	-0.661922
C29	C	0.904591	-0.646262	-0.645996
C30	C	1.223648	-0.401068	-0.315240
C31	C	1.278489	-0.333788	-0.248156
C32	C	1.242894	-0.231255	-0.232199
C33	C	1.152451	-0.195998	-0.283319
C34	C	1.097611	-0.263278	-0.350402
C35	C	1.133213	-0.365809	-0.366361
C36	C	1.518303	-0.778994	-0.506141
C37	C	1.518372	-0.895770	-0.506166
C38	C	1.652819	-0.895773	-0.371897
C39	C	1.720070	-0.950635	-0.304775
C40	C	1.720131	-1.060357	-0.304804
C41	C	1.652937	-1.115219	-0.371964
C42	C	1.585686	-1.060357	-0.439086
C43	C	1.585630	-0.950633	-0.439048
C44	C	1.451246	-1.060354	-0.573358
C45	C	1.451177	-0.950632	-0.573326
C46	C	1.384051	-1.115216	-0.640518
C47	C	1.316793	-1.060353	-0.707636
C48	C	1.316734	-0.950625	-0.707604
C49	C	1.383926	-0.895770	-0.640448
C50	C	1.792399	-0.506040	-0.506188
C51	C	1.909175	-0.506046	-0.506198
C52	C	1.518434	-0.505925	-0.780200
C53	C	1.518463	-0.505882	-0.896977
C54	C	1.518458	-0.231993	-0.506215
C55	C	1.518497	-0.115216	-0.506236
C56	C	1.451266	-0.573044	-0.951824
C57	C	1.451304	-0.573005	-1.061548
C58	C	1.585737	-0.438633	-1.061569
C59	C	1.585704	-0.438679	-0.951847
C60	C	1.413767	-0.696846	-1.211480
C61	C	1.346554	-0.763998	-1.266331
C62	C	1.244023	-0.780136	-1.230715
C63	C	1.208684	-0.729107	-1.140251
C64	C	1.275892	-0.661946	-1.085406
C65	C	1.378437	-0.645828	-1.121020
C66	C	1.623230	-0.314836	-0.801912
C67	C	1.690432	-0.247670	-0.747066
C68	C	1.792965	-0.231521	-0.782680
C69	C	1.828300	-0.282532	-0.873147
C70	C	1.761097	-0.349698	-0.927994
C71	C	1.658566	-0.365849	-0.892373
C72	C	1.518358	-0.506051	-0.233200
C73	C	1.518533	-0.505798	-0.116423
H74	H	0.750248	-0.835618	-0.834748
H75	H	1.911788	-0.269377	-0.902150
C76	C	1.113294	-0.083205	-0.265767
N77	N	1.083804	0.001752	-0.252544
H78	H	1.125189	-0.742242	-1.111267
C79	C	1.794110	-1.120707	-0.230966
N80	N	1.849829	-1.166162	-0.175351
C81	C	1.866885	-0.157630	-0.722344
N82	N	1.922564	-0.101981	-0.676901
H83	H	1.189298	-0.834813	-1.275382
C84	C	1.303204	-0.157260	-0.158373
N85	N	1.348620	-0.101529	-0.102763
H86	H	1.352132	-0.362504	-0.206531
C87	C	1.134141	-0.647306	-0.647017
N88	N	1.179601	-0.703041	-0.702591
H89	H	1.261974	-0.905962	-0.762267
C90	C	1.262813	-0.513861	-0.332791
N91	N	1.292311	-0.598817	-0.346005
H92	H	1.383877	-0.806429	-0.640408
H93	H	0.785172	-0.527517	-0.684155
H94	H	1.375337	-0.805546	-1.339987
H95	H	1.396508	-0.627759	-0.907152
C96	C	1.653014	-1.235916	-0.371996
N97	N	1.653070	-1.326826	-0.372020
C98	C	1.384119	-1.235912	-0.640545
N99	N	1.384164	-1.326823	-0.640563
H100	H	1.661650	-0.206126	-0.673408
C101	C	1.510437	-0.332597	-0.762728
N102	N	1.425481	-0.345969	-0.733214
C103	C	1.652748	-0.775076	-0.371850
N104	N	1.652696	-0.684166	-0.371812
C105	C	1.242886	-1.120708	-0.781502
N106	N	1.187215	-1.166171	-0.837136
C107	C	1.237027	-0.605821	-0.985897
N108	N	1.207752	-0.563553	-0.910941
H109	H	1.497259	-0.683724	-1.240480
H110	H	0.919330	-0.383991	-0.384516
C111	C	1.793977	-0.890280	-0.230900
N112	N	1.849644	-0.844822	-0.175257
H113	H	1.023973	-0.234559	-0.392034
H114	H	1.640480	-0.383917	-1.106258
H115	H	1.789874	-0.391230	-1.001661
H116	H	1.013820	-0.777517	-0.620286
H117	H	0.914318	-0.899588	-0.741980
C118	C	0.659837	-0.639505	-0.820448
N119	N	0.584911	-0.610290	-0.862820
