data_functionalizedCrystal
_audit_creation_method	'MofGen! by Chris Wilmer'
_symmetry_space_group_name_H-M	'P1'
_symmetry_Int_Tables_number	1
_symmetry_cell_setting	triclinic
loop_
_symmetry_equiv_pos_as_xyz
  x,y,z
_cell_length_a	6.394984
_cell_length_b	10.968094
_cell_length_c	9.482900
_cell_angle_alpha	92.548310
_cell_angle_beta	99.608195
_cell_angle_gamma	85.581781
loop_
_atom_site_label
_atom_site_type_symbol
_atom_site_fract_x
_atom_site_fract_y
_atom_site_fract_z
O1	O	0.369109	1.615759	0.283859
O2	O	0.373708	1.266620	0.196397
O3	O	0.067752	1.446148	0.241374
O4	O	0.675066	1.436231	0.238881
O5	O	0.130160	1.409686	0.474032
O6	O	0.436117	1.230158	0.429054
O7	O	0.431517	1.579297	0.516516
Cu8	Cu	0.439515	1.401398	0.494029
Cu9	Cu	0.365710	1.444519	0.218884
O10	O	0.737474	1.399768	0.471539
C11	C	0.399865	1.203626	0.301512
C12	C	0.384800	1.070247	0.268099
C13	C	0.394819	0.854034	0.339184
C14	C	0.410408	0.991885	0.373732
C15	C	1.020977	1.425944	0.357213
C16	C	0.784248	1.419967	0.355713
C17	C	0.405360	1.642291	0.411398
C18	C	0.420422	1.775671	0.444801
N19	N	0.491425	1.371078	0.687553
N20	N	0.313784	1.474848	0.025363
C21	C	0.381010	1.435567	0.775908
C22	C	0.424217	1.410349	0.937008
H23	H	0.351339	1.035288	0.152092
H24	H	0.443861	1.026846	0.489739
H25	H	0.254482	1.509444	0.732289
C26	C	0.049137	1.629396	1.079005
C27	C	0.142969	1.574592	0.966502
H28	H	-0.056323	1.690967	1.042662
H29	H	0.154796	1.665159	1.147315
H30	H	-0.014730	1.569229	1.123320
H31	H	0.206851	1.634758	0.922193
H32	H	0.037292	1.538829	0.898168
C33	C	0.518018	0.725187	0.154186
C34	C	0.349654	0.806844	0.182583
H35	H	0.490137	0.696063	0.057502
H36	H	0.532040	0.658171	0.215967
H37	H	0.646057	0.765959	0.169808
H38	H	0.221618	0.766069	0.166971
H39	H	0.335609	0.873870	0.120784
C40	C	0.472298	0.950287	0.605314
C41	C	0.465597	0.822860	0.601402
H42	H	0.500200	0.979413	0.701996
H43	H	0.339509	0.986253	0.560151
H44	H	0.581761	0.971611	0.556466
H45	H	0.356123	0.801536	0.650241
H46	H	0.598404	0.786882	0.646585
C47	C	0.542859	1.197377	0.930858
C48	C	0.595018	1.310601	0.995875
H49	H	0.648297	1.135798	0.967210
H50	H	0.536249	1.201245	0.830334
H51	H	0.408668	1.178293	0.950959
H52	H	0.729203	1.329689	0.975766
H53	H	0.601652	1.306734	1.096422
C54	C	0.610060	1.158110	0.681409
C55	C	0.662219	1.271334	0.746427
H56	H	0.715497	1.096532	0.717762
H57	H	0.603450	1.161978	0.580885
H58	H	0.475868	1.139026	0.701510
H59	H	0.796404	1.290422	0.726317
H60	H	0.668852	1.267467	0.846974
