data_functionalizedCrystal
_audit_creation_method	'MofGen! by Chris Wilmer'
_symmetry_space_group_name_H-M	'P1'
_symmetry_Int_Tables_number	1
_symmetry_cell_setting	triclinic
loop_
_symmetry_equiv_pos_as_xyz
  x,y,z
_cell_length_a	19.805407
_cell_length_b	18.050589
_cell_length_c	18.050583
_cell_angle_alpha	90.028091
_cell_angle_beta	90.019169
_cell_angle_gamma	90.028221
loop_
_atom_site_label
_atom_site_type_symbol
_atom_site_fract_x
_atom_site_fract_y
_atom_site_fract_z
Zn1	Zn	1.034724	-0.295634	0.419954
Zn2	Zn	1.368058	0.037699	0.753287
Zn3	Zn	1.701391	0.371033	1.086620
Zn4	Zn	1.034637	-0.419839	0.295773
Zn5	Zn	1.367970	-0.086506	0.629106
Zn6	Zn	1.701303	0.246828	0.962440
Zn7	Zn	0.921540	-0.295667	0.295776
Zn8	Zn	1.254873	0.037666	0.629109
Zn9	Zn	1.588207	0.370999	0.962442
Zn10	Zn	0.921499	-0.419787	0.419920
Zn11	Zn	1.254832	-0.086454	0.753253
Zn12	Zn	1.588166	0.246880	1.086586
O13	O	0.978100	-0.357732	0.357855
O14	O	1.311433	-0.024398	0.691189
O15	O	1.644767	0.308935	1.024522
O16	O	1.129429	-0.312118	0.403494
O17	O	1.462763	0.021215	0.736827
O18	O	1.796096	0.354549	1.070161
O19	O	1.019614	-0.403403	0.191849
O20	O	1.352948	-0.070070	0.525182
O21	O	1.686281	0.263264	0.858515
O22	O	0.936608	-0.191738	0.312264
O23	O	1.269941	0.141595	0.645597
O24	O	1.603275	0.474928	0.978930
O25	O	1.129365	-0.403371	0.312259
O26	O	1.462698	-0.070037	0.645592
O27	O	1.796031	0.263296	0.978926
O28	O	1.019764	-0.191714	0.403497
O29	O	1.353098	0.141619	0.736830
O30	O	1.686431	0.474953	1.070163
O31	O	0.936523	-0.312174	0.191851
O32	O	1.269856	0.021159	0.525184
O33	O	1.603189	0.354492	0.858517
O34	O	0.826818	-0.312124	0.312230
O35	O	1.160151	0.021209	0.645564
O36	O	1.493485	0.354543	0.978897
O37	O	0.936538	-0.403282	0.523849
O38	O	1.269872	-0.069949	0.857182
O39	O	1.603205	0.263385	1.190515
O40	O	0.826788	-0.403314	0.403438
O41	O	1.160121	-0.069981	0.736772
O42	O	1.493455	0.263352	1.070105
O43	O	1.019725	-0.312068	0.523874
O44	O	1.353058	0.021266	0.857207
O45	O	1.686391	0.354599	1.190540
O46	O	1.019575	-0.523757	0.312226
O47	O	1.352908	-0.190423	0.645559
O48	O	1.686241	0.142910	0.978893
O49	O	0.936453	-0.523718	0.403436
O50	O	1.269786	-0.190385	0.736769
O51	O	1.603120	0.142948	1.070103
C52	C	0.802244	-0.357718	0.357831
C53	C	1.135577	-0.024384	0.691165
C54	C	1.468911	0.308949	1.024498
C55	C	0.727012	-0.357729	0.357839
C56	C	1.060345	-0.024396	0.691172
C57	C	1.393679	0.308937	1.024505
C58	C	0.691670	-0.405284	0.405254
C59	C	1.025003	-0.071950	0.738587
C60	C	1.358337	0.261383	1.071921
C61	C	0.620981	-0.405285	0.405264
C62	C	0.954315	-0.071952	0.738598
C63	C	1.287648	0.261382	1.071931
C64	C	0.585636	-0.357735	0.357855
C65	C	0.918970	-0.024402	0.691189
C66	C	1.252303	0.308931	1.024522
C67	C	0.620983	-0.310176	0.310438
C68	C	0.954317	0.023158	0.643772
C69	C	1.287650	0.356491	0.977105
C70	C	0.691671	-0.310171	0.310432
C71	C	1.025004	0.023162	0.643765
C72	C	1.358337	0.356495	0.977099
C73	C	0.335910	-0.310192	0.310463
C74	C	0.669243	0.023141	0.643796
C75	C	1.002577	0.356475	0.977129
C76	C	0.265218	-0.310202	0.310471
C77	C	0.598551	0.023131	0.643804
C78	C	0.931885	0.356465	0.977138
C79	C	0.265221	-0.405306	0.405295
C80	C	0.598554	-0.071972	0.738628
C81	C	0.931888	0.261361	1.071962
C82	C	0.335908	-0.405301	0.405289
C83	C	0.669242	-0.071968	0.738622
C84	C	1.002575	0.261365	1.071956
C85	C	0.371249	-0.357739	0.357875
C86	C	0.704582	-0.024406	0.691208
C87	C	1.037916	0.308927	1.024542
C88	C	0.447897	-0.357738	0.357865
C89	C	0.781231	-0.024404	0.691198
C90	C	1.114564	0.308929	1.024532
C91	C	0.508989	-0.357740	0.357861
C92	C	0.842323	-0.024407	0.691194
C93	C	1.175656	0.308926	1.024528
C94	C	0.978018	-0.550684	0.357843
C95	C	1.311352	-0.217351	0.691176
C96	C	1.644685	0.115983	1.024510
C97	C	0.978045	-0.633230	0.357863
C98	C	1.311379	-0.299896	0.691196
C99	C	1.644712	0.033437	1.024529
C100	C	0.932888	-0.832687	0.407445
C101	C	1.266221	-0.499353	0.740779
C102	C	1.599555	-0.166020	1.074112
C103	C	0.916390	-0.882132	0.339678
C104	C	1.249724	-0.548799	0.673011
C105	C	1.583057	-0.215466	1.006344
C106	C	0.978112	-0.784360	0.357872
C107	C	1.311445	-0.451027	0.691206
C108	C	1.644778	-0.117693	1.024539
C109	C	0.994643	-0.881996	0.425648
C110	C	1.327976	-0.548663	0.758981
C111	C	1.661310	-0.215329	1.092314
C112	C	0.978175	-0.930345	0.357888
C113	C	1.311508	-0.597012	0.691221
C114	C	1.644841	-0.263678	1.024554
C115	C	0.961581	-0.832718	0.290069
C116	C	1.294915	-0.499385	0.623402
C117	C	1.628248	-0.166052	0.956736
C118	C	1.039863	-0.832578	0.376085
C119	C	1.373196	-0.499245	0.709418
C120	C	1.706529	-0.165911	1.042751
C121	C	1.023388	-0.882001	0.308270
C122	C	1.356722	-0.548668	0.641604
C123	C	1.690055	-0.215335	0.974937
C124	C	0.978074	-0.700262	0.357865
C125	C	1.311407	-0.366928	0.691198
C126	C	1.644740	-0.033595	1.024531
C127	C	0.978213	-1.014442	0.357888
C128	C	1.311546	-0.681108	0.691221
C129	C	1.644879	-0.347775	1.024555
C130	C	1.154643	-0.357747	0.357880
C131	C	1.487976	-0.024413	0.691213
C132	C	1.821309	0.308920	1.024547
C133	C	1.229875	-0.357753	0.357890
C134	C	1.563208	-0.024420	0.691224
C135	C	1.896541	0.308914	1.024557
C136	C	0.978137	-0.357665	0.551561
C137	C	1.311470	-0.024332	0.884895
C138	C	1.644803	0.309001	1.218228
C139	C	0.978152	-0.357637	0.634107
C140	C	1.311486	-0.024304	0.967440
C141	C	1.644819	0.309030	1.300774
C142	C	0.978200	-0.164026	0.357884
C143	C	1.311534	0.169307	0.691217
C144	C	1.644867	0.502641	1.024551
C145	C	0.978243	-0.081480	0.357896
C146	C	1.311577	0.251853	0.691230
C147	C	1.644910	0.585186	1.024563
C148	C	0.978102	-0.357744	0.164903
C149	C	1.311436	-0.024411	0.498237
C150	C	1.644769	0.308922	0.831570
C151	C	0.978218	-0.357563	0.082358
C152	C	1.311551	-0.024230	0.415691
C153	C	1.644885	0.309103	0.749025
C154	C	1.023431	-0.307985	0.882946
C155	C	1.356765	0.025349	1.216280
C156	C	1.690098	0.358682	1.549613
C157	C	1.039947	-0.375748	0.833538
C158	C	1.373281	-0.042415	1.166871
C159	C	1.706614	0.290919	1.500204
C160	C	0.978196	-0.357590	0.931228
C161	C	1.311529	-0.024257	1.264561
C162	C	1.644863	0.309077	1.597894
C163	C	0.961690	-0.289854	0.833554
C164	C	1.295024	0.043479	1.166888
C165	C	1.628357	0.376813	1.500221
C166	C	0.978176	-0.357610	0.785242
C167	C	1.311510	-0.024276	1.118576
C168	C	1.644843	0.309057	1.451909
C169	C	0.994744	-0.425389	0.882906
C170	C	1.328078	-0.092056	1.216240
C171	C	1.661411	0.241278	1.549573
C172	C	0.916458	-0.339449	0.882927
C173	C	1.249792	-0.006116	1.216261
C174	C	1.583125	0.327217	1.549594
C175	C	0.932951	-0.407259	0.833541
C176	C	1.266284	-0.073926	1.166874
C177	C	1.599618	0.259407	1.500208
C178	C	0.978209	-0.357578	1.015326
C179	C	1.311543	-0.024244	1.348659
C180	C	1.644876	0.309089	1.681993
C181	C	0.978163	-0.357629	0.701146
C182	C	1.311496	-0.024296	1.034479
C183	C	1.644830	0.309037	1.367812
H184	H	0.364676	-0.271470	0.271850
H185	H	0.698010	0.061863	0.605183
H186	H	1.031343	0.395197	0.938516
H187	H	1.061659	-0.903518	0.266306
H188	H	1.394993	-0.570185	0.599640
H189	H	1.728326	-0.236852	0.932973
H190	H	0.894689	-0.449266	0.811985
H191	H	1.228022	-0.115932	1.145319
H192	H	1.561355	0.217401	1.478652
H193	H	0.894588	-0.811032	0.449308
H194	H	1.227921	-0.477699	0.782641
H195	H	1.561254	-0.144366	1.115975
F196	F	1.012885	-0.910292	0.500556
F197	F	1.346219	-0.576959	0.833889
F198	F	1.679552	-0.243625	1.167222
H199	H	0.720443	-0.444007	0.443857
H200	H	1.053776	-0.110673	0.777191
H201	H	1.387109	0.222660	1.110524
H202	H	0.236442	-0.271477	0.271865
H203	H	0.569775	0.061857	0.605198
H204	H	0.903109	0.395190	0.938532
F205	F	0.583371	-0.455898	0.455730
F206	F	0.916704	-0.122565	0.789064
F207	F	1.250038	0.210768	1.122397
F208	F	0.373521	-0.455913	0.455745
F209	F	0.706855	-0.122580	0.789078
F210	F	1.040188	0.210754	1.122412
H211	H	0.720445	-0.271444	0.271826
H212	H	1.053779	0.061890	0.605159
H213	H	1.387112	0.395223	0.938492
H214	H	0.864199	-0.903915	0.324288
H215	H	1.197532	-0.570582	0.657621
H216	H	1.530866	-0.237248	0.990954
F217	F	0.943261	-0.804546	0.215138
F218	F	1.276595	-0.471212	0.548471
F219	F	1.609928	-0.137879	0.881804
F220	F	0.943453	-0.214971	0.805216
F221	F	1.276786	0.118362	1.138550
F222	F	1.610120	0.451696	1.471883
F223	F	0.583365	-0.259565	0.259987
F224	F	0.916698	0.073769	0.593320
F225	F	1.250031	0.407102	0.926653
F226	F	1.108066	-0.804107	0.396243
F227	F	1.441399	-0.470774	0.729576
F228	F	1.774732	-0.137440	1.062909
H229	H	0.864272	-0.324072	0.904639
H230	H	1.197605	0.009262	1.237972
H231	H	1.530939	0.342595	1.571306
H232	H	1.061723	-0.266079	0.904638
H233	H	1.395056	0.067254	1.237972
H234	H	1.728390	0.400588	1.571305
F235	F	1.013062	-0.500295	0.911120
F236	F	1.346395	-0.166962	1.244453
F237	F	1.679728	0.166372	1.577787
F238	F	0.227603	-0.455925	0.455759
F239	F	0.560937	-0.122592	0.789092
F240	F	0.894270	0.210741	1.122425
F241	F	1.108178	-0.395822	0.805181
F242	F	1.441512	-0.062489	1.138514
F243	F	1.774845	0.270844	1.471848
