data_functionalizedCrystal
_audit_creation_method	'MofGen! by Chris Wilmer'
_symmetry_space_group_name_H-M	'P1'
_symmetry_Int_Tables_number	1
_symmetry_cell_setting	triclinic
loop_
_symmetry_equiv_pos_as_xyz
  x,y,z
_cell_length_a	10.686220
_cell_length_b	14.908178
_cell_length_c	10.685314
_cell_angle_alpha	90.786383
_cell_angle_beta	98.357559
_cell_angle_gamma	97.932243
loop_
_atom_site_label
_atom_site_type_symbol
_atom_site_fract_x
_atom_site_fract_y
_atom_site_fract_z
Zn1	Zn	1.863978	-0.286762	-0.547482
Zn2	Zn	1.869739	-0.425149	-0.324860
Zn3	Zn	1.667983	-0.286837	-0.351511
Zn4	Zn	1.639449	-0.450139	-0.551422
O5	O	1.760287	-0.362222	-0.443819
O6	O	2.043144	-0.294630	-0.505148
O7	O	1.857328	-0.396375	-0.151564
O8	O	1.703512	-0.160569	-0.387011
O9	O	2.047377	-0.396303	-0.341589
O10	O	1.847509	-0.160514	-0.530990
O11	O	1.709098	-0.294757	-0.171145
O12	O	1.485796	-0.318988	-0.390832
O13	O	1.654881	-0.438894	-0.727731
O14	O	1.464832	-0.438966	-0.537706
O15	O	1.819841	-0.318862	-0.724836
O16	O	1.829660	-0.554722	-0.345410
O17	O	1.660467	-0.573082	-0.511864
C18	C	1.429056	-0.381698	-0.467590
C19	C	1.287350	-0.390053	-0.477787
C20	C	1.742625	-0.596639	-0.426198
C21	C	1.735182	-0.696920	-0.418693
C22	C	1.871003	-0.885168	-0.554699
C23	C	1.864014	-0.979390	-0.547651
C24	C	1.714209	-0.979589	-0.397559
C25	C	1.721198	-0.885367	-0.404606
C26	C	1.799599	-0.838159	-0.483177
C27	C	1.806594	-0.743934	-0.490217
C28	C	1.656783	-0.744136	-0.340132
C29	C	1.649794	-0.838358	-0.333085
C30	C	2.092811	-0.342671	-0.419956
C31	C	2.234513	-0.334339	-0.409787
C32	C	1.733536	-0.381657	-0.773416
C33	C	1.722136	-0.389939	-0.913870
C34	C	1.778051	-0.126889	-0.461534
C35	C	1.785621	-0.026604	-0.469083
C36	C	1.787013	-0.342793	-0.115504
C37	C	1.798679	-0.334242	0.024948
H38	H	1.224170	-0.444152	-0.543803
Cl39	Cl	1.567023	-0.685033	-0.250204
Cl40	Cl	1.913307	-0.250825	-0.890031
Cl41	Cl	1.905157	-0.684588	-0.588987
H42	H	1.297687	-0.280249	-0.343767
Cl43	Cl	1.969576	-0.825816	-0.653455
Cl44	Cl	1.615623	-1.038954	-0.298826
H45	H	1.922151	-1.017661	-0.605898
H46	H	1.585959	-0.876808	-0.269118
Cl47	Cl	1.607488	-0.473351	-0.998897
