data_functionalizedCrystal
_audit_creation_method	'MofGen! by Chris Wilmer'
_symmetry_space_group_name_H-M	'P1'
_symmetry_Int_Tables_number	1
_symmetry_cell_setting	triclinic
loop_
_symmetry_equiv_pos_as_xyz
  x,y,z
_cell_length_a	12.759401
_cell_length_b	18.101396
_cell_length_c	12.759393
_cell_angle_alpha	90.032863
_cell_angle_beta	89.981425
_cell_angle_gamma	89.962550
loop_
_atom_site_label
_atom_site_type_symbol
_atom_site_fract_x
_atom_site_fract_y
_atom_site_fract_z
Zn1	Zn	1.606092	0.294777	-0.593976
Zn2	Zn	1.605918	0.418639	-0.418292
Zn3	Zn	1.430394	0.294817	-0.418315
Zn4	Zn	1.430314	0.418582	-0.593933
O5	O	1.518180	0.356704	-0.506129
O6	O	1.753090	0.311215	-0.570679
O7	O	1.582595	0.402254	-0.271274
O8	O	1.453807	0.191178	-0.441644
O9	O	1.752962	0.402215	-0.441605
O10	O	1.582892	0.191149	-0.570701
O11	O	1.453638	0.311282	-0.271290
O12	O	1.283362	0.311227	-0.441602
O13	O	1.453671	0.402119	-0.740960
O14	O	1.283304	0.402157	-0.570628
O15	O	1.582814	0.311160	-0.740991
O16	O	1.582518	0.522264	-0.441564
O17	O	1.453502	0.522223	-0.570606
C18	C	1.245212	0.356691	-0.506114
C19	C	1.128436	0.356703	-0.506133
C20	C	1.073641	0.309405	-0.573445
C21	C	0.963917	0.309412	-0.573452
C22	C	0.963792	0.404023	-0.438831
C23	C	1.073514	0.404011	-0.438820
C24	C	0.814045	0.222121	-0.611223
C25	C	0.759246	0.174829	-0.678552
C26	C	0.794909	0.163540	-0.781091
C27	C	0.885369	0.199555	-0.816322
C28	C	0.940161	0.246852	-0.748998
C29	C	0.904500	0.258126	-0.646445
C30	C	1.223388	0.491304	-0.401059
C31	C	1.278183	0.538606	-0.333740
C32	C	1.242522	0.549902	-0.231200
C33	C	1.152059	0.513901	-0.195973
C34	C	1.097264	0.466599	-0.263292
C35	C	1.132932	0.455302	-0.365831
C36	C	1.518011	0.549114	-0.506101
C37	C	1.518035	0.631428	-0.506124
C38	C	1.518221	0.930519	-0.506185
C39	C	1.437241	0.899199	-0.587577
C40	C	1.436869	0.813581	-0.587321
C41	C	1.518129	0.782137	-0.506156
C42	C	1.488144	0.813297	-0.395431
C43	C	1.487609	0.898942	-0.395920
C44	C	1.629369	0.898860	-0.534543
C45	C	1.628728	0.813209	-0.536970
C46	C	1.518078	0.698277	-0.506132
C47	C	1.518269	1.014379	-0.506201
C48	C	1.792213	0.356717	-0.506144
C49	C	1.908989	0.356723	-0.506151
C50	C	1.518253	0.356629	-0.780162
C51	C	1.518284	0.356597	-0.896939
C52	C	1.518341	1.163542	-0.506184
C53	C	1.518315	1.081228	-0.506217
C54	C	1.451161	0.309219	-0.951809
C55	C	1.451185	0.309197	-1.061533
C56	C	1.585466	0.403931	-1.061507
C57	C	1.585435	0.403957	-0.951785
C58	C	1.327349	0.282693	-1.211487
C59	C	1.260235	0.235304	-1.266361
C60	C	1.244171	0.163051	-1.230774
C61	C	1.295236	0.138172	-1.140314
C62	C	1.362358	0.185557	-1.085446
C63	C	1.378403	0.257821	-1.121032
C64	C	1.709273	0.430453	-0.801830
C65	C	1.776401	0.477835	-0.746959
C66	C	1.792476	0.550089	-0.782544
C67	C	1.741429	0.574965	-0.873007
C68	C	1.674301	0.527583	-0.927878
C69	C	1.658224	0.455330	-0.892285
C70	C	1.518167	0.356725	-0.233161
C71	C	1.518339	0.356548	-0.116385
H72	H	0.685594	0.145506	-0.649857
C73	C	1.344998	0.362181	-1.250630
N74	N	1.358291	0.422052	-1.280118
C75	C	1.204056	0.262676	-1.365857
N76	N	1.161742	0.283290	-1.440797
C77	C	1.666286	0.927957	-0.641766
N78	N	1.694080	0.949873	-0.722531
C79	C	1.659098	0.456186	-1.121848
N80	N	1.714476	0.495604	-1.167296
H81	H	0.919061	0.442541	-0.384028
H82	H	1.455630	0.792510	-0.669422
C83	C	0.734632	0.111512	-0.855147
N84	N	0.689230	0.072320	-0.910920
C85	C	1.134051	0.257358	-0.647482
N86	N	1.179548	0.218153	-0.703245
C87	C	1.325561	0.785989	-0.562021
N88	N	1.241713	0.765208	-0.542990
C89	C	1.832555	0.450467	-0.647448
N90	N	1.874848	0.429854	-0.572495
C91	C	0.774813	0.234528	-0.498420
N92	N	0.745258	0.243874	-0.413457
H93	H	1.406361	0.918987	-0.371897
H94	H	1.287126	0.588440	-0.176401
C95	C	0.997754	0.426993	-0.224536
N96	N	0.922805	0.397162	-0.195344
H97	H	1.692261	0.791800	-0.482009
H98	H	1.013815	0.276171	-0.777681
C99	C	1.326616	0.928353	-0.562513
N100	N	1.243292	0.950311	-0.543628
C101	C	1.112830	0.526325	-0.083172
N102	N	1.083284	0.535686	0.001792
C103	C	0.924602	0.187123	-0.929118
N104	N	0.954163	0.177751	-1.014074
H105	H	1.351853	0.567910	-0.362426
H106	H	1.696160	0.371625	-0.772826
C107	C	1.262623	0.478881	-0.513861
N108	N	1.292175	0.469528	-0.598825
H109	H	1.651339	0.792840	-0.618458
C110	C	1.563822	0.926938	-0.311192
N111	N	1.621218	0.948022	-0.247370
C112	C	1.866325	0.602208	-0.722183
N113	N	1.921943	0.641465	-0.676721
C114	C	1.565320	0.785779	-0.311266
N115	N	1.623448	0.765049	-0.247874
C116	C	1.379547	0.784418	-0.362397
N117	N	1.297748	0.762669	-0.337523
H118	H	1.689702	0.919114	-0.475263
H119	H	1.455810	0.919740	-0.669944
C120	C	1.377284	0.257128	-0.891482
N121	N	1.321635	0.217894	-0.846047
H122	H	1.403939	0.165300	-1.011799
H123	H	1.282160	0.079333	-1.111353
H124	H	1.189524	0.124466	-1.275460
C125	C	1.618142	0.554952	-1.027387
N126	N	1.575842	0.575566	-1.102335
H127	H	1.754522	0.633800	-0.901985
