data_functionalizedCrystal
_audit_creation_method	'MofGen! by Chris Wilmer'
_symmetry_space_group_name_H-M	'P1'
_symmetry_Int_Tables_number	1
_symmetry_cell_setting	triclinic
loop_
_symmetry_equiv_pos_as_xyz
  x,y,z
_cell_length_a	14.044191
_cell_length_b	14.044190
_cell_length_c	12.503572
_cell_angle_alpha	93.853158
_cell_angle_beta	93.844747
_cell_angle_gamma	86.808223
loop_
_atom_site_label
_atom_site_type_symbol
_atom_site_fract_x
_atom_site_fract_y
_atom_site_fract_z
O1	O	-1.272126	0.235248	0.089292
O2	O	-1.022126	0.485248	0.339292
O3	O	-0.772126	0.735248	0.589292
O4	O	-0.522126	0.985248	0.839292
O5	O	-0.995453	0.226936	0.089305
O6	O	-0.745453	0.476936	0.339305
O7	O	-0.495453	0.726936	0.589305
O8	O	-0.245453	0.976936	0.839305
O9	O	-1.129634	0.092755	0.089278
O10	O	-0.879634	0.342755	0.339278
O11	O	-0.629634	0.592755	0.589278
O12	O	-0.379634	0.842755	0.839278
O13	O	-1.137945	0.369430	0.089320
O14	O	-0.887945	0.619430	0.339320
O15	O	-0.637945	0.869430	0.589320
O16	O	-0.387945	1.119430	0.839320
O17	O	-1.139729	0.082651	-0.089366
O18	O	-0.889729	0.332651	0.160634
O19	O	-0.639729	0.582651	0.410634
O20	O	-0.389729	0.832651	0.660634
O21	O	-1.005548	0.216832	-0.089339
O22	O	-0.755548	0.466832	0.160661
O23	O	-0.505548	0.716832	0.410661
O24	O	-0.255548	0.966832	0.660661
O25	O	-1.282221	0.225144	-0.089352
O26	O	-1.032221	0.475144	0.160648
O27	O	-0.782221	0.725144	0.410648
O28	O	-0.532221	0.975144	0.660648
Cu29	Cu	-1.144806	0.220065	-0.105657
Cu30	Cu	-0.894806	0.470065	0.144343
Cu31	Cu	-0.644806	0.720065	0.394343
Cu32	Cu	-0.394806	0.970065	0.644343
Cu33	Cu	-1.132868	0.232015	0.105610
Cu34	Cu	-0.882868	0.482015	0.355610
Cu35	Cu	-0.632868	0.732015	0.605610
Cu36	Cu	-0.382868	0.982015	0.855610
O37	O	-1.148039	0.359326	-0.089324
O38	O	-0.898039	0.609326	0.160676
O39	O	-0.648039	0.859326	0.410676
O40	O	-0.398039	1.109326	0.660676
C41	C	-0.964878	0.218248	-0.000016
C42	C	-0.714878	0.468248	0.249984
C43	C	-0.464878	0.718248	0.499984
C44	C	-0.214878	0.968248	0.749984
C45	C	-0.858734	0.207401	-0.000012
C46	C	-0.608734	0.457401	0.249988
C47	C	-0.358734	0.707401	0.499988
C48	C	-0.108734	0.957401	0.749988
C49	C	-1.131045	0.052080	-0.000047
C50	C	-0.881045	0.302080	0.249953
C51	C	-0.631045	0.552080	0.499953
C52	C	-0.381045	0.802080	0.749953
C53	C	-1.120198	-0.054063	-0.000056
C54	C	-0.870198	0.195937	0.249944
C55	C	-0.620198	0.445937	0.499944
C56	C	-0.370198	0.695937	0.749944
C57	C	-1.177297	-0.299518	-0.000017
C58	C	-0.927297	-0.049518	0.249983
C59	C	-0.677297	0.200482	0.499983
C60	C	-0.427297	0.450482	0.749983
C61	C	-1.100381	-0.248395	-0.000021
C62	C	-0.850381	0.001605	0.249979
C63	C	-0.600381	0.251605	0.499979
C64	C	-0.350381	0.501605	0.749979
C65	C	-1.111410	-0.140259	-0.000040
C66	C	-0.861410	0.109741	0.249960
C67	C	-0.611410	0.359741	0.499960
C68	C	-0.361410	0.609741	0.749960
C69	C	-1.166269	-0.407664	0.000003
C70	C	-0.916269	-0.157664	0.250003
C71	C	-0.666269	0.092336	0.500003
C72	C	-0.416269	0.342336	0.750003
C73	C	-1.312795	0.233833	-0.000029
C74	C	-1.062795	0.483833	0.249971
C75	C	-0.812795	0.733833	0.499971
C76	C	-0.562795	0.983833	0.749971
C77	C	-1.418939	0.244680	-0.000026
C78	C	-1.168939	0.494680	0.249974
C79	C	-0.918939	0.744680	0.499974
C80	C	-0.668939	0.994680	0.749974
C81	C	-0.613277	0.264501	-0.000014
C82	C	-0.363277	0.514501	0.249986
C83	C	-0.113277	0.764501	0.499986
C84	C	0.136723	1.014501	0.749986
C85	C	-0.664402	0.187584	-0.000023
C86	C	-0.414402	0.437584	0.249977
C87	C	-0.164402	0.687584	0.499977
C88	C	0.085598	0.937584	0.749977
C89	C	-0.772538	0.198613	-0.000017
C90	C	-0.522538	0.448613	0.249983
C91	C	-0.272538	0.698613	0.499983
C92	C	-0.022538	0.948613	0.749983
C93	C	-0.505131	0.253474	-0.000020
C94	C	-0.255131	0.503474	0.249980
C95	C	-0.005131	0.753474	0.499980
C96	C	0.244869	1.003474	0.749980
C97	C	-1.146628	0.400000	0.000003
C98	C	-0.896628	0.650000	0.250003
C99	C	-0.646628	0.900000	0.500003
C100	C	-0.396628	1.150000	0.750003
C101	C	-1.157475	0.506144	0.000019
C102	C	-0.907475	0.756144	0.250019
C103	C	-0.657475	1.006144	0.500019
C104	C	-0.407475	1.256144	0.750019
N105	N	-1.124471	0.240413	0.254204
N106	N	-0.874471	0.490413	0.504204
N107	N	-0.624471	0.740413	0.754204
N108	N	-0.374471	0.990413	1.004204
N109	N	-1.153210	0.211661	-0.254251
N110	N	-0.903210	0.461661	-0.004251
N111	N	-0.653210	0.711661	0.245749
N112	N	-0.403210	0.961661	0.495749
C113	C	-1.112111	0.252766	0.473322
C114	C	-0.862111	0.502766	0.723322
C115	C	-0.612111	0.752766	0.973322
C116	C	-0.362111	1.002766	1.223322
C117	C	-1.165567	0.199311	0.526638
C118	C	-0.915567	0.449311	0.776638
C119	C	-0.665567	0.699311	1.026638
C120	C	-0.415567	0.949311	1.276638
C121	C	-1.158690	0.206184	0.648563
C122	C	-0.908690	0.456184	0.898563
C123	C	-0.658690	0.706184	1.148563
C124	C	-0.408690	0.956184	1.398563
C125	C	-1.118987	0.245893	0.351386
C126	C	-0.868987	0.495893	0.601386
C127	C	-0.618987	0.745893	0.851386
C128	C	-0.368987	0.995893	1.101386
H129	H	-1.026247	-0.285840	-0.000011
H130	H	-0.776247	-0.035840	0.249989
H131	H	-0.526247	0.214160	0.499989
H132	H	-0.276247	0.464160	0.749989
O133	O	-1.275491	-0.249927	-0.000032
O134	O	-1.025491	0.000073	0.249968
O135	O	-0.775491	0.250073	0.499968
O136	O	-0.525491	0.500073	0.749968
H137	H	-1.318930	-0.275074	-0.072841
H138	H	-1.068930	-0.025074	0.177159
H139	H	-0.818930	0.224926	0.427159
H140	H	-0.568930	0.474926	0.677159
H141	H	-0.626953	0.113455	0.000041
H142	H	-0.376953	0.363455	0.250041
H143	H	-0.126953	0.613455	0.500041
H144	H	0.123047	0.863455	0.750041
O145	O	-0.662864	0.362698	0.000015
O146	O	-0.412864	0.612698	0.250015
O147	O	-0.162864	0.862698	0.500015
O148	O	0.087136	1.112698	0.750015
H149	H	-0.741247	0.356059	0.000028
H150	H	-0.491247	0.606059	0.250028
H151	H	-0.241247	0.856059	0.500028
H152	H	0.008753	1.106059	0.750028
O153	O	-1.233024	0.131840	0.465822
O154	O	-0.983024	0.381840	0.715822
O155	O	-0.733024	0.631840	0.965822
O156	O	-0.483024	0.881840	1.215822
H157	H	-1.227902	0.136949	0.378213
H158	H	-0.977902	0.386949	0.628213
H159	H	-0.727902	0.636949	0.878213
H160	H	-0.477902	0.886949	1.128213
O161	O	-1.044622	0.320195	0.534138
O162	O	-0.794622	0.570195	0.784138
O163	O	-0.544622	0.820195	1.034138
O164	O	-0.294622	1.070195	1.284138
H165	H	-1.049727	0.315059	0.621745
H166	H	-0.799727	0.565059	0.871745
H167	H	-0.549727	0.815059	1.121745
H168	H	-0.299727	1.065059	1.371745
