data_functionalizedCrystal
_audit_creation_method	'MofGen! by Chris Wilmer'
_symmetry_space_group_name_H-M	'P1'
_symmetry_Int_Tables_number	1
_symmetry_cell_setting	triclinic
loop_
_symmetry_equiv_pos_as_xyz
  x,y,z
_cell_length_a	17.917603
_cell_length_b	12.970454
_cell_length_c	17.917603
_cell_angle_alpha	63.035632
_cell_angle_beta	90.239941
_cell_angle_gamma	57.011542
loop_
_atom_site_label
_atom_site_type_symbol
_atom_site_fract_x
_atom_site_fract_y
_atom_site_fract_z
Zr1	Zr	0.757810	1.025590	-0.060815
O2	O	0.638386	1.240681	-0.180234
O3	O	0.794419	0.810499	-0.024206
O4	O	0.801528	1.005972	-0.173117
O5	O	0.625670	1.060682	0.086141
O6	O	0.930217	0.990497	-0.167504
O7	O	0.631277	1.045208	-0.031322
O8	O	0.917501	0.640831	0.098872
O9	O	0.638386	1.410349	-0.180235
O10	O	0.906072	0.887420	-0.004404
O11	O	0.805848	0.910517	0.079069
O12	O	0.814218	1.140662	-0.096256
O13	O	0.713994	1.163759	-0.012783
Zr14	Zr	0.954111	1.025589	0.135479
Zr15	Zr	0.963054	1.000909	-0.051862
Zr16	Zr	0.748866	1.050270	0.126526
Zr17	Zr	0.757810	1.296190	-0.060816
Zr18	Zr	0.954111	0.754989	0.135480
O19	O	0.917501	1.240680	0.098870
O20	O	0.930217	1.205588	-0.167505
O21	O	0.625670	1.275773	0.086140
O22	O	1.073534	0.810498	0.254898
O23	O	1.086250	0.775406	-0.011476
O24	O	0.781703	0.845591	0.242169
O25	O	1.086251	0.990497	-0.011477
O26	O	0.910392	1.045207	0.247781
O27	O	0.781703	1.060682	0.242168
O28	O	1.080643	1.005971	0.105986
O29	O	0.801528	1.390730	-0.173119
O30	O	0.910392	0.660449	0.247783
O31	O	1.073534	0.640830	0.254899
O32	O	1.080643	0.621213	0.105988
O33	O	0.631278	1.429966	-0.031324
O34	O	0.794419	1.410348	-0.024208
O35	O	0.897702	0.910517	0.170920
O36	O	0.997927	0.887420	0.087447
O37	O	0.906072	1.140662	-0.004405
O38	O	0.805848	1.163759	0.079068
C39	C	0.855960	0.687110	0.037333
C40	C	0.855960	0.572234	0.037334
C41	C	0.599231	1.056462	0.026134
C42	C	0.512099	1.066939	0.022333
C43	C	0.352586	1.086079	0.015392
C44	C	0.359327	0.965107	0.059269
C45	C	0.270569	0.975756	0.055408
C46	C	0.441351	1.075432	0.019253
C47	C	1.112690	0.994717	0.048530
C48	C	1.199821	0.984240	0.052331
C49	C	0.867147	0.994718	-0.197003
C50	C	0.870944	0.984241	-0.276534
C51	C	0.855960	1.364069	0.037331
C52	C	0.855960	1.478945	0.037330
C53	C	0.877899	0.965101	-0.422162
C54	C	0.834024	1.086072	-0.503176
C55	C	0.837894	1.075422	-0.584209
C56	C	0.874030	0.975748	-0.341121
C57	C	0.844773	1.056461	0.271667
C58	C	0.840976	1.066938	0.351198
C59	C	1.112690	0.656238	0.048531
C60	C	1.199821	0.530884	0.052332
C61	C	0.844773	0.717981	0.271668
C62	C	0.840976	0.613582	0.351199
C63	C	1.101503	0.687109	0.282866
C64	C	1.184837	0.572232	0.366198
C65	C	0.610418	1.364070	-0.208202
C66	C	0.527083	1.478947	-0.291534
C67	C	0.599231	1.394941	0.026133
C68	C	0.512099	1.520295	0.022332
C69	C	0.867147	1.333198	-0.197004
C70	C	0.870944	1.437597	-0.276535
C71	C	1.192792	0.472015	0.006164
C72	C	1.274655	0.354245	0.009718
C73	C	1.363545	0.295339	0.059445
C74	C	1.370572	0.354218	0.105615
C75	C	1.288710	0.471993	0.102055
C76	C	0.887140	0.564556	0.436501
C77	C	0.883569	0.466478	0.511236
C78	C	0.833839	0.417420	0.500668
C79	C	0.787669	0.466457	0.415357
C80	C	0.791235	0.564541	0.340624
C81	C	1.276297	0.506227	0.361760
C82	C	1.354607	0.398301	0.440053
C83	C	1.341456	0.356375	0.522782
C84	C	1.249987	0.422391	0.527218
C85	C	1.171679	0.530323	0.448926
C86	C	0.435623	1.544965	-0.287096
C87	C	0.357313	1.652925	-0.365389
C88	C	0.370465	1.694857	-0.448118
C89	C	0.461934	1.628833	-0.452554
C90	C	0.540242	1.520883	-0.374262
C91	C	0.519128	1.579174	0.068492
C92	C	0.437267	1.696971	0.064918
C93	C	0.348377	1.755881	0.015188
C94	C	0.341350	1.696997	-0.030978
C95	C	0.423211	1.579208	-0.027408
C96	C	0.920682	1.486623	-0.265939
C97	C	0.924268	1.584702	-0.340659
C98	C	0.878109	1.633760	-0.425975
C99	C	0.828369	1.584724	-0.436570
C100	C	0.824790	1.486639	-0.361851
H101	H	0.431758	0.853541	0.099734
O102	O	0.605414	1.521960	0.116926
C103	C	0.611651	1.470010	0.206710
H104	H	0.537597	1.528625	0.210981
H105	H	0.653375	1.492196	0.236617
H106	H	0.649024	1.347205	0.245133
H107	H	0.282842	1.706665	-0.361760
O108	O	0.474868	1.669288	-0.532847
C109	C	0.572385	1.587766	-0.519990
H110	H	0.612894	1.546985	-0.451466
H111	H	0.586351	1.660193	-0.573188
H112	H	0.596763	1.490203	-0.524919
H113	H	0.280161	1.197635	-0.025070
O114	O	1.443404	0.334431	0.435611
C115	C	1.456080	0.442302	0.389966
H116	H	1.384341	0.553697	0.345525
H117	H	1.501238	0.415015	0.347404
H118	H	1.492911	0.445420	0.440058
H119	H	0.614710	1.467130	-0.377886
H120	H	1.287023	0.540346	0.294405
O121	O	1.417632	0.251453	0.598745
C122	C	1.501173	0.202218	0.577077
H123	H	1.485657	0.225149	0.507277
H124	H	1.556745	0.079488	0.626800
H125	H	1.528672	0.262200	0.579632
H126	H	0.793552	1.197638	-0.511677
O127	O	0.926093	0.832128	-0.412173
C128	C	0.919174	0.850983	-0.496490
H129	H	0.853774	0.966237	-0.548866
H130	H	0.913365	0.767406	-0.495962
H131	H	0.984785	0.834551	-0.512821
H132	H	1.294446	0.519910	0.139657
H133	H	1.239292	0.388239	0.594587
H134	H	0.443007	1.744896	0.102515
H135	H	1.097211	0.584052	0.452552
O136	O	0.268843	1.870469	0.011572
C137	C	0.218111	1.990530	-0.077405
H138	H	0.268180	1.979054	-0.117483
H139	H	0.185012	2.096406	-0.079766
H140	H	0.160121	1.993215	-0.106914
H141	H	0.424897	1.510832	-0.219741
O142	O	0.972705	1.632178	-0.330395
C143	C	1.045002	1.592030	-0.367810
H144	H	1.063805	1.494736	-0.370450
H145	H	1.110052	1.560608	-0.325246
H146	H	1.019612	1.688280	-0.437985
O147	O	1.106527	0.529091	-0.042218
C148	C	1.117896	0.451838	-0.082183
H149	H	1.191385	0.397388	-0.088055
H150	H	1.062354	0.531116	-0.151217
H151	H	1.109142	0.364544	-0.039596
O152	O	0.928339	0.418753	0.594162
C153	C	0.914550	0.321639	0.657868
H154	H	0.848227	0.343663	0.625809
H155	H	0.906068	0.338698	0.715237
H156	H	0.978205	0.204028	0.684073
O157	O	0.830254	0.322183	0.573173
C158	C	0.776486	0.289353	0.545564
H159	H	0.726757	0.381293	0.474277
H160	H	0.733438	0.278048	0.591009
H161	H	0.825785	0.182173	0.549082
H162	H	1.268915	0.306320	-0.027879
O163	O	1.443122	0.180797	0.063067
C164	C	1.493827	0.060713	0.152039
H165	H	1.473688	0.101668	0.198484
H166	H	1.572831	0.000043	0.164166
H167	H	1.475966	-0.016675	0.165414
H168	H	0.306693	1.782758	-0.511861
H169	H	0.268965	1.744979	-0.071467
H170	H	1.442957	0.306240	0.146101
H171	H	0.927636	0.604488	0.445123
O172	O	0.783513	1.632195	-0.519385
C173	C	0.738817	1.567930	-0.512730
H174	H	0.774942	1.462572	-0.444339
H175	H	0.744073	1.541971	-0.566219
H176	H	0.661298	1.647280	-0.522253
O177	O	0.416205	1.522141	-0.072264
C178	C	0.320193	1.599426	-0.116933
H179	H	0.274834	1.653891	-0.082943
H180	H	0.308646	1.520168	-0.114962
H181	H	0.299461	1.686710	-0.189012
O182	O	0.739224	0.419018	0.405054
C183	C	0.643562	0.539864	0.354672
H184	H	0.625495	0.634596	0.360103
H185	H	0.596877	0.507853	0.381105
H186	H	0.630960	0.574861	0.282069
H187	H	0.753646	0.604444	0.271170
O188	O	0.965614	1.439071	-0.183130
C189	C	1.010262	1.503414	-0.189818
H190	H	1.023368	1.537910	-0.256070
H191	H	1.080529	1.420742	-0.133049
H192	H	0.962994	1.603617	-0.185744
H193	H	0.881031	1.713628	-0.486809
H194	H	0.784283	1.446734	-0.370491
