data_functionalizedCrystal
_audit_creation_method	'MofGen! by Chris Wilmer'
_symmetry_space_group_name_H-M	'P1'
_symmetry_Int_Tables_number	1
_symmetry_cell_setting	triclinic
loop_
_symmetry_equiv_pos_as_xyz
  x,y,z
_cell_length_a	17.699077
_cell_length_b	16.974813
_cell_length_c	16.176319
_cell_angle_alpha	93.661365
_cell_angle_beta	90.006860
_cell_angle_gamma	83.338069
loop_
_atom_site_label
_atom_site_type_symbol
_atom_site_fract_x
_atom_site_fract_y
_atom_site_fract_z
O1	O	1.004154	0.099970	0.075422
O2	O	0.783784	0.112984	0.076297
O3	O	0.900112	-0.008639	0.068154
O4	O	0.887826	0.221592	0.083565
O5	O	0.900096	-0.008647	-0.069339
O6	O	0.783768	0.112976	-0.061197
O7	O	1.004138	0.099962	-0.062071
Cu8	Cu	0.893952	0.106468	-0.074188
Cu9	Cu	0.893971	0.106478	0.088414
O10	O	0.887810	0.221585	-0.053929
C11	C	0.755579	0.112515	0.007519
C12	C	0.671560	0.111118	0.007427
C13	C	0.632083	0.110456	-0.067565
C14	C	0.553140	0.109131	-0.067655
C15	C	0.513673	0.108474	0.007249
C16	C	0.553156	0.109134	0.082248
C17	C	0.632099	0.110453	0.082336
C18	C	0.234789	0.103813	0.081893
C19	C	0.155840	0.102496	0.081799
C20	C	0.155830	0.102491	-0.068098
C21	C	0.234772	0.103810	-0.068010
C22	C	0.274248	0.104465	0.006988
C23	C	0.359848	0.105900	0.007084
C24	C	0.428074	0.107045	0.007155
C25	C	0.899637	-0.038100	-0.002563
C26	C	0.898234	-0.125875	-0.008432
C27	C	0.897586	-0.167102	0.063757
C28	C	0.896264	-0.249575	0.058239
C29	C	0.895595	-0.290819	-0.019469
C30	C	0.896241	-0.249585	-0.091664
C31	C	0.897558	-0.167113	-0.086145
C32	C	0.891651	-0.537474	-0.044011
C33	C	0.890336	-0.619952	-0.049525
C34	C	0.890357	-0.619936	0.100380
C35	C	0.891679	-0.537463	0.105891
C36	C	0.892321	-0.496236	0.033696
N37	N	0.894246	-0.375120	-0.025111
N38	N	0.893665	-0.411936	0.039339
C39	C	1.032343	0.100431	0.006708
C40	C	1.116363	0.101828	0.006805
C41	C	0.888286	0.251046	0.016790
C42	C	0.889688	0.338821	0.022665
N43	N	0.893944	0.106461	-0.188554
C44	C	0.945469	0.052629	-0.235422
C45	C	0.945473	0.052628	-0.321970
C46	C	0.893955	0.106464	-0.361647
C47	C	0.842424	0.160299	-0.314772
C48	C	0.842417	0.160296	-0.228227
C49	C	0.842450	0.160314	-0.663799
C50	C	0.842462	0.160315	-0.750351
C51	C	0.945506	0.052646	-0.757542
C52	C	0.945499	0.052643	-0.670997
C53	C	0.893966	0.106475	-0.624130
C54	C	0.893961	0.106474	-0.530286
C55	C	0.893962	0.106469	-0.455489
N56	N	0.893984	0.106478	0.202779
H57	H	0.521017	0.108593	0.143236
O58	O	0.273008	0.104484	0.154819
C59	C	0.221245	0.103603	0.220907
H60	H	0.161811	0.127691	0.200544
H61	H	0.220856	0.040053	0.239693
C62	C	0.318511	0.126362	0.320240
C63	C	0.245514	0.155954	0.295231
H64	H	0.333483	0.158651	0.366088
H65	H	0.353386	0.126953	0.275715
H66	H	0.318177	0.073404	0.335889
H67	H	0.245851	0.208907	0.279573
H68	H	0.210640	0.155373	0.339755
H69	H	0.987425	0.008793	-0.203123
O70	O	0.898359	-0.127017	0.139221
C71	C	0.964623	-0.088367	0.146294
H72	H	1.010027	-0.119571	0.101688
H73	H	0.950803	-0.023815	0.130466
C74	C	0.938575	-0.052869	0.290441
C75	C	0.994344	-0.091199	0.235661
H76	H	0.956908	-0.054612	0.345567
H77	H	0.893931	-0.078905	0.285676
H78	H	0.927064	0.000921	0.277241
H79	H	1.005848	-0.144990	0.248855
H80	H	1.038991	-0.065171	0.240430
O81	O	0.670433	0.111234	-0.140299
C82	C	0.707465	0.180440	-0.140147
H83	H	0.677636	0.227892	-0.094440
H84	H	0.769251	0.165965	-0.120981
C85	C	0.741381	0.153209	-0.283752
C86	C	0.704741	0.211493	-0.227619
H87	H	0.739704	0.172363	-0.337710
H88	H	0.716434	0.106582	-0.283854
H89	H	0.792866	0.141152	-0.267771
H90	H	0.653254	0.223542	-0.243596
H91	H	0.729678	0.258123	-0.227522
H92	H	0.892224	-0.503888	0.169170
H93	H	0.800473	0.204131	-0.347082
O94	O	0.792442	0.212700	-0.182726
C95	C	0.804647	0.290959	-0.198636
H96	H	0.865242	0.291268	-0.222392
H97	H	0.762677	0.314242	-0.247320
C98	C	0.718397	0.344198	-0.088983
C99	C	0.792823	0.344578	-0.118154
H100	H	0.711100	0.377274	-0.039340
H101	H	0.710171	0.291473	-0.078266
H102	H	0.683430	0.363598	-0.129561
H103	H	0.827787	0.325169	-0.077581
H104	H	0.801054	0.397301	-0.128863
O105	O	0.892388	-0.497354	-0.114076
C106	C	0.958677	-0.458748	-0.115978
H107	H	0.980720	-0.449420	-0.050277
H108	H	1.004046	-0.496892	-0.155516
C109	C	0.912954	-0.389106	-0.234093
C110	C	0.940023	-0.377644	-0.153396
H111	H	0.901448	-0.339079	-0.257177
H112	H	0.868294	-0.415118	-0.232814
H113	H	0.950766	-0.420896	-0.267031
H114	H	0.902208	-0.345863	-0.120458
H115	H	0.984675	-0.351625	-0.154670
H116	H	0.800507	0.204157	-0.782654
H117	H	0.266901	0.104349	-0.129004
O118	O	0.895510	-0.289630	0.128350
C119	C	0.829244	-0.328272	0.130272
H120	H	0.783833	-0.297086	0.089831
H121	H	0.843054	-0.392835	0.105831
C122	C	0.855319	-0.363695	0.269687
C123	C	0.799542	-0.325389	0.220022
H124	H	0.836999	-0.361921	0.325049
H125	H	0.899966	-0.337664	0.268392
H126	H	0.866823	-0.417494	0.249310
H127	H	0.788046	-0.271588	0.240393
H128	H	0.754893	-0.351410	0.221323
O129	O	0.898211	-0.127187	-0.156353
C130	C	0.897315	-0.181270	-0.226124
H131	H	0.920341	-0.243375	-0.208314
H132	H	0.836478	-0.181638	-0.249179
C133	C	0.919132	-0.079676	-0.317129
C134	C	0.947419	-0.155954	-0.295256
H135	H	0.950035	-0.064058	-0.359774
H136	H	0.919733	-0.043238	-0.270123
H137	H	0.868435	-0.079992	-0.336336
H138	H	0.998111	-0.155634	-0.276039
H139	H	0.946827	-0.192391	-0.342260
H140	H	0.521003	0.108578	-0.128723
H141	H	0.895692	-0.283172	-0.154936
O142	O	0.995426	0.000259	-0.367535
C143	C	0.954962	-0.048465	-0.420887
H144	H	0.895275	-0.049726	-0.394909
H145	H	0.950976	-0.023716	-0.484822
C146	C	1.070082	-0.131865	-0.459800
C147	C	0.996775	-0.133420	-0.427889
H148	H	1.095876	-0.184268	-0.464123
H149	H	1.097345	-0.099038	-0.423858
H150	H	1.066750	-0.111238	-0.513076
H151	H	1.000108	-0.154037	-0.374610
H152	H	0.969514	-0.166253	-0.463822
H153	H	0.987453	0.008807	-0.638695
H154	H	0.987465	0.008811	-0.795711
O155	O	0.670327	0.111135	0.155261
C156	C	0.618569	0.110255	0.221354
H157	H	0.559132	0.134336	0.200994
H158	H	0.618187	0.046707	0.240148
C159	C	0.715839	0.133033	0.320676
C160	C	0.642839	0.162616	0.295671
H161	H	0.730811	0.165328	0.366520
H162	H	0.750710	0.133623	0.276148
H163	H	0.715511	0.080076	0.336332
H164	H	0.643170	0.215568	0.280006
H165	H	0.607968	0.162036	0.340198
O166	O	0.792504	0.212649	-0.618191
C167	C	0.832981	0.261389	-0.564871
H168	H	0.892232	0.229810	-0.553999
H169	H	0.838074	0.319815	-0.594315
C170	C	0.717507	0.317147	-0.494893
C171	C	0.790278	0.278359	-0.481534
H172	H	0.691165	0.327619	-0.443488
H173	H	0.690236	0.284313	-0.530817
H174	H	0.721761	0.365832	-0.519432
H175	H	0.786023	0.229671	-0.457006
H176	H	0.817548	0.311185	-0.445604
O177	O	0.117467	0.101702	-0.140942
C178	C	0.080439	0.032493	-0.150057
H179	H	0.110277	-0.014952	-0.110701
H180	H	0.018655	0.046968	-0.128956
C181	C	0.046496	0.059705	-0.290019
C182	C	0.083148	0.001429	-0.241687
H183	H	0.048164	0.040545	-0.346541
H184	H	0.071440	0.106335	-0.283878
H185	H	-0.004987	0.071762	-0.272425
H186	H	0.134632	-0.010619	-0.259274
H187	H	0.058213	-0.045203	-0.247833
O188	O	0.117450	0.101992	0.154553
C189	C	0.063128	0.169674	0.163563
H190	H	0.080875	0.217918	0.124268
H191	H	0.005253	0.153202	0.142316
C192	C	0.036202	0.141435	0.303449
C193	C	0.058002	0.200691	0.255192
H194	H	0.033036	0.160566	0.359970
H195	H	0.072797	0.095834	0.297379
H196	H	-0.012026	0.127713	0.285734
H197	H	0.106232	0.214405	0.272901
H198	H	0.021414	0.246295	0.261267
H199	H	0.889833	-0.653512	0.159156
H200	H	0.889788	-0.653530	-0.112807
