data_functionalizedCrystal
_audit_creation_method	'MofGen! by Chris Wilmer'
_symmetry_space_group_name_H-M	'P1'
_symmetry_Int_Tables_number	1
_symmetry_cell_setting	triclinic
loop_
_symmetry_equiv_pos_as_xyz
  x,y,z
_cell_length_a	10.654541
_cell_length_b	15.995350
_cell_length_c	9.730217
_cell_angle_alpha	90.002237
_cell_angle_beta	89.996959
_cell_angle_gamma	83.988152
loop_
_atom_site_label
_atom_site_type_symbol
_atom_site_fract_x
_atom_site_fract_y
_atom_site_fract_z
O1	O	0.161871	1.111921	-0.114173
O2	O	0.181860	0.868262	-0.114201
O3	O	-0.010947	0.995695	-0.114178
O4	O	0.354679	0.984488	-0.114196
O5	O	-0.010949	0.995691	0.114402
O6	O	0.181859	0.868258	0.114379
O7	O	0.161869	1.111917	0.114407
Zn8	Zn	0.171864	0.990087	0.150685
Zn9	Zn	0.171866	0.990092	-0.150479
O10	O	0.354677	0.984484	0.114384
C11	C	0.181033	0.837060	0.000085
C12	C	0.178556	0.744095	0.000075
C13	C	0.169658	0.406296	0.000104
C14	C	0.032344	0.452934	0.000621
C15	C	0.034822	0.549638	0.000096
C16	C	0.174072	0.573882	0.000090
C17	C	0.241800	0.533190	-0.130438
C18	C	0.238351	0.436535	-0.130538
C19	C	0.241186	0.436208	0.129401
C20	C	0.241153	0.533153	0.131116
C21	C	0.176573	0.668594	0.000078
C22	C	0.167161	0.311584	0.000107
C23	C	-0.057735	0.994870	0.000111
C24	C	-0.197146	0.992410	0.000109
C25	C	-0.227108	1.144790	0.000144
C26	C	-0.307582	1.219821	0.000164
C27	C	-0.438570	1.217504	0.000159
C28	C	-0.489085	1.140148	0.000130
C29	C	-0.408610	1.065117	0.000110
C30	C	-0.277621	1.067442	0.000119
C31	C	-0.378649	0.912738	0.000065
C32	C	-0.247661	0.915053	0.000080
C33	C	-0.429164	0.835382	0.000036
C34	C	-0.348689	0.760349	0.000026
C35	C	-0.217694	0.762670	0.000032
C36	C	-0.167187	0.840023	0.000060
C37	C	0.401465	0.985309	0.000092
C38	C	0.540876	0.987769	0.000086
N39	N	0.171861	0.990089	0.356222
C40	C	0.162697	1.143119	0.000118
C41	C	0.165174	1.236083	0.000119
N42	N	0.171858	0.990096	-0.356015
C43	C	0.001180	1.102978	0.356233
C44	C	-0.084158	1.159427	0.428178
C45	C	-0.084158	1.159436	0.572058
C46	C	0.001185	1.102987	0.643996
C47	C	0.086522	1.046537	0.572050
C48	C	0.086516	1.046536	0.428167
C49	C	0.257196	0.933646	0.572039
C50	C	0.257205	0.933640	0.428159
C51	C	0.342539	0.877197	0.643977
C52	C	0.427884	0.820750	0.572031
C53	C	0.427882	0.820744	0.428143
C54	C	0.342542	0.877191	0.356214
H55	H	0.344103	0.547909	-0.135296
N56	N	0.175669	0.568950	0.259033
H57	H	0.084657	0.556540	0.258212
H58	H	0.179335	0.631770	0.261539
N59	N	-0.176194	1.220301	0.350563
H60	H	-0.161676	1.279810	0.375588
H61	H	-0.265298	1.210079	0.375632
N62	N	0.172915	0.411906	-0.259769
H63	H	0.095786	0.383529	-0.234462
H64	H	0.232621	0.371907	-0.315239
H65	H	-0.060531	0.841919	0.000073
H66	H	0.196294	0.415410	0.228338
N67	N	0.519934	0.759861	0.350553
H68	H	0.506991	0.768419	0.248488
H69	H	0.505360	0.700385	0.375706
H70	H	0.342426	0.405034	0.130279
N71	N	-0.035698	0.586882	0.124040
H72	H	-0.126008	0.573088	0.120652
H73	H	-0.034130	0.649904	0.123872
H74	H	0.497359	0.774790	0.630612
N75	N	0.342519	0.877187	0.201030
H76	H	0.324182	0.820197	0.166382
H77	H	0.427869	0.889886	0.166457
H78	H	0.342698	0.549107	0.138996
H79	H	0.001182	1.102983	0.239078
N80	N	-0.630365	1.137654	0.000118
H81	H	-0.656046	1.107177	0.084842
H82	H	-0.655930	1.107206	-0.084683
H83	H	-0.153652	1.205399	0.630636
H84	H	0.342529	0.877203	0.761131
H85	H	-0.266439	1.282803	0.000199
N86	N	0.001185	1.102986	0.799179
H87	H	-0.084154	1.090318	0.833840
H88	H	0.019563	1.159986	0.833729
H89	H	-0.535822	0.833501	0.000024
H90	H	-0.389830	0.697372	-0.000006
H91	H	-0.120452	1.146685	0.000166
H92	H	-0.152178	0.701570	0.000010
H93	H	-0.022290	0.433025	-0.092465
N94	N	-0.040365	0.427983	0.124618
H95	H	0.014994	0.386202	0.181662
H96	H	-0.117574	0.401596	0.093374
N97	N	0.371884	0.394584	-0.138335
H98	H	0.432726	0.438904	-0.141706
H99	H	0.381975	0.358740	-0.223872
N100	N	-0.036174	0.586140	-0.124048
H101	H	-0.069196	0.539399	-0.178650
H102	H	0.022427	0.616329	-0.183431
N103	N	0.179502	0.570400	-0.259124
H104	H	0.185077	0.633039	-0.260621
H105	H	0.087957	0.559219	-0.260338
N106	N	-0.525376	1.298427	0.000170
H107	H	-0.473506	1.347783	0.000186
H108	H	-0.580381	1.300774	0.084907
