data_functionalizedCrystal
_audit_creation_method	'MofGen! by Chris Wilmer'
_symmetry_space_group_name_H-M	'P1'
_symmetry_Int_Tables_number	1
_symmetry_cell_setting	triclinic
loop_
_symmetry_equiv_pos_as_xyz
  x,y,z
_cell_length_a	10.489741
_cell_length_b	10.489711
_cell_length_c	8.965430
_cell_angle_alpha	90.004166
_cell_angle_beta	90.000479
_cell_angle_gamma	84.533091
loop_
_atom_site_label
_atom_site_type_symbol
_atom_site_fract_x
_atom_site_fract_y
_atom_site_fract_z
O1	O	1.694031	0.179976	0.123934
O2	O	1.322834	0.196869	0.123956
O3	O	1.516899	0.002823	0.123948
O4	O	1.499967	0.374023	0.123941
O5	O	1.516888	0.002804	-0.124131
O6	O	1.322823	0.196851	-0.124123
O7	O	1.694021	0.179958	-0.124145
Cu8	Cu	1.508421	0.188403	-0.146786
Cu9	Cu	1.508434	0.188425	0.146596
O10	O	1.499956	0.374005	-0.124138
C11	C	1.515623	-0.044719	-0.000087
C12	C	1.511821	-0.186350	-0.000074
C13	C	1.275297	0.195584	-0.000081
C14	C	1.133668	0.191767	-0.000072
C15	C	1.628525	-0.368737	-0.000096
C16	C	1.570224	-0.276602	-0.122407
C17	C	1.570204	-0.276608	0.122179
C18	C	1.446682	-0.346553	-0.122515
C19	C	1.446678	-0.346568	0.122182
C20	C	1.388288	-0.254461	-0.000159
C21	C	1.065541	0.068301	-0.000084
C22	C	0.973413	0.126634	0.122228
C23	C	0.973437	0.126645	-0.122358
C24	C	1.043406	0.250151	0.122341
C25	C	1.043438	0.250145	-0.122355
C26	C	0.951338	0.308568	-0.000014
C27	C	1.741558	0.181243	-0.000105
C28	C	1.883187	0.185060	-0.000105
C29	C	1.501232	0.421546	-0.000099
C30	C	1.505034	0.563178	-0.000102
N31	N	1.508421	0.188387	-0.353135
C32	C	1.597467	0.097939	-0.549809
C33	C	1.624288	0.213088	-0.450335
C34	C	1.481657	0.073247	-0.450400
C35	C	1.535323	0.303638	-0.549771
C36	C	1.392640	0.163721	-0.549844
C37	C	1.419414	0.278954	-0.450416
N38	N	1.508444	0.188430	0.352945
H39	H	1.730027	-0.418427	-0.000223
H40	H	1.672812	0.021519	-0.593448
H41	H	0.901903	0.410173	0.000051
H42	H	1.286696	-0.204995	-0.000221
Br43	Br	1.095172	0.337137	-0.294721
H44	H	1.074233	0.302359	0.225862
H45	H	1.294748	0.142796	-0.593586
Br46	Br	1.787489	0.247887	-0.377440
Br47	Br	1.573266	0.465999	-0.622207
Br48	Br	0.921742	0.039583	0.294590
Br49	Br	1.293913	0.406603	-0.378125
H50	H	1.394473	-0.377580	0.225598
Br51	Br	0.921805	0.039528	-0.294708
Br52	Br	1.443899	-0.089075	-0.377653
H53	H	1.622483	-0.245640	0.225582
H54	H	1.394467	-0.377370	-0.226035
Br55	Br	1.657308	-0.224953	-0.294759
Br56	Br	1.148314	-0.100893	0.000114
