data_functionalizedCrystal
_audit_creation_method	'MofGen! by Chris Wilmer'
_symmetry_space_group_name_H-M	'P1'
_symmetry_Int_Tables_number	1
_symmetry_cell_setting	triclinic
loop_
_symmetry_equiv_pos_as_xyz
  x,y,z
_cell_length_a	17.077404
_cell_length_b	16.625545
_cell_length_c	17.077396
_cell_angle_alpha	90.027926
_cell_angle_beta	90.019501
_cell_angle_gamma	90.025783
loop_
_atom_site_label
_atom_site_type_symbol
_atom_site_fract_x
_atom_site_fract_y
_atom_site_fract_z
Zn1	Zn	1.200040	-0.320997	0.443846
Zn2	Zn	1.700040	0.179003	0.943846
Zn3	Zn	1.199941	-0.455839	0.312581
Zn4	Zn	1.699941	0.044161	0.812581
Zn5	Zn	1.068772	-0.321025	0.312594
Zn6	Zn	1.568772	0.178975	0.812594
Zn7	Zn	1.068734	-0.455792	0.443805
Zn8	Zn	1.568734	0.044208	0.943805
O9	O	1.134372	-0.388413	0.378206
O10	O	1.634372	0.111587	0.878206
O11	O	1.309874	-0.338892	0.426445
O12	O	1.809874	0.161108	0.926445
O13	O	1.182516	-0.437988	0.202736
O14	O	1.682516	0.062012	0.702736
O15	O	1.086242	-0.208189	0.330027
O16	O	1.586242	0.291811	0.830027
O17	O	1.309801	-0.437960	0.330005
O18	O	1.809801	0.062040	0.830005
O19	O	1.182684	-0.208168	0.426457
O20	O	1.682684	0.291832	0.926457
O21	O	1.086146	-0.338940	0.202745
O22	O	1.586146	0.161060	0.702745
O23	O	0.958920	-0.338894	0.329987
O24	O	1.458920	0.161106	0.829987
O25	O	1.086177	-0.437879	0.553657
O26	O	1.586177	0.062121	1.053657
O27	O	0.958892	-0.437906	0.426387
O28	O	1.458892	0.062094	0.926387
O29	O	1.182647	-0.338846	0.553687
O30	O	1.682647	0.161154	1.053687
O31	O	1.182479	-0.568666	0.329966
O32	O	1.682479	-0.068666	0.829966
O33	O	1.086081	-0.568630	0.426375
O34	O	1.586081	-0.068630	0.926375
C35	C	0.930424	-0.388399	0.378185
C36	C	1.430424	0.111601	0.878185
C37	C	0.843174	-0.388412	0.378194
C38	C	1.343174	0.111588	0.878194
C39	C	0.802190	-0.440045	0.428309
C40	C	1.302190	0.059955	0.928309
C41	C	0.720209	-0.440047	0.428322
C42	C	1.220209	0.059953	0.928322
C43	C	0.679215	-0.388419	0.378214
C44	C	1.179215	0.111581	0.878214
C45	C	0.720205	-0.336780	0.328097
C46	C	1.220205	0.163220	0.828097
C47	C	0.802184	-0.336774	0.328089
C48	C	1.302184	0.163226	0.828089
C49	C	0.549335	-0.336795	0.328116
C50	C	1.049335	0.163205	0.828116
C51	C	0.467350	-0.336801	0.328123
C52	C	0.967350	0.163199	0.828123
C53	C	0.467360	-0.440068	0.428348
C54	C	0.967360	0.059932	0.928348
C55	C	0.549339	-0.440063	0.428340
C56	C	1.049339	0.059937	0.928340
C57	C	0.590324	-0.388425	0.378222
C58	C	1.090324	0.111575	0.878222
C59	C	1.134286	-0.597904	0.378182
C60	C	1.634286	-0.097904	0.878182
C61	C	1.134322	-0.687525	0.378197
C62	C	1.634322	-0.187525	0.878197
C63	C	1.134352	-0.760308	0.378213
C64	C	1.634352	-0.260308	0.878213
C65	C	1.134398	-0.851616	0.378230
C66	C	1.634398	-0.351616	0.878230
C67	C	1.134439	-0.924393	0.378240
C68	C	1.634439	-0.424393	0.878240
C69	C	1.134484	-1.015707	0.378256
C70	C	1.634484	-0.515707	0.878256
C71	C	1.339116	-0.388429	0.378228
C72	C	1.839116	0.111571	0.878228
C73	C	1.426366	-0.388435	0.378238
C74	C	1.926366	0.111565	0.878238
C75	C	1.134419	-0.388354	0.582951
C76	C	1.634419	0.111646	1.082951
C77	C	1.134439	-0.388329	0.670200
C78	C	1.634439	0.111671	1.170200
C79	C	1.134479	-0.178104	0.378248
C80	C	1.634479	0.321896	0.878248
C81	C	1.134524	-0.088483	0.378266
C82	C	1.634524	0.411517	0.878266
C83	C	1.134370	-0.388414	0.174258
C84	C	1.634370	0.111586	0.674258
C85	C	1.134501	-0.388212	0.087009
C86	C	1.634501	0.111788	0.587009
C87	C	1.184673	-0.336758	0.711208
C88	C	1.684673	0.163242	1.211208
C89	C	1.184683	-0.336731	0.793188
C90	C	1.684683	0.163269	1.293188
C91	C	1.134462	-0.388280	0.834160
C92	C	1.634462	0.111720	1.334160
C93	C	1.084222	-0.439853	0.793147
C94	C	1.584222	0.060147	1.293147
C95	C	1.084209	-0.439875	0.711168
C96	C	1.584209	0.060125	1.211168
C97	C	1.084254	-0.439804	0.964017
C98	C	1.584254	0.060196	1.464017
C99	C	1.084268	-0.439783	1.046002
C100	C	1.584268	0.060217	1.546002
C101	C	1.184727	-0.336660	1.046037
C102	C	1.684727	0.163340	1.546037
C103	C	1.184714	-0.336682	0.964058
C104	C	1.684714	0.163318	1.464058
C105	C	1.134476	-0.388257	0.923051
C106	C	1.634476	0.111743	1.423051
H107	H	0.835562	-0.482090	0.469109
H108	H	1.335562	0.017910	0.969109
H109	H	0.433974	-0.294752	0.287331
H110	H	0.933974	0.205248	0.787331
H111	H	0.582701	-0.294739	0.287311
H112	H	1.082701	0.205261	0.787311
N113	N	1.032936	-0.492399	1.087860
N114	N	1.532936	0.007601	1.587860
N115	N	0.960507	-0.487001	1.078695
N116	N	1.460507	0.012999	1.578695
H117	H	0.924245	-0.524149	1.108264
H118	H	1.424245	-0.024149	1.608264
H119	H	1.043329	-0.481822	0.826513
H120	H	1.543329	0.018178	1.326513
N121	N	1.032909	-0.492567	0.669278
N122	N	1.532909	0.007433	1.169278
N123	N	1.060494	-0.543963	0.623528
N124	N	1.560494	-0.043963	1.123528
H125	H	1.024260	-0.581178	0.593944
H126	H	1.524260	-0.081178	1.093944
H127	H	0.686820	-0.294739	0.287303
H128	H	1.186820	0.205261	0.787303
N129	N	0.678350	-0.492811	0.479496
N130	N	1.178350	0.007189	0.979496
N131	N	0.632580	-0.544159	0.451785
N132	N	1.132580	-0.044159	0.951785
H133	H	0.603018	-0.581430	0.487927
H134	H	1.103018	-0.081430	0.987927
H135	H	0.582715	-0.482108	0.469138
H136	H	1.082715	0.017892	0.969138
H137	H	0.835552	-0.294725	0.287285
H138	H	1.335552	0.205275	0.787285
N139	N	1.236012	-0.284039	0.922191
N140	N	1.736012	0.215961	1.422191
N141	N	1.286005	-0.312429	0.876445
N142	N	1.786005	0.187571	1.376445
H143	H	1.322234	-0.275248	0.846873
H144	H	1.822234	0.224752	1.346873
H145	H	0.433987	-0.482112	0.469159
H146	H	0.933987	0.017888	0.969159
H147	H	1.225572	-0.294783	0.677854
H148	H	1.725572	0.205217	1.177854
H149	H	1.225590	-0.294739	0.826573
H150	H	1.725590	0.205261	1.326573
N151	N	1.236042	-0.283984	1.087933
N152	N	1.736042	0.216016	1.587933
N153	N	1.236047	-0.283967	1.161128
N154	N	1.736047	0.216033	1.661128
H155	H	1.272289	-0.246768	1.190720
H156	H	1.772289	0.253232	1.690720
H157	H	1.043332	-0.481789	0.930632
H158	H	1.543332	0.018211	1.430632
