data_functionalizedCrystal
_audit_creation_method	'MofGen! by Chris Wilmer'
_symmetry_space_group_name_H-M	'P1'
_symmetry_Int_Tables_number	1
_symmetry_cell_setting	triclinic
loop_
_symmetry_equiv_pos_as_xyz
  x,y,z
_cell_length_a	11.792241
_cell_length_b	10.489741
_cell_length_c	10.868271
_cell_angle_alpha	89.995151
_cell_angle_beta	89.999893
_cell_angle_gamma	84.366295
loop_
_atom_site_label
_atom_site_type_symbol
_atom_site_fract_x
_atom_site_fract_y
_atom_site_fract_z
O1	O	1.507380	0.174832	-0.102202
O2	O	2.007380	0.674832	0.397798
O3	O	1.177088	0.192851	-0.102231
O4	O	1.677088	0.692851	0.397769
O5	O	1.349749	-0.001782	-0.102208
O6	O	1.849749	0.498218	0.397792
O7	O	1.334718	0.369465	-0.102224
O8	O	1.834718	0.869465	0.397776
O9	O	1.349735	-0.001790	0.102436
O10	O	1.849735	0.498210	0.602436
O11	O	1.177073	0.192843	0.102414
O12	O	1.677073	0.692843	0.602414
O13	O	1.507366	0.174825	0.102443
O14	O	2.007366	0.674825	0.602443
Zn15	Zn	1.342217	0.183833	0.134920
Zn16	Zn	1.842217	0.683833	0.634920
Zn17	Zn	1.342236	0.183843	-0.134708
Zn18	Zn	1.842236	0.683843	0.365292
O19	O	1.334704	0.369457	0.102420
O20	O	1.834704	0.869457	0.602420
C21	C	1.134786	0.191715	0.000088
C22	C	1.634786	0.691715	0.500088
C23	C	1.008764	0.188327	0.000077
C24	C	1.508764	0.688327	0.500077
C25	C	1.348607	-0.049314	0.000113
C26	C	1.848607	0.450686	0.500113
C27	C	1.345210	-0.190931	0.000111
C28	C	1.845210	0.309069	0.500111
C29	C	0.778035	0.182098	0.000113
C30	C	1.278035	0.682098	0.500113
C31	C	0.906429	0.185559	0.000093
C32	C	1.406429	0.685559	0.500093
C33	C	1.235351	-0.258697	0.000092
C34	C	1.735351	0.241303	0.500092
C35	C	1.287240	-0.351000	0.100997
C36	C	1.787240	0.149000	0.600997
C37	C	1.287281	-0.350967	-0.100767
C38	C	1.787281	0.149033	0.399233
C39	C	1.397145	-0.281369	0.101099
C40	C	1.897145	0.218631	0.601099
C41	C	1.397170	-0.281327	-0.100755
C42	C	1.897170	0.218673	0.399245
C43	C	1.449140	-0.373603	0.000174
C44	C	1.949140	0.126397	0.500174
C45	C	1.549667	0.175960	0.000121
C46	C	2.049667	0.675960	0.500121
C47	C	1.675690	0.179348	0.000124
C48	C	2.175690	0.679348	0.500124
C49	C	1.335846	0.416989	0.000096
C50	C	1.835846	0.916989	0.500096
C51	C	1.339243	0.558607	0.000091
C52	C	1.839243	1.058607	0.500091
N53	N	1.342213	0.183825	0.318934
N54	N	1.842213	0.683825	0.818934
N55	N	1.342250	0.183840	-0.318722
N56	N	1.842250	0.683840	0.181278
C57	C	1.342230	0.183840	0.569940
C58	C	1.842230	0.683840	1.069940
C59	C	1.342217	0.183835	0.430263
C60	C	1.842217	0.683835	0.930263
H61	H	1.145025	-0.208738	0.000186
H62	H	1.645025	0.291262	0.500186
C63	C	1.459922	-0.239591	-0.215999
C64	C	1.959922	0.260409	0.284001
N65	N	1.507179	-0.208151	-0.302811
N66	N	2.007179	0.291849	0.197189
C67	C	1.224467	-0.392598	-0.216013
C68	C	1.724467	0.107402	0.283987
N69	N	1.177149	-0.423948	-0.302813
N70	N	1.677149	0.076052	0.197187
C71	C	1.224434	-0.392693	0.216230
C72	C	1.724434	0.107307	0.716230
N73	N	1.177121	-0.424092	0.303020
N74	N	1.677121	0.075908	0.803020
H75	H	1.443583	-0.250699	0.186502
H76	H	1.943583	0.249301	0.686502
H77	H	1.539547	-0.423335	0.000238
H78	H	2.039547	0.076665	0.500238
