data_functionalizedCrystal
_audit_creation_method	'MofGen! by Chris Wilmer'
_symmetry_space_group_name_H-M	'P1'
_symmetry_Int_Tables_number	1
_symmetry_cell_setting	triclinic
loop_
_symmetry_equiv_pos_as_xyz
  x,y,z
_cell_length_a	17.038272
_cell_length_b	10.489741
_cell_length_c	8.965430
_cell_angle_alpha	90.001157
_cell_angle_beta	90.000179
_cell_angle_gamma	92.174635
loop_
_atom_site_label
_atom_site_type_symbol
_atom_site_fract_x
_atom_site_fract_y
_atom_site_fract_z
O1	O	0.110369	-1.704377	-0.123948
O2	O	0.120730	-1.334150	-0.123972
O3	O	0.001722	-1.517063	-0.123948
O4	O	0.229378	-1.521464	-0.123972
O5	O	0.001729	-1.517047	0.124130
O6	O	0.120738	-1.334134	0.124107
O7	O	0.110377	-1.704361	0.124130
Cu8	Cu	0.115558	-1.519246	0.146770
Cu9	Cu	0.115549	-1.519265	-0.146612
O10	O	0.229386	-1.521448	0.124107
C11	C	0.119951	-1.286537	0.000065
C12	C	0.117610	-1.144689	0.000056
C13	C	-0.027426	-1.513053	0.000091
C14	C	-0.114288	-1.501111	0.000089
C15	C	0.111156	-1.751974	0.000091
C16	C	0.113497	-1.893822	0.000089
C17	C	-0.163767	-1.610749	0.000098
C18	C	-0.245383	-1.599521	0.000083
C19	C	-0.277518	-1.478654	0.000070
C20	C	-0.228032	-1.369007	0.000057
C21	C	-0.146418	-1.380237	0.000062
C22	C	-0.523505	-1.438983	0.000047
C23	C	-0.605126	-1.427762	0.000048
C24	C	-0.622471	-1.658277	0.000071
C25	C	-0.540855	-1.669495	0.000084
C26	C	-0.491376	-1.559849	0.000063
C27	C	-0.360942	-1.467174	0.000060
C28	C	-0.407954	-1.571330	0.000063
C29	C	0.258533	-1.525458	0.000065
C30	C	0.345395	-1.537400	0.000056
N31	N	0.115564	-1.519243	0.353119
C32	C	0.041889	-1.069466	0.000078
C33	C	0.077655	-0.980693	-0.122238
C34	C	0.077681	-0.980713	0.122348
C35	C	0.153408	-1.057784	-0.122361
C36	C	0.153423	-1.057813	0.122335
C37	C	0.189244	-0.969072	-0.000011
N38	N	0.115537	-1.519278	-0.352961
C39	C	0.170583	-1.434622	0.450415
C40	C	0.186413	-1.551599	0.549834
C41	C	0.099741	-1.402315	0.549828
C42	C	0.131430	-1.636282	0.450350
C43	C	0.044727	-1.486918	0.450335
C44	C	0.060527	-1.603976	0.549709
H45	H	-0.137610	-1.709172	0.000117
C46	C	0.267319	-1.588559	0.608898
H47	H	0.306364	-1.528338	0.574913
H48	H	0.278933	-1.671054	0.573381
H49	H	0.266576	-1.589054	0.714850
C50	C	0.196668	-1.103471	-0.262199
H51	H	0.197874	-1.193941	-0.261376
H52	H	0.248854	-1.068225	-0.262519
H53	H	0.169955	-1.076451	-0.348971
C54	C	0.196671	-1.103806	0.262027
H55	H	0.169697	-1.077580	0.348861
H56	H	0.248722	-1.068001	0.262903
H57	H	0.198258	-1.194227	0.260518
C58	C	0.149592	-1.769926	0.391588
H59	H	0.157136	-1.825723	0.473382
H60	H	0.195924	-1.764727	0.332621
H61	H	0.106911	-1.801787	0.332523
H62	H	-0.483229	-1.349700	0.000031
H63	H	0.013985	-1.675635	0.593034
H64	H	0.217154	-1.363135	0.406817
H65	H	-0.015148	-1.459520	0.406596
C66	C	0.081669	-1.268718	0.608859
H67	H	0.035090	-1.273803	0.667148
H68	H	0.074595	-1.212611	0.527195
H69	H	0.124177	-1.237328	0.668680
H70	H	-0.514697	-1.767918	0.000094
C71	C	-0.299807	-1.720124	0.000108
H72	H	-0.268980	-1.793715	0.000137
H73	H	-0.332006	-1.720553	-0.086402
H74	H	-0.332003	-1.720518	0.086630
H75	H	0.045631	-0.946731	0.225757
C76	C	-0.640476	-1.294805	0.000034
H77	H	-0.696169	-1.303826	0.000054
H78	H	-0.623542	-1.249292	-0.086482
H79	H	-0.623535	-1.249283	0.086550
H80	H	-0.387115	-1.368763	0.000053
H81	H	-0.662765	-1.747544	0.000085
H82	H	0.251558	-0.925476	-0.000084
C83	C	0.034377	-0.934753	-0.261934
H84	H	0.068929	-0.881297	-0.319527
H85	H	-0.009827	-0.888264	-0.232540
H86	H	0.017339	-1.006371	-0.319934
C87	C	-0.263378	-1.236056	0.000048
H88	H	-0.319071	-1.245069	0.000063
H89	H	-0.246440	-1.190542	-0.086464
H90	H	-0.246437	-1.190540	0.086568
H91	H	-0.381786	-1.669740	0.000040
C92	C	-0.091991	-1.259635	0.000056
H93	H	-0.122816	-1.186042	0.000061
H94	H	-0.059792	-1.259231	-0.086454
H95	H	-0.059793	-1.259217	0.086578
H96	H	-0.020359	-1.113334	-0.000069
