data_functionalizedCrystal
_audit_creation_method	'MofGen! by Chris Wilmer'
_symmetry_space_group_name_H-M	'P1'
_symmetry_Int_Tables_number	1
_symmetry_cell_setting	triclinic
loop_
_symmetry_equiv_pos_as_xyz
  x,y,z
_cell_length_a	19.288866
_cell_length_b	19.288859
_cell_length_c	18.366186
_cell_angle_alpha	89.994011
_cell_angle_beta	90.007516
_cell_angle_gamma	96.864815
loop_
_atom_site_label
_atom_site_type_symbol
_atom_site_fract_x
_atom_site_fract_y
_atom_site_fract_z
O1	O	-0.921350	0.086652	-0.060523
O2	O	-0.671350	0.336652	0.189477
O3	O	-0.421350	0.586652	0.439477
O4	O	-0.171350	0.836652	0.689477
O5	O	-0.719090	0.098340	-0.060530
O6	O	-0.469090	0.348340	0.189470
O7	O	-0.219090	0.598340	0.439470
O8	O	0.030910	0.848340	0.689470
O9	O	-0.826067	-0.008634	-0.060522
O10	O	-0.576067	0.241366	0.189478
O11	O	-0.326067	0.491366	0.439478
O12	O	-0.076067	0.741366	0.689478
O13	O	-0.814373	0.193627	-0.060531
O14	O	-0.564373	0.443627	0.189469
O15	O	-0.314373	0.693627	0.439469
O16	O	-0.064373	0.943627	0.689469
O17	O	-0.826048	-0.008640	0.060577
O18	O	-0.576048	0.241360	0.310577
O19	O	-0.326048	0.491360	0.560577
O20	O	-0.076048	0.741360	0.810577
O21	O	-0.719071	0.098335	0.060569
O22	O	-0.469071	0.348335	0.310569
O23	O	-0.219071	0.598335	0.560569
O24	O	0.030929	0.848335	0.810569
O25	O	-0.921332	0.086647	0.060576
O26	O	-0.671332	0.336647	0.310576
O27	O	-0.421332	0.586647	0.560576
O28	O	-0.171332	0.836647	0.810576
Zn29	Zn	-0.820199	0.092490	0.079800
Zn30	Zn	-0.570199	0.342490	0.329800
Zn31	Zn	-0.320199	0.592490	0.579800
Zn32	Zn	-0.070199	0.842490	0.829800
Zn33	Zn	-0.820223	0.092497	-0.079754
Zn34	Zn	-0.570223	0.342497	0.170246
Zn35	Zn	-0.320223	0.592497	0.420246
Zn36	Zn	-0.070223	0.842497	0.670246
O37	O	-0.814355	0.193622	0.060568
O38	O	-0.564355	0.443622	0.310568
O39	O	-0.314355	0.693622	0.560568
O40	O	-0.064355	0.943622	0.810568
C41	C	-0.693204	0.097961	0.000019
C42	C	-0.443204	0.347961	0.250019
C43	C	-0.193204	0.597961	0.500019
C44	C	0.056796	0.847961	0.750019
C45	C	-0.616101	0.096832	0.000016
C46	C	-0.366101	0.346832	0.250016
C47	C	-0.116101	0.596832	0.500016
C48	C	0.133899	0.846832	0.750016
C49	C	-0.060545	0.088701	-0.065987
C50	C	0.189455	0.338701	0.184013
C51	C	0.439455	0.588701	0.434013
C52	C	0.689455	0.838701	0.684013
C53	C	-0.132993	0.089758	-0.065990
C54	C	0.117007	0.339758	0.184010
C55	C	0.367007	0.589758	0.434010
C56	C	0.617007	0.839758	0.684010
C57	C	-0.169211	0.090287	0.000021
C58	C	0.080789	0.340287	0.250021
C59	C	0.330789	0.590287	0.500021
C60	C	0.580789	0.840287	0.750021
C61	C	-0.132979	0.089740	0.066040
C62	C	0.117021	0.339740	0.316040
C63	C	0.367021	0.589740	0.566040
C64	C	0.617021	0.839740	0.816040
C65	C	-0.060534	0.088677	0.066041
C66	C	0.189466	0.338677	0.316041
C67	C	0.439466	0.588677	0.566041
C68	C	0.689466	0.838677	0.816041
C69	C	-0.278530	0.132652	0.050593
C70	C	-0.028530	0.382652	0.300593
C71	C	0.221470	0.632652	0.550593
C72	C	0.471470	0.882652	0.800593
C73	C	-0.350973	0.133720	0.050589
C74	C	-0.100973	0.383720	0.300589
C75	C	0.149027	0.633720	0.550589
C76	C	0.399027	0.883720	0.800589
C77	C	-0.392657	0.093565	0.000022
C78	C	-0.142657	0.343565	0.250022
C79	C	0.107343	0.593565	0.500022
C80	C	0.357343	0.843565	0.750022
C81	C	-0.361887	0.052350	-0.050555
C82	C	-0.111887	0.302350	0.199445
C83	C	0.138113	0.552350	0.449445
C84	C	0.388113	0.802350	0.699445
C85	C	-0.289442	0.051287	-0.050554
C86	C	-0.039442	0.301287	0.199446
C87	C	0.210558	0.551287	0.449446
C88	C	0.460558	0.801287	0.699446
C89	C	-0.247766	0.091440	0.000028
C90	C	0.002234	0.341440	0.250028
C91	C	0.252234	0.591440	0.500028
C92	C	0.502234	0.841440	0.750028
C93	C	-0.507437	0.095252	-0.065996
C94	C	-0.257437	0.345252	0.184004
C95	C	-0.007437	0.595252	0.434004
C96	C	0.242563	0.845252	0.684004
C97	C	-0.579887	0.096304	-0.065996
C98	C	-0.329887	0.346304	0.184004
C99	C	-0.079887	0.596304	0.434004
C100	C	0.170113	0.846304	0.684004
C101	C	-0.579871	0.096294	0.066036
C102	C	-0.329871	0.346294	0.316036
C103	C	-0.079871	0.596294	0.566036
C104	C	0.170129	0.846294	0.816036
C105	C	-0.507423	0.095235	0.066034
C106	C	-0.257423	0.345235	0.316034
C107	C	-0.007423	0.595235	0.566034
C108	C	0.242577	0.845235	0.816034
C109	C	-0.471211	0.094717	0.000016
C110	C	-0.221211	0.344717	0.250016
C111	C	0.028789	0.594717	0.500016
C112	C	0.278789	0.844717	0.750016
C113	C	-0.825682	-0.034514	0.000027
C114	C	-0.575682	0.215486	0.250027
C115	C	-0.325682	0.465486	0.500027
C116	C	-0.075682	0.715486	0.750027
C117	C	-0.824555	-0.111617	0.000026
C118	C	-0.574555	0.138383	0.250026
C119	C	-0.324555	0.388383	0.500026
C120	C	-0.074555	0.638383	0.750026
C121	C	-0.879698	-0.675658	0.000009
C122	C	-0.629698	-0.425658	0.250009
C123	C	-0.379698	-0.175658	0.500009
C124	C	-0.129698	0.074342	0.750009
C125	C	-0.880763	-0.603211	0.000015
C126	C	-0.630763	-0.353211	0.250015
C127	C	-0.380763	-0.103211	0.500015
C128	C	-0.130763	0.146789	0.750015
C129	C	-0.817994	-0.558505	0.000013
C130	C	-0.567994	-0.308505	0.250013
C131	C	-0.317994	-0.058505	0.500013
C132	C	-0.067994	0.191495	0.750013
C133	C	-0.754155	-0.586250	0.000022
C134	C	-0.504155	-0.336250	0.250022
C135	C	-0.254155	-0.086250	0.500022
C136	C	-0.004155	0.163750	0.750022
C137	C	-0.753091	-0.658695	0.000023
C138	C	-0.503091	-0.408695	0.250023
C139	C	-0.253091	-0.158695	0.500023
C140	C	-0.003091	0.091305	0.750023
C141	C	-0.771187	-0.437229	-0.042414
C142	C	-0.521187	-0.187229	0.207586
C143	C	-0.271187	0.062771	0.457586
C144	C	-0.021187	0.312771	0.707586
C145	C	-0.772254	-0.364786	-0.042419
C146	C	-0.522254	-0.114786	0.207581
C147	C	-0.272254	0.135214	0.457581
C148	C	-0.022254	0.385214	0.707581
C149	C	-0.821272	-0.335059	0.000013
C150	C	-0.571272	-0.085059	0.250013
C151	C	-0.321272	0.164941	0.500013
C152	C	-0.071272	0.414941	0.750013
C153	C	-0.869235	-0.377786	0.042442
C154	C	-0.619235	-0.127786	0.292442
C155	C	-0.369235	0.122214	0.542442
C156	C	-0.119235	0.372214	0.792442
C157	C	-0.868172	-0.450232	0.042443
C158	C	-0.618172	-0.200232	0.292443
C159	C	-0.368172	0.049768	0.542443
C160	C	-0.118172	0.299768	0.792443
C161	C	-0.819140	-0.479949	0.000012
C162	C	-0.569140	-0.229949	0.250012
C163	C	-0.319140	0.020051	0.500012
C164	C	-0.069140	0.270051	0.750012
C165	C	-0.886262	-0.228767	0.000016
C166	C	-0.636262	0.021233	0.250016
C167	C	-0.386262	0.271233	0.500016
C168	C	-0.136262	0.521233	0.750016
C169	C	-0.887325	-0.156319	0.000027
C170	C	-0.637325	0.093681	0.250027
C171	C	-0.387325	0.343681	0.500027
C172	C	-0.137325	0.593681	0.750027
C173	C	-0.760714	-0.139359	0.000027
C174	C	-0.510714	0.110641	0.250027
C175	C	-0.260714	0.360641	0.500027
C176	C	-0.010714	0.610641	0.750027
C177	C	-0.759653	-0.211806	0.000023
C178	C	-0.509653	0.038194	0.250023
C179	C	-0.259653	0.288194	0.500023
C180	C	-0.009653	0.538194	0.750023
C181	C	-0.822429	-0.256506	0.000014
C182	C	-0.572429	-0.006506	0.250014
C183	C	-0.322429	0.243494	0.500014
C184	C	-0.072429	0.493494	0.750014
C185	C	0.052782	0.087027	0.000026
C186	C	0.302782	0.337027	0.250026
C187	C	0.552782	0.587027	0.500026
C188	C	0.802782	0.837027	0.750026
C189	C	-0.024321	0.088159	0.000023
C190	C	0.225679	0.338159	0.250023
C191	C	0.475679	0.588159	0.500023
C192	C	0.725679	0.838159	0.750023
C193	C	-0.814740	0.219501	0.000017
C194	C	-0.564740	0.469501	0.250017
C195	C	-0.314740	0.719501	0.500017
C196	C	-0.064740	0.969501	0.750017
C197	C	-0.815867	0.296604	0.000014
C198	C	-0.565867	0.546604	0.250014
C199	C	-0.315867	0.796604	0.500014
C200	C	-0.065867	1.046604	0.750014
N201	N	-0.820188	0.092485	0.188691
N202	N	-0.570188	0.342485	0.438691
N203	N	-0.320188	0.592485	0.688691
N204	N	-0.070188	0.842485	0.938691
N205	N	-0.820240	0.092497	-0.188645
N206	N	-0.570240	0.342497	0.061355
N207	N	-0.320240	0.592497	0.311355
N208	N	-0.070240	0.842497	0.561355
C209	C	-0.867573	0.045140	0.226795
C210	C	-0.617573	0.295140	0.476795
C211	C	-0.367573	0.545140	0.726795
C212	C	-0.117573	0.795140	0.976795
C213	C	-0.867577	0.045137	0.303023
C214	C	-0.617577	0.295137	0.553023
C215	C	-0.367577	0.545137	0.803023
C216	C	-0.117577	0.795137	1.053023
C217	C	-0.820203	0.092491	0.341144
C218	C	-0.570203	0.342491	0.591144
C219	C	-0.320203	0.592491	0.841144
C220	C	-0.070203	0.842491	1.091144
C221	C	-0.772809	0.139839	0.303031
C222	C	-0.522809	0.389839	0.553031
C223	C	-0.272809	0.639839	0.803031
C224	C	-0.022809	0.889839	1.053031
C225	C	-0.772802	0.139837	0.226804
C226	C	-0.522802	0.389837	0.476804
C227	C	-0.272802	0.639837	0.726804
C228	C	-0.022802	0.889837	0.976804
C229	C	-0.810904	0.155779	0.461901
C230	C	-0.560904	0.405779	0.711901
C231	C	-0.310904	0.655779	0.961901
C232	C	-0.060904	0.905779	1.211901
C233	C	-0.810916	0.155782	0.538126
C234	C	-0.560916	0.405782	0.788126
C235	C	-0.310916	0.655782	1.038126
C236	C	-0.060916	0.905782	1.288126
C237	C	-0.820223	0.092499	0.576251
C238	C	-0.570223	0.342499	0.826251
C239	C	-0.320223	0.592499	1.076251
C240	C	-0.070223	0.842499	1.326251
C241	C	-0.829532	0.029210	0.538142
C242	C	-0.579532	0.279210	0.788142
C243	C	-0.329532	0.529210	1.038142
C244	C	-0.079532	0.779210	1.288142
C245	C	-0.829524	0.029207	0.461916
C246	C	-0.579524	0.279207	0.711916
C247	C	-0.329524	0.529207	0.961916
C248	C	-0.079524	0.779207	1.211916
C249	C	-0.820206	0.092499	0.423799
C250	C	-0.570206	0.342499	0.673799
C251	C	-0.320206	0.592499	0.923799
C252	C	-0.070206	0.842499	1.173799
C253	C	-0.867615	0.045147	0.697010
C254	C	-0.617615	0.295147	0.947010
C255	C	-0.367615	0.545147	1.197010
C256	C	-0.117615	0.795147	1.447010
C257	C	-0.867615	0.045143	0.773239
C258	C	-0.617615	0.295143	1.023239
C259	C	-0.367615	0.545143	1.273239
C260	C	-0.117615	0.795143	1.523239
C261	C	-0.772850	0.139852	0.773246
C262	C	-0.522850	0.389852	1.023246
C263	C	-0.272850	0.639852	1.273246
C264	C	-0.022850	0.889852	1.523246
C265	C	-0.772848	0.139850	0.697018
C266	C	-0.522848	0.389850	0.947018
C267	C	-0.272848	0.639850	1.197018
C268	C	-0.022848	0.889850	1.447018
C269	C	-0.820234	0.092498	0.658905
C270	C	-0.570234	0.342498	0.908905
C271	C	-0.320234	0.592498	1.158905
C272	C	-0.070234	0.842498	1.408905
H273	H	-0.477929	0.094796	0.119787
H274	H	-0.227929	0.344796	0.369787
H275	H	0.022071	0.594796	0.619787
H276	H	0.272071	0.844796	0.869787
F277	F	-0.721212	-0.319320	-0.087581
F278	F	-0.471212	-0.069320	0.162419
F279	F	-0.221212	0.180680	0.412419
F280	F	0.028788	0.430680	0.662419
F281	F	-0.685151	-0.688216	0.000028
F282	F	-0.435151	-0.438216	0.250028
F283	F	-0.185151	-0.188216	0.500028
F284	F	0.064849	0.061784	0.750028
H285	H	-0.376018	0.167296	0.091756
H286	H	-0.126018	0.417296	0.341756
H287	H	0.123982	0.667296	0.591756
H288	H	0.373982	0.917296	0.841756
H289	H	-0.907224	-0.485017	0.076991
H290	H	-0.657224	-0.235017	0.326991
H291	H	-0.407224	0.014983	0.576991
H292	H	-0.157224	0.264983	0.826991
F293	F	-0.801013	0.223140	0.578678
F294	F	-0.551013	0.473140	0.828678
F295	F	-0.301013	0.723140	1.078678
F296	F	-0.051013	0.973140	1.328678
H297	H	-0.244597	0.165347	0.091779
H298	H	0.005403	0.415347	0.341779
H299	H	0.255403	0.665347	0.591779
H300	H	0.505403	0.915347	0.841779
H301	H	-0.734236	0.178395	0.334073
H302	H	-0.484236	0.428395	0.584073
H303	H	-0.234236	0.678395	0.834073
H304	H	0.015764	0.928395	1.084073
H305	H	-0.837110	-0.022321	0.569182
H306	H	-0.587110	0.227679	0.819182
H307	H	-0.337110	0.477679	1.069182
H308	H	-0.087110	0.727679	1.319182
F309	F	-0.801048	0.223139	0.421333
F310	F	-0.551048	0.473139	0.671333
F311	F	-0.301048	0.723139	0.921333
F312	F	-0.051048	0.973139	1.171333
H313	H	-0.734214	0.178391	0.195779
H314	H	-0.484214	0.428391	0.445779
H315	H	-0.234214	0.678391	0.695779
H316	H	0.015786	0.928391	0.945779
H317	H	-0.731262	-0.461425	-0.076963
H318	H	-0.481262	-0.211425	0.173037
H319	H	-0.231262	0.038575	0.423037
H320	H	0.018738	0.288575	0.673037
H321	H	-0.707675	-0.234389	0.000022
H322	H	-0.457675	0.015611	0.250022
H323	H	-0.207675	0.265611	0.500022
H324	H	0.042325	0.515611	0.750022
H325	H	-0.703048	-0.549845	0.000022
H326	H	-0.453048	-0.299845	0.250022
H327	H	-0.203048	-0.049845	0.500022
H328	H	0.046952	0.200155	0.750022
F329	F	-0.918002	-0.005258	0.186234
F330	F	-0.668002	0.244742	0.436234
F331	F	-0.418002	0.494742	0.686234
F332	F	-0.168002	0.744742	0.936234
H333	H	-0.031040	0.088238	0.119796
H334	H	0.218960	0.338238	0.369796
H335	H	0.468960	0.588238	0.619796
H336	H	0.718960	0.838238	0.869796
H337	H	-0.609360	0.096722	0.119783
H338	H	-0.359360	0.346722	0.369783
H339	H	-0.109360	0.596722	0.619783
H340	H	0.140640	0.846722	0.869783
H341	H	-0.609380	0.096740	-0.119751
H342	H	-0.359380	0.346740	0.130249
H343	H	-0.109380	0.596740	0.380249
H344	H	0.140620	0.846740	0.630249
H345	H	-0.906165	0.006581	0.334053
H346	H	-0.656165	0.256581	0.584053
H347	H	-0.406165	0.506581	0.834053
H348	H	-0.156165	0.756581	1.084053
F349	F	-0.406244	0.009613	-0.104379
F350	F	-0.156244	0.259613	0.145621
F351	F	0.093756	0.509613	0.395621
F352	F	0.343756	0.759613	0.645621
H353	H	-0.930815	-0.712049	0.000005
H354	H	-0.680815	-0.462049	0.250005
H355	H	-0.430815	-0.212049	0.500005
H356	H	-0.180815	0.037951	0.750005
H357	H	-0.906198	0.006588	0.665977
H358	H	-0.656198	0.256588	0.915977
H359	H	-0.406198	0.506588	1.165977
H360	H	-0.156198	0.756588	1.415977
F361	F	-0.918046	-0.005254	0.813794
F362	F	-0.668046	0.244746	1.063794
F363	F	-0.418046	0.494746	1.313794
F364	F	-0.168046	0.744746	1.563794
H365	H	-0.162473	0.090170	0.119787
H366	H	0.087527	0.340170	0.369787
H367	H	0.337527	0.590170	0.619787
H368	H	0.587527	0.840170	0.869787
H369	H	-0.031065	0.088276	-0.119744
H370	H	0.218935	0.338276	0.130256
H371	H	0.468935	0.588276	0.380256
H372	H	0.718935	0.838276	0.630256
F373	F	-0.722427	0.190245	0.813813
F374	F	-0.472427	0.440245	1.063813
F375	F	-0.222427	0.690245	1.313813
F376	F	0.027573	0.940245	1.563813
H377	H	-0.909146	-0.353584	0.077001
H378	H	-0.659146	-0.103584	0.327001
H379	H	-0.409146	0.146416	0.577001
H380	H	-0.159146	0.396416	0.827001
H381	H	-0.937378	-0.265164	0.000009
H382	H	-0.687378	-0.015164	0.250009
H383	H	-0.437378	0.234836	0.500009
H384	H	-0.187378	0.484836	0.750009
H385	H	-0.932744	-0.580623	0.000011
H386	H	-0.682744	-0.330623	0.250011
H387	H	-0.432744	-0.080623	0.500011
H388	H	-0.182744	0.169377	0.750011
H389	H	-0.939305	-0.133738	0.000027
H390	H	-0.689305	0.116262	0.250027
H391	H	-0.439305	0.366262	0.500027
H392	H	-0.189305	0.616262	0.750027
F393	F	-0.722417	0.190244	0.656462
F394	F	-0.472417	0.440244	0.906462
F395	F	-0.222417	0.690244	1.156462
F396	F	0.027583	0.940244	1.406462
H397	H	-0.837102	-0.022326	0.430891
H398	H	-0.587102	0.227674	0.680891
H399	H	-0.337102	0.477674	0.930891
H400	H	-0.087102	0.727674	1.180891
H401	H	-0.709606	-0.102959	0.000031
H402	H	-0.459606	0.147041	0.250031
H403	H	-0.209606	0.397041	0.500031
H404	H	0.040394	0.647041	0.750031
H405	H	-0.264392	0.017727	-0.091733
H406	H	-0.014392	0.267727	0.158267
H407	H	0.235608	0.517727	0.408267
H408	H	0.485608	0.767727	0.658267
F409	F	-0.171553	0.090335	-0.136249
F410	F	0.078447	0.340335	0.113751
F411	F	0.328447	0.590335	0.363751
F412	F	0.578447	0.840335	0.613751
H413	H	-0.477951	0.094828	-0.119752
H414	H	-0.227951	0.344828	0.130248
H415	H	0.022049	0.594828	0.380248
H416	H	0.272049	0.844828	0.630248
