data_functionalizedCrystal
_audit_creation_method	'MofGen! by Chris Wilmer'
_symmetry_space_group_name_H-M	'P1'
_symmetry_Int_Tables_number	1
_symmetry_cell_setting	triclinic
loop_
_symmetry_equiv_pos_as_xyz
  x,y,z
_cell_length_a	15.995300
_cell_length_b	17.019294
_cell_length_c	15.072220
_cell_angle_alpha	86.119892
_cell_angle_beta	89.985917
_cell_angle_gamma	83.432826
loop_
_atom_site_label
_atom_site_type_symbol
_atom_site_fract_x
_atom_site_fract_y
_atom_site_fract_z
O1	O	1.110902	0.101485	-0.081567
O2	O	0.867106	0.114083	-0.082524
O3	O	0.995804	-0.007050	-0.073268
O4	O	0.982204	0.222617	-0.090823
O5	O	0.995772	-0.007043	0.074296
O6	O	0.867074	0.114089	0.065040
O7	O	1.110870	0.101492	0.065997
Zn8	Zn	0.988967	0.107792	0.088948
Zn9	Zn	0.989009	0.107783	-0.105475
O10	O	0.982172	0.222624	0.056741
C11	C	0.835895	0.113572	-0.008702
C12	C	0.742945	0.112032	-0.008582
C13	C	0.572765	0.109187	-0.008371
C14	C	0.525197	0.195436	-0.014962
C15	C	0.428511	0.193862	-0.015179
C16	C	0.405211	0.106387	-0.008163
C17	C	0.446413	0.063592	-0.088993
C18	C	0.543044	0.065775	-0.089228
C19	C	0.543288	0.064506	0.078684
C20	C	0.446344	0.064513	0.079787
C21	C	0.310518	0.104800	-0.008048
C22	C	0.667459	0.110771	-0.008492
C23	C	0.995272	-0.036435	0.002759
C24	C	0.993724	-0.124005	0.009447
C25	C	0.993015	-0.165145	-0.067848
C26	C	0.991555	-0.247425	-0.061561
C27	C	0.990809	-0.288565	0.022022
C28	C	0.991515	-0.247419	0.099322
C29	C	0.992969	-0.165140	0.093034
C30	C	0.986413	-0.536996	0.045031
C31	C	0.984961	-0.619281	0.051313
C32	C	0.985000	-0.619281	-0.109571
C33	C	0.986459	-0.537001	-0.115851
C34	C	0.987160	-0.495861	-0.038551
C35	C	0.989320	-0.372669	0.028450
C36	C	0.988644	-0.411758	-0.044980
C37	C	1.142081	0.102002	-0.007827
C38	C	1.235032	0.103542	-0.007953
C39	C	0.982705	0.252009	-0.019288
C40	C	0.984253	0.339579	-0.025982
N41	N	0.988945	0.107797	0.221636
N42	N	0.989038	0.107771	-0.238163
C43	C	0.989007	0.107780	0.580839
C44	C	0.919913	0.172378	0.538296
C45	C	0.920071	0.172613	0.435452
C46	C	0.988976	0.107788	0.402634
C47	C	1.076321	0.125751	0.438551
C48	C	1.075934	0.126210	0.541373
C49	C	0.971535	0.025028	0.549265
C50	C	0.969530	0.025580	0.446360
C51	C	0.988963	0.107792	0.301921
C52	C	0.989026	0.107778	0.681553
H53	H	0.543634	0.230099	0.042688
H54	H	0.988715	-0.406175	0.096503
Br55	Br	0.993926	-0.109305	0.197939
H56	H	0.854774	0.161854	0.563863
H57	H	0.990903	-0.280921	0.167377
H58	H	0.855142	0.161914	0.411061
H59	H	0.575393	0.002442	-0.087980
H60	H	0.563741	0.092904	0.140278
H61	H	1.016593	-0.024742	0.424497
H62	H	0.987000	-0.503512	0.107975
Br63	Br	0.573544	0.117168	-0.198336
Br64	Br	0.989659	-0.355925	-0.158410
H65	H	0.930906	0.233441	0.559467
Br66	Br	0.557829	0.252346	-0.119680
Br67	Br	0.862438	0.002855	0.407482
Br68	Br	0.380976	0.249915	0.080991
Br69	Br	1.164108	0.050685	0.588610
H70	H	0.400637	0.227338	-0.078376
Br71	Br	1.055518	-0.055095	0.595917
Br72	Br	0.938610	0.274977	0.386594
Br73	Br	1.101621	0.226796	0.573660
H74	H	0.418006	0.092926	-0.154058
Br75	Br	0.423045	-0.043538	-0.085629
H76	H	1.128961	0.079952	0.417581
Br77	Br	0.400694	0.116598	0.179512
H78	H	1.092103	0.185413	0.408220
Br79	Br	0.867674	-0.003752	0.594754
H80	H	0.431080	0.000738	0.089988
H81	H	0.993627	-0.131655	-0.135910
Br82	Br	0.596399	-0.041475	0.088147
Br83	Br	0.987477	-0.481174	-0.229289
H84	H	0.990982	-0.280918	-0.124503
Br85	Br	0.984049	-0.675117	-0.214473
H86	H	0.984349	-0.652775	0.119380
