data_functionalizedCrystal
_audit_creation_method	'MofGen! by Chris Wilmer'
_symmetry_space_group_name_H-M	'P1'
_symmetry_Int_Tables_number	1
_symmetry_cell_setting	triclinic
loop_
_symmetry_equiv_pos_as_xyz
  x,y,z
_cell_length_a	19.805407
_cell_length_b	19.077068
_cell_length_c	19.077237
_cell_angle_alpha	85.344389
_cell_angle_beta	92.313575
_cell_angle_gamma	92.327086
loop_
_atom_site_label
_atom_site_type_symbol
_atom_site_fract_x
_atom_site_fract_y
_atom_site_fract_z
Zn1	Zn	1.039064	-0.296669	0.409869
Zn2	Zn	1.030244	-0.409826	0.296714
Zn3	Zn	0.921518	-0.291957	0.291997
Zn4	Zn	0.921467	-0.414518	0.414556
O5	O	0.978073	-0.353242	0.353284
O6	O	1.132610	-0.311687	0.394872
O7	O	1.012151	-0.390255	0.197441
O8	O	0.940823	-0.193933	0.303698
O9	O	1.126130	-0.394823	0.311737
O10	O	1.027183	-0.197394	0.390298
O11	O	0.932271	-0.303657	0.193975
O12	O	0.826794	-0.308207	0.308242
O13	O	0.940736	-0.402821	0.512581
O14	O	0.826757	-0.398252	0.398285
O15	O	1.027134	-0.316237	0.509138
O16	O	1.012102	-0.509098	0.316281
O17	O	0.932184	-0.512545	0.402859
C18	C	0.802217	-0.353228	0.353261
C19	C	0.726985	-0.353240	0.353268
C20	C	0.691633	-0.400191	0.400083
C21	C	0.620945	-0.400193	0.400093
C22	C	0.585609	-0.353246	0.353284
C23	C	0.620966	-0.306289	0.306466
C24	C	0.691653	-0.306285	0.306460
C25	C	0.335893	-0.306306	0.306490
C26	C	0.265200	-0.306315	0.306499
C27	C	0.265185	-0.400214	0.400123
C28	C	0.335872	-0.400209	0.400117
C29	C	0.371222	-0.353250	0.353303
C30	C	0.447871	-0.353248	0.353293
C31	C	0.508962	-0.353251	0.353289
C32	C	0.971199	-0.536401	0.360605
C33	C	0.968321	-0.614757	0.363761
C34	C	1.008613	-0.649753	0.320205
C35	C	1.005910	-0.723377	0.323177
C36	C	0.962912	-0.762005	0.369703
C37	C	0.922619	-0.727005	0.413264
C38	C	0.925325	-0.653382	0.410295
C39	C	0.950355	-0.982391	0.383416
C40	C	0.947650	-1.056019	0.386380
C41	C	1.030943	-1.052386	0.296294
C42	C	1.033643	-0.978762	0.293326
C43	C	0.993352	-0.943768	0.336889
N44	N	0.960147	-0.837262	0.372740
N45	N	0.996121	-0.868513	0.333855
C46	C	1.154616	-0.353257	0.353308
C47	C	1.229848	-0.353264	0.353318
C48	C	0.984913	-0.360578	0.537153
C49	C	0.987828	-0.363704	0.615507
C50	C	0.984993	-0.169370	0.345949
C51	C	0.987942	-0.091014	0.342824
C52	C	0.971300	-0.345885	0.170128
C53	C	0.968524	-0.342560	0.091766
C54	C	1.008738	-0.386176	1.056753
C55	C	1.005989	-0.383234	0.983131
C56	C	0.963029	-0.336673	0.944523
C57	C	0.922811	-0.293056	0.979541
C58	C	0.925556	-0.296002	1.053162
C59	C	0.950355	-0.323032	0.724147
C60	C	0.947614	-0.320088	0.650521
C61	C	1.030792	-0.410268	0.654115
C62	C	1.033537	-0.413206	0.727737
C63	C	0.993316	-0.369592	0.762749
N64	N	0.960220	-0.333664	0.869269
N65	N	0.996122	-0.372605	0.838002
H66	H	0.364666	-0.268074	0.268366
H67	H	1.068519	-0.451122	0.759167
F68	F	1.054374	-0.608648	0.270681
H69	H	0.720399	-0.438423	0.438199
H70	H	0.887829	-0.255148	0.948101
F71	F	0.882443	-0.616137	0.456655
H72	H	0.917547	-0.953904	0.418886
F73	F	1.079415	-0.937656	0.243814
F74	F	0.729276	-0.256311	0.256635
F75	F	0.373475	-0.450179	0.449935
F76	F	0.227557	-0.450191	0.449949
F77	F	0.882758	-0.249577	1.090426
H78	H	0.887611	-0.758462	0.451149
F79	F	0.227595	-0.256344	0.256676
H80	H	0.592190	-0.268061	0.268356
F81	F	1.054466	-0.435729	1.097835
F82	F	1.073594	-0.456683	0.616847
F83	F	1.048792	-0.429655	0.945870
F84	F	1.048797	-0.760619	0.276820
H85	H	0.592165	-0.438426	0.438214
H86	H	1.063746	-1.080886	0.260828
H87	H	0.912644	-1.087468	0.424279
H88	H	0.912633	-0.282168	0.619088
F89	F	0.907523	-0.276638	0.761401
