data_functionalizedCrystal
_audit_creation_method	'MofGen! by Chris Wilmer'
_symmetry_space_group_name_H-M	'P1'
_symmetry_Int_Tables_number	1
_symmetry_cell_setting	triclinic
loop_
_symmetry_equiv_pos_as_xyz
  x,y,z
_cell_length_a	16.109301
_cell_length_b	10.489741
_cell_length_c	15.186229
_cell_angle_alpha	89.996534
_cell_angle_beta	89.999362
_cell_angle_gamma	84.000327
loop_
_atom_site_label
_atom_site_type_symbol
_atom_site_fract_x
_atom_site_fract_y
_atom_site_fract_z
O1	O	1.104141	0.163947	-0.073172
O2	O	0.862205	0.184350	-0.073186
O3	O	0.988678	-0.011529	-0.073174
O4	O	0.977668	0.359826	-0.073185
O5	O	0.988670	-0.011532	0.073284
O6	O	0.862196	0.184347	0.073271
O7	O	1.104133	0.163944	0.073285
Zn8	Zn	0.983163	0.174145	0.096531
Zn9	Zn	0.983174	0.174149	-0.096433
O10	O	0.977659	0.359823	0.073272
C11	C	0.831221	0.183522	0.000041
C12	C	0.738910	0.181044	0.000035
C13	C	0.517319	0.291514	0.000042
C14	C	0.430584	0.289175	0.000048
C15	C	0.449026	0.056771	0.000051
C16	C	0.535759	0.059111	0.000052
C17	C	0.569903	0.176486	0.000043
C18	C	0.396435	0.171808	0.000048
C19	C	0.302393	0.169272	0.000054
C20	C	0.663950	0.179022	0.000038
C21	C	0.987842	-0.059050	0.000054
C22	C	0.985354	-0.200644	0.000053
C23	C	0.904883	-0.267616	0.000042
C24	C	0.942893	-0.360292	0.072255
C25	C	0.942920	-0.360264	-0.072141
C26	C	1.023397	-0.291454	0.072325
C27	C	1.023413	-0.291417	-0.072135
C28	C	1.061482	-0.384066	0.000096
C29	C	1.135117	0.164772	0.000056
C30	C	1.227427	0.167250	0.000056
C31	C	0.978495	0.407344	0.000042
C32	C	0.980983	0.548938	0.000038
N33	N	0.983162	0.174142	0.228224
N34	N	0.983183	0.174142	-0.228125
C35	C	1.039183	0.087436	0.453952
C36	C	1.039186	0.087433	0.546142
C37	C	0.927155	0.260852	0.546140
C38	C	0.927149	0.260848	0.453952
C39	C	0.983168	0.174141	0.407860
C40	C	0.983176	0.174142	0.592238
C41	C	0.983179	0.174140	0.692194
C42	C	0.983165	0.174142	0.307898
H43	H	0.578575	-0.034565	0.000055
O44	O	0.825940	-0.207286	0.000274
C45	C	0.694347	-0.173799	0.076641
C46	C	0.783730	-0.242181	0.076493
H47	H	0.660189	-0.202007	0.138248
H48	H	0.696931	-0.065607	0.076070
H49	H	0.659728	-0.203228	0.015671
H50	H	0.818400	-0.212857	0.137453
H51	H	0.781085	-0.350359	0.077019
H52	H	0.908840	-0.390810	0.133302
O53	O	1.064116	-0.255130	-0.144939
C54	C	1.192224	-0.275431	-0.228078
C55	C	1.146231	-0.316662	-0.145595
H56	H	1.258627	-0.325140	-0.228627
H57	H	1.157897	-0.303419	-0.289630
H58	H	1.194209	-0.167124	-0.227011
H59	H	1.144233	-0.424964	-0.146577
H60	H	1.180574	-0.288580	-0.084080
O61	O	0.550526	0.405495	-0.000116
C62	C	0.637782	0.542995	-0.075966
C63	C	0.600219	0.413876	-0.075909
H64	H	0.677981	0.549802	-0.137228
H65	H	0.585328	0.624856	-0.076021
H66	H	0.677892	0.549879	-0.014647
H67	H	0.560118	0.406867	-0.137218
H68	H	0.652713	0.332077	-0.075808
O69	O	0.872629	0.344951	0.590878
C70	C	0.728520	0.419674	0.619057
C71	C	0.790177	0.324339	0.568355
H72	H	0.661844	0.403061	0.600852
H73	H	0.738075	0.404785	0.692874
H74	H	0.740003	0.521829	0.600935
H75	H	0.778731	0.222146	0.586403
H76	H	0.780607	0.339340	0.494550
H77	H	0.421215	-0.038791	0.000064
O78	O	1.093522	0.003258	0.591052
C79	C	1.143216	-0.073551	0.733071
C80	C	1.081622	0.021831	0.682322
H81	H	1.133629	-0.058549	0.806871
H82	H	1.131774	-0.175746	0.715015
H83	H	1.209893	-0.056910	0.714887
H84	H	1.014922	0.005308	0.700479
H85	H	1.093137	0.123993	0.700382
H86	H	1.057413	-0.261117	0.133445
O87	O	0.872848	0.345137	0.409077
C88	C	0.856191	0.519371	0.305022
C89	C	0.917776	0.423975	0.355771
H90	H	0.892491	0.583153	0.261926
H91	H	0.814339	0.464352	0.261810
H92	H	0.816143	0.581292	0.353817
H93	H	0.957878	0.362029	0.307040
H94	H	0.959570	0.479072	0.398997
O95	O	0.902183	-0.396457	-0.144950
C96	C	0.773559	-0.377817	-0.227186
C97	C	0.819607	-0.336709	-0.144709
H98	H	0.706783	-0.329551	-0.227009
H99	H	0.807162	-0.348085	-0.288752
H100	H	0.772630	-0.486337	-0.226824
H101	H	0.820549	-0.228196	-0.144986
H102	H	0.785989	-0.366536	-0.083180
H103	H	0.387773	0.382843	0.000049
H104	H	1.127704	-0.434450	0.000140
O105	O	1.093623	0.003082	0.409315
C106	C	1.204772	-0.168882	0.419051
C107	C	1.143151	-0.073435	0.469709
H108	H	1.244843	-0.230753	0.467858
H109	H	1.168536	-0.232706	0.375923
H110	H	1.246595	-0.113776	0.375860
H111	H	1.101313	-0.128436	0.512948
H112	H	1.179438	-0.009612	0.512782
