data_functionalizedCrystal
_audit_creation_method	'MofGen! by Chris Wilmer'
_symmetry_space_group_name_H-M	'P1'
_symmetry_Int_Tables_number	1
_symmetry_cell_setting	triclinic
loop_
_symmetry_equiv_pos_as_xyz
  x,y,z
_cell_length_a	10.654549
_cell_length_b	10.654562
_cell_length_c	9.730217
_cell_angle_alpha	89.995772
_cell_angle_beta	90.002171
_cell_angle_gamma	95.511489
loop_
_atom_site_label
_atom_site_type_symbol
_atom_site_fract_x
_atom_site_fract_y
_atom_site_fract_z
O1	O	0.176472	-1.667830	0.114377
O2	O	0.193262	-1.302353	0.114359
O3	O	0.002128	-1.493491	0.114363
O4	O	0.367606	-1.476692	0.114373
O5	O	0.002127	-1.493485	-0.114217
O6	O	0.193260	-1.302348	-0.114221
O7	O	0.176470	-1.667824	-0.114203
Zn8	Zn	0.184865	-1.485085	-0.150504
Zn9	Zn	0.184867	-1.485092	0.150660
O10	O	0.367604	-1.476686	-0.114207
C11	C	0.192025	-1.255553	0.000067
C12	C	0.188326	-1.116110	0.000061
N13	N	0.184863	-1.485089	-0.356040
C14	C	-0.044670	-1.492254	0.000075
C15	C	-0.184114	-1.488559	0.000079
C16	C	-0.474088	-1.710181	0.000083
C17	C	-0.422546	-1.826199	0.000085
C18	C	-0.291528	-1.829674	0.000087
C19	C	-0.212047	-1.717120	0.000083
C20	C	-0.263590	-1.601102	0.000080
C21	C	-0.394612	-1.597639	0.000082
C22	C	-0.235656	-1.372541	0.000076
C23	C	-0.366674	-1.369063	0.000084
C24	C	-0.156175	-1.259987	0.000072
C25	C	-0.207717	-1.143966	0.000079
C26	C	-0.338744	-1.140495	0.000078
C27	C	-0.418216	-1.253045	0.000082
C28	C	0.414403	-1.477924	0.000085
C29	C	0.553846	-1.481618	0.000089
C30	C	0.177707	-1.714624	0.000092
C31	C	0.181406	-1.854067	0.000108
C32	C	0.186601	-1.050576	-0.124528
C33	C	0.183136	-0.919554	-0.124505
C34	C	0.183128	-0.919611	0.124706
C35	C	0.186584	-1.050632	0.124681
C36	C	0.188343	-1.116055	-0.249149
C37	C	0.186618	-1.050521	-0.373747
C38	C	0.183154	-0.919498	-0.373724
C39	C	0.181413	-0.854010	-0.249103
C40	C	0.015664	-1.654411	-0.356028
C41	C	-0.068932	-1.739080	-0.427961
C42	C	-0.068933	-1.739093	-0.571841
C43	C	0.015669	-1.654425	-0.643791
C44	C	0.100265	-1.569755	-0.571857
C45	C	0.100259	-1.569754	-0.427974
C46	C	0.269455	-1.400429	-0.571870
C47	C	0.269464	-1.400420	-0.427990
C48	C	0.354057	-1.315760	-0.643819
C49	C	0.438661	-1.231095	-0.571886
C50	C	0.438659	-1.231087	-0.427997
C51	C	0.354060	-1.315751	-0.356056
N52	N	0.184860	-1.485099	0.356197
H53	H	-0.487273	-1.917838	0.000085
C54	C	0.039098	-1.202753	-0.117463
C55	C	-0.012159	-1.263814	0.000052
H56	H	0.128007	-1.205125	-0.117479
H57	H	0.019787	-1.117558	-0.117451
H58	H	0.004274	-1.244182	-0.197158
H59	H	0.022658	-1.222379	0.079748
H60	H	0.007163	-1.349025	0.000053
C61	C	-0.274976	-2.025562	0.117607
C62	C	-0.234859	-1.957198	0.000099
H63	H	-0.239982	-2.104284	0.117617
H64	H	-0.364368	-2.039610	0.117592
H65	H	-0.247763	-1.979159	0.197306
H66	H	-0.262080	-2.003597	-0.079602
H67	H	-0.145447	-1.943153	0.000101
H68	H	0.178589	-0.747324	-0.249094
H69	H	0.187995	-1.103990	0.226132
C70	C	-0.143959	-1.814366	-0.207393
C71	C	-0.161853	-1.832216	-0.348872
H72	H	-0.201302	-1.871889	-0.158574
H73	H	-0.158466	-1.730473	-0.183793
H74	H	-0.059977	-1.828653	-0.183862
H75	H	-0.245833	-1.817920	-0.372405
H76	H	-0.147356	-1.916130	-0.372482
C77	C	0.261953	-1.407976	-0.849923
C78	C	0.354063	-1.315775	-0.801974
H79	H	0.261969	-1.407988	-0.947562
H80	H	0.181527	-1.390095	-0.817394
H81	H	0.279912	-1.488379	-0.817347
H82	H	0.336099	-1.235370	-0.834542
H83	H	0.434507	-1.333648	-0.834517
H84	H	0.507532	-1.162158	-0.630476
C85	C	-0.669363	-1.767433	0.117606
C86	C	-0.618106	-1.706364	0.000096
H87	H	-0.758275	-1.765083	0.117608
H88	H	-0.634558	-1.726007	0.197296
H89	H	-0.650034	-1.852635	0.117594
H90	H	-0.637427	-1.621160	0.000113
H91	H	-0.652923	-1.747788	-0.079614
H92	H	-0.380700	-1.046019	0.000062
H93	H	0.015666	-1.654419	-0.238873
H94	H	0.191168	-1.222739	-0.249181
C95	C	0.295453	-1.077641	-0.586170
C96	C	0.188522	-1.122496	-0.510728
H97	H	0.296619	-1.122070	-0.670741
H98	H	0.369116	-1.090203	-0.534977
H99	H	0.293129	-0.990230	-0.603972
H100	H	0.190851	-1.209906	-0.492917
H101	H	0.114840	-1.109945	-0.561932
H102	H	0.354055	-1.315756	-0.238902
H103	H	-0.105367	-1.719960	0.000067
C104	C	-0.236188	-1.906465	-0.557392
C105	C	-0.161926	-1.832155	-0.650919
H106	H	-0.293594	-1.963919	-0.606215
H107	H	-0.281855	-1.853799	-0.501286
H108	H	-0.183476	-1.952090	-0.501262
H109	H	-0.214638	-1.786523	-0.707043
H110	H	-0.116256	-1.884828	-0.707049
C111	C	0.074323	-0.892294	-0.586144
C112	C	0.181251	-0.847468	-0.510681
H113	H	0.073159	-0.847832	-0.670702
H114	H	0.000658	-0.879752	-0.534953
H115	H	0.076648	-0.979698	-0.603974
H116	H	0.178921	-0.760065	-0.492843
H117	H	0.254935	-0.859999	-0.561883
C118	C	-0.590697	-1.123634	0.000081
C119	C	-0.562234	-1.249231	0.000084
H120	H	-0.679609	-1.121286	0.000089
H121	H	-0.555908	-1.082221	-0.079627
H122	H	-0.555893	-1.082223	0.079795
H123	H	-0.597031	-1.290640	-0.079636
H124	H	-0.597038	-1.290662	0.079801
C125	C	-0.102917	-1.628085	-0.849898
C126	C	0.015658	-1.654434	-0.801945
H127	H	-0.102923	-1.628098	-0.947537
H128	H	-0.120845	-1.547676	-0.817363
H129	H	-0.165397	-1.690629	-0.817332
H130	H	0.078138	-1.591885	-0.834504
H131	H	0.033600	-1.734854	-0.834495
H132	H	0.181714	-0.866279	0.226166
H133	H	-0.142995	-1.052333	0.000065
H134	H	0.507542	-1.162134	-0.369436
