data_functionalizedCrystal
_audit_creation_method	'MofGen! by Chris Wilmer'
_symmetry_space_group_name_H-M	'P1'
_symmetry_Int_Tables_number	1
_symmetry_cell_setting	triclinic
loop_
_symmetry_equiv_pos_as_xyz
  x,y,z
_cell_length_a	10.654562
_cell_length_b	14.519731
_cell_length_c	9.730223
_cell_angle_alpha	89.997677
_cell_angle_beta	89.996961
_cell_angle_gamma	84.089478
loop_
_atom_site_label
_atom_site_type_symbol
_atom_site_fract_x
_atom_site_fract_y
_atom_site_fract_z
O1	O	1.666592	0.129583	-0.114384
O2	O	1.300999	0.141911	-0.114367
O3	O	1.493475	0.001560	-0.114363
O4	O	1.474116	0.269934	-0.114387
O5	O	1.493472	0.001564	0.114217
O6	O	1.300996	0.141915	0.114213
O7	O	1.666590	0.129586	0.114196
Zn8	Zn	1.483793	0.135751	0.150497
Zn9	Zn	1.483796	0.135747	-0.150667
O10	O	1.474114	0.269937	0.114193
C11	C	1.254208	0.141006	-0.000075
C12	C	1.114792	0.138290	-0.000068
C13	C	1.049272	0.137025	0.124520
C14	C	0.918274	0.134481	0.124498
C15	C	0.918326	0.134470	-0.124713
C16	C	1.049323	0.137008	-0.124689
C17	C	1.114740	0.138307	0.249141
C18	C	1.049220	0.137044	0.373739
C19	C	0.918222	0.134499	0.373717
C20	C	0.852744	0.133219	0.249096
C21	C	1.492566	-0.032802	-0.000073
C22	C	1.489848	-0.135196	-0.000072
C23	C	1.487640	-0.218352	-0.000075
C24	C	1.484880	-0.322675	-0.000085
C25	C	1.482690	-0.405826	-0.000094
C26	C	1.479930	-0.510155	-0.000102
C27	C	1.713380	0.130492	-0.000099
C28	C	1.852797	0.133208	-0.000115
C29	C	1.475022	0.304300	-0.000101
C30	C	1.477740	0.406694	-0.000111
N31	N	1.483800	0.135754	0.356033
N32	N	1.483799	0.135737	-0.356204
C33	C	1.569050	0.073628	0.427961
C34	C	1.569047	0.073616	0.571844
C35	C	1.398539	0.197866	0.571859
C36	C	1.398537	0.197872	0.427978
C37	C	1.654313	0.011510	0.356015
C38	C	1.739571	-0.050621	0.427943
C39	C	1.739567	-0.050632	0.571826
C40	C	1.654306	0.011487	0.643781
H41	H	0.864880	0.133463	0.475171
N42	N	0.718931	0.130629	0.249092
N43	N	0.649041	0.194389	0.304709
H44	H	0.554535	0.192565	0.304708
N45	N	1.116248	0.138328	-0.251954
N46	N	1.177934	0.204642	-0.279742
H47	H	1.225199	0.205575	-0.369628
N48	N	1.826625	-0.114099	0.645322
N49	N	1.826602	-0.114111	0.773785
H50	H	1.888084	-0.158941	0.825692
N51	N	1.654344	0.011515	0.209045
N52	N	1.730477	-0.043945	0.144820
H53	H	1.730503	-0.043938	0.041021
H54	H	1.329118	0.248460	0.369414
H55	H	0.865003	0.133430	-0.226173
H56	H	1.808981	-0.101201	0.369350
H57	H	1.654302	0.011467	0.760941
N58	N	1.311460	0.261307	0.645376
N59	N	1.311474	0.261292	0.773839
H60	H	1.249974	0.306100	0.825762
N61	N	1.248548	0.140919	0.249125
N62	N	1.295592	0.206945	0.193474
H63	H	1.390093	0.208795	0.193452
H64	H	1.102542	0.138079	0.475201
