data_functionalizedCrystal
_audit_creation_method	'MofGen! by Chris Wilmer'
_symmetry_space_group_name_H-M	'P1'
_symmetry_Int_Tables_number	1
_symmetry_cell_setting	triclinic
loop_
_symmetry_equiv_pos_as_xyz
  x,y,z
_cell_length_a	11.026607
_cell_length_b	14.185569
_cell_length_c	11.026607
_cell_angle_alpha	73.887065
_cell_angle_beta	71.413983
_cell_angle_gamma	73.886495
loop_
_atom_site_label
_atom_site_type_symbol
_atom_site_fract_x
_atom_site_fract_y
_atom_site_fract_z
O1	O	1.704139	0.083415	-0.556200
O2	O	1.337559	0.083417	-0.495437
O3	O	1.490468	0.083413	-0.342528
O4	O	1.551230	0.083420	-0.709110
O5	O	1.535640	-0.083423	-0.297363
O6	O	1.382731	-0.083419	-0.450273
O7	O	1.749311	-0.083420	-0.511036
Cu8	Cu	1.570145	-0.098653	-0.476530
Cu9	Cu	1.516724	0.098650	-0.529943
O10	O	1.596402	-0.083416	-0.663945
C11	C	1.312485	-0.000001	-0.461645
C12	C	1.170471	-0.000000	-0.428228
N13	N	1.607728	-0.237425	-0.438964
C14	C	1.116821	0.000002	-0.520499
C15	C	0.970042	0.000003	-0.485963
C16	C	1.368719	-0.605068	-0.677814
C17	C	1.397198	-0.710091	-0.649369
C18	C	1.532648	-0.710056	-0.514040
C19	C	1.504175	-0.605031	-0.542469
C20	C	1.422211	-0.552546	-0.624358
C21	C	1.557668	-0.552508	-0.489012
C22	C	1.529202	-0.447493	-0.517445
C23	C	1.447245	-0.395000	-0.599334
C24	C	1.393746	-0.447530	-0.652790
C25	C	1.639639	-0.604996	-0.407131
C26	C	1.693132	-0.552473	-0.353675
C27	C	1.664659	-0.447456	-0.382099
C28	C	1.582701	-0.394963	-0.463988
C29	C	1.718158	-0.394926	-0.328643
C30	C	1.689692	-0.289910	-0.357075
C31	C	1.554236	-0.289948	-0.492421
C32	C	1.774384	-0.000001	-0.544828
C33	C	1.916396	0.000005	-0.578247
C34	C	1.501844	-0.000004	-0.272286
C35	C	1.468426	-0.000000	-0.130273
N36	N	1.479149	0.237422	-0.567501
C37	C	1.585025	0.000003	-0.734187
C38	C	1.618441	0.000006	-0.876202
C39	C	1.560695	0.000001	-0.076624
C40	C	1.526158	0.000005	0.070153
H41	H	1.179555	-0.000001	-0.625061
C42	C	0.885317	-0.000000	-0.344696
H43	H	0.938012	-0.000008	-0.291283
H44	H	0.817086	0.058177	-0.343571
H45	H	0.848601	-0.058188	-0.312074
H46	H	1.326991	-0.404795	-0.719462
H47	H	1.759872	-0.595219	-0.287003
H48	H	1.363861	0.000007	-0.067542
H49	H	0.979125	0.000001	-0.682816
C50	C	1.759708	0.000006	0.039075
H51	H	1.813115	0.000014	0.091768
H52	H	1.792337	-0.058172	0.002348
H53	H	1.760824	0.058194	-0.029151
H54	H	1.424074	-0.309490	-0.622487
H55	H	1.107731	0.000024	-0.323672
C56	C	1.384894	0.000006	0.154884
H57	H	1.380214	0.000002	0.242421
H58	H	1.327907	0.058184	0.121505
H59	H	1.359420	-0.058182	0.153016
C60	C	1.464060	-0.232203	-0.582481
H61	H	1.454763	-0.162138	-0.591745
H62	H	1.501122	-0.249406	-0.665905
H63	H	1.380647	-0.249429	-0.545328
C64	C	1.278556	-0.547328	-0.767889
H65	H	1.250774	-0.593647	-0.795661
H66	H	1.204397	-0.506367	-0.721519
H67	H	1.324893	-0.506358	-0.842075
H68	H	1.784904	-0.437673	-0.261978
H69	H	1.353632	-0.752849	-0.692909
C70	C	1.622797	-0.767795	-0.423962
H71	H	1.632084	-0.837861	-0.414677
H72	H	1.706205	-0.750568	-0.461081
H73	H	1.585698	-0.750585	-0.340536
H74	H	1.662818	-0.690506	-0.383990
H75	H	1.733253	-0.247146	-0.313546
C76	C	1.701954	-0.000004	-0.161358
H77	H	1.706637	-0.000013	-0.248892
H78	H	1.727439	0.058174	-0.159487
H79	H	1.758935	-0.058192	-0.127977
