data_functionalizedCrystal
_audit_creation_method	'MofGen! by Chris Wilmer'
_symmetry_space_group_name_H-M	'P1'
_symmetry_Int_Tables_number	1
_symmetry_cell_setting	triclinic
loop_
_symmetry_equiv_pos_as_xyz
  x,y,z
_cell_length_a	19.188930
_cell_length_b	19.188925
_cell_length_c	16.776229
_cell_angle_alpha	89.993696
_cell_angle_beta	89.978976
_cell_angle_gamma	83.143665
loop_
_atom_site_label
_atom_site_type_symbol
_atom_site_fract_x
_atom_site_fract_y
_atom_site_fract_z
O1	O	0.926146	0.087169	-0.066544
O2	O	1.426146	0.587169	0.433456
O3	O	0.722834	0.098904	-0.066489
O4	O	1.222834	0.598904	0.433511
O5	O	0.830359	-0.008619	-0.066514
O6	O	1.330359	0.491381	0.433486
O7	O	0.818621	0.194693	-0.066519
O8	O	1.318621	0.694693	0.433481
O9	O	0.830345	-0.008626	0.066063
O10	O	1.330345	0.491374	0.566063
O11	O	0.722820	0.098897	0.066087
O12	O	1.222820	0.598897	0.566087
O13	O	0.926131	0.087163	0.066033
O14	O	1.426131	0.587163	0.566033
Zn15	Zn	0.824473	0.093029	0.087109
Zn16	Zn	1.324473	0.593029	0.587109
Zn17	Zn	0.824492	0.093038	-0.087566
Zn18	Zn	1.324492	0.593038	0.412434
O19	O	0.818607	0.194686	0.066057
O20	O	1.318607	0.694686	0.566057
C21	C	0.696816	0.098520	-0.000194
C22	C	1.196816	0.598520	0.499806
C23	C	0.619311	0.097380	-0.000173
C24	C	1.119311	0.597380	0.499827
C25	C	0.574386	0.160471	-0.000187
C26	C	1.074386	0.660471	0.499813
C27	C	0.501563	0.159399	-0.000196
C28	C	1.001563	0.659399	0.499804
C29	C	0.473667	0.095233	-0.000206
C30	C	0.973667	0.595233	0.499794
C31	C	0.518602	0.032134	-0.000188
C32	C	1.018602	0.532134	0.499812
C33	C	0.591424	0.033207	-0.000171
C34	C	1.091424	0.533207	0.499829
N35	N	0.365693	0.046188	-0.045359
N36	N	0.865693	0.546188	0.454641
N37	N	0.296514	0.045173	-0.045376
N38	N	0.796514	0.545173	0.454624
C39	C	0.254259	0.091995	-0.000255
C40	C	0.754259	0.591995	0.499745
N41	N	0.283794	0.139881	0.044874
N42	N	0.783794	0.639881	0.544874
N43	N	0.352978	0.140899	0.044888
N44	N	0.852978	0.640899	0.544888
C45	C	0.394705	0.094062	-0.000224
C46	C	0.894705	0.594062	0.499776
C47	C	0.130369	0.153928	-0.000278
C48	C	0.630369	0.653928	0.499722
C49	C	0.057544	0.152854	-0.000281
C50	C	0.557544	0.652854	0.499719
C51	C	0.074586	0.025586	-0.000281
C52	C	0.574586	0.525586	0.499719
C53	C	0.147409	0.026663	-0.000269
C54	C	0.647409	0.526663	0.499731
C55	C	0.175296	0.090835	-0.000271
C56	C	0.675296	0.590835	0.499729
C57	C	0.829972	-0.034634	-0.000226
C58	C	1.329972	0.465366	0.499774
C59	C	0.828833	-0.112138	-0.000227
C60	C	1.328833	0.387862	0.499773
C61	C	0.884297	-0.673909	-0.000262
C62	C	1.384297	-0.173909	0.499738
C63	C	0.885374	-0.601085	-0.000255
C64	C	1.385374	-0.101085	0.499745
C65	C	0.822282	-0.556151	-0.000238
C66	C	1.322282	-0.056151	0.499762
C67	C	0.758108	-0.584045	-0.000208
C68	C	1.258108	-0.084045	0.499792
C69	C	0.757033	-0.656867	-0.000207
C70	C	1.257033	-0.156867	0.499793
N71	N	0.776610	-0.435468	-0.045352
N72	N	1.276610	0.064532	0.454648
N73	N	0.777635	-0.366291	-0.045354
N74	N	1.277635	0.133709	0.454646
C75	C	0.825516	-0.336742	-0.000240
C76	C	1.325516	0.163258	0.499760
N77	N	0.872343	-0.378985	0.044868
N78	N	1.372343	0.121015	0.544868
N79	N	0.871319	-0.448169	0.044867
N80	N	1.371319	0.051831	0.544867
C81	C	0.823440	-0.477187	-0.000239
C82	C	1.323440	0.022813	0.499761
C83	C	0.890852	-0.229893	-0.000257
C84	C	1.390852	0.270107	0.499743
C85	C	0.891926	-0.157068	-0.000245
C86	C	1.391926	0.342932	0.499755
C87	C	0.764659	-0.140029	-0.000206
C88	C	1.264659	0.359971	0.499794
C89	C	0.763587	-0.212852	-0.000210
C90	C	1.263587	0.287148	0.499790
C91	C	0.826685	-0.257780	-0.000239
C92	C	1.326685	0.242220	0.499761
C93	C	0.952150	0.087546	-0.000264
C94	C	1.452150	0.587546	0.499736
C95	C	1.029654	0.088687	-0.000291
C96	C	1.529654	0.588687	0.499709
C97	C	0.818993	0.220700	-0.000232
C98	C	1.318993	0.720700	0.499768
C99	C	0.820132	0.298205	-0.000236
C100	C	1.320132	0.798205	0.499764
N101	N	0.824466	0.093023	0.206321
N102	N	1.324466	0.593023	0.706321
N103	N	0.824505	0.093038	-0.206777
N104	N	1.324505	0.593038	0.293223
C105	C	0.872092	0.045431	0.248027
C106	C	1.372092	0.545431	0.748027
C107	C	0.872096	0.045430	0.331479
C108	C	1.372096	0.545430	0.831479
C109	C	0.824476	0.093025	0.373224
C110	C	1.324476	0.593025	0.873224
C111	C	0.776845	0.140619	0.331511
C112	C	1.276845	0.640619	0.831511
C113	C	0.776838	0.140616	0.248061
C114	C	1.276838	0.640616	0.748061
C115	C	0.776870	0.140633	0.668059
C116	C	1.276870	0.640633	1.168059
C117	C	0.776882	0.140634	0.751515
C118	C	1.276882	0.640634	1.251515
C119	C	0.872128	0.045447	0.751477
C120	C	1.372128	0.545447	1.251477
C121	C	0.872121	0.045444	0.668026
C122	C	1.372121	0.545444	1.168026
C123	C	0.824488	0.093035	0.626321
C124	C	1.324488	0.593035	1.126321
C125	C	0.824483	0.093034	0.535833
C126	C	1.324483	0.593034	1.035833
C127	C	0.824484	0.093030	0.463710
C128	C	1.324484	0.593030	0.963710
H129	H	0.464977	0.210777	-0.000205
H130	H	0.964977	0.710777	0.499795
H131	H	0.711337	-0.235557	-0.000195
H132	H	1.211337	0.264443	0.499805
Br133	Br	0.936774	-0.019144	0.808080
Br134	Br	1.436774	0.480856	1.308080
H135	H	0.713288	-0.103444	-0.000186
H136	H	1.213288	0.396556	0.499814
Br137	Br	0.936728	-0.019161	0.191382
Br138	Br	1.436728	0.480839	0.691382
H139	H	0.628003	-0.018171	-0.000160
H140	H	1.128003	0.481829	0.499840
H141	H	0.597087	0.212725	-0.000190
H142	H	1.097087	0.712725	0.499810
H143	H	0.910877	0.006677	0.365436
H144	H	1.410877	0.506677	0.865436
Br145	Br	0.936753	-0.019147	0.611376
Br146	Br	1.436753	0.480853	1.111376
Br147	Br	0.480747	-0.054950	-0.000193
Br148	Br	0.980747	0.445050	0.499807
Br149	Br	0.168220	0.241017	-0.000275
Br150	Br	0.668220	0.741017	0.499725
H151	H	0.944179	-0.134365	-0.000261
H152	H	1.444179	0.365635	0.499739
H153	H	0.020966	0.204232	-0.000289
H154	H	0.520966	0.704232	0.499711
Br155	Br	0.712251	0.205232	0.808169
Br156	Br	1.212251	0.705232	1.308169
H157	H	0.706738	-0.547455	-0.000192
H158	H	1.206738	-0.047455	0.499808
Br159	Br	0.712228	0.205220	0.611464
Br160	Br	1.212228	0.705220	1.111464
Br161	Br	0.712211	0.205210	0.388161
Br162	Br	1.212211	0.705210	0.888161
Br163	Br	0.712195	0.205203	0.191459
Br164	Br	1.212195	0.705203	0.691459
H165	H	0.183988	-0.024713	-0.000262
H166	H	0.683988	0.475287	0.499738
Br167	Br	0.036736	-0.061498	-0.000282
Br168	Br	0.536736	0.438502	0.499718
Br169	Br	0.972461	-0.563229	-0.000277
Br170	Br	1.472461	-0.063229	0.499723
Br171	Br	0.969931	-0.734879	-0.000295
Br172	Br	1.469931	-0.234879	0.499705
H173	H	0.704781	-0.679571	-0.000184
H174	H	1.204781	-0.179571	0.499816
H175	H	0.942231	-0.266475	-0.000280
H176	H	1.442231	0.233525	0.499720
