data_functionalizedCrystal
_audit_creation_method	'MofGen! by Chris Wilmer'
_symmetry_space_group_name_H-M	'P1'
_symmetry_Int_Tables_number	1
_symmetry_cell_setting	triclinic
loop_
_symmetry_equiv_pos_as_xyz
  x,y,z
_cell_length_a	18.366186
_cell_length_b	19.288862
_cell_length_c	19.288857
_cell_angle_alpha	96.865805
_cell_angle_beta	89.991598
_cell_angle_gamma	90.025700
loop_
_atom_site_label
_atom_site_type_symbol
_atom_site_fract_x
_atom_site_fract_y
_atom_site_fract_z
O1	O	-0.060834	-0.921351	0.086641
O2	O	0.439166	-0.421351	0.586641
O3	O	-0.060774	-0.719090	0.098332
O4	O	0.439226	-0.219090	0.598332
O5	O	-0.060797	-0.826068	-0.008644
O6	O	0.439203	-0.326068	0.491356
O7	O	-0.060811	-0.814374	0.193617
O8	O	0.439189	-0.314374	0.693617
O9	O	0.060302	-0.826050	-0.008650
O10	O	0.560302	-0.326050	0.491350
O11	O	0.060325	-0.719072	0.098326
O12	O	0.560325	-0.219072	0.598326
O13	O	0.060265	-0.921333	0.086636
O14	O	0.560265	-0.421333	0.586636
Zn15	Zn	0.079522	-0.820200	0.092480
Zn16	Zn	0.579522	-0.320200	0.592480
Zn17	Zn	-0.080031	-0.820224	0.092487
Zn18	Zn	0.419969	-0.320224	0.592487
O19	O	0.060288	-0.814356	0.193612
O20	O	0.560288	-0.314356	0.693612
C21	C	-0.000217	-0.693205	0.097953
C22	C	0.499783	-0.193205	0.597953
C23	C	-0.000194	-0.616101	0.096825
C24	C	0.499806	-0.116101	0.596825
N25	N	0.188414	-0.820189	0.092475
N26	N	0.688414	-0.320189	0.592475
N27	N	-0.188922	-0.820240	0.092487
N28	N	0.311078	-0.320240	0.592487
C29	C	-0.000247	-0.825684	-0.034523
C30	C	0.499753	-0.325684	0.465477
C31	C	-0.000244	-0.824557	-0.111627
C32	C	0.499756	-0.324557	0.388373
C33	C	0.226504	-0.867574	0.045129
C34	C	0.726504	-0.367574	0.545129
C35	C	0.302732	-0.867578	0.045126
C36	C	0.802732	-0.367578	0.545126
C37	C	0.340866	-0.820204	0.092481
C38	C	0.840866	-0.320204	0.592481
C39	C	0.302767	-0.772810	0.139830
C40	C	0.802767	-0.272810	0.639830
C41	C	0.226541	-0.772802	0.139827
C42	C	0.726541	-0.272802	0.639827
C43	C	0.461624	-0.810904	0.155769
C44	C	0.961624	-0.310904	0.655769
C45	C	0.537849	-0.810917	0.155773
C46	C	1.037849	-0.310917	0.655773
C47	C	0.575974	-0.820224	0.092490
C48	C	1.075974	-0.320224	0.592490
C49	C	0.537864	-0.829533	0.029200
C50	C	1.037864	-0.329533	0.529200
C51	C	0.461638	-0.829525	0.029197
C52	C	0.961638	-0.329525	0.529197
C53	C	0.423521	-0.820207	0.092489
C54	C	0.923521	-0.320207	0.592489
C55	C	0.696719	-0.867616	0.045137
C56	C	1.196719	-0.367616	0.545137
C57	C	0.772948	-0.867616	0.045133
C58	C	1.272948	-0.367616	0.545133
C59	C	0.772982	-0.772851	0.139843
C60	C	1.272982	-0.272851	0.639843
C61	C	0.696754	-0.772848	0.139841
C62	C	1.196754	-0.272848	0.639841
C63	C	0.658627	-0.820234	0.092488
C64	C	1.158627	-0.320234	0.592488
C65	C	-0.000207	-0.571403	0.159593
C66	C	0.499793	-0.071403	0.659593
C67	C	-0.000212	-0.498956	0.158533
C68	C	0.499788	0.001044	0.658533
C69	C	-0.000217	-0.471210	0.094701
C70	C	0.499783	0.028790	0.594701
C71	C	-0.000199	-0.515918	0.031924
C72	C	0.499801	-0.015918	0.531924
C73	C	-0.000187	-0.588363	0.032986
C74	C	0.499813	-0.088363	0.532986
C75	C	-0.042659	-0.362956	0.044524
C76	C	0.457341	0.137044	0.544524
C77	C	-0.042675	-0.290511	0.043465
C78	C	0.457325	0.209489	0.543465
C79	C	-0.000249	-0.247764	0.091423
C80	C	0.499751	0.252236	0.591423
C81	C	0.042183	-0.277469	0.140452
C82	C	0.542183	0.222531	0.640452
C83	C	0.042195	-0.349915	0.141514
C84	C	0.542195	0.150085	0.641514
C85	C	-0.000229	-0.392656	0.093543
C86	C	0.499771	0.107344	0.593543
C87	C	-0.000266	-0.124510	0.153047
C88	C	0.499734	0.375490	0.653047
C89	C	-0.000266	-0.052062	0.151984
C90	C	0.499734	0.447938	0.651984
C91	C	-0.000261	-0.069026	0.025373
C92	C	0.499739	0.430974	0.525373
C93	C	-0.000254	-0.141472	0.026438
C94	C	0.499746	0.358528	0.526438
C95	C	-0.000260	-0.169210	0.090276
C96	C	0.499740	0.330790	0.590276
C97	C	-0.000281	0.052781	0.087017
C98	C	0.499719	0.552781	0.587017
C99	C	-0.000270	-0.024321	0.088151
C100	C	0.499730	0.475679	0.588151
C101	C	-0.066255	-0.824041	-0.147835
C102	C	0.433745	-0.324041	0.352165
C103	C	-0.066260	-0.822972	-0.220281
C104	C	0.433740	-0.322972	0.279719
C105	C	-0.000251	-0.822433	-0.256518
C106	C	0.499749	-0.322433	0.243482
C107	C	0.065769	-0.822945	-0.220301
C108	C	0.565769	-0.322945	0.279699
C109	C	0.065773	-0.824007	-0.147856
C110	C	0.565773	-0.324007	0.352144
C111	C	0.050305	-0.861427	-0.376752
C112	C	0.550305	-0.361427	0.123248
C113	C	0.050299	-0.860370	-0.449197
C114	C	0.550299	-0.360370	0.050803
C115	C	-0.000258	-0.819156	-0.479964
C116	C	0.499742	-0.319156	0.020036
C117	C	-0.050821	-0.779008	-0.438279
C118	C	0.449179	-0.279008	0.061721
C119	C	-0.050818	-0.780069	-0.365833
C120	C	0.449182	-0.280069	0.134167
C121	C	-0.000247	-0.821282	-0.335073
C122	C	0.499753	-0.321282	0.164927
C123	C	-0.066279	-0.817480	-0.594726
C124	C	0.433721	-0.317480	-0.094726
C125	C	-0.066282	-0.816407	-0.667173
C126	C	0.433718	-0.316407	-0.167173
C127	C	0.065750	-0.816387	-0.667193
C128	C	0.565750	-0.316387	-0.167193
C129	C	0.065751	-0.817453	-0.594746
C130	C	0.565751	-0.317453	-0.094746
C131	C	-0.000266	-0.818003	-0.558518
C132	C	0.499734	-0.318003	-0.058518
C133	C	-0.000264	-0.814740	0.219491
C134	C	0.499736	-0.314740	0.719491
C135	C	-0.000271	-0.815867	0.296595
C136	C	0.499729	-0.315867	0.796595
H137	H	0.333751	-0.906166	0.006570
H138	H	0.833751	-0.406166	0.506570
H139	H	0.333820	-0.734236	0.178386
H140	H	0.833820	-0.234236	0.678386
C141	C	0.814848	-0.919744	-0.006949
C142	C	1.314848	-0.419744	0.493051
H143	H	0.781221	-0.947966	-0.035144
H144	H	1.281221	-0.447966	0.464856
H145	H	0.844604	-0.894860	-0.035804
H146	H	1.344604	-0.394860	0.464196
H147	H	0.844562	-0.948577	0.017974
H148	H	1.344562	-0.448577	0.517974
C149	C	0.419690	-0.800661	0.225383
C150	C	0.919690	-0.300661	0.725383
H151	H	0.368835	-0.801982	0.216318
H152	H	0.868835	-0.301982	0.716318
H153	H	0.432154	-0.836897	0.252511
H154	H	0.932154	-0.336897	0.752511
H155	H	0.432205	-0.756772	0.250261
H156	H	0.932205	-0.256772	0.750261
C157	C	-0.138893	-0.818076	-0.554871
C158	C	0.361107	-0.318076	-0.054871
H159	H	-0.178209	-0.817605	-0.586812
H160	H	0.321791	-0.317605	-0.086812
H161	H	-0.141649	-0.858988	-0.532036
H162	H	0.358351	-0.358988	-0.032036
H163	H	-0.141622	-0.777990	-0.521182
H164	H	0.358378	-0.277990	-0.021182
H165	H	0.076730	-0.242666	0.179504
H166	H	0.576730	0.257334	0.679504
H167	H	0.195527	-0.734215	0.178383
H168	H	0.695527	-0.234215	0.678383
H169	H	-0.000214	-0.593982	0.211576
H170	H	0.499786	-0.093982	0.711576
H171	H	0.119497	-0.815943	-0.696696
H172	H	0.619497	-0.315943	-0.196696
C173	C	-0.000264	-0.155029	0.223263
C174	C	0.499736	0.344971	0.723263
H175	H	-0.000266	-0.204577	0.214906
H176	H	0.499734	0.295423	0.714906
H177	H	0.041963	-0.139650	0.249097
H178	H	0.541963	0.360350	0.749097
H179	H	-0.042502	-0.139693	0.249100
H180	H	0.457498	0.360307	0.749100
H181	H	-0.000177	-0.624757	-0.018129
H182	H	0.499823	-0.124757	0.481871
H183	H	-0.000221	-0.462556	0.209648
H184	H	0.499779	0.037444	0.709648
C185	C	0.088872	-0.382590	0.195435
C186	C	0.588872	0.117410	0.695435
H187	H	0.114144	-0.346761	0.223844
H188	H	0.614144	0.153239	0.723844
H189	H	0.058291	-0.407113	0.223896
H190	H	0.558291	0.092887	0.723896
H191	H	0.122994	-0.414047	0.171825
H192	H	0.622994	0.085953	0.671825
C193	C	0.419718	-0.839754	-0.040414
C194	C	0.919718	-0.339754	0.459586
H195	H	0.453334	-0.845394	-0.078104
H196	H	0.953334	-0.345394	0.421896
H197	H	0.389876	-0.880140	-0.041882
H198	H	0.889876	-0.380140	0.458118
H199	H	0.390089	-0.800026	-0.044205
H200	H	0.890089	-0.300026	0.455795
H201	H	0.119515	-0.822505	-0.249810
H202	H	0.619515	-0.322505	0.250190
H203	H	-0.000273	-0.015669	0.203100
H204	H	0.499727	0.484331	0.703100
C205	C	0.654776	-0.919731	-0.006955
C206	C	1.154776	-0.419731	0.493045
H207	H	0.688382	-0.947946	-0.035161
H208	H	1.188382	-0.447946	0.464839
H209	H	0.625019	-0.948562	0.017956
H210	H	1.125019	-0.448562	0.517956
H211	H	0.625061	-0.894830	-0.035807
H212	H	1.125061	-0.394830	0.464193
C213	C	0.654849	-0.720738	0.191933
C214	C	1.154849	-0.220738	0.691933
H215	H	0.603991	-0.727517	0.185148
H216	H	1.103991	-0.227517	0.685148
H217	H	0.667332	-0.728139	0.238269
H218	H	1.167332	-0.228139	0.738269
H219	H	0.667366	-0.674404	0.184510
H220	H	1.167366	-0.174404	0.684510
H221	H	-0.120011	-0.824486	-0.118342
H222	H	0.379989	-0.324486	0.381658
C223	C	0.138362	-0.818026	-0.554913
C224	C	0.638362	-0.318026	-0.054913
H225	H	0.128910	-0.818729	-0.506577
H226	H	0.628910	-0.318729	-0.006577
H227	H	0.165477	-0.858342	-0.572214
H228	H	0.665477	-0.358342	-0.072214
H229	H	0.165493	-0.777344	-0.561366
H230	H	0.665493	-0.277344	-0.061366
C231	C	0.105932	-0.904508	-0.495045
C232	C	0.605932	-0.404508	0.004955
H233	H	0.098690	-0.897974	-0.542597
H234	H	0.598690	-0.397974	-0.042597
H235	H	0.153850	-0.890348	-0.481252
H236	H	0.653850	-0.390348	0.018748
H237	H	0.099574	-0.952432	-0.489576
H238	H	0.599574	-0.452432	0.010424
H239	H	-0.000213	-0.493323	-0.020048
H240	H	0.499787	0.006677	0.479952
H241	H	-0.000310	-0.046436	-0.026600
H242	H	0.499690	0.453564	0.473400
C243	C	-0.000250	-0.190642	-0.042608
C244	C	0.499750	0.309358	0.457392
H245	H	-0.000260	-0.163744	-0.080777
H246	H	0.499740	0.336256	0.419223
H247	H	0.041983	-0.219234	-0.044830
H248	H	0.541983	0.280766	0.455170
H249	H	-0.042482	-0.219277	-0.044821
H250	H	0.457518	0.280723	0.455179
C251	C	-0.089350	-0.257838	-0.010458
C252	C	0.410650	0.242162	0.489542
H253	H	-0.083290	-0.208569	-0.004216
H254	H	0.416710	0.291431	0.495784
H255	H	-0.074429	-0.275855	-0.056241
H256	H	0.425571	0.224145	0.443759
H257	H	-0.139136	-0.268924	-0.004174
H258	H	0.360864	0.231076	0.495826
H259	H	-0.120038	-0.815983	-0.696652
H260	H	0.379962	-0.315983	-0.196652
H261	H	0.091481	-0.894988	-0.351708
H262	H	0.591481	-0.394988	0.148292
H263	H	-0.077211	-0.397755	0.005470
H264	H	0.422789	0.102245	0.505470
H265	H	0.119529	-0.824424	-0.118376
H266	H	0.619529	-0.324424	0.381624
C267	C	0.579766	-0.800678	0.225385
C268	C	1.079766	-0.300678	0.725385
H269	H	0.630623	-0.802024	0.216325
H270	H	1.130623	-0.302024	0.716325
H271	H	0.567295	-0.756790	0.250262
H272	H	1.067295	-0.256790	0.750262
H273	H	0.567245	-0.836915	0.252513
H274	H	1.067245	-0.336915	0.752513
H275	H	0.568904	-0.837112	-0.022331
H276	H	1.068904	-0.337112	0.477669
C277	C	0.184568	-0.919689	-0.006963
C278	C	0.684568	-0.419689	0.493037
H279	H	0.218176	-0.947907	-0.035166
H280	H	0.718176	-0.447907	0.464834
H281	H	0.154807	-0.948518	0.017945
H282	H	0.654807	-0.448518	0.517945
H283	H	0.154857	-0.894788	-0.035819
H284	H	0.654857	-0.394788	0.464181
C285	C	-0.138875	-0.822432	-0.260122
C286	C	0.361125	-0.322432	0.239878
H287	H	-0.178191	-0.822922	-0.228171
H288	H	0.321809	-0.322922	0.271829
H289	H	-0.141629	-0.781531	-0.282970
H290	H	0.358371	-0.281531	0.217030
H291	H	-0.141609	-0.862529	-0.293798
H292	H	0.358391	-0.362529	0.206202
C293	C	-0.106428	-0.735909	-0.319979
C294	C	0.393572	-0.235909	0.180021
H295	H	-0.099186	-0.742450	-0.272428
H296	H	0.400814	-0.242450	0.227572
H297	H	-0.100052	-0.687992	-0.325454
H298	H	0.399948	-0.187992	0.174546
H299	H	-0.154358	-0.750051	-0.333758
H300	H	0.345642	-0.250051	0.166242
H301	H	0.804031	-0.734275	0.178397
H302	H	1.304031	-0.234275	0.678397
C303	C	-0.106436	-0.733668	-0.472112
C304	C	0.393564	-0.233668	0.027888
H305	H	-0.099193	-0.738777	-0.521227
H306	H	0.400807	-0.238777	-0.021227
H307	H	-0.154363	-0.748153	-0.462150
H308	H	0.345637	-0.248153	0.037850
H309	H	-0.100051	-0.686098	-0.453840
H310	H	0.399949	-0.186098	0.046160
