data_functionalizedCrystal
_audit_creation_method	'MofGen! by Chris Wilmer'
_symmetry_space_group_name_H-M	'P1'
_symmetry_Int_Tables_number	1
_symmetry_cell_setting	triclinic
loop_
_symmetry_equiv_pos_as_xyz
  x,y,z
_cell_length_a	9.065218
_cell_length_b	10.654550
_cell_length_c	9.130313
_cell_angle_alpha	89.996220
_cell_angle_beta	89.999789
_cell_angle_gamma	95.249606
loop_
_atom_site_label
_atom_site_type_symbol
_atom_site_fract_x
_atom_site_fract_y
_atom_site_fract_z
O1	O	-0.207228	1.668655	-0.121915
O2	O	-0.226972	1.303255	-0.121891
O3	O	-0.002416	1.493507	-0.121899
O4	O	-0.431784	1.478402	-0.121907
O5	O	-0.002422	1.493505	0.121700
O6	O	-0.226978	1.303252	0.121708
O7	O	-0.207234	1.668653	0.121684
Cu8	Cu	-0.217107	1.485952	0.143939
Cu9	Cu	-0.217100	1.485955	-0.144145
O10	O	-0.431790	1.478400	0.121692
C11	C	-0.225525	1.256450	-0.000088
C12	C	-0.221188	1.116989	-0.000079
C13	C	-0.353403	1.038027	-0.000103
C14	C	-0.349319	0.906990	-0.000128
C15	C	-0.080793	0.933890	-0.000112
C16	C	-0.084879	1.064925	-0.000076
C17	C	-0.508434	1.022496	-0.000118
C18	C	-0.504350	0.891459	-0.000144
C19	C	-0.486766	1.479852	-0.000108
C20	C	-0.650585	1.484193	-0.000112
C21	C	0.052559	1.492055	-0.000102
C22	C	0.216378	1.487714	-0.000107
C23	C	-0.208681	1.715457	-0.000122
C24	C	-0.213018	1.854918	-0.000140
N25	N	-0.217111	1.485959	0.346561
N26	N	-0.217084	1.485957	-0.346768
C27	C	-0.117712	1.570225	0.423210
C28	C	-0.117694	1.570222	0.576546
C29	C	-0.316488	1.401682	0.576573
C30	C	-0.316497	1.401681	0.423239
C31	C	-0.002944	1.667534	0.423195
C32	C	-0.002926	1.667531	0.576532
H33	H	-0.397423	1.333054	0.360833
H34	H	-0.557796	1.058348	-0.105291
H35	H	-0.562761	0.849958	-0.102098
H36	H	-0.551205	0.845972	0.105024
O37	O	0.066216	0.877725	-0.000107
H38	H	0.157468	0.954651	-0.000072
H39	H	-0.397404	1.333064	0.639021
H40	H	0.110463	1.645642	0.381579
H41	H	-0.038879	1.758860	0.375630
O42	O	0.057729	1.150087	-0.000028
H43	H	0.031993	1.249952	0.000013
H44	H	0.104243	1.636593	0.624083
O45	O	-0.036422	1.795492	0.631671
H46	H	-0.052850	1.858138	0.537061
H47	H	-0.569069	1.052066	0.101832
