data_functionalizedCrystal
_audit_creation_method	'MofGen! by Chris Wilmer'
_symmetry_space_group_name_H-M	'P1'
_symmetry_Int_Tables_number	1
_symmetry_cell_setting	triclinic
loop_
_symmetry_equiv_pos_as_xyz
  x,y,z
_cell_length_a	18.101398
_cell_length_b	18.101397
_cell_length_c	12.827885
_cell_angle_alpha	89.963418
_cell_angle_beta	89.972755
_cell_angle_gamma	90.018196
loop_
_atom_site_label
_atom_site_type_symbol
_atom_site_fract_x
_atom_site_fract_y
_atom_site_fract_z
Zn1	Zn	1.132194	-0.294838	-0.591016
Zn2	Zn	1.132107	-0.418698	-0.416256
Zn3	Zn	1.008347	-0.294870	-0.416266
Zn4	Zn	1.008326	-0.418638	-0.590932
O5	O	1.070244	-0.356761	-0.503618
O6	O	1.235815	-0.311281	-0.567865
O7	O	1.115663	-0.402310	-0.270021
O8	O	1.024821	-0.191233	-0.439487
O9	O	1.235752	-0.402280	-0.439469
O10	O	1.115810	-0.191210	-0.567875
O11	O	1.024737	-0.311334	-0.270029
O12	O	0.904712	-0.311276	-0.439405
O13	O	1.024785	-0.402177	-0.737179
O14	O	0.904696	-0.402208	-0.567731
O15	O	1.115790	-0.311223	-0.737241
O16	O	1.115642	-0.522323	-0.439387
O17	O	1.024701	-0.522279	-0.567721
C18	C	0.877833	-0.356739	-0.503561
C19	C	0.795519	-0.356748	-0.503561
C20	C	0.644811	-0.356763	-0.503608
C21	C	0.613442	-0.299469	-0.423003
C22	C	0.527824	-0.299253	-0.423268
C23	C	0.496428	-0.356778	-0.503653
C24	C	0.527567	-0.335937	-0.613911
C25	C	0.613212	-0.335513	-0.613419
C26	C	0.613221	-0.435045	-0.474928
C27	C	0.527569	-0.434633	-0.472525
C28	C	0.412569	-0.356787	-0.503685
C29	C	0.728670	-0.356751	-0.503584
C30	C	1.070180	-0.549172	-0.503567
C31	C	1.070221	-0.631486	-0.503580
C32	C	1.070315	-0.930576	-0.503676
C33	C	1.127374	-0.899248	-0.422715
C34	C	1.127571	-0.813630	-0.422925
C35	C	1.070269	-0.782194	-0.503627
C36	C	1.091428	-0.813194	-0.613782
C37	C	1.091869	-0.898839	-0.613341
C38	C	0.991946	-0.899084	-0.475435
C39	C	0.992333	-0.813435	-0.472977
C40	C	1.070241	-0.698335	-0.503607
C41	C	1.070345	-1.014436	-0.503703
C42	C	1.263406	-0.356783	-0.503675
C43	C	1.345720	-0.356793	-0.503700
C44	C	1.070295	-0.356690	-0.776188
C45	C	1.070316	-0.356660	-0.892341
C46	C	1.070327	-0.163599	-0.503691
C47	C	1.070363	-0.081285	-0.503723
C48	C	1.025338	-0.311633	-0.944130
C49	C	1.025359	-0.311601	-1.064180
C50	C	1.070235	-0.356778	-0.232108
C51	C	1.070357	-0.356600	-0.115955
H52	H	0.507351	-0.241251	-0.442310
N53	N	1.118660	-0.404977	-0.948207
N54	N	1.187003	-0.400076	-0.936125
H55	H	1.221149	-0.434200	-0.975580
H56	H	0.986811	-0.273111	-0.899591
H57	H	0.972697	-0.920750	-0.396503
N58	N	1.040883	-0.787646	-0.691484
N59	N	0.988577	-0.746206	-0.666482
H60	H	0.952877	-0.728161	-0.721357
H61	H	0.506766	-0.312256	-0.341527
H62	H	1.149154	-0.918758	-0.637261
N63	N	0.639227	-0.315590	-0.320125
N64	N	0.681027	-0.369491	-0.305007
H65	H	0.699242	-0.380879	-0.232346
H66	H	1.114295	-0.919897	-0.340793
N67	N	0.977060	-0.263236	-1.120058
N68	N	0.977150	-0.263274	-1.217500
H69	H	0.943038	-0.229114	-1.256967
N70	N	1.118669	-0.404975	-1.060116
N71	N	1.160971	-0.447283	-1.108741
H72	H	1.195091	-0.481450	-1.069299
N73	N	0.640247	-0.458926	-0.375743
N74	N	0.620979	-0.520183	-0.339821
H75	H	0.640066	-0.537043	-0.269767
N76	N	0.640467	-0.227116	-0.446587
N77	N	0.682729	-0.217565	-0.522501
H78	H	0.701818	-0.166467	-0.539160
N79	N	0.502049	-0.386677	-0.691349
N80	N	0.464719	-0.363851	-0.766722
H81	H	0.446694	-0.399686	-0.821413
N82	N	0.638289	-0.263740	-0.643839
N83	N	0.592538	-0.214311	-0.665282
H84	H	0.610245	-0.163619	-0.686767
N85	N	0.972326	-0.788029	-0.371278
N86	N	1.015265	-0.747064	-0.321500
H87	H	1.001138	-0.729118	-0.249673
H88	H	0.633968	-0.375446	-0.675555
N89	N	1.110960	-0.787347	-0.320460
N90	N	1.099140	-0.832258	-0.248292
H91	H	1.087411	-0.813699	-0.175920
H92	H	0.507213	-0.450353	-0.391380
N93	N	0.500677	-0.264965	-0.644872
N94	N	0.432754	-0.254207	-0.653616
H95	H	0.413762	-0.204082	-0.675479
N96	N	0.500754	-0.491018	-0.540767
N97	N	0.458068	-0.474667	-0.613785
H98	H	0.439130	-0.514488	-0.661990
H99	H	0.633504	-0.477728	-0.533636
H100	H	1.052131	-0.919559	-0.675742
N101	N	1.199798	-0.926185	-0.445892
N102	N	1.209574	-0.968354	-0.521777
H103	H	1.260723	-0.987380	-0.538149
N104	N	0.936119	-0.786604	-0.541515
N105	N	0.883414	-0.749790	-0.505977
H106	H	0.843714	-0.730841	-0.554390
N107	N	1.200399	-0.787864	-0.446364
N108	N	1.251238	-0.833136	-0.462626
H109	H	1.302677	-0.814940	-0.479183
H110	H	1.148071	-0.791687	-0.638106
H111	H	0.949433	-0.919344	-0.534402
