data_functionalizedCrystal
_audit_creation_method	'MofGen! by Chris Wilmer'
_symmetry_space_group_name_H-M	'P1'
_symmetry_Int_Tables_number	1
_symmetry_cell_setting	triclinic
loop_
_symmetry_equiv_pos_as_xyz
  x,y,z
_cell_length_a	14.044220
_cell_length_b	19.188930
_cell_length_c	13.101039
_cell_angle_alpha	93.345801
_cell_angle_beta	86.340132
_cell_angle_gamma	88.166830
loop_
_atom_site_label
_atom_site_type_symbol
_atom_site_fract_x
_atom_site_fract_y
_atom_site_fract_z
O1	O	1.262233	0.164759	-0.085127
O2	O	1.762233	0.664759	0.414873
O3	O	0.986290	0.158685	-0.085152
O4	O	1.486290	0.658685	0.414848
O5	O	1.132223	0.060581	-0.085119
O6	O	1.632223	0.560581	0.414881
O7	O	1.116300	0.262863	-0.085160
O8	O	1.616300	0.762863	0.414840
O9	O	1.121753	0.067633	0.085309
O10	O	1.621753	0.567633	0.585309
O11	O	0.975820	0.165737	0.085275
O12	O	1.475820	0.665737	0.585275
O13	O	1.251762	0.171810	0.085300
O14	O	1.751762	0.671810	0.585300
Zn15	Zn	1.112128	0.169893	0.112347
Zn16	Zn	1.612128	0.669893	0.612347
Zn17	Zn	1.125924	0.160602	-0.112199
Zn18	Zn	1.625924	0.660602	0.387801
O19	O	1.105829	0.269914	0.085267
O20	O	1.605829	0.769914	0.585267
C21	C	0.945752	0.159553	0.000059
C22	C	1.445752	0.659553	0.500059
C23	C	0.840559	0.151623	0.000050
C24	C	1.340559	0.651623	0.500050
C25	C	0.647957	0.137129	0.000073
C26	C	1.147957	0.637129	0.500073
C27	C	0.590091	0.193363	0.000066
C28	C	1.090091	0.693363	0.500066
C29	C	0.482920	0.185298	0.000079
C30	C	0.982920	0.685298	0.500079
C31	C	0.755137	0.145193	0.000060
C32	C	1.255137	0.645193	0.500060
C33	C	1.126472	0.038063	0.000098
C34	C	1.626472	0.538063	0.500098
C35	C	1.124923	-0.039541	0.000106
C36	C	1.624923	0.460459	0.500106
C37	C	1.210553	-0.078939	0.000119
C38	C	1.710553	0.421061	0.500119
C39	C	1.209099	-0.151857	0.000103
C40	C	1.709099	0.348143	0.500103
C41	C	1.122010	-0.185374	0.000094
C42	C	1.622010	0.314626	0.500094
C43	C	1.036370	-0.145968	0.000075
C44	C	1.536370	0.354032	0.500075
C45	C	1.037827	-0.073051	0.000082
C46	C	1.537827	0.426949	0.500082
N47	N	1.051878	-0.295275	0.058088
N48	N	1.551878	0.204725	0.558088
N49	N	1.050500	-0.364543	0.058084
N50	N	1.550500	0.135457	0.558084
C51	C	1.117617	-0.405067	0.000073
C52	C	1.617617	0.094933	0.500073
N53	N	1.186177	-0.373707	-0.057921
N54	N	1.686177	0.126293	0.442079
N55	N	1.187558	-0.304433	-0.057913
N56	N	1.687558	0.195567	0.442087
C57	C	1.120421	-0.264440	0.000086
C58	C	1.620421	0.235560	0.500086
C59	C	1.201676	-0.523532	0.000066
C60	C	1.701676	-0.023532	0.500066
C61	C	1.200219	-0.596452	0.000043
C62	C	1.700219	-0.096452	0.500043
C63	C	1.027487	-0.590560	0.000026
C64	C	1.527487	-0.090560	0.500026
C65	C	1.028947	-0.517642	0.000039
C66	C	1.528947	-0.017642	0.500039
C67	C	1.116043	-0.484132	0.000064
C68	C	1.616043	0.015868	0.500064
C69	C	1.292301	0.170943	0.000087
C70	C	1.792301	0.670943	0.500087
C71	C	1.397494	0.178872	0.000089
C72	C	1.897494	0.678872	0.500089
C73	C	1.111580	0.292433	0.000048
C74	C	1.611580	0.792433	0.500048
C75	C	1.113129	0.370037	0.000033
C76	C	1.613129	0.870037	0.500033
N77	N	1.102720	0.176234	0.265593
N78	N	1.602720	0.676234	0.765593
N79	N	1.135340	0.154257	-0.265445
N80	N	1.635340	0.654257	0.234555
C81	C	1.089920	0.184867	0.474633
C82	C	1.589920	0.684867	0.974633
C83	C	1.148137	0.145626	0.525522
C84	C	1.648137	0.645626	1.025522
C85	C	1.141014	0.150429	0.641839
C86	C	1.641014	0.650429	1.141839
C87	C	1.097041	0.180064	0.358306
C88	C	1.597041	0.680064	0.858306
H89	H	1.278831	-0.183941	0.000109
H90	H	1.778831	0.316059	0.500109
H91	H	1.281474	-0.051660	0.000136
H92	H	1.781474	0.448340	0.500136
O93	O	0.610891	0.072520	0.000039
O94	O	1.110891	0.572520	0.500039
C95	C	0.510585	0.078751	0.000072
C96	C	1.010585	0.578751	0.500072
H97	H	0.489248	0.130471	-0.032195
H98	H	0.989248	0.630471	0.467805
H99	H	0.478061	0.077067	0.081837
H100	H	0.978061	0.577067	0.581837
C101	C	0.499981	-0.045556	-0.027127
C102	C	0.999981	0.454444	0.472873
C103	C	0.473775	0.017965	-0.066766
C104	C	0.973775	0.517965	0.433234
H105	H	0.477273	-0.083053	-0.068351
H106	H	0.977273	0.416947	0.431649
H107	H	0.567559	-0.049755	-0.027145
H108	H	1.067559	0.450245	0.472855
H109	H	0.472876	-0.046949	0.041010
H110	H	0.972876	0.453051	0.541010
H111	H	0.500891	0.019361	-0.134896
H112	H	1.000891	0.519361	0.365104
H113	H	0.406201	0.022163	-0.066760
H114	H	0.906201	0.522163	0.433240
H115	H	0.965462	-0.173262	0.000066
H116	H	1.465462	0.326738	0.500066
H117	H	0.621038	0.247564	0.000050
H118	H	1.121038	0.747564	0.500050
O119	O	0.942821	-0.623026	0.000153
O120	O	1.442821	-0.123026	0.500153
C121	C	0.885222	-0.599792	0.088427
C122	C	1.385222	-0.099792	0.588427
H123	H	0.909026	-0.546474	0.117866
H124	H	1.409026	-0.046474	0.617866
H125	H	0.892576	-0.638691	0.150230
H126	H	1.392576	-0.138691	0.650230
C127	C	0.750976	-0.659377	0.025446
C128	C	1.250976	-0.159377	0.525446
C129	C	0.780207	-0.593888	0.061597
C130	C	1.280207	-0.093888	0.561597
H131	H	0.686198	-0.655738	0.008898
H132	H	1.186198	-0.155738	0.508898
H133	H	0.789782	-0.675033	-0.034025
H134	H	1.289782	-0.175033	0.465975
H135	H	0.757113	-0.691786	0.076954
H136	H	1.257113	-0.191786	0.576954
H137	H	0.774082	-0.561483	0.010085
H138	H	1.274082	-0.061483	0.510085
H139	H	0.741397	-0.578227	0.121059
H140	H	1.241397	-0.078227	0.621059
O141	O	0.954552	-0.034880	0.000120
O142	O	1.454552	0.465120	0.500120
C143	C	0.877371	-0.080096	0.000077
C144	C	1.377371	0.419904	0.500077
H145	H	0.899666	-0.131607	0.032337
H146	H	1.399666	0.368393	0.532337
H147	H	0.855687	-0.090314	-0.081690
H148	H	1.355687	0.409686	0.418310
C149	C	0.764856	0.017168	0.027285
C150	C	1.264856	0.517168	0.527285
C151	C	0.792237	-0.046098	0.066915
C152	C	1.292237	0.453902	0.566915
H153	H	0.712339	0.038139	0.068510
H154	H	1.212339	0.538139	0.568510
H155	H	0.816854	0.047631	0.027311
H156	H	1.316854	0.547631	0.527311
H157	H	0.746792	0.008644	-0.040854
H158	H	1.246792	0.508644	0.459146
H159	H	0.810312	-0.037572	0.135048
H160	H	1.310312	0.462428	0.635048
H161	H	0.740240	-0.076559	0.066903
H162	H	1.240240	0.423441	0.566903
O163	O	1.286364	-0.491089	0.000026
O164	O	1.786364	0.008911	0.500026
C165	C	1.361633	-0.541502	0.000045
C166	C	1.861633	-0.041502	0.500045
H167	H	1.337255	-0.593947	-0.032225
H168	H	1.837255	-0.093947	0.467775
H169	H	1.383019	-0.546791	0.081806
H170	H	1.883019	-0.046791	0.581806
C171	C	1.477836	-0.454169	-0.027156
C172	C	1.977836	0.045831	0.472844
C173	C	1.447897	-0.518582	-0.066798
C174	C	1.947897	-0.018582	0.433202
H175	H	1.531050	-0.440030	-0.068383
H176	H	2.031050	0.059970	0.431617
H177	H	1.427126	-0.420204	-0.027164
H178	H	1.927126	0.079796	0.472836
H179	H	1.495651	-0.458585	0.040978
H180	H	1.995651	0.041415	0.540978
H181	H	1.430072	-0.514163	-0.134925
H182	H	1.930072	-0.014163	0.365075
H183	H	1.498606	-0.552546	-0.066803
H184	H	1.998606	-0.052546	0.433197
O185	O	1.283392	-0.634761	-0.000130
O186	O	1.783392	-0.134761	0.499870
C187	C	1.293137	-0.680764	-0.088391
C188	C	1.793137	-0.180764	0.411609
H189	H	1.248360	-0.659661	-0.150088
H190	H	1.748360	-0.159661	0.349912
H191	H	1.267607	-0.734414	-0.068451
H192	H	1.767607	-0.234414	0.431549
C193	C	1.453750	-0.712966	-0.052620
C194	C	1.953750	-0.212966	0.447380
C195	C	1.398761	-0.687044	-0.128400
C196	C	1.898761	-0.187044	0.371600
H197	H	1.518904	-0.716843	-0.077298
H198	H	2.018904	-0.216843	0.422702
H199	H	1.447184	-0.681975	0.006845
H200	H	1.947184	-0.181975	0.506845
H201	H	1.432464	-0.757671	-0.036010
H202	H	1.932464	-0.257671	0.463990
H203	H	1.420039	-0.642336	-0.144999
H204	H	1.920039	-0.142336	0.355001
H205	H	1.405333	-0.718027	-0.187869
H206	H	1.905333	-0.218027	0.312131
H207	H	0.959218	-0.485564	0.000034
H208	H	1.459218	0.014436	0.500034
O209	O	1.213783	0.101164	0.473132
O210	O	1.713783	0.601164	0.973132
C211	C	1.206232	0.106091	0.366975
C212	C	1.706232	0.606091	0.866975
H213	H	1.171824	0.158886	0.352371
H214	H	1.671824	0.658886	0.852371
H215	H	1.160341	0.062531	0.336707
H216	H	1.660341	0.562531	0.836707
C217	C	1.348717	0.034152	0.329569
C218	C	1.848717	0.534152	0.829569
C219	C	1.306463	0.098999	0.311631
C220	C	1.806463	0.598999	0.811631
H221	H	1.410543	0.029775	0.295428
H222	H	1.910543	0.529775	0.795428
H223	H	1.353803	0.030831	0.401088
H224	H	1.853803	0.530831	0.901088
H225	H	1.310465	-0.002140	0.304345
H226	H	1.810465	0.497860	0.804345
H227	H	1.344709	0.135289	0.336866
H228	H	1.844709	0.635289	0.836866
H229	H	1.301386	0.102326	0.240114
H230	H	1.801386	0.602326	0.740114
H231	H	1.034735	0.222068	0.518417
H232	H	1.534735	0.722068	1.018417
