data_functionalizedCrystal
_audit_creation_method	'MofGen! by Chris Wilmer'
_symmetry_space_group_name_H-M	'P1'
_symmetry_Int_Tables_number	1
_symmetry_cell_setting	triclinic
loop_
_symmetry_equiv_pos_as_xyz
  x,y,z
_cell_length_a	19.288813
_cell_length_b	19.288867
_cell_length_c	17.766277
_cell_angle_alpha	89.992126
_cell_angle_beta	90.016276
_cell_angle_gamma	96.873716
loop_
_atom_site_label
_atom_site_type_symbol
_atom_site_fract_x
_atom_site_fract_y
_atom_site_fract_z
O1	O	-0.086658	0.921336	-0.062584
O2	O	-0.098345	0.719074	-0.062594
O3	O	0.008631	0.826068	-0.062565
O4	O	-0.193634	0.814342	-0.062613
O5	O	0.008637	0.826049	0.062624
O6	O	-0.098340	0.719055	0.062595
O7	O	-0.086652	0.921318	0.062604
Cu8	Cu	-0.092495	0.820185	0.074030
Cu9	Cu	-0.092502	0.820207	-0.074020
O10	O	-0.193629	0.814323	0.062576
C11	C	-0.097966	0.693188	-0.000000
C12	C	-0.096836	0.616085	-0.000003
C13	C	-0.088703	0.060531	-0.068232
C14	C	-0.089760	0.132978	-0.068235
C15	C	-0.090289	0.169197	0.000005
C16	C	-0.089743	0.132964	0.068253
C17	C	-0.088679	0.060519	0.068254
C18	C	-0.132655	0.278508	0.052275
C19	C	-0.133724	0.350952	0.052271
C20	C	-0.093568	0.392642	0.000004
C21	C	-0.052353	0.361879	-0.052272
C22	C	-0.051289	0.289434	-0.052271
C23	C	-0.091443	0.247751	0.000011
C24	C	-0.095256	0.507422	-0.068243
C25	C	-0.096309	0.579871	-0.068243
C26	C	-0.096298	0.579855	0.068247
C27	C	-0.095239	0.507408	0.068245
C28	C	-0.094721	0.471195	-0.000002
C29	C	-0.219508	0.814704	-0.000025
C30	C	-0.296614	0.815819	-0.000043
C31	C	-0.332805	0.816350	0.068201
C32	C	-0.405251	0.817417	0.068214
C33	C	-0.441502	0.817966	-0.000021
C34	C	-0.405302	0.817431	-0.068274
C35	C	-0.332858	0.816358	-0.068285
C36	C	-0.550832	0.860360	-0.052281
C37	C	-0.623274	0.861438	-0.052268
C38	C	-0.664944	0.821275	0.000010
C39	C	-0.634161	0.780043	0.052287
C40	C	-0.561717	0.778969	0.052276
C41	C	-0.520055	0.819130	-0.000017
C42	C	-0.779690	0.822961	0.068273
C43	C	-0.852138	0.824024	0.068283
C44	C	-0.852186	0.824045	-0.068207
C45	C	-0.779740	0.822976	-0.068215
C46	C	-0.743496	0.822437	0.000027
C47	C	0.034511	0.825687	0.000034
C48	C	0.111617	0.824572	0.000047
C49	C	-0.087031	0.947203	0.000009
C50	C	-0.088161	1.024307	0.000007
N51	N	-0.092490	0.820174	0.178161
N52	N	-0.092501	0.820223	-0.178150
C53	C	-0.045144	0.867566	0.217560
C54	C	-0.045141	0.867570	0.296362
C55	C	-0.092496	0.820189	0.335761
C56	C	-0.139846	0.772788	0.296352
C57	C	-0.139843	0.772780	0.217552
C58	C	-0.155785	0.810878	0.460584
C59	C	-0.155789	0.810891	0.539383
C60	C	-0.092504	0.820207	0.578808
C61	C	-0.029213	0.829527	0.539424
C62	C	-0.029211	0.829519	0.460624
C63	C	-0.092504	0.820191	0.421207
C64	C	-0.045151	0.867606	0.703653
C65	C	-0.045147	0.867606	0.782456
C66	C	-0.139857	0.772826	0.782445
C67	C	-0.139855	0.772824	0.703643
C68	C	-0.092503	0.820218	0.664252
H69	H	-0.167301	0.375991	0.094822
H70	H	-0.090206	0.162478	-0.123805
H71	H	-0.516910	0.893062	-0.094860
H72	H	-0.536657	0.745397	0.094841
F73	F	-0.443776	0.817987	0.140851
H74	H	-0.881702	0.824485	-0.123765
H75	H	-0.750272	0.822548	-0.123787
H76	H	-0.668087	0.747340	0.094858
F77	F	-0.090303	0.171511	0.140878
F78	F	-0.088103	0.021965	0.140887
H79	H	-0.006588	0.906196	0.814536
F80	F	0.038144	0.839447	0.581376
F81	F	0.005254	0.918004	0.175639
H82	H	-0.750179	0.822517	0.123840
F83	F	-0.223148	0.800977	0.581291
H84	H	-0.017729	0.264390	-0.094834
F85	F	-0.294236	0.815772	0.140830
F86	F	-0.890657	0.824578	0.140922
H87	H	-0.648330	0.895015	-0.094831
H88	H	-0.178402	0.734208	0.328435
H89	H	-0.178412	0.734245	0.814523
H90	H	-0.434822	0.817876	-0.123832
F91	F	0.038146	0.839432	0.418711
F92	F	0.005248	0.918044	0.661729
H93	H	-0.303392	0.815924	-0.123860
F94	F	0.005254	0.918014	0.338301
H95	H	-0.178412	0.734235	0.671562
H96	H	-0.207322	0.803279	0.428491
H97	H	-0.178398	0.734187	0.185472
F98	F	-0.009615	0.406242	-0.107906
F99	F	-0.094701	0.468880	-0.140876
H100	H	-0.096745	0.609365	-0.123814
F101	F	-0.096852	0.618397	0.140874
F102	F	-0.094671	0.468852	0.140875
F103	F	-0.088148	0.021996	-0.140867
H104	H	-0.165352	0.244570	0.094846
