data_functionalizedCrystal
_audit_creation_method	'MofGen! by Chris Wilmer'
_symmetry_space_group_name_H-M	'P1'
_symmetry_Int_Tables_number	1
_symmetry_cell_setting	triclinic
loop_
_symmetry_equiv_pos_as_xyz
  x,y,z
_cell_length_a	10.489741
_cell_length_b	9.065218
_cell_length_c	9.565339
_cell_angle_alpha	89.997921
_cell_angle_beta	90.000900
_cell_angle_gamma	84.777530
loop_
_atom_site_label
_atom_site_type_symbol
_atom_site_fract_x
_atom_site_fract_y
_atom_site_fract_z
O1	O	-1.694805	-0.208157	-0.116167
O2	O	-1.323680	-0.227697	-0.116188
O3	O	-1.516913	-0.003247	-0.116175
O4	O	-1.501571	-0.432606	-0.116181
O5	O	-1.516898	-0.003261	0.116345
O6	O	-1.323664	-0.227711	0.116332
O7	O	-1.694789	-0.208171	0.116353
Zn8	Zn	-1.509224	-0.217943	0.153260
Zn9	Zn	-1.509245	-0.217925	-0.153095
O10	O	-1.501556	-0.432620	0.116339
C11	C	-1.515431	0.051725	0.000083
C12	C	-1.511022	0.215547	0.000076
C13	C	-1.276135	-0.226228	0.000069
C14	C	-1.134489	-0.221813	0.000061
C15	C	-1.742334	-0.209640	0.000092
C16	C	-1.883979	-0.214055	0.000091
C17	C	-1.065834	-0.079002	0.000076
C18	C	-0.973958	-0.146457	-0.114567
C19	C	-0.973977	-0.146505	0.114680
C20	C	-1.044479	-0.289327	-0.114677
C21	C	-1.044508	-0.289355	0.114673
C22	C	-0.952660	-0.356914	0.000002
C23	C	-1.503038	-0.487593	0.000078
C24	C	-1.507447	-0.651414	0.000076
N25	N	-1.509220	-0.217955	0.362339
N26	N	-1.509259	-0.217901	-0.362175
C27	C	-1.419828	-0.321720	0.453536
C28	C	-1.535433	-0.351575	0.546721
C29	C	-1.393665	-0.188112	0.546709
C30	C	-1.624883	-0.247876	0.453473
C31	C	-1.483039	-0.084355	0.453453
C32	C	-1.598727	-0.114154	0.546596
H33	H	-1.115099	0.038397	-0.000066
H34	H	-1.295926	-0.162894	0.587668
H35	H	-0.942732	-0.086025	-0.211489
C36	C	-0.931826	-0.064848	0.245619
N37	N	-0.900083	-0.003334	0.344237
C38	C	-1.086749	-0.370922	0.245618
N39	N	-1.118570	-0.432347	0.344256
H40	H	-1.674423	-0.026375	0.587200
H41	H	-1.344303	-0.409553	0.412676
H42	H	-1.075532	-0.349700	-0.211708
C43	C	-1.565376	-0.504174	0.602082
N44	N	-1.587919	-0.619115	0.643779
C45	C	-0.886452	-0.515677	-0.000086
N46	N	-0.836580	-0.635256	-0.000160
H47	H	-1.722645	-0.273230	0.412690
H48	H	-1.460833	0.028569	0.412453
