data_functionalizedCrystal
_audit_creation_method	'MofGen! by Chris Wilmer'
_symmetry_space_group_name_H-M	'P1'
_symmetry_Int_Tables_number	1
_symmetry_cell_setting	triclinic
loop_
_symmetry_equiv_pos_as_xyz
  x,y,z
_cell_length_a	19.288864
_cell_length_b	9.016244
_cell_length_c	19.288865
_cell_angle_alpha	89.988012
_cell_angle_beta	96.863755
_cell_angle_gamma	90.016237
loop_
_atom_site_label
_atom_site_type_symbol
_atom_site_fract_x
_atom_site_fract_y
_atom_site_fract_z
O1	O	0.921346	0.123833	-0.086650
O2	O	1.421346	0.623833	0.413350
O3	O	0.719085	0.123734	-0.098339
O4	O	1.219085	0.623734	0.401661
O5	O	0.826060	0.123757	0.008636
O6	O	1.326060	0.623757	0.508636
O7	O	0.814371	0.123810	-0.193625
O8	O	1.314371	0.623810	0.306375
O9	O	0.826056	-0.122924	0.008644
O10	O	1.326056	0.377076	0.508644
O11	O	0.719081	-0.122947	-0.098331
O12	O	1.219081	0.377053	0.401669
O13	O	0.921341	-0.122848	-0.086642
O14	O	1.421341	0.377152	0.413358
Cu15	Cu	0.820211	-0.145421	-0.092486
Cu16	Cu	1.320211	0.354579	0.407514
Cu17	Cu	0.820216	0.146307	-0.092495
Cu18	Cu	1.320216	0.646307	0.407505
O19	O	0.814367	-0.122871	-0.193617
O20	O	1.314367	0.377129	0.306383
C21	C	0.693207	0.000380	-0.097959
C22	C	1.193207	0.500380	0.402041
C23	C	0.616103	0.000341	-0.096830
C24	C	1.116103	0.500341	0.403170
N25	N	0.820212	-0.350608	-0.092479
N26	N	1.320212	0.149392	0.407521
C27	C	0.571407	0.000381	-0.159598
C28	C	1.071407	0.500381	0.340402
C29	C	0.498960	0.000397	-0.158537
C30	C	0.998960	0.500397	0.341463
C31	C	0.471212	0.000403	-0.094705
C32	C	0.971212	0.500403	0.405295
C33	C	0.515918	0.000355	-0.031929
C34	C	1.015918	0.500355	0.468071
C35	C	0.588364	0.000324	-0.032991
C36	C	1.088364	0.500324	0.467009
C37	C	0.362952	0.086863	-0.044528
C38	C	0.862952	0.586863	0.455472
C39	C	0.290507	0.086903	-0.043469
C40	C	0.790507	0.586903	0.456531
C41	C	0.247767	0.000492	-0.091425
C42	C	0.747767	0.500492	0.408575
C43	C	0.277478	-0.085940	-0.140453
C44	C	0.777478	0.414060	0.359547
C45	C	0.349923	-0.085971	-0.141516
C46	C	0.849923	0.414029	0.358484
C47	C	0.392658	0.000436	-0.093546
C48	C	0.892658	0.500436	0.406454
C49	C	0.124514	0.000547	-0.153047
C50	C	0.624514	0.500547	0.346953
C51	C	0.052066	0.000554	-0.151984
C52	C	0.552066	0.500554	0.348016
C53	C	0.069026	0.000527	-0.025374
C54	C	0.569026	0.500527	0.474626
C55	C	0.141473	0.000505	-0.026439
C56	C	0.641473	0.500505	0.473561
C57	C	0.169212	0.000522	-0.090278
C58	C	0.669212	0.500522	0.409722
C59	C	0.877645	-0.585582	-0.035447
C60	C	1.377645	-0.085582	0.464553
C61	C	0.877495	-0.413691	-0.035234
C62	C	1.377495	0.086309	0.464766
C63	C	0.747795	-0.413074	-0.076876
C64	C	1.247795	0.086926	0.423124
C65	C	0.748137	-0.585019	-0.076477
C66	C	1.248137	-0.085019	0.423523
C67	C	0.834558	-0.585083	-0.165318
C68	C	1.334558	-0.085083	0.334682
C69	C	0.836202	-0.413126	-0.164821
C70	C	1.336202	0.086874	0.335179
C71	C	0.947220	0.000509	-0.087022
C72	C	1.447220	0.500509	0.412978
C73	C	1.024324	0.000558	-0.088151
C74	C	1.524324	0.500558	0.411849
C75	C	0.825682	0.000412	0.034516
C76	C	1.325682	0.500412	0.534516
C77	C	0.824553	0.000398	0.111620
C78	C	1.324553	0.500398	0.611620
N79	N	0.820220	0.351493	-0.092497
N80	N	1.320220	0.851493	0.407503
C81	C	0.814745	0.000477	-0.219497
C82	C	1.314745	0.500477	0.280503
C83	C	0.815874	0.000501	-0.296601
C84	C	1.315874	0.500501	0.203399
C85	C	0.887321	0.000422	0.156316
C86	C	1.387321	0.500422	0.656316
C87	C	0.886260	0.000445	0.228763
C88	C	1.386260	0.500445	0.728763
C89	C	0.822428	0.000414	0.256511
C90	C	1.322428	0.500414	0.756511
C91	C	0.759652	0.000399	0.211805
C92	C	1.259652	0.500399	0.711805
C93	C	0.760714	0.000391	0.139359
C94	C	1.260714	0.500391	0.639359
C95	C	0.772247	-0.086017	0.364801
C96	C	1.272247	0.413983	0.864801
C97	C	0.771187	-0.086018	0.437245
C98	C	1.271187	0.413982	0.937245
C99	C	0.819148	0.000446	0.479956
C100	C	1.319148	0.500446	0.979956
C101	C	0.868181	0.086892	0.450216
C102	C	1.368181	0.586892	0.950216
C103	C	0.869243	0.086884	0.377770
C104	C	1.369243	0.586884	0.877770
C105	C	0.821269	0.000424	0.335065
C106	C	1.321269	0.500424	0.835065
C107	C	0.880770	0.000496	0.603209
C108	C	1.380770	0.500496	1.103209
C109	C	0.879707	0.000528	0.675657
C110	C	1.379707	0.500528	1.175657
C111	C	0.753097	0.000468	0.658697
C112	C	1.253097	0.500468	1.158697
C113	C	0.754162	0.000451	0.586250
C114	C	1.254162	0.500451	1.086250
C115	C	0.818000	0.000458	0.558511
C116	C	1.318000	0.500458	1.058511
H117	H	0.593987	0.000398	-0.211580
H118	H	1.093987	0.500398	0.288420
Br119	Br	0.649027	0.000267	0.052201
Br120	Br	1.149027	0.500267	0.552201
H121	H	0.266322	0.157287	-0.003550
H122	H	0.766322	0.657287	0.496450
H123	H	0.374111	-0.156352	-0.181434
H124	H	0.874111	0.343648	0.318566
Br125	Br	0.964900	0.000576	0.736319
Br126	Br	1.464900	0.500576	1.236319
H127	H	0.734805	-0.370047	-0.024379
H128	H	1.234805	0.129953	0.475621
Br129	Br	0.674866	-0.344983	-0.144299
Br130	Br	1.174866	0.155017	0.355701
Br131	Br	0.933277	0.204244	0.508171
Br132	Br	1.433277	0.704244	1.008171
Br133	Br	0.770977	-0.341551	-0.238866
Br134	Br	1.270977	0.158449	0.261134
H135	H	0.046435	0.000624	0.026600
H136	H	0.546435	0.500624	0.526600
H137	H	0.886224	-0.628406	-0.180372
H138	H	1.386224	-0.128406	0.319628
H139	H	0.015674	0.000578	-0.203099
H140	H	0.515674	0.500578	0.296901
H141	H	0.931666	-0.626891	-0.044553
H142	H	1.431666	-0.126891	0.455447
H143	H	0.177866	0.000481	0.024674
H144	H	0.677866	0.500481	0.524674
H145	H	0.731258	-0.156399	0.461454
H146	H	1.231258	0.343601	0.961454
H147	H	0.889474	-0.372296	-0.176665
H148	H	1.389474	0.127704	0.323335
Br149	Br	0.219481	-0.203216	-0.205544
Br150	Br	0.719481	0.296784	0.294456
Br151	Br	0.420950	0.204142	0.020563
Br152	Br	0.920950	0.704142	0.520563
Br153	Br	0.967406	0.000491	0.565558
Br154	Br	1.467406	0.500491	1.065558
Br155	Br	0.764757	-0.652915	-0.236075
Br156	Br	1.264757	-0.152915	0.263925
Br157	Br	0.478263	0.000348	0.054702
Br158	Br	0.978263	0.500348	0.554702
H159	H	0.868357	-0.372592	0.018814
H160	H	1.368357	0.127408	0.518814
H161	H	0.462561	0.000425	-0.209652
H162	H	0.962561	0.500425	0.290348
Br163	Br	0.162165	0.000560	-0.239683
Br164	Br	0.662165	0.500560	0.260317
H165	H	0.931333	-0.371453	-0.044491
H166	H	1.431333	0.128547	0.455509
H167	H	0.909166	0.157274	0.353558
H168	H	1.409166	0.657274	0.853558
Br169	Br	0.673021	0.000377	0.249460
Br170	Br	1.173021	0.500377	0.749460
Br171	Br	0.973958	0.000473	0.118673
Br172	Br	1.473958	0.500473	0.618673
Br173	Br	0.707150	-0.203373	0.306843
Br174	Br	1.207150	0.296627	0.806843
H175	H	0.937375	0.000470	0.265162
H176	H	1.437375	0.500470	0.765162
Br177	Br	0.862644	-0.657650	0.054126
Br178	Br	1.362644	-0.157650	0.554126
H179	H	0.701123	0.000451	0.681288
H180	H	1.201123	0.500451	1.181288
H181	H	0.735466	-0.625161	-0.023376
H182	H	1.235466	-0.125161	0.476624
Br183	Br	0.674796	-0.654414	-0.143116
Br184	Br	1.174796	-0.154414	0.356884
Br185	Br	0.668972	0.000417	0.525587
Br186	Br	1.168972	0.500417	1.025587
H187	H	0.709599	0.000371	0.102967
H188	H	1.209599	0.500371	0.602967
