data_functionalizedCrystal
_audit_creation_method	'MofGen! by Chris Wilmer'
_symmetry_space_group_name_H-M	'P1'
_symmetry_Int_Tables_number	1
_symmetry_cell_setting	triclinic
loop_
_symmetry_equiv_pos_as_xyz
  x,y,z
_cell_length_a	17.038272
_cell_length_b	17.019294
_cell_length_c	12.503572
_cell_angle_alpha	89.649141
_cell_angle_beta	86.232200
_cell_angle_gamma	87.244363
loop_
_atom_site_label
_atom_site_type_symbol
_atom_site_fract_x
_atom_site_fract_y
_atom_site_fract_z
O1	O	1.042504	0.166299	-0.104564
O2	O	1.542504	0.666299	0.395436
O3	O	0.814865	0.163590	-0.104345
O4	O	1.314865	0.663590	0.395655
O5	O	0.934502	0.051040	-0.093914
O6	O	1.434502	0.551040	0.406086
O7	O	0.922867	0.278848	-0.114996
O8	O	1.422867	0.778848	0.385004
O9	O	0.925504	0.059520	0.083942
O10	O	1.425504	0.559520	0.583942
O11	O	0.805867	0.172069	0.073511
O12	O	1.305867	0.672069	0.573511
O13	O	1.033507	0.174778	0.073292
O14	O	1.533507	0.674778	0.573292
Cu15	Cu	0.918865	0.174198	0.089641
Cu16	Cu	1.418865	0.674198	0.589641
Cu17	Cu	0.929506	0.164170	-0.120695
Cu18	Cu	1.429506	0.664170	0.379305
O19	O	0.913870	0.287327	0.062860
O20	O	1.413870	0.787327	0.562860
C21	C	0.781228	0.165366	-0.015194
C22	C	1.281228	0.665366	0.484806
C23	C	0.694408	0.158018	-0.014526
C24	C	1.194408	0.658018	0.485474
C25	C	0.644551	0.225480	-0.020768
C26	C	1.144551	0.725480	0.479232
C27	C	0.562974	0.218572	-0.020114
C28	C	1.062974	0.718572	0.479886
C29	C	0.531255	0.144200	-0.013225
C30	C	1.031255	0.644200	0.486775
C31	C	0.581118	0.076733	-0.006979
C32	C	1.081118	0.576733	0.493021
C33	C	0.662693	0.083642	-0.007626
C34	C	1.162693	0.583642	0.492374
C35	C	0.285402	0.119792	-0.010938
C36	C	0.785402	0.619792	0.489062
C37	C	0.203820	0.112887	-0.010295
C38	C	0.703820	0.612887	0.489705
C39	C	0.185682	0.254727	-0.023428
C40	C	0.685682	0.754727	0.476572
C41	C	0.267260	0.261630	-0.024080
C42	C	0.767260	0.761630	0.475920
C43	C	0.317116	0.194162	-0.017829
C44	C	0.817116	0.694162	0.482171
C45	C	0.447870	0.137137	-0.012560
C46	C	0.947870	0.637137	0.487440
C47	C	0.400499	0.201227	-0.018486
C48	C	0.900499	0.701227	0.481514
C49	C	0.929384	0.025988	-0.002278
C50	C	1.429384	0.525988	0.497722
C51	C	0.927532	-0.061295	0.005792
C52	C	1.427532	0.438705	0.505792
C53	C	0.931568	-0.106918	-0.087365
C54	C	1.431568	0.393082	0.412635
C55	C	0.929822	-0.188928	-0.079779
C56	C	1.429822	0.311072	0.420221
C57	C	0.924046	-0.225315	0.020965
C58	C	1.424046	0.274685	0.520965
C59	C	0.920007	-0.179686	0.114129
C60	C	1.420007	0.320314	0.614129
C61	C	0.921748	-0.097676	0.106542
C62	C	1.421748	0.402324	0.606542
C63	C	0.918541	-0.472699	0.048722
C64	C	1.418541	0.027301	0.548722
C65	C	0.916804	-0.554715	0.056302
C66	C	1.416804	-0.054715	0.556302
C67	C	0.926617	-0.563952	-0.137608
C68	C	1.426617	-0.063952	0.362392
C69	C	0.928362	-0.481941	-0.145185
C70	C	1.428362	0.018059	0.354815
C71	C	0.924319	-0.436318	-0.052021
C72	C	1.424319	0.063682	0.447979
C73	C	0.922264	-0.309143	0.028721
C74	C	1.422264	0.190857	0.528721
C75	C	0.926095	-0.352491	-0.059778
C76	C	1.426095	0.147509	0.440222
C77	C	1.067143	0.173002	-0.015863
C78	C	1.567143	0.673002	0.484137
C79	C	1.153964	0.180350	-0.016537
C80	C	1.653964	0.680350	0.483463
C81	C	0.918987	0.312380	-0.028779
C82	C	1.418987	0.812380	0.471221
C83	C	0.920840	0.399662	-0.036855
C84	C	1.420840	0.899662	0.463145
N85	N	0.911387	0.181251	0.237579
N86	N	1.411387	0.681251	0.737579
N87	N	0.936990	0.157111	-0.268633
N88	N	1.436990	0.657111	0.231367
C89	C	0.900386	0.191633	0.455732
C90	C	1.400386	0.691633	0.955732
C91	C	0.947988	0.146732	0.513221
C92	C	1.447988	0.646732	1.013221
C93	C	0.941867	0.152508	0.634609
C94	C	1.441867	0.652508	1.134609
C95	C	0.906506	0.185857	0.334333
C96	C	1.406506	0.685857	0.834333
H97	H	0.426328	0.261780	-0.024089
H98	H	0.926328	0.761780	0.475911
Cl99	Cl	0.830375	0.257680	0.520490
Cl100	Cl	1.330375	0.757680	1.020490
H101	H	0.915265	-0.435564	0.124584
H102	H	1.415265	0.064436	0.624584
H103	H	0.670370	0.286042	-0.026379
H104	H	1.170370	0.786042	0.473621
H105	H	0.177998	0.052322	-0.004686
H106	H	0.677998	0.552322	0.495314
Cl107	Cl	0.914999	-0.354893	0.155367
Cl108	Cl	1.414999	0.145107	0.655367
H109	H	0.993339	0.103953	0.471273
H110	H	1.493339	0.603953	0.971273
Cl111	Cl	0.541242	-0.016763	0.001688
Cl112	Cl	1.041242	0.483237	0.501688
Cl113	Cl	0.407987	0.043644	-0.003905
Cl114	Cl	0.907987	0.543644	0.496095
Cl115	Cl	0.500300	0.303386	-0.027969
Cl116	Cl	1.000300	0.803386	0.472031
Cl117	Cl	0.307129	0.355129	-0.032748
Cl118	Cl	0.807129	0.855129	0.467252
Cl119	Cl	0.909547	-0.600457	0.182962
Cl120	Cl	1.409547	-0.100457	0.682962
H121	H	0.145081	0.309655	-0.028516
H122	H	0.645081	0.809655	0.471484
Cl123	Cl	0.348067	0.034974	-0.003079
Cl124	Cl	0.848067	0.534974	0.496921
H125	H	0.703287	0.028707	-0.002543
H126	H	1.203287	0.528707	0.497457
H127	H	0.933112	-0.226072	-0.155638
H128	H	1.433112	0.273928	0.344362
Cl129	Cl	0.938835	-0.061183	-0.214022
Cl130	Cl	1.438835	0.438817	0.285978
H131	H	0.933066	-0.452321	-0.227222
H132	H	1.433066	0.047679	0.272778
Cl133	Cl	0.931697	-0.621310	-0.254721
Cl134	Cl	1.431697	-0.121310	0.245279
Cl135	Cl	0.912736	-0.225428	0.240780
Cl136	Cl	1.412736	0.274572	0.740780
H137	H	0.918450	-0.060530	0.182401
H138	H	1.418450	0.439470	0.682401
H139	H	0.930793	-0.322862	-0.141804
H140	H	1.430793	0.177138	0.358196
