data_functionalizedCrystal
_audit_creation_method	'MofGen! by Chris Wilmer'
_symmetry_space_group_name_H-M	'P1'
_symmetry_Int_Tables_number	1
_symmetry_cell_setting	triclinic
loop_
_symmetry_equiv_pos_as_xyz
  x,y,z
_cell_length_a	17.638686
_cell_length_b	17.637651
_cell_length_c	19.805399
_cell_angle_alpha	78.757390
_cell_angle_beta	78.788639
_cell_angle_gamma	87.823829
loop_
_atom_site_label
_atom_site_type_symbol
_atom_site_fract_x
_atom_site_fract_y
_atom_site_fract_z
Zn1	Zn	1.099824	-0.537552	-0.479607
Zn2	Zn	1.599824	-0.037552	0.020393
Zn3	Zn	1.074078	-0.664553	-0.339965
Zn4	Zn	1.574078	-0.164553	0.160035
Zn5	Zn	0.972835	-0.511852	-0.348944
Zn6	Zn	1.472835	-0.011852	0.151056
Zn7	Zn	0.947156	-0.638802	-0.435644
Zn8	Zn	1.447156	-0.138802	0.064356
O9	O	1.023473	-0.588190	-0.401040
O10	O	1.523473	-0.088190	0.098960
O11	O	1.202672	-0.575932	-0.475725
O12	O	1.702672	-0.075932	0.024275
O13	O	1.060620	-0.644318	-0.246431
O14	O	1.560620	-0.144318	0.253569
O15	O	1.011202	-0.408982	-0.388433
O16	O	1.511202	0.091018	0.111567
O17	O	1.183756	-0.669239	-0.373130
O18	O	1.683756	-0.169239	0.126870
O19	O	1.104500	-0.427864	-0.484431
O20	O	1.604500	0.072136	0.015569
O21	O	0.986237	-0.532129	-0.253027
O22	O	1.486237	-0.032129	0.246973
O23	O	0.863165	-0.507160	-0.345803
O24	O	1.363165	-0.007160	0.154197
O25	O	0.967436	-0.625350	-0.536201
O26	O	1.467436	-0.125350	-0.036201
O27	O	0.844299	-0.600430	-0.409501
O28	O	1.344299	-0.100430	0.090499
O29	O	1.079600	-0.550962	-0.568501
O30	O	1.579600	-0.050962	-0.068501
O31	O	1.035720	-0.767416	-0.330501
O32	O	1.535720	-0.267416	0.169499
O33	O	0.942471	-0.748497	-0.400795
O34	O	1.442471	-0.248497	0.099205
C35	C	0.826179	-0.548212	-0.373856
C36	C	1.326179	-0.048212	0.126144
C37	C	0.741773	-0.531128	-0.362239
C38	C	1.241773	-0.031128	0.137761
C39	C	0.415084	-0.718144	-0.489429
C40	C	0.915084	-0.218144	0.010571
C41	C	0.335772	-0.702084	-0.478498
C42	C	0.835772	-0.202084	0.021502
C43	C	0.355415	-0.604811	-0.412334
C44	C	0.855415	-0.104811	0.087666
C45	C	0.434729	-0.620866	-0.423257
C46	C	0.934729	-0.120866	0.076743
C47	C	0.464558	-0.677532	-0.461806
C48	C	0.964558	-0.177532	0.038194
C49	C	0.484203	-0.580254	-0.395634
C50	C	0.984203	-0.080254	0.104366
C51	C	0.563511	-0.596305	-0.406560
C52	C	1.063511	-0.096305	0.093440
C53	C	0.593346	-0.652967	-0.445109
C54	C	1.093346	-0.152967	0.054891
C55	C	0.543866	-0.693583	-0.472732
C56	C	1.043866	-0.193583	0.027268
C57	C	0.454374	-0.523584	-0.357090
C58	C	0.954374	-0.023584	0.142910
C59	C	0.503847	-0.482972	-0.329467
C60	C	1.003847	0.017028	0.170533
C61	C	0.583156	-0.499026	-0.340388
C62	C	1.083156	0.000974	0.159612
C63	C	0.612991	-0.555689	-0.378937
C64	C	1.112991	-0.055689	0.121063
C65	C	0.632636	-0.458411	-0.312765
C66	C	1.132636	0.041589	0.187235
C67	C	0.711944	-0.474461	-0.323690
C68	C	1.211944	0.025539	0.176310
C69	C	0.692299	-0.571739	-0.389862
C70	C	1.192299	-0.071739	0.110138
C71	C	0.983536	-0.785518	-0.359921
C72	C	1.483536	-0.285518	0.140079
C73	C	0.966520	-0.869950	-0.342362
C74	C	1.466520	-0.369950	0.157638
C75	C	1.153235	-1.196455	-0.534713
C76	C	1.653235	-0.696455	-0.034713
C77	C	1.137222	-1.275787	-0.518199
C78	C	1.637222	-0.775787	-0.018199
C79	C	1.040135	-1.256246	-0.418162
C80	C	1.540135	-0.756246	0.081838
C81	C	1.056143	-1.176911	-0.434666
C82	C	1.556143	-0.676911	0.065334
C83	C	1.112693	-1.147022	-0.492943
C84	C	1.612693	-0.647022	0.007057
C85	C	1.015601	-1.127478	-0.392895
C86	C	1.515601	-0.627478	0.107105
C87	C	1.031604	-1.048150	-0.409400
C88	C	1.531604	-0.548150	0.090600
C89	C	1.088151	-1.018255	-0.467675
C90	C	1.588151	-0.518255	0.032325
C91	C	1.128697	-1.067694	-0.509448
C92	C	1.628697	-0.567694	-0.009448
C93	C	0.959047	-1.157368	-0.334621
C94	C	1.459047	-0.657368	0.165379
C95	C	0.918504	-1.107935	-0.292850
C96	C	1.418504	-0.607935	0.207150
C97	C	0.934512	-1.028606	-0.309352
C98	C	1.434512	-0.528606	0.190648
C99	C	0.991058	-0.998711	-0.367628
C100	C	1.491058	-0.498711	0.132372
C101	C	0.893965	-0.979167	-0.267580
C102	C	1.393965	-0.479167	0.232420
C103	C	0.909969	-0.899839	-0.284085
C104	C	1.409969	-0.399839	0.215915
C105	C	1.007062	-0.919383	-0.384132
C106	C	1.507062	-0.419383	0.115868
C107	C	1.221537	-0.628324	-0.428330
C108	C	1.721537	-0.128324	0.071670
C109	C	1.305941	-0.645427	-0.439959
C110	C	1.805941	-0.145427	0.060041
C111	C	1.023526	-0.588151	-0.577598
C112	C	1.523526	-0.088151	-0.077598
C113	C	1.023548	-0.588134	-0.652837
C114	C	1.523548	-0.088134	-0.152837
C115	C	1.063588	-0.390095	-0.442337
C116	C	1.563588	0.109905	0.057663
C117	C	1.080682	-0.305679	-0.459936
C118	C	1.580682	0.194321	0.040064
C119	C	1.081954	-0.549398	-0.705002
C120	C	1.581954	-0.049398	-0.205002
C121	C	1.081966	-0.549378	-0.775696
C122	C	1.581966	-0.049378	-0.275696
C123	C	1.023575	-0.588098	-0.794224
C124	C	1.523575	-0.088098	-0.294224
C125	C	0.965163	-0.626835	-0.742053
C126	C	1.465163	-0.126835	-0.242053
C127	C	0.965148	-0.626851	-0.671361
C128	C	1.465148	-0.126851	-0.171361
C129	C	0.965220	-0.626773	-1.027147
C130	C	1.465220	-0.126773	-0.527147
C131	C	0.965241	-0.626757	-1.097846
C132	C	1.465241	-0.126757	-0.597846
C133	C	1.082038	-0.549300	-1.131482
C134	C	1.582038	-0.049300	-0.631482
C135	C	1.082023	-0.549316	-1.060790
C136	C	1.582023	-0.049316	-0.560790
C137	C	1.023610	-0.588049	-1.008626
C138	C	1.523610	-0.088049	-0.508626
C139	C	1.023596	-0.588069	-0.931972
C140	C	1.523596	-0.088069	-0.431972
C141	C	1.023590	-0.588083	-0.870876
C142	C	1.523590	-0.088083	-0.370876
C143	C	1.023476	-0.588183	-0.225186
C144	C	1.523476	-0.088183	0.274814
C145	C	1.023644	-0.588016	-0.150012
C146	C	1.523644	-0.088016	0.349988
H147	H	0.295493	-0.735156	-0.500998
H148	H	0.795493	-0.235156	-0.000998
C149	C	0.447899	-0.780482	-0.531833
C150	C	0.947899	-0.280482	-0.031833
N151	N	0.472616	-0.827431	-0.563773
N152	N	0.972616	-0.327431	-0.063773
C153	C	0.367131	-0.505934	-0.345067
C154	C	0.867131	-0.005934	0.154933
N155	N	0.301418	-0.492644	-0.336009
N156	N	0.801418	0.007356	0.163991
H157	H	0.872459	-1.132281	-0.245402
H158	H	1.372459	-0.632281	0.254598
C159	C	0.766368	-0.429789	-0.293301
C160	C	1.266368	0.070211	0.206699
N161	N	0.807360	-0.396139	-0.270411
N162	N	1.307360	0.103861	0.229589
C163	C	0.471027	-0.420641	-0.287064
C164	C	0.971027	0.079359	0.212936
N165	N	0.446307	-0.373693	-0.255124
N166	N	0.946307	0.126307	0.244876
H167	H	1.170230	-1.316032	-0.552227
H168	H	1.670230	-0.816032	-0.052227
C169	C	1.069269	-0.886501	-0.448241
C170	C	1.569269	-0.386501	0.051759
N171	N	1.116119	-0.861733	-0.496528
N172	N	1.616119	-0.361733	0.003472
H173	H	0.917688	-0.658288	-1.112926
H174	H	1.417688	-0.158288	-0.612926
H175	H	0.917582	-0.658384	-0.628888
H176	H	1.417582	-0.158384	-0.128888
H177	H	0.847917	-1.003513	-0.220134
H178	H	1.347917	-0.503513	0.279866
H179	H	0.608339	-0.412268	-0.281384
H180	H	1.108339	0.087732	0.218616
C181	C	1.146287	-0.506681	-1.188870
C182	C	1.646287	-0.006681	-0.688870
N183	N	1.194678	-0.474581	-1.232094
N184	N	1.694678	0.025419	-0.732094
C185	C	0.900962	-0.669378	-0.969776
C186	C	1.400962	-0.169378	-0.469776
N187	N	0.852558	-0.701469	-0.926560
N188	N	1.352558	-0.201469	-0.426560
C189	C	0.900926	-0.669419	-0.762437
C190	C	1.400926	-0.169419	-0.262437
N191	N	0.852541	-0.701494	-0.777789
N192	N	1.352541	-0.201494	-0.277789
C193	C	0.725114	-0.634077	-0.432266
C194	C	1.225114	-0.134077	0.067734
N195	N	0.749831	-0.681026	-0.464206
N196	N	1.249831	-0.181026	0.035794
C197	C	1.190905	-1.034813	-0.573557
C198	C	1.690905	-0.534813	-0.073557
N199	N	1.237754	-1.010045	-0.621844
N200	N	1.737754	-0.510045	-0.121844
H201	H	0.568152	-0.739730	-0.504118
H202	H	1.068152	-0.239730	-0.004118
H203	H	1.101180	-0.953661	-0.481112
H204	H	1.601180	-0.453661	0.018888
C205	C	0.977979	-1.289142	-0.354023
C206	C	1.477979	-0.789142	0.145977
N207	N	0.931181	-1.313923	-0.305698
N208	N	1.431181	-0.813923	0.194302
C209	C	1.146189	-0.506801	-0.684629
C210	C	1.646189	-0.006801	-0.184629
N211	N	1.194571	-0.474712	-0.669287
N212	N	1.694571	0.025288	-0.169287
C213	C	1.215443	-1.163574	-0.598822
C214	C	1.715443	-0.663574	-0.098822
N215	N	1.262293	-1.138806	-0.647109
N216	N	1.762293	-0.638806	-0.147109
H217	H	0.331118	-0.558671	-0.380950
H218	H	0.831118	-0.058671	0.119050
H219	H	0.946011	-1.221961	-0.321190
H220	H	1.446011	-0.721961	0.178810
C221	C	1.146218	-0.506767	-0.833075
C222	C	1.646218	-0.006767	-0.333075
N223	N	1.194616	-0.474670	-0.876293
N224	N	1.694616	0.025330	-0.376293
C225	C	0.865378	-0.845461	-0.238129
C226	C	1.365378	-0.345461	0.261871
N227	N	0.831791	-0.804503	-0.203514
N228	N	1.331791	-0.304503	0.296486
C229	C	1.146255	-0.506716	-1.040415
C230	C	1.646255	-0.006716	-0.540415
N231	N	1.194634	-0.474626	-1.025070
N232	N	1.694634	0.025374	-0.525070
H233	H	0.657925	-0.666030	-0.454008
H234	H	1.157925	-0.166030	0.045992
