data_functionalizedCrystal
_audit_creation_method	'MofGen! by Chris Wilmer'
_symmetry_space_group_name_H-M	'P1'
_symmetry_Int_Tables_number	1
_symmetry_cell_setting	triclinic
loop_
_symmetry_equiv_pos_as_xyz
  x,y,z
_cell_length_a	17.699083
_cell_length_b	15.021413
_cell_length_c	17.699083
_cell_angle_alpha	89.996989
_cell_angle_beta	96.716984
_cell_angle_gamma	90.001270
loop_
_atom_site_label
_atom_site_type_symbol
_atom_site_fract_x
_atom_site_fract_y
_atom_site_fract_z
O1	O	1.004080	0.073921	-0.095701
O2	O	1.337413	0.407254	0.237632
O3	O	1.670747	0.740588	0.570966
O4	O	0.783702	0.073952	-0.108154
O5	O	1.117035	0.407285	0.225180
O6	O	1.450368	0.740619	0.558513
O7	O	0.900117	0.073914	0.008262
O8	O	1.233450	0.407247	0.341595
O9	O	1.566784	0.740581	0.674929
O10	O	0.887665	0.073959	-0.212117
O11	O	1.220998	0.407292	0.121217
O12	O	1.554331	0.740626	0.454550
O13	O	0.900099	-0.074150	0.008245
O14	O	1.233432	0.259183	0.341579
O15	O	1.566765	0.592516	0.674912
O16	O	0.783683	-0.074112	-0.108170
O17	O	1.117016	0.259221	0.225163
O18	O	1.450350	0.592555	0.558496
O19	O	1.004062	-0.074143	-0.095718
O20	O	1.337395	0.259190	0.237616
O21	O	1.670728	0.592524	0.570949
Zn22	Zn	0.893869	-0.097636	-0.101947
Zn23	Zn	1.227203	0.235697	0.231387
Zn24	Zn	1.560536	0.569031	0.564720
Zn25	Zn	0.893894	0.097445	-0.101925
Zn26	Zn	1.227227	0.430778	0.231409
Zn27	Zn	1.560560	0.764112	0.564742
O28	O	0.887646	-0.074105	-0.212133
O29	O	1.220979	0.259228	0.121200
O30	O	1.554313	0.592562	0.454533
C31	C	0.755495	-0.000076	-0.107716
C32	C	1.088829	0.333257	0.225618
C33	C	1.422162	0.666590	0.558951
C34	C	0.671477	-0.000066	-0.106377
C35	C	1.004811	0.333268	0.226956
C36	C	1.338144	0.666601	0.560290
N37	N	0.893858	-0.230774	-0.101961
N38	N	1.227192	0.102560	0.231372
N39	N	1.560525	0.435893	0.564706
C40	C	0.622856	-0.000052	-0.174711
C41	C	0.956190	0.333281	0.158623
C42	C	1.289523	0.666615	0.491956
C43	C	0.543913	-0.000064	-0.173448
C44	C	0.877246	0.333270	0.159885
C45	C	1.210580	0.666603	0.493218
C46	C	0.513592	-0.000083	-0.103852
C47	C	0.846926	0.333251	0.229482
C48	C	1.180259	0.666584	0.562815
C49	C	0.562219	-0.000099	-0.035513
C50	C	0.895553	0.333234	0.297820
C51	C	1.228886	0.666567	0.631154
C52	C	0.641161	-0.000094	-0.036776
C53	C	0.974495	0.333240	0.296557
C54	C	1.307828	0.666573	0.629890
C55	C	0.243856	-0.000122	-0.030418
C56	C	0.577190	0.333211	0.302915
C57	C	0.910523	0.666544	0.636249
C58	C	0.164908	-0.000125	-0.029160
C59	C	0.498242	0.333208	0.304173
C60	C	0.831575	0.666542	0.637507
C61	C	0.146608	-0.000092	-0.167090
C62	C	0.479942	0.333241	0.166243
C63	C	0.813275	0.666575	0.499577
C64	C	0.225550	-0.000087	-0.168353
C65	C	0.558883	0.333247	0.164980
C66	C	0.892217	0.666580	0.498314
C67	C	0.274170	-0.000108	-0.100015
C68	C	0.607504	0.333226	0.233319
C69	C	0.940837	0.666559	0.566652
C70	C	0.359769	-0.000097	-0.101384
C71	C	0.693103	0.333237	0.231949
C72	C	1.026436	0.666570	0.565282
C73	C	0.427995	-0.000088	-0.102481
C74	C	0.761328	0.333246	0.230852
C75	C	1.094661	0.666579	0.564185
C76	C	0.840020	-0.470439	-0.155766
C77	C	1.173353	-0.137106	0.177567
C78	C	1.506686	0.196227	0.510900
C79	C	0.908383	-0.529780	-0.170330
C80	C	1.241716	-0.196447	0.163003
C81	C	1.575050	0.136887	0.496336
C82	C	0.893878	-0.412381	-0.101942
C83	C	1.227211	-0.079047	0.231391
C84	C	1.560544	0.254286	0.564725
C85	C	0.825533	-0.529782	-0.087395
C86	C	1.158866	-0.196448	0.245938
C87	C	1.492199	0.136885	0.579272
C88	C	0.893890	-0.587805	-0.101926
C89	C	1.227224	-0.254471	0.231408
C90	C	1.560557	0.078862	0.564741
C91	C	0.962276	-0.470415	-0.116540
C92	C	1.295609	-0.137081	0.216793
C93	C	1.628942	0.196252	0.550126
C94	C	0.879380	-0.470411	-0.033575
C95	C	1.212714	-0.137078	0.299758
C96	C	1.546047	0.196255	0.633092
C97	C	0.947793	-0.529725	-0.048110
C98	C	1.281127	-0.196392	0.285223
C99	C	1.614460	0.136942	0.618557
C100	C	0.893869	-0.311323	-0.101954
C101	C	1.227203	0.022010	0.231380
C102	C	1.560536	0.355343	0.564713
C103	C	0.893906	-0.688860	-0.101913
C104	C	1.227240	-0.355526	0.231420
C105	C	1.560573	-0.022193	0.564753
C106	C	1.032268	-0.000113	-0.096156
C107	C	1.365601	0.333221	0.237178
C108	C	1.698934	0.666554	0.570511
C109	C	1.116286	-0.000118	-0.097494
C110	C	1.449619	0.333216	0.235839
C111	C	1.782953	0.666549	0.569172
C112	C	0.899662	-0.000122	0.036451
C113	C	1.232995	0.333212	0.369784
C114	C	1.566328	0.666545	0.703117
C115	C	0.898323	-0.000133	0.120469
C116	C	1.231656	0.333201	0.453802
C117	C	1.564990	0.666534	0.787135
N118	N	0.893911	0.230583	-0.101904
N119	N	1.227244	0.563916	0.231429
N120	N	1.560578	0.897249	0.564762
C121	C	0.966656	-0.000149	0.169090
C122	C	1.299990	0.333184	0.502423
C123	C	1.633323	0.666518	0.835756
C124	C	0.965394	-0.000151	0.248033
C125	C	1.298727	0.333182	0.581366
C126	C	1.632061	0.666516	0.914700
C127	C	0.895798	-0.000143	0.278354
C128	C	1.229131	0.333191	0.611687
C129	C	1.562464	0.666524	0.945020
C130	C	0.827459	-0.000124	0.229727
C131	C	1.160792	0.333210	0.563060
C132	C	1.494126	0.666543	0.896393
C133	C	0.828722	-0.000115	0.150785
C134	C	1.162055	0.333218	0.484118
C135	C	1.495389	0.666551	0.817451
C136	C	0.822364	-0.000156	0.548090
C137	C	1.155697	0.333178	0.881423
C138	C	1.489030	0.666511	1.214756
C139	C	0.821106	-0.000167	0.627038
C140	C	1.154439	0.333167	0.960371
C141	C	1.487773	0.666500	1.293704
C142	C	0.959036	-0.000191	0.645338
C143	C	1.292369	0.333142	0.978671
C144	C	1.625702	0.666475	1.312004
C145	C	0.960299	-0.000183	0.566396
C146	C	1.293632	0.333150	0.899729
C147	C	1.626966	0.666484	1.233063
C148	C	0.891961	-0.000159	0.517776
C149	C	1.225294	0.333174	0.851109
C150	C	1.558627	0.666507	1.184442
C151	C	0.893330	-0.000156	0.432177
C152	C	1.226664	0.333178	0.765510
C153	C	1.559997	0.666511	1.098843
C154	C	0.894427	-0.000153	0.363951
C155	C	1.227761	0.333180	0.697285
C156	C	1.561094	0.666514	1.030618
C157	C	0.888102	-0.000099	0.759678
C158	C	1.221435	0.333234	1.093011
C159	C	1.554768	0.666568	1.426345
C160	C	0.889440	-0.000177	0.675660
C161	C	1.222773	0.333156	1.008993
C162	C	1.556107	0.666490	1.342327
H163	H	0.647537	-0.000036	-0.231384
H164	H	0.980870	0.333298	0.101949
H165	H	1.314204	0.666631	0.435283
Br166	Br	0.735980	-0.000086	0.084797
Br167	Br	1.069314	0.333248	0.418131
Br168	Br	1.402647	0.666581	0.751464
H169	H	0.920656	-0.555857	-0.228140
H170	H	1.253990	-0.222524	0.105194
H171	H	1.587323	0.110810	0.438527
H172	H	0.867085	-0.444313	0.024216
H173	H	1.200419	-0.110980	0.357549
H174	H	1.533752	0.222353	0.690882
Br175	Br	1.058642	-0.427140	-0.137147
Br176	Br	1.391976	-0.093807	0.196186
Br177	Br	1.725309	0.239526	0.529520
H178	H	0.767729	-0.555862	-0.075098
H179	H	1.101063	-0.222528	0.258235
H180	H	1.434396	0.110805	0.591568
Br181	Br	0.080619	-0.000065	-0.259837
Br182	Br	0.413953	0.333269	0.073496
Br183	Br	0.747286	0.666602	0.406830
Br184	Br	1.054754	-0.000194	0.525250
Br185	Br	1.388088	0.333140	0.858584
Br186	Br	1.721421	0.666473	1.191917
Br187	Br	0.726647	-0.000157	0.668186
Br188	Br	1.059980	0.333177	1.001520
Br189	Br	1.393314	0.666510	1.334853
Br190	Br	1.023794	-0.572846	0.027772
Br191	Br	1.357127	-0.239513	0.361106
Br192	Br	1.690461	0.093821	0.694439
H193	H	0.140225	-0.000142	0.027517
H194	H	0.473558	0.333192	0.360850
H195	H	0.806892	0.666525	0.694184
H196	H	0.283434	-0.000140	0.025228
H197	H	0.616767	0.333193	0.358561
H198	H	0.950101	0.666526	0.691894
Br199	Br	1.058137	-0.000173	0.314016
Br200	Br	1.391470	0.333160	0.647350
Br201	Br	1.724803	0.666494	0.980683
H202	H	1.023330	-0.000161	0.144409
H203	H	1.356663	0.333172	0.477742
H204	H	1.689997	0.666505	0.811076
H205	H	1.014680	-0.000206	0.684934
H206	H	1.348013	0.333127	1.018268
H207	H	1.681347	0.666460	1.351601
H208	H	0.504328	-0.000051	-0.229092
H209	H	0.837662	0.333282	0.104241
H210	H	1.170995	0.666615	0.437574
Br211	Br	0.729619	-0.000118	0.482115
Br212	Br	1.062952	0.333216	0.815448
Br213	Br	1.396285	0.666549	1.148781
H214	H	0.770792	-0.000111	0.254420
H215	H	1.104126	0.333222	0.587753
H216	H	1.437459	0.666555	0.921087
H217	H	0.537526	-0.000128	0.021154
H218	H	0.870859	0.333206	0.354487
H219	H	1.204193	0.666539	0.687820
Br220	Br	0.764182	-0.427048	-0.231688
Br221	Br	1.097516	-0.093714	0.101645
Br222	Br	1.430849	0.239619	0.434979
H223	H	0.250232	-0.000067	-0.225025
H224	H	0.583566	0.333266	0.108308
H225	H	0.916899	0.666600	0.441641
H226	H	0.680748	-0.000104	0.018868
H227	H	1.014082	0.333229	0.352201
H228	H	1.347415	0.666562	0.685535
