data_functionalizedCrystal
_audit_creation_method	'MofGen! by Chris Wilmer'
_symmetry_space_group_name_H-M	'P1'
_symmetry_Int_Tables_number	1
_symmetry_cell_setting	triclinic
loop_
_symmetry_equiv_pos_as_xyz
  x,y,z
_cell_length_a	17.038272
_cell_length_b	19.288865
_cell_length_c	17.766277
_cell_angle_alpha	90.011603
_cell_angle_beta	89.992725
_cell_angle_gamma	92.876098
loop_
_atom_site_label
_atom_site_type_symbol
_atom_site_fract_x
_atom_site_fract_y
_atom_site_fract_z
O1	O	1.036886	-0.150802	-0.062579
O2	O	1.536886	0.349198	0.437421
O3	O	0.809263	-0.148407	-0.062587
O4	O	1.309263	0.351593	0.437413
O5	O	0.929651	-0.048881	-0.062568
O6	O	1.429651	0.451119	0.437432
O7	O	0.916497	-0.250328	-0.062598
O8	O	1.416497	0.249672	0.437402
O9	O	0.929630	-0.048874	0.062620
O10	O	1.429630	0.451126	0.562620
O11	O	0.809241	-0.148401	0.062601
O12	O	1.309241	0.351599	0.562601
O13	O	1.036865	-0.150795	0.062609
O14	O	1.536865	0.349205	0.562609
Cu15	Cu	0.923051	-0.149597	0.074036
Cu16	Cu	1.423051	0.350403	0.574036
Cu17	Cu	0.923076	-0.149605	-0.074014
Cu18	Cu	1.423076	0.350395	0.425986
O19	O	0.916476	-0.250321	0.062590
O20	O	1.416476	0.249679	0.562590
C21	C	0.780131	-0.146226	0.000006
C22	C	1.280131	0.353774	0.500006
C23	C	0.693359	-0.139728	0.000004
C24	C	1.193359	0.360272	0.500004
C25	C	0.929218	-0.022975	0.000028
C26	C	1.429218	0.477025	0.500028
C27	C	0.927947	0.054207	0.000035
C28	C	1.427947	0.554207	0.500035
C29	C	1.065996	-0.152976	0.000014
C30	C	1.565996	0.347024	0.500014
C31	C	1.152768	-0.159474	0.000011
C32	C	1.652768	0.340526	0.500011
C33	C	1.203075	-0.099818	0.000018
C34	C	1.703075	0.400182	0.500018
C35	C	1.284606	-0.105927	0.000020
C36	C	1.784606	0.394073	0.500020
C37	C	1.315828	-0.171693	0.000010
C38	C	1.815828	0.328307	0.500010
C39	C	1.265515	-0.231354	0.000005
C40	C	1.765515	0.268646	0.500005
C41	C	1.183986	-0.225244	0.000009
C42	C	1.683986	0.274756	0.500009
C43	C	1.561517	-0.193279	0.000003
C44	C	2.061517	0.306721	0.500003
C45	C	1.643052	-0.199384	-0.000002
C46	C	2.143052	0.300616	0.499998
C47	C	1.662137	-0.073957	0.000013
C48	C	2.162137	0.426043	0.500013
C49	C	1.580605	-0.067853	0.000012
C50	C	2.080605	0.432147	0.500012
C51	C	1.530300	-0.127514	0.000012
C52	C	2.030300	0.372486	0.500012
C53	C	1.399166	-0.177940	0.000009
C54	C	1.899166	0.322060	0.500009
C55	C	1.446964	-0.121267	0.000018
C56	C	1.946964	0.378733	0.500018
C57	C	0.916910	-0.276227	-0.000008
C58	C	1.416910	0.223773	0.499992
C59	C	0.918180	-0.353409	-0.000020
C60	C	1.418180	0.146591	0.499980
N61	N	0.923039	-0.149592	0.178166
N62	N	1.423039	0.350408	0.678166
C63	C	0.998586	0.094533	0.000041
C64	C	1.498586	0.594533	0.500041
C65	C	0.997392	0.167054	0.000029
C66	C	1.497392	0.667054	0.500029
C67	C	0.925556	0.199246	0.000026
C68	C	1.425556	0.699246	0.500026
C69	C	0.854908	0.158911	0.000016
C70	C	1.354908	0.658911	0.500016
C71	C	0.856103	0.086391	0.000020
C72	C	1.356103	0.586391	0.500020
C73	C	0.869076	0.311030	0.043875
C74	C	1.369076	0.811030	0.543875
C75	C	0.867884	0.383548	0.043875
C76	C	1.367884	0.883548	0.543875
C77	C	0.921865	0.422920	0.000009
C78	C	1.421865	0.922920	0.500009
C79	C	0.977052	0.389765	-0.043847
C80	C	1.477052	0.889765	0.456153
C81	C	0.978247	0.317246	-0.043843
C82	C	1.478247	0.817246	0.456157
C83	C	0.924251	0.277881	0.000021
C84	C	1.424251	0.777881	0.500021
C85	C	0.991214	0.541881	0.000001
C86	C	1.491214	1.041881	0.500001
C87	C	0.990017	0.614403	-0.000015
C88	C	1.490017	1.114403	0.499985
C89	C	0.847531	0.606259	-0.000021
C90	C	1.347531	1.106259	0.499979
C91	C	0.848730	0.533738	-0.000012
C92	C	1.348730	1.033738	0.499988
C93	C	0.920573	0.501554	0.000003
C94	C	1.420573	1.001554	0.500003
N95	N	0.923094	-0.149606	-0.178144
N96	N	1.423094	0.350394	0.321856
C97	C	0.976365	-0.105546	0.217562
C98	C	1.476365	0.394454	0.717562
C99	C	0.976369	-0.105543	0.296363
C100	C	1.476369	0.394457	0.796363
C101	C	0.923056	-0.149598	0.335767
C102	C	1.423056	0.350402	0.835767
C103	C	0.869720	-0.193647	0.296362
C104	C	1.369720	0.306353	0.796362
C105	C	0.869712	-0.193644	0.217562
C106	C	1.369712	0.306356	0.717562
C107	C	0.912591	-0.212238	0.460595
C108	C	1.412591	0.287762	0.960595
C109	C	0.912605	-0.212243	0.539394
C110	C	1.412605	0.287757	1.039394
C111	C	0.923077	-0.149608	0.578813
C112	C	1.423077	0.350392	1.078813
C113	C	0.933552	-0.086966	0.539424
C114	C	1.433552	0.413034	1.039424
C115	C	0.933543	-0.086963	0.460624
C116	C	1.433543	0.413037	0.960624
C117	C	0.923058	-0.149606	0.421213
C118	C	1.423058	0.350394	0.921213
C119	C	0.976410	-0.105555	0.703654
C120	C	1.476410	0.394445	1.203654
C121	C	0.976409	-0.105551	0.782458
C122	C	1.476409	0.394449	1.282458
C123	C	0.869764	-0.193661	0.782455
C124	C	1.369764	0.306339	1.282455
C125	C	0.869761	-0.193659	0.703653
C126	C	1.369761	0.306341	1.203653
C127	C	0.923088	-0.149607	0.664258
C128	C	1.423088	0.350393	1.164258
H129	H	1.325563	-0.057349	0.000028
H130	H	1.825563	0.442651	0.500028
H131	H	1.047542	0.647236	-0.000015
H132	H	1.547542	1.147236	0.499985
H133	H	1.019830	-0.069679	0.814534
H134	H	1.519830	0.430321	1.314534
N135	N	1.431049	-0.245121	0.000002
N136	N	1.931049	0.254879	0.500002
N137	N	1.415550	-0.286429	0.052765
N138	N	1.915550	0.213571	0.552765
H139	H	1.438069	-0.333876	0.052764
H140	H	1.938069	0.166124	0.552764
N141	N	1.171172	-0.032644	0.000022
N142	N	1.671172	0.467356	0.500022
N143	N	1.127812	-0.015244	-0.052744
N144	N	1.627812	0.484756	0.447256
H145	H	1.105281	0.032199	-0.052740
H146	H	1.605281	0.532199	0.447260
N147	N	1.713525	-0.013020	0.000039
N148	N	2.213525	0.486980	0.500039
N149	N	1.710802	0.029649	0.052821
N150	N	2.210802	0.529649	0.552821
H151	H	1.747096	0.072689	0.052844
H152	H	2.247096	0.572689	0.552844
N153	N	0.774157	0.639144	-0.000017
N154	N	1.274157	1.139144	0.499983
N155	N	0.757587	0.678716	0.052749
N156	N	1.257587	1.178716	0.552749
H157	H	0.705764	0.701945	0.052749
H158	H	1.205764	1.201945	0.552749
H159	H	1.555191	-0.014300	0.000020
H160	H	2.055191	0.485700	0.500020
N161	N	1.510149	-0.254226	0.000003
N162	N	2.010149	0.245774	0.500003
N163	N	1.538039	-0.312939	-0.000008
N164	N	2.038039	0.187061	0.499992
H165	H	1.501758	-0.355987	-0.000009
H166	H	2.001758	0.144013	0.499991
N167	N	0.776566	0.492553	-0.000016
N168	N	1.276566	0.992553	0.499984
N169	N	0.712430	0.521301	-0.000021
N170	N	1.212430	1.021301	0.499979
H171	H	0.661460	0.492214	-0.000026
H172	H	1.161460	0.992214	0.499974
H173	H	0.822944	0.410536	0.079582
H174	H	1.322944	0.910536	0.579582
N175	N	0.813918	0.270826	0.088682
N176	N	1.313918	0.770826	0.588682
N177	N	0.764653	0.300433	0.127836
N178	N	1.264653	0.800433	0.627836
H179	H	0.725696	0.272041	0.159478
H180	H	1.225696	0.772041	0.659478
N181	N	0.815302	-0.238652	0.822706
N182	N	1.315302	0.261348	1.322706
N183	N	0.815312	-0.238646	0.893063
N184	N	1.315312	0.261354	1.393063
H185	H	0.776844	-0.270420	0.921495
H186	H	1.276844	0.229580	1.421495
H187	H	0.826342	-0.229529	0.671575
H188	H	1.326342	0.270471	1.171575
N189	N	0.781535	0.191802	0.000006
N190	N	1.281535	0.691802	0.500006
N191	N	0.780476	0.256551	0.000003
N192	N	1.280476	0.756551	0.500003
H193	H	0.728655	0.279781	-0.000008
H194	H	1.228655	0.779781	0.499992
H195	H	1.049713	0.515676	0.000010
H196	H	1.549713	1.015676	0.500010
N197	N	0.783937	0.045206	0.000010
N198	N	1.283937	0.545206	0.500010
N199	N	0.719800	0.073953	-0.000000
N200	N	1.219800	0.573953	0.500000
H201	H	0.668831	0.044865	-0.000007
H202	H	1.168831	0.544865	0.499993
N203	N	1.297393	-0.298538	0.000005
N204	N	1.797393	0.201462	0.500005
N205	N	1.281891	-0.339841	0.052771
N206	N	1.781891	0.160159	0.552771
H207	H	1.304403	-0.387292	0.052771
H208	H	1.804403	0.112708	0.552771
H209	H	0.942070	-0.035958	0.428556
H210	H	1.442070	0.464042	0.928556
N211	N	1.132607	-0.286188	0.000009
N212	N	1.632607	0.213812	0.500009
N213	N	1.160492	-0.344904	0.000003
N214	N	1.660492	0.155096	0.500003
H215	H	1.124207	-0.387949	0.000007
H216	H	1.624207	0.112051	0.500007
N217	N	1.674933	-0.266572	-0.000012
N218	N	2.174933	0.233428	0.499988
N219	N	1.630010	-0.319835	-0.000010
N220	N	2.130010	0.180165	0.499990
H221	H	1.652526	-0.367284	-0.000017
H222	H	2.152526	0.132716	0.499983
H223	H	1.019785	-0.069674	0.185488
H224	H	1.519785	0.430326	0.685488
N225	N	0.901915	-0.276233	0.579614
N226	N	1.401915	0.223767	1.079614
N227	N	0.892558	-0.332152	0.544412
N228	N	1.392558	0.167848	1.044412
H229	H	0.885010	-0.377347	0.572815
H230	H	1.385010	0.122653	1.072815
H231	H	1.421539	-0.067720	0.000018
H232	H	1.921539	0.432280	0.500018
H233	H	1.019794	-0.069674	0.328445
H234	H	1.519794	0.430326	0.828445
H235	H	0.942078	-0.035963	0.571517
H236	H	1.442078	0.464037	1.071517
H237	H	1.057086	0.068333	0.000050
H238	H	1.557086	0.568333	0.500050
N239	N	1.030786	-0.060462	0.663419
N240	N	1.530786	0.439538	1.163419
N241	N	1.078327	-0.021070	0.698607
N242	N	1.578327	0.478930	1.198607
H243	H	1.116694	0.010812	0.670194
H244	H	1.616694	0.510812	1.170194
N245	N	0.901901	-0.276230	0.420345
N246	N	1.401901	0.223770	0.920345
N247	N	0.892568	-0.332154	0.455520
N248	N	1.392568	0.167846	0.955520
H249	H	0.885023	-0.377348	0.427095
H250	H	1.385023	0.122652	0.927095
N251	N	1.069558	0.208246	0.000034
N252	N	1.569558	0.708246	0.500034
N253	N	1.133696	0.179501	0.000046
N254	N	1.633696	0.679501	0.500046
H255	H	1.184664	0.208590	0.000051
H256	H	1.684664	0.708590	0.500051
H257	H	1.023181	0.290254	-0.079554
H258	H	1.523181	0.790254	0.420446
N259	N	0.815262	-0.238640	0.336619
N260	N	1.315262	0.261360	0.836619
N261	N	0.815277	-0.238637	0.406976
N262	N	1.315277	0.261363	0.906976
H263	H	0.776811	-0.270412	0.435409
H264	H	1.276811	0.229588	0.935409
H265	H	1.021008	0.421821	-0.079568
H266	H	1.521008	0.921821	0.420432
H267	H	0.826287	-0.229512	0.185485
H268	H	1.326287	0.270488	0.685485
