data_functionalizedCrystal
_audit_creation_method	'MofGen! by Chris Wilmer'
_symmetry_space_group_name_H-M	'P1'
_symmetry_Int_Tables_number	1
_symmetry_cell_setting	triclinic
loop_
_symmetry_equiv_pos_as_xyz
  x,y,z
_cell_length_a	19.188905
_cell_length_b	19.188940
_cell_length_c	17.766277
_cell_angle_alpha	89.993187
_cell_angle_beta	89.983513
_cell_angle_gamma	83.141635
loop_
_atom_site_label
_atom_site_type_symbol
_atom_site_fract_x
_atom_site_fract_y
_atom_site_fract_z
O1	O	0.926164	0.087085	-0.062719
O2	O	0.722850	0.098838	-0.062693
O3	O	0.830371	-0.008694	-0.062701
O4	O	0.818643	0.194617	-0.062711
O5	O	0.830352	-0.008700	0.062487
O6	O	0.722832	0.098832	0.062495
O7	O	0.926145	0.087080	0.062470
Cu8	Cu	0.824487	0.092955	0.073913
Cu9	Cu	0.824509	0.092962	-0.074137
O10	O	0.818625	0.194612	0.062477
C11	C	0.696830	0.098457	-0.000096
C12	C	0.619324	0.097323	-0.000086
C13	C	0.582943	0.096782	-0.068328
C14	C	0.510119	0.095709	-0.068337
C15	C	0.473682	0.095163	-0.000101
C16	C	0.510071	0.095709	0.068151
C17	C	0.582893	0.096789	0.068158
N18	N	0.364652	0.053733	0.050684
N19	N	0.295475	0.052705	0.050672
C20	C	0.254275	0.091911	-0.000119
N21	N	0.284866	0.132174	-0.050908
N22	N	0.354050	0.133198	-0.050899
C23	C	0.394719	0.093993	-0.000101
C24	C	0.138929	0.090207	-0.068376
C25	C	0.066104	0.089138	-0.068382
C26	C	0.066058	0.089131	0.068108
C27	C	0.138882	0.090207	0.068112
C28	C	0.175313	0.090741	-0.000131
C29	C	0.829980	-0.034708	-0.000107
C30	C	0.828837	-0.112212	-0.000107
C31	C	0.820692	-0.665474	0.068116
C32	C	0.821759	-0.592649	0.068120
C33	C	0.822306	-0.556227	-0.000119
C34	C	0.821768	-0.592632	-0.068368
C35	C	0.820694	-0.665454	-0.068370
N36	N	0.863730	-0.447204	-0.050916
N37	N	0.864752	-0.378027	-0.050910
C38	C	0.825539	-0.336818	-0.000117
N39	N	0.785276	-0.367401	0.050681
N40	N	0.784257	-0.436586	0.050676
C41	C	0.823470	-0.477263	-0.000124
C42	C	0.827229	-0.221456	0.068132
C43	C	0.828291	-0.148630	0.068133
C44	C	0.828307	-0.148615	-0.068357
C45	C	0.827238	-0.221439	-0.068356
C46	C	0.826702	-0.257856	-0.000110
C47	C	0.952166	0.087460	-0.000130
C48	C	1.029671	0.088594	-0.000145
C49	C	0.819015	0.220625	-0.000118
C50	C	0.820158	0.298129	-0.000123
N51	N	0.824476	0.092950	0.178043
N52	N	0.824525	0.092961	-0.178267
C53	C	0.872101	0.045359	0.217427
C54	C	0.872105	0.045355	0.296229
C55	C	0.824491	0.092956	0.335644
C56	C	0.776856	0.140551	0.296251
C57	C	0.776849	0.140549	0.217451
C58	C	0.815150	0.156572	0.460480
C59	C	0.815163	0.156576	0.539278
C60	C	0.824509	0.092964	0.578690
C61	C	0.833859	0.029346	0.539294
C62	C	0.833851	0.029343	0.460493
C63	C	0.824493	0.092964	0.421090
C64	C	0.872142	0.045365	0.703520
C65	C	0.872141	0.045361	0.782323
C66	C	0.776895	0.140563	0.782344
C67	C	0.776893	0.140561	0.703542
C68	C	0.824520	0.092963	0.664135
H69	H	0.036483	0.088701	-0.123955
H70	H	0.910889	0.006599	0.328301
O71	O	0.842814	-0.032440	0.577596
C72	C	0.793866	-0.107947	0.666618
C73	C	0.783623	-0.037961	0.623274
H74	H	0.746025	-0.112427	0.703571
H75	H	0.800505	-0.153438	0.624954
H76	H	0.842683	-0.109766	0.703459
H77	H	0.734804	-0.036074	0.586432
H78	H	0.777024	0.007497	0.664979
H79	H	0.036391	0.088691	0.123668
H80	H	0.822180	-0.563007	0.123691
O81	O	0.918386	-0.000949	0.179265
C82	C	1.012884	-0.095345	0.187564
C83	C	0.960496	-0.042950	0.230878
H84	H	1.046954	-0.129306	0.229274
H85	H	0.982882	-0.130200	0.150714
H86	H	1.047634	-0.065279	0.150629
H87	H	0.925733	-0.072959	0.267854
H88	H	0.990543	-0.008095	0.267681
H89	H	0.480491	0.095269	-0.123910
O90	O	0.174389	0.090830	-0.134615
C91	C	0.248501	0.152549	-0.213832
C92	C	0.208390	0.151922	-0.138783
H93	H	0.275990	0.201943	-0.217233
H94	H	0.289183	0.104236	-0.217251
H95	H	0.209979	0.151950	-0.262599
H96	H	0.246860	0.152544	-0.089973
H97	H	0.167699	0.200230	-0.135430
O98	O	0.174316	0.090630	0.134357
C99	C	0.264578	0.031343	0.213597
C100	C	0.224516	0.030784	0.138538
H101	H	0.305164	-0.017045	0.217009
H102	H	0.292177	0.080666	0.217026
H103	H	0.226010	0.030801	0.262354
H104	H	0.263038	0.031300	0.089738
H105	H	0.196907	-0.018535	0.135175
H106	H	0.738066	0.179304	0.185384
H107	H	0.828724	-0.118996	0.123704
H108	H	0.612601	0.097217	-0.123898
H109	H	0.820255	-0.695119	0.123688
O110	O	0.918425	-0.000942	0.665351
C111	C	1.012920	-0.095342	0.673645
C112	C	0.960532	-0.042949	0.716962
H113	H	1.046987	-0.129308	0.715353
H114	H	0.982917	-0.130193	0.636789
H115	H	1.047672	-0.065274	0.636715
H116	H	0.925766	-0.072960	0.753933
H117	H	0.990578	-0.008099	0.753770
H118	H	0.807554	0.208378	0.571349
O119	O	0.822199	-0.557169	-0.134610
C120	C	0.762905	-0.466881	-0.213827
C121	C	0.762348	-0.506973	-0.138769
H122	H	0.714513	-0.426299	-0.217221
H123	H	0.812224	-0.439275	-0.217272
H124	H	0.762369	-0.505430	-0.262585
H125	H	0.762859	-0.468471	-0.089968
H126	H	0.713033	-0.534590	-0.135390
H127	H	0.828744	-0.118959	-0.123919
H128	H	0.826808	-0.251075	-0.123924
H129	H	0.910921	0.006602	0.814390
O130	O	0.820208	-0.700710	-0.134728
C131	C	0.820281	-0.693004	-0.270105
C132	C	0.820851	-0.652991	-0.195009
H133	H	0.820786	-0.654438	-0.318861
H134	H	0.868642	-0.733621	-0.273582
H135	H	0.770939	-0.720575	-0.273462
H136	H	0.870161	-0.625376	-0.191601
H137	H	0.772457	-0.612413	-0.191563
H138	H	0.807527	0.208376	0.428397
H139	H	0.738124	0.179318	0.814435
H140	H	0.841462	-0.022457	0.428420
H141	H	0.738114	0.179318	0.671474
H142	H	0.738087	0.179308	0.328347
O143	O	0.826577	-0.256790	0.134441
C144	C	0.765783	-0.270968	0.251122
C145	C	0.766426	-0.230911	0.176049
H146	H	0.717163	-0.250051	0.284791
H147	H	0.764885	-0.329271	0.239441
H148	H	0.814863	-0.263206	0.284737
H149	H	0.717355	-0.238616	0.142397
H150	H	0.767361	-0.172622	0.187784
O151	O	0.474666	0.095052	0.134417
C152	C	0.400494	0.033372	0.213603
C153	C	0.440571	0.034016	0.138535
H154	H	0.372906	-0.015963	0.216950
H155	H	0.438984	0.033899	0.262411
H156	H	0.359879	0.081739	0.216999
H157	H	0.481186	-0.014342	0.135065
H158	H	0.402038	0.033526	0.089763
H159	H	0.612514	0.097231	0.123731
