data_functionalizedCrystal
_audit_creation_method	'MofGen! by Chris Wilmer'
_symmetry_space_group_name_H-M	'P1'
_symmetry_Int_Tables_number	1
_symmetry_cell_setting	triclinic
loop_
_symmetry_equiv_pos_as_xyz
  x,y,z
_cell_length_a	13.032831
_cell_length_b	13.032423
_cell_length_c	13.032268
_cell_angle_alpha	89.069225
_cell_angle_beta	89.113023
_cell_angle_gamma	90.886572
loop_
_atom_site_label
_atom_site_type_symbol
_atom_site_fract_x
_atom_site_fract_y
_atom_site_fract_z
Zn1	Zn	1.423768	0.684117	0.684422
Zn2	Zn	1.757101	1.017450	1.017755
Zn3	Zn	2.090435	1.350784	1.351088
Zn4	Zn	1.429028	0.835045	0.491171
Zn5	Zn	1.762361	1.168378	0.824505
Zn6	Zn	2.095694	1.501712	1.157838
Zn7	Zn	1.278248	0.641799	0.496627
Zn8	Zn	1.611581	0.975133	0.829960
Zn9	Zn	1.944915	1.308466	1.163293
Zn10	Zn	1.235874	0.829568	0.642068
Zn11	Zn	1.569207	1.162901	0.975402
Zn12	Zn	1.902541	1.496234	1.308735
O13	O	1.341729	0.747632	0.578572
O14	O	1.675063	1.080966	0.911905
O15	O	2.008396	1.414299	1.245239
O16	O	1.566202	0.724140	0.674229
O17	O	1.899535	1.057473	1.007562
O18	O	2.232869	1.390807	1.340895
O19	O	1.428961	0.793993	0.350151
O20	O	1.762295	1.127326	0.683484
O21	O	2.095628	1.460659	1.016818
O22	O	1.313084	0.505667	0.541546
O23	O	1.646417	0.839001	0.874879
O24	O	1.979750	1.172334	1.208213
O25	O	1.570066	0.835026	0.532248
O26	O	1.903400	1.168359	0.865582
O27	O	2.236733	1.501693	1.198915
O28	O	1.419997	0.536758	0.679518
O29	O	1.753330	0.870091	1.012852
O30	O	2.086664	1.203424	1.346185
O31	O	1.318184	0.652016	0.354159
O32	O	1.651517	0.985349	0.687492
O33	O	1.984851	1.318683	1.020826
O34	O	1.130891	0.646705	0.500478
O35	O	1.464224	0.980038	0.833811
O36	O	1.797557	1.313372	1.167144
O37	O	1.240864	0.825691	0.789431
O38	O	1.574197	1.159025	1.122764
O39	O	1.907530	1.492358	1.456097
O40	O	1.099759	0.784658	0.607333
O41	O	1.433092	1.117991	0.940667
O42	O	1.766425	1.451324	1.274000
O43	O	1.378909	0.718829	0.820547
O44	O	1.712242	1.052162	1.153881
O45	O	2.045575	1.385496	1.487214
O46	O	1.387873	0.976064	0.491180
O47	O	1.721206	1.309397	0.824514
O48	O	2.054540	1.642731	1.157847
O49	O	1.245964	0.972040	0.602044
O50	O	1.579297	1.305373	0.935377
O51	O	1.912631	1.638707	1.268710
C52	C	1.078574	0.710496	0.549902
C53	C	1.411907	1.043829	0.883235
C54	C	1.745241	1.377163	1.216569
C55	C	0.965989	0.694636	0.537658
C56	C	1.299322	1.027969	0.870991
C57	C	1.632655	1.361303	1.204324
C58	C	0.900421	0.755910	0.584962
C59	C	1.233754	1.089243	0.918296
C60	C	1.567088	1.422577	1.251629
C61	C	0.784058	0.739519	0.572308
C62	C	1.117391	1.072853	0.905642
C63	C	1.450725	1.406186	1.238975
C64	C	1.312915	1.010811	0.541449
C65	C	1.646249	1.344145	0.874782
C66	C	1.979582	1.677478	1.208116
C67	C	1.300677	1.123417	0.525612
C68	C	1.634010	1.456750	0.858945
C69	C	1.967343	1.790084	1.192278
C70	C	1.335415	1.305309	0.570506
C71	C	1.668748	1.638642	0.903839
C72	C	2.002081	1.971976	1.237173
C73	C	1.348072	1.188926	0.586878
C74	C	1.681405	1.522260	0.920212
C75	C	2.014739	1.855593	1.253545
C76	C	1.605912	0.784914	0.607354
C77	C	1.939246	1.118248	0.940688
C78	C	2.272579	1.451581	1.274021
C79	C	1.718491	0.800802	0.619620
C80	C	2.051825	1.134135	0.952953
C81	C	2.385158	1.467468	1.286286
C82	C	1.304573	0.776370	0.842769
C83	C	1.637906	1.109703	1.176103
C84	C	1.971239	1.443036	1.509436
C85	C	1.288739	0.788616	0.955354
C86	C	1.622072	1.121949	1.288688
C87	C	1.955406	1.455282	1.622021
C88	C	1.370627	1.483425	0.615867
C89	C	1.703960	1.816759	0.949200
C90	C	2.037293	2.150092	1.282534
C91	C	1.382804	1.370819	0.631764
C92	C	1.716137	1.704153	0.965098
C93	C	2.049470	2.037486	1.298431
C94	C	1.378808	0.718942	0.315419
C95	C	1.712141	1.052275	0.648753
C96	C	2.045474	1.385608	0.982086
C97	C	1.394869	0.706438	0.202896
C98	C	1.728202	1.039771	0.536230
C99	C	2.061536	1.373105	0.869563
C100	C	1.349981	0.741202	1.020944
C101	C	1.683315	1.074536	1.354278
C102	C	2.016648	1.407869	1.687611
C103	C	1.333618	0.753858	1.137307
C104	C	1.666951	1.087191	1.470641
C105	C	2.000285	1.420525	1.803974
H106	H	0.754051	0.674918	0.522442
H107	H	1.087384	1.008251	0.855775
H108	H	1.420718	1.341584	1.189109
H109	H	0.748497	0.865395	0.669498
H110	H	1.081830	1.198728	1.002831
H111	H	1.415163	1.532062	1.336165
O112	O	0.926252	0.609085	0.471578
O113	O	1.259585	0.942419	0.804911
O114	O	1.592919	1.275752	1.138244
H115	H	0.841092	0.609649	0.471993
H116	H	1.174425	0.942982	0.805326
H117	H	1.507759	1.276316	1.138659
H118	H	0.930433	0.820500	0.634834
H119	H	1.263766	1.153833	0.968168
H120	H	1.597100	1.487167	1.301501
H121	H	1.398013	1.158857	0.651453
H122	H	1.731347	1.492190	0.984786
H123	H	2.064680	1.825523	1.318119
O124	O	1.480379	0.640256	1.163182
O125	O	1.813712	0.973589	1.496516
O126	O	2.147046	1.306922	1.829849
H127	H	1.522747	0.607447	1.228931
H128	H	1.856081	0.940780	1.562264
H129	H	2.189414	1.274113	1.895597
H130	H	1.250724	1.153486	0.461046
H131	H	1.584057	1.486819	0.794380
H132	H	1.917391	1.820153	1.127713
H133	H	1.285469	1.335385	0.505943
H134	H	1.618802	1.668718	0.839277
H135	H	1.952136	2.002051	1.172610
O136	O	1.248106	0.820043	1.177014
O137	O	1.581440	1.153376	1.510348
O138	O	1.914773	1.486709	1.843681
H139	H	1.248675	0.819601	1.262179
H140	H	1.582008	1.152934	1.595512
H141	H	1.915342	1.486268	1.928845
H142	H	1.432741	1.340745	0.696334
H143	H	1.766075	1.674078	1.029667
H144	H	2.099408	2.007411	1.363001
H145	H	1.414525	0.691236	0.990952
H146	H	1.747858	1.024570	1.324285
H147	H	2.081191	1.357903	1.657618
O148	O	1.203232	0.854797	0.995067
O149	O	1.536565	1.188130	1.328400
O150	O	1.869899	1.521464	1.661733
H151	H	1.203800	0.854355	1.080231
H152	H	1.537134	1.187688	1.413564
H153	H	1.870467	1.521022	1.746898
