data_functionalizedCrystal
_audit_creation_method	'MofGen! by Chris Wilmer'
_symmetry_space_group_name_H-M	'P1'
_symmetry_Int_Tables_number	1
_symmetry_cell_setting	triclinic
loop_
_symmetry_equiv_pos_as_xyz
  x,y,z
_cell_length_a	20.919287
_cell_length_b	20.919309
_cell_length_c	20.919327
_cell_angle_alpha	60.702273
_cell_angle_beta	83.690433
_cell_angle_gamma	55.750797
loop_
_atom_site_label
_atom_site_type_symbol
_atom_site_fract_x
_atom_site_fract_y
_atom_site_fract_z
Zr1	Zr	0.594221	0.700925	-0.089614
O2	O	0.491796	0.834515	-0.181015
O3	O	0.629459	0.567332	-0.065396
O4	O	0.631305	0.700923	-0.193883
O5	O	0.484127	0.700927	0.053149
O6	O	0.736983	0.700923	-0.199709
O7	O	0.489951	0.700925	-0.052528
O8	O	0.733682	0.461954	0.030130
O9	O	0.487428	0.939896	-0.176690
O10	O	0.718715	0.622281	-0.054823
O11	O	0.635502	0.622283	0.028391
O12	O	0.637675	0.779568	-0.122885
O13	O	0.554462	0.779569	-0.039672
Zr14	Zr	0.753476	0.700928	0.069637
Zr15	Zr	0.762765	0.700925	-0.098906
Zr16	Zr	0.584932	0.700927	0.078929
Zr17	Zr	0.587253	0.868994	-0.082717
Zr18	Zr	0.760443	0.532858	0.062740
O19	O	0.718237	0.834520	0.045419
O20	O	0.731445	0.834516	-0.194227
O21	O	0.478589	0.834519	0.058632
O22	O	0.855900	0.567337	0.161038
O23	O	0.869108	0.567333	-0.078608
O24	O	0.616252	0.567337	0.174250
O25	O	0.863570	0.700926	-0.073126
O26	O	0.716392	0.700930	0.173906
O27	O	0.610714	0.700929	0.179733
O28	O	0.857746	0.700928	0.032551
O29	O	0.621398	0.939896	-0.184076
O30	O	0.726298	0.461956	0.164099
O31	O	0.860269	0.461957	0.156713
O32	O	0.867652	0.461954	0.022744
O33	O	0.480044	0.939898	-0.042721
O34	O	0.614015	0.939898	-0.050107
O35	O	0.710022	0.622284	0.102909
O36	O	0.793235	0.622283	0.019695
O37	O	0.712195	0.779570	-0.048368
O38	O	0.628982	0.779571	0.034846
C39	C	0.682563	0.490697	-0.018616
C40	C	0.685521	0.419347	-0.021544
C41	C	0.643460	0.385841	0.020503
C42	C	0.646205	0.318838	0.017715
C43	C	0.691016	0.285337	-0.027116
C44	C	0.733078	0.318849	-0.069167
C45	C	0.730328	0.385856	-0.066383
C46	C	0.701488	0.083024	-0.037700
C47	C	0.704236	0.016011	-0.040479
C48	C	0.617362	0.016006	0.046402
C49	C	0.614620	0.083010	0.049185
C50	C	0.656679	0.116520	0.007131
C51	C	0.693825	0.216847	-0.029965
C52	C	0.653865	0.185013	0.009977
C53	C	0.463025	0.700926	0.001635
C54	C	0.391473	0.700925	0.005580
C55	C	0.361066	0.700927	-0.050787
C56	C	0.293838	0.700922	-0.047077
C57	C	0.257015	0.700922	0.012997
C58	C	0.287428	0.700918	0.069369
C59	C	0.354658	0.700916	0.065662
C60	C	0.053866	0.700921	0.027108
C61	C	-0.013370	0.700926	0.030810
C62	C	-0.006954	0.700928	-0.085636
C63	C	0.060275	0.700932	-0.089341
C64	C	0.090684	0.700923	-0.032967
C65	C	0.188296	0.700920	0.016790
C66	C	0.159405	0.700918	-0.036757
C67	C	0.884672	0.700927	-0.021611
C68	C	0.956223	0.700927	-0.025556
C69	C	0.685467	0.700923	-0.220810
C70	C	0.689411	0.700921	-0.292361
C71	C	0.665133	0.911156	-0.001361
C72	C	0.662176	0.982506	0.001567
C73	C	0.633047	0.700920	-0.322768
C74	C	0.636754	0.700926	-0.390001
C75	C	0.696828	0.700928	-0.426823
C76	C	0.753195	0.700933	-0.396413
C77	C	0.749484	0.700932	-0.329183
C78	C	0.710942	0.700935	-0.629976
C79	C	0.714650	0.700933	-0.697209
C80	C	0.598207	0.700928	-0.690793
C81	C	0.594504	0.700922	-0.623561
C82	C	0.650869	0.700932	-0.593158
C83	C	0.700620	0.700932	-0.495546
C84	C	0.647073	0.700934	-0.524440
C85	C	0.662229	0.700930	0.200833
C86	C	0.658286	0.700931	0.272384
C87	C	0.893387	0.490697	-0.030239
C88	C	0.967896	0.419348	-0.037111
C89	C	0.670944	0.490701	0.192206
C90	C	0.669959	0.419352	0.260829
C91	C	0.881768	0.490701	0.180583
C92	C	0.952334	0.419353	0.245261
C93	C	0.465929	0.911151	-0.200559
C94	C	0.395363	0.982500	-0.265238
C95	C	0.454310	0.911155	0.010262
C96	C	0.379801	0.982505	0.017135
C97	C	0.676752	0.911152	-0.212183
C98	C	0.677738	0.982501	-0.280805
C99	C	0.963988	0.385840	-0.079243
C100	C	1.033992	0.318809	-0.085716
C101	C	1.107902	0.285282	-0.050052
C102	C	1.111808	0.318796	-0.007918
C103	C	1.041805	0.385830	-0.001450
C104	C	0.708394	0.385847	0.331959
C105	C	0.707464	0.318816	0.396445
C106	C	0.668103	0.285288	0.389798
C107	C	0.629663	0.318800	0.318660
C108	C	0.630588	0.385833	0.254176
C109	C	1.028915	0.385846	0.232197
C110	C	1.095226	0.318816	0.292963
C111	C	1.084953	0.285289	0.366791
C112	C	1.008363	0.318802	0.379854
C113	C	0.942054	0.385836	0.319089
C114	C	0.318781	1.016014	-0.252174
C115	C	0.252469	1.083065	-0.312938
C116	C	0.262742	1.116596	-0.386767
C117	C	0.339332	1.083078	-0.399829
C118	C	0.405642	1.016033	-0.339065
C119	C	0.383708	1.016019	0.059260
C120	C	0.313705	1.083069	0.065715
C121	C	0.239795	1.116599	0.030048
C122	C	0.235889	1.083081	-0.012082
C123	C	0.305891	1.016037	-0.018541
C124	C	0.717106	1.016008	-0.274134
C125	C	0.718048	1.083038	-0.338608
C126	C	0.679616	1.116565	-0.409751
C127	C	0.640246	1.083052	-0.416420
C128	C	0.639310	1.016018	-0.351948
H129	H	0.583119	-0.011283	0.080638
H130	H	0.607248	0.988743	-0.357390
Cl131	Cl	0.587128	0.427947	0.076867
H132	H	0.590857	0.700926	-0.414759
Cl133	Cl	0.241140	0.700912	0.144896
H134	H	0.740446	0.413138	0.337386
Cl135	Cl	-0.059659	0.700928	0.106339
Cl136	Cl	0.106566	0.700933	-0.164864
Cl137	Cl	1.041851	0.427986	0.139391
Cl138	Cl	0.142966	1.125239	-0.056912
H139	H	0.750105	1.110318	-0.333162
Cl140	Cl	0.591926	1.125218	-0.505863
Cl141	Cl	0.845782	0.427945	0.335525
H142	H	0.597616	0.291491	0.313259
H143	H	0.182800	1.171190	0.035314
Cl144	Cl	1.191501	0.276695	0.276524
H145	H	0.599292	0.413105	0.196261
Cl146	Cl	0.527351	0.700922	-0.729019
Cl147	Cl	0.318634	1.125187	0.118685
Cl148	Cl	-0.045183	0.700934	-0.156500
Cl149	Cl	0.593326	0.276720	0.070575
H150	H	0.208742	1.171188	-0.436238
H151	H	0.078619	0.700916	0.073009
H152	H	0.379415	0.700914	0.111562
Cl153	Cl	0.790181	0.700933	-0.743494
H154	H	0.680384	1.171149	-0.462242
Cl155	Cl	0.205700	0.700914	-0.112275
Cl156	Cl	0.501915	0.973902	-0.355502
H157	H	0.740729	-0.011263	-0.076987
Cl158	Cl	0.518982	0.700918	-0.577269
Cl159	Cl	1.168323	0.201016	0.443174
H160	H	1.000011	0.291495	0.439973
Cl161	Cl	0.156194	1.125184	-0.296500
Cl162	Cl	0.305846	0.973876	-0.159367
Cl163	Cl	1.204731	0.276634	0.036916
Cl164	Cl	0.781801	0.700942	-0.591757
Cl165	Cl	0.476615	0.973886	0.104101
H166	H	0.578136	0.110276	0.085697
H167	H	0.347687	1.110387	-0.459947
Cl168	Cl	0.255612	0.700922	-0.117939
Cl169	Cl	0.754362	0.125142	-0.090568
H170	H	0.302698	0.988752	-0.052841
Cl171	Cl	0.789407	0.276738	-0.125530
H172	H	0.764577	0.413136	-0.100622
Cl173	Cl	0.597531	0.227133	0.066331
Cl174	Cl	0.141999	0.700923	0.092310
H175	H	0.730312	0.189563	-0.066465
H176	H	0.748402	0.988720	-0.216212
H177	H	0.749535	0.700932	-0.525531
H178	H	0.391041	0.700932	-0.099709
H179	H	0.802107	0.700940	-0.426400
Cl180	Cl	0.820343	0.700939	-0.290960
Cl181	Cl	0.557523	0.700911	-0.276482
H182	H	0.903813	0.413138	-0.108296
Cl183	Cl	1.029063	0.276687	-0.138683
Cl184	Cl	1.195899	0.201006	-0.058188
Cl185	Cl	0.571550	0.700936	-0.478151
H186	H	0.738770	0.291539	0.454362
Cl187	Cl	1.046732	0.427940	0.051526
Cl188	Cl	0.666949	0.201014	0.470871
