data_functionalizedCrystal
_audit_creation_method	'MofGen! by Chris Wilmer'
_symmetry_space_group_name_H-M	'P1'
_symmetry_Int_Tables_number	1
_symmetry_cell_setting	triclinic
loop_
_symmetry_equiv_pos_as_xyz
  x,y,z
_cell_length_a	10.489741
_cell_length_b	10.489741
_cell_length_c	8.965430
_cell_angle_alpha	89.999293
_cell_angle_beta	89.998843
_cell_angle_gamma	95.460826
loop_
_atom_site_label
_atom_site_type_symbol
_atom_site_fract_x
_atom_site_fract_y
_atom_site_fract_z
O1	O	1.694053	-0.179958	-0.123946
O2	O	1.322858	-0.196851	-0.123969
O3	O	1.516902	-0.002807	-0.123948
O4	O	1.500009	-0.374003	-0.123967
O5	O	1.516886	-0.002820	0.124130
O6	O	1.322841	-0.196864	0.124110
O7	O	1.694037	-0.179971	0.124133
Cu8	Cu	1.508438	-0.188419	0.146773
Cu9	Cu	1.508457	-0.188404	-0.146609
O10	O	1.499993	-0.374016	0.124112
C11	C	1.275318	-0.195582	0.000067
C12	C	1.133688	-0.191765	0.000059
C13	C	1.065548	-0.068300	0.000079
C14	C	0.973430	-0.126617	-0.122237
C15	C	0.973447	-0.126659	0.122349
C16	C	1.043435	-0.250133	-0.122358
C17	C	1.043462	-0.250158	0.122338
C18	C	0.951371	-0.308564	-0.000007
C19	C	1.515618	0.044718	0.000090
C20	C	1.511801	0.186348	0.000087
C21	C	1.741577	-0.181241	0.000093
C22	C	1.883206	-0.185058	0.000092
C23	C	1.501277	-0.421541	0.000070
C24	C	1.505094	-0.563170	0.000063
N25	N	1.508433	-0.188429	0.353122
C26	C	1.388336	0.254488	0.000069
C27	C	1.446652	0.346604	0.122388
C28	C	1.446697	0.346591	-0.122198
C29	C	1.570167	0.276599	0.122508
C30	C	1.570195	0.276576	-0.122189
C31	C	1.628600	0.368665	0.000161
N32	N	1.508471	-0.188384	-0.352958
C33	C	1.418666	-0.278138	0.450418
C34	C	1.534163	-0.303949	0.549838
C35	C	1.392986	-0.162629	0.549830
C36	C	1.623988	-0.214298	0.450352
C37	C	1.482735	-0.072927	0.450336
C38	C	1.598314	-0.098690	0.549711
H39	H	0.942422	-0.074371	-0.225643
O40	O	1.328209	-0.368622	0.398138
C41	C	1.328665	-0.366681	0.240891
H42	H	1.371386	-0.268838	0.200223
H43	H	1.226343	-0.385812	0.197941
H44	H	1.388634	-0.443820	0.197353
H45	H	1.394404	0.377610	0.225794
O46	O	0.936311	-0.064500	0.245766
C47	C	0.852224	-0.148262	0.331112
H48	H	0.805922	-0.227523	0.256353
H49	H	0.774708	-0.092718	0.382081
H50	H	0.908045	-0.192274	0.423912
O51	O	1.749881	0.427457	0.000046
C52	C	1.815246	0.390150	-0.127792
H53	H	1.768243	0.294468	-0.170011
H54	H	1.919506	0.380007	-0.098271
H55	H	1.810848	0.465804	-0.218463
H56	H	1.555925	-0.401606	0.593543
H57	H	1.115238	0.033196	-0.000069
O58	O	0.892192	-0.429686	-0.000021
C59	C	0.758343	-0.424760	0.001170
H60	H	0.735006	-0.328946	0.048839
H61	H	0.711886	-0.505880	0.073198
H62	H	0.719904	-0.435472	-0.117560
O63	O	1.632288	0.239571	-0.245705
C64	C	1.566892	0.274880	-0.374425
H65	H	1.462799	0.286102	-0.345126
H66	H	1.570721	0.197518	-0.463183
H67	H	1.614273	0.369569	-0.419051
O68	O	1.740412	-0.240733	0.398425
C69	C	1.725963	-0.352886	0.310966
H70	H	1.633902	-0.412767	0.344037
H71	H	1.811147	-0.410763	0.330063
H72	H	1.721157	-0.325818	0.188079
H73	H	1.394447	0.377561	-0.225620
O74	O	1.689157	-0.008294	0.601340
C75	C	1.810662	-0.035939	0.550346
H76	H	1.807988	-0.142218	0.522605
H77	H	1.885011	-0.010932	0.641062
H78	H	1.837240	0.022977	0.446139
O79	O	1.080346	-0.312517	-0.245716
C80	C	1.142123	-0.420188	-0.202080
H81	H	1.181095	-0.405207	-0.084040
H82	H	1.224482	-0.433239	-0.281892
H83	H	1.070749	-0.509183	-0.205024
H84	H	1.622355	0.245761	0.226035
H85	H	1.460937	0.024699	0.406596
O86	O	1.080472	-0.312248	0.245853
C87	C	1.045166	-0.246849	0.374574
H88	H	1.033942	-0.142757	0.345274
H89	H	1.122532	-0.250675	0.463328
H90	H	0.950479	-0.294231	0.419206
O91	O	1.276544	-0.136378	0.601883
C92	C	1.248711	-0.015519	0.548978
H93	H	1.341749	0.044306	0.519498
H94	H	1.196165	0.035407	0.639207
H95	H	1.185712	-0.028539	0.445451
H96	H	1.286824	0.204837	0.000185
