data_functionalizedCrystal
_audit_creation_method	'MofGen! by Chris Wilmer'
_symmetry_space_group_name_H-M	'P1'
_symmetry_Int_Tables_number	1
_symmetry_cell_setting	triclinic
loop_
_symmetry_equiv_pos_as_xyz
  x,y,z
_cell_length_a	14.044220
_cell_length_b	15.944551
_cell_length_c	12.503572
_cell_angle_alpha	93.522593
_cell_angle_beta	86.164750
_cell_angle_gamma	88.343808
loop_
_atom_site_label
_atom_site_type_symbol
_atom_site_fract_x
_atom_site_fract_y
_atom_site_fract_z
O1	O	1.263178	0.198062	-0.089210
O2	O	1.763178	0.698062	0.410790
O3	O	0.987210	0.190753	-0.089237
O4	O	1.487210	0.690753	0.410763
O5	O	1.132730	0.072697	-0.089213
O6	O	1.632730	0.572697	0.410787
O7	O	1.117659	0.316117	-0.089234
O8	O	1.617659	0.816117	0.410766
O9	O	1.121786	0.081592	0.089427
O10	O	1.621786	0.581592	0.589427
O11	O	0.976267	0.199647	0.089403
O12	O	1.476267	0.699647	0.589403
O13	O	1.252235	0.206956	0.089430
O14	O	1.752235	0.706956	0.589430
Cu15	Cu	1.113251	0.204114	0.105728
Cu16	Cu	1.613251	0.704114	0.605728
Cu17	Cu	1.126194	0.193595	-0.105535
Cu18	Cu	1.626194	0.693595	0.394465
O19	O	1.106715	0.325012	0.089406
O20	O	1.606715	0.825012	0.589406
C21	C	0.946424	0.192001	0.000079
C22	C	1.446424	0.692001	0.500079
C23	C	0.841198	0.182459	0.000069
C24	C	1.341198	0.682459	0.500069
C25	C	0.648534	0.165017	0.000092
C26	C	1.148534	0.665017	0.500092
C27	C	0.590906	0.232688	0.000091
C28	C	1.090906	0.732688	0.500091
C29	C	0.483701	0.222983	0.000104
C30	C	0.983701	0.722983	0.500104
C31	C	0.755749	0.174721	0.000079
C32	C	1.255749	0.674721	0.500079
C33	C	1.126632	0.045804	0.000107
C34	C	1.626632	0.545804	0.500107
C35	C	1.124756	-0.047583	0.000107
C36	C	1.624756	0.452417	0.500107
C37	C	1.030073	-0.269530	0.000083
C38	C	1.530073	0.230470	0.500083
C39	C	1.068645	-0.322870	0.088168
C40	C	1.568645	0.177130	0.588168
C41	C	1.121363	-0.218563	0.000099
C42	C	1.621363	0.281437	0.500099
C43	C	1.079457	-0.331621	-0.087957
C44	C	1.579457	0.168379	0.412043
C45	C	1.118079	-0.383722	0.000086
C46	C	1.618079	0.116278	0.500086
C47	C	1.159956	-0.270669	0.088256
C48	C	1.659956	0.229331	0.588256
C49	C	1.170759	-0.279418	-0.087948
C50	C	1.670759	0.220582	0.412052
C51	C	1.209396	-0.332734	0.000158
C52	C	1.709396	0.167266	0.500158
C53	C	1.123252	-0.123419	0.000107
C54	C	1.623252	0.376581	0.500107
C55	C	1.116197	-0.478865	0.000085
C56	C	1.616197	0.021135	0.500085
C57	C	1.293021	0.205708	0.000111
C58	C	1.793021	0.705708	0.500111
C59	C	1.398247	0.215249	0.000114
C60	C	1.898247	0.715249	0.500114
C61	C	1.112813	0.351905	0.000083
C62	C	1.612813	0.851905	0.500083
C63	C	1.114689	0.445291	0.000076
C64	C	1.614689	0.945291	0.500076
N65	N	1.104155	0.211512	0.254318
N66	N	1.604155	0.711512	0.754318
N67	N	1.135297	0.186191	-0.254126
N68	N	1.635297	0.686191	0.245874
C69	C	1.090774	0.222403	0.473431
C70	C	1.590774	0.722403	0.973431
C71	C	1.148675	0.175303	0.526768
C72	C	1.648675	0.675303	1.026768
C73	C	1.141230	0.181362	0.648690
C74	C	1.641230	0.681362	1.148690
C75	C	1.098218	0.216344	0.351498
C76	C	1.598218	0.716344	0.851498
H77	H	0.617360	0.099799	0.000104
H78	H	1.117360	0.599799	0.500104
H79	H	1.203838	0.130429	0.480864
H80	H	1.703838	0.630429	0.980864
C81	C	0.694752	0.325850	-0.091806
C82	C	1.194752	0.825850	0.408194
C83	C	0.632975	0.320742	0.000046
C84	C	1.132975	0.820742	0.500046
H85	H	0.720719	0.380212	-0.091843
H86	H	1.220719	0.880212	0.408157
H87	H	0.744998	0.284679	-0.091789
H88	H	1.244998	0.784679	0.408211
H89	H	0.660427	0.316136	-0.154081
H90	H	1.160427	0.816136	0.345919
H91	H	0.667302	0.330450	0.062322
H92	H	1.167302	0.830450	0.562322
H93	H	0.582721	0.361926	0.000038
H94	H	1.082721	0.861926	0.500038
H95	H	1.035617	0.267275	0.519330
H96	H	1.535617	0.767275	1.019330
H97	H	0.954293	-0.241893	0.000164
H98	H	1.454293	0.258107	0.500164
C99	C	0.933759	-0.396831	0.157448
C100	C	1.433759	0.103169	0.657448
C101	C	1.010366	-0.348922	0.188685
C102	C	1.510366	0.151078	0.688685
H103	H	0.897781	-0.412915	0.219501
H104	H	1.397781	0.087085	0.719501
H105	H	0.894066	-0.364382	0.115985
H106	H	1.394066	0.135618	0.615985
H107	H	0.957480	-0.445695	0.115685
H108	H	1.457480	0.054305	0.615685
H109	H	0.986645	-0.300055	0.230441
H110	H	1.486645	0.199945	0.730441
H111	H	1.050066	-0.381372	0.230165
H112	H	1.550066	0.118628	0.730165
C113	C	1.207163	-0.147045	0.188021
C114	C	1.707163	0.352955	0.688021
C115	C	1.205867	-0.234779	0.188903
C116	C	1.705867	0.265221	0.688903
H117	H	1.235498	-0.124889	0.250160
H118	H	1.735498	0.375111	0.750160
H119	H	1.243200	-0.131854	0.125563
H120	H	1.743200	0.368146	0.625563
H121	H	1.143664	-0.124892	0.187759
H122	H	1.643664	0.375108	0.687759
H123	H	1.269367	-0.256933	0.189156
H124	H	1.769367	0.243067	0.689156
H125	H	1.169830	-0.249977	0.251377
H126	H	1.669830	0.250023	0.751377
C127	C	1.331965	-0.423324	-0.092061
C128	C	1.831965	0.076676	0.407939
C129	C	1.311787	-0.369807	0.000205
C130	C	1.811787	0.130193	0.500205
H131	H	1.395181	-0.446199	-0.092036
H132	H	1.895181	0.053801	0.407964
H133	H	1.288159	-0.467608	-0.092670
H134	H	1.788159	0.032392	0.407330
H135	H	1.326253	-0.392455	-0.154051
H136	H	1.826253	0.107545	0.345949
H137	H	1.317491	-0.400679	0.062195
H138	H	1.817491	0.099321	0.562195
H139	H	1.355604	-0.325518	0.000823
H140	H	1.855604	0.174482	0.500823
C141	C	1.186699	-0.284137	-0.280625
C142	C	1.686699	0.215863	0.219375
C143	C	1.228997	-0.253337	-0.188470
C144	C	1.728997	0.246663	0.311530
H145	H	1.222645	-0.268028	-0.342687
H146	H	1.722645	0.231972	0.157313
H147	H	1.185454	-0.343711	-0.281705
H148	H	1.685454	0.156289	0.218295
H149	H	1.123314	-0.261548	-0.279987
H150	H	1.623314	0.238452	0.220013
H151	H	1.292380	-0.275931	-0.189104
H152	H	1.792380	0.224069	0.310896
H153	H	1.230252	-0.193751	-0.187390
H154	H	1.730252	0.306249	0.312610
H155	H	1.045395	-0.358298	-0.162431
H156	H	1.545395	0.141702	0.337569
