data_functionalizedCrystal
_audit_creation_method	'MofGen! by Chris Wilmer'
_symmetry_space_group_name_H-M	'P1'
_symmetry_Int_Tables_number	1
_symmetry_cell_setting	triclinic
loop_
_symmetry_equiv_pos_as_xyz
  x,y,z
_cell_length_a	21.883469
_cell_length_b	21.882911
_cell_length_c	21.879399
_cell_angle_alpha	60.006540
_cell_angle_beta	60.013207
_cell_angle_gamma	59.992231
loop_
_atom_site_label
_atom_site_type_symbol
_atom_site_fract_x
_atom_site_fract_y
_atom_site_fract_z
O1	O	0.084645	-0.892842	0.746620
O2	O	0.031867	-0.695139	0.601571
O3	O	0.157054	-0.820237	0.601476
O4	O	-0.040542	-0.767744	0.746716
O5	O	0.198586	-0.778715	0.642912
O6	O	0.073399	-0.653617	0.643007
O7	O	0.126177	-0.851320	0.788056
Cu8	Cu	0.103580	-0.748677	0.719315
Cu9	Cu	0.054464	-0.797782	0.670313
O10	O	0.000990	-0.726222	0.788151
N11	N	0.138128	-0.714145	0.753785
N12	N	0.019923	-0.832320	0.635843
C13	C	0.190018	-0.547369	0.805644
C14	C	0.190029	-0.662289	0.805630
C15	C	0.218780	-0.633565	0.834353
C16	C	0.344122	-0.611968	0.768360
C17	C	0.422474	-0.638085	0.742222
C18	C	0.422504	-0.764859	0.790561
C19	C	0.344154	-0.738739	0.816702
C20	C	0.208899	-0.508180	0.728617
C21	C	0.182748	-0.429822	0.702522
C22	C	0.118843	-0.429847	0.830485
C23	C	0.144993	-0.508205	0.856580
C24	C	0.112994	-0.643364	0.824587
C25	C	0.086865	-0.669476	0.798467
C26	C	0.214799	-0.733437	0.734451
C27	C	0.240932	-0.707325	0.760562
C28	C	0.113084	-0.643389	0.959747
C29	C	0.087018	-0.669524	1.038102
C30	C	0.214996	-0.733501	1.038048
C31	C	0.241061	-0.707367	0.959690
C32	C	0.190103	-0.662308	0.920542
C33	C	0.304966	-0.662293	0.805598
C34	C	-0.117460	-0.854702	0.612901
C35	C	-0.002405	-0.854864	0.498145
C36	C	-0.002621	-0.969735	0.613108
C37	C	-0.002603	-0.854858	0.613180
C38	C	-0.031272	-0.883541	0.584334
N39	N	0.460550	-0.714150	0.753681
O40	O	0.699805	-0.721060	0.574973
O41	O	0.700047	-0.866553	0.772482
O42	O	0.699952	-0.866219	0.647213
O43	O	0.699900	-0.721394	0.700242
O44	O	0.575478	-0.824800	0.688791
O45	O	0.575573	-0.825134	0.814060
O46	O	0.575331	-0.679641	0.616551
Cu47	Cu	0.564087	-0.748606	0.719102
Cu48	Cu	0.711292	-0.797588	0.669931
O49	O	0.575426	-0.679975	0.741820
N50	N	0.814828	-0.832044	0.635345
N51	N	0.138106	-0.391772	0.753815
O52	O	-0.040520	-0.152377	0.746758
O53	O	0.156993	-0.152371	0.601281
O54	O	0.031698	-0.152390	0.601639
O55	O	0.084775	-0.152358	0.746401
O56	O	0.073234	-0.276876	0.643130
O57	O	0.198529	-0.276856	0.642772
O58	O	0.001015	-0.276863	0.788249
Cu59	Cu	0.103564	-0.288226	0.719299
Cu60	Cu	0.054444	-0.141007	0.670231
O61	O	0.126310	-0.276844	0.787892
N62	N	0.019892	-0.037461	0.635717
N63	N	0.138332	-0.714192	1.076133
O64	O	0.131293	-0.892804	1.315506
O65	O	-0.014162	-0.695219	1.315533
O66	O	-0.013826	-0.820490	1.315480
O67	O	0.130957	-0.767533	1.315559
O68	O	0.027651	-0.778981	1.191001
O69	O	0.027314	-0.653710	1.191054
O70	O	0.172770	-0.851295	1.191026
Cu71	Cu	0.103829	-0.748713	1.179674
Cu72	Cu	0.054778	-0.797802	1.326885
O73	O	0.172434	-0.726024	1.191079
N74	N	0.020275	-0.832331	1.430426
C75	C	0.047687	-0.649466	0.602306
C76	C	0.202716	-0.804385	0.602188
C77	C	0.110357	-0.896993	0.787321
C78	C	-0.044672	-0.742074	0.787439
C79	C	0.637839	-0.865879	0.818154
C80	C	0.637724	-0.865466	0.663023
C81	C	0.637536	-0.680313	0.570880
C82	C	0.637655	-0.680728	0.726010
C83	C	0.202592	-0.214459	0.601942
C84	C	0.047481	-0.214636	0.602435
C85	C	-0.044635	-0.214620	0.787537
C86	C	0.110528	-0.214598	0.787096
C87	C	-0.013455	-0.649572	1.253296
C88	C	-0.013030	-0.804697	1.253206
C89	C	0.172063	-0.896942	1.253263
C90	C	0.171648	-0.741808	1.253325
H91	H	0.024299	-0.654107	1.070013
C92	C	-0.121260	-0.214622	0.849241
H93	H	-0.121307	-0.214619	0.892685
H94	H	-0.159356	-0.171216	0.832088
H95	H	-0.130381	-0.258044	0.861026
C96	C	0.279379	-0.819494	0.540567
H97	H	0.279501	-0.776164	0.497070
H98	H	0.317452	-0.831340	0.557750
H99	H	0.288471	-0.860295	0.528856
H100	H	-0.059121	-0.592825	1.253304
H101	H	-0.058496	-0.816008	1.253133
C102	C	0.637627	-0.619261	0.741333
H103	H	0.637571	-0.575689	0.698079
H104	H	0.594242	-0.607642	0.782182
H105	H	0.681062	-0.636529	0.753179
C106	C	0.032138	-0.214646	0.540993
H107	H	0.075386	-0.214641	0.497426
H108	H	0.020266	-0.258059	0.558288
H109	H	-0.008700	-0.171231	0.529351
C110	C	0.125578	-0.973714	0.848862
H111	H	0.175125	-1.005067	0.830642
H112	H	0.119986	-0.967234	0.891409
H113	H	0.091018	-0.996181	0.862493
H114	H	0.259199	-0.214112	0.556156
H115	H	0.121892	-0.214588	0.832572
C116	C	0.325785	-0.728182	0.916570
H117	H	0.352397	-0.758751	0.951109
H118	H	0.338619	-0.754760	0.885998
H119	H	0.338610	-0.683869	0.886009
H120	H	0.637900	-0.911553	0.874882
C121	C	0.233757	-0.973599	1.253250
H122	H	0.215681	-1.005042	1.253234
H123	H	0.276286	-0.967048	1.209849
H124	H	0.247356	-0.996004	1.296672
C125	C	0.233098	-0.726507	1.253341
H126	H	0.214808	-0.676940	1.253347
H127	H	0.246741	-0.761040	1.296748
H128	H	0.275655	-0.732089	1.209925
H129	H	0.071582	-0.606692	0.927876
H130	H	-0.101428	-0.730886	0.833046
C131	C	0.271052	-0.783056	1.081102
H132	H	0.320654	-0.790582	1.046528
H133	H	0.263543	-0.759142	1.111674
H134	H	0.263549	-0.830029	1.111658
H135	H	0.637745	-0.910963	0.651673
C136	C	0.637432	-0.618600	0.494258
H137	H	0.637398	-0.575140	0.494200
H138	H	0.680821	-0.635730	0.456150
H139	H	0.594001	-0.606846	0.485160
C140	C	0.002129	-0.648657	0.819304
H141	H	-0.006143	-0.670651	0.797287
H142	H	-0.019855	-0.666684	0.872171
H143	H	-0.019891	-0.595783	0.801292
C144	C	0.270794	-0.782977	0.684883
H145	H	0.320414	-0.790502	0.677335
H146	H	0.263285	-0.829943	0.708798
H147	H	0.263236	-0.759038	0.637923
H148	H	0.303660	-0.722726	0.745118
C149	C	0.301083	-0.794100	0.857661
H150	H	0.335646	-0.843368	0.860521
H151	H	0.270543	-0.792105	0.906753
H152	H	0.270496	-0.780986	0.830970
H153	H	0.071542	-0.606694	0.861281
H154	H	0.454413	-0.827107	0.799589
H155	H	0.454353	-0.597104	0.711898
H156	H	0.036413	-0.592673	0.556752
H157	H	0.312222	-0.549720	0.759316
H158	H	0.245557	-0.540066	0.687141
H159	H	0.198119	-0.397913	0.639797
H160	H	0.082193	-0.397958	0.871963
H161	H	0.129609	-0.540114	0.919306
