data_functionalizedCrystal
_audit_creation_method	'MofGen! by Chris Wilmer'
_symmetry_space_group_name_H-M	'P1'
_symmetry_Int_Tables_number	1
_symmetry_cell_setting	triclinic
loop_
_symmetry_equiv_pos_as_xyz
  x,y,z
_cell_length_a	12.759401
_cell_length_b	13.032721
_cell_length_c	12.759393
_cell_angle_alpha	97.148028
_cell_angle_beta	89.981504
_cell_angle_gamma	97.204304
loop_
_atom_site_label
_atom_site_type_symbol
_atom_site_fract_x
_atom_site_fract_y
_atom_site_fract_z
Zn1	Zn	1.553098	-0.415970	-0.647064
Zn2	Zn	1.530656	-0.590752	-0.493688
Zn3	Zn	1.377393	-0.416025	-0.471410
Zn4	Zn	1.355063	-0.590671	-0.669319
O5	O	1.454052	-0.503355	-0.570370
O6	O	1.697140	-0.439166	-0.626728
O7	O	1.510279	-0.567631	-0.343719
O8	O	1.419437	-0.269780	-0.476074
O9	O	1.680653	-0.567577	-0.514043
O10	O	1.548527	-0.269740	-0.605126
O11	O	1.397677	-0.439259	-0.327352
O12	O	1.227411	-0.439181	-0.497654
O13	O	1.381379	-0.567440	-0.813381
O14	O	1.211005	-0.567493	-0.643057
O15	O	1.526875	-0.439088	-0.797030
O16	O	1.488626	-0.736978	-0.535623
O17	O	1.359619	-0.736919	-0.664659
C18	C	1.181087	-0.503335	-0.570354
C19	C	1.064309	-0.503352	-0.570375
C20	C	1.000918	-0.570271	-0.645989
C21	C	0.891192	-0.570285	-0.646002
C22	C	0.908258	-0.436457	-0.494778
C23	C	1.017982	-0.436439	-0.494770
C24	C	0.991064	-0.647539	-0.733294
C25	C	0.881338	-0.647552	-0.733307
C26	C	1.419293	-0.774866	-0.604997
C27	C	1.404519	-0.891020	-0.619845
C28	C	1.461819	-0.942800	-0.562668
C29	C	1.446551	-1.062851	-0.578013
C30	C	1.728083	-0.503375	-0.570388
C31	C	1.844859	-0.503383	-0.570395
C32	C	1.454139	-0.503249	-0.844390
C33	C	1.454176	-0.503204	-0.961161
C34	C	1.488976	-0.230782	-0.535632
C35	C	1.503859	-0.114628	-0.520829
C36	C	1.529946	-0.436365	-1.007510
C37	C	1.529976	-0.436327	-1.117230
C38	C	1.378462	-0.569977	-1.134243
C39	C	1.378429	-0.570009	-1.024525
C40	C	1.617424	-0.359206	-0.997689
C41	C	1.617454	-0.359168	-1.107409
C42	C	1.454036	-0.503384	-0.297407
C43	C	1.454240	-0.503135	-0.180599
H44	H	0.841202	-0.728468	-0.721700
H45	H	1.564228	-1.070087	-0.460517
H46	H	1.386190	-1.107394	-0.638333
C47	C	0.747634	-0.377068	-0.427635
C48	C	0.857330	-0.362921	-0.411664
H49	H	0.716196	-0.331675	-0.376316
H50	H	0.731630	-0.361851	-0.496301
H51	H	0.720680	-0.447272	-0.421101
H52	H	0.884285	-0.292719	-0.418206
H53	H	0.873342	-0.378131	-0.342981
H54	H	1.696054	-0.380844	-1.139953
H55	H	1.316790	-0.624365	-1.185846
C56	C	1.348992	-0.924744	-0.801983
C57	C	1.323034	-0.951147	-0.701269
H58	H	1.298688	-0.961867	-0.852252
H59	H	1.348554	-0.851964	-0.802346
H60	H	1.417334	-0.942511	-0.819661
H61	H	1.254695	-0.933373	-0.683588
H62	H	1.323460	-1.023943	-0.700904
C63	C	1.134008	-0.746027	-0.708324
C64	C	1.023739	-0.751269	-0.707008
H65	H	1.154178	-0.810064	-0.692089
H66	H	1.158597	-0.733638	-0.776450
H67	H	1.164029	-0.690832	-0.657309
H68	H	0.993717	-0.806460	-0.758029
H69	H	0.999138	-0.763670	-0.638872
C70	C	0.951964	-0.600729	-0.903864
C71	C	1.035039	-0.618394	-0.839464
H72	H	0.979116	-0.582729	-0.969403
H73	H	0.902758	-0.662151	-0.916023
H74	H	0.917688	-0.545310	-0.869847
H75	H	1.069310	-0.673819	-0.873478
H76	H	1.084264	-0.556964	-0.827307
C77	C	1.592650	-0.183670	-1.020485
C78	C	1.601986	-0.249961	-0.943568
H79	H	1.583112	-0.116232	-0.987070
H80	H	1.654967	-0.179260	-1.061278
H81	H	1.533527	-0.210554	-1.065259
H82	H	1.661115	-0.223081	-0.898799
H83	H	1.539663	-0.254367	-0.902757
H84	H	1.069592	-0.381940	-0.433204
C85	C	1.781994	-0.424036	-1.041732
C86	C	1.716737	-0.398355	-0.956727
H87	H	1.843307	-0.448200	-1.016439
H88	H	1.744782	-0.477233	-1.090397
H89	H	1.802164	-0.364083	-1.075998
H90	H	1.696561	-0.458310	-0.922466
H91	H	1.753956	-0.345154	-0.908044
H92	H	0.851032	-0.618663	-0.806972
C93	C	1.491991	-0.820019	-0.405777
C94	C	1.543304	-0.882674	-0.481244
H95	H	1.542298	-0.782907	-0.355505
H96	H	1.458030	-0.771984	-0.439664
H97	H	1.440854	-0.862681	-0.370968
H98	H	1.594436	-0.840012	-0.516059
H99	H	1.577282	-0.930715	-0.447353
H100	H	1.316727	-0.624432	-0.986792
H101	H	1.598167	-0.282271	-1.131644
