data_functionalizedCrystal
_audit_creation_method	'MofGen! by Chris Wilmer'
_symmetry_space_group_name_H-M	'P1'
_symmetry_Int_Tables_number	1
_symmetry_cell_setting	triclinic
loop_
_symmetry_equiv_pos_as_xyz
  x,y,z
_cell_length_a	11.026607
_cell_length_b	10.967829
_cell_length_c	7.540329
_cell_angle_alpha	77.868523
_cell_angle_beta	89.997535
_cell_angle_gamma	96.380563
loop_
_atom_site_label
_atom_site_type_symbol
_atom_site_fract_x
_atom_site_fract_y
_atom_site_fract_z
O1	O	1.614524	0.523510	-0.307476
O2	O	1.260721	0.463898	-0.289260
O3	O	1.445781	0.313887	-0.243405
O4	O	1.429463	0.673521	-0.353331
O5	O	1.445770	0.313882	0.051561
O6	O	1.260710	0.463893	0.005707
O7	O	1.614512	0.523506	-0.012509
Cu8	Cu	1.437610	0.493699	0.023531
Cu9	Cu	1.437623	0.493705	-0.325301
O10	O	1.429452	0.673516	-0.058364
C11	C	1.215413	0.452898	-0.138416
C12	C	1.080425	0.420115	-0.128397
C13	C	1.444588	0.267128	-0.081634
C14	C	1.441033	0.127805	-0.039060
C15	C	1.007374	0.510636	-0.156067
C16	C	0.867857	0.476755	-0.145714
C17	C	1.439454	0.065699	-0.172882
C18	C	1.435779	-0.078299	-0.128883
C19	C	1.659820	0.534505	-0.163357
C20	C	1.794808	0.567289	-0.173387
C21	C	1.430645	0.720275	-0.220139
C22	C	1.434200	0.859599	-0.262725
N23	N	1.437610	0.493696	0.268881
N24	N	1.437633	0.493700	-0.570648
H25	H	1.048120	0.613218	-0.187412
F26	F	1.027174	0.286030	-0.087401
F27	F	1.433982	-0.148131	0.063459
F28	F	0.814612	0.342663	-0.104715
F29	F	1.435950	-0.070576	-0.455067
F30	F	1.439236	0.057968	0.153273
F31	F	1.441263	0.135537	-0.365215
F32	F	0.848051	0.701381	-0.214353
