data_functionalizedCrystal
_audit_creation_method	'MofGen! by Chris Wilmer'
_symmetry_space_group_name_H-M	'P1'
_symmetry_Int_Tables_number	1
_symmetry_cell_setting	triclinic
loop_
_symmetry_equiv_pos_as_xyz
  x,y,z
_cell_length_a	29.999520
_cell_length_b	29.998686
_cell_length_c	29.995014
_cell_angle_alpha	60.005185
_cell_angle_beta	60.010401
_cell_angle_gamma	59.993433
loop_
_atom_site_label
_atom_site_type_symbol
_atom_site_fract_x
_atom_site_fract_y
_atom_site_fract_z
O1	O	0.061772	-0.651300	0.544623
O2	O	0.023267	-0.507084	0.438819
O3	O	0.114589	-0.598332	0.438743
O4	O	-0.029550	-0.560051	0.544699
O5	O	0.144886	-0.568039	0.468961
O6	O	0.053564	-0.476791	0.469038
O7	O	0.092069	-0.621007	0.574841
Zn8	Zn	0.077627	-0.544089	0.526737
Zn9	Zn	0.037709	-0.584002	0.486923
O10	O	0.000748	-0.529758	0.574918
N11	N	0.104871	-0.516854	0.553912
N12	N	0.010470	-0.611242	0.459748
C13	C	0.143162	-0.478782	0.827124
C14	C	0.378203	-0.478734	0.591892
C15	C	0.143005	-0.478752	0.591997
C16	C	0.142986	-0.243586	0.592008
C17	C	0.180857	-0.357087	0.629814
C18	C	0.180866	-0.440920	0.629807
C19	C	0.201840	-0.419964	0.650755
C20	C	0.293272	-0.404201	0.602606
C21	C	0.350426	-0.423248	0.583534
C22	C	0.350451	-0.515727	0.618798
C23	C	0.293297	-0.496678	0.637872
C24	C	0.194628	-0.328499	0.573626
C25	C	0.175551	-0.271340	0.554591
C26	C	0.128936	-0.271362	0.647935
C27	C	0.148014	-0.328521	0.666970
C28	C	0.124672	-0.427119	0.643641
C29	C	0.105611	-0.446170	0.624592
C30	C	0.198934	-0.492820	0.577889
C31	C	0.217998	-0.473770	0.596931
C32	C	0.124740	-0.427136	0.742229
C33	C	0.105728	-0.446202	0.799386
C34	C	0.199085	-0.492863	0.799337
C35	C	0.218096	-0.473798	0.742178
C36	C	0.180923	-0.440933	0.713626
C37	C	0.264710	-0.440915	0.629773
C38	C	0.121509	-0.499370	0.889991
C39	C	0.441068	-0.498953	0.570621
C40	C	0.121297	-0.499349	0.571429
C41	C	0.121653	-0.180715	0.571802
C42	C	-0.111071	-0.648912	0.421584
C43	C	-0.027286	-0.649018	0.421777
C44	C	-0.048200	-0.669944	0.400740
C45	C	-0.064036	-0.761340	0.448814
C46	C	-0.045033	-0.818500	0.467893
C47	C	0.047447	-0.818609	0.432797
C48	C	0.028444	-0.761451	0.413717
C49	C	-0.139731	-0.662677	0.477755
C50	C	-0.196885	-0.643554	0.496701
C51	C	-0.196717	-0.596907	0.403303
C52	C	-0.139562	-0.616030	0.384357
C53	C	-0.041053	-0.592827	0.407952
C54	C	-0.022041	-0.573809	0.427083
C55	C	0.024504	-0.667167	0.473848
C56	C	0.005492	-0.686188	0.454725
C57	C	-0.040886	-0.592836	0.309259
C58	C	-0.021740	-0.573821	0.252102
C59	C	0.024886	-0.667185	0.252163
C60	C	0.005743	-0.686199	0.309322
C61	C	-0.027145	-0.649023	0.337868
C62	C	-0.027299	-0.732818	0.421728
N63	N	0.492511	-0.516826	0.553742
O64	O	0.679283	-0.525926	0.419277
O65	O	0.679465	-0.632059	0.563349
O66	O	0.679393	-0.631817	0.471975
O67	O	0.679355	-0.526168	0.510650
O68	O	0.588593	-0.601610	0.502313
O69	O	0.588665	-0.601852	0.593686
O70	O	0.588483	-0.495720	0.449614
Zn71	Zn	0.574158	-0.543990	0.526467
Zn72	Zn	0.693790	-0.583788	0.486496
O73	O	0.588555	-0.495962	0.540987
N74	N	0.775436	-0.610952	0.459215
N75	N	0.104844	-0.129269	0.553931
O76	O	-0.029548	0.057600	0.544709
O77	O	0.114530	0.057617	0.438578
O78	O	0.023130	0.057594	0.438850
O79	O	0.061852	0.057623	0.544437
O80	O	0.053431	-0.033213	0.469115
O81	O	0.144831	-0.033190	0.468843
O82	O	0.000753	-0.033207	0.574974
Zn83	Zn	0.077603	-0.047616	0.526714
Zn84	Zn	0.037680	0.072026	0.486838
O85	O	0.092153	-0.033184	0.574702
N86	N	0.010432	0.153679	0.459622
N87	N	0.105130	-0.516904	0.941437
O88	O	0.095923	-0.651280	1.128292
O89	O	-0.010184	-0.507155	1.128318
O90	O	-0.009938	-0.598539	1.128284
O91	O	0.095677	-0.559897	1.128326
O92	O	0.020315	-0.568257	1.037481
O93	O	0.020068	-0.476874	1.037515
O94	O	0.126176	-0.620999	1.037489
Zn95	Zn	0.077925	-0.544128	1.023085
Zn96	Zn	0.038066	-0.584026	1.142722
O97	O	0.125929	-0.529616	1.037523
N98	N	0.010860	-0.611256	1.224371
C99	C	0.034807	-0.473765	0.439352
C100	C	0.147897	-0.586765	0.439257
C101	C	0.080529	-0.654326	0.574308
C102	C	-0.032561	-0.541326	0.574403
C103	C	0.634087	-0.631571	0.596668
C104	C	0.633999	-0.631272	0.483513
C105	C	0.633858	-0.496206	0.416295
C106	C	0.633949	-0.496507	0.529449
C107	C	0.147793	0.012327	0.439058
C108	C	0.034644	0.012187	0.439432
C109	C	-0.032548	0.012195	0.574457
C110	C	0.080639	0.012222	0.574120
C111	C	-0.009670	-0.473857	1.082920
C112	C	-0.009359	-0.587018	1.082860
C113	C	0.125662	-0.654297	1.082887
C114	C	0.125358	-0.541129	1.082927
H115	H	0.094465	-0.400370	0.718985
O116	O	0.197033	0.012602	0.399157
C117	C	0.196957	0.012707	0.352137
H118	H	0.164763	-0.004663	0.364247
H119	H	0.238861	-0.013455	0.331538
H120	H	0.187184	0.056322	0.322604
O121	O	0.165389	-0.703673	1.082804
C122	C	0.178077	-0.713459	1.035758
H123	H	0.141986	-0.687979	1.020077
H124	H	0.186996	-0.758608	1.046320
H125	H	0.215505	-0.701704	1.002835
H126	H	0.158538	-0.532861	1.082933
O127	O	0.024840	0.012202	0.399788
C128	C	0.071711	0.012191	0.352671
H129	H	0.097787	0.029391	0.353122
H130	H	0.058890	0.038548	0.314772
H131	H	0.096359	-0.031374	0.352017
O132	O	0.051136	-0.432813	0.827105
C133	C	0.027385	-0.452367	0.813161
H134	H	0.054463	-0.457964	0.771656
H135	H	-0.014664	-0.421730	0.811224
H136	H	0.023151	-0.493216	0.845326
O137	O	0.235271	-0.524793	0.826984
C138	C	0.288935	-0.532864	0.789479
H139	H	0.288804	-0.526475	0.748744
H140	H	0.316096	-0.576212	0.805972
H141	H	0.305301	-0.502435	0.783392
H142	H	0.263847	-0.485039	0.718893
H143	H	0.088930	0.012231	0.607291
H144	H	0.634015	-0.664461	0.475235
O145	O	0.633812	-0.456519	0.366898
C146	C	0.633781	-0.476171	0.332928
H147	H	0.651017	-0.522679	0.347690
H148	H	0.660094	-0.459404	0.289183
H149	H	0.590208	-0.462323	0.334442
H150	H	0.088756	-0.695753	0.607538
H151	H	-0.042983	-0.432464	1.082928
H152	H	-0.073962	-0.533167	0.607674
H153	H	-0.033252	-0.528055	0.415829
O154	O	-0.048860	-0.596942	1.082775
C155	C	-0.028972	-0.650612	1.082759
H156	H	0.017533	-0.664993	1.065599
H157	H	-0.045569	-0.651379	1.056354
H158	H	-0.042798	-0.678864	1.126308
O159	O	-0.081951	0.012295	0.614159
C160	C	-0.123125	0.059314	0.595491
H161	H	-0.104529	0.092182	0.561483
H162	H	-0.155702	0.075109	0.630685
H163	H	-0.142437	0.048673	0.579210
O164	O	0.088529	-0.395193	0.675549
C165	C	0.034843	-0.387107	0.683680
H166	H	0.034923	-0.393485	0.649223
H167	H	0.007700	-0.343760	0.683995
H168	H	0.018494	-0.417537	0.724395
O169	O	0.024899	-0.424323	0.399757
C170	C	-0.028752	-0.390452	0.419571
H171	H	-0.054623	-0.416799	0.454635
H172	H	-0.047088	-0.364277	0.385345
H173	H	-0.027928	-0.362893	0.434754
H174	H	0.633941	-0.463320	0.537725
H175	H	0.229173	-0.519573	0.551126
O176	O	0.051036	-0.432865	0.638049
C177	C	0.037251	-0.480898	0.666827
H178	H	0.074922	-0.516805	0.656496
H179	H	0.004094	-0.475788	0.654680
H180	H	0.021588	-0.488940	0.712574
O181	O	0.096969	-0.243551	0.683977
C182	C	0.046129	-0.210512	0.675791
H183	H	0.050700	-0.201941	0.632423
H184	H	0.031481	-0.170321	0.682157
H185	H	0.015095	-0.232558	0.706173
O186	O	0.197281	-0.596584	0.399578
C187	C	0.207037	-0.640761	0.386961
H188	H	0.181524	-0.666992	0.423065
H189	H	0.252172	-0.666475	0.378102
H190	H	0.195306	-0.624538	0.349513
O191	O	0.272603	-0.487229	0.583450
C192	C	0.301290	-0.520288	0.550329
H193	H	0.274044	-0.541088	0.557642
H194	H	0.339464	-0.552612	0.561000
H195	H	0.313560	-0.493899	0.505563
O196	O	0.265635	-0.532414	0.664229
C197	C	0.303126	-0.585718	0.667294
H198	H	0.343853	-0.583540	0.633524
H199	H	0.286606	-0.609178	0.662126
H200	H	0.309234	-0.607540	0.708707
H201	H	0.373680	-0.393351	0.561411
O202	O	0.378251	-0.569879	0.626562
C203	C	0.411296	-0.577640	0.575539
H204	H	0.394044	-0.541453	0.542594
H205	H	0.411952	-0.616732	0.577138
H206	H	0.454614	-0.581010	0.565626
H207	H	0.270000	-0.358795	0.596010
H208	H	0.221368	-0.351757	0.543370
H209	H	0.634133	-0.664888	0.638048
H210	H	0.186762	-0.248063	0.508836
H211	H	0.136793	-0.351798	0.712725
H212	H	-0.032937	-0.528066	0.228816
H213	H	0.051655	-0.697459	0.228927
O214	O	-0.072746	-0.556704	0.336970
C215	C	-0.043874	-0.523701	0.323061
H216	H	0.001851	-0.545820	0.307419
H217	H	-0.054146	-0.515056	0.360666
H218	H	-0.055981	-0.483542	0.289852
O219	O	0.019026	-0.740787	0.337088
C220	C	-0.000481	-0.764492	0.323041
H221	H	-0.035681	-0.731916	0.307248
H222	H	-0.015379	-0.798155	0.360613
H223	H	0.033843	-0.782573	0.289904
O224	O	-0.072964	-0.556770	0.376012
C225	C	-0.123800	-0.564924	0.401906
H226	H	-0.119252	-0.608289	0.432120
H227	H	-0.138381	-0.558547	0.369938
H228	H	-0.154874	-0.534530	0.424598
O229	O	0.056322	-0.703350	0.505864
C230	C	0.064406	-0.757022	0.513944
H231	H	0.029978	-0.756875	0.507472
H232	H	0.064628	-0.784148	0.557320
H233	H	0.105150	-0.773442	0.483578
H234	H	0.016700	-0.731943	0.465981
H235	H	0.092838	-0.841923	0.426277
O236	O	0.064203	-0.733828	0.387437
C237	C	0.117478	-0.771360	0.384450
H238	H	0.115246	-0.812084	0.418211
H239	H	0.140919	-0.754877	0.389689
H240	H	0.139349	-0.777466	0.343035
H241	H	-0.074948	-0.841721	0.489940
O242	O	-0.111994	-0.694559	0.513863
C243	C	-0.078941	-0.668623	0.505723
H244	H	-0.070301	-0.638445	0.462344
H245	H	-0.038788	-0.700572	0.512162
H246	H	-0.101004	-0.645881	0.536082
H247	H	-0.220220	-0.654760	0.542443
O248	O	-0.118172	-0.733546	0.456507
C249	C	-0.135567	-0.747503	0.430771
H250	H	-0.099028	-0.763267	0.397052
H251	H	-0.166985	-0.709890	0.412377
H252	H	-0.154754	-0.780636	0.462072
O253	O	-0.224339	-0.565033	0.367093
C254	C	-0.210349	-0.593911	0.334049
H255	H	-0.168877	-0.627222	0.333560
H256	H	-0.208319	-0.564599	0.290684
H257	H	-0.242536	-0.613260	0.351181
O258	O	-0.111657	-0.602758	0.329802
C259	C	-0.078611	-0.650806	0.316025
H260	H	-0.070128	-0.686717	0.353727
H261	H	-0.038380	-0.645750	0.282944
H262	H	-0.100600	-0.658804	0.300264
