data_functionalizedCrystal
_audit_creation_method	'MofGen! by Chris Wilmer'
_symmetry_space_group_name_H-M	'P1'
_symmetry_Int_Tables_number	1
_symmetry_cell_setting	triclinic
loop_
_symmetry_equiv_pos_as_xyz
  x,y,z
_cell_length_a	27.354012
_cell_length_b	27.353283
_cell_length_c	27.349551
_cell_angle_alpha	60.005606
_cell_angle_beta	60.011434
_cell_angle_gamma	59.993282
loop_
_atom_site_label
_atom_site_type_symbol
_atom_site_fract_x
_atom_site_fract_y
_atom_site_fract_z
O1	O	0.067635	-0.714267	0.597330
O2	O	0.567635	-0.214267	1.097330
O3	O	0.025429	-0.556105	0.481282
O4	O	0.525429	-0.056105	0.981282
O5	O	0.125575	-0.656186	0.481214
O6	O	0.625575	-0.156186	0.981214
O7	O	-0.032512	-0.614186	0.597397
O8	O	0.467488	-0.114186	1.097397
O9	O	0.158797	-0.622968	0.514367
O10	O	0.658797	-0.122968	1.014367
O11	O	0.058650	-0.522887	0.514434
O12	O	0.558650	-0.022887	1.014434
O13	O	0.100856	-0.681048	0.630482
O14	O	0.600856	-0.181048	1.130482
Zn15	Zn	0.085028	-0.596693	0.577722
Zn16	Zn	0.585028	-0.096693	1.077722
Zn17	Zn	0.041257	-0.640460	0.534042
Zn18	Zn	0.541257	-0.140460	1.034042
O19	O	0.000709	-0.580967	0.630549
O20	O	0.500709	-0.080967	1.130549
N21	N	0.114901	-0.566828	0.607534
N22	N	0.614901	-0.066828	1.107534
N23	N	0.011389	-0.670331	0.504229
N24	N	0.511389	-0.170331	1.004229
C25	C	0.179404	-0.338196	0.672015
C26	C	0.679404	0.161804	1.172015
C27	C	0.179501	-0.502386	0.836160
C28	C	0.679501	-0.002386	1.336160
C29	C	0.179415	-0.502363	0.671996
C30	C	0.679415	-0.002363	1.171996
C31	C	0.343611	-0.502373	0.671960
C32	C	0.843611	-0.002373	1.171960
C33	C	0.197478	-0.392371	0.690061
C34	C	0.697478	0.107629	1.190061
C35	C	0.197534	-0.484321	0.781984
C36	C	0.697534	0.015679	1.281984
C37	C	0.289434	-0.484312	0.690032
C38	C	0.789434	0.015688	1.190032
C39	C	0.197486	-0.484308	0.690051
C40	C	0.697486	0.015692	1.190051
C41	C	0.156398	-0.269238	0.649045
C42	C	0.656398	0.230762	1.149045
C43	C	0.156418	-0.525342	0.649015
C44	C	0.656418	-0.025342	1.149015
C45	C	0.220484	-0.461329	0.713032
C46	C	0.720484	0.038671	1.213032
C47	C	0.443889	-0.485097	0.619172
C48	C	0.943889	0.014903	1.119172
C49	C	0.506571	-0.505993	0.598266
C50	C	1.006571	-0.005993	1.098266
C51	C	0.506589	-0.607412	0.636940
C52	C	1.006589	-0.107412	1.136940
C53	C	0.443909	-0.586515	0.657848
C54	C	0.943909	-0.086515	1.157848
C55	C	0.171510	-0.237888	0.587422
C56	C	0.671510	0.262112	1.087422
C57	C	0.150593	-0.175201	0.566543
C58	C	0.650593	0.324799	1.066543
C59	C	0.099458	-0.175218	0.668913
C60	C	0.599458	0.324782	1.168913
C61	C	0.120375	-0.237905	0.689792
C62	C	0.620375	0.262095	1.189792
C63	C	0.094789	-0.510201	0.664176
C64	C	0.594789	-0.010201	1.164176
C65	C	0.073888	-0.531091	0.643278
C66	C	0.573888	-0.031091	1.143278
C67	C	0.176239	-0.582263	0.592072
C68	C	0.676239	-0.082263	1.092072
C69	C	0.197142	-0.561373	0.612963
C70	C	0.697142	-0.061373	1.112963
C71	C	0.094933	-0.510244	0.936476
C72	C	0.594933	-0.010244	1.436476
C73	C	0.074073	-0.531151	0.999161
C74	C	0.574073	-0.031151	1.499161
C75	C	0.176453	-0.582335	0.999126
C76	C	0.676453	-0.082335	1.499126
C77	C	0.197312	-0.561429	0.936439
C78	C	0.697312	-0.061429	1.436439
C79	C	0.156551	-0.525382	0.905116
C80	C	0.656551	-0.025382	1.405116
C81	C	0.412561	-0.525357	0.648961
C82	C	0.912561	-0.025357	1.148961
C83	C	-0.098513	-0.688235	0.485867
C84	C	0.401487	-0.188235	0.985867
C85	C	-0.006461	-0.688368	0.394066
C86	C	0.493539	-0.188368	0.894066
C87	C	-0.006645	-0.780264	0.486040
C88	C	0.493355	-0.280264	0.986040
C89	C	-0.006630	-0.688361	0.486097
C90	C	0.493370	-0.188361	0.986097
C91	C	-0.029562	-0.711308	0.463018
C92	C	0.470438	-0.211308	0.963018
N93	N	0.537030	-0.566846	0.607436
N94	N	1.037030	-0.066846	1.107436
O95	O	0.741877	-0.576849	0.459995
O96	O	1.241877	-0.076849	0.959995
O97	O	0.742050	-0.693241	0.618010
O98	O	1.242050	-0.193241	1.118010
O99	O	0.741986	-0.692977	0.517791
O100	O	1.241986	-0.192977	1.017791
O101	O	0.741941	-0.577114	0.560214
O102	O	1.241941	-0.077114	1.060214
O103	O	0.642405	-0.659839	0.551046
O104	O	1.142405	-0.159839	1.051046
O105	O	0.642469	-0.660104	0.651265
O106	O	1.142469	-0.160104	1.151265
O107	O	0.642296	-0.543712	0.493251
O108	O	1.142296	-0.043712	0.993251
Zn109	Zn	0.626572	-0.596646	0.577538
Zn110	Zn	1.126572	-0.096646	1.077538
Zn111	Zn	0.757774	-0.640307	0.533723
Zn112	Zn	1.257774	-0.140307	1.033723
O113	O	0.642360	-0.543976	0.593469
O114	O	1.142360	-0.043976	1.093469
N115	N	0.847316	-0.670107	0.503818
N116	N	1.347316	-0.170107	1.003818
N117	N	0.114877	-0.144758	0.607577
N118	N	0.614877	0.355242	1.107577
O119	O	-0.032498	0.060193	0.597441
O120	O	0.467502	0.560193	1.097441
O121	O	0.125523	0.060193	0.481067
O122	O	0.625523	0.560193	0.981067
O123	O	0.025289	0.060179	0.481345
O124	O	0.525289	0.560179	0.981345
O125	O	0.067736	0.060207	0.597163
O126	O	0.567736	0.560207	1.097163
O127	O	0.058511	-0.039410	0.514543
O128	O	0.558511	0.460590	1.014543
O129	O	0.158745	-0.039397	0.514265
O130	O	0.658745	0.460603	1.014265
O131	O	0.000724	-0.039396	0.630638
O132	O	0.500724	0.460604	1.130638
Zn133	Zn	0.085009	-0.055208	0.577722
Zn134	Zn	0.585009	0.444792	1.077722
Zn135	Zn	0.041238	0.076005	0.533983
Zn136	Zn	0.541238	0.576005	1.033983
O137	O	0.100958	-0.039382	0.630360
O138	O	0.600958	0.460618	1.130360
N139	N	0.011362	0.165555	0.504130
N140	N	0.511362	0.665555	1.004130
N141	N	0.115121	-0.566884	1.029592
N142	N	0.615121	-0.066884	1.529592
O143	O	0.104990	-0.714248	1.234528
O144	O	0.604990	-0.214248	1.734528
O145	O	-0.011371	-0.556177	1.234539
O146	O	0.488629	-0.056177	1.734539
O147	O	-0.011103	-0.656395	1.234497
O148	O	0.488897	-0.156395	1.734497
O149	O	0.104722	-0.614030	1.234569
O150	O	0.604722	-0.114030	1.734569
O151	O	0.022090	-0.623190	1.134913
O152	O	0.522090	-0.123190	1.634913
O153	O	0.021822	-0.522972	1.134954
O154	O	0.521822	-0.022972	1.634954
O155	O	0.138182	-0.681044	1.134943
O156	O	0.638182	-0.181044	1.634943
Zn157	Zn	0.085272	-0.596736	1.119137
Zn158	Zn	0.585272	-0.096736	1.619137
Zn159	Zn	0.041539	-0.640484	1.250344
Zn160	Zn	0.541539	-0.140484	1.750344
O161	O	0.137914	-0.580826	1.134984
O162	O	0.637914	-0.080826	1.634984
N163	N	0.011689	-0.670343	1.339890
N164	N	0.511689	-0.170343	1.839890
C165	C	0.038085	-0.519567	0.481870
C166	C	0.538085	-0.019567	0.981870
C167	C	0.162104	-0.643505	0.481786
C168	C	0.662104	-0.143505	0.981786
C169	C	0.088200	-0.717587	0.629893
C170	C	0.588200	-0.217587	1.129893
C171	C	-0.035819	-0.593649	0.629977
C172	C	0.464181	-0.093649	1.129977
C173	C	0.692280	-0.692701	0.654545
C174	C	1.192280	-0.192701	1.154545
C175	C	0.692203	-0.692374	0.530435
C176	C	1.192203	-0.192374	1.030435
C177	C	0.692063	-0.544251	0.456717
C178	C	1.192063	-0.044251	0.956717
C179	C	0.692144	-0.544580	0.580825
C180	C	1.192144	-0.044580	1.080825
C181	C	0.162000	0.010521	0.481600
C182	C	0.662000	0.510521	0.981600
C183	C	0.037914	0.010381	0.481984
C184	C	0.537914	0.510381	0.981984
C185	C	-0.035795	0.010399	0.630065
C186	C	0.464205	0.510399	1.130065
C187	C	0.088333	0.010415	0.629722
C188	C	0.588333	0.510415	1.129722
C189	C	-0.010799	-0.519660	1.184747
C190	C	0.489201	-0.019660	1.684747
C191	C	-0.010461	-0.643761	1.184677
C192	C	0.489539	-0.143761	1.684677
C193	C	0.137610	-0.717561	1.184734
C194	C	0.637610	-0.217561	1.684734
C195	C	0.137280	-0.593452	1.184783
C196	C	0.637280	-0.093452	1.684783
H197	H	0.061737	-0.480889	0.910978
H198	H	0.561737	0.019111	1.410978
H199	H	0.174144	-0.762957	1.184724
H200	H	0.674144	-0.262957	1.684724
C201	C	0.692124	-0.495406	0.593084
C202	C	1.192124	0.004594	1.093084
C203	C	0.692056	-0.433974	0.543940
C204	C	1.192056	0.066026	1.043940
C205	C	0.692037	-0.384800	0.556199
C206	C	1.192037	0.115200	1.056199
C207	C	0.692085	-0.397059	0.617602
C208	C	1.192085	0.102941	1.117602
C209	C	0.692153	-0.458494	0.666750
C210	C	1.192153	0.041506	1.166750
C211	C	0.692173	-0.507668	0.654491
C212	C	1.192173	-0.007668	1.154491
H213	H	0.692021	-0.424897	0.498482
H214	H	1.192021	0.075103	0.998482
H215	H	0.691987	-0.339322	0.519817
H216	H	1.191987	0.160678	1.019817
H217	H	0.692071	-0.360658	0.626677
H218	H	1.192071	0.139342	1.126677
H219	H	0.692189	-0.467571	0.712208
H220	H	1.192189	0.032429	1.212208
H221	H	0.692223	-0.553146	0.690874
H222	H	1.192223	-0.053146	1.190874
C223	C	0.223442	-0.655595	0.432494
C224	C	0.723442	-0.155595	0.932494
C225	C	0.280676	-0.672048	0.443420
C226	C	0.780676	-0.172048	0.943420
C227	C	0.342015	-0.684138	0.394127
C228	C	0.842015	-0.184138	0.894127
C229	C	0.346119	-0.679776	0.333908
C230	C	0.846119	-0.179776	0.833908
C231	C	0.288883	-0.663322	0.322980
C232	C	0.788883	-0.163322	0.822980
C233	C	0.227544	-0.651232	0.372272
C234	C	0.727544	-0.151232	0.872272
H235	H	0.277640	-0.675278	0.488000
H236	H	0.777640	-0.175278	0.988000
H237	H	0.384384	-0.696318	0.402218
H238	H	0.884384	-0.196318	0.902218
H239	H	0.391525	-0.688726	0.297419
H240	H	0.891525	-0.188726	0.797419
H241	H	0.291919	-0.660092	0.278400
H242	H	0.791919	-0.160092	0.778400
H243	H	0.185174	-0.639052	0.364182
H244	H	0.685174	-0.139052	0.864182
C245	C	-0.097159	-0.581560	0.679268
C246	C	0.402841	-0.081560	1.179268
C247	C	-0.109207	-0.630828	0.740633
C248	C	0.390793	-0.130828	1.240633
C249	C	-0.170546	-0.618739	0.789924
C250	C	0.329454	-0.118739	1.289924
C251	C	-0.219839	-0.557382	0.777851
C252	C	0.280161	-0.057382	1.277851
C253	C	-0.207793	-0.508110	0.716483
C254	C	0.292207	-0.008110	1.216483
C255	C	-0.146453	-0.520199	0.667192
C256	C	0.353547	-0.020199	1.167192
H257	H	-0.072716	-0.676252	0.749573
H258	H	0.427284	-0.176252	1.249573
H259	H	-0.179463	-0.655214	0.835353
H260	H	0.320537	-0.155214	1.335353
H261	H	-0.265246	-0.548433	0.814339
H262	H	0.234754	-0.048433	1.314339
H263	H	-0.244283	-0.462686	0.707543
H264	H	0.255717	0.037314	1.207543
H265	H	-0.137536	-0.483724	0.621763
H266	H	0.362464	0.016276	1.121763
H267	H	0.097420	0.010424	0.666105
H268	H	0.597420	0.510424	1.166105
H269	H	0.173667	-0.584388	1.184797
H270	H	0.673667	-0.084388	1.684797
C271	C	0.692343	-0.742067	0.715851
C272	C	1.192343	-0.242067	1.215851
C273	C	0.692364	-0.730100	0.765200
C274	C	1.192364	-0.230100	1.265200
C275	C	0.692427	-0.779467	0.826507
C276	C	1.192427	-0.279467	1.326507
C277	C	0.692469	-0.840801	0.838465
C278	C	1.192469	-0.340801	1.338465
C279	C	0.692449	-0.852770	0.789115
C280	C	1.192449	-0.352770	1.289115
C281	C	0.692386	-0.803404	0.727808
C282	C	1.192386	-0.303404	1.227808
H283	H	0.692332	-0.684695	0.756349
H284	H	1.192332	-0.184695	1.256349
H285	H	0.692442	-0.770606	0.863039
H286	H	1.192442	-0.270606	1.363039
H287	H	0.692516	-0.877345	0.883848
H288	H	1.192516	-0.377345	1.383848
H289	H	0.692480	-0.898176	0.797966
H290	H	1.192480	-0.398176	1.297966
H291	H	0.692371	-0.812265	0.691276
H292	H	1.192371	-0.312265	1.191276
C293	C	0.692224	-0.741548	0.518176
C294	C	1.192224	-0.241548	1.018176
C295	C	0.692177	-0.729289	0.456772
C296	C	1.192177	-0.229289	0.956772
C297	C	0.692198	-0.778464	0.444513
C298	C	1.192198	-0.278464	0.944513
C299	C	0.692267	-0.839896	0.493656
C300	C	1.192267	-0.339896	0.993656
C301	C	0.692314	-0.852157	0.555063
C302	C	1.192314	-0.352157	1.055063
C303	C	0.692293	-0.802983	0.567323
C304	C	1.192293	-0.302983	1.067323
H305	H	0.692126	-0.683811	0.420390
H306	H	1.192126	-0.183811	0.920390
H307	H	0.692163	-0.769387	0.399055
H308	H	1.192163	-0.269387	0.899055
H309	H	0.692283	-0.876298	0.484580
H310	H	1.192283	-0.376298	0.984580
H311	H	0.692365	-0.897636	0.591446
H312	H	1.192365	-0.397636	1.091446
H313	H	0.692328	-0.812060	0.612781
H314	H	1.192328	-0.312060	1.112781
C315	C	0.691990	-0.494882	0.395413
C316	C	1.191990	0.005118	0.895413
C317	C	0.691965	-0.506847	0.346066
C318	C	1.191965	-0.006847	0.846066
C319	C	0.691892	-0.457477	0.284763
C320	C	1.191892	0.042523	0.784763
C321	C	0.691844	-0.396142	0.272806
C322	C	1.191844	0.103858	0.772806
C323	C	0.691870	-0.384174	0.322154
C324	C	1.191870	0.115826	0.822154
C325	C	0.691943	-0.433544	0.383458
C326	C	1.191943	0.066456	0.883458
H327	H	0.692000	-0.552253	0.354916
H328	H	1.192000	-0.052253	0.854916
H329	H	0.691873	-0.466337	0.248232
H330	H	1.191873	0.033663	0.748232
H331	H	0.691791	-0.359595	0.227425
H332	H	1.191791	0.140405	0.727425
H333	H	0.691835	-0.338767	0.313305
H334	H	1.191835	0.161233	0.813305
H335	H	0.691961	-0.424684	0.419989
H336	H	1.191961	0.075316	0.919989
H337	H	0.029071	-0.474132	0.445424
H338	H	0.529071	0.025868	0.945424
C339	C	0.223180	0.010898	0.432114
C340	C	0.723180	0.510898	0.932114
C341	C	0.272473	0.011096	0.444007
C342	C	0.772473	0.511096	0.944007
C343	C	0.333653	0.011473	0.394521
C344	C	0.833653	0.511473	0.894521
C345	C	0.345539	0.011652	0.333143
C346	C	0.845539	0.511652	0.833143
C347	C	0.296245	0.011454	0.321248
C348	C	0.796245	0.511454	0.821248
C349	C	0.235065	0.011077	0.370734
C350	C	0.735065	0.511077	0.870734
H351	H	0.263675	0.010964	0.489445
H352	H	0.763675	0.510964	0.989445
H353	H	0.370144	0.011620	0.403327
H354	H	0.870144	0.511620	0.903327
H355	H	0.390828	0.011932	0.296511
H356	H	0.890828	0.511932	0.796511
H357	H	0.305043	0.011587	0.275810
H358	H	0.805043	0.511587	0.775810
H359	H	0.198574	0.010930	0.361928
H360	H	0.698574	0.510930	0.861928
H361	H	0.023897	-0.518815	1.024687
H362	H	0.523897	-0.018815	1.524687
H363	H	-0.081177	0.010398	0.666600
H364	H	0.418823	0.510398	1.166600
C365	C	0.221291	-0.621974	1.033582
C366	C	0.721291	-0.121974	1.533582
C367	C	0.289070	-0.638622	0.999088
C368	C	0.789070	-0.138622	1.499088
C369	C	0.333907	-0.678264	1.033544
C370	C	0.833907	-0.178264	1.533544
C371	C	0.310965	-0.701259	1.102494
C372	C	0.810965	-0.201259	1.602494
C373	C	0.243183	-0.684612	1.136991
C374	C	0.743183	-0.184612	1.636991
C375	C	0.198346	-0.644970	1.102535
C376	C	0.698346	-0.144970	1.602535
H377	H	0.306057	-0.621599	0.948043
H378	H	0.806057	-0.121599	1.448043
H379	H	0.384085	-0.690587	1.008006
H380	H	0.884085	-0.190587	1.508006
H381	H	0.344156	-0.730605	1.128000
H382	H	0.844156	-0.230605	1.628000
H383	H	0.226196	-0.701635	1.188036
H384	H	0.726196	-0.201635	1.688036
H385	H	0.148168	-0.632647	1.128073
H386	H	0.648168	-0.132647	1.628073
H387	H	-0.047330	-0.474261	1.184750
H388	H	0.452670	0.025739	1.684750
H389	H	0.247489	-0.573760	0.910909
H390	H	0.747489	-0.073760	1.410909
C391	C	0.025644	0.010371	0.432828
C392	C	0.525644	0.510371	0.932828
C393	C	-0.035767	0.010366	0.445090
C394	C	0.464233	0.510366	0.945090
C395	C	-0.048037	0.010356	0.395933
C396	C	0.451963	0.510356	0.895933
C397	C	0.001105	0.010351	0.334515
C398	C	0.501105	0.510351	0.834515
C399	C	0.062520	0.010357	0.322250
C400	C	0.562520	0.510357	0.822250
C401	C	0.074790	0.010367	0.371406
C402	C	0.574790	0.510367	0.871406
H403	H	-0.072148	0.010369	0.490558
H404	H	0.427852	0.510369	0.990558
H405	H	-0.093501	0.010351	0.405013
H406	H	0.406499	0.510351	0.905013
H407	H	-0.007978	0.010344	0.298126
H408	H	0.492022	0.510344	0.798126
H409	H	0.098901	0.010354	0.276782
H410	H	0.598901	0.510354	0.776782
H411	H	0.120254	0.010371	0.362327
H412	H	0.620254	0.510371	0.862327
H413	H	-0.046832	-0.652809	1.184615
H414	H	0.453168	-0.152809	1.684615
H415	H	0.061625	-0.480862	0.693528
H416	H	0.561625	0.019138	1.193528
H417	H	0.023705	-0.518748	0.655609
H418	H	0.523705	-0.018748	1.155609
H419	H	0.209407	-0.611608	0.562721
H420	H	0.709407	-0.111608	1.062721
H421	H	0.247325	-0.573698	0.600612
H422	H	0.747325	-0.073698	1.100612
H423	H	0.418403	-0.619300	0.682106
H424	H	0.918403	-0.119300	1.182106
H425	H	0.532080	-0.473208	0.574011
H426	H	1.032080	0.026792	1.074011
C427	C	0.541073	-0.674685	0.646711
C428	C	1.041073	-0.174685	1.146711
C429	C	0.532488	-0.720267	0.710675
C430	C	1.032488	-0.220267	1.210675
C431	C	0.566975	-0.787541	0.720445
C432	C	1.066975	-0.287541	1.220445
C433	C	0.610047	-0.809233	0.666253
C434	C	1.110047	-0.309233	1.166253
C435	C	0.618634	-0.763651	0.602285
C436	C	1.118634	-0.263651	1.102285
C437	C	0.584147	-0.696377	0.592514
C438	C	1.084147	-0.196377	1.092514
H439	H	0.500601	-0.704209	0.750795
H440	H	1.000601	-0.204209	1.250795
H441	H	0.560617	-0.821284	0.767799
H442	H	1.060617	-0.321284	1.267799
H443	H	0.635576	-0.859034	0.673486
H444	H	1.135576	-0.359034	1.173486
H445	H	0.650521	-0.779708	0.562164
H446	H	1.150521	-0.279708	1.062164
H447	H	0.590505	-0.662634	0.545161
H448	H	1.090505	-0.162634	1.045161
H449	H	0.418366	-0.435297	0.611936
H450	H	0.918366	0.064703	1.111936
H451	H	0.162897	-0.149674	0.516363
H452	H	0.662897	0.350326	1.016363
C453	C	0.211133	-0.272352	0.542598
C454	C	0.711133	0.227648	1.042598
C455	C	0.271574	-0.263723	0.497485
C456	C	0.771574	0.236277	0.997485
C457	C	0.311197	-0.298190	0.452663
C458	C	0.811197	0.201810	0.952663
C459	C	0.290380	-0.341286	0.452954
C460	C	0.790380	0.158714	0.952954
C461	C	0.229937	-0.349917	0.498070
C462	C	0.729937	0.150083	0.998070
C463	C	0.190313	-0.315451	0.542892
C464	C	0.690313	0.184549	1.042892
H465	H	0.286986	-0.231819	0.497268
H466	H	0.786986	0.268181	0.997268
H467	H	0.355942	-0.291800	0.419266
H468	H	0.855942	0.208200	0.919266
H469	H	0.319712	-0.366801	0.419774
H470	H	0.819712	0.133199	0.919774
H471	H	0.214524	-0.381822	0.498287
H472	H	0.714524	0.118178	0.998287
H473	H	0.145569	-0.321840	0.576289
H474	H	0.645569	0.178160	1.076289
C475	C	0.059837	-0.140749	0.713734
C476	C	0.559837	0.359251	1.213734
C477	C	0.083852	-0.149373	0.758817
C478	C	0.583852	0.350627	1.258817
C479	C	0.044229	-0.114907	0.803640
C480	C	0.544229	0.385093	1.303640
C481	C	-0.019409	-0.071817	0.803379
C482	C	0.480591	0.428183	1.303379
C483	C	-0.043428	-0.063190	0.758294
C484	C	0.456572	0.436810	1.258294
C485	C	-0.003805	-0.097657	0.713472
C486	C	0.496195	0.402343	1.213472
H487	H	0.130964	-0.181273	0.759011
H488	H	0.630964	0.318727	1.259011
H489	H	0.062010	-0.121293	0.837014
H490	H	0.562010	0.378707	1.337014
H491	H	-0.048741	-0.046303	0.836559
H492	H	0.451259	0.453697	1.336559
H493	H	-0.090540	-0.031291	0.758100
H494	H	0.409460	0.468709	1.258100
H495	H	-0.021586	-0.091271	0.680097
H496	H	0.478414	0.408729	1.180097
C497	C	0.103750	-0.272389	0.757578
C498	C	0.603750	0.227611	1.257578
C499	C	0.064123	-0.237920	0.802396
C500	C	0.564123	0.262080	1.302396
C501	C	0.047495	-0.272405	0.870185
C502	C	0.547495	0.227595	1.370185
C503	C	0.070496	-0.341358	0.893157
C504	C	0.570496	0.158642	1.393157
C505	C	0.110126	-0.375830	0.848339
C506	C	0.610126	0.124170	1.348339
C507	C	0.126753	-0.341346	0.780550
C508	C	0.626753	0.158654	1.280550
H509	H	0.047094	-0.186874	0.785392
H510	H	0.547094	0.313126	1.285392
H511	H	0.018158	-0.246886	0.903363
H512	H	0.518158	0.253114	1.403363
H513	H	0.058188	-0.366886	0.943339
H514	H	0.558188	0.133114	1.443339
H515	H	0.127155	-0.426877	0.865343
H516	H	0.627155	0.073123	1.365343
H517	H	0.156091	-0.366864	0.747372
H518	H	0.656091	0.133136	1.247372
H519	H	0.097215	-0.763020	0.666340
H520	H	0.597215	-0.263020	1.166340
