data_functionalizedCrystal
_audit_creation_method	'MofGen! by Chris Wilmer'
_symmetry_space_group_name_H-M	'P1'
_symmetry_Int_Tables_number	1
_symmetry_cell_setting	triclinic
loop_
_symmetry_equiv_pos_as_xyz
  x,y,z
_cell_length_a	18.426585
_cell_length_b	12.970454
_cell_length_c	12.970454
_cell_angle_alpha	60.000046
_cell_angle_beta	60.001296
_cell_angle_gamma	89.999510
loop_
_atom_site_label
_atom_site_type_symbol
_atom_site_fract_x
_atom_site_fract_y
_atom_site_fract_z
Zr1	Zr	0.699114	-0.135316	1.128554
O2	O	0.583238	-0.299934	1.343637
O3	O	0.734635	-0.084852	0.913467
O4	O	0.734636	-0.299942	1.128557
O5	O	0.583237	0.084822	1.128546
O6	O	0.854062	-0.299946	1.128564
O7	O	0.583237	-0.084845	1.128547
O8	O	0.854061	0.084809	0.743807
O9	O	0.583239	-0.299933	1.513303
O10	O	0.838912	-0.063332	1.001942
O11	O	0.749785	0.063292	1.001936
O12	O	0.749786	-0.189948	1.255177
O13	O	0.660660	-0.063324	1.255171
Zr14	Zr	0.889584	0.135277	1.128564
Zr15	Zr	0.889584	-0.135323	1.128566
Zr16	Zr	0.699113	0.135284	1.128553
Zr17	Zr	0.699114	-0.135313	1.399152
Zr18	Zr	0.889583	0.135275	0.857967
O19	O	0.854062	0.084814	1.343651
O20	O	0.854063	-0.299944	1.343653
O21	O	0.583238	0.084824	1.343635
O22	O	1.005459	0.299896	0.913481
O23	O	1.005460	-0.084862	0.913483
O24	O	0.734635	0.299906	0.913465
O25	O	1.005460	-0.084860	1.128572
O26	O	0.854061	0.299903	1.128561
O27	O	0.734636	0.299908	1.128554
O28	O	1.005460	0.084807	1.128571
O29	O	0.734637	-0.299938	1.513312
O30	O	0.854060	0.299900	0.743806
O31	O	1.005459	0.299895	0.743815
O32	O	1.005459	0.084804	0.743816
O33	O	0.583238	-0.084842	1.513302
O34	O	0.734637	-0.084847	1.513311
O35	O	0.838911	0.189910	1.001941
O36	O	0.928038	0.063285	1.001947
O37	O	0.838912	-0.063330	1.255182
O38	O	0.749786	0.063294	1.255176
C39	C	0.556099	-0.000010	1.128545
C40	C	0.475240	-0.000008	1.128540
C41	C	0.794348	-0.000022	0.790083
C42	C	0.794348	-0.000023	0.675207
C43	C	0.794348	0.338460	1.128557
C44	C	0.794348	0.453337	1.128557
C45	C	0.179125	-0.000030	1.128584
C46	C	0.261511	-0.000027	1.128578
C47	C	0.327179	-0.000020	1.128562
C48	C	0.409571	-0.000015	1.128556
C49	C	1.032598	-0.000028	1.128573
C50	C	1.113458	-0.000031	1.128578
C51	C	0.794349	-0.338498	1.128561
C52	C	0.794349	-0.453375	1.128562
C53	C	0.794350	-0.000016	1.467035
C54	C	0.794350	-0.000015	1.581911
C55	C	1.032597	-0.000031	0.790097
C56	C	1.113457	-0.000034	0.675226
C57	C	0.794348	0.338457	0.790081
C58	C	0.794347	0.453333	0.675205
C59	C	1.032597	0.338449	0.790095
C60	C	1.113456	0.453322	0.675224
C61	C	0.556100	-0.338487	1.467023
C62	C	0.475241	-0.453360	1.581894
C63	C	0.556100	-0.000008	1.467021
C64	C	0.475241	-0.000004	1.581892
C65	C	0.794350	-0.338496	1.467037
C66	C	0.794350	-0.453371	1.581914
C67	C	1.104906	-0.066141	0.621279
C68	C	1.180875	-0.066170	0.513361
C69	C	1.265394	-0.000084	0.459384
C70	C	1.273942	0.066024	0.513342
C71	C	1.197974	0.066045	0.621265
C72	C	1.197960	0.441171	0.621282
C73	C	1.273943	0.549096	0.513363
C74	C	1.265421	0.669170	0.459380
C75	C	1.180909	0.681319	0.513333
C76	C	1.104927	0.573395	0.621257
C77	C	0.390738	-0.441209	1.635849
C78	C	0.314755	-0.549134	1.743802
C79	C	0.323277	-0.669208	1.797790
C80	C	0.407789	-0.681357	1.743831
C81	C	0.483770	-0.573433	1.635888
C82	C	0.483791	0.066091	1.635850
C83	C	0.407822	0.066090	1.743799
C84	C	0.323304	0.000001	1.797779
C85	C	0.314755	-0.066102	1.743816
C86	C	0.390723	-0.066108	1.635878
H87	H	1.036094	-0.119971	0.665226
H88	H	0.414717	-0.779135	1.787802
H89	H	1.342750	0.539182	0.469446
H90	H	0.383749	-0.119927	1.591948
H91	H	0.261401	-0.757077	1.885684
H92	H	1.204949	0.119884	0.665175
H93	H	1.327244	-0.000110	0.371504
H94	H	1.173897	-0.120003	0.469441
H95	H	1.342767	0.119828	0.469378
H96	H	1.327297	0.757038	0.371501
H97	H	0.245930	-0.119910	1.787784
H98	H	1.204916	0.343409	0.665219
H99	H	1.173983	0.779098	0.469364
H100	H	1.036124	0.583306	0.665163
H101	H	0.383782	-0.343448	1.591898
H102	H	0.245949	-0.539217	1.787717
H103	H	0.552575	-0.583342	1.591958
H104	H	0.552603	0.119918	1.591908
H105	H	0.414800	0.119924	1.787717
H106	H	0.261453	0.000016	1.885670
