data_functionalizedCrystal
_audit_creation_method	'MofGen! by Chris Wilmer'
_symmetry_space_group_name_H-M	'P1'
_symmetry_Int_Tables_number	1
_symmetry_cell_setting	triclinic
loop_
_symmetry_equiv_pos_as_xyz
  x,y,z
_cell_length_a	21.295418
_cell_length_b	25.639240
_cell_length_c	21.295411
_cell_angle_alpha	90.026709
_cell_angle_beta	90.043738
_cell_angle_gamma	90.048568
loop_
_atom_site_label
_atom_site_type_symbol
_atom_site_fract_x
_atom_site_fract_y
_atom_site_fract_z
Zn1	Zn	0.962346	-0.207990	0.356211
Zn2	Zn	0.962244	-0.295410	0.250928
Zn3	Zn	0.857069	-0.208014	0.250921
Zn4	Zn	0.857034	-0.295420	0.356124
O5	O	0.909673	-0.251708	0.303546
O6	O	1.050422	-0.219572	0.342285
O7	O	0.948264	-0.283822	0.162837
O8	O	0.871091	-0.134846	0.264922
O9	O	1.050347	-0.283799	0.264933
O10	O	0.948438	-0.134828	0.342278
O11	O	0.870993	-0.219613	0.162833
O12	O	0.768975	-0.219623	0.264837
O13	O	0.871032	-0.283816	0.444225
O14	O	0.768950	-0.283840	0.342129
O15	O	0.948404	-0.219582	0.444289
O16	O	0.948231	-0.368576	0.264848
O17	O	0.870934	-0.368584	0.342136
C18	C	0.746122	-0.251736	0.303474
C19	C	0.676154	-0.251760	0.303458
C20	C	0.643290	-0.285242	0.343643
C21	C	0.577548	-0.285229	0.343672
C22	C	0.544671	-0.251740	0.303503
C23	C	0.577543	-0.218252	0.263314
C24	C	0.643284	-0.218262	0.263292
N25	N	0.441395	-0.247648	0.248446
N26	N	0.378944	-0.247641	0.248469
C27	C	0.346596	-0.251707	0.303570
N28	N	0.379060	-0.255789	0.358647
N29	N	0.441517	-0.255798	0.358623
C30	C	0.473386	-0.251725	0.303523
C31	C	0.242448	-0.285176	0.343789
C32	C	0.176704	-0.285160	0.343819
C33	C	0.176700	-0.218185	0.263456
C34	C	0.242442	-0.218199	0.263432
C35	C	0.275312	-0.251697	0.303598
C36	C	0.909584	-0.387551	0.303497
C37	C	0.909604	-0.445665	0.303497
C38	C	0.949968	-0.805980	0.343898
C39	C	0.949986	-0.860584	0.343911
O40	O	0.984199	-0.888781	0.378211
N41	N	0.909761	-0.887947	0.303607
C42	C	0.869510	-0.860703	0.263292
O43	O	0.835296	-0.888991	0.229012
C44	C	0.869488	-0.806100	0.263283
C45	C	0.909721	-0.778740	0.303585
C46	C	0.990197	-0.778620	0.384197
C47	C	0.990179	-0.724019	0.384184
C48	C	0.949932	-0.696779	0.343871
C49	C	0.909703	-0.724139	0.303571
C50	C	0.829234	-0.778857	0.222972
C51	C	0.829216	-0.724250	0.222966
C52	C	0.869449	-0.696890	0.263268
C53	C	0.869438	-0.642298	0.263244
N54	N	0.909664	-0.614935	0.303548
C55	C	0.949911	-0.642176	0.343861
C56	C	0.869557	-0.975374	0.263315
C57	C	0.869581	-1.029976	0.263321
C58	C	0.950057	-1.029854	0.343941
C59	C	0.950035	-0.975250	0.343931
C60	C	0.909782	-0.948011	0.303619
C61	C	0.949870	-0.527511	0.343829
C62	C	0.949851	-0.472905	0.343810
C63	C	0.869373	-0.473033	0.263193
C64	C	0.869394	-0.527633	0.263209
C65	C	0.909645	-0.554871	0.303532
O66	O	0.835241	-0.614068	0.228964
O67	O	0.984113	-0.613881	0.378142
C68	C	1.073864	-0.251681	0.303619
C69	C	1.143832	-0.251670	0.303650
C70	C	0.909726	-0.251697	0.467736
C71	C	0.909748	-0.251693	0.537705
C72	C	0.909780	-0.115335	0.303609
C73	C	0.909825	-0.057221	0.303636
C74	C	0.909658	-0.251682	0.139995
C75	C	0.909757	-0.251539	0.070027
C76	C	0.950034	-0.218244	0.570606
C77	C	0.950033	-0.218221	0.636348
C78	C	0.909753	-0.251657	0.669187
C79	C	0.869459	-0.285108	0.636278
C80	C	0.869457	-0.285126	0.570537
N81	N	0.904894	-0.297396	0.772396
N82	N	0.904900	-0.297377	0.834848
C83	C	0.909757	-0.251604	0.867262
N84	N	0.914620	-0.205848	0.834866
N85	N	0.914617	-0.205867	0.772408
C86	C	0.909751	-0.251641	0.740473
C87	C	0.950044	-0.218128	0.971449
C88	C	0.950039	-0.218104	1.037192
C89	C	0.869468	-0.284995	1.037121
C90	C	0.869470	-0.285014	0.971379
C91	C	0.909761	-0.251581	0.938546
H92	H	0.149933	-0.190915	0.230753
H93	H	0.982796	-0.952977	0.376749
C94	C	0.825658	-0.321248	0.935618
C95	C	0.785323	-0.291660	0.897863
C96	C	0.744947	-0.325020	0.864918
H97	H	0.849648	-0.344041	0.909935
H98	H	0.801631	-0.341149	0.964569
H99	H	0.809348	-0.271767	0.868916
H100	H	0.761320	-0.268867	0.923531
H101	H	0.720919	-0.344922	0.893869
H102	H	0.768941	-0.347812	0.839238
H103	H	0.717571	-0.304949	0.839302
C104	C	0.993761	-0.181886	0.935684
C105	C	0.985154	-0.189075	0.871067
C106	C	1.025422	-0.155705	0.838103
H107	H	0.984618	-0.146733	0.946376
H108	H	1.036063	-0.189535	0.946455
H109	H	0.942861	-0.181422	0.860300
H110	H	0.994301	-0.224222	0.860356
H111	H	1.067724	-0.163354	0.848875
H112	H	1.016276	-0.120554	0.848801
H113	H	1.019592	-0.160581	0.794258
H114	H	0.982841	-0.191020	0.543878
C115	C	0.278161	-0.181787	0.219899
C116	C	0.315974	-0.148316	0.255607
C117	C	0.348880	-0.114759	0.215526
H118	H	0.303803	-0.201698	0.192405
H119	H	0.249188	-0.161809	0.195990
H120	H	0.344943	-0.168292	0.279506
H121	H	0.290348	-0.128393	0.283100
H122	H	0.319907	-0.094781	0.191617
H123	H	0.374518	-0.134675	0.188033
H124	H	0.374535	-0.092042	0.239748
C125	C	0.825684	-0.557410	0.219550
C126	C	0.785338	-0.588783	0.255150
C127	C	0.745066	-0.616223	0.214956
H128	H	0.801654	-0.533426	0.195522
H129	H	0.849768	-0.578736	0.192170
H130	H	0.761256	-0.567460	0.282518
H131	H	0.809351	-0.612777	0.279177
H132	H	0.769150	-0.637549	0.187576
H133	H	0.721040	-0.592235	0.190929
H134	H	0.717690	-0.637517	0.239104
H135	H	0.982843	-0.190863	1.063979
C136	C	0.825743	-0.321389	0.534698
C137	C	0.834354	-0.314242	0.470097
C138	C	0.794091	-0.347635	0.437062
H139	H	0.834887	-0.356536	0.545399
H140	H	0.783440	-0.313736	0.545403
H141	H	0.876648	-0.321899	0.459396
H142	H	0.825205	-0.279102	0.459378
H143	H	0.751788	-0.339981	0.447767
H144	H	0.803239	-0.382779	0.447767
H145	H	0.799924	-0.342786	0.393227
C146	C	0.825763	-0.321495	0.671848
C147	C	0.839417	-0.373227	0.655842
C148	C	0.799169	-0.406761	0.688589
H149	H	0.831495	-0.316767	0.715723
H150	H	0.783463	-0.313884	0.661032
H151	H	0.881708	-0.380836	0.666662
H152	H	0.833682	-0.377972	0.611973
H153	H	0.756868	-0.399149	0.677773
H154	H	0.804904	-0.402028	0.732463
H155	H	0.808424	-0.441864	0.677730
C156	C	0.678863	-0.321627	0.387324
C157	C	0.636006	-0.350937	0.422536
C158	C	0.668754	-0.384454	0.462787
H159	H	0.704457	-0.344429	0.363253
H160	H	0.704549	-0.301676	0.414825
H161	H	0.610330	-0.370887	0.395038
H162	H	0.610410	-0.328149	0.446620
H163	H	0.694440	-0.364503	0.490289
H164	H	0.694347	-0.407252	0.438711
H165	H	0.639680	-0.404342	0.486687
C166	C	0.541821	-0.321496	0.387379
C167	C	0.504170	-0.291936	0.427818
C168	C	0.471257	-0.325326	0.468094
H169	H	0.516069	-0.344250	0.363322
H170	H	0.570790	-0.341439	0.411336
H171	H	0.475205	-0.272002	0.403863
H172	H	0.529906	-0.269183	0.451889
H173	H	0.500226	-0.345269	0.492051
H174	H	0.445509	-0.348078	0.444032
H175	H	0.445712	-0.305274	0.495540
H176	H	0.982837	-0.190981	0.663142
H177	H	0.982642	-0.549681	0.376668
C178	C	0.541820	-0.181981	0.219619
C179	C	0.504013	-0.211533	0.179204
C180	C	0.471105	-0.178136	0.138937
H181	H	0.516175	-0.159214	0.243684
H182	H	0.570792	-0.162051	0.195645
H183	H	0.475044	-0.231453	0.203176
H184	H	0.529642	-0.234298	0.155125
H185	H	0.500077	-0.158206	0.114962
H186	H	0.445463	-0.155371	0.163007
H187	H	0.445453	-0.198182	0.111507
C188	C	0.140989	-0.321427	0.387531
C189	C	0.103344	-0.291869	0.427977
C190	C	0.070441	-0.325261	0.468260
H191	H	0.115235	-0.344183	0.363479
H192	H	0.169965	-0.341369	0.411483
H193	H	0.074372	-0.271937	0.404028
H194	H	0.129083	-0.269115	0.452043
H195	H	0.099417	-0.345202	0.492211
H196	H	0.044691	-0.348015	0.444202
H197	H	0.044900	-0.305211	0.495711
H198	H	0.836665	-0.312213	1.063858
C199	C	1.033931	-0.694290	0.427842
C200	C	1.074302	-0.662930	0.392253
C201	C	1.114620	-0.635545	0.432454
H202	H	1.009902	-0.672957	0.455249
H203	H	1.057936	-0.718322	0.451842
H204	H	1.050300	-0.638901	0.368265
H205	H	1.098345	-0.684250	0.364848
H206	H	1.138625	-0.659577	0.456453
H207	H	1.090586	-0.614214	0.459859
H208	H	1.142020	-0.614268	0.408312
C209	C	0.278026	-0.321558	0.387472
C210	C	0.235171	-0.350864	0.422690
C211	C	0.267921	-0.384379	0.462944
H212	H	0.303619	-0.344362	0.363402
H213	H	0.303715	-0.301605	0.414969
H214	H	0.209493	-0.370816	0.395197
H215	H	0.209578	-0.328074	0.446773
H216	H	0.293610	-0.364426	0.490441
H217	H	0.293512	-0.407179	0.438869
H218	H	0.238849	-0.404263	0.486848
C219	C	0.678855	-0.181891	0.219586
C220	C	0.635995	-0.152566	0.184402
C221	C	0.668741	-0.119063	0.144127
H222	H	0.704561	-0.159099	0.243639
H223	H	0.704428	-0.201853	0.192068
H224	H	0.610432	-0.132606	0.211917
H225	H	0.610288	-0.175345	0.160337
H226	H	0.694315	-0.139024	0.116609
H227	H	0.694446	-0.096274	0.168184
H228	H	0.639667	-0.099165	0.120246
H229	H	0.836826	-1.052248	0.230496
C230	C	0.993556	-0.443295	0.387640
C231	C	1.028791	-0.478843	0.422960
C232	C	1.069049	-0.451587	0.463348
H233	H	1.021046	-0.421980	0.363662
H234	H	0.969469	-0.422013	0.415067
H235	H	1.052876	-0.500115	0.395536
H236	H	1.001317	-0.500159	0.446950
H237	H	1.044962	-0.430305	0.490775
H238	H	1.096536	-0.430273	0.439365
H239	H	1.092957	-0.475702	0.487321
H240	H	1.022970	-0.800793	0.417029
C241	C	0.825700	-0.443357	0.219496
C242	C	0.834286	-0.389682	0.228129
C243	C	0.794056	-0.362327	0.187896
H244	H	0.834890	-0.452252	0.177186
H245	H	0.783390	-0.452309	0.228668
H246	H	0.876587	-0.380734	0.218953
H247	H	0.825091	-0.380771	0.270431
H248	H	0.751746	-0.371280	0.197068
H249	H	0.803250	-0.371227	0.145589
H250	H	0.799872	-0.325907	0.193753
C251	C	0.993646	-1.059463	0.387793
C252	C	0.957986	-1.090812	0.428108
C253	C	0.998116	-1.118091	0.468516
H254	H	1.021104	-1.080794	0.363826
H255	H	1.017592	-1.035367	0.411834
H256	H	0.934051	-1.114905	0.404069
H257	H	0.930529	-1.069493	0.452089
H258	H	1.022062	-1.093994	0.492557
H259	H	1.025573	-1.139419	0.444543
H260	H	0.973927	-1.139360	0.495877
C261	C	0.825832	-0.945896	0.219468
C262	C	0.790625	-0.981552	0.184166
C263	C	0.750346	-0.954419	0.143764
H264	H	0.798325	-0.924608	0.243435
H265	H	0.849903	-0.924598	0.192031
H266	H	0.766556	-1.002841	0.211600
H267	H	0.818116	-1.002842	0.160187
H268	H	0.774417	-0.933122	0.116327
H269	H	0.722843	-0.933132	0.167736
H270	H	0.726457	-0.978607	0.119803
C271	C	0.785479	-0.808458	0.179193
C272	C	0.750219	-0.772905	0.143908
C273	C	0.709896	-0.800153	0.103577
H274	H	0.809501	-0.829754	0.151738
H275	H	0.758012	-0.829759	0.203231
H276	H	0.777683	-0.751613	0.119872
H277	H	0.726184	-0.751608	0.171346
H278	H	0.682429	-0.821454	0.127614
H279	H	0.733923	-0.821448	0.076126
H280	H	0.685963	-0.776034	0.079635
H281	H	0.796435	-0.702074	0.190140
