data_functionalizedCrystal
_audit_creation_method	'MofGen! by Chris Wilmer'
_symmetry_space_group_name_H-M	'P1'
_symmetry_Int_Tables_number	1
_symmetry_cell_setting	triclinic
loop_
_symmetry_equiv_pos_as_xyz
  x,y,z
_cell_length_a	19.288864
_cell_length_b	7.088906
_cell_length_c	19.288865
_cell_angle_alpha	96.206494
_cell_angle_beta	96.863755
_cell_angle_gamma	96.167527
loop_
_atom_site_label
_atom_site_type_symbol
_atom_site_fract_x
_atom_site_fract_y
_atom_site_fract_z
O1	O	0.914168	-0.159620	-0.093838
O2	O	0.711913	-0.159493	-0.105521
O3	O	0.818886	-0.159522	0.001453
O4	O	0.807195	-0.159591	-0.200811
O5	O	0.833181	0.158449	0.015779
O6	O	0.726207	0.158479	-0.091194
O7	O	0.928462	0.158351	-0.079511
Cu8	Cu	0.828640	0.187448	-0.084045
Cu9	Cu	0.811735	-0.188590	-0.100987
O10	O	0.821489	0.158381	-0.186485
C11	C	0.693185	-0.000490	-0.097981
C12	C	0.616083	-0.000440	-0.096849
N13	N	0.840535	0.451933	-0.072128
C14	C	0.571385	-0.000491	-0.159620
C15	C	0.498937	-0.000512	-0.158560
C16	C	0.471189	-0.000520	-0.094728
C17	C	0.515898	-0.000457	-0.031949
C18	C	0.588345	-0.000417	-0.033010
C19	C	0.357917	-0.111966	-0.049570
C20	C	0.285470	-0.112018	-0.048513
C21	C	0.247738	-0.000634	-0.091454
C22	C	0.282459	0.110777	-0.135465
C23	C	0.354906	0.110817	-0.136526
C24	C	0.392633	-0.000562	-0.093571
C25	C	0.124483	-0.000705	-0.153079
C26	C	0.052034	-0.000714	-0.152016
C27	C	0.068996	-0.000679	-0.025404
C28	C	0.141444	-0.000651	-0.026468
C29	C	0.169182	-0.000673	-0.090308
C30	C	0.947191	-0.000656	-0.087052
C31	C	1.024291	-0.000719	-0.088184
C32	C	0.825658	-0.000531	0.034492
C33	C	0.824530	-0.000513	0.111597
N34	N	0.799841	0.546926	-0.112904
C35	C	0.814717	-0.000615	-0.219525
C36	C	0.815845	-0.000645	-0.296630
C37	C	0.887296	-0.000543	0.156292
C38	C	0.886234	-0.000573	0.228737
C39	C	0.822404	-0.000534	0.256487
C40	C	0.759628	-0.000514	0.211782
C41	C	0.760691	-0.000504	0.139337
C42	C	0.777233	0.110876	0.369794
C43	C	0.776173	0.110878	0.442238
C44	C	0.819122	-0.000575	0.479931
C45	C	0.863144	-0.112004	0.445172
C46	C	0.864207	-0.111993	0.372727
C47	C	0.821244	-0.000546	0.335040
C48	C	0.880741	-0.000640	0.603180
C49	C	0.879676	-0.000681	0.675626
C50	C	0.753070	-0.000603	0.658669
C51	C	0.754136	-0.000581	0.586224
C52	C	0.817974	-0.000590	0.558484
H53	H	0.462536	-0.000548	-0.209676
H54	H	0.882717	0.533577	-0.029875
H55	H	0.939278	-0.000558	0.133711
O56	O	0.692988	-0.000459	0.091128
H57	H	0.704451	-0.000463	0.036092
O58	O	0.728698	0.231070	0.479725
H59	H	0.691255	0.137136	0.504115
H60	H	0.383174	0.201537	-0.172359
O61	O	0.398611	-0.232120	-0.003257
H62	H	0.362296	-0.309621	0.027514
H63	H	0.898118	-0.202760	0.475859
H64	H	0.937347	-0.000605	0.265135
H65	H	0.757667	0.465291	-0.155160
H66	H	0.932722	-0.000656	0.580593
H67	H	0.900050	-0.202726	0.344429
O68	O	0.690784	-0.000469	0.241711
H69	H	0.647314	-0.000460	0.198456
O70	O	0.947378	-0.000698	0.723840
H71	H	0.991945	-0.000678	0.692377
H72	H	0.701097	-0.000581	0.681262
H73	H	0.015641	-0.000745	-0.203133
O74	O	0.686440	-0.000501	0.538012
H75	H	0.641875	-0.000456	0.569477
O76	O	0.730909	0.231102	0.329142
H77	H	0.700131	0.308607	0.365483
O78	O	0.154408	-0.000685	-0.221929
H79	H	0.130626	-0.130284	-0.257927
O80	O	0.601307	-0.000460	-0.228469
H81	H	0.558050	-0.000470	-0.271938
H82	H	0.251739	0.201478	-0.170431
O83	O	0.039080	-0.000688	0.043446
H84	H	-0.018807	-0.000734	0.033639
O85	O	0.636557	-0.000373	0.034697
H86	H	0.675773	0.129252	0.043082
H87	H	0.177838	-0.000620	0.024646
H88	H	0.257205	-0.202743	-0.012679
H89	H	0.493300	-0.000490	0.020022
