data_functionalizedCrystal
_audit_creation_method	'MofGen! by Chris Wilmer'
_symmetry_space_group_name_H-M	'P1'
_symmetry_Int_Tables_number	1
_symmetry_cell_setting	triclinic
loop_
_symmetry_equiv_pos_as_xyz
  x,y,z
_cell_length_a	21.295418
_cell_length_b	29.839132
_cell_length_c	21.295411
_cell_angle_alpha	89.977422
_cell_angle_beta	90.043738
_cell_angle_gamma	89.938925
loop_
_atom_site_label
_atom_site_type_symbol
_atom_site_fract_x
_atom_site_fract_y
_atom_site_fract_z
Zn1	Zn	0.962291	0.178715	0.356229
Zn2	Zn	1.295625	0.512048	0.689563
Zn3	Zn	1.628958	0.845382	1.022896
Zn4	Zn	0.962167	0.253830	0.250953
Zn5	Zn	1.295500	0.587164	0.584286
Zn6	Zn	1.628833	0.920497	0.917620
Zn7	Zn	0.857014	0.178736	0.250939
Zn8	Zn	1.190348	0.512069	0.584273
Zn9	Zn	1.523681	0.845403	0.917606
Zn10	Zn	0.856957	0.253839	0.356150
Zn11	Zn	1.190290	0.587173	0.689483
Zn12	Zn	1.523623	0.920506	1.022816
O13	O	0.909607	0.216280	0.303568
O14	O	1.242941	0.549614	0.636901
O15	O	1.576274	0.882947	0.970235
O16	O	1.050364	0.188667	0.342304
O17	O	1.383697	0.522000	0.675637
O18	O	1.717031	0.855333	1.008970
O19	O	0.948190	0.243874	0.162862
O20	O	1.281523	0.577207	0.496195
O21	O	1.614857	0.910541	0.829529
O22	O	0.871056	0.115866	0.264934
O23	O	1.204389	0.449199	0.598267
O24	O	1.537723	0.782533	0.931601
O25	O	1.050273	0.243854	0.264957
O26	O	1.383606	0.577187	0.598291
O27	O	1.716939	0.910520	0.931624
O28	O	0.948402	0.115851	0.342290
O29	O	1.281736	0.449184	0.675623
O30	O	1.615069	0.782517	1.008957
O31	O	0.870935	0.188703	0.162852
O32	O	1.204268	0.522036	0.496185
O33	O	1.537602	0.855369	0.829518
O34	O	0.768917	0.188711	0.264856
O35	O	1.102251	0.522045	0.598190
O36	O	1.435584	0.855378	0.931523
O37	O	0.870958	0.243869	0.444250
O38	O	1.204291	0.577202	0.777583
O39	O	1.537624	0.910536	1.110916
O40	O	0.768875	0.243889	0.342154
O41	O	1.102208	0.577223	0.675487
O42	O	1.435542	0.910556	1.008821
O43	O	0.948346	0.188675	0.444308
O44	O	1.281680	0.522009	0.777642
O45	O	1.615013	0.855342	1.110975
O46	O	0.948134	0.316699	0.264880
O47	O	1.281467	0.650032	0.598213
O48	O	1.614801	0.983365	0.931547
O49	O	0.870837	0.316705	0.342167
O50	O	1.204170	0.650039	0.675501
O51	O	1.537503	0.983372	1.008834
C52	C	0.746056	0.216304	0.303495
C53	C	1.079389	0.549637	0.636829
C54	C	1.412722	0.882970	0.970162
C55	C	0.676087	0.216325	0.303479
C56	C	1.009421	0.549658	0.636813
C57	C	1.342754	0.882991	0.970146
C58	C	0.643215	0.245094	0.343668
C59	C	0.976549	0.578427	0.677001
C60	C	1.309882	0.911761	1.010335
C61	C	0.577473	0.245083	0.343696
C62	C	0.910806	0.578416	0.677030
C63	C	1.244139	0.911750	1.010363
C64	C	0.544605	0.216307	0.303525
C65	C	0.877938	0.549641	0.636858
C66	C	1.211272	0.882974	0.970191
C67	C	0.577485	0.187532	0.263333
C68	C	0.910819	0.520866	0.596666
C69	C	1.244152	0.854199	0.930000
C70	C	0.643226	0.187541	0.263310
C71	C	0.976560	0.520874	0.596644
C72	C	1.309893	0.854208	0.929977
N73	N	0.441330	0.212791	0.248467
N74	N	0.774664	0.546124	0.581800
N75	N	1.107997	0.879458	0.915134
N76	N	0.378879	0.212785	0.248490
N77	N	0.712212	0.546119	0.581824
N78	N	1.045546	0.879452	0.915157
C79	C	0.346530	0.216279	0.303591
C80	C	0.679864	0.549612	0.636925
C81	C	1.013197	0.882945	0.970258
N82	N	0.378993	0.219787	0.358669
N83	N	0.712326	0.553120	0.692003
N84	N	1.045659	0.886453	1.025336
N85	N	0.441450	0.219795	0.358645
N86	N	0.774783	0.553128	0.691979
N87	N	1.108116	0.886461	1.025312
C88	C	0.473320	0.216294	0.303545
C89	C	0.806653	0.549628	0.636878
C90	C	1.139986	0.882961	0.970212
C91	C	0.242373	0.245038	0.343814
C92	C	0.575706	0.578371	0.677147
C93	C	0.909039	0.911704	1.010481
C94	C	0.176629	0.245023	0.343843
C95	C	0.509962	0.578357	0.677177
C96	C	0.843296	0.911690	1.010510
C97	C	0.176643	0.187475	0.263475
C98	C	0.509976	0.520808	0.596808
C99	C	0.843309	0.854142	0.930141
C100	C	0.242385	0.187487	0.263451
C101	C	0.575718	0.520820	0.596784
C102	C	0.909052	0.854154	0.930118
C103	C	0.275246	0.216271	0.303620
C104	C	0.608579	0.549604	0.636953
C105	C	0.941913	0.882937	0.970286
C106	C	0.909483	0.333003	0.303530
C107	C	1.242816	0.666336	0.636864
C108	C	1.576149	0.999669	0.970197
C109	C	0.909487	0.382937	0.303535
C110	C	1.242820	0.716271	0.636869
C111	C	1.576154	1.049604	0.970202
C112	C	0.949884	0.692565	0.263357
C113	C	1.283218	1.025898	0.596691
C114	C	1.616551	1.359231	0.930024
C115	C	0.949944	0.880238	0.263372
C116	C	1.283278	1.213571	0.596705
C117	C	1.616611	1.546904	0.930038
O118	O	0.984224	0.904489	0.229200
O119	O	1.317557	1.237822	0.562533
O120	O	1.650891	1.571155	0.895866
N121	N	0.909673	0.903722	0.303578
N122	N	1.243007	1.237056	0.636911
N123	N	1.576340	1.570389	0.970245
C124	C	0.869387	0.880286	0.343787
C125	C	1.202720	1.213619	0.677120
C126	C	1.536054	1.546952	1.010453
O127	O	0.835140	0.904567	0.377990
O128	O	1.168473	1.237901	0.711323
O129	O	1.501806	1.571234	1.044656
C130	C	0.869331	0.692614	0.343775
C131	C	1.202664	1.025947	0.677109
C132	C	1.535997	1.359280	1.010442
C133	C	0.909600	0.669131	0.303562
C134	C	1.242933	1.002465	0.636895
C135	C	1.576267	1.335798	0.970228
C136	C	0.990151	0.669082	0.223147
C137	C	1.323484	1.002416	0.556481
C138	C	1.656818	1.335749	0.889814
C139	C	0.990133	0.622167	0.223142
C140	C	1.323466	0.955500	0.556475
C141	C	1.656800	1.288833	0.889809
C142	C	0.949849	0.598734	0.263346
C143	C	1.283182	0.932067	0.596680
C144	C	1.616515	1.265400	0.930013
C145	C	0.909582	0.622216	0.303556
C146	C	1.242915	0.955549	0.636889
C147	C	1.576249	1.288883	0.970223
C148	C	0.829048	0.669178	0.383987
C149	C	1.162381	1.002511	0.717320
C150	C	1.495715	1.335845	1.050653
C151	C	0.829039	0.622257	0.383981
C152	C	1.162372	0.955590	0.717315
C153	C	1.495705	1.288924	1.050648
C154	C	0.869308	0.598775	0.343768
C155	C	1.202641	0.932108	0.677101
C156	C	1.535975	1.265441	1.010434
C157	C	0.869280	0.551867	0.343755
C158	C	1.202613	0.885201	0.677088
C159	C	1.535946	1.218534	1.010421
N160	N	0.909551	0.528383	0.303548
N161	N	1.242884	0.861716	0.636882
N162	N	1.576218	1.195049	0.970215
C163	C	0.949835	0.551816	0.263344
C164	C	1.283169	0.885149	0.596677
C165	C	1.616502	1.218482	0.930011
C166	C	0.869419	0.978816	0.343789
C167	C	1.202752	1.312150	0.677122
C168	C	1.536085	1.645483	1.010456
C169	C	0.869432	1.025734	0.343791
C170	C	1.202765	1.359068	0.677125
C171	C	1.536098	1.692401	1.010458
C172	C	0.949990	1.025683	0.263377
C173	C	1.283324	1.359016	0.596710
C174	C	1.616657	1.692349	0.930044
C175	C	0.949973	0.978764	0.263372
C176	C	1.283307	1.312097	0.596705
C177	C	1.616640	1.645431	0.930039
C178	C	0.909690	0.955332	0.303583
C179	C	1.243023	1.288665	0.636916
C180	C	1.576356	1.621998	0.970249
C181	C	0.949795	0.453290	0.263335
C182	C	1.283128	0.786623	0.596668
C183	C	1.616461	1.119957	0.930002
C184	C	0.949771	0.406370	0.263331
C185	C	1.283105	0.739704	0.596664
C186	C	1.616438	1.073037	0.929998
C187	C	0.869216	0.406426	0.343748
C188	C	1.202549	0.739759	0.677081
C189	C	1.535882	1.073093	1.010414
C190	C	0.869236	0.453341	0.343749
C191	C	1.202569	0.786675	0.677083
C192	C	1.535903	1.120008	1.010416
C193	C	0.909531	0.476772	0.303541
C194	C	1.242864	0.810106	0.636874
C195	C	1.576197	1.143439	0.970208
O196	O	0.835023	0.527587	0.377914
O197	O	1.168356	0.860921	0.711247
O198	O	1.501690	1.194254	1.044580
O199	O	0.984087	0.527526	0.229156
O200	O	1.317421	0.860860	0.562489
O201	O	1.650754	1.194193	0.895823
C202	C	0.949902	0.739480	0.263363
C203	C	1.283236	1.072813	0.596696
C204	C	1.616569	1.406147	0.930030
C205	C	0.909636	0.762962	0.303573
C206	C	1.242969	1.096296	0.636906
C207	C	1.576302	1.429629	0.970239
C208	C	0.869351	0.739529	0.343777
C209	C	1.202685	1.072862	0.677110
C210	C	1.536018	1.406196	1.010444
C211	C	0.909649	0.809880	0.303575
C212	C	1.242982	1.143213	0.636908
C213	C	1.576315	1.476547	0.970242
C214	C	0.949933	0.833313	0.263371
C215	C	1.283267	1.166647	0.596704
C216	C	1.616600	1.499980	0.930037
C217	C	0.990204	0.809829	0.223164
C218	C	1.323538	1.143162	0.556498
C219	C	1.656871	1.476495	0.889831
C220	C	0.990187	0.762913	0.223159
C221	C	1.323520	1.096246	0.556492
C222	C	1.656853	1.429580	0.889825
C223	C	0.829080	0.763014	0.383984
C224	C	1.162413	1.096347	0.717317
C225	C	1.495747	1.429680	1.050650
C226	C	0.829101	0.809929	0.383985
C227	C	1.162434	1.143263	0.717319
C228	C	1.495767	1.476596	1.050652
C229	C	0.869385	0.833362	0.343781
C230	C	1.202718	1.166696	0.677114
C231	C	1.536052	1.500029	1.010448
C232	C	1.073798	0.216257	0.303641
C233	C	1.407131	0.549590	0.636974
C234	C	1.740464	0.882923	0.970308
C235	C	1.143766	0.216247	0.303672
C236	C	1.477099	0.549580	0.637005
C237	C	1.810432	0.882913	0.970339
C238	C	0.909660	0.216271	0.467758
C239	C	1.242993	0.549604	0.801092
C240	C	1.576326	0.882937	1.134425
C241	C	0.909682	0.216267	0.537726
C242	C	1.243015	0.549600	0.871060
C243	C	1.576348	0.882933	1.204393
C244	C	0.909726	1.099102	0.303606
C245	C	1.243059	1.432435	0.636939
C246	C	1.576393	1.765768	0.970272
C247	C	0.909716	1.049167	0.303587
C248	C	1.243050	1.382501	0.636920
C249	C	1.576383	1.715834	0.970254
C250	C	0.909591	0.216257	0.140016
C251	C	1.242925	0.549591	0.473350
C252	C	1.576258	0.882924	0.806683
C253	C	0.909691	0.216135	0.070049
C254	C	1.243025	0.549468	0.403382
C255	C	1.576358	0.882801	0.736715
C256	C	0.949976	0.187526	0.570625
C257	C	1.283310	0.520859	0.903958
C258	C	1.616643	0.854193	1.237291
C259	C	0.949976	0.187507	0.636367
C260	C	1.283309	0.520840	0.969700
C261	C	1.616642	0.854173	1.303034
C262	C	0.909687	0.216236	0.669209
C263	C	1.243020	0.549569	1.002542
C264	C	1.576353	0.882902	1.335876
C265	C	0.869384	0.244978	0.636303
C266	C	1.202718	0.578312	0.969636
C267	C	1.536051	0.911645	1.302969
C268	C	0.869382	0.244994	0.570561
C269	C	1.202715	0.578327	0.903895
C270	C	1.536048	0.911660	1.237228
N271	N	0.904816	0.255537	0.772422
N272	N	1.238149	0.588870	1.105755
N273	N	1.571482	0.922204	1.439088
N274	N	0.904822	0.255521	0.834873
N275	N	1.238155	0.588854	1.168207
N276	N	1.571488	0.922188	1.501540
C277	C	0.909691	0.216190	0.867284
C278	C	1.243024	0.549523	1.200617
C279	C	1.576357	0.882857	1.533950
N280	N	0.914566	0.176875	0.834884
N281	N	1.247899	0.510208	1.168217
N282	N	1.581232	0.843542	1.501550
N283	N	0.914563	0.176891	0.772426
N284	N	1.247896	0.510225	1.105760
N285	N	1.581230	0.843558	1.439093
C286	C	0.909685	0.216222	0.740494
C287	C	1.243018	0.549555	1.073828
C288	C	1.576351	0.882889	1.407161
C289	C	0.949987	0.187426	0.971468
C290	C	1.283320	0.520759	1.304801
C291	C	1.616653	0.854093	1.638134
C292	C	0.949981	0.187406	1.037211
C293	C	1.283315	0.520739	1.370545
C294	C	1.616648	0.854072	1.703878
C295	C	0.869393	0.244882	1.037146
C296	C	1.202727	0.578215	1.370479
C297	C	1.536060	0.911548	1.703812
C298	C	0.869395	0.244898	0.971403
C299	C	1.202729	0.578231	1.304737
C300	C	1.536062	0.911564	1.638070
C301	C	0.909695	0.216171	0.938568
C302	C	1.243029	0.549504	1.271901
C303	C	1.576362	0.882837	1.605235
H304	H	0.982563	0.387253	0.230582
H305	H	1.315897	0.720586	0.563915
H306	H	1.649230	1.053919	0.897249
O307	O	0.993248	0.478559	0.219964
O308	O	1.326582	0.811892	0.553297
O309	O	1.659915	1.145226	0.886630
H310	H	1.021237	0.454342	0.192001
H311	H	1.354570	0.787675	0.525334
H312	H	1.687904	1.121009	0.858668
O313	O	0.993443	0.156511	0.671863
O314	O	1.326776	0.489844	1.005196
O315	O	1.660109	0.823177	1.338530
H316	H	1.021468	0.136540	0.637986
H317	H	1.354802	0.469874	0.971319
H318	H	1.688135	0.803207	1.304652
H319	H	0.836587	0.268304	0.944617
H320	H	1.169920	0.601638	1.277950
H321	H	1.503253	0.934971	1.611284
O322	O	0.785661	0.835251	0.427363
O323	O	1.118994	1.168584	0.760696
O324	O	1.452327	1.501917	1.094030
H325	H	0.753647	0.856664	0.399156
H326	H	1.086981	1.189997	0.732490
H327	H	1.420314	1.523331	1.065823
H328	H	0.836613	0.959741	0.376534
H329	H	1.169947	1.293074	0.709868
H330	H	1.503280	1.626408	1.043201
O331	O	0.678689	0.156513	0.219961
O332	O	1.012023	0.489846	0.553294
O333	O	1.345356	0.823179	0.886628
H334	H	0.708571	0.176594	0.187876
H335	H	1.041905	0.509927	0.521210
H336	H	1.375238	0.843261	0.854543
O337	O	0.825928	0.275963	0.671724
O338	O	1.159262	0.609296	1.005058
O339	O	1.492595	0.942630	1.338391
H340	H	0.797903	0.295949	0.637800
H341	H	1.131236	0.629282	0.971134
H342	H	1.464570	0.962616	1.304467
O343	O	0.542045	0.156494	0.220001
O344	O	0.875378	0.489828	0.553334
O345	O	1.208711	0.823161	0.886668
H346	H	0.554606	0.164148	0.170574
H347	H	0.887939	0.497482	0.503908
H348	H	1.221273	0.830815	0.837241
O349	O	0.141127	0.276054	0.387158
O350	O	0.474460	0.609388	0.720491
O351	O	0.807793	0.942721	1.053824
H352	H	0.111107	0.298850	0.358887
H353	H	0.444440	0.632183	0.692220
H354	H	0.777773	0.965517	1.025554
H355	H	0.149882	0.164043	0.230769
H356	H	0.483216	0.497377	0.564102
H357	H	0.816549	0.830710	0.897436
O358	O	0.993437	0.156539	0.535211
O359	O	1.326770	0.489872	0.868545
O360	O	1.660104	0.823205	1.201878
H361	H	1.025440	0.176650	0.505285
H362	H	1.358774	0.509983	0.838618
H363	H	1.692107	0.843316	1.171951
O364	O	0.825910	0.275994	0.535084
O365	O	1.159244	0.609327	0.868417
O366	O	1.492577	0.942660	1.201750
H367	H	0.854046	0.298857	0.505146
H368	H	1.187379	0.632190	0.838479
H369	H	1.520713	0.965523	1.171812
H370	H	0.669967	0.268531	0.376378
H371	H	1.003300	0.601865	0.709711
H372	H	1.336633	0.935198	1.043044
O373	O	0.785582	0.596988	0.427351
O374	O	1.118915	0.930321	0.760685
O375	O	1.452248	1.263655	1.094018
H376	H	0.813729	0.575578	0.459418
H377	H	1.147063	0.908911	0.792751
H378	H	1.480396	1.242244	1.126084
H379	H	1.022926	0.603050	0.190398
H380	H	1.356259	0.936384	0.523732
H381	H	1.689592	1.269717	0.857065
H382	H	0.550703	0.268510	0.376425
H383	H	0.884036	0.601844	0.709758
H384	H	1.217370	0.935177	1.043092
O385	O	0.993450	0.156441	0.936050
O386	O	1.326784	0.489775	1.269383
O387	O	1.660117	0.823108	1.602717
H388	H	0.986688	0.161286	0.884808
H389	H	1.320021	0.494619	1.218142
H390	H	1.653354	0.827953	1.551475
O391	O	1.033600	0.694353	0.179777
O392	O	1.366933	1.027687	0.513110
O393	O	1.700266	1.361020	0.846443
H394	H	1.061589	0.670135	0.151817
H395	H	1.394922	1.003468	0.485150
H396	H	1.728256	1.336802	0.818484
O397	O	0.993412	0.953437	0.220006
O398	O	1.326746	1.286770	0.553340
O399	O	1.660079	1.620104	0.886673
H400	H	1.021427	0.977619	0.192056
H401	H	1.354761	1.310952	0.525389
H402	H	1.688094	1.644285	0.858722
O403	O	0.785615	0.737742	0.427335
O404	O	1.118948	1.071075	0.760668
O405	O	1.452282	1.404409	1.094002
H406	H	0.757611	0.761959	0.455283
H407	H	1.090945	1.095292	0.788617
H408	H	1.424278	1.428625	1.121950
H409	H	0.982793	0.163999	1.063996
H410	H	1.316126	0.497332	1.397329
H411	H	1.649460	0.830666	1.730663
O412	O	0.825936	0.275869	1.072557
O413	O	1.159269	0.609203	1.405890
O414	O	1.492603	0.942536	1.739224
H415	H	0.832708	0.271032	1.123799
H416	H	1.166042	0.604365	1.457132
H417	H	1.499375	0.937699	1.790466
H418	H	0.269150	0.164062	0.230722
H419	H	0.602483	0.497395	0.564055
H420	H	0.935817	0.830729	0.897388
H421	H	0.836635	1.044850	0.376531
H422	H	1.169968	1.378183	0.709865
H423	H	1.503301	1.711516	1.043198
O424	O	0.277823	0.276074	0.387144
O425	O	0.611157	0.609408	0.720477
O426	O	0.944490	0.942741	1.053811
H427	H	0.243917	0.296073	0.415104
H428	H	0.577250	0.629406	0.748437
H429	H	0.910584	0.962739	1.081771
H430	H	0.796253	0.688289	0.416730
H431	H	1.129587	1.021623	0.750063
H432	H	1.462920	1.354956	1.083397
O433	O	0.993453	1.050960	0.220023
O434	O	1.326787	1.384294	0.553356
O435	O	1.660120	1.717627	0.886690
H436	H	0.986700	1.087529	0.226791
H437	H	1.320033	1.420863	0.560125
H438	H	1.653366	1.754196	0.893458
O439	O	0.825803	0.478673	0.387119
O440	O	1.159137	0.812007	0.720453
O441	O	1.492470	1.145340	1.053786
H442	H	0.797790	0.454494	0.415076
H443	H	1.131124	0.787828	0.748410
H444	H	1.464457	1.121161	1.081743
H445	H	0.836414	0.387339	0.376480
H446	H	1.169748	0.720673	0.709813
H447	H	1.503081	1.054006	1.043146
H448	H	1.022978	0.743797	0.190413
H449	H	1.356311	1.077131	0.523746
H450	H	1.689644	1.410464	0.857080
H451	H	1.023004	0.828916	0.190427
H452	H	1.356337	1.162249	0.523760
H453	H	1.689670	1.495583	0.857093
