data_functionalizedCrystal
_audit_creation_method	'MofGen! by Chris Wilmer'
_symmetry_space_group_name_H-M	'P1'
_symmetry_Int_Tables_number	1
_symmetry_cell_setting	triclinic
loop_
_symmetry_equiv_pos_as_xyz
  x,y,z
_cell_length_a	18.215407
_cell_length_b	12.594516
_cell_length_c	12.594510
_cell_angle_alpha	90.031906
_cell_angle_beta	90.022619
_cell_angle_gamma	90.016501
loop_
_atom_site_label
_atom_site_type_symbol
_atom_site_fract_x
_atom_site_fract_y
_atom_site_fract_z
Zn1	Zn	1.125137	-0.423637	0.601870
Zn2	Zn	1.125059	-0.601665	0.423898
Zn3	Zn	1.002064	-0.423703	0.423900
Zn4	Zn	1.002055	-0.601576	0.601829
O5	O	1.063579	-0.512645	0.512874
O6	O	1.228111	-0.447263	0.578279
O7	O	1.108714	-0.578123	0.274952
O8	O	1.018427	-0.274748	0.447526
O9	O	1.228053	-0.578060	0.447523
O10	O	1.108848	-0.274700	0.578280
O11	O	1.018350	-0.447375	0.274954
O12	O	0.899078	-0.447288	0.447486
O13	O	1.018411	-0.577907	0.750780
O14	O	0.899072	-0.577970	0.578209
O15	O	1.108839	-0.447176	0.750811
O16	O	1.108705	-0.750599	0.447483
O17	O	1.018335	-0.750533	0.578208
C18	C	0.872372	-0.512627	0.512844
C19	C	0.790574	-0.512645	0.512856
C20	C	0.602395	-0.580798	0.580838
C21	C	0.525537	-0.580802	0.580852
C22	C	0.525514	-0.444511	0.444933
C23	C	0.602371	-0.444504	0.444926
C24	C	0.640810	-0.512653	0.512877
C25	C	0.487094	-0.512664	0.512898
C26	C	0.403760	-0.512667	0.512911
C27	C	0.724149	-0.512649	0.512865
C28	C	1.063531	-0.789186	0.512864
C29	C	1.063577	-0.907492	0.512895
C30	C	1.014420	-0.976748	0.583946
C31	C	0.996487	-1.047623	0.486823
C32	C	1.081577	-1.047415	0.610035
C33	C	1.045609	-0.976809	0.415720
C34	C	1.130730	-0.976595	0.538997
C35	C	1.112823	-1.047438	0.441807
C36	C	1.255532	-0.512664	0.512905
C37	C	1.337331	-0.512672	0.512919
C38	C	1.063633	-0.512524	0.790495
C39	C	1.063656	-0.512473	0.908801
C40	C	1.063647	-0.235024	0.512908
C41	C	1.063676	-0.116719	0.512922
C42	C	1.063567	-0.512689	0.236333
C43	C	1.063687	-0.512440	0.118028
C44	C	1.112857	-0.441347	1.048834
C45	C	1.130826	-0.538468	0.978017
C46	C	1.045720	-0.415363	0.978047
C47	C	1.081690	-0.609612	1.048769
C48	C	0.996553	-0.486442	1.048805
C49	C	1.014496	-0.583630	0.978020
H50	H	0.494263	-0.636291	0.636194
H51	H	1.030359	-0.945922	0.333559
H52	H	0.633649	-0.389005	0.389584
O53	O	1.162558	-1.084121	0.370131
C54	C	1.233046	-1.046358	0.396937
H55	H	1.227673	-0.971407	0.447121
H56	H	1.264831	-1.027408	0.321326
H57	H	1.263634	-1.109719	0.444039
H58	H	0.972901	-0.643834	0.947124
O59	O	1.198386	-0.939390	0.565547
C60	C	1.217107	-0.975321	0.668045
H61	H	1.164950	-0.995245	0.713898
H62	H	1.248663	-0.910453	0.711735
H63	H	1.252848	-1.049316	0.661385
H64	H	0.494208	-0.389028	0.389609
H65	H	0.939744	-1.078845	0.464768
H66	H	0.939810	-0.464402	1.079924
O67	O	0.964642	-0.939758	0.655404
C68	C	0.893969	-0.975978	0.627506
H69	H	0.892622	-0.995896	0.539220
H70	H	0.851949	-0.911286	0.645194
H71	H	0.880187	-1.050037	0.675545
O72	O	1.100018	-0.707530	1.085710
C73	C	1.164130	-0.700027	1.148030
H74	H	1.196115	-0.625864	1.124540
H75	H	1.199699	-0.773243	1.134447
H76	H	1.148418	-0.694910	1.235494
H77	H	1.096761	-1.078431	0.692174
H78	H	1.154484	-0.381287	1.079926
H79	H	1.187586	-0.560477	0.946920
O80	O	1.027687	-0.317329	0.941111
C81	C	1.079702	-0.242623	0.977173
H82	H	1.107738	-0.274151	1.051696
H83	H	1.050871	-0.164592	0.996273
H84	H	1.122556	-0.228715	0.912713
H85	H	0.633690	-0.636287	0.636171
