data_functionalizedCrystal
_audit_creation_method	'MofGen! by Chris Wilmer'
_symmetry_space_group_name_H-M	'P1'
_symmetry_Int_Tables_number	1
_symmetry_cell_setting	triclinic
loop_
_symmetry_equiv_pos_as_xyz
  x,y,z
_cell_length_a	14.908783
_cell_length_b	14.908694
_cell_length_c	12.759399
_cell_angle_alpha	86.729978
_cell_angle_beta	86.693869
_cell_angle_gamma	83.203601
loop_
_atom_site_label
_atom_site_type_symbol
_atom_site_fract_x
_atom_site_fract_y
_atom_site_fract_z
Zn1	Zn	1.413420	-0.591784	0.363158
Zn2	Zn	1.404601	-0.440421	0.529284
Zn3	Zn	1.253317	-0.431689	0.363186
Zn4	Zn	1.262030	-0.582993	0.548365
O5	O	1.333342	-0.511722	0.450998
O6	O	1.538921	-0.579038	0.377198
O7	O	1.377196	-0.312596	0.499278
O8	O	1.274599	-0.452950	0.216160
O9	O	1.532442	-0.467833	0.499250
O10	O	1.392227	-0.570571	0.216139
O11	O	1.266048	-0.306180	0.377246
O12	O	1.127802	-0.444426	0.395747
O13	O	1.289449	-0.710826	0.531770
O14	O	1.134203	-0.555589	0.531797
O15	O	1.400675	-0.717285	0.395699
O16	O	1.385645	-0.459309	0.678838
O17	O	1.280898	-0.564056	0.692856
C18	C	1.098158	-0.498106	0.465847
C19	C	0.997547	-0.492303	0.472226
C20	C	0.815242	-0.597373	0.357314
C21	C	0.720709	-0.591924	0.363304
C22	C	0.713945	-0.475950	0.490189
C23	C	0.808478	-0.481400	0.484199
C24	C	0.859124	-0.542115	0.417761
C25	C	0.953659	-0.547568	0.411777
C26	C	0.946893	-0.431591	0.538656
C27	C	0.852360	-0.426141	0.544646
C28	C	1.347018	-0.747817	0.465859
C29	C	1.352846	-0.848427	0.472192
C30	C	1.248037	-1.030803	0.357025
C31	C	1.253509	-1.125335	0.362972
C32	C	1.369258	-1.132024	0.490039
C33	C	1.363786	-1.037492	0.484092
C34	C	1.303174	-0.986885	0.417581
C35	C	1.297706	-0.892352	0.411629
C36	C	1.413450	-0.899042	0.538701
C37	C	1.418923	-0.993574	0.544648
C38	C	1.569444	-0.525390	0.436093
C39	C	1.670057	-0.531215	0.429741
C40	C	1.333285	-0.511698	0.723968
C41	C	1.333346	-0.511723	0.840742
C42	C	1.319771	-0.276548	0.436116
C43	C	1.314119	-0.175948	0.429476
C44	C	1.333425	-0.511767	0.176962
C45	C	1.333460	-0.511786	0.060185
C46	C	1.387957	-0.457251	0.888270
C47	C	1.388017	-0.457284	0.997992
C48	C	1.278846	-0.566264	1.012650
C49	C	1.278792	-0.566235	0.902929
H50	H	0.811111	-0.376706	0.598735
H51	H	1.234429	-0.610645	1.063296
C52	C	0.870954	-0.664163	0.284237
N53	N	0.912916	-0.714470	0.229193
H54	H	1.418593	-1.173243	0.544203
H55	H	0.672693	-0.426510	0.544268
C56	C	1.447973	-0.397291	0.819867
N57	N	1.493181	-0.352130	0.768349
C58	C	1.009367	-0.614352	0.338690
N59	N	1.051324	-0.664652	0.283635
C60	C	1.231030	-0.836685	0.338470
N61	N	1.180805	-0.794760	0.283368
H62	H	0.982631	-0.386602	0.587885
C63	C	1.181368	-0.975134	0.283860
N64	N	1.131151	-0.933205	0.228751
H65	H	1.432489	-0.412929	1.036684
H66	H	1.234321	-0.610597	0.864230
C67	C	1.485390	-1.049240	0.618051
N68	N	1.535384	-1.091163	0.673427
C69	C	1.474105	-0.850724	0.605317
N70	N	1.519790	-0.814331	0.655490
H71	H	0.684984	-0.636919	0.314079
C72	C	1.192859	-1.173642	0.296350
N73	N	1.147174	-1.210026	0.246167
