data_functionalizedCrystal
_audit_creation_method	'MofGen! by Chris Wilmer'
_symmetry_space_group_name_H-M	'P1'
_symmetry_Int_Tables_number	1
_symmetry_cell_setting	triclinic
loop_
_symmetry_equiv_pos_as_xyz
  x,y,z
_cell_length_a	19.902436
_cell_length_b	20.875492
_cell_length_c	20.875641
_cell_angle_alpha	60.662107
_cell_angle_beta	89.997815
_cell_angle_gamma	58.319235
loop_
_atom_site_label
_atom_site_type_symbol
_atom_site_fract_x
_atom_site_fract_y
_atom_site_fract_z
Zr1	Zr	0.611992	0.731574	-0.118017
O2	O	0.501531	0.864558	-0.223482
O3	O	0.650969	0.593299	-0.080788
O4	O	0.649073	0.723959	-0.216435
O5	O	0.499104	0.741750	0.013593
O6	O	0.759639	0.723971	-0.216448
O7	O	0.503426	0.733898	-0.087835
O8	O	0.763029	0.490244	0.026200
O9	O	0.495713	0.975477	-0.229054
O10	O	0.743926	0.652142	-0.070837
O11	O	0.658186	0.657993	0.004867
O12	O	0.655954	0.811829	-0.154840
O13	O	0.570214	0.817679	-0.079135
Zr14	Zr	0.781436	0.744116	0.043730
Zr15	Zr	0.788331	0.731594	-0.118037
Zr16	Zr	0.605097	0.744097	0.043751
Zr17	Zr	0.602712	0.908477	-0.126903
Zr18	Zr	0.790716	0.567213	0.052617
O19	O	0.742460	0.882392	0.006502
O20	O	0.752263	0.864586	-0.223511
O21	O	0.491728	0.882364	0.006530
O22	O	0.891897	0.611132	0.149196
O23	O	0.901700	0.593326	-0.080816
O24	O	0.641165	0.611105	0.149224
O25	O	0.894325	0.733941	-0.087880
O26	O	0.744355	0.751731	0.142149
O27	O	0.633790	0.751719	0.142161
O28	O	0.890002	0.741793	0.013549
O29	O	0.635879	0.975493	-0.229070
O30	O	0.757549	0.500198	0.154784
O31	O	0.897715	0.500213	0.154768
O32	O	0.903196	0.490259	0.026184
O33	O	0.490232	0.985431	-0.100471
O34	O	0.630399	0.985447	-0.100487
O35	O	0.737474	0.663862	0.080553
O36	O	0.823214	0.658011	0.004848
O37	O	0.735242	0.817698	-0.079154
O38	O	0.649502	0.823548	-0.003449
C39	C	0.708321	0.516566	-0.026028
C40	C	0.712260	0.441466	-0.022255
C41	C	0.652373	0.462979	-0.079437
C42	C	0.656077	0.392425	-0.075919
C43	C	0.719666	0.300360	-0.015217
C44	C	0.779560	0.278849	0.041968
C45	C	0.775858	0.349401	0.038446
C46	C	0.737360	0.083265	0.001632
C47	C	0.741055	0.012712	0.005150
C48	C	0.617573	0.126294	-0.112738
C49	C	0.613874	0.196842	-0.116251
C50	C	0.673770	0.175324	-0.059069
N51	N	0.723453	0.228242	-0.011618
N52	N	0.669987	0.247442	-0.062671
C53	C	0.476140	0.737821	-0.037118
C54	C	0.401280	0.737813	-0.037110
C55	C	0.129230	0.737856	-0.037154
C56	C	0.213225	0.637105	0.015608
C57	C	0.291120	0.637061	0.015879
C58	C	0.264198	0.737834	-0.037132
C59	C	0.205874	0.792392	-0.004913
C60	C	0.128332	0.791751	-0.004532
C61	C	0.132090	0.784796	-0.122194
C62	C	0.211065	0.782843	-0.121965
C63	C	0.340472	0.737827	-0.037120
C64	C	0.052954	0.737867	-0.037163
C65	C	0.917288	0.737869	-0.037168
C66	C	0.992148	0.737878	-0.037177
C67	C	0.705338	0.722181	-0.239490
C68	C	0.708265	0.716865	-0.308164
C69	C	0.685107	0.959124	-0.048259
C70	C	0.681168	1.034224	-0.052031
C71	C	0.663721	0.797720	-0.384276
C72	C	0.666482	0.792719	-0.448800
C73	C	0.713783	0.706863	-0.437211
C74	C	0.758332	0.626002	-0.361091
C75	C	0.755575	0.631003	-0.296569
C76	C	0.726956	0.682966	-0.625480
C77	C	0.729707	0.677971	-0.690011
C78	C	0.637858	0.844689	-0.777715
C79	C	0.635102	0.849683	-0.713187
C80	C	0.679654	0.768822	-0.637074
N81	N	0.716604	0.701749	-0.503164
N82	N	0.676838	0.773936	-0.571123
C83	C	0.688090	0.753509	0.165203
C84	C	0.685163	0.758826	0.233878
C85	C	0.928895	0.516590	-0.026053
C86	C	1.007695	0.441499	-0.022289
C87	C	0.699697	0.532230	0.176319
C88	C	0.700710	0.462447	0.248766
C89	C	0.920271	0.532255	0.176294
C90	C	0.996144	0.462479	0.248732
C91	C	0.473157	0.943436	-0.250580
C92	C	0.397284	1.013211	-0.323018
C93	C	0.464533	0.959100	-0.048234
C94	C	0.385733	1.034192	-0.051998
C95	C	0.693731	0.943460	-0.250605
C96	C	0.692719	1.013244	-0.323052
C97	C	1.003313	0.403171	-0.060035
C98	C	1.077347	0.332623	-0.056514
C99	C	1.155763	0.300399	-0.015242
C100	C	1.160142	0.338734	0.022505
C101	C	1.086109	0.409285	0.018979
C102	C	0.742572	0.432739	0.322301
C103	C	0.743519	0.367180	0.390379
C104	C	0.702609	0.331325	0.384919
C105	C	0.660741	0.361039	0.311375
C106	C	0.659789	0.426601	0.243299
C107	C	1.076537	0.426658	0.243233
C108	C	1.147835	0.361105	0.311290
C109	C	1.138737	0.331371	0.384845
C110	C	1.058335	0.367199	0.390343
C111	C	0.987039	0.432755	0.322286
C112	C	0.316890	1.049041	-0.317520
C113	C	0.245592	1.114615	-0.385578
C114	C	0.254689	1.144354	-0.459134
C115	C	0.335092	1.108521	-0.464631
C116	C	0.406388	1.042953	-0.396574
C117	C	0.390115	1.072526	-0.014258
C118	C	0.316080	1.143093	-0.017798
C119	C	0.237665	1.175318	-0.059073
C120	C	0.233285	1.136980	-0.096817
C121	C	0.307319	1.066420	-0.093281
C122	C	0.733638	1.049079	-0.317567
C123	C	0.732703	1.114639	-0.385632
C124	C	0.690843	1.144368	-0.459181
C125	C	0.649923	1.108527	-0.464665
C126	C	0.650864	1.042963	-0.396601
H127	H	0.562105	0.271802	-0.165692
H128	H	0.921582	0.461912	0.326775
Br129	Br	0.800345	0.326868	0.490177
Br130	Br	0.278423	0.716455	-0.162161
Br131	Br	0.496526	1.028811	0.041761
H132	H	0.180132	1.143780	-0.381087
Br133	Br	0.865864	0.153903	0.124348
H134	H	0.196628	1.197744	-0.514544
H135	H	0.775887	0.461926	0.326762
Br136	Br	0.574796	0.421627	-0.153525
H137	H	0.342489	1.132742	-0.524528
H138	H	0.600583	0.537940	-0.128860
H139	H	0.791847	0.565162	-0.234595
Br140	Br	0.602973	0.466906	0.143503
Br141	Br	0.793904	0.561443	-0.674279
Br142	Br	0.790453	1.008748	-0.217758
H143	H	0.703390	0.277940	0.440357
Br144	Br	1.092071	0.461289	0.070217
Br145	Br	0.605223	0.312368	0.303978
Br146	Br	0.127568	0.738145	0.099569
Br147	Br	0.896902	0.446889	-0.116056
Br148	Br	0.818642	0.054053	0.079242
Br149	Br	0.827361	-0.112239	0.087537
H150	H	0.630211	0.858560	-0.510771
H151	H	0.183483	0.866656	-0.041714
Br152	Br	0.595317	0.994345	-0.404060
Br153	Br	0.137198	1.271081	-0.063863
Br154	Br	1.256941	0.312493	0.303811
Br155	Br	1.071383	0.280610	-0.107745
Br156	Br	1.088908	0.467002	0.143416
H157	H	1.196797	0.277991	0.440255
H158	H	1.050940	0.342980	0.450241
H159	H	1.216039	0.242951	-0.012376
H160	H	1.223998	0.312487	0.056108
Br161	Br	0.304520	1.008695	-0.217703
H162	H	0.568810	0.143803	-0.159293
Br163	Br	0.515492	0.994329	-0.404050
H164	H	0.824625	0.331879	0.085010
Br165	Br	0.322044	1.195106	0.033433
Br166	Br	0.362003	0.566225	-0.019641
H167	H	0.218061	0.594314	-0.005568
Br168	Br	0.126857	1.180724	-0.152828
H169	H	0.690083	1.197755	-0.514598
H170	H	0.303740	1.035210	-0.124012
H171	H	0.766023	1.143815	-0.381152
Br172	Br	0.213753	0.576915	0.119679
H173	H	0.329779	0.600702	0.078704
H174	H	0.615842	1.132742	-0.524558
H175	H	0.068656	0.865863	-0.040753
H176	H	0.242658	0.761021	0.056929
Br177	Br	0.132099	0.725339	-0.167882
H178	H	0.072799	0.858972	-0.161628
Br179	Br	0.176241	0.904933	-0.192323
H180	H	0.596587	0.919596	-0.722633
Br181	Br	0.577397	0.954423	-0.881012
Br182	Br	0.787383	0.573225	-0.522191
Br183	Br	0.599521	0.914245	-0.400014
H184	H	0.796849	0.556095	-0.351660
