data_functionalizedCrystal
_audit_creation_method	'MofGen! by Chris Wilmer'
_symmetry_space_group_name_H-M	'P1'
_symmetry_Int_Tables_number	1
_symmetry_cell_setting	triclinic
loop_
_symmetry_equiv_pos_as_xyz
  x,y,z
_cell_length_a	15.298114
_cell_length_b	16.120444
_cell_length_c	15.296720
_cell_angle_alpha	101.987061
_cell_angle_beta	110.778933
_cell_angle_gamma	82.743189
loop_
_atom_site_label
_atom_site_type_symbol
_atom_site_fract_x
_atom_site_fract_y
_atom_site_fract_z
Zn1	Zn	1.291508	-0.589153	-0.318426
Zn2	Zn	1.624842	-0.255819	0.014907
Zn3	Zn	1.958175	0.077514	0.348240
Zn4	Zn	1.310433	-0.707997	-0.170810
Zn5	Zn	1.643767	-0.374663	0.162524
Zn6	Zn	1.977100	-0.041330	0.495857
Zn7	Zn	1.165650	-0.548086	-0.187163
Zn8	Zn	1.498983	-0.214752	0.146170
Zn9	Zn	1.832316	0.118581	0.479504
Zn10	Zn	1.128075	-0.707982	-0.353231
Zn11	Zn	1.461408	-0.374649	-0.019897
Zn12	Zn	1.794741	-0.041316	0.313436
O13	O	1.223917	-0.638304	-0.257407
O14	O	1.557250	-0.304971	0.075926
O15	O	1.890583	0.028362	0.409259
O16	O	1.423009	-0.622110	-0.277435
O17	O	1.756342	-0.288777	0.055898
O18	O	2.089675	0.044556	0.389232
O19	O	1.314873	-0.669604	-0.041701
O20	O	1.648206	-0.336270	0.291632
O21	O	1.981540	-0.002937	0.624966
O22	O	1.190150	-0.436879	-0.196853
O23	O	1.523484	-0.103546	0.136480
O24	O	1.856817	0.229787	0.469813
O25	O	1.436913	-0.709424	-0.168982
O26	O	1.770246	-0.376091	0.164352
O27	O	2.103580	-0.042758	0.497685
O28	O	1.282618	-0.467051	-0.293292
O29	O	1.615951	-0.133718	0.040041
O30	O	1.949285	0.199616	0.373375
O31	O	1.208501	-0.552118	-0.053716
O32	O	1.541834	-0.218784	0.279618
O33	O	1.875168	0.114549	0.612951
O34	O	1.031675	-0.552104	-0.230602
O35	O	1.365009	-0.218770	0.102731
O36	O	1.698342	0.114563	0.436065
O37	O	1.126109	-0.709400	-0.479892
O38	O	1.459442	-0.376067	-0.146558
O39	O	1.792776	-0.042733	0.186775
O40	O	1.004069	-0.669579	-0.352611
O41	O	1.337402	-0.336246	-0.019278
O42	O	1.670736	-0.002912	0.314056
O43	O	1.246183	-0.622096	-0.454321
O44	O	1.579516	-0.288763	-0.120988
O45	O	1.912850	0.044570	0.212345
O46	O	1.278438	-0.824649	-0.202730
O47	O	1.611771	-0.491316	0.130603
O48	O	1.945105	-0.157982	0.463937
O49	O	1.144460	-0.824638	-0.336754
O50	O	1.477793	-0.491305	-0.003421
O51	O	1.811126	-0.157972	0.329913
C52	C	0.984426	-0.606384	-0.297158
C53	C	1.317760	-0.273051	0.036175
C54	C	1.651093	0.060282	0.369508
C55	C	0.881966	-0.592752	-0.314188
C56	C	1.215299	-0.259418	0.019146
C57	C	1.548633	0.073915	0.352479
C58	C	1.209446	-0.854897	-0.271761
C59	C	1.542780	-0.521563	0.061573
C60	C	1.876113	-0.188230	0.394906
C61	C	1.203335	-0.947571	-0.277918
C62	C	1.536668	-0.614238	0.055415
C63	C	1.870001	-0.280905	0.388748
C64	C	0.622191	-0.735775	-0.135928
C65	C	0.955524	-0.402442	0.197405
C66	C	1.288858	-0.069108	0.530738
C67	C	0.718459	-0.748582	-0.119922
C68	C	1.051792	-0.415248	0.213412
C69	C	1.385126	-0.081915	0.546745
C70	C	0.759341	-0.709626	-0.168487
C71	C	1.092674	-0.376292	0.164847
C72	C	1.426007	-0.042959	0.498180
C73	C	0.703945	-0.657860	-0.233061
C74	C	1.037278	-0.324527	0.100272
C75	C	1.370611	0.008807	0.433605
C76	C	0.607669	-0.645047	-0.249064
C77	C	0.941002	-0.311713	0.084269
C78	C	1.274335	0.021620	0.417602
C79	C	0.744818	-0.618897	-0.281623
C80	C	1.078151	-0.285564	0.051711
C81	C	1.411485	0.047769	0.385044
C82	C	0.689422	-0.567132	-0.346197
C83	C	1.022755	-0.233798	-0.012864
C84	C	1.356089	0.099535	0.320469
C85	C	0.593156	-0.554321	-0.362198
C86	C	0.926489	-0.220988	-0.028864
C87	C	1.259822	0.112345	0.304469
C88	C	0.552274	-0.593277	-0.313632
C89	C	0.885607	-0.259944	0.019701
C90	C	1.218941	0.073389	0.353034
C91	C	0.841094	-0.631711	-0.265620
C92	C	1.174427	-0.298377	0.067714
C93	C	1.507761	0.034956	0.401047
C94	C	0.826571	-0.540982	-0.378756
C95	C	1.159905	-0.207649	-0.045422
C96	C	1.493238	0.125684	0.287911
C97	C	0.730304	-0.528176	-0.394762
C98	C	1.063637	-0.194842	-0.061429
C99	C	1.396970	0.138491	0.271904
C100	C	1.255810	-1.158535	-0.225628
C101	C	1.589144	-0.825201	0.107705
C102	C	1.922477	-0.491868	0.441038
C103	C	1.192192	-1.117247	-0.289168
C104	C	1.525525	-0.783914	0.044166
C105	C	1.858858	-0.450580	0.377499
C106	C	1.198394	-1.022831	-0.282907
C107	C	1.531727	-0.689497	0.050427
C108	C	1.865060	-0.356164	0.383760
C109	C	1.249610	-1.252959	-0.231888
C110	C	1.582943	-0.919626	0.101445
C111	C	1.916277	-0.586293	0.434779
C112	C	1.464342	-0.670350	-0.217502
C113	C	1.797675	-0.337017	0.115831
C114	C	2.131008	-0.003683	0.449165
C115	C	1.566797	-0.684006	-0.200496
C116	C	1.900130	-0.350672	0.132837
C117	C	2.233463	-0.017339	0.466170
C118	C	1.179844	-0.670328	-0.502097
C119	C	1.513177	-0.336994	-0.168764
C120	C	1.846510	-0.003661	0.164569
C121	C	1.161062	-0.683974	-0.606369
C122	C	1.494396	-0.350641	-0.273036
C123	C	1.827729	-0.017307	0.060297
C124	C	1.238465	-0.420872	-0.243015
C125	C	1.571798	-0.087539	0.090319
C126	C	1.905131	0.245794	0.423652
C127	C	1.244664	-0.328216	-0.236881
C128	C	1.577997	0.005118	0.096452
C129	C	1.911331	0.338451	0.429785
C130	C	1.358193	-0.540630	-0.847042
C131	C	1.691526	-0.207297	-0.513708
C132	C	2.024860	0.126036	-0.180375
C133	C	1.375845	-0.527811	-0.749072
C134	C	1.709178	-0.194478	-0.415739
C135	C	2.042511	0.138856	-0.082405
C136	C	1.322150	-0.566850	-0.713391
C137	C	1.655484	-0.233517	-0.380058
C138	C	1.988817	0.099816	-0.046725
C139	C	1.250802	-0.618712	-0.775690
C140	C	1.584135	-0.285378	-0.442357
C141	C	1.917469	0.047955	-0.109024
C142	C	1.233153	-0.631538	-0.873669
C143	C	1.566487	-0.298204	-0.540336
C144	C	1.899820	0.035129	-0.207003
C145	C	1.197111	-0.657758	-0.740019
C146	C	1.530444	-0.324424	-0.406686
C147	C	1.863777	0.008909	-0.073352
C148	C	1.125762	-0.709619	-0.802318
C149	C	1.459096	-0.376286	-0.468985
C150	C	1.792429	-0.042952	-0.135651
C151	C	1.108117	-0.722442	-0.900287
C152	C	1.441450	-0.389109	-0.566954
C153	C	1.774783	-0.055775	-0.233620
C154	C	1.161811	-0.683403	-0.935967
C155	C	1.495144	-0.350069	-0.602634
C156	C	1.828477	-0.016736	-0.269301
C157	C	1.214759	-0.644932	-0.642040
C158	C	1.548093	-0.311598	-0.308707
C159	C	1.881426	0.021735	0.024627
C160	C	1.089720	-0.735839	-0.668668
C161	C	1.423053	-0.402506	-0.335334
C162	C	1.756386	-0.069172	-0.002001
C163	C	1.072068	-0.748658	-0.766637
C164	C	1.405401	-0.415325	-0.433304
C165	C	1.738735	-0.081992	-0.099971
C166	C	1.267875	-0.606353	-0.013657
C167	C	1.601208	-0.273019	0.319677
C168	C	1.934542	0.060314	0.653010
C169	C	1.286850	-0.592495	0.090660
C170	C	1.620184	-0.259162	0.423993
C171	C	1.953517	0.074171	0.757327
H172	H	0.886188	-0.673859	-0.213043
H173	H	1.219522	-0.340525	0.120291
H174	H	1.552855	-0.007192	0.453624
H175	H	1.013975	-0.790884	-0.817375
H176	H	1.347308	-0.457551	-0.484042
H177	H	1.680642	-0.124217	-0.150708
H178	H	0.588897	-0.767481	-0.096387
H179	H	0.922231	-0.434148	0.236946
H180	H	1.255564	-0.100814	0.570280
H181	H	1.050027	-0.764679	-0.951009
H182	H	1.383360	-0.431345	-0.617675
H183	H	1.716693	-0.098012	-0.284342
Cl184	Cl	0.788097	-0.813636	-0.038726
Cl185	Cl	1.121430	-0.480303	0.294607
Cl186	Cl	1.454763	-0.146969	0.627940
H187	H	1.045999	-0.767630	-0.639618
H188	H	1.379332	-0.434296	-0.306284
H189	H	1.712666	-0.100963	0.027049
Cl190	Cl	1.347086	-1.103633	-0.134386
Cl191	Cl	1.680419	-0.770300	0.198948
Cl192	Cl	2.013752	-0.436966	0.532281
Cl193	Cl	0.880364	-0.725731	-0.148367
Cl194	Cl	1.213697	-0.392398	0.184966
Cl195	Cl	1.547030	-0.059064	0.518299
Cl196	Cl	0.431243	-0.577193	-0.333767
Cl197	Cl	0.764577	-0.243860	-0.000433
Cl198	Cl	1.097910	0.089473	0.332900
H199	H	1.272851	-0.602705	-0.591325
H200	H	1.606185	-0.269372	-0.257992
H201	H	1.939518	0.063962	0.075341
H202	H	0.548056	-0.512164	-0.414772
H203	H	0.881389	-0.178831	-0.081438
H204	H	1.214722	0.154503	0.251895
Cl205	Cl	1.344340	-0.550731	-0.590228
Cl206	Cl	1.677673	-0.217397	-0.256894
Cl207	Cl	2.011007	0.115936	0.076439
Cl208	Cl	0.660653	-0.463102	-0.475940
Cl209	Cl	0.993986	-0.129768	-0.142606
Cl210	Cl	1.327319	0.203565	0.190727
H211	H	0.859857	-0.509258	-0.418299
H212	H	1.193190	-0.175925	-0.084965
H213	H	1.526524	0.157408	0.248368
Cl214	Cl	1.100905	-1.172146	-0.380411
Cl215	Cl	1.434238	-0.838813	-0.047078
Cl216	Cl	1.767572	-0.505479	0.286255
H217	H	1.433939	-0.485588	-0.698354
H218	H	1.767272	-0.152254	-0.365021
H219	H	2.100606	0.181079	-0.031688
H220	H	1.401908	-0.508856	-0.876102
H221	H	1.735241	-0.175522	-0.542769
H222	H	2.068575	0.157811	-0.209436
H223	H	1.147443	-0.693837	-1.015742
H224	H	1.480776	-0.360504	-0.682408
H225	H	1.814109	-0.027171	-0.349075
