data_functionalizedCrystal
_audit_creation_method	'MofGen! by Chris Wilmer'
_symmetry_space_group_name_H-M	'P1'
_symmetry_Int_Tables_number	1
_symmetry_cell_setting	triclinic
loop_
_symmetry_equiv_pos_as_xyz
  x,y,z
_cell_length_a	18.050589
_cell_length_b	12.759401
_cell_length_c	12.759393
_cell_angle_alpha	90.022497
_cell_angle_beta	89.970454
_cell_angle_gamma	89.970957
loop_
_atom_site_label
_atom_site_type_symbol
_atom_site_fract_x
_atom_site_fract_y
_atom_site_fract_z
Zn1	Zn	-0.295607	-1.606168	-0.594071
Zn2	Zn	-0.419815	-1.606017	-0.418394
Zn3	Zn	-0.295645	-1.430466	-0.418401
Zn4	Zn	-0.419762	-1.430417	-0.594026
O5	O	-0.357707	-1.518267	-0.506223
O6	O	-0.312090	-1.753169	-0.570782
O7	O	-0.403382	-1.582688	-0.271374
O8	O	-0.191716	-1.453857	-0.441726
O9	O	-0.403345	-1.753058	-0.441713
O10	O	-0.191688	-1.582944	-0.570789
O11	O	-0.312155	-1.453711	-0.271379
O12	O	-0.312103	-1.283439	-0.441683
O13	O	-0.403254	-1.453773	-0.741053
O14	O	-0.403291	-1.283402	-0.570714
O15	O	-0.312038	-1.582896	-0.741086
O16	O	-0.523733	-1.582640	-0.441670
O17	O	-0.523693	-1.453627	-0.570706
C18	C	-0.357696	-1.245300	-0.506195
C19	C	-0.357709	-1.128523	-0.506207
C20	C	-0.405262	-1.073670	-0.573287
C21	C	-0.405264	-0.963946	-0.573305
C22	C	-0.310157	-0.963938	-0.439155
C23	C	-0.310152	-1.073660	-0.439143
C24	C	-0.550659	-1.518140	-0.506205
C25	C	-0.633205	-1.518182	-0.506233
C26	C	-0.832661	-1.448094	-0.576379
C27	C	-0.882109	-1.422478	-0.480509
C28	C	-0.784336	-1.518285	-0.506247
C29	C	-0.881970	-1.543953	-0.602127
C30	C	-0.930321	-1.518383	-0.506269
C31	C	-0.832696	-1.492619	-0.410326
C32	C	-0.832552	-1.614139	-0.532010
C33	C	-0.881977	-1.588559	-0.436074
C34	C	-0.700237	-1.518226	-0.506236
C35	C	-1.014417	-1.518442	-0.506269
C36	C	-0.164002	-1.518423	-0.506263
C37	C	-0.081456	-1.518489	-0.506281
C38	C	-0.357636	-1.518346	-0.780256
C39	C	-0.357606	-1.518379	-0.897033
C40	C	-0.357717	-0.792300	-0.506245
C41	C	-0.357716	-0.909077	-0.506237
C42	C	-0.310102	-1.585619	-0.951914
C43	C	-0.310070	-1.585637	-1.061638
C44	C	-0.405052	-1.451172	-1.061591
C45	C	-0.405079	-1.451150	-0.951869
C46	C	-0.357725	-1.518249	-0.233256
C47	C	-0.357546	-1.518419	-0.116479
H48	H	-0.271424	-1.118323	-0.384519
H49	H	-0.443986	-0.919289	-0.627929
H50	H	-0.811007	-1.388648	-0.635603
Cl51	Cl	-0.464799	-1.366607	-0.882871
H52	H	-0.271439	-0.919255	-0.384552
Cl53	Cl	-0.915715	-1.297393	-0.446868
Cl54	Cl	-0.799422	-1.459018	-0.285114
Cl55	Cl	-0.915390	-1.577410	-0.727301
Cl56	Cl	-0.465044	-1.142637	-0.657600
H57	H	-0.271387	-1.640388	-1.106317
H58	H	-0.903495	-1.647959	-0.376707
H59	H	-0.810770	-1.695134	-0.553826
H60	H	-0.271444	-1.640358	-0.907270
Cl61	Cl	-0.464733	-1.366666	-1.130535
