data_functionalizedCrystal
_audit_creation_method	'MofGen! by Chris Wilmer'
_symmetry_space_group_name_H-M	'P1'
_symmetry_Int_Tables_number	1
_symmetry_cell_setting	triclinic
loop_
_symmetry_equiv_pos_as_xyz
  x,y,z
_cell_length_a	15.995350
_cell_length_b	14.044220
_cell_length_c	12.503572
_cell_angle_alpha	86.156832
_cell_angle_beta	86.485305
_cell_angle_gamma	91.659374
loop_
_atom_site_label
_atom_site_type_symbol
_atom_site_fract_x
_atom_site_fract_y
_atom_site_fract_z
O1	O	1.124525	-0.116702	-0.089231
O2	O	0.881878	-0.131788	-0.089254
O3	O	0.999559	0.013739	-0.089232
O4	O	1.006844	-0.262229	-0.089253
O5	O	0.990710	0.002777	0.089408
O6	O	0.873029	-0.142751	0.089386
O7	O	1.115676	-0.127664	0.089409
Cu8	Cu	0.993545	-0.136208	0.105709
Cu9	Cu	1.004010	-0.123244	-0.105554
O10	O	0.997995	-0.273191	0.089387
C11	C	0.846212	-0.136645	0.000064
C12	C	0.753123	-0.134775	0.000055
N13	N	0.986190	-0.145326	0.254300
C14	C	0.991946	0.043572	0.000088
C15	C	0.982435	0.148798	0.000088
C16	C	0.414873	-0.128061	0.000078
C17	C	0.454546	-0.024443	0.000484
C18	C	0.551396	-0.026288	0.000074
C19	C	0.582682	-0.131391	0.000067
C20	C	0.550467	-0.176251	-0.101944
C21	C	0.453640	-0.173643	-0.102022
C22	C	0.443398	-0.188250	0.101125
C23	C	0.540276	-0.188308	0.102466
C24	C	0.677521	-0.133279	0.000058
C25	C	0.320034	-0.126176	0.000081
C26	C	1.151342	-0.122807	0.000089
C27	C	1.244432	-0.124677	0.000090
C28	C	1.005609	-0.303024	0.000065
C29	C	1.015120	-0.408250	0.000057
C30	C	0.965048	0.341460	0.000071
C31	C	1.032504	0.399093	0.000074
C32	C	1.022829	0.506297	0.000065
C33	C	0.974721	0.234246	0.000081
N34	N	1.011370	-0.114118	-0.254145
C35	C	0.975372	-0.158747	0.473413
C36	C	1.022186	-0.100701	0.526749
C37	C	1.016166	-0.108168	0.648671
C38	C	0.981391	-0.151281	0.351480
H39	H	0.429305	0.012496	0.073642
C40	C	0.418062	-0.276050	-0.108301
C41	C	0.356696	-0.320992	-0.017922
C42	C	0.321125	-0.423398	-0.024212
C43	C	0.346921	-0.480862	-0.120880
C44	C	0.408290	-0.435920	-0.211266
C45	C	0.443860	-0.333514	-0.204976
H46	H	0.337598	-0.278454	0.053643
H47	H	0.275696	-0.456666	0.042698
H48	H	0.320589	-0.556668	-0.125536
H49	H	0.427388	-0.478458	-0.282832
H50	H	0.489290	-0.300246	-0.271886
H51	H	0.435475	0.021259	-0.072263
H52	H	0.930777	-0.214048	0.519312
C53	C	0.589859	0.034423	-0.098886
C54	C	0.532438	0.084733	-0.177790
C55	C	0.570900	0.145443	-0.276758
C56	C	0.666783	0.155844	-0.296822
C57	C	0.724210	0.105532	-0.217916
C58	C	0.685747	0.044822	-0.118948
H59	H	0.461455	0.077036	-0.162939
H60	H	0.528389	0.182687	-0.335169
H61	H	0.695256	0.200785	-0.370084
H62	H	0.795193	0.113229	-0.232766
H63	H	0.728258	0.007578	-0.060537
C64	C	1.082444	-0.025994	0.464742
C65	C	1.088414	-0.018488	0.341056
C66	C	1.148672	0.056212	0.279043
C67	C	1.202959	0.123406	0.340715
C68	C	1.196990	0.115903	0.464408
C69	C	1.136732	0.041203	0.526421
H70	H	1.048226	-0.068231	0.295396
H71	H	1.153091	0.061766	0.187477
H72	H	1.247566	0.178704	0.294809
H73	H	1.237178	0.165646	0.510068
H74	H	1.132314	0.035648	0.617987
C75	C	0.580861	0.021941	0.098857
C76	C	0.674961	0.029710	0.117828
C77	C	0.704421	0.077945	0.216612
C78	C	0.639783	0.118411	0.296424
C79	C	0.545677	0.110643	0.277455
C80	C	0.516217	0.062408	0.178671
H81	H	0.722815	-0.000246	0.058744
H82	H	0.774084	0.083696	0.230654
H83	H	0.661591	0.154118	0.369550
H84	H	0.497823	0.140599	0.336539
H85	H	0.446553	0.056657	0.164629
H86	H	0.436325	-0.131684	-0.178274
H87	H	0.570547	-0.253235	-0.105743
H88	H	0.900036	0.372630	0.000063
C89	C	0.590281	-0.121993	-0.204510
C90	C	0.534176	-0.072426	-0.285611
C91	C	0.573985	-0.018163	-0.388175
C92	C	0.669900	-0.013467	-0.409638
C93	C	0.726011	-0.063036	-0.328535
C94	C	0.686201	-0.117299	-0.225971
H95	H	0.463169	-0.075901	-0.269724
H96	H	0.532448	0.018531	-0.448213
H97	H	0.699369	0.026701	-0.485562
H98	H	0.797018	-0.059562	-0.344421
H99	H	0.727738	-0.153993	-0.165933
C100	C	0.407079	-0.148888	0.205591
C101	C	0.311491	-0.145377	0.227803
C102	C	0.275174	-0.106003	0.332264
C103	C	0.334444	-0.070140	0.414512
C104	C	0.430037	-0.073650	0.392302
C105	C	0.466354	-0.113024	0.287842
H106	H	0.267611	-0.171925	0.166916
H107	H	0.204410	-0.103405	0.348704
H108	H	0.307560	-0.040993	0.491840
H109	H	0.473918	-0.047102	0.453189
H110	H	0.537119	-0.115622	0.271401
C111	C	0.568339	-0.292368	0.110782
C112	C	0.630529	-0.327640	0.024349
C113	C	0.658589	-0.431705	0.032652
C114	C	0.624458	-0.500498	0.127389
C115	C	0.562263	-0.465227	0.213829
C116	C	0.534204	-0.361162	0.205525
H117	H	0.655799	-0.276714	-0.045787
H118	H	0.704629	-0.457814	-0.031337
H119	H	0.645229	-0.577533	0.133536
H120	H	0.536994	-0.516153	0.283965
H121	H	0.488163	-0.335053	0.269514
H122	H	0.561067	-0.155622	0.177934
C123	C	0.408156	-0.291539	0.102062
C124	C	0.431528	-0.353097	0.008005
C125	C	0.396282	-0.456380	0.008933
C126	C	0.337663	-0.498105	0.103917
C127	C	0.314287	-0.436546	0.197981
C128	C	0.349534	-0.333263	0.197053
H129	H	0.474925	-0.322211	-0.062314
H130	H	0.413587	-0.501950	-0.060700
H131	H	0.311572	-0.574561	0.104604
H132	H	0.270891	-0.467432	0.268300
H133	H	0.332229	-0.287693	0.266686
H134	H	1.097524	0.367926	0.000008
