data_functionalizedCrystal
_audit_creation_method	'MofGen! by Chris Wilmer'
_symmetry_space_group_name_H-M	'P1'
_symmetry_Int_Tables_number	1
_symmetry_cell_setting	triclinic
loop_
_symmetry_equiv_pos_as_xyz
  x,y,z
_cell_length_a	10.654553
_cell_length_b	16.974813
_cell_length_c	9.730223
_cell_angle_alpha	86.344112
_cell_angle_beta	89.999314
_cell_angle_gamma	83.939561
loop_
_atom_site_label
_atom_site_type_symbol
_atom_site_fract_x
_atom_site_fract_y
_atom_site_fract_z
O1	O	1.666103	0.111064	-0.126656
O2	O	1.300460	0.121642	-0.127831
O3	O	1.493475	0.001306	-0.114441
O4	O	1.473088	0.231400	-0.140045
O5	O	1.493473	0.001309	0.114138
O6	O	1.300458	0.121645	0.100748
O7	O	1.666101	0.111067	0.101924
Zn8	Zn	1.483279	0.116356	0.137628
Zn9	Zn	1.483282	0.116352	-0.163535
O10	O	1.473085	0.231403	0.088534
C11	C	1.253673	0.120866	-0.013455
C12	C	1.114266	0.118541	-0.013196
C13	C	1.492699	-0.028156	0.003124
C14	C	1.490374	-0.115945	0.012884
C15	C	0.917776	0.115260	0.111759
C16	C	1.048763	0.117449	0.111523
C17	C	1.048775	0.117451	-0.137688
C18	C	0.917790	0.115267	-0.137451
C19	C	0.917771	0.115256	0.255639
C20	C	1.048757	0.117445	0.255403
C21	C	1.489285	-0.157186	-0.107128
C22	C	1.487092	-0.239672	-0.097953
C23	C	1.485997	-0.280918	0.031236
C24	C	1.487081	-0.239671	0.151257
C25	C	1.489265	-0.157185	0.142081
C26	C	1.479456	-0.527614	0.072041
C27	C	1.477276	-0.610106	0.081209
C28	C	1.477284	-0.610102	-0.168003
C29	C	1.479476	-0.527615	-0.177167
C30	C	1.480554	-0.486375	-0.057146
N31	N	1.483759	-0.365233	0.040617
N32	N	1.482782	-0.402060	-0.066529
C33	C	1.712888	0.111842	-0.012455
C34	C	1.852294	0.114168	-0.012723
C35	C	1.473862	0.260864	-0.029034
C36	C	1.476187	0.348653	-0.038804
N37	N	1.483286	0.116358	0.343164
N38	N	1.483285	0.116344	-0.369071
C39	C	1.568775	0.063092	0.421017
C40	C	1.568772	0.063082	0.564901
C41	C	1.397787	0.169613	0.553066
C42	C	1.397785	0.169618	0.409185
C43	C	1.667495	0.001589	0.427852
C44	C	1.667492	0.001580	0.571736
H45	H	0.864477	0.114387	-0.238817
H46	H	0.870636	0.169897	0.304804
Br47	Br	1.137669	0.118944	-0.306953
Br48	Br	1.480893	-0.471653	0.234928
H49	H	1.646999	-0.059185	0.395560
Br50	Br	1.096552	0.213562	0.319119
H51	H	1.328173	0.212975	0.606835
Br52	Br	1.485613	-0.295639	-0.260835
H53	H	1.758379	0.020848	0.381082
Br54	Br	1.485573	-0.295644	0.326587
H55	H	1.095892	0.062801	0.316720
Br56	Br	1.490785	-0.101219	-0.282464
Br57	Br	1.490735	-0.101213	0.304961
Br58	Br	1.618110	-0.094134	0.656764
H59	H	1.763793	0.015128	0.609278
Br60	Br	1.480971	-0.471645	-0.352502
H61	H	0.889095	0.057589	0.306695
H62	H	1.476404	-0.643688	-0.265717
H63	H	1.476377	-0.643685	0.186415
H64	H	1.328163	0.212985	0.345798
