data_functionalizedCrystal
_audit_creation_method	'MofGen! by Chris Wilmer'
_symmetry_space_group_name_H-M	'P1'
_symmetry_Int_Tables_number	1
_symmetry_cell_setting	triclinic
loop_
_symmetry_equiv_pos_as_xyz
  x,y,z
_cell_length_a	16.120484
_cell_length_b	16.959455
_cell_length_c	16.959447
_cell_angle_alpha	89.985299
_cell_angle_beta	92.866538
_cell_angle_gamma	92.924951
loop_
_atom_site_label
_atom_site_type_symbol
_atom_site_fract_x
_atom_site_fract_y
_atom_site_fract_z
Zn1	Zn	-0.331903	1.192397	-0.462856
Zn2	Zn	0.168097	1.692397	0.037144
Zn3	Zn	-0.471331	1.185603	-0.337374
Zn4	Zn	0.028669	1.685603	0.162626
Zn5	Zn	-0.331935	1.060223	-0.330695
Zn6	Zn	0.168065	1.560223	0.169305
Zn7	Zn	-0.471275	1.053476	-0.469509
Zn8	Zn	0.028725	1.553476	0.030491
O9	O	-0.401611	1.122925	-0.400108
O10	O	0.098389	1.622925	0.099892
O11	O	-0.350409	1.302106	-0.446222
O12	O	0.149591	1.802106	0.053778
O13	O	-0.452877	1.168952	-0.225879
O14	O	0.047123	1.668952	0.274121
O15	O	-0.215265	1.083423	-0.342647
O16	O	0.284735	1.583423	0.157353
O17	O	-0.452846	1.297115	-0.354031
O18	O	0.047154	1.797115	0.145969
O19	O	-0.215242	1.180530	-0.439745
O20	O	0.284758	1.680530	0.060255
O21	O	-0.350463	1.076836	-0.220971
O22	O	0.149537	1.576836	0.279029
O23	O	-0.350409	0.948718	-0.349097
O24	O	0.149591	1.448718	0.150903
O25	O	-0.452750	1.071924	-0.579236
O26	O	0.047250	1.571924	-0.079236
O27	O	-0.452781	0.943761	-0.451084
O28	O	0.047219	1.443761	0.048916
O29	O	-0.350354	1.173988	-0.574348
O30	O	0.149646	1.673988	-0.074348
O31	O	-0.587989	1.162409	-0.360481
O32	O	-0.087989	1.662409	0.139519
O33	O	-0.587948	1.065336	-0.457560
O34	O	-0.087948	1.565336	0.042440
C35	C	-0.618219	1.112425	-0.410485
C36	C	-0.118219	1.612425	0.089515
C37	C	-0.710885	1.108005	-0.414950
C38	C	-0.210885	1.608005	0.085050
C39	C	-0.401593	0.917559	-0.400088
C40	C	0.098407	1.417559	0.099912
C41	C	-0.401605	0.829702	-0.400099
C42	C	0.098395	1.329702	0.099901
C43	C	-0.454864	0.785831	-0.352024
C44	C	0.045136	1.285831	0.147976
C45	C	-0.348353	0.791019	-0.448181
C46	C	0.151647	1.291019	0.051819
C47	C	-0.348360	0.708473	-0.448191
C48	C	0.151640	1.208473	0.051809
C49	C	-0.401618	0.664602	-0.400115
C50	C	0.098382	1.164602	0.099885
C51	C	-0.454870	0.703277	-0.352030
C52	C	0.045130	1.203277	0.147970
C53	C	-0.295103	0.669792	-0.496269
C54	C	0.204897	1.169792	0.003731
C55	C	-0.295107	0.587241	-0.496280
C56	C	0.204893	1.087241	0.003720
C57	C	-0.348370	0.543368	-0.448208
C58	C	0.151630	1.043368	0.051792
C59	C	-0.401625	0.582048	-0.400122
C60	C	0.098375	1.082048	0.099878
C61	C	-0.454883	0.538177	-0.352047
C62	C	0.045117	1.038177	0.147953
C63	C	-0.508143	0.576856	-0.303964
C64	C	-0.008143	1.076856	0.196036
C65	C	-0.508134	0.659405	-0.303958
C66	C	-0.008134	1.159405	0.196042
C67	C	-0.348379	0.460819	-0.448214
C68	C	0.151621	0.960819	0.051786
C69	C	-0.454890	0.455624	-0.352053
C70	C	0.045110	0.955624	0.147947
C71	C	-0.880546	1.099941	-0.423119
C72	C	-0.380546	1.599941	0.076881
C73	C	-0.921836	1.146050	-0.377111
C74	C	-0.421836	1.646050	0.122889
C75	C	-1.016241	1.141563	-0.381656
C76	C	-0.516241	1.641563	0.118344
C77	C	-0.786132	1.104427	-0.418575
C78	C	-0.286132	1.604427	0.081425
C79	C	-0.184158	1.133487	-0.389709
C80	C	0.315842	1.633487	0.110291
C81	C	-0.091492	1.137988	-0.385277
C82	C	0.408508	1.637988	0.114723
C83	C	-0.401630	1.329092	-0.400129
C84	C	0.098370	1.829092	0.099871
C85	C	-0.401638	1.416948	-0.400138
C86	C	0.098362	1.916948	0.099862
C87	C	-0.401542	1.122961	-0.606273
C88	C	0.098458	1.622961	-0.106273
C89	C	-0.401513	1.122976	-0.694129
C90	C	0.098487	1.622976	-0.194129
C91	C	-0.454738	1.069935	-1.068147
C92	C	0.045262	1.569935	-0.568147
C93	C	-0.348112	1.176215	-1.063053
C94	C	0.151888	1.676215	-0.563053
C95	C	-0.348130	1.176193	-0.980508
C96	C	0.151870	1.676193	-0.480508
C97	C	-0.401453	1.123042	-0.941779
C98	C	0.098547	1.623042	-0.441779
C99	C	-0.454759	1.069913	-0.985595
C100	C	0.045241	1.569913	-0.485595
C101	C	-0.294831	1.229327	-0.936686
C102	C	0.205169	1.729327	-0.436686
C103	C	-0.294847	1.229308	-0.854136
C104	C	0.205153	1.729308	-0.354136
C105	C	-0.348167	1.176152	-0.815405
C106	C	0.151833	1.676152	-0.315405
C107	C	-0.401474	1.123020	-0.859226
C108	C	0.098526	1.623020	-0.359226
C109	C	-0.454797	1.069869	-0.820497
C110	C	0.045203	1.569869	-0.320497
C111	C	-0.508101	1.016733	-0.864317
C112	C	-0.008101	1.516733	-0.364317
C113	C	-0.508079	1.016757	-0.946864
C114	C	-0.008079	1.516757	-0.446864
C115	C	-0.348189	1.176128	-0.732858
C116	C	0.151811	1.676128	-0.232858
C117	C	-0.454819	1.069847	-0.737945
C118	C	0.045181	1.569847	-0.237945
C119	C	-0.401620	1.122937	-0.194743
C120	C	0.098380	1.622937	0.305257
C121	C	-0.401414	1.123086	-0.106877
C122	C	0.098586	1.623086	0.393123
H123	H	-0.498263	0.419909	-0.312907
H124	H	0.001737	0.919909	0.187093
H125	H	-0.551521	0.973461	-0.832773
H126	H	-0.051521	1.473461	-0.332773
C127	C	-0.289559	1.234566	-0.684660
C128	C	0.210441	1.734566	-0.184660
H129	H	-0.257796	1.266221	-0.719548
H130	H	0.242204	1.766221	-0.219548
H131	H	-0.321458	1.267446	-0.653975
H132	H	0.178542	1.767446	-0.153975
H133	H	-0.253234	1.206077	-0.650729
H134	H	0.246766	1.706077	-0.150729
H135	H	-0.251423	1.272604	-0.968226
H136	H	0.248577	1.772604	-0.468226
C137	C	-0.289802	0.418272	-0.501094
C138	C	0.210198	0.918272	-0.001094
H139	H	-0.297429	0.362826	-0.494210
H140	H	0.202571	0.862826	0.005790
H141	H	-0.302059	0.431226	-0.554772
H142	H	0.197941	0.931226	-0.054772
H143	H	-0.233769	0.434509	-0.486913
H144	H	0.266231	0.934509	0.013087
C145	C	-0.873815	1.203908	-0.319265
C146	C	-0.373815	1.703908	0.180735
H147	H	-0.815744	1.199359	-0.323746
H148	H	-0.315744	1.699359	0.176254
H149	H	-0.887964	1.256358	-0.331525
H150	H	-0.387964	1.756358	0.168475
H151	H	-0.888102	1.191682	-0.266825
H152	H	-0.388102	1.691682	0.233175
C153	C	-0.928566	1.042057	-0.480931
C154	C	-0.428566	1.542057	0.019069
H155	H	-0.986636	1.046594	-0.476430
H156	H	-0.486636	1.546594	0.023570
H157	H	-0.914298	1.054245	-0.533380
H158	H	-0.414298	1.554245	-0.033380
H159	H	-0.914405	0.989614	-0.468634
H160	H	-0.414405	1.489614	0.031366
C161	C	-0.566725	0.528593	-0.251085
C162	C	-0.066725	1.028593	0.248915
H163	H	-0.559099	0.473891	-0.257981
H164	H	-0.059099	0.973891	0.242019
H165	H	-0.554464	0.542696	-0.197405
H166	H	-0.054464	1.042696	0.302595
H167	H	-0.622758	0.539405	-0.265261
H168	H	-0.122758	1.039405	0.234739
H169	H	-0.551478	0.973499	-0.982549
H170	H	-0.051478	1.473499	-0.482549
C171	C	-0.513487	1.011390	-0.695349
C172	C	-0.013487	1.511390	-0.195349
H173	H	-0.545234	0.979758	-0.733271
H174	H	-0.045234	1.479758	-0.233271
H175	H	-0.481614	0.978489	-0.661615
H176	H	0.018386	1.478489	-0.161615
H177	H	-0.549826	1.039869	-0.664893
H178	H	-0.049826	1.539869	-0.164893
H179	H	-0.551493	0.690905	-0.264810
H180	H	-0.051493	1.190905	0.235190
H181	H	-0.498134	1.026671	-1.103829
H182	H	0.001866	1.526671	-0.603829
H183	H	-0.304703	1.219493	-1.094592
H184	H	0.195297	1.719493	-0.594592
C185	C	-0.236522	0.718049	-0.549144
C186	C	0.263478	1.218049	-0.049144
H187	H	-0.244154	0.772751	-0.542259
H188	H	0.255846	1.272751	-0.042259
H189	H	-0.180493	0.707234	-0.534975
H190	H	0.319507	1.207234	-0.034975
H191	H	-0.248791	0.703944	-0.602827
H192	H	0.251209	1.203944	-0.102827
C193	C	-0.513442	0.828373	-0.299134
C194	C	-0.013442	1.328373	0.200866
H195	H	-0.505811	0.883820	-0.306010
H196	H	-0.005811	1.383820	0.193990
H197	H	-0.569473	0.812132	-0.313301
H198	H	-0.069473	1.312132	0.186699
H199	H	-0.501168	0.815421	-0.245454
H200	H	-0.001168	1.315421	0.254546
H201	H	-0.251741	0.555756	-0.535433
H202	H	0.248259	1.055756	-0.035433
C203	C	-0.236210	1.287748	-0.805941
C204	C	0.263790	1.787748	-0.305941
H205	H	-0.204446	1.319401	-0.840831
H206	H	0.295554	1.819401	-0.340831
H207	H	-0.268107	1.320630	-0.775257
H208	H	0.231893	1.820630	-0.275257
H209	H	-0.199886	1.259259	-0.772010
H210	H	0.300114	1.759259	-0.272010
H211	H	-0.304989	0.826744	-0.487318
H212	H	0.195011	1.326744	0.012682
