data_functionalizedCrystal
_audit_creation_method	'MofGen! by Chris Wilmer'
_symmetry_space_group_name_H-M	'P1'
_symmetry_Int_Tables_number	1
_symmetry_cell_setting	triclinic
loop_
_symmetry_equiv_pos_as_xyz
  x,y,z
_cell_length_a	15.944551
_cell_length_b	10.723022
_cell_length_c	9.198806
_cell_angle_alpha	89.996352
_cell_angle_beta	89.995864
_cell_angle_gamma	83.982982
loop_
_atom_site_label
_atom_site_type_symbol
_atom_site_fract_x
_atom_site_fract_y
_atom_site_fract_z
O1	O	0.117802	1.655701	-0.120886
O2	O	0.617802	2.155701	0.379114
O3	O	0.129080	1.292405	-0.120892
O4	O	0.629080	1.792405	0.379108
O5	O	0.001223	1.483974	-0.120876
O6	O	0.501223	1.983974	0.379124
O7	O	0.245659	1.464132	-0.120902
O8	O	0.745659	1.964132	0.379098
O9	O	0.001222	1.483959	0.120909
O10	O	0.501222	1.983959	0.620909
O11	O	0.129079	1.292390	0.120893
O12	O	0.629079	1.792390	0.620893
O13	O	0.117801	1.655685	0.120899
O14	O	0.617801	2.155685	0.620899
Cu15	Cu	0.123440	1.474037	0.142973
Cu16	Cu	0.623440	1.974037	0.642973
Cu17	Cu	0.123441	1.474054	-0.142966
Cu18	Cu	0.623441	1.974054	0.357034
O19	O	0.245659	1.464117	0.120883
O20	O	0.745659	1.964117	0.620883
C21	C	0.128259	1.245909	0.000000
C22	C	0.628259	1.745909	0.500000
C23	C	0.125804	1.107385	-0.000001
C24	C	0.625804	1.607385	0.499999
C25	C	0.194808	0.888335	-0.000012
C26	C	0.694808	1.388335	0.499988
C27	C	0.197346	1.031506	-0.000010
C28	C	0.697346	1.531506	0.499990
C29	C	-0.030076	1.483143	0.000017
C30	C	0.469924	1.983143	0.500017
C31	C	-0.123336	1.480673	0.000018
C32	C	0.376664	1.980673	0.500018
C33	C	-0.338906	1.356027	-0.000004
C34	C	0.161094	1.856027	0.499996
C35	C	-0.399592	1.413901	0.119211
C36	C	0.100408	1.913901	0.619211
C37	C	-0.294088	1.476206	0.000006
C38	C	0.205912	1.976206	0.500006
C39	C	-0.399575	1.413945	-0.119170
C40	C	0.100425	1.913945	0.380830
C41	C	-0.459025	1.471881	-0.000011
C42	C	0.040975	1.971881	0.499989
C43	C	-0.353546	1.534112	0.119320
C44	C	0.146454	2.034112	0.619320
C45	C	-0.353522	1.534139	-0.119168
C46	C	0.146478	2.034139	0.380832
C47	C	-0.414191	1.592100	0.000077
C48	C	0.085809	2.092100	0.500077
C49	C	-0.199071	1.478693	0.000018
C50	C	0.300929	1.978693	0.500018
C51	C	-0.554040	1.469403	-0.000011
C52	C	-0.054040	1.969403	0.499989
C53	C	0.276957	1.464948	-0.000013
C54	C	0.776957	1.964948	0.499987
C55	C	0.370218	1.467418	-0.000024
C56	C	0.870218	1.967418	0.499976
C57	C	0.118622	1.702182	0.000003
C58	C	0.618622	2.202182	0.500003
C59	C	0.121077	1.840706	-0.000005
C60	C	0.621077	2.340706	0.499995
N61	N	0.123440	1.474033	0.344087
N62	N	0.623440	1.974033	0.844087
N63	N	0.123435	1.474068	-0.344080
N64	N	0.623435	1.974068	0.155920
C65	C	0.069519	1.554470	0.416290
C66	C	0.569519	2.054470	0.916290
C67	C	0.069516	1.554489	0.583703
C68	C	0.569516	2.054489	1.083703
H69	H	0.260474	1.072520	-0.000008
H70	H	0.760474	1.572520	0.499992
C71	C	0.007141	1.647467	0.332371
C72	C	0.507141	2.147467	0.832371
N73	N	-0.039848	1.717508	0.269164
N74	N	0.460152	2.217508	0.769164
H75	H	0.062674	1.066379	-0.000033
H76	H	0.562674	1.566379	0.499967
H77	H	-0.419992	1.363064	0.219997
H78	H	0.080008	1.863064	0.719997
H79	H	0.059833	0.905922	-0.000006
H80	H	0.559833	1.405922	0.499994
C81	C	-0.294673	1.221270	0.000157
C82	C	0.205327	1.721270	0.500157
N83	N	-0.261353	1.119774	0.000287
N84	N	0.238647	1.619774	0.500287
H85	H	-0.333265	1.584894	0.220218
H86	H	0.166735	2.084894	0.720218
C87	C	-0.427103	1.345257	-0.255326
C88	C	0.072897	1.845257	0.244674
N89	N	-0.447833	1.293514	-0.357874
N90	N	0.052167	1.793514	0.142126
H91	H	-0.446778	1.691941	0.000146
H92	H	0.053222	2.191941	0.500146
H93	H	0.023356	1.623360	0.645795
H94	H	0.523356	2.123360	1.145795
H95	H	-0.333101	1.584932	-0.219959
H96	H	0.166899	2.084932	0.280041
C97	C	0.277549	0.800236	-0.000019
C98	C	0.777549	1.300236	0.499981
N99	N	0.339872	0.733882	-0.000022
N100	N	0.839872	1.233882	0.499978
H101	H	0.169604	1.405203	0.593837
H102	H	0.669604	1.905203	1.093837
H103	H	0.169598	1.405177	0.406209
H104	H	0.669598	1.905177	0.906209
