data_functionalizedCrystal
_audit_creation_method	'MofGen! by Chris Wilmer'
_symmetry_space_group_name_H-M	'P1'
_symmetry_Int_Tables_number	1
_symmetry_cell_setting	triclinic
loop_
_symmetry_equiv_pos_as_xyz
  x,y,z
_cell_length_a	14.908571
_cell_length_b	17.640280
_cell_length_c	14.908308
_cell_angle_alpha	97.330278
_cell_angle_beta	89.824947
_cell_angle_gamma	74.921313
loop_
_atom_site_label
_atom_site_type_symbol
_atom_site_fract_x
_atom_site_fract_y
_atom_site_fract_z
Zn1	Zn	1.445833	-0.413045	0.498174
Zn2	Zn	1.484886	-0.538235	0.320716
Zn3	Zn	1.300448	-0.397842	0.342463
Zn4	Zn	1.325685	-0.537295	0.462571
O5	O	1.389213	-0.471604	0.405981
O6	O	1.578484	-0.436407	0.480433
O7	O	1.466202	-0.513643	0.199068
O8	O	1.292829	-0.289105	0.387120
O9	O	1.607176	-0.528384	0.350055
O10	O	1.399643	-0.300274	0.501520
O11	O	1.330696	-0.410497	0.215045
O12	O	1.176326	-0.409585	0.352597
O13	O	1.335841	-0.526782	0.591827
O14	O	1.194867	-0.512041	0.440840
O15	O	1.424113	-0.435496	0.617984
O16	O	1.490673	-0.648865	0.315532
O17	O	1.373708	-0.648174	0.419752
C18	C	1.152545	-0.459062	0.395215
C19	C	1.051300	-0.453716	0.390626
C20	C	0.880453	-0.550508	0.473704
C21	C	0.785325	-0.545487	0.469395
C22	C	0.765915	-0.438653	0.377705
C23	C	0.861043	-0.443673	0.382014
C24	C	0.918309	-0.499603	0.430014
C25	C	1.013439	-0.504626	0.434317
C26	C	0.994026	-0.397788	0.342633
C27	C	0.898899	-0.392768	0.338324
C28	C	1.439191	-0.677239	0.361439
C29	C	1.460653	-0.765216	0.342418
C30	C	1.226523	-1.052872	0.550826
C31	C	1.246694	-1.135539	0.532924
C32	C	1.368555	-1.136202	0.424518
C33	C	1.348398	-1.053534	0.442414
C34	C	1.277380	-1.011876	0.505568
C35	C	1.399256	-1.012538	0.397156
C36	C	1.379096	-0.929876	0.415047
C37	C	1.308080	-0.888212	0.478197
C38	C	1.257221	-0.929214	0.523460
C39	C	1.470269	-1.054197	0.333997
C40	C	1.521126	-1.013201	0.288739
C41	C	1.500972	-0.930538	0.306635
C42	C	1.429955	-0.888874	0.369784
C43	C	1.551830	-0.889536	0.261372
C44	C	1.531671	-0.806875	0.279264
C45	C	1.409796	-0.806213	0.387676
C46	C	1.626806	-0.484197	0.416790
C47	C	1.728054	-0.489563	0.421396
C48	C	1.378436	-0.482730	0.638098
C49	C	1.373843	-0.487470	0.737013
C50	C	1.339064	-0.265169	0.450717
C51	C	1.317694	-0.177199	0.469781
C52	C	1.399987	-0.460468	0.174782
C53	C	1.404702	-0.455514	0.075924
C54	C	1.457124	-0.401304	0.950127
C55	C	1.452812	-0.405756	1.043067
C56	C	1.360899	-0.500821	1.015834
C57	C	1.365212	-0.496369	0.922895
C58	C	1.413328	-0.446610	0.890045
C59	C	1.417646	-0.442163	0.797102
C60	C	1.325728	-0.537224	0.769872
C61	C	1.321415	-0.541675	0.862812
H62	H	0.927081	-0.596052	0.512781
O63	O	1.188304	-0.888832	0.584924
C64	C	1.208961	-0.914288	0.670177
H65	H	1.258510	-0.976229	0.660655
H66	H	1.142039	-0.915570	0.706430
H67	H	1.243036	-0.871650	0.712382
O68	O	1.495444	-0.361721	1.101303
C69	C	1.538812	-0.316834	1.052376
H70	H	1.552918	-0.346245	0.979245
H71	H	1.607284	-0.313476	1.084322
H72	H	1.491307	-0.254485	1.053999
H73	H	1.321726	-0.541333	1.042598
O74	O	0.748394	-0.594855	0.511813
C75	C	0.652157	-0.578447	0.497700
H76	H	0.625639	-0.515251	0.481311
H77	H	0.614253	-0.585192	0.561530
H78	H	0.638757	-0.621631	0.438848
O79	O	1.503993	-0.353092	0.918151
C80	C	1.576252	-0.398696	0.857285
H81	H	1.595718	-0.462670	0.872044
H82	H	1.639451	-0.373738	0.865619
H83	H	1.552018	-0.396555	0.784977
H84	H	1.060064	-0.550169	0.473399
H85	H	1.291662	-0.820903	0.492756
H86	H	0.719272	-0.393112	0.338632
O87	O	1.030783	-0.348409	0.300043
C88	C	1.015786	-0.360094	0.206547
H89	H	1.005225	-0.421716	0.187065
H90	H	1.078701	-0.354412	0.166912
H91	H	0.951310	-0.313604	0.190059
H92	H	0.852260	-0.347230	0.299247
O93	O	1.274829	-0.590102	0.894755
C94	C	1.336612	-0.646526	0.939821
H95	H	1.410842	-0.653870	0.914018
H96	H	1.318421	-0.705743	0.926183
H97	H	1.330532	-0.625593	1.015703
H98	H	1.456825	-0.401647	0.770358
O99	O	1.340879	-0.765831	0.449141
C100	C	1.361536	-0.791286	0.534393
H101	H	1.411085	-0.853228	0.524872
H102	H	1.294614	-0.792568	0.570647
H103	H	1.395611	-0.748648	0.576598
H104	H	1.290069	-0.574117	0.720942
H105	H	1.168699	-1.018953	0.602260
O106	O	1.197228	-1.175244	0.577006
C107	C	1.130211	-1.120744	0.636565
H108	H	1.152996	-1.063918	0.654130
H109	H	1.123005	-1.147463	0.701061
H110	H	1.060441	-1.106782	0.602666
H111	H	1.426376	-1.170132	0.373095
H112	H	1.578946	-1.047130	0.237316
O113	O	1.490025	-1.134504	0.316626
C114	C	1.582959	-1.167772	0.337573
H115	H	1.624511	-1.122150	0.335115
H116	H	1.614534	-1.222002	0.286213
H117	H	1.584980	-1.186066	0.408327
O118	O	1.620903	-0.930057	0.200143
C119	C	1.688977	-0.983392	0.243175
H120	H	1.685228	-0.962125	0.318918
H121	H	1.760813	-0.986470	0.214030
H122	H	1.675936	-1.044707	0.231373
O123	O	1.581187	-0.767171	0.235249
C124	C	1.648175	-0.821663	0.175655
H125	H	1.663983	-0.882491	0.199499
H126	H	1.714550	-0.801074	0.174663
H127	H	1.620164	-0.825486	0.104617
