data_functionalizedCrystal
_audit_creation_method	'MofGen! by Chris Wilmer'
_symmetry_space_group_name_H-M	'P1'
_symmetry_Int_Tables_number	1
_symmetry_cell_setting	triclinic
loop_
_symmetry_equiv_pos_as_xyz
  x,y,z
_cell_length_a	17.699083
_cell_length_b	15.995350
_cell_length_c	16.176319
_cell_angle_alpha	89.995430
_cell_angle_beta	89.998611
_cell_angle_gamma	83.387695
loop_
_atom_site_label
_atom_site_type_symbol
_atom_site_fract_x
_atom_site_fract_y
_atom_site_fract_z
O1	O	1.004255	0.105885	-0.068627
O2	O	1.504255	0.605885	0.431373
O3	O	0.783899	0.119661	-0.068653
O4	O	1.283899	0.619661	0.431347
O5	O	0.900101	-0.009127	-0.068638
O6	O	1.400101	0.490873	0.431362
O7	O	0.888054	0.234673	-0.068641
O8	O	1.388054	0.734673	0.431359
O9	O	0.900085	-0.009135	0.068855
O10	O	1.400085	0.490865	0.568855
O11	O	0.783883	0.119653	0.068840
O12	O	1.283883	0.619653	0.568840
O13	O	1.004239	0.105877	0.068867
O14	O	1.504239	0.605877	0.568867
Cu15	Cu	0.894060	0.112764	0.081408
Cu16	Cu	1.394060	0.612764	0.581408
Cu17	Cu	0.894079	0.112774	-0.081194
Cu18	Cu	1.394079	0.612774	0.418806
O19	O	0.888038	0.234665	0.068852
O20	O	1.388038	0.734665	0.568852
C21	C	0.755694	0.119163	0.000090
C22	C	1.255694	0.619163	0.500090
C23	C	0.671673	0.117683	0.000080
C24	C	1.171673	0.617683	0.500080
C25	C	0.623178	0.193278	0.000079
C26	C	1.123178	0.693278	0.500079
C27	C	0.544232	0.191882	0.000090
C28	C	1.044232	0.691882	0.500090
C29	C	0.513783	0.114889	0.000095
C30	C	1.013783	0.614889	0.500095
C31	C	0.562285	0.039287	0.000098
C32	C	1.062285	0.539287	0.500098
C33	C	0.641229	0.040685	0.000094
C34	C	1.141229	0.540685	0.500094
C35	C	0.243912	0.033651	0.000119
C36	C	0.743912	0.533651	0.500119
C37	C	0.164962	0.032259	0.000121
C38	C	0.664962	0.532259	0.500121
C39	C	0.146916	0.184848	0.000115
C40	C	0.646916	0.684848	0.500115
C41	C	0.225860	0.186245	0.000110
C42	C	0.725860	0.686245	0.500110
C43	C	0.274354	0.110644	0.000118
C44	C	0.774354	0.610644	0.500118
C45	C	0.359956	0.112159	0.000108
C46	C	0.859956	0.612159	0.500108
C47	C	0.428183	0.113373	0.000099
C48	C	0.928183	0.613373	0.500099
C49	C	0.899595	-0.040324	0.000107
C50	C	1.399595	0.459676	0.500107
C51	C	0.898101	-0.133272	0.000102
C52	C	1.398101	0.366728	0.500102
C53	C	0.892739	-0.471008	0.000104
C54	C	1.392739	0.028992	0.500104
C55	C	0.809983	-0.423406	-0.000214
C56	C	1.309983	0.076594	0.499786
C57	C	0.811476	-0.326719	0.000096
C58	C	1.311476	0.173281	0.500096
C59	C	0.895399	-0.303453	0.000102
C60	C	1.395399	0.196547	0.500102
C61	C	0.936208	-0.344618	0.078621
C62	C	1.436208	0.155382	0.578621
C63	C	0.934129	-0.441250	0.078687
C64	C	1.434129	0.058750	0.578687
C65	C	0.935857	-0.441602	-0.077669
C66	C	1.435857	0.058398	0.422331
C67	C	0.935838	-0.344657	-0.078706
C68	C	1.435838	0.155343	0.421294
C69	C	0.896907	-0.208759	0.000104
C70	C	1.396907	0.291241	0.500104
C71	C	0.891234	-0.565703	0.000108
C72	C	1.391234	-0.065703	0.500108
C73	C	1.032445	0.106375	0.000122
C74	C	1.532445	0.606375	0.500122
C75	C	1.116465	0.107856	0.000126
C76	C	1.616465	0.607856	0.500126
C77	C	0.888544	0.265863	0.000105
C78	C	1.388544	0.765863	0.500105
C79	C	0.890037	0.358810	0.000104
C80	C	1.390037	0.858810	0.500104
N81	N	0.894052	0.112757	0.195773
N82	N	1.394052	0.612757	0.695773
N83	N	0.894092	0.112775	-0.195559
N84	N	1.394092	0.612775	0.304441
C85	C	0.945521	0.055753	0.239043
C86	C	1.445521	0.555753	0.739043
C87	C	0.945525	0.055752	0.325591
C88	C	1.445525	0.555752	0.825591
C89	C	0.894063	0.112760	0.368865
C90	C	1.394063	0.612760	0.868865
C91	C	0.842588	0.169767	0.325589
C92	C	1.342588	0.669767	0.825589
C93	C	0.842581	0.169763	0.239043
C94	C	1.342581	0.669763	0.739043
C95	C	0.842614	0.169782	0.674617
C96	C	1.342614	0.669782	1.174617
C97	C	0.842626	0.169783	0.761168
C98	C	1.342626	0.669783	1.261168
C99	C	0.945558	0.055772	0.761164
C100	C	1.445558	0.555772	1.261164
C101	C	0.945551	0.055768	0.674619
C102	C	1.445551	0.555768	1.174619
C103	C	0.894074	0.112771	0.631350
C104	C	1.394074	0.612771	1.131350
C105	C	0.894069	0.112770	0.537505
C106	C	1.394069	0.612770	1.037505
C107	C	0.894070	0.112765	0.462708
C108	C	1.394070	0.612765	0.962708
H109	H	0.107421	0.246406	0.000113
H110	H	0.607421	0.746406	0.500113
H111	H	0.987431	0.009334	0.203815
H112	H	1.487431	0.509334	0.703815
H113	H	0.800668	0.216180	0.203813
H114	H	1.300668	0.716180	0.703813
H115	H	0.987459	0.009350	0.639387
H116	H	1.487459	0.509350	1.139387
H117	H	0.537487	-0.023402	0.000115
H118	H	1.037487	0.476598	0.500115
O119	O	0.688232	-0.032826	0.000053
O120	O	1.188232	0.467174	0.500053
C121	C	0.644431	-0.101083	0.000078
C122	C	1.144431	0.398917	0.500078
H123	H	0.585510	-0.079711	-0.025950
H124	H	1.085510	0.420289	0.474050
H125	H	0.673552	-0.154038	-0.039841
H126	H	1.173552	0.345962	0.460159
H127	H	0.638812	-0.124695	0.066041
H128	H	1.138812	0.375305	0.566041
O129	O	0.652878	0.267998	0.000034
O130	O	1.152878	0.767998	0.500034
C131	C	0.732955	0.253025	0.000048
C132	C	1.232955	0.753025	0.500048
H133	H	0.751495	0.187647	-0.025980
H134	H	1.251495	0.687647	0.474020
H135	H	0.757190	0.302284	-0.039875
H136	H	1.257190	0.802284	0.460125
H137	H	0.754934	0.257036	0.066009
H138	H	1.254934	0.757036	0.566009
H139	H	0.776912	-0.441867	-0.056522
H140	H	1.276912	0.058133	0.443478
O141	O	0.995604	0.000356	0.367495
O142	O	1.495604	0.500356	0.867495
C143	C	1.041019	-0.049967	0.310742
C144	C	1.541019	0.450033	0.810742
H145	H	1.041856	-0.015641	0.249043
H146	H	1.541856	0.484359	0.749043
H147	H	1.101464	-0.062807	0.335738
H148	H	1.601464	0.437193	0.835738
H149	H	1.016461	-0.112143	0.301552
H150	H	1.516461	0.387857	0.801552
H151	H	0.779397	-0.298228	-0.056190
H152	H	1.279397	0.201772	0.443810
H153	H	0.283388	-0.027909	0.000126
H154	H	0.783388	0.472091	0.500126
O155	O	0.497232	0.265393	0.000051
O156	O	0.997232	0.765393	0.500051
C157	C	0.541035	0.333648	0.000061
C158	C	1.041035	0.833648	0.500061
H159	H	0.599953	0.312276	-0.025975
H160	H	1.099953	0.812276	0.474025
H161	H	0.511911	0.386607	-0.039857
H162	H	1.011911	0.886607	0.460143
H163	H	0.546662	0.357254	0.066021
H164	H	1.046662	0.857254	0.566021
H165	H	0.777046	-0.442936	0.055772
H166	H	1.277046	0.057064	0.555772
O167	O	0.995524	0.000274	0.803108
O168	O	1.495524	0.500274	1.303108
C169	C	0.983211	-0.082596	0.781983
C170	C	1.483211	0.417404	1.281983
H171	H	0.954036	-0.082451	0.719147
H172	H	1.454036	0.417549	1.219147
H173	H	1.040101	-0.123911	0.779020
H174	H	1.540101	0.376089	1.279020
H175	H	0.945542	-0.108437	0.830696
H176	H	1.445542	0.391563	1.330696
O177	O	0.792624	0.225257	0.367530
O178	O	1.292624	0.725257	0.867530
C179	C	0.804929	0.308128	0.346383
C180	C	1.304929	0.808128	0.846383
H181	H	0.834099	0.307981	0.283543
H182	H	1.334099	0.807981	0.783543
H183	H	0.748037	0.349438	0.343420
H184	H	1.248037	0.849438	0.843420
H185	H	0.842600	0.333976	0.395084
H186	H	1.342600	0.833976	0.895084
H187	H	0.997038	-0.329419	-0.083442
H188	H	1.497038	0.170581	0.416558
H189	H	0.904358	-0.459494	0.137376
H190	H	1.404358	0.040506	0.637376
O191	O	0.772838	-0.293484	0.067324
O192	O	1.272838	0.206516	0.567324
C193	C	0.696939	-0.312047	0.063766
C194	C	1.196939	0.187953	0.563766
H195	H	0.693629	-0.369801	0.023221
H196	H	1.193629	0.130199	0.523221
H197	H	0.676387	-0.325240	0.128754
H198	H	1.176387	0.174760	0.628754
H199	H	0.659428	-0.256111	0.036449
H200	H	1.159428	0.243889	0.536449
H201	H	0.907851	-0.316183	0.137047
H202	H	1.407851	0.183817	0.637047
H203	H	0.994887	-0.473622	0.082254
H204	H	1.494887	0.026378	0.582254
O205	O	0.255311	0.261109	0.000142
O206	O	0.755311	0.761109	0.500142
C207	C	0.195578	0.327535	0.000125
C208	C	0.695578	0.827535	0.500125
H209	H	0.141950	0.304171	0.026157
H210	H	0.641950	0.804171	0.526157
H211	H	0.212077	0.381295	0.040042
H212	H	0.712077	0.881295	0.540042
H213	H	0.184406	0.350852	-0.065837
H214	H	0.684406	0.850852	0.434163
O215	O	1.009735	-0.327808	0.082013
O216	O	1.509735	0.172192	0.582013
C217	C	1.025424	-0.278484	0.013228
C218	C	1.525424	0.221516	0.513228
H219	H	0.970068	-0.243865	-0.011342
H220	H	1.470068	0.256135	0.488658
H221	H	1.065184	-0.230792	0.032656
H222	H	1.565184	0.269208	0.532656
H223	H	1.053708	-0.320909	-0.037251
H224	H	1.553708	0.179091	0.462749
H225	H	0.908807	-0.462083	-0.137181
H226	H	1.408807	0.037917	0.362819
H227	H	0.906001	-0.317344	-0.136792
H228	H	1.406001	0.182656	0.363208
O229	O	1.008614	-0.479742	-0.078195
O230	O	1.508614	0.020258	0.421805
C231	C	1.020559	-0.532718	-0.008622
C232	C	1.520559	-0.032718	0.491378
H233	H	0.963654	-0.550845	0.013997
H234	H	1.463654	-0.050845	0.513997
H235	H	1.059279	-0.591950	-0.026304
H236	H	1.559279	-0.091950	0.473696
H237	H	1.048403	-0.498198	0.042698
H238	H	1.548403	0.001802	0.542698
O239	O	0.792523	0.225076	0.803170
O240	O	1.292523	0.725076	1.303170
C241	C	0.717605	0.211571	0.782024
C242	C	1.217605	0.711571	1.282024
H243	H	0.717243	0.144532	0.758239
H244	H	1.217243	0.644532	1.258239
H245	H	0.679630	0.221248	0.838947
H246	H	1.179630	0.721248	1.338947
H247	H	0.695360	0.258010	0.731789
H248	H	1.195360	0.758010	1.231789
O249	O	0.135509	-0.042610	0.000168
O250	O	0.635509	0.457390	0.500168
C251	C	0.195239	-0.109039	0.000155
C252	C	0.695239	0.390961	0.500155
H253	H	0.248869	-0.085680	0.026182
H254	H	0.748869	0.414320	0.526182
H255	H	0.178737	-0.162800	0.040079
H256	H	0.678737	0.337200	0.540079
H257	H	0.206409	-0.132353	-0.065805
H258	H	0.706409	0.367647	0.434195
O259	O	0.792690	0.225277	0.632634
O260	O	1.292690	0.725277	1.132634
C261	C	0.804984	0.308144	0.653793
C262	C	1.304984	0.808144	1.153793
H263	H	0.865583	0.308464	0.677568
H264	H	1.365583	0.808464	1.177568
H265	H	0.796267	0.350183	0.596879
H266	H	1.296267	0.850183	1.096879
H267	H	0.763046	0.332793	0.704040
H268	H	1.263046	0.832793	1.204040
