data_functionalizedCrystal
_audit_creation_method	'MofGen! by Chris Wilmer'
_symmetry_space_group_name_H-M	'P1'
_symmetry_Int_Tables_number	1
_symmetry_cell_setting	triclinic
loop_
_symmetry_equiv_pos_as_xyz
  x,y,z
_cell_length_a	10.654562
_cell_length_b	10.489746
_cell_length_c	9.730223
_cell_angle_alpha	89.998331
_cell_angle_beta	89.996961
_cell_angle_gamma	84.515702
loop_
_atom_site_label
_atom_site_type_symbol
_atom_site_fract_x
_atom_site_fract_y
_atom_site_fract_z
O1	O	1.667912	0.179233	-0.114382
O2	O	1.302444	0.196286	-0.114365
O3	O	1.493491	0.002158	-0.114363
O4	O	1.476865	0.373361	-0.114383
O5	O	1.493488	0.002163	0.114217
O6	O	1.302442	0.196291	0.114215
O7	O	1.667910	0.179238	0.114198
Zn8	Zn	1.485175	0.187765	0.150499
Zn9	Zn	1.485178	0.187759	-0.150665
O10	O	1.476863	0.373365	0.114197
C11	C	1.255644	0.195033	-0.000072
C12	C	1.116200	0.191276	-0.000066
C13	C	1.050667	0.189527	0.124523
C14	C	0.919643	0.186008	0.124500
C15	C	0.919696	0.185993	-0.124711
C16	C	1.050718	0.189503	-0.124686
C17	C	1.050635	0.189541	0.268403
C18	C	0.919611	0.186022	0.268380
C19	C	1.492232	-0.045370	-0.000073
C20	C	1.488471	-0.186998	-0.000074
C21	C	1.364688	-0.339801	-0.000085
C22	C	1.426576	-0.262439	-0.112787
C23	C	1.426603	-0.262475	0.112574
C24	C	1.543721	-0.361981	-0.112899
C25	C	1.543731	-0.362023	0.112564
C26	C	1.605705	-0.284710	-0.000165
C27	C	1.714709	0.180491	-0.000097
C28	C	1.854153	0.184247	-0.000113
C29	C	1.478121	0.420894	-0.000096
C30	C	1.481882	0.562521	-0.000104
N31	N	1.485182	0.187769	0.356035
N32	N	1.485181	0.187745	-0.356201
C33	C	1.569800	0.101839	0.427962
C34	C	1.569797	0.101823	0.571845
C35	C	1.400554	0.273679	0.571862
C36	C	1.400553	0.273688	0.427981
C37	C	1.667514	0.002622	0.427953
C38	C	1.667511	0.002607	0.571836
H39	H	0.889977	0.092994	0.313031
F40	F	1.111049	0.074324	0.340628
H41	H	1.331640	0.343647	0.369420
F42	F	0.859162	0.301246	0.340569
H43	H	1.593159	-0.405541	0.207847
F44	F	1.739000	-0.252770	-0.000250
H45	H	1.262783	-0.364476	-0.000193
F46	F	1.361916	-0.205590	-0.237327
F47	F	1.310489	0.365114	0.648443
H48	H	1.646024	-0.095423	0.388906
F49	F	0.849996	0.184093	-0.257333
F50	F	1.786710	0.043248	0.369608
H51	H	1.636953	-0.090046	0.616458
F52	F	1.608345	-0.418578	-0.237581
F53	F	1.361909	-0.205657	0.237113
F54	F	1.793671	0.031169	0.622877
H55	H	1.104073	0.190908	-0.226138
H56	H	1.080255	0.282572	0.313041
