data_functionalizedCrystal
_audit_creation_method	'MofGen! by Chris Wilmer'
_symmetry_space_group_name_H-M	'P1'
_symmetry_Int_Tables_number	1
_symmetry_cell_setting	triclinic
loop_
_symmetry_equiv_pos_as_xyz
  x,y,z
_cell_length_a	12.837943
_cell_length_b	9.730223
_cell_length_c	12.811415
_cell_angle_alpha	95.432205
_cell_angle_beta	89.411917
_cell_angle_gamma	89.999322
loop_
_atom_site_label
_atom_site_type_symbol
_atom_site_fract_x
_atom_site_fract_y
_atom_site_fract_z
O1	O	1.376624	0.148282	0.272971
O2	O	1.876624	0.648282	0.772971
O3	O	1.074761	0.146610	0.259487
O4	O	1.574761	0.646610	0.759487
O5	O	1.233287	0.128491	0.114197
O6	O	1.733287	0.628491	0.614197
O7	O	1.218098	0.166401	0.418261
O8	O	1.718098	0.666401	0.918261
O9	O	1.233286	-0.100088	0.114200
O10	O	1.733286	0.399912	0.614200
O11	O	1.074759	-0.081970	0.259490
O12	O	1.574759	0.418030	0.759490
O13	O	1.376623	-0.080297	0.272975
O14	O	1.876623	0.419703	0.772975
Zn15	Zn	1.225690	-0.117425	0.266233
Zn16	Zn	1.725690	0.382575	0.766233
Zn17	Zn	1.225693	0.183738	0.266228
Zn18	Zn	1.725693	0.683738	0.766228
O19	O	1.218096	-0.062179	0.418265
O20	O	1.718096	0.437821	0.918265
C21	C	1.036120	0.031753	0.254933
C22	C	1.536120	0.531753	0.754933
C23	C	0.920984	0.030063	0.241347
C24	C	1.420984	0.530063	0.741347
N25	N	1.225696	-0.322961	0.266237
N26	N	1.725696	0.177039	0.766237
C27	C	0.680730	0.050407	0.404677
C28	C	1.180730	0.550407	0.904677
C29	C	0.572549	0.048818	0.391916
C30	C	1.072549	0.548818	0.891916
C31	C	0.596439	0.025288	0.203067
C32	C	1.096439	0.525288	0.703067
C33	C	0.704620	0.026877	0.215827
C34	C	1.204620	0.526877	0.715827
C35	C	0.746761	0.039438	0.316635
C36	C	1.246761	0.539438	0.816635
C37	C	0.854944	0.041037	0.329395
C38	C	1.354944	0.541037	0.829395
C39	C	0.878832	0.017497	0.140546
C40	C	1.378832	0.517497	0.640546
C41	C	0.770652	0.015908	0.127786
C42	C	1.270652	0.515908	0.627786
C43	C	1.295910	-0.402907	0.201928
C44	C	1.795910	0.097093	0.701928
C45	C	1.295907	-0.546792	0.201915
C46	C	1.795907	-0.046792	0.701915
C47	C	1.155474	-0.530771	0.330528
C48	C	1.655474	-0.030771	0.830528
C49	C	1.155473	-0.386890	0.330535
C50	C	1.655473	0.113110	0.830535
C51	C	1.366134	-0.338979	0.137630
C52	C	1.866134	0.161021	0.637630
C53	C	1.436354	-0.418925	0.073317
C54	C	1.936354	0.081075	0.573317
C55	C	1.436351	-0.562810	0.073304
C56	C	1.936351	-0.062810	0.573304
C57	C	1.366128	-0.626748	0.137604
C58	C	1.866128	-0.126748	0.637604
C59	C	1.415264	0.034562	0.277528
C60	C	1.915264	0.534562	0.777528
C61	C	1.530399	0.036261	0.291115
C62	C	2.030399	0.536261	0.791115
C63	C	1.232435	0.009319	0.075009
C64	C	1.732435	0.509319	0.575009
C65	C	1.229887	-0.005231	-0.041763
C66	C	1.729887	0.494769	0.458237
N67	N	1.225695	0.389273	0.266217
N68	N	1.725695	0.889273	0.766217
C69	C	1.225082	0.216654	-0.261186
C70	C	1.725082	0.716654	0.238814
C71	C	1.222687	0.202990	-0.370904
C72	C	1.722687	0.702990	0.129096
C73	C	1.222696	-0.046223	-0.370920
C74	C	1.722696	0.453777	0.129080
C75	C	1.225091	-0.032558	-0.261202
C76	C	1.725091	0.467442	0.238798
C77	C	1.226285	0.098884	-0.206339
C78	C	1.726285	0.598884	0.293661
C79	C	1.228687	0.112547	-0.096618
C80	C	1.728687	0.612547	0.403382
C81	C	1.228688	-0.136664	-0.096636
C82	C	1.728688	0.363336	0.403364
C83	C	1.226294	-0.150328	-0.206354
C84	C	1.726294	0.349672	0.293646
C85	C	1.218948	0.056997	0.457452
C86	C	1.718948	0.556997	0.957452
C87	C	1.221496	0.071556	0.574225
C88	C	1.721496	0.571556	1.074225
H89	H	0.889253	0.051263	0.411478
H90	H	1.389253	0.551263	0.911478
F91	F	0.551572	0.011904	0.095788
F92	F	1.051572	0.511904	0.595788
H93	H	0.736325	0.005665	0.045710
H94	H	1.236325	0.505665	0.545710
F95	F	0.949116	0.005840	0.046840
F96	F	1.449116	0.505840	0.546840
F97	F	1.511078	-0.350878	0.004880
F98	F	2.011078	0.149122	0.504880
H99	H	1.098297	-0.321797	0.382900
H100	H	1.598297	0.178203	0.882900
H101	H	1.366144	-0.221821	0.137637
H102	H	1.866144	0.278179	0.637637
F103	F	1.226366	0.356542	-0.202795
F104	F	1.726366	0.856542	0.297205
F105	F	1.511076	-0.647893	0.004850
F106	F	2.011076	-0.147893	0.504850
F107	F	0.725582	0.063793	0.511962
F108	F	1.225582	0.563793	1.011962
H109	H	1.098302	-0.582839	0.382880
H110	H	1.598302	-0.082839	0.882880
F111	F	1.221404	0.328337	-0.429273
F112	F	1.721404	0.828337	0.070727
F113	F	1.366123	-0.779886	0.137576
F114	F	1.866123	-0.279886	0.637576
H115	H	1.229662	0.219574	-0.051951
H116	H	1.729662	0.719574	0.448049
F117	F	1.221400	-0.186101	-0.429326
F118	F	1.721400	0.313899	0.070674
H119	H	1.225318	-0.257345	-0.251038
H120	H	1.725318	0.242655	0.248962
F121	F	1.229978	-0.262011	-0.038256
F122	F	1.729978	0.237989	0.461744
H123	H	0.518789	0.057746	0.463609
H124	H	1.018789	0.557746	0.963609
