data_functionalizedCrystal
_audit_creation_method	'MofGen! by Chris Wilmer'
_symmetry_space_group_name_H-M	'P1'
_symmetry_Int_Tables_number	1
_symmetry_cell_setting	triclinic
loop_
_symmetry_equiv_pos_as_xyz
  x,y,z
_cell_length_a	16.992694
_cell_length_b	14.044220
_cell_length_c	15.455313
_cell_angle_alpha	92.908275
_cell_angle_beta	87.142206
_cell_angle_gamma	91.928550
loop_
_atom_site_label
_atom_site_type_symbol
_atom_site_fract_x
_atom_site_fract_y
_atom_site_fract_z
O1	O	1.057683	0.198159	-0.072025
O2	O	0.829244	0.195941	-0.072050
O3	O	0.940034	0.058806	-0.072029
O4	O	0.946893	0.335294	-0.072046
O5	O	0.933696	0.066614	0.072232
O6	O	0.822906	0.203749	0.072211
O7	O	1.051345	0.205967	0.072236
Cu8	Cu	0.936547	0.205571	0.085396
Cu9	Cu	0.944042	0.196337	-0.085210
O10	O	0.940555	0.343102	0.072215
C11	C	0.796663	0.196993	0.000077
C12	C	0.709024	0.188484	0.000068
C13	C	0.933863	0.027168	0.000101
C14	C	0.924909	-0.078736	0.000101
C15	C	0.664526	0.270581	0.000063
C16	C	0.582179	0.262581	0.000076
C17	C	0.544332	0.172483	0.000086
C18	C	0.588836	0.090381	0.000093
C19	C	0.671181	0.098382	0.000087
C20	C	0.298414	0.139322	0.000112
C21	C	0.216063	0.131327	0.000115
C22	C	0.209411	0.303528	0.000100
C23	C	0.291759	0.311521	0.000088
C24	C	0.336255	0.229419	0.000099
N25	N	0.460161	0.164304	0.000096
N26	N	0.420425	0.237599	0.000096
C27	C	0.908540	-0.272638	0.000087
C28	C	0.972046	-0.325460	0.000092
C29	C	0.962938	-0.433354	0.000084
C30	C	0.917647	-0.164734	0.000095
C31	C	1.083926	0.204915	0.000107
C32	C	1.171565	0.213424	0.000111
C33	C	0.946726	0.374740	0.000083
C34	C	0.955680	0.480644	0.000077
N35	N	0.931281	0.212065	0.205390
N36	N	0.949314	0.189836	-0.205204
C37	C	0.978368	0.153829	0.250793
C38	C	0.974393	0.158750	0.341600
C39	C	0.923335	0.221911	0.387003
C40	C	0.876243	0.280149	0.341594
C41	C	0.880214	0.275223	0.250788
C42	C	0.906193	0.243148	0.658581
C43	C	0.902227	0.248072	0.749393
C44	C	1.000377	0.126671	0.749394
C45	C	1.004347	0.121754	0.658586
C46	C	0.957251	0.179989	0.613185
N47	N	0.919273	0.226945	0.479822
N48	N	0.961310	0.174950	0.520367
H49	H	0.695334	0.343947	0.000054
H50	H	1.033258	-0.289655	0.000040
O51	O	0.835576	-0.315498	0.000121
C52	C	0.842613	-0.415245	0.000096
H53	H	0.901329	-0.432326	0.027406
H54	H	0.839931	-0.446950	-0.069114
C55	C	0.702492	-0.437320	0.023127
C56	C	0.774605	-0.458300	0.056676
H57	H	0.660540	-0.463880	0.058024
H58	H	0.697750	-0.370120	0.023140
H59	H	0.700268	-0.463742	-0.034548
H60	H	0.776832	-0.431868	0.114345
H61	H	0.779345	-0.525497	0.056673
O62	O	0.166227	0.383297	-0.000058
C63	C	0.187610	0.433599	-0.074765
H64	H	0.214479	0.382595	-0.126986
H65	H	0.232594	0.492841	-0.057880
C66	C	0.080904	0.540064	-0.044501
C67	C	0.113899	0.477418	-0.108642
H68	H	0.035437	0.567098	-0.065397
H69	H	0.066499	0.506177	0.005832
H70	H	0.118398	0.589424	-0.030436
H71	H	0.076409	0.428053	-0.122699
H72	H	0.128296	0.511298	-0.158979
H73	H	0.545952	0.329433	0.000072
O74	O	1.046075	0.069959	0.793404
C75	C	1.027615	-0.026555	0.771246
H76	H	1.000124	-0.032330	0.705317
H77	H	0.984076	-0.056247	0.822360
C78	C	1.137163	-0.076976	0.848027
C79	C	1.103405	-0.084071	0.767049
H80	H	1.183912	-0.112457	0.845442
H81	H	1.149598	-0.011954	0.862959
H82	H	1.100873	-0.101719	0.890613
H83	H	1.139690	-0.059318	0.724467
H84	H	1.090977	-0.149090	0.752110
O85	O	0.860421	0.299817	0.614620
C86	C	0.814495	0.356604	0.674169
H87	H	0.844063	0.363661	0.738891
H88	H	0.753352	0.321710	0.683844
C89	C	0.770665	0.447575	0.559226
C90	C	0.806985	0.456248	0.638716
H91	H	0.766028	0.509038	0.537357
H92	H	0.801604	0.409314	0.519106
H93	H	0.719716	0.418492	0.567300
H94	H	0.857936	0.485319	0.630640
H95	H	0.776054	0.494516	0.678834
O96	O	0.341718	0.059631	-0.000004
C97	C	0.392806	0.055046	-0.074732
H98	H	0.403352	0.129651	-0.099643
H99	H	0.364998	0.006650	-0.127047
C100	C	0.458977	-0.076997	-0.021446
C101	C	0.471934	0.014635	-0.052038
H102	H	0.507786	-0.101929	-0.007450
H103	H	0.424556	-0.073911	0.028898
H104	H	0.435802	-0.117315	-0.065047
H105	H	0.495099	0.054954	-0.008433
H106	H	0.506361	0.011555	-0.102375
H107	H	1.019948	0.102401	0.213833
H108	H	0.834666	0.331573	0.378565
H109	H	1.012735	0.111329	0.378567
O110	O	1.053713	0.060303	0.614253
C111	C	1.108217	0.111840	0.561417
H112	H	1.114110	0.188532	0.588767
H113	H	1.086589	0.111431	0.492745
C114	C	1.181771	-0.029103	0.525931
C115	C	1.189014	0.065090	0.559527
H116	H	1.231609	-0.057942	0.524760
H117	H	1.145049	-0.063826	0.561524
H118	H	1.163744	-0.029431	0.468707
H119	H	1.207030	0.065416	0.616753
H120	H	1.225740	0.099812	0.523942
H121	H	0.860647	0.299509	0.786355
H122	H	0.185251	0.057956	0.000123
H123	H	0.322568	0.384887	0.000070
H124	H	0.841869	0.322643	0.213822
O125	O	0.714527	0.018732	0.000126
C126	C	0.795322	0.045111	0.000098
H127	H	0.802512	0.121678	0.027403
H128	H	0.821879	0.039553	-0.069112
C129	C	0.829163	-0.116034	0.023140
C130	C	0.837993	-0.021996	0.056683
H131	H	0.855486	-0.157431	0.058041
H132	H	0.774730	-0.133808	0.023155
H133	H	0.851293	-0.120653	-0.034534
H134	H	0.815854	-0.017377	0.114352
H135	H	0.892424	-0.004223	0.056679
H136	H	0.558015	0.017022	0.000114
