data_functionalizedCrystal
_audit_creation_method	'MofGen! by Chris Wilmer'
_symmetry_space_group_name_H-M	'P1'
_symmetry_Int_Tables_number	1
_symmetry_cell_setting	triclinic
loop_
_symmetry_equiv_pos_as_xyz
  x,y,z
_cell_length_a	16.625547
_cell_length_b	18.050589
_cell_length_c	16.625539
_cell_angle_alpha	90.024622
_cell_angle_beta	89.975178
_cell_angle_gamma	89.965365
loop_
_atom_site_label
_atom_site_type_symbol
_atom_site_fract_x
_atom_site_fract_y
_atom_site_fract_z
Zn1	Zn	1.232612	0.295659	-0.456021
Zn2	Zn	1.232486	0.419857	-0.321197
Zn3	Zn	1.097774	0.295685	-0.321192
Zn4	Zn	1.097715	0.419812	-0.455977
O5	O	1.165147	0.357753	-0.388597
O6	O	1.345428	0.312142	-0.438158
O7	O	1.214588	0.403415	-0.208364
O8	O	1.115737	0.191757	-0.339094
O9	O	1.345335	0.403390	-0.339103
O10	O	1.214802	0.191738	-0.438152
O11	O	1.115616	0.312187	-0.208360
O12	O	0.984934	0.312143	-0.339051
O13	O	1.115638	0.403313	-0.568816
O14	O	0.984891	0.403338	-0.438077
O15	O	1.214746	0.312099	-0.568848
O16	O	1.214532	0.523776	-0.339060
O17	O	1.115516	0.523742	-0.438082
C18	C	0.955656	0.357739	-0.388559
C19	C	0.866035	0.357751	-0.388562
C20	C	0.793253	0.357752	-0.388572
C21	C	0.701944	0.357756	-0.388592
C22	C	0.629168	0.357763	-0.388612
C23	C	0.537853	0.357768	-0.388632
C24	C	1.165026	0.550706	-0.388584
C25	C	1.165048	0.633251	-0.388606
C26	C	1.111232	0.832711	-0.442436
C27	C	1.091569	0.882153	-0.368859
C28	C	1.165109	0.784382	-0.388617
C29	C	1.184793	0.882022	-0.462203
C30	C	1.165166	0.930367	-0.388634
C31	C	1.145408	0.832736	-0.315001
C32	C	1.238665	0.832601	-0.408395
C33	C	1.219031	0.882020	-0.334767
C34	C	1.165074	0.700283	-0.388608
C35	C	1.165201	1.014463	-0.388635
C36	C	1.375456	0.357768	-0.388636
C37	C	1.465077	0.357775	-0.388652
C38	C	1.165199	0.357698	-0.598906
C39	C	1.165222	0.357674	-0.688527
C40	C	1.165260	1.164048	-0.388628
C41	C	1.165229	1.081502	-0.388644
C42	C	1.165259	0.357591	-1.016703
C43	C	1.165246	0.357617	-0.925394
C44	C	1.165241	0.357633	-0.852618
C45	C	1.165227	0.357658	-0.761304
C46	C	1.165141	0.357755	-0.179106
C47	C	1.165275	0.357569	-0.089485
H48	H	1.065610	0.811059	-0.487884
C49	C	1.008669	0.911282	-0.346686
C50	C	0.979072	0.955029	-0.409596
C51	C	0.902710	0.981880	-0.389201
H52	H	0.973280	0.870821	-0.337726
H53	H	1.012339	0.940295	-0.299138
H54	H	0.975396	0.926017	-0.457129
H55	H	1.014438	0.995501	-0.418565
H56	H	0.906380	1.010893	-0.341653
H57	H	0.867328	0.941414	-0.380240
H58	H	0.882621	1.011571	-0.431878
C59	C	1.123293	0.804038	-0.231949
C60	C	1.179502	0.829590	-0.175736
C61	C	1.159160	0.803158	-0.099226
H62	H	1.071252	0.821401	-0.217709
H63	H	1.123421	0.751407	-0.232418
H64	H	1.179366	0.882210	-0.175265
H65	H	1.231548	0.812229	-0.189950
H66	H	1.159288	0.750527	-0.099695
H67	H	1.107119	0.820523	-0.084995
H68	H	1.197299	0.820485	-0.061078
C69	C	1.279801	0.910863	-0.274093
C70	C	1.279655	0.988422	-0.275224
C71	C	1.335628	1.015020	-0.219348
H72	H	1.265778	0.893976	-0.221834
H73	H	1.331901	0.893189	-0.287694
H74	H	1.227567	1.006089	-0.261619
H75	H	1.293687	1.005329	-0.327470
H76	H	1.387727	0.997347	-0.232948
H77	H	1.321599	0.998129	-0.167093
H78	H	1.335541	1.067646	-0.220113
H79	H	1.201419	0.903671	-0.524427
H80	H	1.300828	0.810821	-0.425143
