data_functionalizedCrystal
_audit_creation_method	'MofGen! by Chris Wilmer'
_symmetry_space_group_name_H-M	'P1'
_symmetry_Int_Tables_number	1
_symmetry_cell_setting	triclinic
loop_
_symmetry_equiv_pos_as_xyz
  x,y,z
_cell_length_a	25.639239
_cell_length_b	25.639242
_cell_length_c	18.215399
_cell_angle_alpha	89.974553
_cell_angle_beta	89.967555
_cell_angle_gamma	90.034213
loop_
_atom_site_label
_atom_site_type_symbol
_atom_site_fract_x
_atom_site_fract_y
_atom_site_fract_z
Zn1	Zn	-0.208206	0.799242	-0.416274
Zn2	Zn	-0.295646	0.799160	-0.293204
Zn3	Zn	-0.208219	0.711813	-0.293203
Zn4	Zn	-0.295605	0.711763	-0.416210
O5	O	-0.251919	0.755495	-0.354723
O6	O	-0.219816	0.872396	-0.399976
O7	O	-0.284071	0.787560	-0.190219
O8	O	-0.135052	0.723466	-0.309556
O9	O	-0.284058	0.872336	-0.309556
O10	O	-0.135043	0.787699	-0.399976
O11	O	-0.219839	0.723387	-0.190219
O12	O	-0.219800	0.638642	-0.309493
O13	O	-0.283989	0.723381	-0.519203
O14	O	-0.284002	0.638605	-0.399866
O15	O	-0.219777	0.787651	-0.519250
O16	O	-0.368806	0.787512	-0.309494
O17	O	-0.368776	0.723302	-0.399866
C18	C	-0.251899	0.619652	-0.354673
C19	C	-0.251902	0.561538	-0.354669
C20	C	-0.285405	0.201165	-0.401735
C21	C	-0.285408	0.146561	-0.401747
O22	O	-0.313868	0.118315	-0.441722
N23	N	-0.251934	0.119256	-0.354771
C24	C	-0.218450	0.146558	-0.307785
O25	O	-0.189977	0.118319	-0.267830
C26	C	-0.218444	0.201161	-0.307778
C27	C	-0.251925	0.228463	-0.354752
C28	C	-0.318883	0.228467	-0.448706
C29	C	-0.318880	0.283068	-0.448693
C30	C	-0.285400	0.310366	-0.401710
C31	C	-0.251922	0.283064	-0.354739
C32	C	-0.184958	0.228463	-0.260797
C33	C	-0.184955	0.283070	-0.260794
C34	C	-0.218436	0.310372	-0.307768
C35	C	-0.218439	0.364963	-0.307743
N36	N	-0.251914	0.392268	-0.354719
C37	C	-0.285394	0.364969	-0.401702
C38	C	-0.218463	0.031887	-0.307805
C39	C	-0.218471	-0.022715	-0.307808
C40	C	-0.285429	-0.022709	-0.401771
C41	C	-0.285423	0.031895	-0.401764
C42	C	-0.251938	0.059192	-0.354781
C43	C	-0.285387	0.479634	-0.401672
C44	C	-0.285383	0.534240	-0.401652
C45	C	-0.218423	0.534229	-0.307693
C46	C	-0.218429	0.479628	-0.307709
C47	C	-0.251912	0.452332	-0.354704
O48	O	-0.189993	0.393243	-0.267791
O49	O	-0.313858	0.393215	-0.441658
C50	C	-0.387762	0.755407	-0.354689
C51	C	-0.445876	0.755417	-0.354699
C52	C	-0.806242	0.789016	-0.307746
C53	C	-0.860846	0.789037	-0.307756
O54	O	-0.889085	0.817513	-0.267798
N55	N	-0.888158	0.755587	-0.354772
C56	C	-0.860863	0.722118	-0.401786
O57	O	-0.889108	0.693669	-0.441778
C58	C	-0.806260	0.722101	-0.401779
C59	C	-0.778951	0.755549	-0.354755
C60	C	-0.778932	0.822462	-0.260727
C61	C	-0.724332	0.822441	-0.260716
C62	C	-0.697041	0.788974	-0.307725
C63	C	-0.724350	0.755528	-0.354744
C64	C	-0.778966	0.688635	-0.448796
C65	C	-0.724359	0.688621	-0.448786
C66	C	-0.697050	0.722070	-0.401762
C67	C	-0.642458	0.722040	-0.401743
N68	N	-0.615146	0.755490	-0.354727
C69	C	-0.642437	0.788957	-0.307718
C70	C	-0.975534	0.722158	-0.401797
C71	C	-1.030136	0.722172	-0.401801
C72	C	-1.030115	0.789091	-0.307772
C73	C	-0.975512	0.789074	-0.307765
C74	C	-0.948222	0.755607	-0.354782
C75	C	-0.527772	0.788910	-0.307699
C76	C	-0.473167	0.788884	-0.307690
C77	C	-0.473193	0.721967	-0.401722
C78	C	-0.527793	0.721991	-0.401728
C79	C	-0.555082	0.755466	-0.354714
O80	O	-0.614185	0.693580	-0.441683
O81	O	-0.614185	0.817407	-0.267740
C82	C	-0.115546	0.755597	-0.354773
C83	C	-0.057432	0.755641	-0.354794
C84	C	-0.251877	0.755520	-0.546676
C85	C	-0.251860	0.755530	-0.628475
C86	C	-0.251940	0.891868	-0.354773
C87	C	-0.251949	0.949982	-0.354795
C88	C	-0.218392	0.722143	-0.816670
C89	C	-0.218381	0.722152	-0.893528
C90	C	-0.285265	0.788980	-0.893518
C91	C	-0.285278	0.788967	-0.816661
C92	C	-0.251838	0.755550	-0.778238
C93	C	-0.251815	0.755571	-0.931955
C94	C	-0.251804	0.755581	-1.015288
C95	C	-0.251850	0.755539	-0.694899
C96	C	-0.251923	0.755500	-0.163517
C97	C	-0.251794	0.755591	-0.081718
H98	H	-0.346142	0.305292	-0.486945
H99	H	-0.312649	0.556467	-0.439905
H100	H	-0.191166	0.556465	-0.269438
H101	H	-0.312490	0.816187	-0.924811
H102	H	-0.953280	0.816311	-0.269475
H103	H	-0.157696	0.206243	-0.222544
Cl104	Cl	-0.327513	-0.057037	-0.460844
H105	H	-0.191213	-0.044940	-0.269550
Cl106	Cl	-1.064461	0.680114	-0.460910
H107	H	-0.191195	0.054110	-0.269541
H108	H	-0.191146	0.694949	-0.924816
H109	H	-0.191163	0.694932	-0.785389
Cl110	Cl	-0.327331	0.830966	-0.768343
Cl111	Cl	-0.327482	0.445328	-0.460751
Cl112	Cl	-0.360978	0.194159	-0.507778
H113	H	-0.450933	0.816122	-0.269395
Cl114	Cl	-0.690008	0.864501	-0.201608
Cl115	Cl	-0.142856	0.317383	-0.201727
Cl116	Cl	-0.176346	0.445304	-0.248644
Cl117	Cl	-0.327514	0.066212	-0.460820
Cl118	Cl	-0.562126	0.679930	-0.460829
H119	H	-0.549984	0.816170	-0.269418
H120	H	-0.801147	0.849718	-0.222446
H121	H	-0.953317	0.694901	-0.440081
Cl122	Cl	-1.064434	0.831164	-0.248673
Cl123	Cl	-0.813285	0.646589	-0.507925
Cl124	Cl	-0.690055	0.646547	-0.507897
H125	H	-0.450964	0.694717	-0.439994
