data_functionalizedCrystal
_audit_creation_method	'MofGen! by Chris Wilmer'
_symmetry_space_group_name_H-M	'P1'
_symmetry_Int_Tables_number	1
_symmetry_cell_setting	triclinic
loop_
_symmetry_equiv_pos_as_xyz
  x,y,z
_cell_length_a	16.959454
_cell_length_b	15.297475
_cell_length_c	15.296720
_cell_angle_alpha	88.382886
_cell_angle_beta	80.351722
_cell_angle_gamma	80.323279
loop_
_atom_site_label
_atom_site_type_symbol
_atom_site_fract_x
_atom_site_fract_y
_atom_site_fract_z
Zn1	Zn	-0.615181	1.253421	0.726635
Zn2	Zn	-0.115181	1.753421	1.226635
Zn3	Zn	-0.729000	1.278688	0.580157
Zn4	Zn	-0.229000	1.778688	1.080157
Zn5	Zn	-0.570776	1.132298	0.554873
Zn6	Zn	-0.070776	1.632298	1.054873
Zn7	Zn	-0.721230	1.106914	0.701285
Zn8	Zn	-0.221230	1.606914	1.201285
O9	O	-0.659047	1.192830	0.640738
O10	O	-0.159047	1.692830	1.140738
O11	O	-0.652115	1.379352	0.728395
O12	O	-0.152115	1.879352	1.228395
O13	O	-0.692679	1.280466	0.454228
O14	O	-0.192679	1.780466	0.954228
O15	O	-0.466067	1.148414	0.577685
O16	O	0.033933	1.648414	1.077685
O17	O	-0.735737	1.397915	0.620778
O18	O	-0.235737	1.897915	1.120778
O19	O	-0.498691	1.237403	0.703878
O20	O	0.001309	1.737403	1.203878
O21	O	-0.576432	1.172914	0.435651
O22	O	-0.076432	1.672914	0.935651
O23	O	-0.568898	1.006352	0.553104
O24	O	-0.068898	1.506352	1.053104
O25	O	-0.722495	1.105151	0.827223
O26	O	-0.222495	1.605151	1.327223
O27	O	-0.679437	0.987702	0.660673
O28	O	-0.179437	1.487702	1.160673
O29	O	-0.644581	1.212790	0.845848
O30	O	-0.144581	1.712790	1.345848
O31	O	-0.838569	1.255853	0.596198
O32	O	-0.338569	1.755853	1.096198
O33	O	-0.832860	1.129651	0.685190
O34	O	-0.332860	1.629651	1.185190
C35	C	-0.618506	0.965244	0.601395
C36	C	-0.118506	1.465244	1.101395
C37	C	-0.601185	0.867878	0.584584
C38	C	-0.101185	1.367878	1.084584
C39	C	-0.782854	0.554738	0.760885
C40	C	-0.282854	1.054738	1.260885
C41	C	-0.799134	0.646218	0.776677
C42	C	-0.299134	1.146218	1.276677
C43	C	-0.749648	0.701637	0.728655
C44	C	-0.249648	1.201637	1.228655
C45	C	-0.683879	0.665567	0.664839
C46	C	-0.183879	1.165567	1.164839
C47	C	-0.667601	0.574078	0.649041
C48	C	-0.167601	1.074078	1.149041
C49	C	-0.634395	0.720978	0.616811
C50	C	-0.134395	1.220978	1.116811
C51	C	-0.568627	0.684908	0.552995
C52	C	-0.068627	1.184908	1.052995
C53	C	-0.552351	0.593428	0.537200
C54	C	-0.052351	1.093428	1.037200
C55	C	-0.601837	0.538009	0.585221
C56	C	-0.101837	1.038009	1.085221
C57	C	-0.650673	0.812467	0.632609
C58	C	-0.150673	1.312467	1.132609
C59	C	-0.535421	0.831808	0.520765
C60	C	-0.035421	1.331808	1.020765
C61	C	-0.519141	0.740327	0.504973
C62	C	-0.019141	1.240327	1.004973
C63	C	-0.864398	1.192759	0.640710
C64	C	-0.364398	1.692759	1.140710
C65	C	-0.952266	1.192804	0.640741
C66	C	-0.452266	1.692804	1.140741
C67	C	-1.320817	1.127199	0.687084
C68	C	-0.820817	1.627199	1.187084
C69	C	-1.326729	1.258690	0.594523
C70	C	-0.826729	1.758690	1.094523
C71	C	-1.244176	1.258660	0.594509
C72	C	-0.744176	1.758660	1.094509
C73	C	-1.199940	1.192899	0.640783
C74	C	-0.699940	1.692899	1.140783
C75	C	-1.238256	1.127167	0.687070
C76	C	-0.738256	1.627167	1.187070
C77	C	-1.205852	1.324386	0.548216
C78	C	-0.705852	1.824386	1.048216
C79	C	-1.123295	1.324359	0.548200
C80	C	-0.623295	1.824359	1.048200
C81	C	-1.079058	1.258601	0.594479
C82	C	-0.579058	1.758601	1.094479
C83	C	-1.117379	1.192866	0.640769
C84	C	-0.617379	1.692866	1.140769
C85	C	-1.073143	1.127105	0.687042
C86	C	-0.573143	1.627105	1.187042
C87	C	-1.111464	1.061373	0.733338
C88	C	-0.611464	1.561373	1.233338
C89	C	-1.194019	1.061408	0.733349
C90	C	-0.694019	1.561408	1.233349
C91	C	-0.996503	1.258566	0.594468
C92	C	-0.496503	1.758566	1.094468
C93	C	-0.990582	1.127072	0.687028
C94	C	-0.490582	1.627072	1.187028
C95	C	-0.452900	1.192922	0.640788
C96	C	0.047100	1.692922	1.140788
C97	C	-0.365053	1.192961	0.640810
C98	C	0.134947	1.692961	1.140810
C99	C	-0.687624	1.153320	0.869207
C100	C	-0.187624	1.653320	1.369207
C101	C	-0.699803	1.136484	0.966567
C102	C	-0.199803	1.636484	1.466567
C103	C	-0.699746	1.421305	0.680234
C104	C	-0.199746	1.921305	1.180234
C105	C	-0.717090	1.518668	0.697066
C106	C	-0.217090	2.018668	1.197066
C107	C	-0.630532	1.232237	0.413166
C108	C	-0.130532	1.732237	0.913166
C109	C	-0.618162	1.249243	0.315836
C110	C	-0.118162	1.749243	0.815836
C111	C	-0.571876	1.313198	1.279796
C112	C	-0.071876	1.813198	1.779796
C113	C	-0.560436	1.329022	1.188322
C114	C	-0.060436	1.829022	1.688322
C115	C	-0.595276	1.280889	1.132879
C116	C	-0.095276	1.780889	1.632879
C117	C	-0.641559	1.216928	1.168918
C118	C	-0.141559	1.716928	1.668918
C119	C	-0.653005	1.201107	1.260401
C120	C	-0.153005	1.701107	1.760401
C121	C	-0.676406	1.168798	1.113484
C122	C	-0.176406	1.668798	1.613484
C123	C	-0.722688	1.104838	1.149523
C124	C	-0.222688	1.604838	1.649523
C125	C	-0.734131	1.089019	1.240998
C126	C	-0.234131	1.589019	1.740998
C127	C	-0.699291	1.137153	1.296441
C128	C	-0.199291	1.637153	1.796441
C129	C	-0.664960	1.184620	1.022001
C130	C	-0.164960	1.684620	1.522001
C131	C	-0.746089	1.072529	1.002606
C132	C	-0.246089	1.572529	1.502606
C133	C	-0.757528	1.056705	1.094080
C134	C	-0.257528	1.556705	1.594080
H135	H	-0.588584	0.463516	0.572369
H136	H	-0.088584	0.963516	1.072369
H137	H	-1.225228	1.007892	0.771039
H138	H	-0.725228	1.507892	1.271039
H139	H	-0.965304	1.312080	0.556770
H140	H	-0.465304	1.812080	1.056770
Cl141	Cl	-0.528091	1.373708	1.349500
Cl142	Cl	-0.028091	1.873708	1.849500
H143	H	-1.352022	1.073684	0.724779
H144	H	-0.852022	1.573684	1.224779
H145	H	-0.704223	0.841826	0.684570
H146	H	-0.204223	1.341826	1.184570
Cl147	Cl	-1.261468	1.407056	0.490054
Cl148	Cl	-0.761468	1.907056	0.990054
Cl149	Cl	-1.382341	1.341357	0.536354
Cl150	Cl	-0.882341	1.841357	1.036354
H151	H	-0.495126	0.876931	0.481661
H152	H	0.004874	1.376931	0.981661
H153	H	-0.774460	1.033337	0.957464
H154	H	-0.274460	1.533337	1.457464
H155	H	-0.585960	1.293777	1.058398
H156	H	-0.085960	1.793777	1.558398
H157	H	-0.498805	0.564064	0.485228
H158	H	0.001195	1.064064	0.985228
Cl159	Cl	-1.075130	1.406998	0.490010
Cl160	Cl	-0.575130	1.906998	0.990010
H161	H	-0.627275	1.236696	0.992667
H162	H	-0.127275	1.736696	1.492667
Cl163	Cl	-0.436463	0.694971	0.424750
Cl164	Cl	0.063537	1.194971	0.924750
H165	H	-0.522755	1.381101	1.158987
H166	H	-0.022755	1.881101	1.658987
H167	H	-1.075436	1.007826	0.771009
H168	H	-0.575436	1.507826	1.271009
H169	H	-0.708603	1.124272	1.370927
H170	H	-0.208603	1.624272	1.870927
Cl171	Cl	-0.815712	0.976302	1.139397
Cl172	Cl	-0.315712	1.476302	1.639397
Cl173	Cl	-0.770114	0.816643	0.748512
Cl174	Cl	-0.270114	1.316643	1.248512
Cl175	Cl	-0.881811	0.691558	0.856898
Cl176	Cl	-0.381811	1.191558	1.356898
Cl177	Cl	-0.792331	1.008627	1.286304
Cl178	Cl	-0.292331	1.508627	1.786304
H179	H	-0.954571	1.073523	0.724714
H180	H	-0.454571	1.573523	1.224714
Cl181	Cl	-0.845071	0.485069	0.821228
Cl182	Cl	-0.345071	0.985069	1.321228
