data_functionalizedCrystal
_audit_creation_method	'MofGen! by Chris Wilmer'
_symmetry_space_group_name_H-M	'P1'
_symmetry_Int_Tables_number	1
_symmetry_cell_setting	triclinic
loop_
_symmetry_equiv_pos_as_xyz
  x,y,z
_cell_length_a	21.295417
_cell_length_b	12.759395
_cell_length_c	12.759387
_cell_angle_alpha	90.020674
_cell_angle_beta	89.961464
_cell_angle_gamma	89.972017
loop_
_atom_site_label
_atom_site_type_symbol
_atom_site_fract_x
_atom_site_fract_y
_atom_site_fract_z
Zn1	Zn	-0.250618	-1.606153	-0.593953
Zn2	Zn	-0.355901	-1.605995	-0.418250
Zn3	Zn	-0.250645	-1.430451	-0.418290
Zn4	Zn	-0.355849	-1.430395	-0.593888
O5	O	-0.303254	-1.518249	-0.506095
O6	O	-0.264595	-1.753153	-0.570656
O7	O	-0.341972	-1.582667	-0.271234
O8	O	-0.162552	-1.453848	-0.441635
O9	O	-0.341946	-1.753037	-0.441568
O10	O	-0.162533	-1.582936	-0.570695
O11	O	-0.264641	-1.453695	-0.271263
O12	O	-0.264590	-1.283423	-0.441573
O13	O	-0.341857	-1.453753	-0.740918
O14	O	-0.341883	-1.283382	-0.570584
O15	O	-0.264544	-1.582881	-0.740966
O16	O	-0.443984	-1.582612	-0.441505
O17	O	-0.443945	-1.453600	-0.570546
C18	C	-0.303234	-1.245281	-0.506076
C19	C	-0.303241	-1.128505	-0.506093
C20	C	-0.222826	-1.128606	-0.640730
C21	C	-0.182625	-1.073796	-0.708056
C22	C	-0.182633	-0.964074	-0.708067
C23	C	-0.222846	-0.909160	-0.640742
C24	C	-0.263047	-0.963970	-0.573416
C25	C	-0.263036	-1.073695	-0.573415
C26	C	-0.343458	-0.963869	-0.438776
C27	C	-0.343454	-1.073591	-0.438769
C28	C	-0.383671	-0.908955	-0.371451
C29	C	-0.423877	-0.963765	-0.304129
C30	C	-0.423867	-1.073493	-0.304122
C31	C	-0.383655	-1.128401	-0.371443
C32	C	-0.466805	-1.518111	-0.506037
C33	C	-0.536773	-1.518148	-0.506047
C34	C	-0.569639	-1.585385	-0.438925
C35	C	-0.635381	-1.585434	-0.438948
C36	C	-0.668256	-1.518228	-0.506084
C37	C	-0.635382	-1.450987	-0.573219
C38	C	-0.569641	-1.450947	-0.573201
N39	N	-0.771519	-1.426321	-0.514087
N40	N	-0.833970	-1.426362	-0.514098
C41	C	-0.866330	-1.518346	-0.506144
N42	N	-0.833880	-1.610289	-0.498158
N43	N	-0.771423	-1.610247	-0.498141
C44	C	-0.739541	-1.518264	-0.506111
C45	C	-0.970482	-1.585641	-0.439043
C46	C	-1.036225	-1.585692	-0.439074
C47	C	-1.036225	-1.451236	-0.573340
C48	C	-0.970482	-1.451194	-0.573314
C49	C	-0.937615	-1.518395	-0.506160
C50	C	-0.139063	-1.518416	-0.506177
C51	C	-0.069095	-1.518487	-0.506211
C52	C	-0.303192	-1.518328	-0.780129
C53	C	-0.303166	-1.518362	-0.896906
C54	C	-0.303267	-0.792282	-0.506109
C55	C	-0.303257	-0.909059	-0.506101
C56	C	-0.222665	-1.652833	-0.896975
C57	C	-0.182406	-1.720083	-0.951870
C58	C	-0.182383	-1.720108	-1.061592
C59	C	-0.222622	-1.652874	-1.116421
C60	C	-0.262882	-1.585624	-1.061525
C61	C	-0.262902	-1.585608	-0.951801
C62	C	-0.343378	-1.451150	-1.061456
C63	C	-0.343405	-1.451128	-0.951734
C64	C	-0.383618	-1.383916	-1.116285
C65	C	-0.423881	-1.316670	-1.061389
C66	C	-0.423903	-1.316648	-0.951661
C67	C	-0.383665	-1.383878	-0.896839
C68	C	-0.303270	-1.518230	-0.233128
C69	C	-0.303119	-1.518400	-0.116352
H70	H	-0.456602	-1.118113	-0.249294
C71	C	-0.671541	-1.659389	-0.365102
H72	H	-0.642551	-1.699400	-0.325101
H73	H	-0.697147	-1.705163	-0.405330
H74	H	-0.697227	-1.619219	-0.319300
C75	C	-1.072375	-1.377311	-0.647193
H76	H	-1.043383	-1.337263	-0.687170
H77	H	-1.098067	-1.331571	-0.606974
H78	H	-1.097974	-1.417502	-0.693017
C79	C	-0.533488	-1.659315	-0.365070
H80	H	-0.562481	-1.699373	-0.325104
H81	H	-0.507883	-1.619140	-0.319251
H82	H	-0.507802	-1.705061	-0.405303
C83	C	-0.383688	-1.383851	-0.776148
H84	H	-0.413429	-1.334175	-0.751304
H85	H	-0.343067	-1.365731	-0.751351
H86	H	-0.394592	-1.451635	-0.751332
H87	H	-0.222812	-1.217947	-0.640724
C88	C	-0.222593	-1.652898	-1.237111
H89	H	-0.192854	-1.702580	-1.261952
H90	H	-0.211696	-1.585116	-1.261927
H91	H	-0.263214	-1.671032	-1.261914
H92	H	-0.662153	-1.396269	-0.627883
H93	H	-0.149894	-0.919448	-0.762883
C94	C	-1.072381	-1.659642	-0.365225
H95	H	-1.116242	-1.650048	-0.374856
H96	H	-1.061648	-1.644278	-0.294623
H97	H	-1.061565	-1.730227	-0.380647
H98	H	-0.149596	-1.774863	-1.106288
C99	C	-0.934322	-1.659569	-0.365194
H100	H	-0.890461	-1.649908	-0.374787
H101	H	-0.945051	-1.730157	-0.380640
H102	H	-0.945140	-1.644236	-0.294588
H103	H	-0.456681	-1.261873	-0.906972
C104	C	-0.533487	-1.376978	-0.647034
H105	H	-0.562479	-1.336954	-0.687019
H106	H	-0.507795	-1.417126	-0.692835
H107	H	-0.507889	-1.331201	-0.606787
H108	H	-0.943721	-1.396439	-0.627968
C109	C	-0.222691	-1.652812	-0.776284
H110	H	-0.192959	-1.702479	-0.751493
H111	H	-0.263321	-1.670923	-0.751443
H112	H	-0.211796	-1.585019	-0.751458
C113	C	-0.383643	-1.249091	-0.371439
H114	H	-0.353934	-1.273942	-0.421171
H115	H	-0.424277	-1.273901	-0.389470
H116	H	-0.372697	-1.273889	-0.303672
H117	H	-0.149642	-1.774821	-0.907217
H118	H	-0.383594	-1.383938	-1.205626
H119	H	-0.149883	-1.118519	-0.762868
H120	H	-0.456638	-1.261928	-1.106040
H121	H	-0.456612	-0.919045	-0.249315
H122	H	-0.383673	-0.819614	-0.371462
C123	C	-0.222851	-0.788470	-0.640749
H124	H	-0.193151	-0.763692	-0.690489
H125	H	-0.211918	-0.763627	-0.572987
H126	H	-0.263491	-0.763631	-0.658796
