data_functionalizedCrystal
_audit_creation_method	'MofGen! by Chris Wilmer'
_symmetry_space_group_name_H-M	'P1'
_symmetry_Int_Tables_number	1
_symmetry_cell_setting	triclinic
loop_
_symmetry_equiv_pos_as_xyz
  x,y,z
_cell_length_a	23.532407
_cell_length_b	23.532357
_cell_length_c	22.010155
_cell_angle_alpha	89.998697
_cell_angle_beta	89.996931
_cell_angle_gamma	82.838485
loop_
_atom_site_label
_atom_site_type_symbol
_atom_site_fract_x
_atom_site_fract_y
_atom_site_fract_z
O1	O	0.755251	0.069129	-0.050457
O2	O	1.255251	0.569129	0.449543
O3	O	0.589386	0.079132	-0.050475
O4	O	1.089386	0.579132	0.449525
O5	O	0.677335	-0.008803	-0.050453
O6	O	1.177335	0.491197	0.449547
O7	O	0.667302	0.157064	-0.050479
O8	O	1.167302	0.657064	0.449521
O9	O	0.677319	-0.008790	0.050597
O10	O	1.177319	0.491210	0.550597
O11	O	0.589370	0.079145	0.050575
O12	O	1.089370	0.579145	0.550575
O13	O	0.755235	0.069142	0.050594
O14	O	1.255235	0.569142	0.550594
Cu15	Cu	0.672301	0.074145	0.059811
Cu16	Cu	1.172301	0.574145	0.559811
Cu17	Cu	0.672320	0.074129	-0.059693
Cu18	Cu	1.172320	0.574129	0.440307
O19	O	0.667286	0.157077	0.050571
O20	O	1.167286	0.657077	0.550571
C21	C	0.568162	0.078884	0.000048
C22	C	1.068162	0.578884	0.500048
C23	C	0.504945	0.078118	0.000041
C24	C	1.004945	0.578118	0.500041
C25	C	0.105834	0.125353	0.000061
C26	C	0.605834	0.625353	0.500061
C27	C	0.046434	0.124641	0.000065
C28	C	0.546434	0.624641	0.500065
O29	O	0.009681	0.168428	0.000080
O30	O	0.509681	0.668428	0.500080
N31	N	0.023817	0.072364	0.000072
N32	N	0.523817	0.572364	0.500072
C33	C	0.060604	0.020794	0.000082
C34	C	0.560604	0.520794	0.500082
O35	O	0.035912	-0.023737	0.000089
O36	O	0.535912	0.476263	0.500089
C37	C	0.120003	0.021506	0.000082
C38	C	0.620003	0.521506	0.500082
C39	C	0.142616	0.073787	0.000069
C40	C	0.642616	0.573787	0.500069
C41	C	0.128448	0.177629	0.000048
C42	C	0.628448	0.677629	0.500048
C43	C	0.187844	0.178341	0.000043
C44	C	0.687844	0.678341	0.500043
C45	C	0.224626	0.126775	0.000051
C46	C	0.724626	0.626775	0.500051
C47	C	0.202012	0.074498	0.000064
C48	C	0.702012	0.574498	0.500064
C49	C	0.156788	-0.030063	0.000096
C50	C	0.656788	0.469937	0.500096
C51	C	0.216191	-0.029346	0.000097
C52	C	0.716191	0.470654	0.500097
C53	C	0.238804	0.022935	0.000084
C54	C	0.738804	0.522935	0.500084
C55	C	0.298190	0.023644	0.000067
C56	C	0.798190	0.523644	0.500067
N57	N	0.320807	0.075922	0.000059
N58	N	0.820807	0.575922	0.500059
C59	C	0.284025	0.127487	0.000052
C60	C	0.784025	0.627487	0.500052
C61	C	-0.064139	0.019303	0.000082
C62	C	0.435861	0.519303	0.500082
C63	C	-0.123536	0.018590	0.000077
C64	C	0.376464	0.518590	0.500077
C65	C	-0.137702	0.122437	0.000061
C66	C	0.362298	0.622437	0.500061
C67	C	-0.078303	0.123149	0.000062
C68	C	0.421697	0.623149	0.500062
C69	C	-0.041522	0.071580	0.000074
C70	C	0.458478	0.571580	0.500074
C71	C	0.408761	0.128977	0.000041
C72	C	0.908761	0.628977	0.500041
C73	C	0.468163	0.129684	0.000033
C74	C	0.968163	0.629684	0.500033
C75	C	0.482324	0.025837	0.000052
C76	C	0.982324	0.525837	0.500052
C77	C	0.422927	0.025130	0.000056
C78	C	0.922927	0.525130	0.500056
C79	C	0.386147	0.076704	0.000053
C80	C	0.886147	0.576704	0.500053
O81	O	0.334977	-0.020120	0.000054
O82	O	0.834977	0.479880	0.500054
O83	O	0.308725	0.172011	0.000052
O84	O	0.808725	0.672011	0.500052
C85	C	0.677076	-0.030013	0.000074
C86	C	1.177076	0.469987	0.500074
C87	C	0.676322	-0.093232	0.000080
C88	C	1.176322	0.406768	0.500080
C89	C	0.671594	-0.485250	-0.055036
C90	C	1.171594	0.014750	0.444964
C91	C	0.670877	-0.544650	-0.055040
C92	C	1.170877	-0.044650	0.444960
O93	O	0.670494	-0.575372	-0.101885
O94	O	1.170494	-0.075372	0.398115
N95	N	0.670512	-0.574354	0.000042
N96	N	1.170512	-0.074354	0.500042
C97	C	0.670859	-0.544655	0.055131
C98	C	1.170859	-0.044655	0.555131
O99	O	0.670483	-0.575374	0.101982
O100	O	1.170483	-0.075374	0.601982
C101	C	0.671572	-0.485256	0.055134
C102	C	1.171572	0.014744	0.555134
C103	C	0.671943	-0.455556	0.000048
C104	C	1.171943	0.044444	0.500048
C105	C	0.671963	-0.455550	-0.110117
C106	C	1.171963	0.044450	0.389883
C107	C	0.672682	-0.396155	-0.110113
C108	C	1.172682	0.103845	0.389887
C109	C	0.673030	-0.366460	-0.055029
C110	C	1.173030	0.133540	0.444971
C111	C	0.672661	-0.396160	0.000052
C112	C	1.172661	0.103840	0.500052
C113	C	0.671915	-0.455557	0.110222
C114	C	1.171915	0.044443	0.610222
C115	C	0.672628	-0.396154	0.110220
C116	C	1.172628	0.103846	0.610220
C117	C	0.672998	-0.366454	0.055135
C118	C	1.172998	0.133546	0.555135
C119	C	0.673728	-0.307070	0.055141
C120	C	1.173728	0.192930	0.555141
N121	N	0.674092	-0.277366	0.000059
N122	N	1.174092	0.222634	0.500059
C123	C	0.673743	-0.307061	-0.055026
C124	C	1.173743	0.192939	0.444974
C125	C	0.669361	-0.669396	0.055121
C126	C	1.169361	-0.169396	0.555121
C127	C	0.668652	-0.728795	0.055118
C128	C	1.168652	-0.228795	0.555118
C129	C	0.668668	-0.728786	-0.055053
C130	C	1.168668	-0.228786	0.444947
C131	C	0.669381	-0.669387	-0.055050
C132	C	1.169381	-0.169387	0.444950
C133	C	0.669725	-0.639692	0.000039
C134	C	1.169725	-0.139692	0.500039
C135	C	0.675252	-0.182327	-0.055014
C136	C	1.175252	0.317673	0.444986
C137	C	0.675973	-0.122927	-0.055005
C138	C	1.175973	0.377073	0.444995
C139	C	0.675954	-0.122941	0.055166
C140	C	1.175954	0.377059	0.555166
C141	C	0.675236	-0.182336	0.055157
C142	C	1.175236	0.317664	0.555157
C143	C	0.674883	-0.212027	0.000063
C144	C	1.174883	0.287973	0.500063
O145	O	0.674109	-0.276310	0.101962
O146	O	1.174109	0.223690	0.601962
O147	O	0.674112	-0.276333	-0.101869
O148	O	1.174112	0.223667	0.398131
C149	C	0.776459	0.069390	0.000070
C150	C	1.276459	0.569390	0.500070
C151	C	0.839676	0.070156	0.000072
C152	C	1.339676	0.570156	0.500072
C153	C	0.667545	0.178287	0.000043
C154	C	1.167545	0.678287	0.500043
C155	C	0.668300	0.241506	0.000033
C156	C	1.168300	0.741506	0.500033
N157	N	0.672292	0.074155	0.143864
N158	N	1.172292	0.574155	0.643864
N159	N	0.672334	0.074114	-0.143745
N160	N	1.172334	0.574114	0.356255
C161	C	0.711266	0.035197	0.563653
C162	C	1.211266	0.535197	1.063653
C163	C	0.711269	0.035193	0.627260
C164	C	1.211269	0.535193	1.127260
O165	O	0.744383	0.002076	0.660160
O166	O	1.244383	0.502076	1.160160
N167	N	0.672320	0.074117	0.659071
N168	N	1.172320	0.574117	1.159071
C169	C	0.633362	0.113044	0.627270
C170	C	1.133362	0.613044	1.127270
O171	O	0.600233	0.146152	0.660168
O172	O	1.100233	0.646152	1.160168
C173	C	0.633357	0.113045	0.563663
C174	C	1.133357	0.613045	1.063663
C175	C	0.672312	0.074122	0.531857
C176	C	1.172312	0.574122	1.031857
C177	C	0.750218	-0.003724	0.531846
C178	C	1.250218	0.496276	1.031846
C179	C	0.750216	-0.003719	0.468243
C180	C	1.250216	0.496281	0.968243
C181	C	0.711262	0.035206	0.436446
C182	C	1.211262	0.535206	0.936446
C183	C	0.672310	0.074127	0.468253
C184	C	1.172310	0.574127	0.968253
C185	C	0.594397	0.151969	0.531864
C186	C	1.094397	0.651969	1.031864
C187	C	0.594395	0.151966	0.468253
C188	C	1.094395	0.651966	0.968253
C189	C	0.633350	0.113043	0.436446
C190	C	1.133350	0.613043	0.936446
C191	C	0.633354	0.113056	0.372854
C192	C	1.133354	0.613056	0.872854
N193	N	0.672303	0.074132	0.341044
N194	N	1.172303	0.574132	0.841044
C195	C	0.711257	0.035207	0.372840
C196	C	1.211257	0.535207	0.872840
C197	C	0.633374	0.113039	0.760848
C198	C	1.133374	0.613039	1.260848
C199	C	0.633382	0.113041	0.824453
C200	C	1.133382	0.613041	1.324453
C201	C	0.711288	0.035189	0.824439
C202	C	1.211288	0.535189	1.324439
C203	C	0.711283	0.035190	0.760833
C204	C	1.211283	0.535190	1.260833
C205	C	0.672323	0.074115	0.729038
C206	C	1.172323	0.574115	1.229038
C207	C	0.711250	0.035220	0.239269
C208	C	1.211250	0.535220	0.739269
C209	C	0.711246	0.035230	0.175660
C210	C	1.211246	0.535230	0.675660
C211	C	0.633338	0.113080	0.175679
C212	C	1.133338	0.613080	0.675679
C213	C	0.633344	0.113073	0.239282
C214	C	1.133344	0.613073	0.739282
C215	C	0.672302	0.074138	0.271076
C216	C	1.172302	0.574138	0.771076
O217	O	0.600255	0.146155	0.339914
O218	O	1.100255	0.646155	0.839914
O219	O	0.744376	0.002100	0.339935
O220	O	1.244376	0.502100	0.839935
H221	H	0.404515	-0.017442	0.000058
H222	H	0.904515	0.482558	0.500058
N223	N	0.552371	0.193944	0.566157
N224	N	1.052371	0.693944	1.066157
H225	H	0.573971	0.219061	0.592547
H226	H	1.073971	0.719061	1.092547
H227	H	0.527705	0.218554	0.536312
H228	H	1.027705	0.718554	1.036312
N229	N	0.676324	-0.090909	0.114578
N230	N	1.176324	0.409091	0.614578
H231	H	0.711503	-0.106064	0.138670
H232	H	1.211503	0.393936	0.638670
H233	H	0.676810	-0.048781	0.106170
H234	H	1.176810	0.451219	0.606170
N235	N	0.673089	-0.364129	-0.169528
N236	N	1.173089	0.135871	0.330472
H237	H	0.673602	-0.321993	-0.161177
H238	H	1.173602	0.178007	0.338823
H239	H	0.708283	-0.379342	-0.193565
H240	H	1.208283	0.120658	0.306435
N241	N	0.591321	0.155056	0.141376
N242	N	1.091321	0.655056	0.641376
H243	H	0.566641	0.179714	0.171174
H244	H	1.066641	0.679714	0.671174
H245	H	0.612971	0.180126	0.114981
H246	H	1.112971	0.680126	0.614981
H247	H	0.668359	-0.752973	0.099974
H248	H	1.168359	-0.252973	0.599974
H249	H	0.246136	-0.071341	0.000108
H250	H	0.746136	0.428659	0.500108
N251	N	0.669738	-0.637371	0.114541
N252	N	1.169738	-0.137371	0.614541
H253	H	0.669401	-0.665206	0.149430
H254	H	1.169401	-0.165206	0.649430
H255	H	0.705345	-0.617547	0.116947
H256	H	1.205345	-0.117547	0.616947
H257	H	0.562667	0.183662	0.442369
H258	H	1.062667	0.683662	0.942369
N259	N	-0.053922	0.179540	0.000053
N260	N	0.446078	0.679540	0.500053
H261	H	-0.029597	0.182159	0.037513
H262	H	0.470403	0.682159	0.537513
H263	H	-0.029618	0.182116	-0.037431
H264	H	0.470382	0.682116	0.462569
N265	N	0.671517	-0.487581	0.169636
N266	N	1.171517	0.012419	0.669636
H267	H	0.671843	-0.459747	0.204527
H268	H	1.171843	0.040253	0.704527
H269	H	0.635909	-0.507404	0.172031
H270	H	1.135909	-0.007404	0.672031
H271	H	0.512282	-0.016147	0.000056
H272	H	1.012282	0.483853	0.500056
N273	N	0.591338	0.155061	0.273593
N274	N	1.091338	0.655061	0.773593
H275	H	0.566664	0.179723	0.243796
H276	H	1.066664	0.679723	0.743796
H277	H	0.566288	0.133386	0.299984
H278	H	1.066288	0.633386	0.799984
H279	H	0.486571	0.172259	0.000022
H280	H	0.986571	0.672259	0.500022
N281	N	-0.147926	-0.037797	0.000089
N282	N	0.352074	0.462203	0.500089
H283	H	-0.172254	-0.040416	-0.037367
H284	H	0.327746	0.459584	0.462633
H285	H	-0.115576	-0.070321	0.000117
H286	H	0.384424	0.429679	0.500117
N287	N	-0.024468	-0.036322	0.000092
N288	N	0.475532	0.463678	0.500092
H289	H	-0.047814	-0.069544	0.000097
H290	H	0.452186	0.430456	0.500097
H291	H	0.000488	-0.038297	-0.037368
H292	H	0.500488	0.461703	0.462632
H293	H	0.743006	0.003493	0.850339
H294	H	1.243006	0.503493	1.350339
N295	N	0.676350	-0.090880	-0.114414
N296	N	1.176350	0.409120	0.385586
H297	H	0.711953	-0.071050	-0.116873
H298	H	1.211953	0.428950	0.383127
H299	H	0.675990	-0.118732	-0.149282
H300	H	1.175990	0.381268	0.350718
H301	H	0.601650	0.144741	0.734963
H302	H	1.101650	0.644741	1.234963
N303	N	0.369096	0.184602	0.000051
N304	N	0.869096	0.684602	0.500051
H305	H	0.392443	0.217823	0.000046
H306	H	0.892443	0.717823	0.500046
H307	H	0.344137	0.186575	-0.037404
H308	H	0.844137	0.686575	0.462596
H309	H	0.743004	0.003495	0.734939
H310	H	1.243004	0.503495	1.234939
N311	N	0.591369	0.155025	0.858756
N312	N	1.091369	0.655025	1.358756
H313	H	0.566693	0.179682	0.828955
H314	H	1.066693	0.679682	1.328955
H315	H	0.566321	0.133345	0.885145
H316	H	1.066321	0.633345	1.385145
H317	H	0.098505	0.219623	0.000044
H318	H	0.598505	0.719623	0.500044
N319	N	0.212229	0.234729	0.000026
N320	N	0.712229	0.734729	0.500026
H321	H	0.179908	0.267283	0.000021
H322	H	0.679908	0.767283	0.500021
H323	H	0.236564	0.237298	0.037484
H324	H	0.736564	0.737298	0.537484
H325	H	0.674962	-0.206494	-0.099877
H326	H	1.174962	0.293506	0.400123
H327	H	0.742970	0.003534	0.149765
H328	H	1.242970	0.503534	0.649765
N329	N	0.671626	-0.487578	-0.169535
N330	N	1.171626	0.012422	0.330465
H331	H	0.671982	-0.459743	-0.204422
H332	H	1.171982	0.040257	0.295578
H333	H	0.706656	-0.517025	-0.171904
H334	H	1.206656	-0.017025	0.328096
H335	H	0.742973	0.003516	0.265148
H336	H	1.242973	0.503516	0.765148
H337	H	0.138388	-0.072635	0.000107
H338	H	0.638388	0.427365	0.500107
H339	H	0.668382	-0.752974	-0.099906
H340	H	1.168382	-0.252974	0.400094
H341	H	-0.167662	0.164425	0.000058
H342	H	0.332338	0.664425	0.500058
N343	N	0.669780	-0.637355	-0.114462
N344	N	1.169780	-0.137355	0.385538
H345	H	0.669453	-0.665186	-0.149355
H346	H	1.169453	-0.165186	0.350645
H347	H	0.634765	-0.607892	-0.116869
H348	H	1.134765	-0.107892	0.383131
N349	N	0.672997	-0.364126	0.169638
N350	N	1.172997	0.135874	0.669638
H351	H	0.672654	-0.391958	0.204530
H352	H	1.172654	0.108042	0.704530
H353	H	0.708605	-0.344303	0.172048
H354	H	1.208605	0.155697	0.672048
H355	H	0.781935	-0.035415	0.442349
H356	H	1.281935	0.464585	0.942349
H357	H	0.674940	-0.206520	0.100012
H358	H	1.174940	0.293480	0.600012
N359	N	0.792245	-0.045702	0.566134
N360	N	1.292245	0.454298	1.066134
H361	H	0.816919	-0.070350	0.536324
H362	H	1.316919	0.429650	1.036324
H363	H	0.817293	-0.024015	0.592513
H364	H	1.317293	0.475985	1.092513
