data_functionalizedCrystal
_audit_creation_method	'MofGen! by Chris Wilmer'
_symmetry_space_group_name_H-M	'P1'
_symmetry_Int_Tables_number	1
_symmetry_cell_setting	triclinic
loop_
_symmetry_equiv_pos_as_xyz
  x,y,z
_cell_length_a	12.594517
_cell_length_b	12.594516
_cell_length_c	12.594510
_cell_angle_alpha	89.967679
_cell_angle_beta	89.978880
_cell_angle_gamma	90.015853
loop_
_atom_site_label
_atom_site_type_symbol
_atom_site_fract_x
_atom_site_fract_y
_atom_site_fract_z
Zn1	Zn	1.627265	-0.423651	-0.601875
Zn2	Zn	1.627156	-0.601681	-0.423903
Zn3	Zn	1.449269	-0.423716	-0.423904
Zn4	Zn	1.449251	-0.601588	-0.601833
O5	O	1.538235	-0.512659	-0.512879
O6	O	1.776196	-0.447279	-0.578284
O7	O	1.603522	-0.578139	-0.274957
O8	O	1.472934	-0.274762	-0.447530
O9	O	1.776116	-0.578077	-0.447528
O10	O	1.603706	-0.274714	-0.578285
O11	O	1.472829	-0.447389	-0.274958
O12	O	1.300321	-0.447299	-0.447489
O13	O	1.472903	-0.577918	-0.750784
O14	O	1.300308	-0.577981	-0.578213
O15	O	1.603689	-0.447189	-0.750815
O16	O	1.603504	-0.750614	-0.447488
O17	O	1.472797	-0.750546	-0.578212
C18	C	1.261694	-0.512638	-0.512847
C19	C	1.143389	-0.512654	-0.512859
C20	C	1.074112	-0.441479	-0.441894
C21	C	1.003301	-0.538571	-0.415718
C22	C	1.003401	-0.415610	-0.539054
C23	C	1.074136	-0.609797	-0.486632
C24	C	1.074242	-0.486770	-0.610013
C25	C	1.003463	-0.583929	-0.583874
C26	C	1.538166	-0.789200	-0.512868
C27	C	1.538233	-0.907505	-0.512899
C28	C	1.467135	-0.976760	-0.583950
C29	C	1.441202	-1.047636	-0.486827
C30	C	1.564263	-1.047429	-0.610039
C31	C	1.512249	-0.976823	-0.415725
C32	C	1.635355	-0.976610	-0.539002
C33	C	1.609459	-1.047453	-0.441812
C34	C	1.815856	-0.512681	-0.512911
C35	C	1.934162	-0.512691	-0.512924
C36	C	1.538306	-0.512536	-0.790500
C37	C	1.538336	-0.512484	-0.908805
C38	C	1.538334	-0.235038	-0.512912
C39	C	1.538377	-0.116733	-0.512927
C40	C	1.609491	-0.441375	-0.978075
C41	C	1.512415	-0.415322	-1.048865
C42	C	1.635468	-0.538462	-1.048814
C43	C	1.441208	-0.486381	-0.978037
C44	C	1.564326	-0.609566	-0.977980
C45	C	1.467183	-0.583550	-1.048738
C46	C	1.538227	-0.512705	-0.236338
C47	C	1.538403	-0.512457	-0.118033
H48	H	0.972274	-0.333537	-0.561146
H49	H	1.490455	-0.333210	-1.080002
H50	H	1.669646	-1.078298	-0.381669
H51	H	0.972143	-0.560486	-0.333584
O52	O	1.343290	-0.460007	-0.940934
C53	C	1.344440	-0.460324	-0.828992
H54	H	1.429253	-0.448495	-0.799700
H55	H	1.312791	-0.539546	-0.798651
C56	C	1.169714	-0.384159	-0.823247
C57	C	1.273881	-0.369622	-0.787269
H58	H	1.126186	-0.328214	-0.797508
H59	H	1.168936	-0.383949	-0.898664
H60	H	1.143354	-0.450181	-0.797959
H61	H	1.300244	-0.303608	-0.812568
H62	H	1.274662	-0.369819	-0.711855
H63	H	1.406969	-0.643673	-1.079569
H64	H	0.972637	-0.644204	-0.643914
O65	O	1.733205	-0.939406	-0.565552
C66	C	1.760279	-0.975336	-0.668050
H67	H	1.684842	-0.995259	-0.713903
H68	H	1.811971	-1.049332	-0.661390
C69	C	1.914580	-0.863244	-0.670753
C70	C	1.821927	-0.887705	-0.727073
H71	H	1.952612	-0.809193	-0.707161
H72	H	1.896343	-0.839040	-0.601696
H73	H	1.957645	-0.924915	-0.665207
H74	H	1.778859	-0.826039	-0.732607
H75	H	1.840159	-0.911897	-0.796133
O76	O	1.590593	-1.084557	-0.707945
C77	C	1.683874	-1.146004	-0.700719
H78	H	1.693373	-1.176574	-0.616041
H79	H	1.755395	-1.094993	-0.722644
C80	C	1.664658	-1.203195	-0.881598
C81	C	1.676319	-1.240748	-0.777597
H82	H	1.660001	-1.261635	-0.929022
H83	H	1.601815	-1.161793	-0.886468
H84	H	1.724261	-1.160685	-0.899853
H85	H	1.616711	-1.283245	-0.759338
H86	H	1.739152	-1.282159	-0.772725
H87	H	1.105426	-0.464825	-0.692122
O88	O	1.590743	-0.707463	-0.940847
C89	C	1.693212	-0.734574	-0.976868
H90	H	1.739166	-0.659151	-0.996785
H91	H	1.686500	-0.786201	-1.050887
C92	C	1.695695	-0.888969	-0.864860
C93	C	1.752140	-0.796332	-0.889314
H94	H	1.732044	-0.927068	-0.810856
H95	H	1.626658	-0.870707	-0.840595
H96	H	1.690105	-0.931979	-0.926550
H97	H	1.757717	-0.753318	-0.827629
H98	H	1.821180	-0.814588	-0.913567
O99	O	1.681273	-0.369747	-0.940997
C100	C	1.758323	-0.422636	-0.879381
H101	H	1.761585	-0.509812	-0.903463
H102	H	1.736419	-0.416382	-0.791771
C103	C	1.863663	-0.264023	-0.868312
C104	C	1.867676	-0.371093	-0.897897
H105	H	1.931116	-0.232227	-0.879729
H106	H	1.811752	-0.228389	-0.909821
H107	H	1.845405	-0.258826	-0.795305
H108	H	1.885920	-0.376288	-0.970905
H109	H	1.919593	-0.406727	-0.856400
H110	H	1.359135	-1.078857	-0.464772
O111	O	1.733458	-0.564513	-1.085958
C112	C	1.772910	-0.480897	-1.149157
H113	H	1.731718	-0.403674	-1.126142
H114	H	1.756835	-0.498801	-1.236404
C115	C	1.943955	-0.564536	-1.159691
C116	C	1.893369	-0.469688	-1.131418
H117	H	2.018261	-0.557624	-1.148754
H118	H	1.917376	-0.620872	-1.117117
H119	H	1.930548	-0.579446	-1.232396
H120	H	1.906766	-0.454787	-1.058711
H121	H	1.919954	-0.413349	-1.173980
O122	O	1.111078	-0.369861	-0.370073
C123	C	1.074902	-0.397560	-0.267784
H124	H	1.055040	-0.485849	-0.265633
H125	H	1.000818	-0.349507	-0.247933
C126	C	1.186687	-0.265028	-0.188413
C127	C	1.162301	-0.373468	-0.185768
H128	H	1.240595	-0.250163	-0.137820
H129	H	1.211056	-0.246363	-0.257327
H130	H	1.124942	-0.224996	-0.171873
H131	H	1.224041	-0.413497	-0.202321
H132	H	1.137943	-0.392139	-0.116855
O133	O	1.111218	-0.707677	-0.460087
C134	C	1.223160	-0.706471	-0.460357
H135	H	1.252462	-0.621635	-0.448649
H136	H	1.253515	-0.738163	-0.539517
C137	C	1.228861	-0.881139	-0.383915
C138	C	1.264851	-0.776943	-0.369527
H139	H	1.254580	-0.924613	-0.327891
H140	H	1.153444	-0.881954	-0.383737
H141	H	1.254160	-0.907535	-0.449885
H142	H	1.239541	-0.750545	-0.303565
H143	H	1.340265	-0.776125	-0.369692
O144	O	1.395139	-0.939769	-0.655408
C145	C	1.292926	-0.975988	-0.627510
H146	H	1.290981	-0.995907	-0.539224
H147	H	1.272991	-1.050047	-0.675548
C148	C	1.213217	-0.864139	-0.759839
C149	C	1.210826	-0.888595	-0.651402
H150	H	1.162572	-0.810234	-0.774580
H151	H	1.282080	-0.839740	-0.778637
H152	H	1.196607	-0.925862	-0.799858
H153	H	1.227448	-0.826876	-0.611386
H154	H	1.141963	-0.912981	-0.632597
O155	O	1.485906	-0.939807	-0.317780
C156	C	1.486129	-0.827864	-0.318953
H157	H	1.474225	-0.798515	-0.403757
H158	H	1.565346	-0.797503	-0.287409
C159	C	1.410066	-0.822288	-0.144132
C160	C	1.395436	-0.786241	-0.248288
H161	H	1.354126	-0.796612	-0.100539
H162	H	1.409919	-0.897706	-0.143339
H163	H	1.476083	-0.796984	-0.117860
H164	H	1.329427	-0.811556	-0.274563
H165	H	1.395570	-0.710826	-0.249084
