data_functionalizedCrystal
_audit_creation_method	'MofGen! by Chris Wilmer'
_symmetry_space_group_name_H-M	'P1'
_symmetry_Int_Tables_number	1
_symmetry_cell_setting	triclinic
loop_
_symmetry_equiv_pos_as_xyz
  x,y,z
_cell_length_a	8.597187
_cell_length_b	10.654545
_cell_length_c	7.681481
_cell_angle_alpha	84.204528
_cell_angle_beta	88.166928
_cell_angle_gamma	84.910485
loop_
_atom_site_label
_atom_site_type_symbol
_atom_site_fract_x
_atom_site_fract_y
_atom_site_fract_z
O1	O	2.038732	0.223920	-0.455716
O2	O	1.588804	0.232840	-0.387459
O3	O	1.824112	0.045822	-0.423155
O4	O	1.803424	0.410938	-0.420020
O5	O	1.853074	0.022749	-0.134691
O6	O	1.617766	0.209767	-0.098995
O7	O	2.067694	0.200847	-0.167251
Zn8	Zn	1.847328	0.201644	-0.087323
Zn9	Zn	1.809170	0.232043	-0.467387
O10	O	1.832386	0.387865	-0.131555
C11	C	1.545674	0.219060	-0.234488
C12	C	1.374010	0.212359	-0.208446
C13	C	1.837073	-0.012539	-0.278696
C14	C	1.832527	-0.152061	-0.278017
C15	C	1.800970	-0.126915	-0.592512
C16	C	1.783062	-0.179889	-0.749436
C17	C	1.778791	-0.310983	-0.748790
C18	C	1.792425	-0.389106	-0.591203
C19	C	1.810333	-0.336132	-0.434279
C20	C	1.814607	-0.205034	-0.434943
C21	C	1.841878	-0.361277	-0.119786
C22	C	1.846161	-0.230184	-0.120429
C23	C	1.855512	-0.439400	0.037802
C24	C	1.873432	-0.386427	0.194728
C25	C	1.877704	-0.255325	0.194075
C26	C	1.864069	-0.177210	0.036495
C27	C	2.110824	0.214627	-0.320227
C28	C	2.282487	0.221329	-0.346280
C29	C	1.819425	0.446226	-0.276018
C30	C	1.823970	0.585749	-0.276709
N31	N	1.873382	0.180897	0.172059
N32	N	1.783128	0.252780	-0.726771
H33	H	1.804464	-0.020172	-0.593057
H34	H	1.321035	0.199567	-0.070527
H35	H	1.690998	0.326151	0.212008
O36	O	1.895296	-0.203745	0.346377
C37	C	2.032403	-0.139633	0.335188
H38	H	2.063923	-0.112712	0.191812
H39	H	2.132134	-0.204026	0.398852
C40	C	1.966159	-0.052048	0.606743
C41	C	2.004865	-0.018973	0.430645
H42	H	1.949177	0.022378	0.665632
H43	H	1.873790	-0.095244	0.614286
H44	H	2.049275	-0.105710	0.659773
H45	H	1.921742	0.034675	0.377614
H46	H	2.097220	0.024235	0.423096
H47	H	1.771959	-0.116267	-0.877740
H48	H	1.335466	0.234136	-0.484208
O49	O	1.886717	-0.462499	0.347627
C50	C	1.879049	-0.589559	0.314555
H51	H	1.913768	-0.600653	0.172094
H52	H	1.754758	-0.617216	0.340963
C53	C	1.949025	-0.662380	0.610175
C54	C	1.991681	-0.676008	0.435204
H55	H	2.018496	-0.715708	0.684600
H56	H	1.954185	-0.576777	0.632459
H57	H	1.845448	-0.685426	0.632156
H58	H	2.095248	-0.652947	0.413220
H59	H	1.986541	-0.761609	0.412919
H60	H	1.764194	-0.354112	-0.876569
H61	H	1.965530	0.107530	0.233286
H62	H	1.788927	-0.495846	-0.590688
H63	H	1.852025	-0.546142	0.038318
H64	H	1.867553	-0.070466	0.035947
