data_functionalizedCrystal
_audit_creation_method	'MofGen! by Chris Wilmer'
_symmetry_space_group_name_H-M	'P1'
_symmetry_Int_Tables_number	1
_symmetry_cell_setting	triclinic
loop_
_symmetry_equiv_pos_as_xyz
  x,y,z
_cell_length_a	15.995350
_cell_length_b	15.072220
_cell_length_c	15.995292
_cell_angle_alpha	90.004866
_cell_angle_beta	83.480495
_cell_angle_gamma	90.001244
loop_
_atom_site_label
_atom_site_type_symbol
_atom_site_fract_x
_atom_site_fract_y
_atom_site_fract_z
O1	O	1.110963	0.073701	0.107934
O2	O	1.610963	0.573701	0.607934
O3	O	0.867185	0.073718	0.121261
O4	O	1.367185	0.573718	0.621261
O5	O	0.995763	0.073711	-0.007293
O6	O	1.495763	0.573711	0.492707
O7	O	0.982385	0.073709	0.236488
O8	O	1.482385	0.573709	0.736488
O9	O	0.995752	-0.073855	-0.007305
O10	O	1.495752	0.426145	0.492695
O11	O	0.867174	-0.073847	0.121249
O12	O	1.367174	0.426153	0.621249
O13	O	1.110952	-0.073864	0.107922
O14	O	1.610952	0.426136	0.607922
Zn15	Zn	0.989061	-0.097285	0.114584
Zn16	Zn	1.489061	0.402715	0.614584
Zn17	Zn	0.989076	0.097139	0.114599
Zn18	Zn	1.489076	0.597139	0.614599
O19	O	0.982374	-0.073856	0.236476
O20	O	1.482374	0.426144	0.736476
C21	C	0.835985	-0.000062	0.120704
C22	C	1.335985	0.499938	0.620704
C23	C	0.743035	-0.000055	0.119053
C24	C	1.243035	0.499945	0.619053
N25	N	0.989057	-0.229973	0.114572
N26	N	1.489057	0.270027	0.614572
C27	C	0.989067	-0.410971	0.114583
C28	C	1.489067	0.089029	0.614583
C29	C	1.057883	-0.448616	0.045820
C30	C	1.557883	0.051384	0.545820
C31	C	1.058132	-0.551442	0.046003
C32	C	1.558132	-0.051442	0.546003
C33	C	0.989077	-0.589175	0.114593
C34	C	1.489077	-0.089175	0.614593
C35	C	1.007778	-0.551832	0.202068
C36	C	1.507778	-0.051832	0.702068
C37	C	1.008267	-0.448974	0.201659
C38	C	1.508267	0.051026	0.701659
C39	C	0.901343	-0.448883	0.096660
C40	C	1.401343	0.051117	0.596660
C41	C	0.901937	-0.551748	0.094680
C42	C	1.401937	-0.051748	0.594680
C43	C	0.989080	-0.689888	0.114604
C44	C	1.489080	-0.189888	0.614604
C45	C	0.989065	-0.310257	0.114578
C46	C	1.489065	0.189743	0.614578
C47	C	0.405288	-0.000073	0.113120
C48	C	0.905288	0.499927	0.613120
C49	C	0.452742	-0.000402	0.021566
C50	C	0.952742	0.499598	0.521566
C51	C	0.549431	-0.000063	0.023218
C52	C	1.049431	0.499937	0.523218
C53	C	0.572848	-0.000065	0.116063
C54	C	1.072848	0.499935	0.616063
C55	C	0.531758	0.084198	0.161227
C56	C	1.031758	0.584198	0.661227
C57	C	0.435123	0.084263	0.158927
C58	C	0.935123	0.584263	0.658927
C59	C	0.434771	-0.083546	0.160805
C60	C	0.934771	0.416454	0.660805
C61	C	0.531716	-0.084654	0.160784
C62	C	1.031716	0.415346	0.660784
C63	C	0.667546	-0.000057	0.117731
C64	C	1.167546	0.499943	0.617731
C65	C	0.310591	-0.000075	0.111455
C66	C	0.810591	0.499925	0.611455
C67	C	1.142152	-0.000082	0.108479
C68	C	1.642152	0.499918	0.608479
C69	C	1.235102	-0.000083	0.110130
C70	C	1.735102	0.499917	0.610130
C71	C	0.995213	-0.000070	-0.038495
C72	C	1.495213	0.499930	0.461505
C73	C	0.993581	-0.000063	-0.131448
C74	C	1.493581	0.499937	0.368552
N75	N	0.989086	0.229828	0.114604
N76	N	1.489086	0.729828	0.614604
C77	C	0.987580	-0.000071	-0.469186
C78	C	1.487580	0.499929	0.030814
C79	C	1.080384	-0.000407	-0.445874
C80	C	1.580384	0.499593	0.054126
C81	C	1.082148	-0.000071	-0.349199
C82	C	1.582148	0.499929	0.150801
C83	C	0.990557	-0.000067	-0.301631
C84	C	1.490557	0.499933	0.198369
C85	C	0.944166	0.084200	-0.330725
C86	C	1.444166	0.584200	0.169275
C87	C	0.943049	0.084268	-0.427515
C88	C	1.443049	0.584268	0.072485
C89	C	0.941141	-0.083541	-0.427386
C90	C	1.441141	0.416459	0.072614
C91	C	0.944580	-0.084652	-0.330894
C92	C	1.444580	0.415348	0.169106
C93	C	0.992235	-0.000062	-0.206934
C94	C	1.492235	0.499938	0.293066
C95	C	0.985899	-0.000069	-0.563882
C96	C	1.485899	0.499931	-0.063882
C97	C	0.982924	-0.000074	0.267678
C98	C	1.482924	0.499926	0.767678
C99	C	0.984556	-0.000075	0.360631
C100	C	1.484556	0.499925	0.860631
H101	H	1.047052	-0.576691	-0.019010
H102	H	1.547052	-0.076691	0.480990
H103	H	0.414237	-0.147416	0.130869
H104	H	0.914237	0.352584	0.630869
O105	O	0.854888	0.088370	-0.288517
O106	O	1.354888	0.588370	0.211483
H107	H	0.855524	0.091330	-0.219256
H108	H	1.355524	0.591330	0.280744
O109	O	1.130275	-0.080080	-0.323990
O110	O	1.630275	0.419920	0.176010
H111	H	1.185151	-0.057859	-0.292746
H112	H	1.685151	0.442141	0.207254
H113	H	1.072232	-0.424982	0.217402
H114	H	1.572232	0.075018	0.717402
O115	O	0.550451	0.088348	0.251580
O116	O	1.050451	0.588348	0.751580
H117	H	0.490481	0.087417	0.293949
H118	H	0.990481	0.587417	0.793949
O119	O	0.989313	-0.167233	-0.306297
O120	O	1.489313	0.332767	0.193703
H121	H	1.011404	-0.205851	-0.363666
H122	H	1.511404	0.294149	0.136334
H123	H	0.848357	-0.577430	0.141496
H124	H	1.348357	-0.077430	0.641496
H125	H	0.976391	0.146908	-0.310659
H126	H	1.476391	0.646908	0.189341
O127	O	0.567898	-0.167235	0.117120
O128	O	1.067898	0.332765	0.617120
H129	H	0.614982	-0.148123	0.063790
H130	H	1.114982	0.351877	0.563790
O131	O	0.944386	-0.415973	0.271503
O132	O	1.444386	0.084027	0.771503
H133	H	0.913287	-0.473483	0.305425
H134	H	1.413287	0.026517	0.805425
H135	H	0.850137	-0.424537	0.146802
H136	H	1.350137	0.075463	0.646802
H137	H	0.547067	-0.089745	0.228489
H138	H	1.047067	0.410255	0.728489
H139	H	0.402995	-0.084117	0.228308
H140	H	0.902995	0.415883	0.728308
O141	O	0.877418	-0.414547	0.013939
O142	O	1.377418	0.085453	0.513939
H143	H	0.873653	-0.341037	0.016146
H144	H	1.373653	0.158963	0.516146
O145	O	0.569341	0.167274	0.119688
O146	O	1.069341	0.667274	0.619688
H147	H	0.617274	0.148762	0.066884
H148	H	1.117274	0.648762	0.566884
H149	H	1.116150	-0.060839	-0.473876
H150	H	1.616150	0.439161	0.026124
O151	O	0.392376	0.089328	0.247959
O152	O	0.892376	0.589328	0.747959
H153	H	0.352962	0.150046	0.255315
H154	H	0.852962	0.650046	0.755315
O155	O	0.985964	0.167579	-0.462892
O156	O	1.485964	0.667579	0.037108
H157	H	0.951850	0.226561	-0.434982
H158	H	1.451850	0.726561	0.065018
H159	H	1.115961	0.059681	-0.474887
H160	H	1.615961	0.559681	0.025113
O161	O	1.130556	0.080083	-0.324799
O162	O	1.630556	0.580083	0.175201
H163	H	1.152790	0.118761	-0.382083
H164	H	1.652790	0.618761	0.117917
H165	H	0.877728	-0.089738	-0.297925
H166	H	1.377728	0.410262	0.202075
H167	H	0.875004	0.088088	-0.442065
H168	H	1.375004	0.588088	0.057935
H169	H	0.416826	0.147253	0.126002
H170	H	0.916826	0.647253	0.626002
H171	H	0.433160	0.059694	-0.014857
H172	H	0.933160	0.559694	0.485143
H173	H	0.970362	-0.147416	-0.455480
H174	H	1.470362	0.352584	0.044520
H175	H	0.434223	-0.060830	-0.015036
H176	H	0.934223	0.439170	0.484964
O177	O	0.943145	-0.584209	0.271513
O178	O	1.443145	-0.084209	0.771513
H179	H	0.896899	-0.627366	0.244351
H180	H	1.396899	-0.127366	0.744351
O181	O	0.850658	-0.084307	-0.445925
O182	O	1.350658	0.415693	0.054075
H183	H	0.838779	-0.025561	-0.484716
H184	H	1.338779	0.474439	0.015284
H185	H	1.071011	-0.577591	0.218190
H186	H	1.571011	-0.077591	0.718190
H187	H	0.887738	-0.576155	0.030329
H188	H	1.387738	-0.076155	0.530329
O189	O	0.587102	-0.080078	-0.023796
O190	O	1.087102	0.419922	0.476204
H191	H	0.536264	-0.119361	-0.047925
H192	H	1.036264	0.380639	0.452075
H193	H	1.046999	-0.423870	-0.019409
H194	H	1.546999	0.076130	0.480591
O195	O	1.144373	-0.584040	0.061226
O196	O	1.644373	-0.084040	0.561226
H197	H	1.144855	-0.657680	0.061401
H198	H	1.644855	-0.157680	0.561401
O199	O	1.143621	-0.414239	0.060709
O200	O	1.643621	0.085761	0.560709
H201	H	1.137439	-0.370479	0.116887
H202	H	1.637439	0.129521	0.616887
O203	O	0.586360	0.080090	-0.024103
O204	O	1.086360	0.580090	0.475897
H205	H	0.535145	0.118766	-0.048250
H206	H	1.035145	0.618766	0.451750
