data_functionalizedCrystal
_audit_creation_method	'MofGen! by Chris Wilmer'
_symmetry_space_group_name_H-M	'P1'
_symmetry_Int_Tables_number	1
_symmetry_cell_setting	triclinic
loop_
_symmetry_equiv_pos_as_xyz
  x,y,z
_cell_length_a	13.032891
_cell_length_b	14.908520
_cell_length_c	13.032268
_cell_angle_alpha	99.985811
_cell_angle_beta	90.886842
_cell_angle_gamma	86.523712
loop_
_atom_site_label
_atom_site_type_symbol
_atom_site_fract_x
_atom_site_fract_y
_atom_site_fract_z
Zn1	Zn	1.453333	-0.608109	-0.815711
Zn2	Zn	1.953333	-0.108109	-0.315711
Zn3	Zn	1.465117	-0.742272	-0.651425
Zn4	Zn	1.965117	-0.242272	-0.151425
Zn5	Zn	1.305984	-0.570494	-0.619794
Zn6	Zn	1.805984	-0.070494	-0.119794
Zn7	Zn	1.271727	-0.737405	-0.801271
Zn8	Zn	1.771727	-0.237405	-0.301271
O9	O	1.374040	-0.664570	-0.722050
O10	O	1.874040	-0.164570	-0.222050
O11	O	1.597496	-0.643685	-0.813199
O12	O	2.097496	-0.143685	-0.313199
O13	O	1.463276	-0.705780	-0.502526
O14	O	1.963276	-0.205780	-0.002526
O15	O	1.334935	-0.449483	-0.638589
O16	O	1.834935	0.050517	-0.138589
O17	O	1.606154	-0.742254	-0.692498
O18	O	2.106154	-0.242254	-0.192498
O19	O	1.443192	-0.477119	-0.782528
O20	O	1.943192	0.022881	-0.282528
O21	O	1.346362	-0.579575	-0.479288
O22	O	1.846362	-0.079575	0.020712
O23	O	1.158840	-0.574856	-0.624587
O24	O	1.658840	-0.074856	-0.124587
O25	O	1.276549	-0.733960	-0.947889
O26	O	1.776549	-0.233960	-0.447889
O27	O	1.133671	-0.697486	-0.757917
O28	O	1.633671	-0.197486	-0.257917
O29	O	1.409974	-0.638966	-0.958498
O30	O	1.909974	-0.138966	-0.458498
O31	O	1.430058	-0.867627	-0.678497
O32	O	1.930058	-0.367627	-0.178497
O33	O	1.287976	-0.864052	-0.788588
O34	O	1.787976	-0.364052	-0.288588
C35	C	1.109281	-0.631562	-0.686253
C36	C	1.609281	-0.131562	-0.186253
C37	C	0.996011	-0.617465	-0.670965
C38	C	1.496011	-0.117465	-0.170965
C39	C	1.356603	-0.898516	-0.735434
C40	C	1.856603	-0.398516	-0.235434
C41	C	1.349232	-0.998613	-0.741207
C42	C	1.849232	-0.498613	-0.241207
C43	C	0.816020	-0.657364	-0.714238
C44	C	1.316020	-0.157364	-0.214238
C45	C	0.933090	-0.671938	-0.730037
C46	C	1.433090	-0.171938	-0.230037
C47	C	1.483451	-1.190396	-0.637541
C48	C	1.983451	-0.690396	-0.137541
C49	C	1.476529	-1.284447	-0.642962
C50	C	1.976529	-0.784447	-0.142962
C51	C	1.328471	-1.280769	-0.757476
C52	C	1.828471	-0.780769	-0.257476
C53	C	1.335393	-1.186718	-0.752054
C54	C	1.835393	-0.686718	-0.252054
C55	C	1.412884	-1.141535	-0.692084
C56	C	1.912884	-0.641535	-0.192084
C57	C	1.419801	-1.047481	-0.686657
C58	C	1.919801	-0.547481	-0.186657
C59	C	1.271749	-1.043805	-0.801176
C60	C	1.771749	-0.543805	-0.301176
C61	C	1.264827	-1.137856	-0.806597
C62	C	1.764827	-0.637856	-0.306597
C63	C	1.639833	-0.697708	-0.757988
C64	C	2.139833	-0.197708	-0.257988
C65	C	1.753098	-0.711829	-0.773302
C66	C	2.253098	-0.211829	-0.273302
C67	C	1.338126	-0.690116	-0.991762
C68	C	1.838126	-0.190116	-0.491762
C69	C	1.322821	-0.701002	-1.106698
C70	C	1.822821	-0.201002	-0.606698
C71	C	1.391570	-0.429717	-0.708641
C72	C	1.891570	0.070283	-0.208641
C73	C	1.399041	-0.329636	-0.702926
C74	C	1.899041	0.170364	-0.202926
C75	C	1.382014	-0.658854	-1.163189
C76	C	1.882014	-0.158854	-0.663189
C77	C	1.366198	-0.670105	-1.281980
C78	C	1.866198	-0.170105	-0.781980
C79	C	1.409878	-0.639066	-0.453392
C80	C	1.909878	-0.139066	0.046608
C81	C	1.425399	-0.627951	-0.338469
C82	C	1.925399	-0.127951	0.161531
H83	H	0.783218	-0.599941	-0.651978
H84	H	1.283218	-0.099941	-0.151978
H85	H	1.260429	-0.745408	-1.146278
H86	H	1.760429	-0.245408	-0.646278
H87	H	0.965887	-0.729358	-0.792309
H88	H	1.465887	-0.229358	-0.292309
H89	H	0.963215	-0.560037	-0.608701
H90	H	1.463215	-0.060037	-0.108701
H91	H	0.785899	-0.769245	-0.835570
H92	H	1.285899	-0.269245	-0.335570
H93	H	1.487785	-0.583529	-1.298893
H94	H	1.987785	-0.083529	-0.798893
H95	H	1.482896	-1.010693	-0.637824
H96	H	1.982896	-0.510693	-0.137824
O97	O	1.567024	-1.141653	-0.572863
O98	O	2.067024	-0.641653	-0.072863
H99	H	1.614934	-1.191432	-0.535849
H100	H	2.114934	-0.691432	-0.035849
O101	O	1.195613	-0.991108	-0.859995
O102	O	1.695613	-0.491108	-0.359995
H103	H	1.200865	-1.018977	-0.944560
H104	H	1.700865	-0.518977	-0.444560
O105	O	1.552633	-1.337151	-0.584129
O106	O	2.052633	-0.837151	-0.084129
H107	H	1.607672	-1.289927	-0.541513
H108	H	2.107672	-0.789927	-0.041513
O109	O	1.283551	-0.728938	-1.334397
O110	O	1.783551	-0.228938	-0.834397
H111	H	1.207460	-0.701573	-1.302035
H112	H	1.707460	-0.201573	-0.802035
O113	O	1.244886	-1.329505	-0.822141
O114	O	1.744886	-0.829505	-0.322141
H115	H	1.251926	-1.403111	-0.816736
H116	H	1.751926	-0.903111	-0.316736
O117	O	1.464654	-0.600019	-1.110773
O118	O	1.964654	-0.100019	-0.610773
H119	H	1.540745	-0.627374	-1.143146
H120	H	2.040745	-0.127374	-0.643146
O121	O	1.181237	-1.186587	-0.871262
O122	O	1.681237	-0.686587	-0.371262
H123	H	1.188270	-1.260194	-0.865860
H124	H	1.688270	-0.760194	-0.365860
