data_functionalizedCrystal
_audit_creation_method	'MofGen! by Chris Wilmer'
_symmetry_space_group_name_H-M	'P1'
_symmetry_Int_Tables_number	1
_symmetry_cell_setting	triclinic
loop_
_symmetry_equiv_pos_as_xyz
  x,y,z
_cell_length_a	19.188930
_cell_length_b	10.540539
_cell_length_c	9.616153
_cell_angle_alpha	90.004826
_cell_angle_beta	89.992615
_cell_angle_gamma	96.164863
loop_
_atom_site_label
_atom_site_type_symbol
_atom_site_fract_x
_atom_site_fract_y
_atom_site_fract_z
O1	O	0.098389	-1.683724	-0.115598
O2	O	0.107659	-1.314107	-0.115617
O3	O	0.001439	-1.509582	-0.115579
O4	O	0.204608	-1.488249	-0.115635
O5	O	0.001441	-1.509555	0.115712
O6	O	0.107661	-1.314080	0.115675
O7	O	0.098391	-1.683697	0.115694
Zn8	Zn	0.103026	-1.498885	0.152407
Zn9	Zn	0.103023	-1.498920	-0.152330
O10	O	0.204610	-1.488222	0.115657
C11	C	-0.024575	-1.508878	0.000070
C12	C	-0.102094	-1.506804	0.000082
C13	C	0.106965	-1.266806	0.000027
C14	C	0.104885	-1.125904	0.000021
N15	N	0.103028	-1.498870	0.360381
C16	C	-0.146253	-1.621502	0.000095
C17	C	-0.219090	-1.619554	0.000072
C18	C	-0.247764	-1.502901	0.000065
C19	C	-0.203595	-1.388187	0.000045
C20	C	-0.130760	-1.390139	0.000053
N21	N	-0.356363	-1.413724	0.078774
N22	N	-0.425554	-1.411878	0.078769
C23	C	-0.467212	-1.497014	0.000037
N24	N	-0.437067	-1.584085	-0.078672
N25	N	-0.367870	-1.585935	-0.078661
C26	C	-0.326741	-1.500772	0.000055
C27	C	-0.590350	-1.609608	0.000023
C28	C	-0.663188	-1.607655	-0.000008
C29	C	-0.647691	-1.376285	-0.000021
C30	C	-0.574855	-1.378241	-0.000004
C31	C	-0.546189	-1.494906	0.000025
C32	C	0.230625	-1.488927	0.000004
C33	C	0.308143	-1.491000	-0.000017
C34	C	0.099085	-1.730998	0.000047
C35	C	0.101165	-1.871901	0.000044
C36	C	0.025184	-0.944233	0.000583
C37	C	0.027292	-1.090805	0.000047
C38	C	0.142224	-1.063423	-0.132063
C39	C	0.139576	-0.916937	-0.132158
C40	C	0.141157	-0.916384	0.130863
C41	C	0.141872	-1.063350	0.132594
N42	N	0.103016	-1.498945	-0.360304
C43	C	0.159658	-1.393992	0.580731
C44	C	0.159870	-1.394216	0.419564
C45	C	0.119601	-1.631228	0.418832
C46	C	0.120002	-1.630655	0.580050
C47	C	0.029640	-1.472715	0.580311
C48	C	0.030115	-1.469658	0.419084
H49	H	-0.255051	-1.712958	0.000077
O50	O	0.148079	-1.276179	0.627080
C51	C	0.206869	-1.222582	0.702989
H52	H	0.255099	-1.269329	0.669707
H53	H	0.215871	-1.115663	0.681815
H54	H	0.197179	-1.239412	0.818825
H55	H	-0.002297	-1.133213	-0.094785
H56	H	0.149898	-1.295819	0.380047
H57	H	0.213788	-1.410467	0.621216
H58	H	0.013866	-1.378326	0.621048
O59	O	-0.562614	-1.723041	-0.000035
C60	C	-0.617213	-1.823863	-0.000014
H61	H	-0.666857	-1.788559	-0.043807
H62	H	-0.601580	-1.905334	-0.067167
H63	H	-0.627352	-1.859224	0.110944
H64	H	0.198442	-1.086329	0.140553
O65	O	0.224866	-1.413986	0.373680
C66	C	0.274274	-1.315649	0.423086
H67	H	0.252771	-1.271159	0.519972
H68	H	0.325182	-1.356720	0.450004
H69	H	0.284821	-1.239552	0.339234
O70	O	-0.118523	-1.734938	0.000052
C71	C	-0.173125	-1.835757	0.000095
H72	H	-0.222769	-1.800457	-0.043703
H73	H	-0.157495	-1.917240	-0.067043
H74	H	-0.183262	-1.871099	0.111061
O75	O	0.210179	-1.088759	-0.137780
C76	C	0.225020	-1.163493	-0.022079
H77	H	0.174215	-1.216084	0.019254
H78	H	0.262059	-1.235714	-0.054773
H79	H	0.250787	-1.099115	0.062839
H80	H	0.111977	-0.889346	-0.230877
O81	O	0.071692	-1.726458	0.372921
C82	C	0.022320	-1.674670	0.287102
H83	H	0.046346	-1.579468	0.243056
H84	H	0.006869	-1.743398	0.198064
H85	H	-0.026177	-1.659269	0.350786
O86	O	0.206151	-0.858291	-0.139595
C87	C	0.238155	-0.895622	-0.262828
H88	H	0.196013	-0.929259	-0.342122
H89	H	0.273230	-0.811042	-0.307032
H90	H	0.271101	-0.976751	-0.238982
O91	O	0.111084	-0.879749	0.250328
C92	C	0.040798	-0.934500	0.256018
H93	H	0.034004	-1.023157	0.187388
H94	H	0.026582	-0.962175	0.367887
H95	H	0.004973	-0.862445	0.217384
H96	H	0.197202	-0.867922	0.131740
H97	H	-0.699142	-1.701060	-0.000005
O98	O	-0.675502	-1.262933	-0.000276
C99	C	-0.652963	-1.193038	-0.120048
H100	H	-0.637466	-1.261273	-0.203764
H101	H	-0.697343	-1.139284	-0.160269
H102	H	-0.605857	-1.122040	-0.092963
O103	O	0.109270	-1.113083	0.249035
C104	C	0.053232	-1.203993	0.210872
H105	H	0.062963	-1.241560	0.102195
H106	H	0.049151	-1.286455	0.288170
H107	H	0.002270	-1.157479	0.211393
O108	O	0.015007	-1.353600	0.373450
C109	C	-0.047685	-1.368353	0.295871
H110	H	-0.080063	-1.460877	0.327510
H111	H	-0.078925	-1.284312	0.317070
H112	H	-0.034762	-1.371798	0.180303
O113	O	0.183867	-1.658127	0.625062
C114	C	0.215349	-1.555721	0.705474
H115	H	0.173040	-1.498471	0.748503
H116	H	0.245546	-1.594512	0.795269
H117	H	0.252918	-1.491374	0.637678
H118	H	0.172529	-1.654959	0.378429
H119	H	-0.014059	-1.541158	0.378804
O120	O	-0.020577	-1.564086	0.625977
C121	C	0.010403	-1.651370	0.711122
H122	H	0.061824	-1.603621	0.755152
H123	H	-0.026671	-1.682970	0.800188
H124	H	0.021108	-1.738096	0.646878
H125	H	-0.226946	-1.293208	0.000036
H126	H	-0.094804	-1.296735	0.000044
O127	O	-0.011489	-0.910880	0.113431
C128	C	-0.071630	-0.856243	0.069125
H129	H	-0.085984	-0.890107	-0.040801
H130	H	-0.117077	-0.886635	0.142407
H131	H	-0.060461	-0.747811	0.069943
H132	H	-0.002088	-1.134055	0.094731
O133	O	-0.531926	-1.266854	-0.000247
C134	C	-0.489309	-1.261088	-0.120013
H135	H	-0.515647	-1.326156	-0.203736
H136	H	-0.481628	-1.158801	-0.160228
H137	H	-0.436192	-1.293641	-0.092921
H138	H	-0.005341	-0.914709	-0.093599
H139	H	0.116284	-1.106595	-0.230348
H140	H	0.080409	-1.711170	0.619052
