data_functionalizedCrystal
_audit_creation_method	'MofGen! by Chris Wilmer'
_symmetry_space_group_name_H-M	'P1'
_symmetry_Int_Tables_number	1
_symmetry_cell_setting	triclinic
loop_
_symmetry_equiv_pos_as_xyz
  x,y,z
_cell_length_a	17.699083
_cell_length_b	14.044220
_cell_length_c	16.776229
_cell_angle_alpha	89.992645
_cell_angle_beta	89.998886
_cell_angle_gamma	88.235946
loop_
_atom_site_label
_atom_site_type_symbol
_atom_site_fract_x
_atom_site_fract_y
_atom_site_fract_z
O1	O	1.012346	0.119850	-0.066178
O2	O	0.793043	0.135443	-0.066204
O3	O	0.899403	-0.010330	-0.066183
O4	O	0.905986	0.265624	-0.066198
O5	O	0.899387	-0.010339	0.066393
O6	O	0.793027	0.135434	0.066372
O7	O	1.012330	0.119841	0.066399
Zn8	Zn	0.902676	0.127636	0.087435
Zn9	Zn	0.902697	0.127648	-0.087240
O10	O	0.905970	0.265615	0.066378
C11	C	0.764800	0.134880	0.000081
C12	C	0.680666	0.133204	0.000071
C13	C	0.637948	0.218769	0.000067
C14	C	0.558895	0.217189	0.000077
C15	C	0.522563	0.130041	0.000086
C16	C	0.565287	0.044469	0.000093
C17	C	0.644338	0.046050	0.000088
C18	C	0.246484	0.038089	0.000113
C19	C	0.167427	0.036514	0.000115
C20	C	0.161041	0.209227	0.000102
C21	C	0.240092	0.210809	0.000097
C22	C	0.282809	0.125237	0.000108
C23	C	0.368527	0.126952	0.000098
C24	C	0.436847	0.128325	0.000090
C25	C	0.896513	-0.045643	0.000105
C26	C	0.887917	-0.150849	0.000105
C27	C	0.872202	-0.343474	0.000091
C28	C	0.933168	-0.401248	0.000096
C29	C	0.924424	-0.508431	0.000089
C30	C	0.880945	-0.236281	0.000099
C31	C	1.040574	0.120404	0.000112
C32	C	1.124707	0.122081	0.000117
C33	C	0.908860	0.300927	0.000088
C34	C	0.917456	0.406133	0.000083
N35	N	0.902667	0.127628	0.206646
N36	N	0.902712	0.127649	-0.206452
C37	C	0.949781	0.063106	0.248372
C38	C	0.949785	0.063105	0.331825
C39	C	0.902679	0.127631	0.373549
C40	C	0.855560	0.192156	0.331817
C41	C	0.855552	0.192152	0.248366
C42	C	0.855589	0.192175	0.668364
C43	C	0.855601	0.192176	0.751821
C44	C	0.949821	0.063128	0.751822
C45	C	0.949813	0.063123	0.668372
C46	C	0.902692	0.127645	0.626647
C47	C	0.902687	0.127644	0.536159
C48	C	0.902687	0.127638	0.464036
H49	H	0.126251	0.278904	0.000097
C50	C	1.001629	-0.007858	0.622475
C51	C	1.053451	-0.078838	0.668370
C52	C	1.105265	-0.149823	0.622474
C53	C	1.105256	-0.149828	0.530681
C54	C	1.053432	-0.078844	0.484780
C55	C	1.001618	-0.007859	0.530677
H56	H	1.053460	-0.078837	0.736325
H57	H	1.143629	-0.202370	0.656453
H58	H	1.143612	-0.202375	0.496706
H59	H	1.053424	-0.078845	0.416825
H60	H	0.963255	0.044687	0.496697
C61	C	0.803765	0.263152	0.622470
C62	C	0.751974	0.334161	0.668361
C63	C	0.700149	0.405141	0.622460
C64	C	0.700115	0.405113	0.530668
C65	C	0.751907	0.334101	0.484771
C66	C	0.803732	0.263121	0.530672
H67	H	0.751998	0.334184	0.736316
H68	H	0.661809	0.457709	0.656437
H69	H	0.661751	0.457657	0.496689
H70	H	0.751883	0.334078	0.416816
H71	H	0.842072	0.210553	0.496696
C72	C	1.012554	-0.359331	0.000118
C73	C	1.036761	-0.294495	0.068974
C74	C	1.116144	-0.252574	0.068999
C75	C	1.171321	-0.275490	0.000168
C76	C	1.147116	-0.340330	-0.068693
C77	C	1.067732	-0.382251	-0.068719
H78	H	0.995914	-0.277528	0.119932
H79	H	1.134062	-0.204575	0.119976
H80	H	1.230085	-0.244459	0.000187
H81	H	1.187962	-0.357297	-0.119651
H82	H	1.049814	-0.430249	-0.119695
C83	C	0.792822	-0.385393	0.000080
C84	C	0.784077	-0.494148	0.000075
C85	C	0.704699	-0.536081	0.000065
C86	C	0.634064	-0.469259	0.000061
C87	C	0.642806	-0.360498	0.000066
C88	C	0.722185	-0.318565	0.000076
H89	H	0.836367	-0.543620	0.000077
H90	H	0.698227	-0.616594	0.000060
H91	H	0.575303	-0.500300	0.000053
H92	H	0.590516	-0.311026	0.000063
H93	H	0.728656	-0.238052	0.000081
H94	H	0.667523	0.289735	0.000059
H95	H	0.988143	0.010565	0.214406
H96	H	0.137848	-0.034456	0.000124
H97	H	0.817187	0.244691	0.214394
C98	C	0.803777	0.263154	0.797720
C99	C	0.838238	0.335597	0.855074
C100	C	0.786418	0.406571	0.900973
C101	C	0.700136	0.405103	0.889520
C102	C	0.665669	0.332657	0.832163
C103	C	0.717490	0.261683	0.786264
H104	H	0.902114	0.336686	0.863555
H105	H	0.811933	0.460200	0.943432
H106	H	0.661775	0.457642	0.923497
H107	H	0.601794	0.331568	0.823682
H108	H	0.691975	0.208055	0.743805
H109	H	0.281255	-0.031590	0.000123
H110	H	0.988187	0.010588	0.785804
H111	H	0.524117	0.286865	0.000073
H112	H	0.269670	0.281773	0.000086
H113	H	0.988148	0.010565	0.365798
H114	H	0.535699	-0.026488	0.000112
H115	H	0.679119	-0.023626	0.000091
H116	H	0.817201	0.244692	0.365794
