data_functionalizedCrystal
_audit_creation_method	'MofGen! by Chris Wilmer'
_symmetry_space_group_name_H-M	'P1'
_symmetry_Int_Tables_number	1
_symmetry_cell_setting	triclinic
loop_
_symmetry_equiv_pos_as_xyz
  x,y,z
_cell_length_a	11.169417
_cell_length_b	18.215405
_cell_length_c	11.169417
_cell_angle_alpha	90.012063
_cell_angle_beta	90.000863
_cell_angle_gamma	90.023610
loop_
_atom_site_label
_atom_site_type_symbol
_atom_site_fract_x
_atom_site_fract_y
_atom_site_fract_z
Zn1	Zn	1.834634	-0.293087	0.678505
Zn2	Zn	1.834547	-0.416125	0.477806
Zn3	Zn	1.633987	-0.293079	0.477840
Zn4	Zn	1.633884	-0.416118	0.678451
O5	O	1.734263	-0.354602	0.578151
O6	O	2.002572	-0.309415	0.651891
O7	O	1.807948	-0.399802	0.309861
O8	O	1.660682	-0.190096	0.504495
O9	O	2.002508	-0.399810	0.504438
O10	O	1.808097	-0.190102	0.651923
O11	O	1.660598	-0.309401	0.309885
O12	O	1.466023	-0.309394	0.504442
O13	O	1.660508	-0.399798	0.846408
O14	O	1.465948	-0.399790	0.651831
O15	O	1.807998	-0.309408	0.846447
O16	O	1.807849	-0.519108	0.504386
O17	O	1.660423	-0.519103	0.651799
C18	C	1.422438	-0.354591	0.578135
C19	C	1.289038	-0.354604	0.578157
C20	C	1.734148	-0.545809	0.578109
C21	C	1.734209	-0.627607	0.578132
C22	C	1.811004	-0.815743	0.655001
C23	C	1.811048	-0.892602	0.655024
C24	C	1.657670	-0.892709	0.501374
C25	C	1.657622	-0.815852	0.501359
C26	C	1.734295	-0.777371	0.578170
C27	C	1.734388	-0.931087	0.578208
C28	C	1.734434	-1.014421	0.578232
C29	C	1.734247	-0.694032	0.578148
C30	C	2.047305	-0.354614	0.578167
C31	C	2.180705	-0.354619	0.578174
C32	C	1.734252	-0.354603	0.891193
C33	C	1.734247	-0.354604	1.024593
C34	C	1.734411	-0.162649	0.578218
C35	C	1.734474	-0.080850	0.578247
C36	C	1.734260	-0.354615	1.266326
C37	C	1.734250	-0.354605	1.132926
H38	H	1.873509	-0.923842	0.717590
H39	H	1.595150	-0.784607	0.438793
H40	H	1.595247	-0.924049	0.438835
H41	H	1.873435	-0.784414	0.717548
