data_functionalizedCrystal
_audit_creation_method	'MofGen! by Chris Wilmer'
_symmetry_space_group_name_H-M	'P1'
_symmetry_Int_Tables_number	1
_symmetry_cell_setting	triclinic
loop_
_symmetry_equiv_pos_as_xyz
  x,y,z
_cell_length_a	19.121241
_cell_length_b	21.295417
_cell_length_c	19.120904
_cell_angle_alpha	87.591662
_cell_angle_beta	90.124528
_cell_angle_gamma	92.464587
loop_
_atom_site_label
_atom_site_type_symbol
_atom_site_fract_x
_atom_site_fract_y
_atom_site_fract_z
Zn1	Zn	1.054845	-0.227282	0.442174
Zn2	Zn	1.554845	0.272718	0.942174
Zn3	Zn	1.059755	-0.327881	0.324928
Zn4	Zn	1.559755	0.172119	0.824928
Zn5	Zn	0.942612	-0.226908	0.319943
Zn6	Zn	1.442612	0.273092	0.819943
Zn7	Zn	0.937563	-0.336799	0.437114
Zn8	Zn	1.437563	0.163201	0.937114
O9	O	0.998694	-0.279717	0.381039
O10	O	1.498694	0.220283	0.881039
O11	O	1.153604	-0.237051	0.430824
O12	O	1.653604	0.262949	0.930824
O13	O	1.048383	-0.310598	0.226162
O14	O	1.548383	0.189402	0.726162
O15	O	0.957558	-0.138867	0.336189
O16	O	1.457558	0.361133	0.836189
O17	O	1.157211	-0.310960	0.344684
O18	O	1.657211	0.189040	0.844684
O19	O	1.040016	-0.139142	0.425991
O20	O	1.540016	0.360858	0.925991
O21	O	0.962319	-0.236414	0.222500
O22	O	1.462319	0.263586	0.722500
O23	O	0.843834	-0.245061	0.331283
O24	O	1.343834	0.254939	0.831283
O25	O	0.948953	-0.326160	0.535889
O26	O	1.448953	0.173840	1.035889
O27	O	0.840125	-0.325797	0.417367
O28	O	1.340125	0.174203	0.917367
O29	O	1.035120	-0.245698	0.539606
O30	O	1.535120	0.254302	1.039606
O31	O	1.043487	-0.417154	0.339778
O32	O	1.543487	0.082846	0.839778
O33	O	0.953713	-0.423706	0.422200
O34	O	1.453713	0.076294	0.922200
C35	C	0.816541	-0.286357	0.373235
C36	C	1.316541	0.213643	0.873235
C37	C	0.738615	-0.289213	0.369913
C38	C	1.238615	0.210787	0.869913
C39	C	0.700124	-0.252141	0.413269
C40	C	1.200124	0.247859	0.913269
C41	C	0.626905	-0.254822	0.410142
C42	C	1.126905	0.245178	0.910142
C43	C	0.592176	-0.294578	0.363661
C44	C	1.092176	0.205422	0.863661
C45	C	0.630672	-0.331651	0.320300
C46	C	1.130672	0.168349	0.820300
C47	C	0.703890	-0.328967	0.323425
C48	C	1.203890	0.171033	0.823425
C49	C	0.371197	-0.304601	0.351977
C50	C	0.871197	0.195399	0.851977
C51	C	0.297973	-0.307284	0.348857
C52	C	0.797973	0.192716	0.848857
C53	C	0.294211	-0.230453	0.438698
C54	C	0.794211	0.269547	0.938698
C55	C	0.367431	-0.227775	0.441822
C56	C	0.867431	0.272225	0.941822
C57	C	0.405921	-0.264846	0.398458
C58	C	0.905921	0.235154	0.898458
C59	C	0.517334	-0.297320	0.360465
C60	C	1.017334	0.202680	0.860465
C61	C	0.480762	-0.262100	0.401652
C62	C	0.980762	0.237900	0.901652
C63	C	0.998603	-0.443271	0.380997
C64	C	1.498603	0.056729	0.880997
C65	C	0.998628	-0.513238	0.381005
C66	C	1.498628	-0.013238	0.881005
C67	C	1.045411	-0.542673	0.338135
C68	C	1.545411	-0.042673	0.838135
C69	C	1.045443	-0.608415	0.338152
C70	C	1.545443	-0.108415	0.838152
C71	C	0.998680	-0.644720	0.381031
C72	C	1.498680	-0.144720	0.881031
C73	C	0.951893	-0.615278	0.423909
C74	C	1.451893	-0.115278	0.923909
C75	C	0.951867	-0.549537	0.423896
C76	C	1.451867	-0.049537	0.923896
N77	N	0.937121	-0.750438	0.383748
N78	N	1.437121	-0.250438	0.883748
N79	N	0.937148	-0.812889	0.383756
N80	N	1.437148	-0.312889	0.883756
C81	C	0.998757	-0.842793	0.381075
C82	C	1.498757	-0.342793	0.881075
N83	N	1.060339	-0.807887	0.378370
N84	N	1.560339	-0.307887	0.878370
N85	N	1.060312	-0.745430	0.378358
N86	N	1.560312	-0.245430	0.878358
C87	C	0.998703	-0.716005	0.381051
C88	C	1.498703	-0.216005	0.881051
C89	C	1.045579	-0.943512	0.338221
C90	C	1.545579	-0.443512	0.838221
C91	C	1.045612	-1.009256	0.338243
C92	C	1.545612	-0.509256	0.838243
C93	C	0.952056	-1.016118	0.423997
C94	C	1.452056	-0.516118	0.923997
C95	C	0.952029	-0.950375	0.423979
C96	C	1.452029	-0.450375	0.923979
C97	C	0.998790	-0.914077	0.381087
C98	C	1.498790	-0.414077	0.881087
C99	C	1.181557	-0.273052	0.388875
C100	C	1.681557	0.226948	0.888875
C101	C	1.259483	-0.270212	0.392214
C102	C	1.759483	0.229788	0.892214
C103	C	0.990925	-0.286965	0.563896
C104	C	1.490925	0.213035	1.063896
C105	C	0.987615	-0.290054	0.641819
C106	C	1.487615	0.209946	1.141819
C107	C	0.998803	-0.115525	0.381099
C108	C	1.498803	0.384475	0.881099
C109	C	0.998849	-0.045556	0.381124
C110	C	1.498849	0.454444	0.881124
C111	C	1.006472	-0.272451	0.198896
C112	C	1.506472	0.227549	0.698896
C113	C	1.009918	-0.269180	0.120980
C114	C	1.509918	0.230820	0.620980
C115	C	1.030920	-0.249615	0.680363
C116	C	1.530920	0.250385	1.180363
C117	C	1.027801	-0.252515	0.753580
C118	C	1.527801	0.247485	1.253580
C119	C	0.981380	-0.295857	0.788250
C120	C	1.481380	0.204143	1.288250
C121	C	0.938070	-0.336298	0.749700
C122	C	1.438070	0.163702	1.249700
C123	C	0.941186	-0.333395	0.676485
C124	C	1.441186	0.166605	1.176485
C125	C	0.969724	-0.306717	1.009215
C126	C	1.469724	0.193283	1.509215
C127	C	0.966613	-0.309619	1.082435
C128	C	1.466613	0.190381	1.582435
C129	C	1.056343	-0.225834	1.086310
C130	C	1.556343	0.274166	1.586310
C131	C	1.059458	-0.222937	1.013093
C132	C	1.559458	0.277063	1.513093
C133	C	1.016146	-0.263376	0.974550
C134	C	1.516146	0.236624	1.474550
C135	C	0.978192	-0.298824	0.863088
C136	C	1.478192	0.201176	1.363088
C137	C	1.019330	-0.260406	0.899712
C138	C	1.519330	0.239594	1.399712
H139	H	0.269700	-0.339662	0.311007
H140	H	0.769700	0.160338	0.811007
O141	O	0.514522	-0.223575	0.446878
O142	O	1.014522	0.276425	0.946878
C143	C	0.554962	-0.259722	0.493872
C144	C	1.054962	0.240278	0.993872
H145	H	0.532692	-0.310283	0.497154
H146	H	1.032692	0.189717	0.997154
H147	H	0.553526	-0.239144	0.547909
H148	H	1.053526	0.260856	1.047909
H149	H	0.611367	-0.258970	0.474553
H150	H	1.111367	0.241030	0.974553
O151	O	0.906371	-0.650474	0.465523
O152	O	1.406371	-0.150474	0.965523
C153	C	0.837155	-0.636424	0.447140
C154	C	1.337155	-0.136424	0.947140
H155	H	0.836849	-0.587688	0.420119
H156	H	1.336849	-0.087688	0.920119
H157	H	0.803530	-0.637333	0.496363
H158	H	1.303530	-0.137333	0.996363
H159	H	0.815115	-0.672889	0.410075
H160	H	1.315115	-0.172889	0.910075
O161	O	0.921553	-0.351803	1.116043
O162	O	1.421553	0.148197	1.616043
C163	C	0.937595	-0.413280	1.098803
C164	C	1.437595	0.086720	1.598803
H165	H	0.966799	-0.411502	1.046796
H166	H	1.466799	0.088498	1.546796
H167	H	0.887081	-0.443247	1.094127
H168	H	1.387081	0.056753	1.594127
H169	H	0.971876	-0.434802	1.141546
H170	H	1.471876	0.065198	1.641546
O171	O	1.091186	-1.037850	0.296735
O172	O	1.591186	-0.537850	0.796735
C173	C	1.134742	-1.075726	0.338679
C174	C	1.634742	-0.575726	0.838679
H175	H	1.136589	-1.057921	0.394079
H176	H	1.636589	-0.557921	0.894079
H177	H	1.189819	-1.073412	0.315741
H178	H	1.689819	-0.573412	0.815741
H179	H	1.113041	-1.126471	0.340134
H180	H	1.613041	-0.626471	0.840134
H181	H	0.602390	-0.364019	0.282451
H182	H	1.102390	0.135981	0.782451
O183	O	0.589486	-0.218744	0.452160
O184	O	1.089486	0.281256	0.952160
C185	C	0.548822	-0.178012	0.410529
C186	C	1.048822	0.321988	0.910529
H187	H	0.573226	-0.171042	0.356264
H188	H	1.073226	0.328958	0.856264
H189	H	0.546932	-0.130645	0.435957
H190	H	1.046932	0.369355	0.935957
H191	H	0.493428	-0.199410	0.405701
H192	H	0.993428	0.300590	0.905701
H193	H	0.913770	-0.525571	0.458807
H194	H	1.413770	-0.025571	0.958807
H195	H	0.262866	-0.200271	0.474002
H196	H	0.762866	0.299729	0.974002
H197	H	1.057123	-0.225114	0.871480
H198	H	1.557123	0.274886	1.371480
H199	H	1.091605	-0.192911	1.117700
H200	H	1.591605	0.307089	1.617700
H201	H	0.395702	-0.195404	0.479674
H202	H	0.895702	0.304596	0.979674
H203	H	0.905915	-0.366318	0.645102
H204	H	1.405915	0.133682	1.145102
H205	H	0.900271	-0.371586	0.777934
H206	H	1.400271	0.128414	1.277934
O207	O	1.091069	-0.908341	0.296542
O208	O	1.591069	-0.408341	0.796542
C209	C	1.132362	-0.948422	0.258697
C210	C	1.632362	-0.448422	0.758697
H211	H	1.133569	-0.996319	0.287531
H212	H	1.633569	-0.496319	0.787531
H213	H	1.187912	-0.927071	0.253623
H214	H	1.687912	-0.427071	0.753623
H215	H	1.108995	-0.954286	0.204337
H216	H	1.608995	-0.454286	0.704337
O217	O	0.408472	-0.340675	0.309830
O218	O	0.908472	0.159325	0.809830
C219	C	0.362117	-0.376328	0.268126
C220	C	0.862117	0.123672	0.768126
H221	H	0.308711	-0.381600	0.294615
H222	H	0.808711	0.118400	0.794615
H223	H	0.383570	-0.424840	0.261443
H224	H	0.883570	0.075160	0.761443
H225	H	0.356585	-0.351377	0.214599
H226	H	0.856585	0.148623	0.714599
H227	H	0.735228	-0.359155	0.288119
H228	H	1.235228	0.140845	0.788119
H229	H	1.063066	-0.219587	0.784960
H230	H	1.563066	0.280413	1.284960
O231	O	1.076032	-0.207456	0.646797
O232	O	1.576032	0.292544	1.146797
C233	C	1.113596	-0.172396	0.696522
C234	C	1.613596	0.327604	1.196522
H235	H	1.082659	-0.173333	0.747480
H236	H	1.582659	0.326667	1.247480
H237	H	1.122008	-0.121686	0.675709
H238	H	1.622008	0.378314	1.175709
H239	H	1.166496	-0.193815	0.706586
H240	H	1.666496	0.306185	1.206586
H241	H	0.913931	-0.926408	0.458884
H242	H	1.413931	-0.426408	0.958884
H243	H	1.097261	-0.187645	0.984870
H244	H	1.597261	0.312355	1.484870
O245	O	0.933202	-0.340992	0.896806
O246	O	1.433202	0.159008	1.396806
C247	C	0.971289	-0.381858	0.940873
C248	C	1.471289	0.118142	1.440873
H249	H	1.027441	-0.382863	0.921173
H250	H	1.527441	0.117137	1.421173
H251	H	0.945864	-0.431261	0.940608
H252	H	1.445864	0.068739	1.440608
H253	H	0.971360	-0.364498	0.996468
H254	H	1.471360	0.135502	1.496468
H255	H	1.083542	-0.632385	0.303243
H256	H	1.583542	-0.132385	0.803243
H257	H	0.489050	-0.329690	0.322620
H258	H	0.989050	0.170310	0.822620
O259	O	0.906657	-1.051470	0.465588
O260	O	1.406657	-0.551470	0.965588
C261	C	0.916726	-1.115808	0.456425
C262	C	1.416726	-0.615808	0.956425
H263	H	0.942030	-1.121808	0.403327
H264	H	1.442030	-0.621808	0.903327
H265	H	0.864019	-1.142939	0.458897
H266	H	1.364019	-0.642939	0.958897
H267	H	0.952270	-1.134700	0.499639
H268	H	1.452270	-0.634700	0.999639
H269	H	0.728395	-0.219769	0.451121
H270	H	1.228395	0.280231	0.951121
O271	O	1.090907	-0.507507	0.296459
O272	O	1.590907	-0.007507	0.796459
C273	C	1.132196	-0.547590	0.258613
C274	C	1.632196	-0.047590	0.758613
H275	H	1.133393	-0.595490	0.287441
H276	H	1.633393	-0.095490	0.787441
H277	H	1.187750	-0.526246	0.253546
H278	H	1.687750	-0.026246	0.753546
H279	H	1.108833	-0.553446	0.204250
H280	H	1.608833	-0.053446	0.704250
O281	O	0.927584	-0.345908	0.971738
O282	O	1.427584	0.154092	1.471738
C283	C	0.884144	-0.310033	0.927448
C284	C	1.384144	0.189967	1.427448
H285	H	0.878908	-0.261489	0.949352
H286	H	1.378908	0.238511	1.449352
H287	H	0.830210	-0.334732	0.924288
H288	H	1.330210	0.165268	1.424288
H289	H	0.908185	-0.304869	0.872892
H290	H	1.408185	0.195131	1.372892
