data_functionalizedCrystal
_audit_creation_method	'MofGen! by Chris Wilmer'
_symmetry_space_group_name_H-M	'P1'
_symmetry_Int_Tables_number	1
_symmetry_cell_setting	triclinic
loop_
_symmetry_equiv_pos_as_xyz
  x,y,z
_cell_length_a	11.026607
_cell_length_b	15.944551
_cell_length_c	10.065875
_cell_angle_alpha	98.788968
_cell_angle_beta	79.302338
_cell_angle_gamma	96.042377
loop_
_atom_site_label
_atom_site_type_symbol
_atom_site_fract_x
_atom_site_fract_y
_atom_site_fract_z
O1	O	1.627949	0.342077	-0.113512
O2	O	1.274640	0.302024	-0.113511
O3	O	1.460941	0.201235	-0.113499
O4	O	1.441648	0.442866	-0.113524
O5	O	1.425416	0.220553	0.113487
O6	O	1.239115	0.321342	0.113475
O7	O	1.592424	0.361394	0.113475
Zn8	Zn	1.410129	0.344435	0.149514
Zn9	Zn	1.456935	0.318983	-0.149550
O10	O	1.406123	0.462183	0.113463
C11	C	1.211666	0.304294	-0.000018
C12	C	1.076950	0.282267	-0.000017
C13	C	1.003150	0.343086	-0.000024
C14	C	0.863914	0.320322	-0.000024
C15	C	1.442377	0.179479	-0.000006
C16	C	1.439975	0.085870	-0.000005
C17	C	1.318759	-0.147313	-0.000024
C18	C	1.357533	-0.190296	0.111894
C19	C	1.435632	-0.085514	-0.000015
C20	C	1.392586	-0.209321	-0.111896
C21	C	1.431429	-0.251063	-0.000031
C22	C	1.474424	-0.127256	0.111995
C23	C	1.509476	-0.146286	-0.111896
C24	C	1.548331	-0.189236	0.000049
C25	C	1.438050	0.009855	-0.000005
C26	C	1.429019	-0.346429	-0.000032
C27	C	1.655399	0.359124	-0.000022
C28	C	1.790116	0.381150	-0.000031
C29	C	1.424687	0.483939	-0.000034
C30	C	1.427090	0.577548	-0.000043
N31	N	1.378194	0.361806	0.353617
N32	N	1.488879	0.301607	-0.353654
C33	C	1.445816	0.325021	0.421401
C34	C	1.421248	0.338398	0.578566
H35	H	0.830005	0.450078	-0.000029
C36	C	1.204418	0.360035	0.622875
C37	C	1.318527	0.394284	0.657283
H38	H	1.141005	0.394533	0.671480
H39	H	1.207460	0.358385	0.527596
H40	H	1.187394	0.303962	0.646236
H41	H	1.335556	0.450354	0.633912
H42	H	1.315487	0.395943	0.752583
C43	C	0.831073	0.197153	0.116675
C44	C	0.810071	0.227272	-0.000014
H45	H	0.797824	0.139711	0.116681
H46	H	0.917570	0.200242	0.116663
H47	H	0.792050	0.231075	0.195819
H48	H	0.849102	0.193354	-0.079159
H49	H	0.723558	0.224176	-0.000016
C50	C	1.080640	0.139242	-0.116690
C51	C	1.023107	0.189220	-0.000010
H52	H	1.047406	0.081797	-0.116678
H53	H	1.066388	0.159684	-0.195831
H54	H	1.167144	0.142342	-0.116675
H55	H	0.936603	0.186125	-0.000029
H56	H	1.037349	0.168772	0.079152
H57	H	1.302107	0.403200	0.411939
C58	C	1.187632	-0.084900	-0.117150
C59	C	1.187777	-0.122133	0.000111
H60	H	1.106768	-0.069361	-0.117065
H61	H	1.244073	-0.035610	-0.118011
H62	H	1.211936	-0.124485	-0.195899
H63	H	1.163482	-0.082545	0.078861
H64	H	1.131317	-0.171429	0.000985
H65	H	1.293291	-0.209825	0.206512
H66	H	1.564962	0.260203	0.588030
H67	H	1.508991	-0.091738	0.206717
H68	H	1.573676	-0.126742	-0.206519
C69	C	1.184507	0.440674	-0.000029
C70	C	1.056997	0.436133	-0.000031
H71	H	1.217746	0.498118	-0.000040
H72	H	1.198738	0.420235	0.079124
H73	H	1.223516	0.406757	-0.079187
H74	H	1.017987	0.470045	0.079133
H75	H	1.042757	0.456583	-0.079192
H76	H	1.645418	-0.207712	0.000112
C77	C	1.424210	-0.234263	-0.356758
C78	C	1.345829	-0.257402	-0.239628
H79	H	1.395341	-0.263948	-0.435607
H80	H	1.424673	-0.174705	-0.357228
H81	H	1.505773	-0.248456	-0.356883
H82	H	1.264268	-0.243203	-0.239498
H83	H	1.345353	-0.316972	-0.239159
H84	H	1.521895	0.283620	0.363081
