data_functionalizedCrystal
_audit_creation_method	'MofGen! by Chris Wilmer'
_symmetry_space_group_name_H-M	'P1'
_symmetry_Int_Tables_number	1
_symmetry_cell_setting	triclinic
loop_
_symmetry_equiv_pos_as_xyz
  x,y,z
_cell_length_a	6.817900
_cell_length_b	17.110515
_cell_length_c	17.110486
_cell_angle_alpha	96.938872
_cell_angle_beta	99.060439
_cell_angle_gamma	99.060823
loop_
_atom_site_label
_atom_site_type_symbol
_atom_site_fract_x
_atom_site_fract_y
_atom_site_fract_z
V1	V	-3.954941	-0.109247	-0.246618
O2	O	-3.966477	0.005492	-0.242029
O3	O	-3.885159	-0.216852	-0.244830
O4	O	-3.885157	-0.107460	-0.354223
O5	O	-3.966479	-0.104656	-0.131878
V6	V	-4.444110	-0.095535	-0.232906
O7	O	-4.203813	-0.139324	-0.276695
O8	O	-4.645434	-0.065458	-0.202829
O9	O	-4.290685	0.012069	-0.234695
O10	O	-4.549970	-0.210275	-0.237496
O11	O	-4.549969	-0.100126	-0.347646
O12	O	-4.290686	-0.097322	-0.125302
C13	C	-3.725650	-0.243087	-0.240913
C14	C	-3.749739	-0.331054	-0.240168
C15	C	-3.876867	-0.828378	-0.235766
C16	C	-3.854249	-0.745724	-0.236469
C17	C	-4.023447	-0.708426	-0.240759
C18	C	-4.215280	-0.753788	-0.244355
C19	C	-4.237897	-0.836441	-0.243658
C20	C	-3.964189	-0.459069	-0.243067
C21	C	-3.941555	-0.376409	-0.243762
C22	C	-3.580526	-0.368352	-0.235876
C23	C	-3.603159	-0.451006	-0.235175
C24	C	-3.794989	-0.496361	-0.238775
C25	C	-4.000331	-0.623940	-0.241475
C26	C	-3.818104	-0.580846	-0.238064
C27	C	-3.725648	-0.103546	-0.380454
C28	C	-3.749734	-0.102797	-0.468421
C29	C	-3.941552	-0.106394	-0.513775
C30	C	-3.964172	-0.105690	-0.596429
C31	C	-3.794974	-0.101394	-0.633728
C32	C	-3.603139	-0.097794	-0.588367
C33	C	-3.580520	-0.098493	-0.505713
C34	C	-3.854238	-0.099082	-0.883085
C35	C	-3.876873	-0.098386	-0.965744
C36	C	-4.237905	-0.106281	-0.973801
C37	C	-4.215270	-0.106984	-0.891146
C38	C	-4.023438	-0.103380	-0.845792
C39	C	-3.818092	-0.100677	-0.718213
C40	C	-4.000320	-0.104092	-0.761307
C41	C	-4.113536	0.038300	-0.238609
C42	C	-4.068683	0.126267	-0.239359
C43	C	-4.113539	-0.101239	-0.099066
C44	C	-4.068691	-0.101984	-0.011099
H45	H	-4.079339	-0.109898	-0.483414
H46	H	-4.353044	-0.723414	-0.247854
H47	H	-3.424344	-0.331415	-0.232947
N48	N	-4.171078	-0.109575	-0.645336
H49	H	-4.204390	-0.158733	-0.687448
H50	H	-4.172516	-0.060152	-0.672116
N51	N	-3.373629	-0.094607	-0.456790
H52	H	-3.269873	-0.091780	-0.492959
H53	H	-3.372248	-0.143998	-0.429955
H54	H	-3.698055	-0.708799	-0.233541
N55	N	-4.444791	-0.110151	-1.022717
H56	H	-4.548542	-0.112976	-0.986546
H57	H	-4.477932	-0.159306	-1.064825
N58	N	-3.420665	-0.491233	-0.230543
H59	H	-3.295714	-0.449958	-0.228373
H60	H	-3.438066	-0.532989	-0.279355
N61	N	-3.420637	-0.093166	-0.628589
H62	H	-3.321906	-0.042289	-0.604808
H63	H	-3.464234	-0.093307	-0.687827
H64	H	-3.680347	-0.611219	-0.234575
N65	N	-3.694374	-0.093734	-1.005978
H66	H	-3.595675	-0.042848	-0.982198
H67	H	-3.738011	-0.093871	-1.065213
H68	H	-4.138089	-0.593562	-0.244967
N69	N	-3.647343	-0.095192	-0.834173
H70	H	-3.543597	-0.092367	-0.870346
H71	H	-3.645956	-0.144582	-0.807336
N72	N	-4.124077	-0.336190	-0.248395
H73	H	-4.138615	-0.309709	-0.298131
H74	H	-4.106754	-0.294483	-0.199549
N75	N	-4.397766	-0.111611	-0.850920
H76	H	-4.354329	-0.111510	-0.791678
H77	H	-4.496420	-0.162487	-0.874765
N78	N	-3.635607	-0.096044	-0.758446
H79	H	-3.568622	-0.143713	-0.749942
H80	H	-3.537022	-0.045138	-0.734643
N81	N	-4.444816	-0.885297	-0.247440
H82	H	-4.446261	-0.912089	-0.198022
H83	H	-4.478250	-0.927396	-0.296606
H84	H	-4.120385	-0.495987	-0.245997
N85	N	-4.182797	-0.108727	-0.721074
H86	H	-4.281524	-0.159606	-0.744852
H87	H	-4.249626	-0.061023	-0.729588
H88	H	-3.739083	-0.858740	-0.232274
