data_functionalizedCrystal
_audit_creation_method	'MofGen! by Chris Wilmer'
_symmetry_space_group_name_H-M	'P1'
_symmetry_Int_Tables_number	1
_symmetry_cell_setting	triclinic
loop_
_symmetry_equiv_pos_as_xyz
  x,y,z
_cell_length_a	6.817900
_cell_length_b	10.773890
_cell_length_c	16.305550
_cell_angle_alpha	96.344786
_cell_angle_beta	103.455250
_cell_angle_gamma	96.645716
loop_
_atom_site_label
_atom_site_type_symbol
_atom_site_fract_x
_atom_site_fract_y
_atom_site_fract_z
V1	V	-3.991657	-0.173642	-0.261649
O2	O	-4.015287	0.007261	-0.258082
O3	O	-3.909321	-0.343261	-0.258499
O4	O	-3.943501	-0.171446	-0.376383
O5	O	-3.980871	-0.165743	-0.139382
V6	V	-4.479651	-0.151948	-0.247190
O7	O	-4.243109	-0.221230	-0.293365
O8	O	-4.678397	-0.104359	-0.215473
O9	O	-4.338781	0.017671	-0.250339
O10	O	-4.573418	-0.332850	-0.250757
O11	O	-4.607834	-0.159846	-0.369457
O12	O	-4.304601	-0.154143	-0.132455
C13	C	-3.746059	-0.384595	-0.254021
C14	C	-3.760028	-0.523264	-0.252210
C15	C	-3.789657	-0.165427	-0.404392
C16	C	-3.831343	-0.164754	-0.498180
C17	C	-3.938109	-0.591139	-0.255356
C18	C	-3.952551	-0.734460	-0.253485
C19	C	-3.982949	-0.162147	-0.838946
C20	C	-3.748443	-0.154407	-0.798079
C21	C	-3.705007	-0.155623	-0.700574
C22	C	-3.907734	-0.163440	-0.669888
C23	C	-4.050228	-0.286635	-0.719533
C24	C	-4.092230	-0.285939	-0.817088
C25	C	-4.060506	-0.047676	-0.794014
C26	C	-4.012771	-0.046701	-0.696179
C27	C	-3.865238	-0.164175	-0.574344
C28	C	-4.025453	-0.161421	-0.934491
C29	C	-4.165384	0.058999	-0.254816
C30	C	-4.130653	0.197667	-0.256631
C31	C	-4.121786	-0.160166	-0.104442
C32	C	-4.059340	-0.160833	-0.010654
H33	H	-4.079882	-0.543146	-0.259439
Cl34	Cl	-3.733645	-0.808545	-0.247195
H35	H	-4.160364	-0.045168	-0.674844
Cl36	Cl	-4.324749	-0.054732	-0.835362
H37	H	-3.977527	-0.373316	-0.702030
Cl38	Cl	-4.349569	-0.728255	-0.262935
H39	H	-4.201357	-0.296811	-0.700540
Cl40	Cl	-3.541134	-0.597354	-0.245920
Cl41	Cl	-3.536885	-0.018889	-0.647587
Cl42	Cl	-3.611972	-0.016880	-0.818119
H43	H	-3.909875	0.044421	-0.662526
Cl44	Cl	-3.653525	-0.281386	-0.845713
Cl45	Cl	-3.576882	-0.284073	-0.674391
H46	H	-4.038823	-0.372597	-0.846780
H47	H	-4.263914	-0.296743	-0.844994
H48	H	-3.987698	0.045668	-0.808125
