data_functionalizedCrystal
_audit_creation_method	'MofGen! by Chris Wilmer'
_symmetry_space_group_name_H-M	'P1'
_symmetry_Int_Tables_number	1
_symmetry_cell_setting	triclinic
loop_
_symmetry_equiv_pos_as_xyz
  x,y,z
_cell_length_a	19.077105
_cell_length_b	25.639240
_cell_length_c	19.076919
_cell_angle_alpha	87.738531
_cell_angle_beta	89.923776
_cell_angle_gamma	87.728718
loop_
_atom_site_label
_atom_site_type_symbol
_atom_site_fract_x
_atom_site_fract_y
_atom_site_fract_z
Zn1	Zn	1.058223	-0.252939	0.440357
Zn2	Zn	1.391557	0.080395	0.773690
Zn3	Zn	1.724890	0.413728	1.107023
Zn4	Zn	1.062848	-0.337004	0.322829
Zn5	Zn	1.396181	-0.003670	0.656163
Zn6	Zn	1.729514	0.329663	0.989496
Zn7	Zn	0.945443	-0.245935	0.318152
Zn8	Zn	1.278776	0.087399	0.651485
Zn9	Zn	1.612109	0.420732	0.984818
Zn10	Zn	0.940670	-0.336688	0.435582
Zn11	Zn	1.274003	-0.003355	0.768915
Zn12	Zn	1.607336	0.329978	1.102249
O13	O	1.001796	-0.293141	0.379230
O14	O	1.335129	0.040192	0.712563
O15	O	1.668462	0.373525	1.045897
O16	O	1.157168	-0.267153	0.428722
O17	O	1.490501	0.066180	0.762055
O18	O	1.823835	0.399513	1.095389
O19	O	1.051207	-0.322124	0.223878
O20	O	1.384540	0.011209	0.557212
O21	O	1.717873	0.344543	0.890545
O22	O	0.960465	-0.173702	0.334403
O23	O	1.293799	0.159632	0.667736
O24	O	1.627132	0.492965	1.001069
O25	O	1.160566	-0.328915	0.342375
O26	O	1.493899	0.004418	0.675709
O27	O	1.827232	0.337751	1.009042
O28	O	1.043325	-0.178847	0.424186
O29	O	1.376658	0.154486	0.757520
O30	O	1.709992	0.487819	1.090853
O31	O	0.964949	-0.255216	0.220442
O32	O	1.298283	0.078117	0.553775
O33	O	1.631616	0.411451	0.887108
O34	O	0.846478	-0.254910	0.329773
O35	O	1.179812	0.078423	0.663107
O36	O	1.513145	0.411756	0.996440
O37	O	0.952330	-0.328378	0.534546
O38	O	1.285664	0.004955	0.867879
O39	O	1.618997	0.338289	1.201213
O40	O	0.842971	-0.321587	0.416049
O41	O	1.176305	0.011747	0.749382
O42	O	1.509638	0.345080	1.082716
O43	O	1.038697	-0.266848	0.538054
O44	O	1.372030	0.066486	0.871387
O45	O	1.705363	0.399819	1.204720
O46	O	1.046578	-0.410124	0.337746
O47	O	1.379912	-0.076791	0.671079
O48	O	1.713245	0.256543	1.004413
O49	O	0.956815	-0.409892	0.420585
O50	O	1.290148	-0.076559	0.753918
O51	O	1.623481	0.256774	1.087251
C52	C	0.819229	-0.287455	0.371886
C53	C	1.152562	0.045879	0.705219
C54	C	1.485895	0.379212	1.038552
C55	C	0.741125	-0.285035	0.368761
C56	C	1.074458	0.048299	0.702094
C57	C	1.407792	0.381632	1.035427
C58	C	0.702627	-0.318661	0.412141
C59	C	1.035960	0.014672	0.745474
C60	C	1.369294	0.348006	1.078807
C61	C	0.629240	-0.316381	0.409208
C62	C	0.962574	0.016953	0.742541
C63	C	1.295907	0.350286	1.075874
C64	C	0.594353	-0.280476	0.362890
C65	C	0.927686	0.052857	0.696224
C66	C	1.261019	0.386191	1.029557
C67	C	0.632856	-0.246846	0.319508
C68	C	0.966189	0.086487	0.652842
C69	C	1.299522	0.419820	0.986175
C70	C	0.706241	-0.249124	0.322445
C71	C	1.039574	0.084209	0.655779
C72	C	1.372908	0.417542	0.989112
C73	C	0.375067	-0.269932	0.349300
C74	C	0.708401	0.063401	0.682634
C75	C	1.041734	0.396735	1.015967
C76	C	0.301677	-0.267657	0.346365
C77	C	0.635010	0.065676	0.679698
C78	C	0.968343	0.399009	1.013032
C79	C	0.298066	-0.337192	0.436066
C80	C	0.631400	-0.003858	0.769399
C81	C	0.964733	0.329475	1.102732
C82	C	0.371453	-0.339469	0.438996
C83	C	0.704787	-0.006135	0.772329
C84	C	1.038120	0.327198	1.105662
C85	C	0.409950	-0.305837	0.395616
C86	C	0.743283	0.027496	0.728950
C87	C	1.076617	0.360830	1.062283
N88	N	0.519340	-0.278145	0.359890
N89	N	0.852673	0.055188	0.693223
N90	N	1.186006	0.388521	1.026556
N91	N	0.484961	-0.308166	0.398621
N92	N	0.818295	0.025168	0.731954
N93	N	1.151628	0.358501	1.065288
C94	C	1.001699	-0.428979	0.379171
C95	C	1.335032	-0.095646	0.712504
C96	C	1.668365	0.237687	1.045838
C97	C	1.001721	-0.487094	0.379172
C98	C	1.335054	-0.153761	0.712505
C99	C	1.668387	0.179573	1.045838
C100	C	1.044960	-0.850105	0.426062
C101	C	1.378293	-0.516772	0.759395
C102	C	1.711627	-0.183438	1.092729
C103	C	1.044980	-0.904710	0.426077
C104	C	1.378313	-0.571377	0.759411
C105	C	1.711647	-0.238044	1.092744
O106	O	1.081628	-0.935193	0.465884
O107	O	1.414961	-0.601860	0.799217
O108	O	1.748294	-0.268526	1.132551
N109	N	1.001891	-0.929385	0.379302
N110	N	1.335224	-0.596052	0.712635
N111	N	1.668557	-0.262719	1.045968
C112	C	0.958773	-0.899452	0.332513
C113	C	1.292106	-0.566119	0.665846
C114	C	1.625440	-0.232785	0.999180
O115	O	0.922123	-0.925454	0.292729
O116	O	1.255457	-0.592121	0.626062
O117	O	1.588790	-0.258788	0.959395
C118	C	0.958750	-0.844848	0.332502
C119	C	1.292083	-0.511514	0.665835
C120	C	1.625416	-0.178181	0.999168
C121	C	1.001847	-0.820176	0.379275
C122	C	1.335180	-0.486842	0.712609
C123	C	1.668514	-0.153509	1.045942
C124	C	1.088053	-0.825433	0.472833
C125	C	1.421387	-0.492099	0.806166
C126	C	1.754720	-0.158766	1.139499
C127	C	1.088034	-0.770831	0.472816
C128	C	1.421367	-0.437498	0.806150
C129	C	1.754701	-0.104164	1.139483
C130	C	1.044921	-0.740902	0.426030
C131	C	1.378255	-0.407568	0.759363
C132	C	1.711588	-0.074235	1.092696
C133	C	1.001828	-0.765574	0.379259
C134	C	1.335161	-0.432241	0.712593
C135	C	1.668494	-0.098907	1.045926
C136	C	0.915629	-0.814915	0.285717
C137	C	1.248962	-0.481582	0.619050
C138	C	1.582295	-0.148249	0.952384
C139	C	0.915609	-0.760308	0.285710
C140	C	1.248942	-0.426974	0.619043
C141	C	1.582275	-0.093641	0.952377
C142	C	0.958706	-0.735636	0.332484
C143	C	1.292040	-0.402302	0.665817
C144	C	1.625373	-0.068969	0.999150
C145	C	0.958696	-0.681043	0.332456
C146	C	1.292029	-0.347710	0.665790
C147	C	1.625362	-0.014377	0.999123
N148	N	1.001785	-0.656368	0.379232
N149	N	1.335118	-0.323035	0.712565
N150	N	1.668452	0.010299	1.045899
C151	C	1.044898	-0.686297	0.426019
C152	C	1.378231	-0.352964	0.759352
C153	C	1.711565	-0.019631	1.092685
C154	C	0.958824	-1.014125	0.332541
C155	C	1.292158	-0.680792	0.665874
C156	C	1.625491	-0.347458	0.999207
C157	C	0.958851	-1.068728	0.332548
C158	C	1.292184	-0.735395	0.665881
C159	C	1.625518	-0.402062	0.999215
C160	C	1.045057	-1.073983	0.426113
C161	C	1.378390	-0.740650	0.759447
C162	C	1.711724	-0.407316	1.092780
C163	C	1.045034	-1.019379	0.426102
C164	C	1.378367	-0.686045	0.759436
C165	C	1.711701	-0.352712	1.092769
C166	C	1.001914	-0.989450	0.379316
C167	C	1.335247	-0.656117	0.712650
C168	C	1.668580	-0.322783	1.045983
C169	C	1.044854	-0.571630	0.425981
C170	C	1.378188	-0.238297	0.759314
C171	C	1.711521	0.095037	1.092647
C172	C	1.044833	-0.517023	0.425958
C173	C	1.378167	-0.183690	0.759292
C174	C	1.711500	0.149643	1.092625
C175	C	0.958625	-0.511774	0.332396
C176	C	1.291958	-0.178440	0.665729
C177	C	1.625291	0.154893	0.999062
C178	C	0.958648	-0.566375	0.332415
C179	C	1.291981	-0.233042	0.665749
C180	C	1.625315	0.100291	0.999082
C181	C	1.001765	-0.596303	0.379214
C182	C	1.335098	-0.262969	0.712547
C183	C	1.668432	0.070364	1.045880
O184	O	0.922064	-0.650527	0.292672
O185	O	1.255398	-0.317194	0.626005
O186	O	1.588731	0.016140	0.959339
O187	O	1.081534	-0.660288	0.465803
O188	O	1.414868	-0.326955	0.799136
O189	O	1.748201	0.006378	1.132469
C190	C	1.185076	-0.298851	0.386603
C191	C	1.518409	0.034483	0.719937
C192	C	1.851743	0.367816	1.053270
C193	C	1.263179	-0.301284	0.389745
C194	C	1.596512	0.032050	0.723079
C195	C	1.929846	0.365383	1.056412
C196	C	0.994465	-0.298359	0.562509
C197	C	1.327799	0.034974	0.895842
C198	C	1.661132	0.368308	1.229176
C199	C	0.991342	-0.300582	0.640611
C200	C	1.324675	0.032751	0.973945
C201	C	1.658008	0.366084	1.307278
C202	C	1.001912	-0.156774	0.379305
C203	C	1.335245	0.176559	0.712639
C204	C	1.668578	0.509893	1.045972
C205	C	1.001961	-0.098662	0.379337
C206	C	1.335295	0.234671	0.712671
C207	C	1.668628	0.568004	1.046004
C208	C	1.009138	-0.287908	0.196666
C209	C	1.342471	0.045426	0.529999
C210	C	1.675805	0.378759	0.863332
C211	C	1.012398	-0.285541	0.118569
C212	C	1.345731	0.047792	0.451902
C213	C	1.679065	0.381125	0.785236
C214	C	1.034838	-0.269593	0.679131
C215	C	1.368171	0.063741	1.012465
C216	C	1.701505	0.397074	1.345798
C217	C	1.031894	-0.271679	0.752517
C218	C	1.365228	0.061654	1.085850
C219	C	1.698561	0.394987	1.419183
C220	C	0.985457	-0.304759	0.787381
C221	C	1.318791	0.028574	1.120714
C222	C	1.652124	0.361908	1.454047
C223	C	0.941956	-0.335750	0.748855
C224	C	1.275289	-0.002417	1.082189
C225	C	1.608623	0.330917	1.415522
C226	C	0.944897	-0.333660	0.675471
C227	C	1.278230	-0.000327	1.008805
C228	C	1.611563	0.333007	1.342138
C229	C	0.971838	-0.314442	1.006660
C230	C	1.305171	0.018891	1.339993
C231	C	1.638504	0.352225	1.673326
C232	C	0.968902	-0.316531	1.080049
C233	C	1.302235	0.016802	1.413382
C234	C	1.635568	0.350136	1.746716
C235	C	1.058839	-0.252460	1.083705
C236	C	1.392173	0.080874	1.417039
C237	C	1.725506	0.414207	1.750372
C238	C	1.061779	-0.250375	1.010320
C239	C	1.395112	0.082958	1.343653
C240	C	1.728446	0.416292	1.676986
C241	C	1.018275	-0.281364	0.971801
C242	C	1.351608	0.051970	1.305134
C243	C	1.684942	0.385303	1.638467
N244	N	0.982449	-0.306894	0.862392
N245	N	1.315782	0.026439	1.195726
N246	N	1.649116	0.359773	1.529059
N247	N	1.021281	-0.279225	0.896790
N248	N	1.354614	0.054108	1.230124
N249	N	1.687947	0.387441	1.563457
H250	H	0.604444	-0.217610	0.281799
H251	H	0.937778	0.115724	0.615132
H252	H	1.271111	0.449057	0.948465
O253	O	0.747770	-0.212863	0.275649
O254	O	1.081103	0.120471	0.608983
O255	O	1.414436	0.453804	0.942316
H256	H	0.711183	-0.187518	0.242941
H257	H	1.044517	0.145816	0.576275
H258	H	1.377850	0.479149	0.909608
O259	O	1.084924	-0.233914	0.641529
O260	O	1.418257	0.099420	0.974862
O261	O	1.751591	0.432753	1.308195
H262	H	1.114670	-0.212712	0.680646
H263	H	1.448003	0.120621	1.013979
H264	H	1.781337	0.453955	1.347313
O265	O	0.918806	-0.352204	1.117658
O266	O	1.252140	-0.018871	1.450991
O267	O	1.585473	0.314462	1.784324
H268	H	0.931373	-0.393214	1.104035
H269	H	1.264706	-0.059880	1.437368
H270	H	1.598040	0.273453	1.770701
O271	O	0.912328	-0.981845	0.282063
O272	O	1.245662	-0.648512	0.615396
O273	O	1.578995	-0.315178	0.948729
H274	H	0.882380	-1.008181	0.249536
H275	H	1.215713	-0.674848	0.582869
H276	H	1.549046	-0.341514	0.916203
H277	H	0.597898	-0.343763	0.444532
H278	H	0.931232	-0.010430	0.777865
H279	H	1.264565	0.322903	1.111199
O280	O	0.891865	-0.371424	0.786458
O281	O	1.225198	-0.038091	1.119792
O282	O	1.558532	0.295242	1.453125
H283	H	0.904438	-0.412432	0.772832
H284	H	1.237771	-0.079099	1.106165
H285	H	1.571104	0.254234	1.439499
O286	O	0.740255	-0.357385	0.462101
O287	O	1.073589	-0.024052	0.795434
O288	O	1.406922	0.309282	1.128767
H289	H	0.701153	-0.380380	0.491778
H290	H	1.034486	-0.047046	0.825111
H291	H	1.367819	0.286287	1.158445
H292	H	0.399854	-0.368707	0.476711
H293	H	0.733187	-0.035374	0.810044
H294	H	1.066520	0.297959	1.143377
O295	O	1.105737	-0.219026	1.125259
O296	O	1.439070	0.114307	1.458592
O297	O	1.772404	0.447641	1.791925
H298	H	1.140125	-0.244484	1.160132
H299	H	1.473459	0.088849	1.493465
H300	H	1.806792	0.422183	1.826799
H301	H	0.266715	-0.364572	0.471384
H302	H	0.600048	-0.031239	0.804717
H303	H	0.933381	0.302095	1.138050
H304	H	0.909470	-0.358889	0.644109
H305	H	1.242803	-0.025556	0.977442
H306	H	1.576137	0.307777	1.310775
H307	H	1.067316	-0.246446	0.783877
H308	H	1.400649	0.086888	1.117210
H309	H	1.733982	0.420221	1.450544
O310	O	1.091522	-0.992771	0.476548
O311	O	1.424855	-0.659438	0.809881
O312	O	1.758188	-0.326104	1.143215
H313	H	1.077226	-1.004431	0.531203
H314	H	1.410559	-0.671097	0.864537
H315	H	1.743893	-0.337764	1.197870
O316	O	0.924882	-0.347836	0.965116
O317	O	1.258216	-0.014503	1.298449
O318	O	1.591549	0.318831	1.631783
H319	H	0.892091	-0.371181	1.001690
H320	H	1.225424	-0.037848	1.335023
H321	H	1.558757	0.295485	1.668356
H322	H	1.079931	-0.496937	0.464047
H323	H	1.413264	-0.163604	0.797380
H324	H	1.746598	0.169729	1.130714
H325	H	0.273273	-0.238414	0.308652
H326	H	0.606607	0.094920	0.641985
H327	H	0.939940	0.428253	0.975319
H328	H	0.923525	-0.487397	0.294300
H329	H	1.256858	-0.154063	0.627634
H330	H	1.590191	0.179270	0.960967
O331	O	1.091553	-1.106272	0.476582
O332	O	1.424886	-0.772939	0.809915
O333	O	1.758219	-0.439606	1.143248
H334	H	1.121520	-1.079946	0.509106
H335	H	1.454853	-0.746613	0.842439
H336	H	1.788187	-0.413280	1.175772
H337	H	1.079959	-0.595990	0.464093
H338	H	1.413293	-0.262657	0.797426
H339	H	1.746626	0.070676	1.130760
O340	O	0.869139	-0.841519	0.235272
O341	O	1.202473	-0.508185	0.568606
O342	O	1.535806	-0.174852	0.901939
H343	H	0.839154	-0.811525	0.202749
H344	H	1.172487	-0.478192	0.536083
H345	H	1.505821	-0.144858	0.869416
O346	O	0.416586	-0.233676	0.302493
O347	O	0.749919	0.099658	0.635826
O348	O	1.083253	0.432991	0.969160
H349	H	0.379996	-0.208336	0.269782
H350	H	0.713329	0.124997	0.603115
H351	H	1.046662	0.458330	0.936448
O352	O	1.134528	-0.744223	0.523255
O353	O	1.467862	-0.410890	0.856588
O354	O	1.801195	-0.077556	1.189922
H355	H	1.164508	-0.774215	0.555786
H356	H	1.497841	-0.440882	0.889119
H357	H	1.831174	-0.107549	1.222453
O358	O	1.111870	-0.214698	0.972720
O359	O	1.445203	0.118635	1.306053
O360	O	1.778536	0.451968	1.639386
H361	H	1.099291	-0.173689	0.986335
H362	H	1.432624	0.159644	1.319669
H363	H	1.765958	0.492977	1.653002
O364	O	1.134560	-0.857710	0.523297
O365	O	1.467893	-0.524377	0.856630
O366	O	1.801227	-0.191043	1.189963
H367	H	1.164520	-0.831371	0.555809
H368	H	1.497853	-0.498038	0.889142
H369	H	1.831187	-0.164705	1.222475
H370	H	0.923764	-1.088811	0.294453
H371	H	1.257098	-0.755478	0.627786
H372	H	1.590431	-0.422145	0.961119
H373	H	0.880493	-0.735942	0.247612
H374	H	1.213826	-0.402609	0.580945
H375	H	1.547160	-0.069275	0.914279
H376	H	0.923560	-0.586464	0.294323
H377	H	1.256894	-0.253131	0.627656
H378	H	1.590227	0.080202	0.960990
