data_functionalizedCrystal
_audit_creation_method	'MofGen! by Chris Wilmer'
_symmetry_space_group_name_H-M	'P1'
_symmetry_Int_Tables_number	1
_symmetry_cell_setting	triclinic
loop_
_symmetry_equiv_pos_as_xyz
  x,y,z
_cell_length_a	14.519709
_cell_length_b	16.956995
_cell_length_c	16.053802
_cell_angle_alpha	87.607939
_cell_angle_beta	92.569364
_cell_angle_gamma	79.867308
loop_
_atom_site_label
_atom_site_type_symbol
_atom_site_fract_x
_atom_site_fract_y
_atom_site_fract_z
O1	O	0.034075	1.061452	-0.069487
O2	O	0.066448	0.829341	-0.069477
O3	O	-0.084457	0.951550	-0.069475
O4	O	0.184981	0.939243	-0.069489
O5	O	-0.076183	0.944824	0.069384
O6	O	0.074723	0.822614	0.069382
O7	O	0.042350	1.054726	0.069372
Zn8	Zn	0.059850	0.937602	0.091424
Zn9	Zn	0.048948	0.946465	-0.091529
O10	O	0.193255	0.932516	0.069369
C11	C	0.072243	0.796272	-0.000046
C12	C	0.077171	0.707758	-0.000042
C13	C	0.114035	0.208512	-0.000075
C14	C	0.109397	0.291680	-0.000074
C15	C	0.022351	0.342644	-0.000063
C16	C	-0.060063	0.310436	-0.000061
C17	C	-0.055426	0.227269	-0.000068
C18	C	-0.000605	0.592383	-0.000047
C19	C	-0.005237	0.675555	-0.000038
C20	C	0.164224	0.656794	-0.000052
C21	C	0.168855	0.573626	-0.000054
C22	C	0.086440	0.541425	-0.000057
N23	N	0.017609	0.427656	-0.000059
N24	N	0.091183	0.456415	-0.000066
C25	C	-0.114635	0.947613	-0.000045
C26	C	-0.216882	0.945894	-0.000045
C27	C	-0.591284	0.939567	-0.000066
C28	C	-0.487113	0.941324	-0.000060
C29	C	-0.404086	0.942731	-0.000055
C30	C	-0.299909	0.944488	-0.000050
C31	C	0.223433	0.936453	-0.000062
C32	C	0.325679	0.938172	-0.000068
C33	C	0.036555	1.087795	-0.000061
C34	C	0.031626	1.176309	-0.000071
N35	N	0.067289	0.931559	0.216284
N36	N	0.041501	0.952514	-0.216389
C37	C	0.003098	0.983578	0.259979
C38	C	0.008310	0.979359	0.347385
C39	C	0.077717	0.923123	0.391096
C40	C	0.141911	0.871098	0.347395
C41	C	0.136694	0.875315	0.259990
C42	C	0.100478	0.904705	0.652505
C43	C	0.105692	0.900494	0.739916
C44	C	-0.027911	1.008754	0.739901
C45	C	-0.033118	1.012969	0.652494
C46	C	0.031073	0.960941	0.608801
N47	N	0.083048	0.918810	0.480439
N48	N	0.025737	0.965251	0.519459
H49	H	-0.053417	1.029375	0.224395
N50	N	0.166068	0.851579	0.607885
N51	N	0.218490	0.879309	0.559101
H52	H	0.264820	0.841788	0.527587
H53	H	0.176502	0.317896	-0.000085
H54	H	0.162216	0.854698	0.775501
H55	H	0.239737	0.532136	-0.000065
H56	H	-0.043959	1.021716	0.382961
N57	N	0.202943	0.156446	-0.000093
N58	N	0.207076	0.082192	-0.000100
H59	H	0.269870	0.045421	-0.000116
H60	H	-0.089634	1.058761	0.616907
H61	H	0.198421	0.825306	0.382989
H62	H	0.188964	0.832954	0.224414
N63	N	0.248394	0.689700	-0.000048
N64	N	0.244247	0.763956	-0.000040
H65	H	0.303695	0.787197	-0.000039
N66	N	-0.094165	0.727603	-0.000015
N67	N	-0.167741	0.698843	-0.000011
H68	H	-0.230543	0.735601	0.000010
H69	H	-0.067713	0.566176	-0.000047
H70	H	-0.130938	0.351937	-0.000057
H71	H	-0.122531	0.201051	-0.000067
N72	N	-0.093468	1.061890	0.784546
N73	N	-0.088805	1.058122	0.862585
H74	H	-0.135109	1.095649	0.894117
