data_functionalizedCrystal
_audit_creation_method	'MofGen! by Chris Wilmer'
_symmetry_space_group_name_H-M	'P1'
_symmetry_Int_Tables_number	1
_symmetry_cell_setting	triclinic
loop_
_symmetry_equiv_pos_as_xyz
  x,y,z
_cell_length_a	14.908571
_cell_length_b	16.625546
_cell_length_c	14.908308
_cell_angle_alpha	93.264070
_cell_angle_beta	90.175053
_cell_angle_gamma	86.718495
loop_
_atom_site_label
_atom_site_type_symbol
_atom_site_fract_x
_atom_site_fract_y
_atom_site_fract_z
Zn1	Zn	1.345280	-0.420778	-0.587557
Zn2	Zn	1.678613	-0.087444	-0.254223
Zn3	Zn	2.011947	0.245889	0.079110
Zn4	Zn	1.353856	-0.548312	-0.437189
Zn5	Zn	1.687189	-0.214979	-0.103856
Zn6	Zn	2.020523	0.118354	0.229477
Zn7	Zn	1.203596	-0.405291	-0.428555
Zn8	Zn	1.536929	-0.071957	-0.095222
Zn9	Zn	1.870263	0.261376	0.238111
Zn10	Zn	1.194884	-0.547354	-0.578841
Zn11	Zn	1.528217	-0.214021	-0.245508
Zn12	Zn	1.861550	0.119312	0.087826
O13	O	1.274404	-0.480434	-0.508036
O14	O	1.607737	-0.147100	-0.174702
O15	O	1.941071	0.186233	0.158631
O16	O	1.472243	-0.444578	-0.574871
O17	O	1.805577	-0.111244	-0.241538
O18	O	2.138910	0.222089	0.091796
O19	O	1.341159	-0.523260	-0.310220
O20	O	1.674492	-0.189926	0.023114
O21	O	2.007825	0.143407	0.356447
O22	O	1.222448	-0.294517	-0.449681
O23	O	1.555781	0.038816	-0.116348
O24	O	1.889115	0.372149	0.216985
O25	O	1.478544	-0.538277	-0.464397
O26	O	1.811877	-0.204943	-0.131063
O27	O	2.145211	0.128390	0.202270
O28	O	1.326543	-0.305896	-0.566499
O29	O	1.659876	0.027438	-0.233166
O30	O	1.993209	0.360771	0.100168
O31	O	1.230763	-0.418182	-0.303876
O32	O	1.564097	-0.084849	0.029457
O33	O	1.897430	0.248484	0.362790
O34	O	1.076615	-0.417254	-0.441230
O35	O	1.409948	-0.083920	-0.107897
O36	O	1.743281	0.249413	0.225436
O37	O	1.207599	-0.536644	-0.705821
O38	O	1.540932	-0.203311	-0.372488
O39	O	1.874266	0.130023	-0.039155
O40	O	1.070214	-0.521627	-0.551644
O41	O	1.403547	-0.188294	-0.218311
O42	O	1.736880	0.145040	0.115022
O43	O	1.318095	-0.443649	-0.712225
O44	O	1.651428	-0.110316	-0.378891
O45	O	1.984761	0.223018	-0.045558
O46	O	1.332711	-0.661013	-0.455945
O47	O	1.666044	-0.327680	-0.122612
O48	O	1.999377	0.005654	0.210721
O49	O	1.215914	-0.660309	-0.560016
O50	O	1.549248	-0.326976	-0.226683
O51	O	1.882581	0.006358	0.106650
C52	C	1.040789	-0.467656	-0.494555
C53	C	1.374122	-0.134323	-0.161222
C54	C	1.707455	0.199010	0.172111
C55	C	0.940846	-0.462211	-0.488810
C56	C	1.274179	-0.128877	-0.155476
C57	C	1.607513	0.204456	0.177857
C58	C	1.274321	-0.689918	-0.507993
C59	C	1.607654	-0.356585	-0.174660
C60	C	1.940988	-0.023252	0.158674
C61	C	1.274366	-0.779542	-0.508010
C62	C	1.607699	-0.446209	-0.174676
C63	C	1.941033	-0.112876	0.158657
C64	C	0.746435	-0.560814	-0.592833
C65	C	1.079768	-0.227481	-0.259499
C66	C	1.413102	0.105853	0.073834
C67	C	0.652530	-0.555700	-0.587437
C68	C	0.985863	-0.222367	-0.254104
C69	C	1.319196	0.110967	0.079229
C70	C	0.659128	-0.446865	-0.472629
C71	C	0.992461	-0.113532	-0.139295
C72	C	1.325795	0.219802	0.194038
C73	C	0.753033	-0.451979	-0.478024
C74	C	1.086367	-0.118646	-0.144691
C75	C	1.419700	0.214688	0.188643
C76	C	0.796683	-0.508956	-0.538127
C77	C	1.130017	-0.175623	-0.204794
C78	C	1.463350	0.157710	0.128540
C79	C	0.890591	-0.514074	-0.543517
C80	C	1.223924	-0.180740	-0.210184
C81	C	1.557257	0.152593	0.123149
C82	C	0.897187	-0.405236	-0.428714
C83	C	1.230521	-0.071902	-0.095380
C84	C	1.563854	0.261431	0.237953
C85	C	0.803282	-0.400121	-0.423318
C86	C	1.136615	-0.066788	-0.089985
C87	C	1.469949	0.266545	0.243348
C88	C	1.274517	-1.107731	-0.508112
C89	C	1.607851	-0.774398	-0.174779
C90	C	1.941184	-0.441064	0.158554
C91	C	1.274472	-1.016419	-0.508086
C92	C	1.607806	-0.683086	-0.174753
C93	C	1.941139	-0.349752	0.158581
C94	C	1.274441	-0.943640	-0.508060
C95	C	1.607774	-0.610306	-0.174727
C96	C	1.941108	-0.276973	0.158606
C97	C	1.274397	-0.852322	-0.508035
C98	C	1.607731	-0.518988	-0.174702
C99	C	1.941064	-0.185655	0.158631
C100	C	1.508931	-0.493262	-0.521569
C101	C	1.842265	-0.159928	-0.188236
C102	C	2.175598	0.173405	0.145098
C103	C	1.608873	-0.498728	-0.527336
C104	C	1.942206	-0.165395	-0.194003
C105	C	2.275539	0.167939	0.139330
C106	C	1.260918	-0.491767	-0.742560
C107	C	1.594252	-0.158434	-0.409227
C108	C	1.927585	0.174899	-0.075893
C109	C	1.255172	-0.496597	-0.842501
C110	C	1.588505	-0.163263	-0.509167
C111	C	1.921838	0.170070	-0.175834
C112	C	1.274511	-0.270134	-0.508099
C113	C	1.607844	0.063200	-0.174766
C114	C	1.941177	0.396533	0.158567
C115	C	1.274556	-0.180516	-0.508127
C116	C	1.607889	0.152817	-0.174793
C117	C	1.941223	0.486150	0.158540
C118	C	1.359429	-0.408817	-1.036969
C119	C	1.692763	-0.075484	-0.703635
C120	C	2.026096	0.257849	-0.370302
C121	C	1.354033	-0.413353	-1.130872
C122	C	1.687366	-0.080019	-0.797538
C123	C	2.020699	0.253314	-0.464205
C124	C	1.238977	-0.510198	-1.124211
C125	C	1.572311	-0.176864	-0.790878
C126	C	1.905644	0.156469	-0.457545
C127	C	1.244374	-0.505662	-1.030308
C128	C	1.577708	-0.172329	-0.696975
C129	C	1.911041	0.161004	-0.363642
C130	C	1.304603	-0.454971	-0.986690
C131	C	1.637936	-0.121638	-0.653357
C132	C	1.971270	0.211695	-0.320024
C133	C	1.310004	-0.450441	-0.892786
C134	C	1.643337	-0.117108	-0.559452
C135	C	1.976671	0.216226	-0.226119
C136	C	1.194945	-0.547281	-0.886127
C137	C	1.528278	-0.213948	-0.552794
C138	C	1.861611	0.119385	-0.219460
C139	C	1.189548	-0.551817	-0.980030
C140	C	1.522881	-0.218483	-0.646697
C141	C	1.856215	0.114850	-0.313363
C142	C	1.287889	-0.469089	-0.274426
C143	C	1.621222	-0.135756	0.058907
C144	C	1.954555	0.197578	0.392240
C145	C	1.293810	-0.464042	-0.174497
C146	C	1.627143	-0.130709	0.158837
C147	C	1.960476	0.202625	0.492170
H148	H	0.926129	-0.560469	-0.592455
H149	H	1.259463	-0.227135	-0.259122
H150	H	1.592796	0.106198	0.074212
C151	C	0.755266	-0.337451	-0.357209
C152	C	1.088599	-0.004117	-0.023876
C153	C	1.421933	0.329216	0.309458
H154	H	0.798644	-0.307296	-0.325405
H155	H	1.131977	0.026038	0.007929
H156	H	1.465311	0.359371	0.341262
H157	H	0.720869	-0.364349	-0.315869
H158	H	1.054202	-0.031016	0.017464
H159	H	1.387536	0.302318	0.350797
H160	H	0.716673	-0.302031	-0.389575
H161	H	1.050006	0.031302	-0.056241
H162	H	1.383339	0.364635	0.277092
C163	C	1.425680	-0.353068	-0.988982
C164	C	1.759014	-0.019735	-0.655649
C165	C	2.092347	0.313599	-0.322315
H166	H	1.421046	-0.356982	-0.925856
H167	H	1.754380	-0.023649	-0.592523
H168	H	2.087713	0.309684	-0.259189
H169	H	1.411670	-0.298918	-1.003625
H170	H	1.745003	0.034416	-0.670292
H171	H	2.078336	0.367749	-0.336958
H172	H	1.485206	-0.368924	-1.007853
H173	H	1.818540	-0.035591	-0.674519
H174	H	2.151873	0.297743	-0.341186
H175	H	1.359047	-0.409167	-0.857274
H176	H	1.692380	-0.075834	-0.523940
H177	H	2.025713	0.257500	-0.190607
H178	H	1.140510	-0.593086	-1.015557
H179	H	1.473843	-0.259753	-0.682223
H180	H	1.807176	0.073581	-0.348890
C181	C	1.134624	-0.598048	-0.830823
C182	C	1.467957	-0.264714	-0.497489
C183	C	1.801291	0.068619	-0.164156
H184	H	1.097986	-0.628887	-0.870252
H185	H	1.431319	-0.295554	-0.536919
H186	H	1.764653	0.037779	-0.203586
H187	H	1.097569	-0.563293	-0.791939
H188	H	1.430902	-0.229959	-0.458606
H189	H	1.764235	0.103374	-0.125273
H190	H	1.171111	-0.633295	-0.796167
H191	H	1.504444	-0.299961	-0.462834
H192	H	1.837777	0.033372	-0.129500
C193	C	0.794453	-0.623487	-0.658938
C194	C	1.127786	-0.290153	-0.325605
C195	C	1.461120	0.043180	0.007729
H196	H	0.751076	-0.653638	-0.690749
H197	H	1.084410	-0.320305	-0.357415
H198	H	1.417743	0.013028	-0.024082
H199	H	0.833052	-0.658898	-0.626576
H200	H	1.166385	-0.325564	-0.293243
H201	H	1.499719	0.007769	0.040090
H202	H	0.828844	-0.596584	-0.700286
H203	H	1.162177	-0.263250	-0.366952
H204	H	1.495511	0.070083	-0.033619
H205	H	0.611620	-0.597926	-0.631986
H206	H	0.944954	-0.264593	-0.298653
H207	H	1.278287	0.068740	0.034681
H208	H	1.189942	-0.551467	-1.159741
H209	H	1.523275	-0.218134	-0.826408
H210	H	1.856608	0.115199	-0.493075
C211	C	0.611103	-0.384205	-0.406514
C212	C	0.944436	-0.050872	-0.073180
C213	C	1.277769	0.282461	0.260153
H214	H	0.547980	-0.388594	-0.411133
H215	H	0.881314	-0.055261	-0.077799
H216	H	1.214647	0.278072	0.255534
H217	H	0.625742	-0.331523	-0.420648
H218	H	0.959075	0.001810	-0.087315
H219	H	1.292408	0.335144	0.246019
H220	H	0.629949	-0.393857	-0.346960
H221	H	0.963283	-0.060523	-0.013626
H222	H	1.296616	0.272810	0.319707
H223	H	0.938110	-0.363011	-0.384166
H224	H	1.271443	-0.029677	-0.050833
H225	H	1.604777	0.303656	0.282500
H226	H	1.398676	-0.375767	-1.171805
H227	H	1.732009	-0.042433	-0.838472
H228	H	2.065342	0.290900	-0.505138
