data_functionalizedCrystal
_audit_creation_method	'MofGen! by Chris Wilmer'
_symmetry_space_group_name_H-M	'P1'
_symmetry_Int_Tables_number	1
_symmetry_cell_setting	triclinic
loop_
_symmetry_equiv_pos_as_xyz
  x,y,z
_cell_length_a	10.540539
_cell_length_b	10.540514
_cell_length_c	9.616153
_cell_angle_alpha	90.007401
_cell_angle_beta	89.999906
_cell_angle_gamma	95.479674
loop_
_atom_site_label
_atom_site_type_symbol
_atom_site_fract_x
_atom_site_fract_y
_atom_site_fract_z
O1	O	0.178743	-1.685911	-0.115656
O2	O	0.195632	-1.316494	-0.115654
O3	O	0.002480	-1.509630	-0.115653
O4	O	0.371895	-1.492774	-0.115657
O5	O	0.002484	-1.509604	0.115638
O6	O	0.195636	-1.316467	0.115637
O7	O	0.178747	-1.685884	0.115635
Zn8	Zn	0.187192	-1.501171	0.152359
Zn9	Zn	0.187187	-1.501206	-0.152378
O10	O	0.371899	-1.492748	0.115635
C11	C	-0.044821	-1.508353	-0.000010
C12	C	-0.185769	-1.504571	-0.000018
C13	C	0.194374	-1.269177	-0.000008
C14	C	0.190605	-1.128227	-0.000008
C15	C	0.180004	-1.733201	-0.000013
C16	C	0.183774	-1.874151	-0.000023
C17	C	-0.369182	-1.359652	-0.000536
C18	C	-0.222564	-1.363486	-0.000016
C19	C	-0.247430	-1.572452	0.132061
C20	C	-0.393974	-1.567637	0.132172
C21	C	-0.394497	-1.570537	-0.130850
C22	C	-0.247515	-1.571836	-0.132596
C23	C	0.419199	-1.494025	-0.000012
C24	C	0.560147	-1.497807	-0.000013
C25	C	0.328745	-1.057522	-0.000012
C26	C	0.324871	-0.910908	-0.000544
C27	C	0.115476	-0.935905	-0.131837
C28	C	0.120329	-1.082444	-0.131941
C29	C	0.118290	-1.082816	0.131090
C30	C	0.116957	-0.935837	0.132816
N31	N	0.187195	-1.501157	0.360333
N32	N	0.187174	-1.501231	-0.360352
C33	C	0.290172	-1.397526	0.580703
C34	C	0.290557	-1.397754	0.419535
C35	C	0.217316	-1.633882	0.418782
C36	C	0.218045	-1.633317	0.580000
C37	C	0.053759	-1.473384	0.580246
C38	C	0.054624	-1.470338	0.419019
H39	H	-0.179958	-1.310072	-0.094695
C40	C	-0.049809	-1.575526	0.631750
N41	N	-0.127808	-1.652462	0.670551
C42	C	-0.166140	-1.290796	0.128110
N43	N	-0.123642	-1.236044	0.224621
C44	C	0.120671	-1.740811	0.632676
N45	N	0.047345	-1.821788	0.672345
C46	C	-0.409941	-1.284665	0.126733
N47	N	-0.440631	-1.228194	0.222605
H48	H	0.388594	-1.415193	0.621200
H49	H	0.389540	-1.415653	0.380955
C50	C	-0.024525	-0.905754	-0.137964
N51	N	-0.129974	-0.883040	-0.142578
C52	C	-0.432063	-1.499818	0.265546
N53	N	-0.460745	-1.448731	0.366003
H54	H	0.170209	-1.110680	-0.230851
C55	C	0.266098	-1.264519	0.366150
N56	N	0.247683	-1.164158	0.325947
H57	H	-0.223303	-1.674699	-0.140572
C58	C	-0.016754	-1.147302	-0.139547
N59	N	-0.120003	-1.196147	-0.145289
C60	C	0.023781	-1.338426	0.367424
N61	N	0.000554	-1.239068	0.328555
C62	C	0.178708	-0.878354	-0.264870
N63	N	0.226323	-0.834986	-0.365068
H64	H	-0.225085	-1.676060	0.136971
H65	H	-0.397779	-1.303931	-0.095252
C66	C	-0.458793	-1.704709	0.140288
N67	N	-0.507609	-1.807950	0.146410
C68	C	-0.189883	-1.508714	0.264848
N69	N	-0.146542	-1.460697	0.364860
C70	C	-0.192241	-1.504802	-0.264601
N71	N	-0.150611	-1.454299	-0.364024
C72	C	-0.437114	-1.508860	-0.266091
N73	N	-0.469210	-1.462391	-0.367948
H74	H	0.313552	-1.658779	0.378390
C75	C	-0.458317	-1.708202	-0.132057
N76	N	-0.506394	-1.811887	-0.132957
H77	H	0.164275	-1.114299	0.231032
H78	H	0.378589	-0.868234	0.093924
H79	H	0.144346	-1.712937	0.380430
C80	C	0.404456	-1.096056	0.127673
N81	N	0.461481	-1.125087	0.223851
H82	H	0.166869	-0.894831	0.230333
C83	C	0.403341	-1.098364	-0.127529
N84	N	0.459523	-1.129128	-0.223578
C85	C	0.015052	-1.345369	0.635230
N86	N	-0.014087	-1.248941	0.676643
H87	H	0.378357	-0.869188	-0.095591
H88	H	0.014111	-0.911652	0.141168
H89	H	-0.025703	-1.540865	0.378725
H90	H	0.016397	-1.130072	0.132363
H91	H	0.272328	-1.298600	0.619515
C92	C	0.349549	-1.666194	0.630781
N93	N	0.448605	-1.690948	0.669023
