data_functionalizedCrystal
_audit_creation_method	'MofGen! by Chris Wilmer'
_symmetry_space_group_name_H-M	'P1'
_symmetry_Int_Tables_number	1
_symmetry_cell_setting	triclinic
loop_
_symmetry_equiv_pos_as_xyz
  x,y,z
_cell_length_a	17.077404
_cell_length_b	17.640280
_cell_length_c	17.077396
_cell_angle_alpha	101.225604
_cell_angle_beta	90.018362
_cell_angle_gamma	78.798554
loop_
_atom_site_label
_atom_site_type_symbol
_atom_site_fract_x
_atom_site_fract_y
_atom_site_fract_z
Zn1	Zn	1.263298	-0.314709	0.380710
Zn2	Zn	1.289768	-0.446890	0.222937
Zn3	Zn	1.132035	-0.314731	0.249456
Zn4	Zn	1.158551	-0.446838	0.354174
O5	O	1.210913	-0.380792	0.301819
O6	O	1.376659	-0.332255	0.359788
O7	O	1.268825	-0.429390	0.116602
O8	O	1.127272	-0.204123	0.289070
O9	O	1.396106	-0.429368	0.243874
O10	O	1.223711	-0.204106	0.385502
O11	O	1.152939	-0.332294	0.136085
O12	O	1.025703	-0.332243	0.263340
O13	O	1.172465	-0.429280	0.467547
O14	O	1.045184	-0.429302	0.340276
O15	O	1.249422	-0.332205	0.487043
O16	O	1.294537	-0.557489	0.218143
O17	O	1.198132	-0.557450	0.314562
C18	C	1.006961	-0.380770	0.301806
C19	C	0.919713	-0.380779	0.301815
C20	C	0.868615	-0.330302	0.362231
C21	C	0.786636	-0.330307	0.362233
C22	C	0.755756	-0.380794	0.301823
C23	C	0.806860	-0.431273	0.241402
C24	C	0.888837	-0.431263	0.241397
C25	C	0.635994	-0.431291	0.241418
C26	C	0.554011	-0.431302	0.241423
C27	C	0.533792	-0.330335	0.362254
C28	C	0.615769	-0.330325	0.362249
C29	C	0.666868	-0.380806	0.301828
C30	C	1.252105	-0.586148	0.260612
C31	C	1.269800	-0.674001	0.243010
C32	C	1.076815	-0.962973	0.435827
C33	C	1.093443	-1.045524	0.419262
C34	C	1.193892	-1.045498	0.318963
C35	C	1.177275	-0.962946	0.335522
C36	C	1.118735	-0.921690	0.393955
C37	C	1.219195	-0.921663	0.293649
C38	C	1.202577	-0.839118	0.310205
C39	C	1.144038	-0.797856	0.368633
C40	C	1.102116	-0.839145	0.410510
C41	C	1.277731	-0.962920	0.235213
C42	C	1.319651	-0.921637	0.193340
C43	C	1.303037	-0.839091	0.209899
C44	C	1.244498	-0.797829	0.268327
C45	C	1.344958	-0.797802	0.168022
C46	C	1.328339	-0.715257	0.184578
C47	C	1.227879	-0.715284	0.284883
C48	C	1.415662	-0.380815	0.301833
C49	C	1.502914	-0.380825	0.301839
C50	C	1.210949	-0.380734	0.506575
C51	C	1.210964	-0.380709	0.593830
C52	C	1.169581	-0.174634	0.343204
C53	C	1.151968	-0.086782	0.360840
C54	C	1.210911	-0.380793	0.097871
C55	C	1.211003	-0.380595	0.010662
C56	C	1.251037	-0.330158	0.644974
C57	C	1.251041	-0.330132	0.726960
C58	C	1.210977	-0.380661	0.757799
C59	C	1.170899	-0.431214	0.706649
C60	C	1.170890	-0.431236	0.624666
C61	C	1.170921	-0.431167	0.877529
C62	C	1.170930	-0.431146	0.959518
C63	C	1.251071	-0.330063	0.979823
C64	C	1.251063	-0.330084	0.897839
C65	C	1.210986	-0.380639	0.846695
H66	H	0.640909	-0.289219	0.411444
H67	H	1.138249	-0.472392	0.583026
H68	H	1.241552	-1.079100	0.271385
H69	H	0.677596	-0.472395	0.192215
C70	C	0.673117	-0.224014	0.394659
C71	C	0.730467	-0.274827	0.428646
H72	H	0.638444	-0.189760	0.435663
H73	H	0.643000	-0.254081	0.358686
H74	H	0.699015	-0.193731	0.366588
H75	H	0.704569	-0.305114	0.456712
H76	H	0.760588	-0.244757	0.464633
C77	C	1.389717	-1.048162	0.123408
C78	C	1.383987	-0.966991	0.129103
H79	H	1.429437	-1.076158	0.083750
H80	H	1.339715	-1.061722	0.109157
H81	H	1.403899	-1.061655	0.173453
H82	H	1.369799	-0.953496	0.079060
H83	H	1.434000	-0.953425	0.143350
C84	C	1.101152	-1.138316	0.506230
C85	C	1.047363	-1.090908	0.465293
H86	H	1.072703	-1.166338	0.534640
H87	H	1.128833	-1.106075	0.542755
H88	H	1.138391	-1.174697	0.469054
H89	H	1.010128	-1.054524	0.502469
H90	H	1.019668	-1.123153	0.428764
C91	C	0.481725	-0.196543	0.427569
C92	C	0.477627	-0.274842	0.428669
H93	H	0.447052	-0.162290	0.468574
H94	H	0.465932	-0.184912	0.377189
H95	H	0.534970	-0.189324	0.436214
H96	H	0.424383	-0.282062	0.420019
H97	H	0.493416	-0.286477	0.479061
C98	C	0.840386	-0.230500	0.481664
C99	C	0.902553	-0.274805	0.428638
H100	H	0.861338	-0.196234	0.522658
H101	H	0.815346	-0.264979	0.504716
H102	H	0.802321	-0.200228	0.453580
H103	H	0.940616	-0.305082	0.456721
H104	H	0.927607	-0.240322	0.405584
C105	C	0.582225	-0.531094	0.121978
C106	C	0.520066	-0.486794	0.175017
H107	H	0.561266	-0.565348	0.080980
H108	H	0.620291	-0.561369	0.150045
H109	H	0.607264	-0.496604	0.098927
H110	H	0.495030	-0.521283	0.198072
H111	H	0.481986	-0.456515	0.146945
H112	H	1.392615	-0.831405	0.120441
C113	C	1.100277	-0.679657	0.317651
C114	C	1.125769	-0.707120	0.386834
H115	H	1.089003	-0.623641	0.328889
H116	H	1.053402	-0.698372	0.300285
H117	H	1.141145	-0.698322	0.276865
H118	H	1.084898	-0.688459	0.427619
H119	H	1.172649	-0.688397	0.404211
C120	C	1.159502	-0.564967	0.957902
C121	C	1.126884	-0.486679	0.993426
H122	H	1.132304	-0.599247	0.978835
H123	H	1.214558	-0.576538	0.969022
H124	H	1.153750	-0.572210	0.901758
H125	H	1.132641	-0.479434	1.049570
H126	H	1.071814	-0.475103	0.982312
H127	H	1.283675	-0.288970	0.768598
C128	C	0.736007	-0.537591	0.208998
C129	C	0.772920	-0.486771	0.174997
H130	H	0.715061	-0.571857	0.168001
H131	H	0.693845	-0.507530	0.244973
H132	H	0.774088	-0.567860	0.237070
H133	H	0.734838	-0.456497	0.146931
H134	H	0.815088	-0.516836	0.139009
C135	C	0.900596	-0.531075	0.121969
C136	C	0.945008	-0.486755	0.174990
H137	H	0.935275	-0.565335	0.080974
H138	H	0.861693	-0.496604	0.098919
H139	H	0.874710	-0.561353	0.150057
H140	H	0.970889	-0.456472	0.146903
H141	H	0.983926	-0.521229	0.198042
H142	H	1.138271	-0.472321	0.835891
H143	H	1.180216	-0.681692	0.332470
C144	C	1.004496	-0.847453	0.508019
C145	C	1.037779	-0.793788	0.474752
H146	H	0.964778	-0.819450	0.547676
H147	H	1.045156	-0.879611	0.531618
H148	H	0.980969	-0.879685	0.467325
H149	H	1.061311	-0.761560	0.515445
H150	H	0.997111	-0.761617	0.451153
H151	H	1.283692	-0.288943	0.872732
H152	H	1.138274	-0.472353	0.731766
C153	C	1.286647	-0.285117	1.114515
C154	C	1.295109	-0.274478	1.036041
H155	H	1.313828	-0.250797	1.149223
H156	H	1.308789	-0.338211	1.117296
H157	H	1.231581	-0.273544	1.130250
H158	H	1.350174	-0.286056	1.020304
H159	H	1.272969	-0.221371	1.033257
C160	C	1.330245	-0.230233	0.673289
C161	C	1.295076	-0.274612	0.611080
H162	H	1.357427	-0.195936	0.652365
H163	H	1.367179	-0.264664	0.698353
H164	H	1.289976	-0.199991	0.711332
H165	H	1.335345	-0.304858	0.573040
H166	H	1.258138	-0.240176	0.586003
C167	C	1.321515	-1.081113	0.286198
C168	C	1.296010	-1.053656	0.217015
H169	H	1.332807	-1.137129	0.274961
H170	H	1.280655	-1.062458	0.326982
H171	H	1.368391	-1.062382	0.303562
H172	H	1.249131	-1.072382	0.199655
H173	H	1.336874	-1.072319	0.176218
H174	H	1.029151	-0.929381	0.483415
H175	H	1.362475	-0.681643	0.150479
