data_functionalizedCrystal
_audit_creation_method	'MofGen! by Chris Wilmer'
_symmetry_space_group_name_H-M	'P1'
_symmetry_Int_Tables_number	1
_symmetry_cell_setting	triclinic
loop_
_symmetry_equiv_pos_as_xyz
  x,y,z
_cell_length_a	29.839131
_cell_length_b	29.839134
_cell_length_c	29.839125
_cell_angle_alpha	89.978020
_cell_angle_beta	90.017709
_cell_angle_gamma	89.963719
loop_
_atom_site_label
_atom_site_type_symbol
_atom_site_fract_x
_atom_site_fract_y
_atom_site_fract_z
Zn1	Zn	-0.178978	-0.686720	0.254125
Zn2	Zn	0.321022	-0.186720	0.754125
Zn3	Zn	-0.254090	-0.686652	0.178995
Zn4	Zn	0.245910	-0.186652	0.678995
Zn5	Zn	-0.178968	-0.611602	0.178995
Zn6	Zn	0.321032	-0.111602	0.678995
Zn7	Zn	-0.254075	-0.611550	0.254083
Zn8	Zn	0.245925	-0.111550	0.754083
O9	O	-0.216528	-0.649131	0.216549
O10	O	0.283472	-0.149131	0.716549
O11	O	-0.188952	-0.749578	0.244176
O12	O	0.311048	-0.249578	0.744176
O13	O	-0.244127	-0.676690	0.116128
O14	O	0.255873	-0.176690	0.616128
O15	O	-0.116102	-0.621617	0.188978
O16	O	0.383898	-0.121617	0.688978
O17	O	-0.244137	-0.749528	0.188979
O18	O	0.255863	-0.249528	0.688979
O19	O	-0.116109	-0.676805	0.244176
O20	O	0.383891	-0.176805	0.744176
O21	O	-0.188935	-0.621551	0.116127
O22	O	0.311065	-0.121551	0.616127
O23	O	-0.188921	-0.548728	0.188938
O24	O	0.311079	-0.048728	0.688938
O25	O	-0.244111	-0.621528	0.316956
O26	O	0.255889	-0.121528	0.816956
O27	O	-0.244101	-0.548690	0.244105
O28	O	0.255899	-0.048690	0.744105
O29	O	-0.188937	-0.676755	0.316987
O30	O	0.311063	-0.176755	0.816987
O31	O	-0.316955	-0.676639	0.188938
O32	O	0.183045	-0.176639	0.688938
O33	O	-0.316944	-0.621462	0.244105
O34	O	0.183056	-0.121462	0.744105
C35	C	-0.216509	-0.532408	0.216517
C36	C	0.283491	-0.032408	0.716517
C37	C	-0.216511	-0.482474	0.216514
C38	C	0.283489	0.017526	0.716514
C39	C	-0.333250	-0.649050	0.216527
C40	C	0.166750	-0.149050	0.716527
C41	C	-0.383185	-0.649056	0.216533
C42	C	0.116815	-0.149056	0.716533
C43	C	-0.216524	-0.649143	0.333728
C44	C	0.283476	-0.149143	0.833728
C45	C	-0.216522	-0.649148	0.383662
C46	C	0.283478	-0.149148	0.883662
C47	C	-0.692821	-0.677914	0.187866
C48	C	-0.192821	-0.177914	0.687866
C49	C	-0.880494	-0.677969	0.187883
C50	C	-0.380494	-0.177969	0.687883
O51	O	-0.904753	-0.702441	0.163493
O52	O	-0.404753	-0.202441	0.663493
N53	N	-0.903970	-0.649224	0.216583
N54	N	-0.403970	-0.149224	0.716583
C55	C	-0.880524	-0.620465	0.245283
C56	C	-0.380524	-0.120465	0.745283
O57	O	-0.904798	-0.596020	0.269698
O58	O	-0.404798	-0.096020	0.769698
C59	C	-0.692852	-0.620412	0.245268
C60	C	-0.192852	-0.120412	0.745268
C61	C	-0.669379	-0.649156	0.216563
C62	C	-0.169379	-0.149156	0.716563
C63	C	-0.669348	-0.706656	0.159164
C64	C	-0.169348	-0.206656	0.659164
C65	C	-0.622433	-0.706640	0.159158
C66	C	-0.122433	-0.206640	0.659158
C67	C	-0.598990	-0.677882	0.187854
C68	C	-0.098990	-0.177882	0.687854
C69	C	-0.622463	-0.649140	0.216557
C70	C	-0.122463	-0.149140	0.716557
C71	C	-0.669407	-0.591656	0.273969
C72	C	-0.169407	-0.091656	0.773969
C73	C	-0.622486	-0.591646	0.273964
C74	C	-0.122486	-0.091646	0.773964
C75	C	-0.599013	-0.620390	0.245259
C76	C	-0.099013	-0.120390	0.745259
C77	C	-0.552106	-0.620367	0.245248
C78	C	-0.052106	-0.120367	0.745248
N79	N	-0.528630	-0.649112	0.216548
N80	N	-0.028630	-0.149112	0.716548
C81	C	-0.552072	-0.677869	0.187851
C82	C	-0.052072	-0.177869	0.687851
C83	C	-0.979055	-0.620494	0.245289
C84	C	-0.479055	-0.120494	0.745289
C85	C	-1.025973	-0.620507	0.245292
C86	C	-0.525973	-0.120507	0.745292
C87	C	-1.025939	-0.678012	0.187893
C88	C	-0.525939	-0.178012	0.687893
C89	C	-0.979021	-0.677996	0.187887
C90	C	-0.479021	-0.177996	0.687887
C91	C	-0.955579	-0.649239	0.216589
C92	C	-0.455579	-0.149239	0.716589
C93	C	-0.453547	-0.677834	0.187841
C94	C	0.046453	-0.177834	0.687841
C95	C	-0.406627	-0.677814	0.187836
C96	C	0.093373	-0.177814	0.687836
C97	C	-0.406664	-0.620311	0.245237
C98	C	0.093336	-0.120311	0.745237
C99	C	-0.453580	-0.620329	0.245240
C100	C	0.046420	-0.120329	0.745240
C101	C	-0.477020	-0.649094	0.216540
C102	C	0.022980	-0.149094	0.716540
O103	O	-0.527818	-0.595912	0.269629
O104	O	-0.027818	-0.095912	0.769629
O105	O	-0.527791	-0.702318	0.163447
O106	O	-0.027791	-0.202318	0.663447
C107	C	-0.739737	-0.677930	0.187872
C108	C	-0.239737	-0.177930	0.687872
C109	C	-0.763210	-0.649188	0.216574
C110	C	-0.263210	-0.149188	0.716574
C111	C	-0.739767	-0.620430	0.245271
C112	C	-0.239767	-0.120430	0.745271
C113	C	-0.810128	-0.649200	0.216578
C114	C	-0.310128	-0.149200	0.716578
C115	C	-0.833570	-0.677958	0.187881
C116	C	-0.333570	-0.177958	0.687881
C117	C	-0.810094	-0.706703	0.159181
C118	C	-0.310094	-0.206703	0.659181
C119	C	-0.763179	-0.706687	0.159175
C120	C	-0.263179	-0.206687	0.659175
C121	C	-0.763243	-0.591685	0.273971
C122	C	-0.263243	-0.091685	0.773971
C123	C	-0.810158	-0.591703	0.273974
C124	C	-0.310158	-0.091703	0.773974
C125	C	-0.833601	-0.620461	0.245277
C126	C	-0.333601	-0.120461	0.745277
C127	C	-0.099349	-0.649225	0.216582
C128	C	0.400651	-0.149225	0.716582
C129	C	-0.049415	-0.649265	0.216595
C130	C	0.450585	-0.149265	0.716595
C131	C	-0.216547	-0.766309	0.216582
C132	C	0.283453	-0.266309	0.716582
C133	C	-0.216555	-0.816244	0.216596
C134	C	0.283445	-0.316244	0.716596
C135	C	-0.245303	-0.172820	0.245240
C136	C	0.254697	0.327180	0.745240
C137	C	-0.245315	0.014853	0.245260
C138	C	0.254685	0.514853	0.745260
O139	O	-0.269774	0.039127	0.269665
O140	O	0.230226	0.539127	0.769665
N141	N	-0.216544	0.038311	0.216583
N142	N	0.283456	0.538311	0.716583
C143	C	-0.187766	0.014848	0.187902
C144	C	0.312234	0.514848	0.687902
O145	O	-0.163291	0.039107	0.163514
O146	O	0.336709	0.539107	0.663514
C147	C	-0.187751	-0.172824	0.187884
C148	C	0.312249	0.327176	0.687884
C149	C	-0.216527	-0.196280	0.216560
C150	C	0.283473	0.303720	0.716560
C151	C	-0.274076	-0.196276	0.273913
C152	C	0.225924	0.303724	0.773913
C153	C	-0.274075	-0.243191	0.273906
C154	C	0.225925	0.256809	0.773906
C155	C	-0.245299	-0.266651	0.245226
C156	C	0.254701	0.233349	0.745226
C157	C	-0.216526	-0.243195	0.216553
C158	C	0.283474	0.256805	0.716553
C159	C	-0.158971	-0.196286	0.159205
C160	C	0.341029	0.303714	0.659205
C161	C	-0.158969	-0.243207	0.159204
C162	C	0.341031	0.256793	0.659204
C163	C	-0.187745	-0.266663	0.187880
C164	C	0.312255	0.233337	0.687880
C165	C	-0.187749	-0.313570	0.187865
C166	C	0.312251	0.186430	0.687865
N167	N	-0.216520	-0.337029	0.216542
N168	N	0.283480	0.162971	0.716542
C169	C	-0.245295	-0.313569	0.245222
C170	C	0.254705	0.186431	0.745222
C171	C	-0.187776	0.113379	0.187912
C172	C	0.312224	0.613379	0.687912
C173	C	-0.187780	0.160297	0.187916
C174	C	0.312220	0.660297	0.687916
C175	C	-0.245329	0.160298	0.245275
C176	C	0.254671	0.660298	0.745275
C177	C	-0.245327	0.113380	0.245269
C178	C	0.254673	0.613380	0.745269
C179	C	-0.216547	0.089921	0.216589
C180	C	0.283453	0.589921	0.716589
C181	C	-0.245290	-0.412095	0.245205
C182	C	0.254710	0.087905	0.745205
C183	C	-0.245287	-0.459014	0.245194
C184	C	0.254713	0.040986	0.745194
C185	C	-0.187736	-0.459012	0.187837
C186	C	0.312264	0.040988	0.687837
C187	C	-0.187740	-0.412096	0.187846
C188	C	0.312260	0.087904	0.687846
C189	C	-0.216519	-0.388639	0.216534
C190	C	0.283481	0.111361	0.716534
O191	O	-0.163299	-0.337873	0.163477
O192	O	0.336701	0.162127	0.663477
O193	O	-0.269759	-0.337836	0.269613
O194	O	0.230241	0.162164	0.769613
C195	C	-0.245304	-0.125905	0.245247
C196	C	0.254696	0.374095	0.745247
C197	C	-0.216531	-0.102449	0.216574
C198	C	0.283469	0.397551	0.716574
C199	C	-0.187755	-0.125909	0.187893
C200	C	0.312245	0.374091	0.687893
C201	C	-0.216535	-0.055531	0.216577
C202	C	0.283465	0.444469	0.716577
C203	C	-0.245310	-0.032071	0.245258
C204	C	0.254690	0.467929	0.745258
C205	C	-0.274082	-0.055529	0.273934
C206	C	0.225918	0.444471	0.773934
C207	C	-0.274080	-0.102445	0.273927
C208	C	0.225920	0.397555	0.773927
C209	C	-0.158984	-0.102451	0.159217
C210	C	0.341016	0.397549	0.659217
C211	C	-0.158989	-0.055535	0.159226
C212	C	0.341011	0.444465	0.659226
C213	C	-0.187764	-0.032075	0.187906
C214	C	0.312236	0.467925	0.687906
C215	C	-0.216499	-0.649145	0.099827
C216	C	0.283501	-0.149145	0.599827
C217	C	-0.216374	-0.649227	0.049893
C218	C	0.283626	-0.149227	0.549893
C219	C	-0.187718	-0.677935	0.693325
C220	C	0.312282	-0.177935	1.193325
C221	C	-0.187680	-0.677957	0.880998
C222	C	0.312320	-0.177957	1.380998
O223	O	-0.163232	-0.702399	0.905279
O224	O	0.336768	-0.202399	1.405279
N225	N	-0.216402	-0.649208	0.904448
N226	N	0.283598	-0.149208	1.404448
C227	C	-0.245133	-0.620449	0.880976
C228	C	0.254867	-0.120449	1.380976
O229	O	-0.269559	-0.595993	0.905228
O230	O	0.230441	-0.095993	1.405228
C231	C	-0.245169	-0.620424	0.693304
C232	C	0.254831	-0.120424	1.193304
C233	C	-0.216448	-0.649179	0.669857
C234	C	0.283552	-0.149179	1.169857
C235	C	-0.158999	-0.706687	0.669877
C236	C	0.341001	-0.206687	1.169877
C237	C	-0.159011	-0.706683	0.622962
C238	C	0.340989	-0.206683	1.122962
C239	C	-0.187741	-0.677927	0.599494
C240	C	0.312259	-0.177927	1.099494
C241	C	-0.216460	-0.649175	0.622941
C242	C	0.283540	-0.149175	1.122941
C243	C	-0.273898	-0.591663	0.669833
C244	C	0.226102	-0.091663	1.169833
C245	C	-0.273903	-0.591659	0.622912
C246	C	0.226097	-0.091659	1.122912
C247	C	-0.245183	-0.620414	0.599465
C248	C	0.254817	-0.120414	1.099465
C249	C	-0.245202	-0.620415	0.552558
C250	C	0.254798	-0.120415	1.052558
N251	N	-0.216480	-0.649164	0.529108
N252	N	0.283520	-0.149164	1.029108
C253	C	-0.187749	-0.677920	0.552576
C254	C	0.312251	-0.177920	1.052576
C255	C	-0.245113	-0.620464	0.979507
C256	C	0.254887	-0.120464	1.479507
C257	C	-0.245105	-0.620471	1.026425
C258	C	0.254895	-0.120471	1.526425
C259	C	-0.187650	-0.677979	1.026443
C260	C	0.312350	-0.177979	1.526443
C261	C	-0.187661	-0.677974	0.979524
C262	C	0.312339	-0.177974	1.479524
C263	C	-0.216391	-0.649214	0.956057
C264	C	0.283609	-0.149214	1.456057
C265	C	-0.187776	-0.677910	0.454050
C266	C	0.312224	-0.177910	0.954050
C267	C	-0.187792	-0.677904	0.407130
C268	C	0.312208	-0.177904	0.907130
C269	C	-0.245244	-0.620395	0.407116
C270	C	0.254756	-0.120395	0.907116
C271	C	-0.245230	-0.620401	0.454032
C272	C	0.254770	-0.120401	0.954032
C273	C	-0.216493	-0.649161	0.477497
C274	C	0.283507	-0.149161	0.977497
O275	O	-0.269633	-0.595982	0.528248
O276	O	0.230367	-0.095982	1.028248
O277	O	-0.163320	-0.702366	0.528316
O278	O	0.336680	-0.202366	1.028316
C279	C	-0.187706	-0.677939	0.740240
C280	C	0.312294	-0.177939	1.240240
C281	C	-0.216425	-0.649187	0.763688
C282	C	0.283575	-0.149187	1.263688
C283	C	-0.245155	-0.620431	0.740219
C284	C	0.254845	-0.120431	1.240219
C285	C	-0.216417	-0.649194	0.810605
C286	C	0.283583	-0.149194	1.310605
C287	C	-0.187686	-0.677950	0.834074
C288	C	0.312314	-0.177950	1.334074
C289	C	-0.158964	-0.706699	0.810624
C290	C	0.341036	-0.206699	1.310624
C291	C	-0.158976	-0.706695	0.763708
C292	C	0.341024	-0.206695	1.263708
C293	C	-0.273877	-0.591682	0.763669
C294	C	0.226123	-0.091682	1.263669
C295	C	-0.273864	-0.591689	0.810585
C296	C	0.226136	-0.091689	1.310585
C297	C	-0.245133	-0.620445	0.834053
C298	C	0.254867	-0.120445	1.334053
H299	H	-0.387517	-0.701220	0.164459
H300	H	0.112483	-0.201220	0.664459
C301	C	-0.276832	-0.588787	0.479833
C302	C	0.223168	-0.088787	0.979833
C303	C	-0.327905	-0.592426	0.473382
C304	C	0.172095	-0.092426	0.973382
C305	C	-0.359507	-0.560813	0.499183
C306	C	0.140493	-0.060813	0.999183
C307	C	-0.340036	-0.525562	0.531436
C308	C	0.159964	-0.025562	1.031436
C309	C	-0.288960	-0.521922	0.537889
C310	C	0.211040	-0.021922	1.037889
C311	C	-0.257358	-0.553534	0.512087
C312	C	0.242642	-0.053534	1.012087
H313	H	-0.342321	-0.618522	0.449505
H314	H	0.157679	-0.118522	0.949505
H315	H	-0.397317	-0.563508	0.494406
H316	H	0.102683	-0.063508	0.994406
H317	H	-0.363430	-0.502161	0.550535
H318	H	0.136570	-0.002161	1.050535
H319	H	-0.274544	-0.495825	0.561765
H320	H	0.225456	0.004175	1.061765
H321	H	-0.219549	-0.550839	0.516865
H322	H	0.280451	-0.050839	1.016865
C323	C	-0.276721	-0.588824	0.953701
C324	C	0.223279	-0.088824	1.453701
C325	C	-0.273046	-0.537758	0.960152
C326	C	0.226954	-0.037758	1.460152
C327	C	-0.304656	-0.506118	0.934351
C328	C	0.195344	-0.006118	1.434351
C329	C	-0.339942	-0.525544	0.902099
C330	C	0.160058	-0.025544	1.402099
C331	C	-0.343619	-0.576613	0.895646
C332	C	0.156381	-0.076613	1.395646
C333	C	-0.312009	-0.608253	0.921447
C334	C	0.187991	-0.108253	1.421447
H335	H	-0.246923	-0.523375	0.984029
H336	H	0.253077	-0.023375	1.484029
H337	H	-0.301934	-0.468313	0.939128
H338	H	0.198066	0.031687	1.439128
H339	H	-0.363342	-0.502122	0.882999
H340	H	0.136658	-0.002122	1.382999
H341	H	-0.369742	-0.590996	0.871769
H342	H	0.130258	-0.090996	1.371769
H343	H	-0.314732	-0.646058	0.916670
H344	H	0.185268	-0.146058	1.416670
C345	C	-0.276948	-0.386296	0.276758
C346	C	0.223052	0.113704	0.776758
C347	C	-0.328013	-0.392721	0.272993
C348	C	0.171987	0.107279	0.772993
C349	C	-0.359673	-0.366922	0.304543
C350	C	0.140327	0.133078	0.804543
C351	C	-0.340269	-0.334698	0.339859
C352	C	0.159731	0.165302	0.839859
C353	C	-0.289202	-0.328272	0.343627
C354	C	0.210798	0.171728	0.843627
C355	C	-0.257541	-0.354071	0.312076
C356	C	0.242459	0.145929	0.812076
H357	H	-0.342379	-0.416576	0.246848
H358	H	0.157621	0.083424	0.746848
H359	H	-0.397476	-0.371679	0.301754
H360	H	0.102524	0.128321	0.801754
H361	H	-0.363706	-0.315601	0.363215
H362	H	0.136294	0.184399	0.863215
H363	H	-0.274836	-0.304417	0.369771
H364	H	0.225164	0.195583	0.869771
H365	H	-0.219738	-0.349313	0.314865
H366	H	0.280262	0.150687	0.814865
H367	H	-0.472626	-0.701258	0.164472
H368	H	0.027374	-0.201258	0.664472
C369	C	-0.835887	-0.738338	0.127615
C370	C	-0.335887	-0.238338	0.627615
C371	C	-0.829469	-0.734709	0.076537
C372	C	-0.329469	-0.234709	0.576537
C373	C	-0.855264	-0.766344	0.044975
C374	C	-0.355264	-0.266344	0.544975
C375	C	-0.887477	-0.801607	0.064491
C376	C	-0.387477	-0.301607	0.564491
C377	C	-0.893897	-0.805237	0.115571
C378	C	-0.393897	-0.305237	0.615571
C379	C	-0.868102	-0.773602	0.147133
C380	C	-0.368102	-0.273602	0.647133
H381	H	-0.805621	-0.708604	0.062088
H382	H	-0.305621	-0.208604	0.562088
H383	H	-0.850511	-0.763656	0.007162
H384	H	-0.350511	-0.263656	0.507162
H385	H	-0.906572	-0.825025	0.041127
H386	H	-0.406572	-0.325025	0.541127
H387	H	-0.917745	-0.831342	0.130020
H388	H	-0.417745	-0.331342	0.630020
H389	H	-0.872855	-0.776290	0.184946
H390	H	-0.372855	-0.276290	0.684946
C391	C	-0.305485	-0.560047	0.737863
C392	C	0.194515	-0.060047	1.237863
C393	C	-0.301810	-0.508980	0.744309
C394	C	0.198190	-0.008980	1.244309
C395	C	-0.333422	-0.477343	0.718507
C396	C	0.166578	0.022657	1.218507
C397	C	-0.368710	-0.496772	0.686259
C398	C	0.131290	0.003228	1.186259
C399	C	-0.372387	-0.547842	0.679810
C400	C	0.127613	-0.047842	1.179810
C401	C	-0.340774	-0.579479	0.705613
C402	C	0.159226	-0.079479	1.205613
H403	H	-0.275687	-0.494594	0.768183
H404	H	0.224313	0.005406	1.268183
H405	H	-0.330701	-0.439538	0.723281
H406	H	0.169299	0.060462	1.223281
H407	H	-0.392112	-0.473353	0.667158
H408	H	0.107888	0.026647	1.167158
H409	H	-0.398510	-0.562227	0.655937
H410	H	0.101490	-0.062227	1.155937
H411	H	-0.343496	-0.617284	0.700839
H412	H	0.156504	-0.117284	1.200839
H413	H	-0.135529	-0.262305	0.135852
H414	H	0.364471	0.237695	0.635852
C415	C	-0.276849	-0.588771	0.381291
C416	C	0.223151	-0.088771	0.881291
C417	C	-0.257382	-0.553518	0.349022
C418	C	0.242618	-0.053518	0.849022
C419	C	-0.288987	-0.521895	0.323194
C420	C	0.211013	-0.021895	0.823194
C421	C	-0.340058	-0.525524	0.329634
C422	C	0.159942	-0.025524	0.829634
C423	C	-0.359528	-0.560778	0.361904
C424	C	0.140472	-0.060778	0.861904
C425	C	-0.327923	-0.592402	0.387732
C426	C	0.172077	-0.092402	0.887732
H427	H	-0.219574	-0.550830	0.344254
H428	H	0.280426	-0.050830	0.844254
H429	H	-0.274574	-0.495797	0.299305
H430	H	0.225426	0.004203	0.799305
H431	H	-0.363454	-0.502115	0.310514
H432	H	0.136546	-0.002115	0.810514
H433	H	-0.397337	-0.563467	0.366672
H434	H	0.102663	-0.063467	0.866672
H435	H	-0.342336	-0.618499	0.411621
H436	H	0.157664	-0.118499	0.911621
H437	H	-0.829266	-0.568292	0.297349
H438	H	-0.329266	-0.068292	0.797349
C439	C	-0.737459	-0.560048	0.305537
C440	C	-0.237459	-0.060048	0.805537
C441	C	-0.705171	-0.579472	0.340829
C442	C	-0.205171	-0.079472	0.840829
C443	C	-0.679389	-0.547830	0.372395
C444	C	-0.179389	-0.047830	0.872395
C445	C	-0.685896	-0.496764	0.368668
C446	C	-0.185896	0.003236	0.868668
C447	C	-0.718185	-0.477338	0.333375
C448	C	-0.218185	0.022662	0.833375
C449	C	-0.743967	-0.508979	0.301809
C450	C	-0.243967	-0.008979	0.801809
H451	H	-0.700353	-0.617276	0.343589
H452	H	-0.200353	-0.117276	0.843589
H453	H	-0.655486	-0.562212	0.398522
H454	H	-0.155486	-0.062212	0.898522
H455	H	-0.666810	-0.473341	0.392035
H456	H	-0.166810	0.026659	0.892035
H457	H	-0.723003	-0.439533	0.330615
H458	H	-0.223003	0.060467	0.830615
H459	H	-0.767870	-0.494598	0.275682
H460	H	-0.267870	0.005402	0.775682
H461	H	-0.164309	-0.478121	0.164485
H462	H	0.335691	0.021879	0.664485
H463	H	-0.603324	-0.730047	0.135785
H464	H	-0.103324	-0.230047	0.635785
H465	H	-0.297509	-0.177180	0.297271
H466	H	0.202491	0.322820	0.797271
C467	C	-0.953274	-0.588857	0.276861
C468	C	-0.453274	-0.088857	0.776861
C469	C	-0.959779	-0.537790	0.273137
C470	C	-0.459779	-0.037790	0.773137
C471	C	-0.934002	-0.506151	0.304709
C472	C	-0.434002	-0.006151	0.804709
C473	C	-0.901720	-0.525578	0.340006
C474	C	-0.401720	-0.025578	0.840006
C475	C	-0.895213	-0.576647	0.343731
C476	C	-0.395213	-0.076647	0.843731
C477	C	-0.920990	-0.608286	0.312159
C478	C	-0.420990	-0.108286	0.812159
H479	H	-0.983678	-0.523407	0.247007
H480	H	-0.483678	-0.023407	0.747007
H481	H	-0.938818	-0.468347	0.301951
H482	H	-0.438818	0.031653	0.801951
H483	H	-0.882638	-0.502157	0.363377
H484	H	-0.382638	-0.002157	0.863377
H485	H	-0.871315	-0.591030	0.369861
H486	H	-0.371315	-0.091030	0.869861
H487	H	-0.916174	-0.646091	0.314918
H488	H	-0.416174	-0.146091	0.814918
H489	H	-0.688430	-0.730076	0.135795
H490	H	-0.188430	-0.230076	0.635795
C491	C	-0.127380	-0.738324	0.737921
C492	C	0.372620	-0.238324	1.237921
C493	C	-0.076307	-0.734696	0.744382
C494	C	0.423693	-0.234696	1.244382
C495	C	-0.044708	-0.766326	0.718599
C496	C	0.455292	-0.266326	1.218599
C497	C	-0.064181	-0.801583	0.686354
C498	C	0.435819	-0.301583	1.186354
C499	C	-0.115256	-0.805212	0.679891
C500	C	0.384744	-0.305212	1.179891
C501	C	-0.146856	-0.773582	0.705674
C502	C	0.353144	-0.273582	1.205674
H503	H	-0.061889	-0.708596	0.768253
H504	H	0.438111	-0.208596	1.268253
H505	H	-0.006898	-0.763640	0.723383
H506	H	0.493102	-0.263640	1.223383
H507	H	-0.040790	-0.824997	0.667267
H508	H	0.459210	-0.324997	1.167267
H509	H	-0.129674	-0.831312	0.656020
H510	H	0.370326	-0.331312	1.156020
H511	H	-0.184665	-0.776269	0.700890
H512	H	0.315335	-0.276269	1.200890
H513	H	-0.135573	-0.730115	0.829740
H514	H	0.364427	-0.230115	1.329740
C515	C	-0.276978	0.087580	0.276814
C516	C	0.223022	0.587580	0.776814
C517	C	-0.328045	0.094064	0.273056
C518	C	0.171955	0.594064	0.773056
C519	C	-0.359696	0.068267	0.304604
C520	C	0.140304	0.568267	0.804604
C521	C	-0.340282	0.035988	0.339911
C522	C	0.159718	0.535988	0.839911
C523	C	-0.289213	0.029503	0.343671
C524	C	0.210787	0.529503	0.843671
C525	C	-0.257561	0.055299	0.312122
C526	C	0.242439	0.555299	0.812122
H527	H	-0.342419	0.117960	0.246918
H528	H	0.157581	0.617960	0.746918
H529	H	-0.397501	0.073068	0.301820
H530	H	0.102499	0.573068	0.801820
H531	H	-0.363712	0.016892	0.363264
H532	H	0.136288	0.516892	0.863264
H533	H	-0.274839	0.005606	0.369808
H534	H	0.225161	0.505606	0.869808
H535	H	-0.219757	0.050499	0.314906
H536	H	0.280243	0.550499	0.814906
H537	H	-0.472692	-0.596925	0.268615
H538	H	0.027308	-0.096925	0.768615
C539	C	-0.276981	0.186109	0.276826
C540	C	0.223019	0.686109	0.776826
C541	C	-0.276980	0.237717	0.276828
C542	C	0.223020	0.737717	0.776828
C543	C	-0.308627	0.263531	0.308380
C544	C	0.191373	0.763531	0.808380
C545	C	-0.340276	0.237736	0.339929
C546	C	0.159724	0.737736	0.839929
C547	C	-0.340278	0.186126	0.339928
C548	C	0.159722	0.686126	0.839928
C549	C	-0.308631	0.160312	0.308376
C550	C	0.191369	0.660312	0.808376
H551	H	-0.253551	0.256814	0.253472
H552	H	0.246449	0.756814	0.753472
H553	H	-0.308625	0.301736	0.308380
H554	H	0.191375	0.801736	0.808380
H555	H	-0.363703	0.256845	0.363285
H556	H	0.136297	0.756845	0.863285
H557	H	-0.363708	0.167029	0.363284
H558	H	0.136292	0.667029	0.863284
H559	H	-0.308633	0.122106	0.308376
H560	H	0.191367	0.622106	0.808376
H561	H	-0.603402	-0.568229	0.297337
H562	H	-0.103402	-0.068229	0.797337
C563	C	-1.051731	-0.709648	0.156328
C564	C	-0.551731	-0.209648	0.656328
C565	C	-1.103339	-0.709660	0.156338
C566	C	-0.603339	-0.209660	0.656338
C567	C	-1.129134	-0.741298	0.124778
C568	C	-0.629134	-0.241298	0.624778
C569	C	-1.103320	-0.772923	0.093208
C570	C	-0.603320	-0.272923	0.593208
C571	C	-1.051709	-0.772911	0.093197
C572	C	-0.551709	-0.272911	0.593197
C573	C	-1.025915	-0.741274	0.124757
C574	C	-0.525915	-0.241274	0.624757
H575	H	-1.122450	-0.686249	0.179709
H576	H	-0.622450	-0.186249	0.679709
H577	H	-1.167339	-0.741306	0.124786
H578	H	-0.667339	-0.241306	0.624786
H579	H	-1.122415	-0.796342	0.069845
H580	H	-0.622415	-0.296342	0.569845
H581	H	-1.032598	-0.796323	0.069826
H582	H	-0.532598	-0.296323	0.569826
H583	H	-0.987709	-0.741266	0.124748
H584	H	-0.487709	-0.241266	0.624748
C585	C	-0.276699	-0.588841	1.052214
C586	C	0.223301	-0.088841	1.552214
C587	C	-0.308296	-0.557207	1.026393
C588	C	0.191704	-0.057207	1.526393
C589	C	-0.339887	-0.525572	1.052180
C590	C	0.160113	-0.025572	1.552180
C591	C	-0.339881	-0.525571	1.103787
C592	C	0.160119	-0.025571	1.603787
C593	C	-0.308283	-0.557206	1.129611
C594	C	0.191717	-0.057206	1.629611
C595	C	-0.276692	-0.588840	1.103824
C596	C	0.223308	-0.088840	1.603824
H597	H	-0.308301	-0.557207	0.988187
H598	H	0.191699	-0.057207	1.488187
H599	H	-0.363278	-0.502154	1.033063
H600	H	0.136722	-0.002154	1.533063
H601	H	-0.363267	-0.502153	1.122876
H602	H	0.136733	-0.002153	1.622876
H603	H	-0.308278	-0.557206	1.167817
H604	H	0.191722	-0.057206	1.667817
H605	H	-0.253301	-0.612259	1.122941
H606	H	0.246699	-0.112259	1.622941
H607	H	-0.959912	-0.701402	0.164514
H608	H	-0.459912	-0.201402	0.664514
C609	C	-0.737363	-0.738309	0.127601
C610	C	-0.237363	-0.238309	0.627601
C611	C	-0.743845	-0.734683	0.076527
C612	C	-0.243845	-0.234683	0.576527
C613	C	-0.718033	-0.766307	0.044951
C614	C	-0.218033	-0.266307	0.544951
C615	C	-0.685740	-0.801558	0.064450
C616	C	-0.185740	-0.301558	0.564450
C617	C	-0.679256	-0.805186	0.115527
C618	C	-0.179256	-0.305186	0.615527
C619	C	-0.705068	-0.773562	0.147102
C620	C	-0.205068	-0.273562	0.647102
H621	H	-0.767752	-0.708586	0.062090
H622	H	-0.267752	-0.208586	0.562090
H623	H	-0.722833	-0.763621	0.007141
H624	H	-0.222833	-0.263621	0.507141
H625	H	-0.666632	-0.824969	0.041076
H626	H	-0.166632	-0.324969	0.541076
H627	H	-0.655349	-0.831282	0.129964
H628	H	-0.155349	-0.331282	0.629964
H629	H	-0.700268	-0.776248	0.184913
H630	H	-0.200268	-0.276248	0.684913
C631	C	-0.156086	-0.386288	0.156308
C632	C	0.343914	0.113712	0.656308
C633	C	-0.105021	-0.392776	0.160075
C634	C	0.394979	0.107224	0.660075
C635	C	-0.073361	-0.366970	0.128543
C636	C	0.426639	0.133030	0.628543
C637	C	-0.092766	-0.334677	0.093243
C638	C	0.407234	0.165323	0.593243
C639	C	-0.143834	-0.328189	0.089474
C640	C	0.356166	0.171811	0.589474
C641	C	-0.175494	-0.353994	0.121006
C642	C	0.324506	0.146006	0.621006
H643	H	-0.090654	-0.416682	0.186207
H644	H	0.409346	0.083318	0.686207
H645	H	-0.035557	-0.371773	0.131333
H646	H	0.464443	0.128227	0.631333
H647	H	-0.069330	-0.315574	0.069901
H648	H	0.430670	0.184426	0.569901
H649	H	-0.158201	-0.304282	0.063342
H650	H	0.341799	0.195718	0.563342
H651	H	-0.213298	-0.349191	0.118216
H652	H	0.286702	0.150809	0.618216
H653	H	-0.297513	-0.036420	0.297286
H654	H	0.202487	0.463580	0.797286
C655	C	-1.051790	-0.588885	0.276865
C656	C	-0.551790	-0.088885	0.776865
C657	C	-1.025997	-0.557255	0.308430
C658	C	-0.525997	-0.057255	0.808430
C659	C	-1.051813	-0.525634	0.340006
C660	C	-0.551813	-0.025634	0.840006
C661	C	-1.103420	-0.525643	0.340017
C662	C	-0.603420	-0.025643	0.840017
C663	C	-1.129216	-0.557273	0.308449
C664	C	-0.629216	-0.057273	0.808449
C665	C	-1.103400	-0.588894	0.276873
C666	C	-0.603400	-0.088894	0.776873
H667	H	-0.987792	-0.557248	0.308424
H668	H	-0.487792	-0.057248	0.808424
H669	H	-1.032717	-0.502219	0.363374
H670	H	-0.532717	-0.002219	0.863374
H671	H	-1.122530	-0.502235	0.363391
H672	H	-0.622530	-0.002235	0.863391
H673	H	-1.167422	-0.557280	0.308456
H674	H	-0.667422	-0.057280	0.808456
H675	H	-1.122496	-0.612309	0.253505
H676	H	-0.622496	-0.112309	0.753505
H677	H	-0.297285	-0.568248	0.688916
H678	H	0.202715	-0.068248	1.188916
H679	H	-0.297256	-0.568274	0.829671
H680	H	0.202744	-0.068274	1.329671
C681	C	-0.156121	0.087580	0.156354
C682	C	0.343879	0.587580	0.656354
C683	C	-0.105055	0.094007	0.160105
C684	C	0.394945	0.594007	0.660105
C685	C	-0.073403	0.068213	0.128543
C686	C	0.426597	0.568213	0.628543
C687	C	-0.092816	0.035990	0.093231
C688	C	0.407184	0.535990	0.593231
C689	C	-0.143884	0.029561	0.089479
C690	C	0.356116	0.529561	0.589479
C691	C	-0.175537	0.055356	0.121040
C692	C	0.324463	0.555356	0.621040
H693	H	-0.090682	0.117862	0.186247
H694	H	0.409318	0.617862	0.686247
H695	H	-0.035599	0.072972	0.131321
H696	H	0.464401	0.572972	0.631321
H697	H	-0.069386	0.016895	0.069867
H698	H	0.430614	0.516895	0.569867
H699	H	-0.158257	0.005707	0.063337
H700	H	0.341743	0.505707	0.563337
H701	H	-0.213341	0.050597	0.118263
H702	H	0.286659	0.550597	0.618263
H703	H	-0.688511	-0.568248	0.297342
H704	H	-0.188511	-0.068248	0.797342
H705	H	-0.164352	0.179390	0.164561
H706	H	0.335648	0.679390	0.664561
H707	H	-0.297512	-0.121538	0.297278
H708	H	0.202488	0.378462	0.797278
C709	C	-0.127316	-0.170497	0.127658
C710	C	0.372684	0.329503	0.627658
C711	C	-0.076251	-0.176988	0.131419
C712	C	0.423749	0.323012	0.631419
C713	C	-0.044594	-0.151201	0.099867
C714	C	0.455406	0.348799	0.599867
C715	C	-0.064003	-0.118924	0.064555
C716	C	0.435997	0.381076	0.564555
C717	C	-0.115071	-0.112432	0.060793
C718	C	0.384929	0.387568	0.560793
C719	C	-0.146727	-0.138218	0.092345
C720	C	0.353273	0.361782	0.592345
H721	H	-0.061881	-0.200883	0.157560
H722	H	0.438119	0.299117	0.657560
H723	H	-0.006790	-0.156007	0.102652
H724	H	0.493210	0.343993	0.602652
H725	H	-0.040569	-0.099835	0.041199
H726	H	0.459431	0.400165	0.541199
H727	H	-0.129441	-0.088537	0.034652
H728	H	0.370559	0.411463	0.534652
H729	H	-0.184531	-0.133412	0.089560
H730	H	0.315469	0.366588	0.589560
C731	C	-0.156195	-0.709535	0.381339
C732	C	0.343805	-0.209535	0.881339
C733	C	-0.105122	-0.705908	0.387795
C734	C	0.394878	-0.205908	0.887795
C735	C	-0.073526	-0.737537	0.362006
C736	C	0.426474	-0.237537	0.862006
C737	C	-0.093004	-0.772793	0.329762
C738	C	0.406996	-0.272793	0.829762
C739	C	-0.144080	-0.776421	0.323305
C740	C	0.355920	-0.276421	0.823305
C741	C	-0.175676	-0.744792	0.349094
C742	C	0.324324	-0.244792	0.849094
H743	H	-0.090701	-0.679809	0.411665
H744	H	0.409299	-0.179809	0.911665
H745	H	-0.035716	-0.734851	0.366786
H746	H	0.464284	-0.234851	0.866786
H747	H	-0.069615	-0.796206	0.310671
H748	H	0.430385	-0.296206	0.810671
H749	H	-0.158501	-0.802520	0.299434
H750	H	0.341499	-0.302520	0.799434
H751	H	-0.213486	-0.747478	0.344314
H752	H	0.286514	-0.247478	0.844314
C753	C	-0.156168	-0.709547	0.479858
C754	C	0.343832	-0.209547	0.979858
C755	C	-0.159850	-0.760614	0.473416
C756	C	0.340150	-0.260614	0.973416
C757	C	-0.128245	-0.792253	0.499224
C758	C	0.371755	-0.292253	0.999224
C759	C	-0.092958	-0.772826	0.531474
C760	C	0.407042	-0.272826	1.031474
C761	C	-0.089274	-0.721756	0.537918
C762	C	0.410726	-0.221756	1.037918
C763	C	-0.120879	-0.690117	0.512110
C764	C	0.379121	-0.190117	1.012110
H765	H	-0.185973	-0.774997	0.449540
H766	H	0.314027	-0.274997	0.949540
H767	H	-0.130972	-0.830058	0.494453
H768	H	0.369028	-0.330058	0.994453
H769	H	-0.069562	-0.796247	0.550579
H770	H	0.430438	-0.296247	1.050579
H771	H	-0.063151	-0.707373	0.561794
H772	H	0.436849	-0.207373	1.061794
H773	H	-0.118152	-0.652312	0.516881
H774	H	0.381848	-0.152312	1.016881
C775	C	-0.156066	-0.709601	0.953735
C776	C	0.343934	-0.209601	1.453735
C777	C	-0.104993	-0.705976	0.960196
C778	C	0.395007	-0.205976	1.460196
C779	C	-0.073395	-0.737604	0.934409
C780	C	0.426605	-0.237604	1.434409
C781	C	-0.092869	-0.772857	0.902160
C782	C	0.407131	-0.272857	1.402160
C783	C	-0.143945	-0.776484	0.895697
C784	C	0.356055	-0.276484	1.395697
C785	C	-0.175543	-0.744856	0.921484
C786	C	0.324457	-0.244856	1.421484
H787	H	-0.090574	-0.679878	0.984070
H788	H	0.409426	-0.179878	1.484070
H789	H	-0.035585	-0.734919	0.939193
H790	H	0.464415	-0.234919	1.439193
H791	H	-0.069478	-0.796270	0.883071
H792	H	0.430522	-0.296270	1.383071
H793	H	-0.158363	-0.802581	0.871824
H794	H	0.341637	-0.302581	1.371824
H795	H	-0.213352	-0.747541	0.916700
H796	H	0.286648	-0.247541	1.416700
H797	H	-0.387570	-0.596895	0.268600
H798	H	0.112430	-0.096895	0.768600
H799	H	-0.268721	-0.478110	0.268545
H800	H	0.231279	0.021890	0.768545
H801	H	-0.297506	-0.262285	0.297258
H802	H	0.202494	0.237715	0.797258
H803	H	-0.135556	-0.036441	0.135871
H804	H	0.364444	0.463559	0.635871
H805	H	-0.135623	-0.730097	0.603875
H806	H	0.364377	-0.230097	1.103875
H807	H	-0.135551	-0.121547	0.135861
H808	H	0.364449	0.378453	0.635861
H809	H	-0.297294	-0.568233	0.603808
H810	H	0.202706	-0.068233	1.103808
H811	H	-0.135601	-0.730104	0.688980
H812	H	0.364399	-0.230104	1.188980
H813	H	-0.164257	-0.701393	1.045559
H814	H	0.335743	-0.201393	1.545559
