data_functionalizedCrystal
_audit_creation_method	'MofGen! by Chris Wilmer'
_symmetry_space_group_name_H-M	'P1'
_symmetry_Int_Tables_number	1
_symmetry_cell_setting	triclinic
loop_
_symmetry_equiv_pos_as_xyz
  x,y,z
_cell_length_a	19.121063
_cell_length_b	19.805407
_cell_length_c	19.805399
_cell_angle_alpha	89.978275
_cell_angle_beta	87.588895
_cell_angle_gamma	87.529649
loop_
_atom_site_label
_atom_site_type_symbol
_atom_site_fract_x
_atom_site_fract_y
_atom_site_fract_z
Zn1	Zn	-0.279608	-1.023235	0.394240
Zn2	Zn	0.220392	-0.523235	0.894240
Zn3	Zn	-0.397060	-1.018318	0.285875
Zn4	Zn	0.102940	-0.518318	0.785875
Zn5	Zn	-0.279630	-0.910048	0.281062
Zn6	Zn	0.220370	-0.410048	0.781062
Zn7	Zn	-0.397026	-0.905183	0.399016
Zn8	Zn	0.102974	-0.405183	0.899016
O9	O	-0.338331	-0.964196	0.340048
O10	O	0.161669	-0.464196	0.840048
O11	O	-0.295194	-1.117299	0.379881
O12	O	0.204806	-0.617299	0.879881
O13	O	-0.381507	-1.003935	0.190521
O14	O	0.118493	-0.503935	0.690521
O15	O	-0.181342	-0.929156	0.292062
O16	O	0.318658	-0.429156	0.792062
O17	O	-0.381485	-1.113687	0.300266
O18	O	0.118515	-0.613687	0.800266
O19	O	-0.181326	-1.012314	0.375214
O20	O	0.318674	-0.512314	0.875214
O21	O	-0.295231	-0.924389	0.186984
O22	O	0.204769	-0.424389	0.686984
O23	O	-0.295197	-0.814687	0.296693
O24	O	0.204803	-0.314687	0.796693
O25	O	-0.381426	-0.920864	0.493098
O26	O	0.118574	-0.420864	0.993098
O27	O	-0.381447	-0.811112	0.383353
O28	O	0.118553	-0.311112	0.883353
O29	O	-0.295160	-1.007596	0.489589
O30	O	0.204840	-0.507596	0.989589
O31	O	-0.495341	-0.999217	0.304897
O32	O	0.004659	-0.499217	0.804897
O33	O	-0.495315	-0.916097	0.388021
O34	O	0.004685	-0.416097	0.888021
C35	C	-0.338321	-0.788341	0.340019
C36	C	0.161679	-0.288341	0.840019
C37	C	-0.338334	-0.713108	0.340024
C38	C	0.161666	-0.213108	0.840024
C39	C	-0.293474	-0.253198	0.381583
C40	C	0.206526	0.246802	0.881583
C41	C	-0.293476	-0.323887	0.381580
C42	C	0.206524	0.176113	0.881580
C43	C	-0.338334	-0.357346	0.340056
C44	C	0.161666	0.142654	0.840056
C45	C	-0.383197	-0.320114	0.298538
C46	C	0.116803	0.179886	0.798538
C47	C	-0.383198	-0.249426	0.298545
C48	C	0.116802	0.250574	0.798545
C49	C	-0.383196	-0.605187	0.298509
C50	C	0.116804	-0.105187	0.798509
C51	C	-0.383190	-0.675879	0.298503
C52	C	0.116810	-0.175879	0.798503
C53	C	-0.293473	-0.679647	0.381544
C54	C	0.206527	-0.179647	0.881544
C55	C	-0.293474	-0.608960	0.381551
C56	C	0.206526	-0.108960	0.881551
C57	C	-0.338340	-0.571733	0.340035
C58	C	0.161660	-0.071733	0.840035
C59	C	-0.338338	-0.495085	0.340040
C60	C	0.161662	0.004915	0.840040
C61	C	-0.338333	-0.433993	0.340047
C62	C	0.161667	0.066007	0.840047
C63	C	-0.520812	-0.956614	0.347514
C64	C	-0.020812	-0.456614	0.847514
C65	C	-0.598878	-0.953432	0.350731
C66	C	-0.098878	-0.453432	0.850731
C67	C	-0.635544	-0.995247	0.309000
C68	C	-0.135544	-0.495247	0.809000
C69	C	-0.708895	-0.992259	0.312029
C70	C	-0.208895	-0.492259	0.812029
C71	C	-0.745580	-0.947452	0.356786
C72	C	-0.245580	-0.447452	0.856786
C73	C	-0.708909	-0.905635	0.398522
C74	C	-0.208909	-0.405635	0.898522
C75	C	-0.635559	-0.908627	0.395496
C76	C	-0.135559	-0.408627	0.895496
C77	C	-0.967050	-0.936253	0.368090
C78	C	-0.467050	-0.436253	0.868090
C79	C	-1.040405	-0.933263	0.371112
C80	C	-0.540405	-0.433263	0.871112
C81	C	-1.040387	-1.019888	0.284619
C82	C	-0.540387	-0.519888	0.784619
C83	C	-0.967035	-1.022873	0.281594
C84	C	-0.467035	-0.522873	0.781594
C85	C	-0.930371	-0.981059	0.323332
C86	C	-0.430371	-0.481059	0.823332
C87	C	-0.820557	-0.944395	0.359882
C88	C	-0.320557	-0.444395	0.859882
C89	C	-0.855395	-0.984120	0.320239
C90	C	-0.355395	-0.484120	0.820239
C91	C	-0.155137	-0.971826	0.332568
C92	C	0.344863	-0.471826	0.832568
C93	C	-0.077071	-0.975078	0.329380
C94	C	0.422929	-0.475078	0.829380
C95	C	-0.338287	-0.964236	0.516589
C96	C	0.161713	-0.464236	1.016589
C97	C	-0.338268	-0.964253	0.591821
C98	C	0.161732	-0.464253	1.091821
C99	C	-0.338338	-0.140739	0.340072
C100	C	0.161662	0.359261	0.840072
C101	C	-0.338332	-0.215971	0.340067
C102	C	0.161668	0.284029	0.840067
C103	C	-0.338324	-0.964198	0.164192
C104	C	0.161676	-0.464198	0.664192
C105	C	-0.338145	-0.964320	0.088953
C106	C	0.161855	-0.464320	0.588953
C107	C	-0.293347	-1.009415	0.625339
C108	C	0.206653	-0.509415	1.125339
C109	C	-0.293326	-1.009423	0.696026
C110	C	0.206674	-0.509423	1.196026
C111	C	-0.338231	-0.964271	0.733195
C112	C	0.161769	-0.464271	1.233195
C113	C	-0.383154	-0.919104	0.699672
C114	C	0.116846	-0.419104	1.199672
C115	C	-0.383170	-0.919093	0.628985
C116	C	0.116830	-0.419093	1.128985
C117	C	-0.383089	-0.919145	0.984742
C118	C	0.116911	-0.419145	1.484742
C119	C	-0.383070	-0.919160	1.055434
C120	C	0.116930	-0.419160	1.555434
C121	C	-0.293245	-1.009475	1.051784
C122	C	0.206755	-0.509475	1.551784
C123	C	-0.293261	-1.009464	0.981097
C124	C	0.206739	-0.509464	1.481097
C125	C	-0.338181	-0.964295	0.947580
C126	C	0.161819	-0.464295	1.447580
C127	C	-0.338202	-0.964286	0.870933
C128	C	0.161798	-0.464286	1.370933
C129	C	-0.338215	-0.964283	0.809841
C130	C	0.161785	-0.464283	1.309841
H131	H	-0.256950	-0.354194	0.415389
H132	H	0.243050	0.145806	0.915389
Cl133	Cl	-0.439588	-0.717942	0.246298
Cl134	Cl	0.060412	-0.217942	0.746298
Cl135	Cl	-0.809276	-1.040450	0.263977
Cl136	Cl	-0.309276	-0.540450	0.763977
Cl137	Cl	-0.439643	-0.862313	0.586848
Cl138	Cl	0.060357	-0.362313	1.086848
Cl139	Cl	-0.236895	-1.066184	0.578620
Cl140	Cl	0.263105	-0.566184	1.078620
H141	H	-0.419728	-0.219116	0.264740
H142	H	0.080272	0.280884	0.764740
H143	H	-0.256666	-1.046251	1.079081
H144	H	0.243334	-0.546251	1.579081
H145	H	-0.605680	-1.031731	0.272550
H146	H	-0.105680	-0.531731	0.772550
Cl147	Cl	-0.237073	-0.211142	0.433784
Cl148	Cl	0.262927	0.288858	0.933784
Cl149	Cl	-0.589465	-0.856060	0.447963
Cl150	Cl	-0.089465	-0.356060	0.947963
H151	H	-0.419639	-0.882389	1.085695
H152	H	0.080361	-0.382389	1.585695
H153	H	-0.256944	-0.581721	0.415361
H154	H	0.243056	-0.081721	0.915361
Cl155	Cl	-0.237072	-0.726451	0.433739
Cl156	Cl	0.262928	-0.226451	0.933739
H157	H	-0.419724	-0.347362	0.264732
H158	H	0.080276	0.152638	0.764732
Cl159	Cl	-0.439560	-0.862361	0.942616
Cl160	Cl	0.060440	-0.362361	1.442616
Cl161	Cl	-0.439604	-0.862339	0.746398
Cl162	Cl	0.060396	-0.362339	1.246398
H163	H	-0.850433	-0.907911	0.396323
H164	H	-0.350433	-0.407911	0.896323
H165	H	-0.738745	-1.026309	0.278046
H166	H	-0.238745	-0.526309	0.778046
H167	H	-0.256749	-1.046200	0.723314
H168	H	0.243251	-0.546200	1.223314
H169	H	-1.070272	-0.896783	0.407571
H170	H	-0.570272	-0.396783	0.907571
Cl171	Cl	-0.236809	-1.066230	0.934375
Cl172	Cl	0.263191	-0.566230	1.434375
H173	H	-0.419727	-0.574886	0.264702
H174	H	0.080273	-0.074886	0.764702
H175	H	-0.738783	-0.869155	0.434968
H176	H	-0.238783	-0.369155	0.934968
H177	H	-0.937168	-1.059359	0.245149
H178	H	-0.437168	-0.559359	0.745149
Cl179	Cl	-1.086483	-1.072455	0.232156
Cl180	Cl	-0.586483	-0.572455	0.732156
Cl181	Cl	-0.920967	-0.883685	0.420560
Cl182	Cl	-0.420967	-0.383685	0.920560
