data_functionalizedCrystal
_audit_creation_method	'MofGen! by Chris Wilmer'
_symmetry_space_group_name_H-M	'P1'
_symmetry_Int_Tables_number	1
_symmetry_cell_setting	triclinic
loop_
_symmetry_equiv_pos_as_xyz
  x,y,z
_cell_length_a	18.215407
_cell_length_b	19.077068
_cell_length_c	18.215399
_cell_angle_alpha	92.265636
_cell_angle_beta	89.983176
_cell_angle_gamma	92.327501
loop_
_atom_site_label
_atom_site_type_symbol
_atom_site_fract_x
_atom_site_fract_y
_atom_site_fract_z
Zn1	Zn	1.113266	-0.280183	-0.427868
Zn2	Zn	1.108231	-0.397890	-0.309739
Zn3	Zn	0.990204	-0.280211	-0.304816
Zn4	Zn	0.985216	-0.397846	-0.432762
O5	O	1.049229	-0.339032	-0.368796
O6	O	1.215582	-0.295804	-0.412210
O7	O	1.092554	-0.382310	-0.206103
O8	O	1.010723	-0.181716	-0.317031
O9	O	1.211883	-0.382282	-0.325421
O10	O	1.101137	-0.181696	-0.407437
O11	O	1.005841	-0.295852	-0.202486
O12	O	0.886558	-0.295809	-0.321777
O13	O	1.002222	-0.382207	-0.535096
O14	O	0.882894	-0.382234	-0.415778
O15	O	1.096300	-0.295761	-0.531500
O16	O	1.087718	-0.496375	-0.330166
O17	O	0.997339	-0.496342	-0.420551
C18	C	0.858023	-0.339020	-0.368775
C19	C	0.776224	-0.339032	-0.368784
C20	C	0.586138	-0.384105	-0.417674
C21	C	0.509279	-0.384107	-0.417683
C22	C	0.513072	-0.293973	-0.319935
C23	C	0.589929	-0.293968	-0.319930
C24	C	0.626460	-0.339038	-0.368798
C25	C	0.472744	-0.339045	-0.368813
C26	C	0.389410	-0.339047	-0.368823
C27	C	0.709799	-0.339035	-0.368790
C28	C	1.041461	-0.521896	-0.376440
C29	C	1.038205	-0.600126	-0.379734
C30	C	1.083766	-0.636872	-0.334263
C31	C	1.080708	-0.710377	-0.337365
C32	C	1.032084	-0.747135	-0.385937
C33	C	0.986520	-0.710384	-0.431413
C34	C	0.989583	-0.636880	-0.428314
C35	C	1.017879	-0.966969	-0.400253
C36	C	1.014818	-1.040478	-0.403348
C37	C	1.109008	-1.040467	-0.309300
C38	C	1.112063	-0.966961	-0.306202
C39	C	1.066502	-0.930217	-0.351681
N40	N	1.028955	-0.822270	-0.389108
N41	N	1.069635	-0.855084	-0.348513
C42	C	1.241182	-0.339045	-0.368818
C43	C	1.322980	-0.339050	-0.368828
C44	C	1.049266	-0.338976	-0.560747
C45	C	1.049282	-0.338952	-0.642545
C46	C	1.057048	-0.155455	-0.361139
C47	C	1.060380	-0.077225	-0.357876
C48	C	1.004171	-0.293903	-0.828855
C49	C	1.004185	-0.293889	-0.905714
C50	C	1.094484	-0.383917	-0.909469
C51	C	1.094467	-0.383934	-0.832612
C52	C	1.049311	-0.338923	-0.792307
C53	C	1.049343	-0.338892	-0.946022
C54	C	1.049357	-0.338877	-1.029355
C55	C	1.049295	-0.338939	-0.708969
C56	C	1.049237	-0.339038	-0.177590
C57	C	1.049372	-0.338863	-0.095784
H58	H	0.615880	-0.420802	-0.457467
H59	H	1.131227	-0.420598	-0.802854
H60	H	1.146102	-1.070392	-0.272275
C61	C	1.130832	-0.750794	-0.287346
C62	C	1.125297	-0.740753	-0.203255
C63	C	1.175427	-0.781167	-0.153235
C64	C	1.231092	-0.831622	-0.187306
C65	C	1.236628	-0.841665	-0.271402
C66	C	1.186498	-0.801251	-0.321422
H67	H	1.084089	-0.703401	-0.178030
H68	H	1.171329	-0.773732	-0.090982
H69	H	1.268201	-0.861539	-0.150279
H70	H	1.277836	-0.879017	-0.296627
H71	H	1.190597	-0.808686	-0.383675
H72	H	0.946932	-0.740318	-0.470964
C73	C	0.464925	-0.433683	-0.471445
C74	C	0.505111	-0.483255	-0.525197
C75	C	0.460757	-0.532832	-0.578963
C76	C	0.376216	-0.532838	-0.578977
C77	C	0.336026	-0.483265	-0.525223
C78	C	0.380380	-0.433687	-0.471457
H79	H	0.567697	-0.483252	-0.525188
H80	H	0.490509	-0.569530	-0.618754
H81	H	0.343383	-0.569539	-0.618777
H82	H	0.273440	-0.483268	-0.525232
H83	H	0.350628	-0.396990	-0.431666
C84	C	0.472885	-0.244404	-0.266177
C85	C	0.388345	-0.244410	-0.266176
C86	C	0.348160	-0.194842	-0.212413
C87	C	0.392516	-0.145267	-0.158652
C88	C	0.477061	-0.145259	-0.158651
C89	C	0.517246	-0.194827	-0.212413
H90	H	0.355506	-0.281110	-0.305975
H91	H	0.285574	-0.194848	-0.212414
H92	H	0.362769	-0.108574	-0.118854
H93	H	0.509900	-0.108559	-0.118852
H94	H	0.579832	-0.194821	-0.212412
C95	C	0.939462	-0.596456	-0.478331
C96	C	0.883809	-0.545988	-0.444262
C97	C	0.833691	-0.505564	-0.494283
C98	C	0.839225	-0.515607	-0.578374
C99	C	0.894880	-0.566077	-0.612448
C100	C	0.944999	-0.606501	-0.562426
H101	H	0.879710	-0.538552	-0.382009
H102	H	0.792491	-0.468203	-0.469060
H103	H	0.802124	-0.485683	-0.615403
H104	H	0.898979	-0.573514	-0.674701
H105	H	0.986199	-0.643862	-0.587650
H106	H	1.131249	-0.420563	-0.942294
H107	H	0.622761	-0.257264	-0.280130
H108	H	0.967427	-0.257230	-0.935468
C109	C	1.137255	-0.596441	-0.280833
C110	C	1.130882	-0.606614	-0.197595
C111	C	1.184374	-0.566185	-0.144165
C112	C	1.244238	-0.515584	-0.173975
C113	C	1.250614	-0.505409	-0.257217
C114	C	1.197122	-0.545838	-0.310646
H115	H	1.086564	-0.644074	-0.175524
H116	H	1.179654	-0.573718	-0.082544
H117	H	1.283836	-0.485656	-0.134423
H118	H	1.294932	-0.467949	-0.279288
H119	H	1.201842	-0.538305	-0.372268
H120	H	0.967403	-0.257252	-0.796041
C121	C	0.961330	-1.080914	-0.456781
C122	C	0.911214	-1.040498	-0.506807
C123	C	0.857726	-1.080934	-0.560235
C124	C	0.854355	-1.161786	-0.563637
C125	C	0.904472	-1.202206	-0.513609
C126	C	0.957960	-1.161770	-0.460181
H127	H	0.913708	-0.980643	-0.504291
H128	H	0.820626	-1.051012	-0.597269
H129	H	0.814760	-1.191719	-0.603187
H130	H	0.901978	-1.262061	-0.516125
H131	H	0.995060	-1.191692	-0.423147
C132	C	0.967755	-0.926561	-0.450276
C133	C	0.912096	-0.876097	-0.416212
C134	C	0.861969	-0.835687	-0.466239
C135	C	0.867500	-0.845741	-0.550328
C136	C	0.923162	-0.896208	-0.584397
C137	C	0.973290	-0.936618	-0.534370
H138	H	0.907999	-0.868652	-0.353960
H139	H	0.820764	-0.798329	-0.441019
H140	H	0.830393	-0.815828	-0.587361
H141	H	0.927259	-0.903653	-0.646649
H142	H	1.014494	-0.973976	-0.559590
H143	H	1.151656	-0.937035	-0.266651
