data_functionalizedCrystal
_audit_creation_method	'MofGen! by Chris Wilmer'
_symmetry_space_group_name_H-M	'P1'
_symmetry_Int_Tables_number	1
_symmetry_cell_setting	triclinic
loop_
_symmetry_equiv_pos_as_xyz
  x,y,z
_cell_length_a	11.169417
_cell_length_b	15.299816
_cell_length_c	11.169409
_cell_angle_alpha	99.647672
_cell_angle_beta	89.980487
_cell_angle_gamma	80.351466
loop_
_atom_site_label
_atom_site_type_symbol
_atom_site_fract_x
_atom_site_fract_y
_atom_site_fract_z
Zn1	Zn	1.917495	-0.358948	-0.761232
Zn2	Zn	2.417495	0.141052	-0.261232
Zn3	Zn	1.952069	-0.509795	-0.595303
Zn4	Zn	2.452069	-0.009795	-0.095303
Zn5	Zn	1.716794	-0.359004	-0.560580
Zn6	Zn	2.216794	0.140996	-0.060580
Zn7	Zn	1.751457	-0.509723	-0.795932
Zn8	Zn	2.251457	-0.009723	-0.295932
O9	O	1.834454	-0.434367	-0.678261
O10	O	2.334454	0.065633	-0.178261
O11	O	2.090033	-0.378965	-0.739230
O12	O	2.590033	0.121035	-0.239230
O13	O	1.920822	-0.489846	-0.422759
O14	O	2.420822	0.010154	0.077241
O15	O	1.714442	-0.232790	-0.558143
O16	O	2.214442	0.267210	-0.058143
O17	O	2.115434	-0.489792	-0.617323
O18	O	2.615434	0.010208	-0.117323
O19	O	1.861896	-0.232748	-0.705561
O20	O	2.361896	0.267252	-0.205561
O21	O	1.747967	-0.379060	-0.397249
O22	O	2.247967	0.120940	0.102751
O23	O	1.553441	-0.378990	-0.591791
O24	O	2.053441	0.121010	-0.091791
O25	O	1.773519	-0.489669	-0.959266
O26	O	2.273519	0.010331	-0.459266
O27	O	1.578907	-0.489723	-0.764703
O28	O	2.078907	0.010277	-0.264703
O29	O	1.895507	-0.378895	-0.933772
O30	O	2.395507	0.121105	-0.433772
O31	O	1.954433	-0.635992	-0.650970
O32	O	2.454433	-0.135992	-0.150970
O33	O	1.807044	-0.635939	-0.798372
O34	O	2.307044	-0.135939	-0.298372
C35	C	1.522626	-0.434355	-0.678245
C36	C	2.022626	0.065645	-0.178245
C37	C	1.389230	-0.434372	-0.678271
C38	C	1.889230	0.065628	-0.178271
C39	C	1.888284	-0.668690	-0.732230
C40	C	2.388284	-0.168690	-0.232230
C41	C	1.911423	-0.768934	-0.755359
C42	C	2.411423	-0.268934	-0.255359
C43	C	1.669865	-1.051890	-0.513368
C44	C	2.169865	-0.551890	-0.013368
C45	C	1.648119	-0.957705	-0.491641
C46	C	2.148119	-0.457705	0.008359
C47	C	1.713944	-0.910508	-0.557568
C48	C	2.213944	-0.410508	-0.057568
C49	C	1.801517	-0.957504	-0.645227
C50	C	2.301517	-0.457504	-0.145227
C51	C	1.823259	-1.051698	-0.666963
C52	C	2.323259	-0.551698	-0.166963
C53	C	1.867337	-0.910316	-0.711163
C54	C	2.367337	-0.410316	-0.211163
C55	C	1.954910	-0.957312	-0.798822
C56	C	2.454910	-0.457312	-0.298822
C57	C	1.976649	-1.051496	-0.820553
C58	C	2.476649	-0.551496	-0.320553
C59	C	1.910824	-1.098694	-0.754626
C60	C	2.410824	-0.598694	-0.254626
C61	C	1.845595	-0.816122	-0.689427
C62	C	2.345595	-0.316122	-0.189427
C63	C	1.998989	-0.815930	-0.843022
C64	C	2.498989	-0.315930	-0.343022
C65	C	2.020735	-0.910114	-0.864749
C66	C	2.520735	-0.410114	-0.364749
C67	C	2.147499	-0.434380	-0.678279
C68	C	2.647499	0.065620	-0.178279
C69	C	2.280900	-0.434386	-0.678286
C70	C	2.780900	0.065614	-0.178286
C71	C	1.834523	-0.434267	-0.991281
C72	C	2.334523	0.065733	-0.491281
C73	C	1.834552	-0.434225	-1.124671
C74	C	2.334552	0.065775	-0.624671
C75	C	1.780446	-0.199130	-0.624108
C76	C	2.280446	0.300870	-0.124108
C77	C	1.757431	-0.098886	-0.601031
C78	C	2.257431	0.401114	-0.101031
C79	C	1.834439	-0.434402	-0.366445
C80	C	2.334439	0.065598	0.133555
C81	C	1.834584	-0.434191	-0.232997
C82	C	2.334584	0.065809	0.267003
H83	H	1.774292	-0.777866	-0.618055
H84	H	2.274292	-0.277866	-0.118055
Br85	Br	2.088322	-0.751885	-0.932506
Br86	Br	2.588322	-0.251885	-0.432506
H87	H	1.696234	-0.833819	-0.539871
H88	H	2.196234	-0.333819	-0.039871
H89	H	1.576817	-0.919445	-0.420271
H90	H	2.076817	-0.419445	0.079729
H91	H	1.928529	-1.175386	-0.772308
H92	H	2.428529	-0.675386	-0.272308
Br93	Br	2.139582	-0.973905	-0.983710
Br94	Br	2.639582	-0.473905	-0.483710
H95	H	1.616275	-1.090326	-0.459705
H96	H	2.116275	-0.590326	0.040295
Br97	Br	2.095470	-1.115275	-0.939548
Br98	Br	2.595470	-0.615275	-0.439548
