data_functionalizedCrystal
_audit_creation_method	'MofGen! by Chris Wilmer'
_symmetry_space_group_name_H-M	'P1'
_symmetry_Int_Tables_number	1
_symmetry_cell_setting	triclinic
loop_
_symmetry_equiv_pos_as_xyz
  x,y,z
_cell_length_a	10.654546
_cell_length_b	14.044220
_cell_length_c	9.730223
_cell_angle_alpha	90.002743
_cell_angle_beta	90.004902
_cell_angle_gamma	91.163799
loop_
_atom_site_label
_atom_site_type_symbol
_atom_site_fract_x
_atom_site_fract_y
_atom_site_fract_z
O1	O	-0.302978	1.259694	0.114258
O2	O	0.197022	1.759694	0.614258
O3	O	-0.292045	0.983653	0.114263
O4	O	0.207955	1.483653	0.614263
O5	O	-0.115410	1.128022	0.114269
O6	O	0.384590	1.628022	0.614269
O7	O	-0.479613	1.115325	0.114253
O8	O	0.020387	1.615325	0.614253
O9	O	-0.115419	1.128013	-0.114311
O10	O	0.384581	1.628013	0.385689
O11	O	-0.292054	0.983644	-0.114317
O12	O	0.207946	1.483644	0.385683
O13	O	-0.302988	1.259685	-0.114322
O14	O	0.197012	1.759685	0.385678
Zn15	Zn	-0.297523	1.121663	-0.150611
Zn16	Zn	0.202477	1.621663	0.349389
Zn17	Zn	-0.297510	1.121675	0.150553
Zn18	Zn	0.202490	1.621675	0.650553
O19	O	-0.479623	1.115316	-0.114327
O20	O	0.020377	1.615316	0.385673
C21	C	-0.068523	1.127086	-0.000016
C22	C	0.431477	1.627086	0.499984
C23	C	0.071201	1.124299	-0.000001
C24	C	0.571201	1.624299	0.499999
C25	C	-0.287264	0.948303	-0.000026
C26	C	0.212736	1.448303	0.499974
C27	C	-0.272988	0.842983	-0.000024
C28	C	0.227012	1.342983	0.499976
C29	C	0.142145	1.209300	-0.000002
C30	C	0.642145	1.709300	0.499998
C31	C	0.273429	1.206676	0.000017
C32	C	0.773429	1.706676	0.500017
C33	C	0.262814	1.034040	0.000031
C34	C	0.762814	1.534040	0.500031
C35	C	0.131532	1.036666	0.000022
C36	C	0.631532	1.536666	0.500022
C37	C	0.081813	1.296933	-0.000025
C38	C	0.581813	1.796933	0.499975
C39	C	0.152758	1.381942	-0.000027
C40	C	0.652758	1.881942	0.499973
C41	C	0.284043	1.379317	-0.000008
C42	C	0.784043	1.879317	0.499992
C43	C	0.344383	1.291684	0.000013
C44	C	0.844383	1.791684	0.500013
C45	C	-0.307769	1.295035	-0.000029
C46	C	0.192231	1.795035	0.499971
C47	C	-0.322044	1.400355	-0.000023
C48	C	0.177956	1.900355	0.499977
C49	C	0.473491	1.116254	-0.000021
C50	C	0.973491	1.616254	0.499979
C51	C	0.333768	1.119048	0.000027
C52	C	0.833768	1.619048	0.500027
C53	C	-0.348143	1.593187	-0.000025
C54	C	0.151857	2.093187	0.499975
C55	C	-0.246895	1.650156	-0.000021
C56	C	0.253105	2.150156	0.499979
C57	C	-0.261417	1.757455	-0.000023
C58	C	0.238583	2.257455	0.499977
C59	C	-0.333623	1.485879	-0.000024
C60	C	0.166377	1.985879	0.499976
N61	N	-0.297531	1.121661	-0.356148
N62	N	0.202469	1.621661	0.143852
C63	C	-0.380237	1.179689	-0.428091
C64	C	0.119763	1.679689	0.071909
C65	C	-0.380215	1.179703	-0.571974
C66	C	0.119785	1.679703	-0.071974
C67	C	-0.214777	1.063654	-0.571957
C68	C	0.285223	1.563654	-0.071957
C69	C	-0.214794	1.063645	-0.428077
C70	C	0.285206	1.563645	0.071923
C71	C	-0.462975	1.237705	-0.356162
C72	C	0.037025	1.737705	0.143838
C73	C	-0.545688	1.295736	-0.428106
C74	C	-0.045688	1.795736	0.071894
C75	C	-0.545666	1.295751	-0.571989
C76	C	-0.045666	1.795751	-0.071989
C77	C	-0.462930	1.237733	-0.643928
C78	C	0.037070	1.737733	-0.143928
N79	N	-0.297492	1.121684	0.356089
N80	N	0.202508	1.621684	0.856089
H81	H	-0.025085	1.299080	-0.000045
H82	H	0.474915	1.799080	0.499955
C83	C	-0.479971	1.636162	-0.000021
C84	C	0.020029	2.136162	0.499979
N85	N	-0.579263	1.668541	-0.000012
N86	N	-0.079263	2.168541	0.499988
H87	H	0.103620	1.453290	-0.000009
H88	H	0.603620	1.953290	0.499991
C89	C	-0.462906	1.237756	-0.802205
C90	C	0.037094	1.737756	-0.302205
N91	N	-0.462892	1.237771	-0.921417
N92	N	0.037108	1.737771	-0.421417
C93	C	0.362078	1.472827	-0.000010
C94	C	0.862078	1.972827	0.499990
N95	N	0.420852	1.543263	-0.000022
N96	N	0.920852	2.043263	0.499978
C97	C	-0.123785	0.999831	-0.651096
C98	C	0.376215	1.499831	-0.151096
N99	N	-0.055253	0.951754	-0.710703
N100	N	0.444747	1.451754	-0.210703
C101	C	-0.123816	0.999809	-0.348934
C102	C	0.376184	1.499809	0.151066
N103	N	-0.055288	0.951727	-0.289324
N104	N	0.444712	1.451727	0.210676
H105	H	-0.463005	1.237697	-0.239005
H106	H	0.036995	1.737697	0.260995
C107	C	0.488801	1.288802	0.000042
C108	C	0.988801	1.788802	0.500042
N109	N	0.597576	1.286633	0.000057
N110	N	1.097576	1.786633	0.500057
H111	H	-0.149308	1.618344	0.000083
H112	H	0.350692	2.118344	0.500083
H113	H	0.311954	0.962693	0.000046
H114	H	0.811954	1.462693	0.500046
H115	H	0.073767	0.967450	0.000020
H116	H	0.573767	1.467450	0.500020
H117	H	-0.613042	1.342977	-0.369524
H118	H	-0.113042	1.842977	0.130476
H119	H	-0.613007	1.343009	-0.630562
H120	H	-0.113007	1.843009	-0.130562
