data_functionalizedCrystal
_audit_creation_method	'MofGen! by Chris Wilmer'
_symmetry_space_group_name_H-M	'P1'
_symmetry_Int_Tables_number	1
_symmetry_cell_setting	triclinic
loop_
_symmetry_equiv_pos_as_xyz
  x,y,z
_cell_length_a	19.288864
_cell_length_b	19.188930
_cell_length_c	17.766277
_cell_angle_alpha	89.988508
_cell_angle_beta	89.976791
_cell_angle_gamma	83.140512
loop_
_atom_site_label
_atom_site_type_symbol
_atom_site_fract_x
_atom_site_fract_y
_atom_site_fract_z
O1	O	0.921360	0.087099	-0.062844
O2	O	0.719100	0.098849	-0.062794
O3	O	0.826066	-0.008682	-0.062806
O4	O	0.814393	0.194630	-0.062832
O5	O	0.826048	-0.008688	0.062383
O6	O	0.719081	0.098843	0.062395
O7	O	0.921341	0.087094	0.062345
Cu8	Cu	0.820209	0.092968	0.073800
Cu9	Cu	0.820231	0.092974	-0.074250
O10	O	0.814374	0.194625	0.062356
C11	C	0.693214	0.098468	-0.000193
C12	C	0.616110	0.097333	-0.000173
C13	C	0.825679	-0.034696	-0.000209
C14	C	0.824544	-0.112200	-0.000202
C15	C	0.571419	0.160427	-0.000193
C16	C	0.498972	0.159361	-0.000201
C17	C	0.471219	0.095197	-0.000204
C18	C	0.515921	0.032095	-0.000180
C19	C	0.588366	0.033163	-0.000164
C20	C	0.362960	0.044759	-0.044082
C21	C	0.290515	0.043694	-0.044103
C22	C	0.247773	0.091900	-0.000249
C23	C	0.277483	0.141184	0.043614
C24	C	0.349929	0.142252	0.043630
C25	C	0.392665	0.094032	-0.000221
C26	C	0.124526	0.153843	-0.000277
C27	C	0.052078	0.152774	-0.000281
C28	C	0.069028	0.025506	-0.000267
C29	C	0.141475	0.026576	-0.000256
C30	C	0.169219	0.090747	-0.000265
C31	C	0.887309	-0.157129	-0.000214
C32	C	0.886243	-0.229953	-0.000226
C33	C	0.822408	-0.257844	-0.000211
C34	C	0.759636	-0.212906	-0.000203
C35	C	0.760704	-0.140084	-0.000199
N36	N	0.773608	-0.365848	0.042405
N37	N	0.772598	-0.435026	0.042403
C38	C	0.819187	-0.477253	-0.000225
N39	N	0.866835	-0.447689	-0.042841
N40	N	0.867847	-0.378504	-0.042836
C41	C	0.821243	-0.336807	-0.000216
C42	C	0.880800	-0.601146	-0.000251
C43	C	0.879731	-0.673971	-0.000268
C44	C	0.753122	-0.656922	-0.000237
C45	C	0.754193	-0.584099	-0.000228
C46	C	0.818034	-0.556216	-0.000231
C47	C	0.947227	0.087475	-0.000258
C48	C	1.024330	0.088609	-0.000283
C49	C	0.814762	0.220638	-0.000242
C50	C	0.815896	0.298143	-0.000253
N51	N	0.820199	0.092963	0.177931
N52	N	0.820247	0.092974	-0.178380
C53	C	0.867579	0.045372	0.217312
C54	C	0.867583	0.045368	0.296114
C55	C	0.820213	0.092969	0.335531
C56	C	0.772824	0.140564	0.296140
C57	C	0.772817	0.140561	0.217340
C58	C	0.810919	0.156585	0.460362
C59	C	0.810931	0.156589	0.539161
C60	C	0.820232	0.092977	0.578578
C61	C	0.829535	0.029359	0.539185
C62	C	0.829528	0.029356	0.460385
C63	C	0.820216	0.092977	0.420977
C64	C	0.867619	0.045378	0.703405
C65	C	0.867618	0.045374	0.782208
C66	C	0.772863	0.140575	0.782233
C67	C	0.772861	0.140573	0.703431
C68	C	0.820242	0.092976	0.664022
H69	H	0.594003	0.212680	-0.000201
C70	C	0.919704	-0.006983	0.339443
H71	H	0.947923	-0.035328	0.304686
H72	H	0.894815	-0.035983	0.370207
H73	H	0.948540	0.018071	0.370158
C74	C	0.720702	0.192919	0.174018
H75	H	0.692492	0.221271	0.208777
H76	H	0.691866	0.167877	0.143296
H77	H	0.745601	0.221921	0.143262
C78	C	0.230480	0.194215	0.091858
H79	H	0.258549	0.223720	0.117978
H80	H	0.205416	0.169659	0.127124
H81	H	0.198480	0.221994	0.060226
C82	C	0.948776	-0.723393	-0.000279
H83	H	0.986947	-0.696353	-0.000273
H84	H	0.951004	-0.752146	-0.043938
H85	H	0.950978	-0.752164	0.043380
C86	C	0.800704	0.226565	0.582485
H87	H	0.795152	0.264449	0.547726
H88	H	0.840381	0.230342	0.613200
H89	H	0.760256	0.228080	0.613249
C90	C	0.002913	0.222179	-0.000304
H91	H	-0.044207	0.212355	-0.000303
H92	H	0.011327	0.248498	-0.043963
H93	H	0.011281	0.248501	0.043354
H94	H	0.906198	0.006619	0.671317
H95	H	0.932783	-0.578442	-0.000257
C96	C	0.720756	0.192936	0.660106
H97	H	0.727534	0.186116	0.607530
H98	H	0.728162	0.239513	0.673007
H99	H	0.674421	0.185474	0.673043
H100	H	0.837108	-0.022440	0.571277
C101	C	0.919740	-0.006978	0.825529
H102	H	0.947960	-0.035319	0.790769
H103	H	0.894853	-0.035983	0.856290
H104	H	0.948576	0.018075	0.856246
C105	C	0.257841	-0.010518	-0.092347
H106	H	0.293672	-0.039084	-0.118450
H107	H	0.226385	0.013199	-0.127627
H108	H	0.233318	-0.039125	-0.060719
H109	H	0.937355	-0.266541	-0.000239
C110	C	0.382609	0.196454	0.091883
H111	H	0.346783	0.225010	0.118004
H112	H	0.407136	0.225063	0.060268
H113	H	0.414063	0.172721	0.127160
C114	C	0.409969	-0.008267	-0.092330
H115	H	0.381900	-0.037761	-0.118465
H116	H	0.441971	-0.036046	-0.060709
H117	H	0.435029	0.016301	-0.127595
C118	C	0.449799	0.228765	-0.000227
H119	H	0.402680	0.218937	-0.000231
H120	H	0.458214	0.255085	-0.043885
H121	H	0.458162	0.255087	0.043432
H122	H	0.701147	-0.679631	-0.000228
H123	H	0.177864	-0.024802	-0.000244
C124	C	0.800693	0.226563	0.417012
H125	H	0.795166	0.264451	0.451756
H126	H	0.760245	0.228084	0.386291
H127	H	0.840372	0.230329	0.386253
H128	H	0.046433	-0.026738	-0.000317
H129	H	0.493320	-0.020148	-0.000193
C130	C	0.720757	0.192935	0.825582
H131	H	0.727549	0.186123	0.878154
H132	H	0.674425	0.185471	0.812694
H133	H	0.728160	0.239516	0.812652
H134	H	0.624755	-0.018218	-0.000148
C135	C	0.685151	-0.534675	-0.000202
H136	H	0.646980	-0.561714	-0.000188
H137	H	0.682940	-0.505901	-0.043854
H138	H	0.682933	-0.505926	0.043464
C139	C	0.155051	0.224424	-0.000278
H140	H	0.204599	0.216024	-0.000276
H141	H	0.139675	0.250392	0.043374
H142	H	0.139718	0.250396	-0.043944
H143	H	0.939293	-0.134431	-0.000220
C144	C	0.720721	0.192924	0.339496
H145	H	0.727516	0.186115	0.392067
H146	H	0.674389	0.185461	0.326612
H147	H	0.728124	0.239505	0.326562
C148	C	0.689418	-0.243580	-0.000189
H149	H	0.652189	-0.206389	-0.000188
H150	H	0.686359	-0.271644	0.043465
H151	H	0.686381	-0.271624	-0.043852
C152	C	0.691662	-0.090657	-0.000184
H153	H	0.701441	-0.043293	-0.000187
H154	H	0.665466	-0.099099	0.043475
H155	H	0.665488	-0.099079	-0.043843
C156	C	0.919689	-0.006991	0.173966
H157	H	0.947903	-0.035340	0.208712
H158	H	0.948521	0.018047	0.143200
H159	H	0.894785	-0.035997	0.143252
H160	H	0.837101	-0.022444	0.428315
