data_functionalizedCrystal
_audit_creation_method	'MofGen! by Chris Wilmer'
_symmetry_space_group_name_H-M	'P1'
_symmetry_Int_Tables_number	1
_symmetry_cell_setting	triclinic
loop_
_symmetry_equiv_pos_as_xyz
  x,y,z
_cell_length_a	16.120530
_cell_length_b	21.295417
_cell_length_c	16.120297
_cell_angle_alpha	92.867002
_cell_angle_beta	90.128140
_cell_angle_gamma	87.125778
loop_
_atom_site_label
_atom_site_type_symbol
_atom_site_fract_x
_atom_site_fract_y
_atom_site_fract_z
Zn1	Zn	1.247391	-0.318915	-0.534523
Zn2	Zn	1.580724	0.014418	-0.201190
Zn3	Zn	1.914057	0.347751	0.132143
Zn4	Zn	1.254326	-0.419125	-0.395453
Zn5	Zn	1.587659	-0.085792	-0.062120
Zn6	Zn	1.920993	0.247542	0.271214
Zn7	Zn	1.115383	-0.308278	-0.388443
Zn8	Zn	1.448716	0.025055	-0.055109
Zn9	Zn	1.782049	0.358389	0.278224
Zn10	Zn	1.108282	-0.418545	-0.527422
Zn11	Zn	1.441616	-0.085212	-0.194089
Zn12	Zn	1.774949	0.248121	0.139244
O13	O	1.181345	-0.366216	-0.461460
O14	O	1.514679	-0.032883	-0.128127
O15	O	1.848012	0.300451	0.205206
O16	O	1.364676	-0.336903	-0.521981
O17	O	1.698010	-0.003569	-0.188648
O18	O	2.031343	0.329764	0.144686
O19	O	1.241769	-0.400212	-0.278158
O20	O	1.575102	-0.066878	0.055175
O21	O	1.908435	0.266455	0.388509
O22	O	1.132963	-0.221604	-0.407859
O23	O	1.466296	0.111729	-0.074526
O24	O	1.799630	0.445063	0.258808
O25	O	1.369771	-0.410526	-0.419806
O26	O	1.703105	-0.077193	-0.086473
O27	O	2.036438	0.256140	0.246860
O28	O	1.229949	-0.229419	-0.515184
O29	O	1.563282	0.103914	-0.181850
O30	O	1.896615	0.437248	0.151483
O31	O	1.139688	-0.318773	-0.273008
O32	O	1.473021	0.014560	0.060326
O33	O	1.806354	0.347894	0.393659
O34	O	0.998075	-0.318211	-0.400973
O35	O	1.331409	0.015122	-0.067640
O36	O	1.664742	0.348456	0.265694
O37	O	1.120862	-0.409538	-0.644729
O38	O	1.454195	-0.076205	-0.311396
O39	O	1.787528	0.257128	0.021938
O40	O	0.992859	-0.399224	-0.503081
O41	O	1.326192	-0.065890	-0.169747
O42	O	1.659525	0.267443	0.163586
O43	O	1.223064	-0.336340	-0.649946
O44	O	1.556397	-0.003007	-0.316613
O45	O	1.889730	0.330326	0.016720
O46	O	1.234884	-0.507133	-0.412921
O47	O	1.568217	-0.173800	-0.079587
O48	O	1.901550	0.159533	0.253746
O49	O	1.127586	-0.506707	-0.509878
O50	O	1.460920	-0.173374	-0.176545
O51	O	1.794253	0.159959	0.156789
C52	C	0.965295	-0.357501	-0.450496
C53	C	1.298628	-0.024167	-0.117163
C54	C	1.631961	0.309166	0.216171
C55	C	0.872866	-0.353788	-0.445825
C56	C	1.206200	-0.020455	-0.112492
C57	C	1.539533	0.312879	0.220841
C58	C	0.703638	-0.346996	-0.437305
C59	C	1.036971	-0.013662	-0.103971
C60	C	1.370304	0.319671	0.229362
C61	C	0.659891	-0.385485	-0.485677
C62	C	0.993224	-0.052151	-0.152343
C63	C	1.326557	0.281182	0.180990
C64	C	0.565726	-0.381705	-0.480936
C65	C	0.899059	-0.048372	-0.147602
C66	C	1.232393	0.284961	0.185731
C67	C	0.797811	-0.350774	-0.442045
C68	C	1.131144	-0.017441	-0.108711
C69	C	1.464478	0.315893	0.224622
C70	C	1.181239	-0.529761	-0.461409
C71	C	1.514572	-0.196428	-0.128075
C72	C	1.847905	0.136905	0.205258
C73	C	1.181268	-0.599731	-0.461418
C74	C	1.514601	-0.266398	-0.128085
C75	C	1.847934	0.066936	0.205248
C76	C	1.237182	-0.632802	-0.410990
C77	C	1.570515	-0.299469	-0.077656
C78	C	1.903849	0.033864	0.255677
C79	C	1.237220	-0.698547	-0.411010
C80	C	1.570553	-0.365214	-0.077677
C81	C	1.903887	-0.031881	0.255656
C82	C	1.181329	-0.731217	-0.461450
C83	C	1.514663	-0.397884	-0.128117
C84	C	1.847996	-0.064550	0.205216
C85	C	1.125411	-0.698138	-0.511889
C86	C	1.458744	-0.364805	-0.178556
C87	C	1.792078	-0.031471	0.154778
C88	C	1.125380	-0.632395	-0.511873
C89	C	1.458713	-0.299062	-0.178540
C90	C	1.792047	0.034272	0.154793
N91	N	1.108264	-0.831783	-0.464098
N92	N	1.441598	-0.498450	-0.130764
N93	N	1.774931	-0.165116	0.202569
N94	N	1.108296	-0.894236	-0.464108
N95	N	1.441629	-0.560903	-0.130775
N96	N	1.774963	-0.227569	0.202558
C97	C	1.181420	-0.929297	-0.461503
C98	C	1.514754	-0.595964	-0.128169
C99	C	1.848087	-0.262631	0.205164
N100	N	1.254514	-0.899546	-0.458870
N101	N	1.587847	-0.566212	-0.125537
N102	N	1.921180	-0.232879	0.207797
N103	N	1.254481	-0.837087	-0.458855
N104	N	1.587814	-0.503753	-0.125522
N105	N	1.921148	-0.170420	0.207811
C106	C	1.181357	-0.802504	-0.461473
C107	C	1.514690	-0.469171	-0.128140
C108	C	1.848024	-0.135838	0.205193
C109	C	1.237380	-1.033657	-0.411094
C110	C	1.570714	-0.700323	-0.077760
C111	C	1.904047	-0.366990	0.255573
C112	C	1.237419	-1.099403	-0.411120
C113	C	1.570753	-0.766070	-0.077787
C114	C	1.904086	-0.432736	0.255546
C115	C	1.125603	-1.098992	-0.511994
C116	C	1.458936	-0.765659	-0.178661
C117	C	1.792270	-0.432325	0.154672
C118	C	1.125571	-1.033248	-0.511973
C119	C	1.458904	-0.699914	-0.178639
C120	C	1.792238	-0.366581	0.154694
C121	C	1.181459	-1.000584	-0.461518
C122	C	1.514792	-0.667250	-0.128184
C123	C	1.848126	-0.333917	0.205149
C124	C	1.398240	-0.374966	-0.472468
C125	C	1.731573	-0.041632	-0.139134
C126	C	2.064906	0.291701	0.194199
C127	C	1.490667	-0.378694	-0.477159
C128	C	1.824001	-0.045361	-0.143825
C129	C	2.157334	0.287972	0.189508
C130	C	1.170397	-0.374061	-0.678353
C131	C	1.503730	-0.040728	-0.345020
C132	C	1.837064	0.292605	-0.011687
C133	C	1.165731	-0.377404	-0.770780
C134	C	1.499065	-0.044071	-0.437447
C135	C	1.832398	0.289262	-0.104114
C136	C	1.181474	-0.202033	-0.461531
C137	C	1.514808	0.131300	-0.128198
C138	C	1.848141	0.464633	0.205135
C139	C	1.181529	-0.132068	-0.461562
C140	C	1.514863	0.201265	-0.128228
C141	C	1.848196	0.534598	0.205105
C142	C	1.157183	-0.383493	-0.940004
C143	C	1.490516	-0.050160	-0.606671
C144	C	1.823850	0.283174	-0.273338
C145	C	1.205672	-0.348757	-0.983777
C146	C	1.539005	-0.015423	-0.650443
C147	C	1.872339	0.317910	-0.317110
C148	C	1.200915	-0.352144	-1.077938
C149	C	1.534249	-0.018811	-0.744605
C150	C	1.867582	0.314522	-0.411272
C151	C	1.161938	-0.380106	-0.845834
C152	C	1.495272	-0.046773	-0.512500
C153	C	1.828605	0.286561	-0.179167
C154	C	1.192299	-0.358358	-0.245413
C155	C	1.525632	-0.025024	0.087920
C156	C	1.858966	0.308309	0.421253
C157	C	1.197126	-0.354844	-0.152995
C158	C	1.530459	-0.021510	0.180338
C159	C	1.863792	0.311823	0.513672
H160	H	0.693157	-0.421274	-0.530651
H161	H	1.026491	-0.087941	-0.197317
H162	H	1.359824	0.245393	0.136016
F163	F	1.264616	-0.306571	-0.940328
F164	F	1.597949	0.026762	-0.606995
F165	F	1.931283	0.360095	-0.273662
H166	H	1.282890	-1.007061	-0.370013
H167	H	1.616224	-0.673728	-0.036679
H168	H	1.949557	-0.340394	0.296654
F169	F	0.660159	-0.300219	-0.378525
F170	F	0.993492	0.033115	-0.045192
F171	F	1.326825	0.366448	0.288142
F172	F	1.098259	-0.425689	-0.983453
F173	F	1.431593	-0.092355	-0.650120
F174	F	1.764926	0.240978	-0.316786
H175	H	1.282691	-0.606210	-0.369908
H176	H	1.616024	-0.272876	-0.036575
H177	H	1.949358	0.060457	0.296758
H178	H	1.282755	-0.725479	-0.369945
H179	H	1.616089	-0.392146	-0.036612
H180	H	1.949422	-0.058813	0.296721
H181	H	1.079906	-0.724742	-0.552959
H182	H	1.413239	-0.391409	-0.219626
H183	H	1.746572	-0.058076	0.113707
H184	H	1.282957	-1.126329	-0.370057
H185	H	1.616290	-0.792996	-0.036724
H186	H	1.949623	-0.459662	0.296610
F187	F	1.065866	-0.597197	-0.565549
F188	F	1.399199	-0.263864	-0.232216
F189	F	1.732532	0.069470	0.101118
H190	H	1.080099	-1.125592	-0.553068
H191	H	1.413433	-0.792258	-0.219734
H192	H	1.746766	-0.458925	0.113599
F193	F	1.066055	-0.998049	-0.565643
F194	F	1.399389	-0.664716	-0.232310
F195	F	1.732722	-0.331382	0.101024
