data_functionalizedCrystal
_audit_creation_method	'MofGen! by Chris Wilmer'
_symmetry_space_group_name_H-M	'P1'
_symmetry_Int_Tables_number	1
_symmetry_cell_setting	triclinic
loop_
_symmetry_equiv_pos_as_xyz
  x,y,z
_cell_length_a	11.026607
_cell_length_b	14.044220
_cell_length_c	10.065875
_cell_angle_alpha	99.592716
_cell_angle_beta	79.302338
_cell_angle_gamma	100.887447
loop_
_atom_site_label
_atom_site_type_symbol
_atom_site_fract_x
_atom_site_fract_y
_atom_site_fract_z
O1	O	1.670494	0.393284	-0.113515
O2	O	1.312203	0.347236	-0.113514
O3	O	1.485969	0.231359	-0.113501
O4	O	1.496729	0.509161	-0.113528
O5	O	1.452846	0.253569	0.113485
O6	O	1.279081	0.369446	0.113472
O7	O	1.637372	0.415494	0.113471
Zn8	Zn	1.452967	0.395996	0.149510
Zn9	Zn	1.496608	0.366734	-0.149554
O10	O	1.463606	0.531371	0.113458
C11	C	1.249512	0.349846	-0.000021
C12	C	1.112056	0.324521	-0.000020
C13	C	1.464699	0.206346	-0.000008
C14	C	1.450655	0.098724	-0.000006
C15	C	1.045821	0.394445	-0.000028
C16	C	0.903753	0.368273	-0.000027
C17	C	1.424983	-0.098320	-0.000025
C18	C	1.524588	-0.138958	-0.000030
C19	C	1.510304	-0.248600	-0.000041
C20	C	1.439265	0.011332	-0.000015
C21	C	1.700064	0.412884	-0.000025
C22	C	1.837520	0.438207	-0.000035
C23	C	1.484876	0.556383	-0.000039
C24	C	1.498921	0.664004	-0.000049
N25	N	1.423193	0.415967	0.353614
N26	N	1.526391	0.346756	-0.353657
C27	C	1.486240	0.373675	0.421397
C28	C	1.463335	0.389055	0.578563
H29	H	1.094290	0.473686	-0.000028
H30	H	1.620605	-0.091415	-0.000122
H31	H	0.885983	0.517454	-0.000034
H32	H	1.352254	0.463557	0.411935
O33	O	1.054432	0.229942	0.000046
C34	C	1.143606	0.170005	0.000015
H35	H	1.227920	0.216140	0.042985
H36	H	1.174790	0.135584	-0.108881
C37	C	0.981442	0.032045	0.036258
C38	C	1.084993	0.088708	0.089046
H39	H	0.945287	-0.018106	0.091171
H40	H	0.921363	0.072424	0.036274
H41	H	1.007444	0.003370	-0.054488
H42	H	1.058988	0.117391	0.179783
H43	H	1.145067	0.048331	0.089047
O44	O	0.845925	0.273723	-0.000262
C45	C	0.788644	0.243425	-0.117801
H46	H	0.836681	0.291030	-0.199972
H47	H	0.685517	0.251056	-0.091222
C48	C	0.741493	0.077243	-0.070177
C49	C	0.800500	0.135707	-0.171104
H50	H	0.748800	0.010796	-0.103054
H51	H	0.780080	0.097655	0.009015
H52	H	0.655559	0.083613	-0.048037
H53	H	0.886435	0.129345	-0.193230
H54	H	0.761927	0.115291	-0.250301
H55	H	1.328988	-0.145870	-0.000029
O56	O	1.570746	0.316849	0.351653
C57	C	1.509894	0.238009	0.269004
H58	H	1.420486	0.258034	0.247785
H59	H	1.485612	0.170524	0.323947
C60	C	1.706811	0.191405	0.159224
C61	C	1.597004	0.216003	0.133154
H62	H	1.760545	0.177826	0.075428
H63	H	1.747809	0.244518	0.214910
H64	H	1.686559	0.135170	0.205014
H65	H	1.617255	0.272243	0.087381
H66	H	1.556011	0.162898	0.077457
H67	H	1.392391	0.436648	0.636878
H68	H	1.597325	0.299155	0.588028
