data_functionalizedCrystal
_audit_creation_method	'MofGen! by Chris Wilmer'
_symmetry_space_group_name_H-M	'P1'
_symmetry_Int_Tables_number	1
_symmetry_cell_setting	triclinic
loop_
_symmetry_equiv_pos_as_xyz
  x,y,z
_cell_length_a	10.654550
_cell_length_b	14.971491
_cell_length_c	13.448316
_cell_angle_alpha	89.991393
_cell_angle_beta	90.006836
_cell_angle_gamma	95.949431
loop_
_atom_site_label
_atom_site_type_symbol
_atom_site_fract_x
_atom_site_fract_y
_atom_site_fract_z
O1	O	-0.163690	1.187835	-0.082735
O2	O	-0.183282	0.927542	-0.082728
O3	O	0.009317	1.063673	-0.082724
O4	O	-0.356289	1.051704	-0.082739
O5	O	0.009329	1.063656	0.082659
O6	O	-0.183270	0.927525	0.082656
O7	O	-0.163678	1.187818	0.082649
Cu8	Cu	-0.173473	1.057670	0.097753
Cu9	Cu	-0.173487	1.057690	-0.097832
O10	O	-0.356277	1.051687	0.082645
C11	C	-0.182399	0.894204	-0.000035
C12	C	-0.179769	0.794893	-0.000032
C13	C	-0.168431	0.367135	-0.090205
C14	C	-0.170898	0.460449	-0.090202
C15	C	-0.172133	0.507092	-0.000048
C16	C	-0.170888	0.460418	0.090109
C17	C	-0.168413	0.367107	0.090104
C18	C	-0.176051	0.654908	0.090112
C19	C	-0.178529	0.748225	0.090117
C20	C	-0.178536	0.748250	-0.090193
C21	C	-0.176060	0.654939	-0.090198
C22	C	-0.174818	0.608271	-0.000041
C23	C	-0.403072	1.052574	-0.000049
C24	C	-0.542487	1.055204	-0.000055
C25	C	-0.622830	0.975052	-0.000043
C26	C	-0.753825	0.977528	-0.000036
C27	C	-0.724119	1.140315	-0.000048
C28	C	-0.593127	1.137838	-0.000062
C29	C	-0.572190	0.892418	-0.000035
C30	C	-0.652535	0.812260	-0.000022
C31	C	-0.783529	0.814736	-0.000015
C32	C	-0.834179	0.897370	-0.000021
C33	C	0.056112	1.062786	-0.000033
C34	C	0.195527	1.060157	-0.000033
C35	C	-0.164561	1.221156	-0.000046
C36	C	-0.167191	1.320467	-0.000056
N37	N	-0.173462	1.057662	0.235317
N38	N	-0.173488	1.057705	-0.235397
C39	C	-0.088215	1.117960	0.287359
C40	C	-0.088213	1.117966	0.391463
C41	C	-0.173467	1.057677	0.443522
C42	C	-0.258719	0.997372	0.391473
C43	C	-0.258713	0.997363	0.287372
C44	C	-0.258728	0.997397	0.608453
C45	C	-0.258736	0.997407	0.712561
C46	C	-0.088228	1.118000	0.712544
C47	C	-0.088222	1.117990	0.608443
C48	C	-0.173476	1.057687	0.556401
H49	H	-0.175063	0.616964	-0.163610
H50	H	-0.179549	0.786251	-0.163602
H51	H	-0.167434	0.329164	-0.163619
F52	F	-0.179836	0.797865	0.186069
F53	F	-0.172212	0.510113	-0.186151
F54	F	-0.174716	0.605243	0.186068
F55	F	-0.598628	0.724319	-0.000029
H56	H	-0.018798	1.167064	0.433835
H57	H	-0.171886	0.498403	0.163514
H58	H	-0.527709	1.203104	-0.000077
H59	H	-0.848943	0.749467	-0.000014
H60	H	-0.167416	0.329109	0.163513
F61	F	-0.432776	0.889776	-0.000038
F62	F	-0.973597	0.900001	-0.000024
H63	H	-0.018796	1.167058	0.244979
F64	F	-0.778029	1.228254	-0.000052
H65	H	-0.018808	1.167086	0.566056
H66	H	-0.018812	1.167100	0.754923
H67	H	-0.328129	0.948261	0.245000
H68	H	-0.328157	0.948313	0.754943
F69	F	-0.349462	0.933212	0.553070
F70	F	-0.349448	0.933203	0.446879
