data_functionalizedCrystal
_audit_creation_method	'MofGen! by Chris Wilmer'
_symmetry_space_group_name_H-M	'P1'
_symmetry_Int_Tables_number	1
_symmetry_cell_setting	triclinic
loop_
_symmetry_equiv_pos_as_xyz
  x,y,z
_cell_length_a	17.699083
_cell_length_b	15.944551
_cell_length_c	16.776229
_cell_angle_alpha	89.992397
_cell_angle_beta	89.998886
_cell_angle_gamma	83.390877
loop_
_atom_site_label
_atom_site_type_symbol
_atom_site_fract_x
_atom_site_fract_y
_atom_site_fract_z
O1	O	1.004260	0.106222	-0.066178
O2	O	0.783905	0.120042	-0.066204
O3	O	0.900100	-0.009156	-0.066183
O4	O	0.888065	0.235419	-0.066199
O5	O	0.900084	-0.009164	0.066393
O6	O	0.783890	0.120034	0.066372
O7	O	1.004244	0.106214	0.066398
Zn8	Zn	0.894065	0.113123	0.087435
Zn9	Zn	0.894085	0.113133	-0.087241
O10	O	0.888050	0.235411	0.066377
C11	C	0.755700	0.119542	0.000080
C12	C	0.671679	0.118057	0.000071
C13	C	0.899593	-0.040453	0.000105
C14	C	0.898095	-0.133696	0.000105
C15	C	0.623187	0.193893	0.000066
C16	C	0.544242	0.192492	0.000076
C17	C	0.513789	0.115254	0.000086
C18	C	0.562287	0.039412	0.000093
C19	C	0.641231	0.040814	0.000088
C20	C	0.243914	0.033758	0.000113
C21	C	0.164964	0.032362	0.000115
C22	C	0.146925	0.185436	0.000101
C23	C	0.225869	0.186837	0.000096
C24	C	0.274360	0.110996	0.000108
C25	C	0.359962	0.112516	0.000098
C26	C	0.428189	0.113733	0.000090
C27	C	0.822492	-0.348393	0.000085
C28	C	0.857592	-0.409488	0.065458
C29	C	0.895385	-0.304416	0.000099
C30	C	0.857624	-0.409464	-0.065252
C31	C	0.892762	-0.469323	0.000089
C32	C	0.930505	-0.364283	0.065525
C33	C	0.930527	-0.364252	-0.065244
C34	C	0.965680	-0.425329	0.000145
C35	C	0.896894	-0.209417	0.000105
C36	C	0.891259	-0.564321	0.000089
C37	C	1.032450	0.106713	0.000112
C38	C	1.116471	0.108199	0.000116
C39	C	0.888557	0.266708	0.000087
C40	C	0.890055	0.359951	0.000082
N41	N	0.894056	0.113115	0.206646
N42	N	0.894099	0.113134	-0.206452
C43	C	0.945523	0.055930	0.248372
C44	C	0.945527	0.055929	0.331824
C45	C	0.894068	0.113118	0.373549
C46	C	0.842595	0.170306	0.331816
C47	C	0.842588	0.170302	0.248366
C48	C	0.842623	0.170323	0.668364
C49	C	0.842636	0.170324	0.751820
C50	C	0.945562	0.055949	0.751822
C51	C	0.945555	0.055945	0.668372
C52	C	0.894080	0.113130	0.626647
C53	C	0.894075	0.113129	0.536158
C54	C	0.894076	0.113124	0.464036
H55	H	0.647975	0.256789	0.000058
C56	C	0.785975	0.233209	0.202464
C57	C	0.729396	0.296145	0.248356
C58	C	0.672779	0.359051	0.202456
C59	C	0.672739	0.359020	0.110664
C60	C	0.729320	0.296081	0.064766
C61	C	0.785938	0.233175	0.110667
H62	H	0.729424	0.296171	0.316311
H63	H	0.630894	0.405643	0.236433
H64	H	0.630827	0.405587	0.076686
H65	H	0.729293	0.296056	-0.003189
H66	H	0.827822	0.186584	0.076690
C67	C	0.740757	-0.303218	0.000158
C68	C	0.713260	-0.243908	-0.069009
C69	C	0.631528	-0.198731	-0.068932
C70	C	0.577293	-0.212865	0.000313
C71	C	0.604788	-0.272178	0.069486
C72	C	0.686520	-0.317354	0.069409
H73	H	0.753410	-0.233443	-0.120273
H74	H	0.611175	-0.154824	-0.120138
H75	H	0.516790	-0.179422	0.000371
H76	H	0.564639	-0.282643	0.120750
H77	H	0.706874	-0.361262	0.120615
H78	H	0.680713	-0.020940	0.000091
H79	H	0.961304	-0.344360	0.120853
C80	C	1.002180	-0.006963	0.797721
C81	C	1.058787	-0.069865	0.751824
C82	C	1.115406	-0.132774	0.797720
C83	C	1.115418	-0.132781	0.889512
C84	C	1.058809	-0.069877	0.935414
C85	C	1.002190	-0.006969	0.889519
H86	H	1.058780	-0.069861	0.683869
H87	H	1.157312	-0.179339	0.763740
H88	H	1.157331	-0.179350	0.923487
H89	H	1.058816	-0.069881	1.003369
H90	H	0.960285	0.039597	0.923499
H91	H	0.107434	0.247189	0.000096
H92	H	1.026238	-0.458615	0.000189
C93	C	0.490901	0.275913	0.000074
C94	C	0.524396	0.360873	0.000061
C95	C	0.471055	0.444299	0.000063
C96	C	0.384219	0.442764	0.000079
C97	C	0.350719	0.357801	0.000092
C98	C	0.404060	0.274375	0.000090
H99	H	0.588682	0.362012	0.000049
H100	H	0.495855	0.507194	0.000053
H101	H	0.344733	0.504520	0.000081
H102	H	0.286434	0.356662	0.000104
H103	H	0.379261	0.211480	0.000100
C104	C	0.786022	0.233231	0.797719
C105	C	0.699839	0.231929	0.786266
C106	C	0.643230	0.294833	0.832165
C107	C	0.672804	0.359038	0.889518
C108	C	0.758991	0.360342	0.900975
C109	C	0.815601	0.297438	0.855075
H110	H	0.677942	0.184399	0.743807
H111	H	0.579428	0.293867	0.823684
H112	H	0.630898	0.405603	0.923496
H113	H	0.780888	0.407872	0.943433
H114	H	0.879402	0.298404	0.863556
C115	C	0.972151	-0.337131	-0.139898
C116	C	1.004135	-0.403752	-0.201289
C117	C	1.045751	-0.376627	-0.275951
C118	C	1.055384	-0.282883	-0.289222
C119	C	1.023399	-0.216256	-0.227828
C120	C	0.981783	-0.243380	-0.153166
H121	H	0.997005	-0.473153	-0.191467
H122	H	1.069428	-0.425950	-0.321399
H123	H	1.086191	-0.262804	-0.344491
H124	H	1.030529	-0.146855	-0.237650
H125	H	0.958106	-0.194058	-0.107719
C126	C	0.297244	-0.049668	0.000114
C127	C	0.293826	-0.113013	0.068957
C128	C	0.347158	-0.196444	0.068956
C129	C	0.403908	-0.216531	0.000110
C130	C	0.407328	-0.153185	-0.068738
C131	C	0.353996	-0.069754	-0.068737
H132	H	0.251814	-0.098145	0.119926
H133	H	0.344626	-0.243337	0.119922
H134	H	0.443388	-0.278292	0.000109
H135	H	0.449340	-0.168053	-0.119707
H136	H	0.356528	-0.022861	-0.119703
H137	H	0.537486	-0.023476	0.000112
H138	H	0.140173	-0.030538	0.000124
C139	C	0.815972	-0.436510	-0.139915
C140	C	0.744555	-0.482507	-0.130992
C141	C	0.702897	-0.509549	-0.205651
C142	C	0.732657	-0.490595	-0.289232
C143	C	0.804079	-0.444595	-0.298158
C144	C	0.845736	-0.417553	-0.223500
H145	H	0.722521	-0.496540	-0.069117
H146	H	0.650027	-0.543601	-0.199042
H147	H	0.701820	-0.510613	-0.344499
H148	H	0.826112	-0.430562	-0.360034
H149	H	0.898607	-0.383501	-0.230108
C150	C	0.815934	-0.436578	0.140108
C151	C	0.782707	-0.369747	0.200723
C152	C	0.741044	-0.396832	0.275369
C153	C	0.732608	-0.490747	0.289401
C154	C	0.765837	-0.557584	0.228785
C155	C	0.807500	-0.530499	0.154138
H156	H	0.788950	-0.300220	0.190337
H157	H	0.716446	-0.347355	0.320241
H158	H	0.701767	-0.510797	0.344659
H159	H	0.759594	-0.627111	0.239171
H160	H	0.832098	-0.579976	0.109266
C161	C	1.002131	-0.006981	0.202480
C162	C	1.000860	-0.102630	0.213971
C163	C	1.057467	-0.165545	0.168082
C164	C	1.115345	-0.132810	0.110701
C165	C	1.116619	-0.037156	0.099207
C166	C	1.060011	0.025759	0.145096
H167	H	0.958012	-0.126867	0.256451
H168	H	1.056524	-0.236355	0.176591
H169	H	1.157250	-0.179383	0.076731
H170	H	1.159466	-0.012919	0.056727
H171	H	1.060954	0.096569	0.136587
C172	C	1.002143	-0.006971	0.377728
C173	C	1.058770	-0.069858	0.331840
C174	C	1.115387	-0.132760	0.377745
C175	C	1.115377	-0.132776	0.469537
C176	C	1.058747	-0.069887	0.515430
C177	C	1.002130	-0.006984	0.469525
H178	H	1.058780	-0.069848	0.263885
H179	H	1.157308	-0.179315	0.343771
H180	H	1.157288	-0.179340	0.503519
H181	H	1.058738	-0.069896	0.583385
H182	H	0.960210	0.039571	0.503499
H183	H	0.987460	0.009380	0.634402
H184	H	0.250659	0.249732	0.000085
H185	H	0.800712	0.216886	0.634398
H186	H	0.800692	0.216868	0.365793
