data_functionalizedCrystal
_audit_creation_method	'MofGen! by Chris Wilmer'
_symmetry_space_group_name_H-M	'P1'
_symmetry_Int_Tables_number	1
_symmetry_cell_setting	triclinic
loop_
_symmetry_equiv_pos_as_xyz
  x,y,z
_cell_length_a	6.817900
_cell_length_b	17.982783
_cell_length_c	23.830865
_cell_angle_alpha	81.582029
_cell_angle_beta	88.706969
_cell_angle_gamma	102.448572
loop_
_atom_site_label
_atom_site_type_symbol
_atom_site_fract_x
_atom_site_fract_y
_atom_site_fract_z
V1	V	-3.888172	-0.105618	0.175260
O2	O	-3.883773	0.004863	0.171684
O3	O	-3.835397	-0.209219	0.174292
O4	O	-3.781719	-0.104087	0.251592
O5	O	-3.937822	-0.100997	0.093849
V6	V	-4.379890	-0.092392	0.165495
O7	O	-4.131456	-0.134630	0.196682
O8	O	-4.586803	-0.063380	0.144074
O9	O	-4.209459	0.011209	0.166463
O10	O	-4.501686	-0.202874	0.169071
O11	O	-4.447637	-0.097014	0.246906
O12	O	-4.263136	-0.093924	0.089163
C13	C	-3.681211	-0.234472	0.171587
C14	C	-3.718961	-0.319168	0.171304
C15	C	-3.612740	-0.100364	0.270190
C16	C	-3.606957	-0.099797	0.332593
C17	C	-3.736145	-0.348017	0.119740
C18	C	-3.771633	-0.427599	0.119476
C19	C	-3.789922	-0.478329	0.170777
C20	C	-3.772742	-0.449475	0.222346
C21	C	-3.737269	-0.369896	0.222609
C22	C	-3.915804	-0.770412	0.221285
C23	C	-3.951274	-0.849997	0.221018
C24	C	-3.950168	-0.828115	0.118152
C25	C	-3.914695	-0.748535	0.118416
C26	C	-3.897528	-0.719689	0.169984
C27	C	-3.859052	-0.633397	0.170269
C28	C	-3.828384	-0.564619	0.170492
C29	C	-4.095445	-0.097648	0.070562
C30	C	-4.080188	-0.098224	0.006986
V31	V	-3.795749	-0.103484	-0.087944
O32	O	-3.727998	-0.098862	-0.169355
O33	O	-3.912506	-0.101954	-0.011612
O34	O	-3.966173	-0.207086	-0.088912
O35	O	-3.673960	0.006998	-0.091519
V36	V	-3.287449	-0.090253	-0.097708
O37	O	-3.588833	-0.132494	-0.066522
O38	O	-3.044166	-0.061239	-0.119129
O39	O	-3.393900	-0.091785	-0.174040
O40	O	-3.237803	-0.094874	-0.016297
O41	O	-3.291841	-0.200734	-0.094132
O42	O	-3.340233	0.013347	-0.096740
C43	C	-4.026987	0.036457	0.169167
C44	C	-3.968473	0.121152	0.169453
C45	C	-4.148644	-0.232336	-0.091617
C46	C	-4.207153	-0.317032	-0.091903
C47	C	-3.562879	-0.095509	-0.192638
C48	C	-3.568658	-0.096075	-0.255042
C49	C	-3.783982	-0.103341	0.364778
C50	C	-3.778536	-0.102808	0.423413
C51	C	-3.596066	-0.098737	0.449861
C52	C	-3.419027	-0.095191	0.417671
C53	C	-3.424472	-0.095719	0.359037
C54	C	-3.397064	-0.093062	0.654134
C55	C	-3.391633	-0.092538	0.712773
C56	C	-3.751128	-0.100152	0.718509
C57	C	-3.756573	-0.100679	0.659876
C58	C	-3.579533	-0.097129	0.627690
C59	C	-3.585439	-0.097706	0.564112
C60	C	-3.590161	-0.098166	0.513439
C61	C	-3.494419	0.038598	-0.094034
C62	C	-3.456668	0.123293	-0.093749
C63	C	-4.059690	-0.360690	-0.089230
C64	C	-4.114635	-0.440269	-0.089507
C65	C	-4.317045	-0.476189	-0.092453
C66	C	-4.464518	-0.432524	-0.095128
C67	C	-4.409570	-0.352945	-0.094855
C68	C	-3.618737	0.159190	-0.090811
C69	C	-3.583294	0.238771	-0.090552
C70	C	-3.385781	0.282454	-0.093227
C71	C	-3.223700	0.246553	-0.096167
C72	C	-3.259144	0.166974	-0.096430
H73	H	-3.721238	-0.306716	0.077964
H74	H	-3.356948	0.347252	-0.093012
H75	H	-3.252917	-0.090199	0.627939
C76	C	-3.218315	-0.090715	0.446763
H77	H	-3.240426	-0.090917	0.486294
H78	H	-3.125775	-0.044597	0.430750
H79	H	-3.164932	-0.133886	0.441199
C80	C	-4.687162	-0.472040	-0.098363
H81	H	-4.767135	-0.434645	-0.099919
H82	H	-4.728643	-0.509926	-0.065681
H83	H	-4.703067	-0.495920	-0.131492
H84	H	-3.994531	-0.475812	-0.087323
H85	H	-4.529666	-0.317405	-0.097029
H86	H	-3.280311	-0.092814	0.332830
H87	H	-3.062885	0.282132	-0.098345
H88	H	-3.715292	0.267990	-0.088156
H89	H	-3.894868	-0.331456	-0.086829
C90	C	-3.080853	0.127494	-0.099653
H91	H	-2.958156	0.164911	-0.101202
H92	H	-3.086819	0.103605	-0.132773
H93	H	-3.087565	0.089619	-0.066962
H94	H	-3.779576	0.123633	-0.088632
C95	C	-3.894589	-0.692736	0.061985
H96	H	-3.909926	-0.721316	0.031237
H97	H	-3.765718	-0.658751	0.058150
H98	H	-3.995764	-0.663725	0.061751
C99	C	-3.718356	-0.338161	0.279329
H100	H	-3.734310	-0.379770	0.309845
H101	H	-3.819555	-0.310055	0.283368
H102	H	-3.589511	-0.305089	0.279772
C103	C	-4.377476	-0.563725	-0.092745
H104	H	-4.519143	-0.578870	-0.094884
H105	H	-4.338082	-0.590152	-0.058864
H106	H	-4.312494	-0.576156	-0.124674
C107	C	-3.790515	-0.459329	0.062755
H108	H	-3.774513	-0.417718	0.032240
H109	H	-3.919343	-0.492401	0.062307
H110	H	-3.689298	-0.487435	0.058721
H111	H	-3.966166	-0.891301	0.262796
C112	C	-3.969087	-0.859849	0.061428
H113	H	-3.992857	-0.914510	0.068616
H114	H	-3.848034	-0.839832	0.038540
H115	H	-4.078075	-0.844793	0.042138
H116	H	-3.901803	-0.746935	0.263274
H117	H	-3.932572	-0.106661	0.343249
C118	C	-3.792859	-0.505273	0.278777
H119	H	-3.777561	-0.476692	0.309525
H120	H	-3.691704	-0.534289	0.279016
H121	H	-3.921748	-0.539255	0.282610
C122	C	-3.957287	-0.105154	0.630785
H123	H	-4.061937	-0.107180	0.658351
H124	H	-3.986460	-0.150157	0.613255
H125	H	-3.947298	-0.060868	0.602807
H126	H	-3.922687	-0.105689	0.449615
H127	H	-3.895281	-0.103039	0.744721
H128	H	-3.243035	-0.089221	0.734305
