data_functionalizedCrystal
_audit_creation_method	'MofGen! by Chris Wilmer'
_symmetry_space_group_name_H-M	'P1'
_symmetry_Int_Tables_number	1
_symmetry_cell_setting	triclinic
loop_
_symmetry_equiv_pos_as_xyz
  x,y,z
_cell_length_a	10.654545
_cell_length_b	27.731996
_cell_length_c	26.809956
_cell_angle_alpha	89.998344
_cell_angle_beta	89.991546
_cell_angle_gamma	83.552233
loop_
_atom_site_label
_atom_site_type_symbol
_atom_site_fract_x
_atom_site_fract_y
_atom_site_fract_z
O1	O	1.664968	0.067870	-0.041482
O2	O	1.299214	0.074341	-0.041485
O3	O	1.493485	0.000778	-0.041472
O4	O	1.470697	0.141433	-0.041494
O5	O	1.493448	0.000789	0.041487
O6	O	1.299177	0.074352	0.041475
O7	O	1.664932	0.067882	0.041477
Zn8	Zn	1.482049	0.071118	0.054647
Zn9	Zn	1.482097	0.071104	-0.054655
O10	O	1.470661	0.141444	0.041465
C11	C	1.252418	0.073872	-0.000005
C12	C	1.113034	0.072452	-0.000006
C13	C	1.047538	0.071789	0.045216
C14	C	0.916576	0.070447	0.045216
C15	C	0.916617	0.070432	-0.045231
C16	C	1.047578	0.071770	-0.045231
C17	C	1.492998	-0.017227	0.000009
C18	C	1.491588	-0.070892	0.000014
C19	C	1.482737	-0.403670	-0.045232
C20	C	1.477383	-0.605361	-0.045240
O21	O	1.476654	-0.631442	-0.083699
N22	N	1.476698	-0.630576	-0.000020
C23	C	1.477344	-0.605365	0.045206
O24	O	1.476625	-0.631439	0.083669
C25	C	1.482689	-0.403674	0.045215
C26	C	1.483387	-0.378462	-0.000009
C27	C	1.483434	-0.378457	-0.090451
C28	C	1.484779	-0.328038	-0.090449
C29	C	1.485428	-0.302830	-0.045226
C30	C	1.484732	-0.328042	-0.000006
C31	C	1.483325	-0.378463	0.090440
C32	C	1.484658	-0.328037	0.090438
C33	C	1.485356	-0.302825	0.045215
C34	C	1.486726	-0.252415	0.045219
N35	N	1.487411	-0.227200	-0.000002
C36	C	1.486762	-0.252408	-0.045224
C37	C	1.474540	-0.711256	0.045199
C38	C	1.473206	-0.761678	0.045197
C39	C	1.473243	-0.761671	-0.045250
C40	C	1.474586	-0.711248	-0.045248
C41	C	1.475225	-0.686041	-0.000022
C42	C	1.489589	-0.146523	-0.045215
C43	C	1.490939	-0.096099	-0.045209
C44	C	1.490895	-0.096111	0.045238
C45	C	1.489551	-0.146531	0.045232
C46	C	1.488894	-0.171735	0.000001
O47	O	1.487442	-0.226303	0.083658
O48	O	1.487453	-0.226323	-0.083681
C49	C	1.481392	-0.454089	-0.045234
C50	C	1.480696	-0.479301	-0.000014
C51	C	1.481345	-0.454094	0.045208
C52	C	1.479362	-0.529724	-0.000016
C53	C	1.478713	-0.554931	-0.045239
C54	C	1.479398	-0.529716	-0.090459
C55	C	1.480743	-0.479297	-0.090457
C56	C	1.480660	-0.479309	0.090429
C57	C	1.479316	-0.529728	0.090423
C58	C	1.478667	-0.554936	0.045200
C59	C	1.711728	0.068351	-0.000003
C60	C	1.851111	0.069771	-0.000006
C61	C	1.471147	0.159449	-0.000017
C62	C	1.472557	0.213114	-0.000026
N63	N	1.482025	0.071128	0.129243
N64	N	1.482131	0.071090	-0.129251
C65	C	1.568109	0.038538	0.473875
C66	C	1.568139	0.038531	0.682753
O67	O	1.641279	0.010824	0.709761
N68	N	1.482104	0.071093	0.708871
C69	C	1.396050	0.103657	0.682766
O70	O	1.322864	0.131350	0.709774
C71	C	1.396015	0.103662	0.473889
C72	C	1.482064	0.071101	0.447774
C73	C	1.654150	0.005980	0.447760
C74	C	1.654146	0.005983	0.395543
C75	C	1.568101	0.038546	0.369442
C76	C	1.482060	0.071105	0.395558
C77	C	1.309956	0.136223	0.447785
C78	C	1.309953	0.136221	0.395563
C79	C	1.396002	0.103660	0.369448
C80	C	1.396012	0.103671	0.317240
N81	N	1.482046	0.071109	0.291122
C82	C	1.568091	0.038546	0.317223
C83	C	1.396076	0.103653	0.792429
C84	C	1.396086	0.103653	0.844648
C85	C	1.568173	0.038526	0.844631
C86	C	1.568168	0.038529	0.792411
C87	C	1.482111	0.071091	0.766311
C88	C	1.568078	0.038557	0.207565
C89	C	1.568070	0.038566	0.155345
C90	C	1.395978	0.103691	0.155366
C91	C	1.395990	0.103684	0.207582
C92	C	1.482044	0.071114	0.233681
O93	O	1.322900	0.131359	0.290200
O94	O	1.641248	0.010851	0.290207
C95	C	1.568113	0.038534	0.526091
C96	C	1.482072	0.071093	0.552207
C97	C	1.396027	0.103655	0.526105
C98	C	1.482082	0.071092	0.604425
C99	C	1.568126	0.038530	0.630526
C100	C	1.654161	0.005968	0.604409
C101	C	1.654157	0.005972	0.552192
C102	C	1.309992	0.136218	0.552223
C103	C	1.310004	0.136211	0.604440
C104	C	1.396048	0.103649	0.630541
H105	H	1.100907	0.072308	-0.082058
H106	H	1.724226	-0.020543	0.530933
H107	H	1.325925	0.130204	0.134106
C108	C	1.748803	-0.029852	0.633126
H109	H	1.736465	-0.025190	0.667965
H110	H	1.832506	-0.024308	0.624567
H111	H	1.735798	-0.062161	0.624570
C112	C	1.491699	-0.068369	-0.094956
H113	H	1.491106	-0.090605	-0.121889
H114	H	1.565478	-0.052143	-0.096838
H115	H	1.418958	-0.045255	-0.096836
C116	C	1.119544	0.072534	0.094959
H117	H	1.206920	0.073431	0.088484
H118	H	1.108216	0.044181	0.113545
H119	H	1.087928	0.100457	0.113534
H120	H	1.478875	-0.550249	-0.127281
C121	C	1.478545	-0.557456	0.140172
H122	H	1.479111	-0.535217	0.167103
H123	H	1.551269	-0.580573	0.142059
H124	H	1.404749	-0.573676	0.142048
H125	H	1.482759	-0.398982	0.127266
H126	H	1.488995	-0.167060	0.082056
H127	H	1.481311	-0.458773	-0.127283
C128	C	0.844534	0.069722	0.094959
H129	H	0.902277	0.070323	0.121892
H130	H	0.803588	0.041064	0.096848
H131	H	0.783303	0.097339	0.096832
H132	H	1.638236	0.012013	0.865891
C133	C	0.844608	0.069689	-0.094974
H134	H	0.757229	0.068802	-0.088498
H135	H	0.876217	0.041770	-0.113552
H136	H	0.855939	0.098046	-0.113557
H137	H	1.239934	0.162731	0.625699
H138	H	1.638236	0.012015	0.771151
H139	H	1.472657	-0.782203	0.082022
H140	H	1.239922	0.162733	0.530976
H141	H	1.472716	-0.782203	-0.082072
C142	C	1.488900	-0.174243	-0.094968
H143	H	1.489526	-0.152001	-0.121895
H144	H	1.415132	-0.190473	-0.096863
H145	H	1.561652	-0.197352	-0.096842
C146	C	1.485523	-0.300310	-0.140195
H147	H	1.484929	-0.322549	-0.167125
H148	H	1.559295	-0.284081	-0.142082
H149	H	1.412775	-0.277199	-0.142074
C150	C	1.475260	-0.683535	0.094950
H151	H	1.474674	-0.705779	0.121878
H152	H	1.402528	-0.660421	0.096838
H153	H	1.549048	-0.667311	0.096832
H154	H	1.482901	-0.398976	-0.127279
H155	H	1.638145	0.012051	0.134083
C156	C	1.491602	-0.068376	0.094979
H157	H	1.492487	-0.034736	0.088499
H158	H	1.564623	-0.080080	0.113566
H159	H	1.418103	-0.073195	0.113555
H160	H	1.475153	-0.690723	-0.082073
H161	H	1.485160	-0.307515	0.127267
C162	C	1.662740	0.002733	0.236266
H163	H	1.713983	-0.016652	0.213228
H164	H	1.617988	-0.017554	0.256640
H165	H	1.714672	0.020308	0.256632
C166	C	1.481387	-0.451588	0.140177
H167	H	1.480797	-0.473831	0.167104
H168	H	1.408661	-0.428471	0.142064
H169	H	1.555180	-0.435367	0.142057
H170	H	1.724211	-0.020532	0.374283
C171	C	1.748814	-0.029840	0.476463
H172	H	1.800053	-0.049225	0.453424
H173	H	1.704072	-0.050127	0.496840
H174	H	1.800749	-0.012262	0.496825
C175	C	1.301433	0.139470	0.873369
H176	H	1.250181	0.158857	0.850341
H177	H	1.346186	0.159755	0.893739
H178	H	1.249510	0.121890	0.893741
H179	H	1.325995	0.130170	0.771182
C180	C	1.215311	0.172045	0.476501
H181	H	1.164068	0.191433	0.453470
H182	H	1.260078	0.192329	0.496866
H183	H	1.163378	0.154473	0.496876
H184	H	1.239870	0.162736	0.374315
C185	C	1.301292	0.139482	0.236310
H186	H	1.250028	0.158868	0.213284
H187	H	1.345997	0.159770	0.256694
H188	H	1.249387	0.121880	0.256668
