data_functionalizedCrystal
_audit_creation_method	'MofGen! by Chris Wilmer'
_symmetry_space_group_name_H-M	'P1'
_symmetry_Int_Tables_number	1
_symmetry_cell_setting	triclinic
loop_
_symmetry_equiv_pos_as_xyz
  x,y,z
_cell_length_a	18.215407
_cell_length_b	19.120786
_cell_length_c	18.215399
_cell_angle_alpha	87.529807
_cell_angle_beta	89.982632
_cell_angle_gamma	92.462665
loop_
_atom_site_label
_atom_site_type_symbol
_atom_site_fract_x
_atom_site_fract_y
_atom_site_fract_z
Zn1	Zn	1.112567	-0.279685	-0.403553
Zn2	Zn	1.362567	-0.029685	-0.153553
Zn3	Zn	1.612567	0.220315	0.096447
Zn4	Zn	1.862567	0.470315	0.346447
Zn5	Zn	1.107224	-0.397146	-0.275231
Zn6	Zn	1.357224	-0.147146	-0.025231
Zn7	Zn	1.607224	0.102854	0.224769
Zn8	Zn	1.857224	0.352854	0.474769
Zn9	Zn	0.989499	-0.279702	-0.280505
Zn10	Zn	1.239499	-0.029702	-0.030505
Zn11	Zn	1.489499	0.220298	0.219495
Zn12	Zn	1.739499	0.470298	0.469495
Zn13	Zn	0.984216	-0.397101	-0.398263
Zn14	Zn	1.234216	-0.147101	-0.148263
Zn15	Zn	1.484216	0.102899	0.101737
Zn16	Zn	1.734216	0.352899	0.351737
O17	O	1.048377	-0.338409	-0.339388
O18	O	1.298377	-0.088409	-0.089388
O19	O	1.548377	0.161591	0.160612
O20	O	1.798377	0.411591	0.410612
O21	O	1.214842	-0.295278	-0.386538
O22	O	1.464842	-0.045278	-0.136538
O23	O	1.714842	0.204722	0.113462
O24	O	1.964842	0.454722	0.363462
O25	O	1.091582	-0.381593	-0.172945
O26	O	1.341582	-0.131593	0.077055
O27	O	1.591582	0.118407	0.327055
O28	O	1.841582	0.368407	0.577055
O29	O	1.010272	-0.181409	-0.301249
O30	O	1.260272	0.068591	-0.051249
O31	O	1.510272	0.318591	0.198751
O32	O	1.760272	0.568591	0.448751
O33	O	1.210917	-0.381577	-0.292260
O34	O	1.460917	-0.131577	-0.042260
O35	O	1.710917	0.118423	0.207740
O36	O	1.960917	0.368423	0.457740
O37	O	1.100689	-0.181397	-0.391651
O38	O	1.350689	0.068603	-0.141651
O39	O	1.600689	0.318603	0.108349
O40	O	1.850689	0.568603	0.358349
O41	O	1.005090	-0.295307	-0.176820
O42	O	1.255090	-0.045307	0.073180
O43	O	1.505090	0.204693	0.323180
O44	O	1.755090	0.454693	0.573180
O45	O	0.885815	-0.295263	-0.296119
O46	O	1.135815	-0.045263	-0.046119
O47	O	1.385815	0.204737	0.203881
O48	O	1.635815	0.454737	0.453881
O49	O	1.001268	-0.381500	-0.501951
O50	O	1.251268	-0.131500	-0.251951
O51	O	1.501268	0.118500	-0.001951
O52	O	1.751268	0.368500	0.248049
O53	O	0.881933	-0.381516	-0.382636
O54	O	1.131933	-0.131516	-0.132636
O55	O	1.381933	0.118484	0.117364
O56	O	1.631933	0.368484	0.367364
O57	O	1.095567	-0.295234	-0.505837
O58	O	1.345567	-0.045234	-0.255837
O59	O	1.595567	0.204766	-0.005837
O60	O	1.845567	0.454766	0.244163
O61	O	1.086460	-0.495431	-0.287131
O62	O	1.336460	-0.245431	-0.037131
O63	O	1.586460	0.004569	0.212869
O64	O	1.836460	0.254569	0.462869
O65	O	0.996086	-0.495397	-0.377522
O66	O	1.246086	-0.245397	-0.127522
O67	O	1.496086	0.004603	0.122478
O68	O	1.746086	0.254603	0.372478
C69	C	0.857171	-0.338387	-0.339376
C70	C	1.107171	-0.088387	-0.089376
C71	C	1.357171	0.161613	0.160624
C72	C	1.607171	0.411613	0.410624
C73	C	0.775372	-0.338395	-0.339388
C74	C	1.025372	-0.088395	-0.089388
C75	C	1.275372	0.161605	0.160612
C76	C	1.525372	0.411605	0.410612
C77	C	0.589217	-0.293551	-0.388548
C78	C	0.839217	-0.043551	-0.138548
C79	C	1.089217	0.206449	0.111452
C80	C	1.339217	0.456449	0.361452
C81	C	0.512358	-0.293557	-0.388551
C82	C	0.762358	-0.043557	-0.138551
C83	C	1.012358	0.206443	0.111449
C84	C	1.262358	0.456443	0.361449
C85	C	0.508287	-0.383285	-0.290240
C86	C	0.758287	-0.133285	-0.040240
C87	C	1.008287	0.116715	0.209760
C88	C	1.258287	0.366715	0.459760
C89	C	0.585145	-0.383275	-0.290235
C90	C	0.835145	-0.133275	-0.040235
C91	C	1.085145	0.116725	0.209765
C92	C	1.335145	0.366725	0.459765
C93	C	0.625608	-0.338409	-0.339393
C94	C	0.875608	-0.088409	-0.089393
C95	C	1.125608	0.161591	0.160607
C96	C	1.375608	0.411591	0.410607
C97	C	0.471891	-0.338425	-0.339401
C98	C	0.721891	-0.088425	-0.089401
C99	C	0.971891	0.161575	0.160599
C100	C	1.221891	0.411575	0.410599
C101	C	0.388557	-0.338432	-0.339403
C102	C	0.638557	-0.088432	-0.089403
C103	C	0.888557	0.161568	0.160597
C104	C	1.138557	0.411568	0.410597
C105	C	0.708947	-0.338401	-0.339390
C106	C	0.958947	-0.088401	-0.089390
C107	C	1.208947	0.161599	0.160610
C108	C	1.458947	0.411599	0.410610
C109	C	1.040140	-0.520899	-0.331196
C110	C	1.290140	-0.270899	-0.081196
C111	C	1.540140	-0.020899	0.168804
C112	C	1.790140	0.229101	0.418804
C113	C	1.036684	-0.598970	-0.327716
C114	C	1.286684	-0.348970	-0.077716
C115	C	1.536684	-0.098970	0.172284
C116	C	1.786684	0.151030	0.422284
C117	C	1.082100	-0.635581	-0.373187
C118	C	1.332100	-0.385581	-0.123187
C119	C	1.582100	-0.135581	0.126813
C120	C	1.832100	0.114419	0.376813
C121	C	1.078850	-0.708936	-0.369919
C122	C	1.328850	-0.458936	-0.119919
C123	C	1.578850	-0.208936	0.130081
C124	C	1.828850	0.041064	0.380081
C125	C	1.030186	-0.745679	-0.321175
C126	C	1.280186	-0.495679	-0.071175
C127	C	1.530186	-0.245679	0.178825
C128	C	1.780186	0.004321	0.428825
C129	C	0.984764	-0.709063	-0.275701
C130	C	1.234764	-0.459063	-0.025701
C131	C	1.484764	-0.209063	0.224299
C132	C	1.734764	0.040937	0.474299
C133	C	0.988011	-0.635709	-0.278974
C134	C	1.238011	-0.385709	-0.028974
C135	C	1.488011	-0.135709	0.221026
C136	C	1.738011	0.114291	0.471026
C137	C	1.018024	-0.967165	-0.308940
C138	C	1.268024	-0.717165	-0.058940
C139	C	1.518024	-0.467165	0.191060
C140	C	1.768024	-0.217165	0.441060
C141	C	1.014781	-1.040524	-0.305669
C142	C	1.264781	-0.790524	-0.055669
C143	C	1.514781	-0.540524	0.194331
C144	C	1.764781	-0.290524	0.444331
C145	C	1.108867	-1.040391	-0.399887
C146	C	1.358867	-0.790391	-0.149887
C147	C	1.608867	-0.540391	0.100113
C148	C	1.858867	-0.290391	0.350113
C149	C	1.112113	-0.967036	-0.403153
C150	C	1.362113	-0.717036	-0.153153
C151	C	1.612113	-0.467036	0.096847
C152	C	1.862113	-0.217036	0.346847
C153	C	1.066688	-0.930426	-0.357682
C154	C	1.316688	-0.680426	-0.107682
C155	C	1.566688	-0.430426	0.142318
C156	C	1.816688	-0.180426	0.392318
C157	C	1.026863	-0.820660	-0.317831
C158	C	1.276863	-0.570660	-0.067831
C159	C	1.526863	-0.320660	0.182169
C160	C	1.776863	-0.070660	0.432169
C161	C	1.070007	-0.855447	-0.361030
C162	C	1.320007	-0.605447	-0.111030
C163	C	1.570007	-0.355447	0.138970
C164	C	1.820007	-0.105447	0.388970
C165	C	1.240329	-0.338431	-0.339401
C166	C	1.490329	-0.088431	-0.089401
C167	C	1.740329	0.161569	0.160599
C168	C	1.990329	0.411569	0.410599
C169	C	1.322127	-0.338440	-0.339406
C170	C	1.572127	-0.088440	-0.089406
C171	C	1.822127	0.161560	0.160594
C172	C	2.072127	0.411560	0.410594
C173	C	1.048424	-0.338360	-0.531343
C174	C	1.298424	-0.088360	-0.281343
C175	C	1.548424	0.161640	-0.031343
C176	C	1.798424	0.411640	0.218657
C177	C	1.048444	-0.338339	-0.613143
C178	C	1.298444	-0.088339	-0.363143
C179	C	1.548444	0.161661	-0.113143
C180	C	1.798444	0.411661	0.136857
C181	C	1.056666	-0.155205	-0.347628
C182	C	1.306666	0.094795	-0.097628
C183	C	1.556666	0.344795	0.152372
C184	C	1.806666	0.594795	0.402372
C185	C	1.060198	-0.077135	-0.351140
C186	C	1.310198	0.172865	-0.101140
C187	C	1.560198	0.422865	0.148860
C188	C	1.810198	0.672865	0.398860
C189	C	1.097564	-0.293379	-0.803364
C190	C	1.347564	-0.043379	-0.553364
C191	C	1.597564	0.206621	-0.303364
C192	C	1.847564	0.456621	-0.053364
C193	C	1.097574	-0.293359	-0.880224
C194	C	1.347574	-0.043359	-0.630224
C195	C	1.597574	0.206641	-0.380224
C196	C	1.847574	0.456641	-0.130224
C197	C	0.999380	-0.383191	-0.876165
C198	C	1.249380	-0.133191	-0.626165
C199	C	1.499380	0.116809	-0.376165
C200	C	1.749380	0.366809	-0.126165
C201	C	0.999368	-0.383208	-0.799307
C202	C	1.249368	-0.133208	-0.549307
C203	C	1.499368	0.116792	-0.299307
C204	C	1.749368	0.366792	-0.049307
C205	C	1.048464	-0.338303	-0.762908
C206	C	1.298464	-0.088303	-0.512908
C207	C	1.548464	0.161697	-0.262908
C208	C	1.798464	0.411697	-0.012908
C209	C	1.048486	-0.338266	-0.916626
C210	C	1.298486	-0.088266	-0.666626
C211	C	1.548486	0.161734	-0.416626
C212	C	1.798486	0.411734	-0.166626
C213	C	1.048496	-0.338244	-0.999961
C214	C	1.298496	-0.088244	-0.749961
C215	C	1.548496	0.161756	-0.499961
C216	C	1.798496	0.411756	-0.249961
C217	C	1.048453	-0.338323	-0.679568
C218	C	1.298453	-0.088323	-0.429568
C219	C	1.548453	0.161677	-0.179568
C220	C	1.798453	0.411677	0.070432
C221	C	1.048375	-0.338406	-0.148182
C222	C	1.298375	-0.088406	0.101818
C223	C	1.548375	0.161594	0.351818
C224	C	1.798375	0.411594	0.601818
C225	C	1.048506	-0.338229	-0.066391
C226	C	1.298506	-0.088229	0.183609
C227	C	1.548506	0.161771	0.433609
C228	C	1.798506	0.411771	0.683609
H229	H	1.121731	-0.605669	-0.412877
H230	H	1.371731	-0.355669	-0.162877
H231	H	1.621731	-0.105669	0.087123
H232	H	1.871731	0.144331	0.337123
F233	F	1.149815	-0.245586	-0.764628
F234	F	1.399815	0.004414	-0.514628
F235	F	1.649815	0.254414	-0.264628
F236	F	1.899815	0.504414	-0.014628
H237	H	0.622160	-0.257017	-0.428574
H238	H	0.872160	-0.007017	-0.178574
H239	H	1.122160	0.242983	0.071426
H240	H	1.372160	0.492983	0.321426
F241	F	0.465218	-0.431034	-0.237927
F242	F	0.715218	-0.181034	0.012073
F243	F	0.965218	0.068966	0.262073
F244	F	1.215218	0.318966	0.512073
F245	F	0.947135	-0.430982	-0.914910
F246	F	1.197135	-0.180982	-0.664910
F247	F	1.447135	0.069018	-0.414910
F248	F	1.697135	0.319018	-0.164910
F249	F	0.947102	-0.431021	-0.756249
F250	F	1.197102	-0.181021	-0.506249
F251	F	1.447102	0.068979	-0.256249
F252	F	1.697102	0.318979	-0.006249
H253	H	0.482732	-0.257029	-0.428577
H254	H	0.732732	-0.007029	-0.178577
H255	H	0.982732	0.242971	0.071423
H256	H	1.232732	0.492971	0.321423
H257	H	0.981039	-0.937363	-0.271914
H258	H	1.231039	-0.687363	-0.021914
H259	H	1.481039	-0.437363	0.228086
H260	H	1.731039	-0.187363	0.478086
H261	H	0.614775	-0.419804	-0.250203
H262	H	0.864775	-0.169804	-0.000203
H263	H	1.114775	0.080196	0.249797
H264	H	1.364775	0.330196	0.499797
H265	H	0.945137	-0.738986	-0.236016
H266	H	1.195137	-0.488986	0.013984
H267	H	1.445137	-0.238986	0.263984
H268	H	1.695137	0.011014	0.513984
H269	H	1.115839	-0.738741	-0.406941
H270	H	1.365839	-0.488741	-0.156941
H271	H	1.615839	-0.238741	0.093059
H272	H	1.865839	0.011259	0.343059
F273	F	1.163907	-0.927936	-0.455033
F274	F	1.413907	-0.677936	-0.205033
F275	F	1.663907	-0.427936	0.044967
F276	F	1.913907	-0.177936	0.294967
H277	H	1.109627	-0.825528	-0.400721
H278	H	1.359627	-0.575528	-0.150721
H279	H	1.609627	-0.325528	0.099279
H280	H	1.859627	-0.075528	0.349279
H281	H	0.975150	-1.070438	-0.265975
H282	H	1.225150	-0.820438	-0.015975
H283	H	1.475150	-0.570438	0.234025
H284	H	1.725150	-0.320438	0.484025
F285	F	1.157205	-1.079359	-0.448278
F286	F	1.407205	-0.829359	-0.198278
F287	F	1.657205	-0.579359	0.051722
F288	F	1.907205	-0.329359	0.301722
H289	H	0.951027	-0.605901	-0.241948
H290	H	1.201027	-0.355901	0.008052
H291	H	1.451027	-0.105901	0.258052
H292	H	1.701027	0.144099	0.508052
F293	F	0.975069	-0.859772	-0.265958
F294	F	1.225069	-0.609772	-0.015958
F295	F	1.475069	-0.359772	0.234042
F296	F	1.725069	-0.109772	0.484042
H297	H	1.137555	-0.256776	-0.913159
H298	H	1.387555	-0.006776	-0.663159
H299	H	1.637555	0.243224	-0.413159
H300	H	1.887555	0.493224	-0.163159
