data_functionalizedCrystal
_audit_creation_method	'MofGen! by Chris Wilmer'
_symmetry_space_group_name_H-M	'P1'
_symmetry_Int_Tables_number	1
_symmetry_cell_setting	triclinic
loop_
_symmetry_equiv_pos_as_xyz
  x,y,z
_cell_length_a	11.792241
_cell_length_b	22.010155
_cell_length_c	11.792241
_cell_angle_alpha	89.995861
_cell_angle_beta	95.806584
_cell_angle_gamma	89.996333
loop_
_atom_site_label
_atom_site_type_symbol
_atom_site_fract_x
_atom_site_fract_y
_atom_site_fract_z
O1	O	-1.506917	0.050457	0.155552
O2	O	-1.176576	0.050473	0.171585
O3	O	-1.349763	0.050461	-0.001602
O4	O	-1.333730	0.050470	0.328739
O5	O	-1.349731	-0.050590	-0.001576
O6	O	-1.176544	-0.050577	0.171611
O7	O	-1.506885	-0.050593	0.155578
Cu8	Cu	-1.341712	-0.059812	0.163597
Cu9	Cu	-1.341749	0.059692	0.163566
O10	O	-1.333698	-0.050580	0.328765
C11	C	-1.134269	-0.000050	0.170591
C12	C	-1.008255	-0.000044	0.167576
C13	C	-0.777543	-0.000060	0.162034
C14	C	-0.905928	-0.000051	0.165113
N15	N	-1.341694	-0.143864	0.163618
C16	C	-1.418441	-0.563649	0.086890
C17	C	-1.418446	-0.627257	0.086882
O18	O	-1.483654	-0.660153	0.021660
N19	N	-1.341748	-0.659071	0.163542
C20	C	-1.265033	-0.627275	0.240208
O21	O	-1.199795	-0.660176	0.305412
C22	C	-1.265023	-0.563668	0.240209
C23	C	-1.341733	-0.531857	0.163552
C24	C	-1.495145	-0.531838	0.010238
C25	C	-1.495140	-0.468235	0.010247
C26	C	-1.418433	-0.436443	0.086909
C27	C	-1.341729	-0.468254	0.163561
C28	C	-1.188303	-0.531873	0.316868
C29	C	-1.188299	-0.468262	0.316862
C30	C	-1.265009	-0.436451	0.240205
C31	C	-1.265018	-0.372859	0.240232
N32	N	-1.341716	-0.341044	0.163572
C33	C	-1.418423	-0.372836	0.086910
C34	C	-1.265058	-0.760853	0.240198
C35	C	-1.265072	-0.824458	0.240203
C36	C	-1.418485	-0.824435	0.086875
C37	C	-1.418475	-0.760829	0.086877
C38	C	-1.341756	-0.729038	0.163537
C39	C	-1.418409	-0.239265	0.086937
C40	C	-1.418402	-0.175656	0.086956
C41	C	-1.264986	-0.175684	0.240279
C42	C	-1.264997	-0.239287	0.240264
C43	C	-1.341713	-0.271076	0.163583
O44	O	-1.199840	-0.339922	0.305418
O45	O	-1.483640	-0.339927	0.021707
C46	C	-0.549192	-0.000067	0.156572
C47	C	-0.675206	-0.000065	0.159587
C48	C	-1.348740	-0.000064	-0.043880
C49	C	-1.345726	-0.000063	-0.169894
N50	N	-1.341776	0.143745	0.163536
C51	C	-1.340183	-0.000053	-0.400606
C52	C	-1.343262	-0.000059	-0.272221
C53	C	-1.334721	-0.000054	0.371043
C54	C	-1.337736	-0.000051	0.497057
H55	H	-1.480873	-0.149757	0.024532
H56	H	-1.125837	-0.557765	0.379288
H57	H	-1.557609	-0.557717	-0.052194
Br58	Br	-1.160936	-0.717714	0.344254
H59	H	-1.125821	-0.442381	0.379287
Br60	Br	-1.160902	-0.282458	0.344317
H61	H	-1.202619	-0.850354	0.302636
Br62	Br	-1.522585	-0.717664	-0.017162
H63	H	-1.480877	-0.265140	0.024495
Br64	Br	-1.522588	-0.867595	-0.017166
Br65	Br	-1.599245	-0.425069	-0.093797
Br66	Br	-1.160889	-0.132528	0.344319
