data_functionalizedCrystal
_audit_creation_method	'MofGen! by Chris Wilmer'
_symmetry_space_group_name_H-M	'P1'
_symmetry_Int_Tables_number	1
_symmetry_cell_setting	triclinic
loop_
_symmetry_equiv_pos_as_xyz
  x,y,z
_cell_length_a	17.699077
_cell_length_b	19.188925
_cell_length_c	16.776229
_cell_angle_alpha	89.993696
_cell_angle_beta	89.993415
_cell_angle_gamma	83.211563
loop_
_atom_site_label
_atom_site_type_symbol
_atom_site_fract_x
_atom_site_fract_y
_atom_site_fract_z
O1	O	1.003963	0.088275	-0.066277
O2	O	1.503963	0.588275	0.433723
O3	O	0.783569	0.099766	-0.066281
O4	O	1.283569	0.599766	0.433719
O5	O	0.900128	-0.007628	-0.066274
O6	O	1.400128	0.492372	0.433726
O7	O	0.887404	0.195669	-0.066284
O8	O	1.387404	0.695669	0.433716
O9	O	0.900113	-0.007635	0.066302
O10	O	1.400113	0.492365	0.566302
O11	O	0.783553	0.099760	0.066296
O12	O	1.283553	0.599760	0.566296
O13	O	1.003948	0.088268	0.066300
O14	O	1.503948	0.588268	0.566300
Zn15	Zn	0.893748	0.094013	0.087347
Zn16	Zn	1.393748	0.594013	0.587347
Zn17	Zn	0.893768	0.094022	-0.087328
Zn18	Zn	1.393768	0.594022	0.412672
O19	O	0.887388	0.195663	0.066293
O20	O	1.387388	0.695663	0.566293
C21	C	0.755365	0.099352	0.000007
C22	C	1.255365	0.599352	0.500007
C23	C	0.671348	0.098119	0.000006
C24	C	1.171348	0.598119	0.500006
C25	C	0.631873	0.097534	0.072274
C26	C	1.131873	0.597534	0.572274
C27	C	0.552932	0.096364	0.072275
C28	C	1.052932	0.596364	0.572275
C29	C	0.513467	0.095784	0.000007
C30	C	1.013467	0.595784	0.500007
C31	C	0.552948	0.096367	-0.072267
C32	C	1.052948	0.596367	0.427733
C33	C	0.631888	0.097532	-0.072267
C34	C	1.131888	0.597532	0.427733
C35	C	0.234591	0.091668	-0.072269
C36	C	0.734591	0.591668	0.427731
C37	C	0.155644	0.090505	-0.072263
C38	C	0.655644	0.590505	0.427737
C39	C	0.155635	0.090501	0.072274
C40	C	0.655635	0.590501	0.572274
C41	C	0.234575	0.091666	0.072274
C42	C	0.734575	0.591666	0.572274
C43	C	0.274049	0.092245	0.000000
C44	C	0.774049	0.592245	0.500000
C45	C	0.359646	0.093512	0.000000
C46	C	0.859646	0.593512	0.500000
C47	C	0.427870	0.094522	0.000006
C48	C	0.927870	0.594522	0.500006
C49	C	0.899709	-0.033643	0.000013
C50	C	1.399709	0.466357	0.500013
C51	C	0.898474	-0.111149	0.000012
C52	C	1.398474	0.388851	0.500012
C53	C	0.958599	-0.672853	-0.000007
C54	C	1.458599	-0.172853	0.499993
C55	C	0.959766	-0.600029	-0.000000
C56	C	1.459766	-0.100029	0.500000
C57	C	0.891372	-0.555170	-0.000002
C58	C	1.391372	-0.055170	0.499998
C59	C	0.821807	-0.583140	0.000010
C60	C	1.321807	-0.083140	0.500010
C61	C	0.820642	-0.655964	0.000011
C62	C	1.320642	-0.155964	0.500011
N63	N	0.841863	-0.434541	-0.045128
N64	N	1.341863	0.065459	0.454872
N65	N	0.842975	-0.365363	-0.045130
N66	N	1.342975	0.134637	0.454870
C67	C	0.894878	-0.335757	-0.000002
C68	C	1.394878	0.164243	0.499998
N69	N	0.945639	-0.377944	0.045119
N70	N	1.445639	0.122056	0.545119
N71	N	0.944530	-0.447129	0.045118
N72	N	1.444530	0.052871	0.545118
C73	C	0.892628	-0.476204	-0.000002
C74	C	1.392628	0.023796	0.499998
C75	C	0.965704	-0.228830	-0.000000
C76	C	1.465704	0.271170	0.500000
C77	C	0.966868	-0.156003	0.000012
C78	C	1.466868	0.343997	0.500012
C79	C	0.828908	-0.139116	0.000014
C80	C	1.328908	0.360884	0.500014
C81	C	0.827746	-0.211941	0.000010
C82	C	1.327746	0.288059	0.500010
C83	C	0.896146	-0.256794	-0.000001
C84	C	1.396146	0.243206	0.499999
C85	C	1.032152	0.088682	0.000010
C86	C	1.532152	0.588682	0.500010
C87	C	1.116169	0.089916	0.000006
C88	C	1.616169	0.589916	0.500006
C89	C	0.887807	0.221678	0.000004
C90	C	1.387807	0.721678	0.500004
C91	C	0.889042	0.299184	-0.000000
C92	C	1.389042	0.799184	0.500000
N93	N	0.893740	0.094007	0.206558
N94	N	1.393740	0.594007	0.706558
N95	N	0.893783	0.094022	-0.206540
N96	N	1.393783	0.594022	0.293460
C97	C	0.945368	0.046472	0.248278
C98	C	1.445368	0.546472	0.748278
C99	C	0.945372	0.046471	0.331730
C100	C	1.445372	0.546471	0.831730
C101	C	0.893751	0.094009	0.373461
C102	C	1.393751	0.594009	0.873461
C103	C	0.842118	0.141546	0.331735
C104	C	1.342118	0.641546	0.831735
C105	C	0.842110	0.141543	0.248285
C106	C	1.342110	0.641543	0.748285
C107	C	0.842145	0.141560	0.668282
C108	C	1.342145	0.641560	1.168282
C109	C	0.842158	0.141561	0.751739
C110	C	1.342158	0.641561	1.251739
C111	C	0.945407	0.046488	0.751728
C112	C	1.445407	0.546488	1.251728
C113	C	0.945400	0.046485	0.668278
C114	C	1.445400	0.546485	1.168278
C115	C	0.893764	0.094019	0.626559
C116	C	1.393764	0.594019	1.126559
C117	C	0.893759	0.094018	0.536071
C118	C	1.393759	0.594018	1.036071
C119	C	0.893759	0.094014	0.463948
C120	C	1.393759	0.594014	0.963948
H121	H	0.123486	0.090026	0.131122
H122	H	0.623486	0.590026	0.631122
O123	O	1.001040	-0.004816	0.203282
O124	O	1.501040	0.495184	0.703282
H125	H	0.969282	-0.038710	0.165279
H126	H	1.469282	0.461290	0.665279
H127	H	1.016408	-0.577257	-0.000006
H128	H	1.516408	-0.077257	0.499994
O129	O	0.786485	0.192850	0.796745
O130	O	1.286485	0.692850	1.296745
H131	H	0.727511	0.184025	0.780757
H132	H	1.227511	0.684025	1.280757
O133	O	0.113077	0.089856	-0.150212
O134	O	0.613077	0.589856	0.349788
H135	H	0.153789	0.090440	-0.200470
H136	H	0.653789	0.590440	0.299530
O137	O	1.041897	-0.125844	0.000008
O138	O	1.541897	0.374156	0.500008
H139	H	1.031218	-0.067670	0.000020
H140	H	1.531218	0.432330	0.500020
O141	O	0.674435	0.098162	0.150223
O142	O	1.174435	0.598162	0.650223
H143	H	0.703484	0.146267	0.153677
H144	H	1.203484	0.646267	0.653677
H145	H	0.771105	-0.234708	0.000010
H146	H	1.271105	0.265292	0.500010
O147	O	1.032373	-0.721226	-0.000013
O148	O	1.532373	-0.221226	0.499987
H149	H	1.019881	-0.776564	-0.000018
H150	H	1.519881	-0.276564	0.499982
O151	O	0.277162	0.092300	-0.150216
O152	O	0.777162	0.592300	0.349784
H153	H	0.236453	0.091710	-0.200466
H154	H	0.736453	0.591710	0.299534
H155	H	0.766121	-0.546611	0.000012
H156	H	1.266121	-0.046611	0.500012
O157	O	0.786462	0.192833	0.623290
O158	O	1.286462	0.692833	1.123290
H159	H	0.750577	0.225894	0.666330
H160	H	1.250577	0.725894	1.166330
H161	H	0.520809	0.095889	-0.131109
H162	H	1.020809	0.595889	0.368891
O163	O	0.745618	-0.686131	0.000014
O164	O	1.245618	-0.186131	0.500014
H165	H	0.698253	-0.642706	0.000012
H166	H	1.198253	-0.142706	0.500012
O167	O	1.039473	-0.277214	0.000003
O168	O	1.539473	0.222786	0.500003
H169	H	1.088038	-0.245532	0.000014
H170	H	1.588038	0.254468	0.500014
H171	H	0.987411	0.007764	0.365698
H172	H	1.487411	0.507764	0.865698
O173	O	0.674470	0.098167	-0.150213
O174	O	1.174470	0.598167	0.349787
H175	H	0.633766	0.097575	-0.200467
H176	H	1.133766	0.597575	0.299533
H177	H	0.520797	0.095877	0.131123
H178	H	1.020797	0.595877	0.631123
O179	O	0.786430	0.192816	0.203280
O180	O	1.286430	0.692816	0.703280
H181	H	0.750541	0.225878	0.246316
H182	H	1.250541	0.725878	0.746316
O183	O	0.755136	-0.090744	0.000012
O184	O	1.255136	0.409256	0.500012
H185	H	0.767631	-0.035406	0.000006
H186	H	1.267631	0.464594	0.500006
H187	H	0.987436	0.007777	0.634303
H188	H	1.487436	0.507777	1.134303
H189	H	0.266703	0.092142	0.131122
H190	H	0.766703	0.592142	0.631122
O191	O	1.001097	-0.004791	0.796723
O192	O	1.501097	0.495209	1.296723
H193	H	0.992427	0.003189	0.861762
H194	H	1.492427	0.503189	1.361762
H195	H	0.800083	0.180251	0.365717
H196	H	1.300083	0.680251	0.865717
