data_functionalizedCrystal
_audit_creation_method	'MofGen! by Chris Wilmer'
_symmetry_space_group_name_H-M	'P1'
_symmetry_Int_Tables_number	1
_symmetry_cell_setting	triclinic
loop_
_symmetry_equiv_pos_as_xyz
  x,y,z
_cell_length_a	15.944551
_cell_length_b	23.532407
_cell_length_c	14.421503
_cell_angle_alpha	89.999621
_cell_angle_beta	89.996859
_cell_angle_gamma	83.173708
loop_
_atom_site_label
_atom_site_type_symbol
_atom_site_fract_x
_atom_site_fract_y
_atom_site_fract_z
O1	O	1.113910	0.073442	-0.077025
O2	O	0.869284	0.082498	-0.077049
O3	O	0.998974	-0.004933	-0.077019
O4	O	0.984221	0.160873	-0.077055
O5	O	0.998953	-0.004920	0.077204
O6	O	0.869263	0.082511	0.077174
O7	O	1.113889	0.073455	0.077199
Cu8	Cu	0.991574	0.077984	0.091268
Cu9	Cu	0.991599	0.077969	-0.091119
O10	O	0.984199	0.160886	0.077169
C11	C	0.837983	0.082128	0.000060
C12	C	0.744746	0.081001	0.000051
C13	C	0.998588	-0.026144	0.000095
C14	C	0.997458	-0.089366	0.000102
C15	C	0.530369	0.024113	0.000081
C16	C	0.469137	0.050524	-0.075964
C17	C	0.574038	0.078962	0.000063
C18	C	0.469138	0.050550	0.076088
C19	C	0.409142	0.076989	0.000078
C20	C	0.514034	0.105388	-0.076046
C21	C	0.514041	0.105406	0.076075
C22	C	0.452826	0.131856	0.000010
C23	C	0.669030	0.080097	0.000053
C24	C	0.314150	0.075858	0.000081
C25	C	1.067121	-0.488199	0.000058
C26	C	1.066072	-0.547603	0.000051
O27	O	1.130650	-0.584098	0.000023
N28	N	0.988971	-0.570528	0.000044
C29	C	0.912915	-0.534045	0.000035
O30	O	0.847239	-0.558999	0.000027
C31	C	0.913965	-0.474642	0.000035
C32	C	0.991071	-0.451721	0.000052
C33	C	1.144220	-0.465277	0.000073
C34	C	1.145269	-0.405877	0.000082
C35	C	1.069219	-0.369399	0.000076
C36	C	0.992120	-0.392320	0.000060
C37	C	0.837910	-0.438160	0.000019
C38	C	0.838967	-0.378754	0.000019
C39	C	0.916072	-0.355832	0.000035
C40	C	0.917118	-0.296442	0.000063
N41	N	0.994219	-0.273517	0.000070
C42	C	1.070269	-0.309995	0.000076
C43	C	0.910716	-0.658796	0.000032
C44	C	0.909664	-0.718198	0.000038
C45	C	1.062821	-0.731752	0.000053
C46	C	1.063872	-0.672349	0.000053
C47	C	0.987816	-0.635871	0.000039
C48	C	1.072466	-0.185250	0.000096
C49	C	1.073508	-0.125844	0.000108
C50	C	0.920352	-0.112295	0.000089
C51	C	0.919309	-0.171696	0.000081
C52	C	0.995373	-0.208173	0.000081
O53	O	0.852574	-0.259913	0.000087
O54	O	1.135935	-0.285033	0.000072
C55	C	1.145190	0.073824	0.000088
C56	C	1.238427	0.074951	0.000090
C57	C	0.984586	0.182097	0.000053
C58	C	0.985715	0.245318	0.000040
N59	N	0.991562	0.077994	0.219550
N60	N	0.991618	0.077954	-0.219400
C61	C	0.931583	0.118404	0.469190
C62	C	1.007390	0.129461	0.530997
C63	C	0.991583	0.077981	0.408711
C64	C	0.915795	0.066938	0.530998
C65	C	0.991596	0.077969	0.591433
C66	C	1.067428	0.089063	0.469158
C67	C	0.975783	0.026517	0.469153
C68	C	1.051645	0.037552	0.530932
C69	C	0.991574	0.077989	0.303450
C70	C	0.991613	0.077960	0.696691
H71	H	0.564086	-0.021407	-0.000003
C72	C	1.157167	-0.100881	-0.000023
C73	C	1.162247	-0.067159	-0.079351
C74	C	1.239292	-0.044150	-0.079500
H75	H	1.202379	-0.131058	-0.000072
H76	H	1.160763	-0.077960	0.053733
H77	H	1.158658	-0.090079	-0.133094
H78	H	1.117052	-0.036973	-0.079319
H79	H	1.242889	-0.021229	-0.025743
H80	H	1.284498	-0.074331	-0.079546
H81	H	1.242745	-0.021263	-0.133318
H82	H	0.775123	-0.456812	0.000000
C83	C	0.442571	0.019520	0.161701
C84	C	0.402549	-0.027630	0.134514
C85	C	0.378076	-0.056236	0.213349
H86	H	0.404648	0.044830	0.197568
H87	H	0.491051	0.006777	0.197747
H88	H	0.354075	-0.014887	0.098483
H89	H	0.440456	-0.052953	0.098658
H90	H	0.426557	-0.068978	0.249395
H91	H	0.340156	-0.030921	0.249211
H92	H	0.350926	-0.088233	0.194914
C93	C	0.407981	0.192581	-0.000199
C94	C	0.356893	0.200804	-0.079161
C95	C	0.315559	0.256733	-0.079384
H96	H	0.448626	0.218998	-0.000790
H97	H	0.373936	0.198521	0.053802
H98	H	0.390935	0.194870	-0.133148
H99	H	0.316233	0.174401	-0.078587
H100	H	0.281514	0.262674	-0.025383
H101	H	0.356210	0.283145	-0.079972
H102	H	0.280886	0.262319	-0.132953
C103	C	0.830375	0.054520	0.567397
C104	C	0.831746	0.054182	0.664470
C105	C	0.753067	0.042758	0.698029
H106	H	0.818656	0.018239	0.545411
H107	H	0.787791	0.083289	0.546309
H108	H	0.874317	0.025414	0.685550
H109	H	0.843450	0.090457	0.686481
H110	H	0.710483	0.071527	0.676941
H111	H	0.741354	0.006478	0.676038
H112	H	0.753984	0.042532	0.763896
H113	H	0.533968	0.128591	0.140359
C114	C	0.957972	-0.031457	0.432710
C115	C	0.958993	-0.030824	0.335638
C116	C	0.942589	-0.084221	0.302032
H117	H	0.904075	-0.039300	0.453746
H118	H	1.000064	-0.060266	0.454716
H119	H	0.916903	-0.002024	0.313641
H120	H	1.012883	-0.022991	0.314577
H121	H	0.984681	-0.113030	0.324038
H122	H	0.888692	-0.092060	0.323074
H123	H	0.943286	-0.083801	0.236166
H124	H	0.533835	0.128563	-0.140407
H125	H	1.131539	0.098450	0.442108
C126	C	0.442764	0.019540	-0.161708
C127	C	0.514367	0.000858	-0.214656
C128	C	0.490112	-0.027697	-0.293639
H129	H	0.404907	0.044865	-0.197623
H130	H	0.415607	-0.012493	-0.143451
H131	H	0.541510	0.032886	-0.232915
H132	H	0.552231	-0.024474	-0.178770
H133	H	0.462956	-0.059730	-0.275382
H134	H	0.452255	-0.002369	-0.329545
H135	H	0.538691	-0.040381	-0.329569
H136	H	0.777032	-0.349056	0.000006
H137	H	1.134405	-0.214943	0.000092
H138	H	0.858434	-0.082584	0.000087
C139	C	0.825863	-0.742970	-0.000016
C140	C	0.759492	-0.698302	-0.000043
C141	C	0.682279	-0.721097	-0.000111
H142	H	0.822137	-0.765855	0.053746
H143	H	0.822228	-0.765842	-0.053823
H144	H	0.763125	-0.675440	0.053759
H145	H	0.763189	-0.675414	-0.053801
H146	H	0.678645	-0.743969	-0.053918
H147	H	0.678563	-0.743982	0.053652
H148	H	0.637238	-0.690794	-0.000137
C149	C	1.229072	-0.381106	0.000044
C150	C	1.295439	-0.425776	0.000022
C151	C	1.372654	-0.402984	-0.000029
H152	H	1.232787	-0.358225	0.053811
H153	H	1.232722	-0.358232	-0.053758
H154	H	1.291792	-0.448641	0.053819
H155	H	1.291753	-0.448662	-0.053741
H156	H	1.376304	-0.380110	-0.053831
H157	H	1.376360	-0.380103	0.053739
H158	H	1.417694	-0.433289	-0.000052
C159	C	1.226773	-0.504903	-0.000108
C160	C	1.230683	-0.539395	-0.079462
C161	C	1.306729	-0.575896	-0.079660
H162	H	1.229626	-0.528411	0.053611
H163	H	1.272856	-0.482754	-0.000150
H164	H	1.184612	-0.561542	-0.079412
H165	H	1.227845	-0.515903	-0.133195
H166	H	1.352812	-0.553747	-0.079702
H167	H	1.309575	-0.599399	-0.025937
H168	H	1.309396	-0.599299	-0.133505
H169	H	0.880895	0.152617	0.442080
C170	C	0.835620	-0.196616	0.000262
C171	C	0.830516	-0.230318	0.079608
C172	C	0.753427	-0.253272	0.079803
H173	H	0.831949	-0.219541	-0.053463
H174	H	0.790455	-0.166395	0.000313
H175	H	0.875668	-0.260535	0.079549
H176	H	0.834172	-0.207406	0.133346
H177	H	0.708263	-0.223051	0.079854
H178	H	0.749764	-0.276194	0.026074
H179	H	0.749951	-0.276137	0.133642
H180	H	1.126658	-0.653691	0.000066
H181	H	1.020766	0.172977	0.558161
C182	C	1.119504	-0.007969	0.566813
C183	C	1.198668	0.003859	0.535328
C184	C	1.261202	-0.038055	0.568375
H185	H	1.108848	-0.044455	0.544722
H186	H	1.118888	-0.007929	0.632687
H187	H	1.199283	0.003813	0.469467
H188	H	1.209352	0.040338	0.557416
H189	H	1.260586	-0.038015	0.634249
H190	H	1.250538	-0.074539	0.546281
H191	H	1.314923	-0.030033	0.547024
H192	H	0.848778	-0.629098	0.000028
C193	C	1.145419	-0.771338	0.000241
C194	C	1.191862	-0.760998	0.079600
C195	C	1.267944	-0.797460	0.079811
H196	H	1.177162	-0.764423	-0.053476
H197	H	1.133778	-0.810006	0.000284
H198	H	1.203506	-0.722339	0.079548
H199	H	1.160145	-0.767917	0.133329
H200	H	1.256303	-0.836128	0.079854
H201	H	1.299679	-0.790541	0.026091
H202	H	1.299462	-0.790453	0.133659
