data_functionalizedCrystal
_audit_creation_method	'MofGen! by Chris Wilmer'
_symmetry_space_group_name_H-M	'P1'
_symmetry_Int_Tables_number	1
_symmetry_cell_setting	triclinic
loop_
_symmetry_equiv_pos_as_xyz
  x,y,z
_cell_length_a	19.288864
_cell_length_b	19.288865
_cell_length_c	18.366186
_cell_angle_alpha	89.988521
_cell_angle_beta	89.977106
_cell_angle_gamma	83.136245
loop_
_atom_site_label
_atom_site_type_symbol
_atom_site_fract_x
_atom_site_fract_y
_atom_site_fract_z
O1	O	0.921353	0.086649	-0.060791
O2	O	1.254686	0.419982	0.272542
O3	O	1.588019	0.753315	0.605875
O4	O	0.719092	0.098337	-0.060743
O5	O	1.052425	0.431671	0.272591
O6	O	1.385759	0.765004	0.605924
O7	O	0.826067	-0.008637	-0.060754
O8	O	1.159400	0.324696	0.272579
O9	O	1.492733	0.658029	0.605913
O10	O	0.814378	0.193623	-0.060780
O11	O	1.147711	0.526957	0.272553
O12	O	1.481045	0.860290	0.605887
O13	O	0.826049	-0.008643	0.060345
O14	O	1.159382	0.324691	0.393679
O15	O	1.492715	0.658024	0.727012
O16	O	0.719074	0.098332	0.060357
O17	O	1.052407	0.431665	0.393690
O18	O	1.385741	0.764999	0.727023
O19	O	0.921335	0.086643	0.060308
O20	O	1.254668	0.419977	0.393641
O21	O	1.588001	0.753310	0.726975
Zn22	Zn	0.820201	0.092487	0.079559
Zn23	Zn	1.153535	0.425820	0.412893
Zn24	Zn	1.486868	0.759154	0.746226
Zn25	Zn	0.820225	0.092494	-0.079994
Zn26	Zn	1.153559	0.425827	0.253339
Zn27	Zn	1.486892	0.759161	0.586672
O28	O	0.814360	0.193618	0.060319
O29	O	1.147693	0.526951	0.393653
O30	O	1.481027	0.860285	0.726986
C31	C	0.693207	0.097959	-0.000187
C32	C	1.026540	0.431292	0.333147
C33	C	1.359873	0.764625	0.666480
C34	C	0.616103	0.096830	-0.000167
C35	C	0.949436	0.430163	0.333166
C36	C	1.282770	0.763496	0.666499
C37	C	0.571407	0.159598	-0.000187
C38	C	0.904740	0.492931	0.333146
C39	C	1.238073	0.826264	0.666480
C40	C	0.498960	0.158537	-0.000195
C41	C	0.832293	0.491870	0.333138
C42	C	1.165626	0.825204	0.666472
C43	C	0.471212	0.094705	-0.000198
C44	C	0.804545	0.428038	0.333135
C45	C	1.137879	0.761371	0.666469
C46	C	0.515918	0.031929	-0.000174
C47	C	0.849252	0.365262	0.333159
C48	C	1.182585	0.698595	0.666492
C49	C	0.588364	0.032991	-0.000159
C50	C	0.921697	0.366324	0.333174
C51	C	1.255030	0.699658	0.666508
C52	C	0.362956	0.044527	-0.042642
C53	C	0.696290	0.377861	0.290691
C54	C	1.029623	0.711194	0.624024
C55	C	0.290512	0.043468	-0.042662
C56	C	0.623845	0.376801	0.290671
C57	C	0.957179	0.710134	0.624005
C58	C	0.247767	0.091425	-0.000241
C59	C	0.581100	0.424758	0.333092
C60	C	0.914433	0.758092	0.666425
C61	C	0.277473	0.140454	0.042189
C62	C	0.610806	0.473788	0.375523
C63	C	0.944140	0.807121	0.708856
C64	C	0.349918	0.141517	0.042205
C65	C	0.683252	0.474850	0.375538
C66	C	1.016585	0.808183	0.708871
C67	C	0.392658	0.093546	-0.000214
C68	C	0.725991	0.426879	0.333119
C69	C	1.059325	0.760212	0.666453
C70	C	0.124514	0.153047	-0.000269
C71	C	0.457848	0.486381	0.333065
C72	C	0.791181	0.819714	0.666398
C73	C	0.052066	0.151984	-0.000272
C74	C	0.385400	0.485317	0.333061
C75	C	0.718733	0.818651	0.666395
C76	C	0.069026	0.025374	-0.000259
C77	C	0.402360	0.358707	0.333075
C78	C	0.735693	0.692040	0.666408
C79	C	0.141473	0.026439	-0.000248
C80	C	0.474806	0.359772	0.333085
C81	C	0.808140	0.693106	0.666419
C82	C	0.169212	0.090278	-0.000256
C83	C	0.502546	0.423611	0.333077
C84	C	0.835879	0.756944	0.666410
C85	C	0.825682	-0.034516	-0.000202
C86	C	1.159015	0.298817	0.333131
C87	C	1.492348	0.632150	0.666465
C88	C	0.824553	-0.111620	-0.000195
C89	C	1.157886	0.221713	0.333138
C90	C	1.491219	0.555047	0.666471
C91	C	0.887321	-0.156316	-0.000207
C92	C	1.220654	0.177017	0.333126
C93	C	1.553987	0.510350	0.666460
C94	C	0.886260	-0.228763	-0.000218
C95	C	1.219593	0.104570	0.333115
C96	C	1.552927	0.437903	0.666448
C97	C	0.822428	-0.256511	-0.000203
C98	C	1.155761	0.076822	0.333130
C99	C	1.489094	0.410156	0.666463
C100	C	0.759652	-0.211805	-0.000196
C101	C	1.092985	0.121529	0.333137
C102	C	1.426318	0.454862	0.666471
C103	C	0.760714	-0.139359	-0.000192
C104	C	1.094047	0.193974	0.333141
C105	C	1.427381	0.527307	0.666475
C106	C	0.772242	-0.364800	0.042227
C107	C	1.105575	-0.031467	0.375561
C108	C	1.438908	0.301867	0.708894
C109	C	0.771182	-0.437245	0.042228
C110	C	1.104515	-0.103911	0.375561
C111	C	1.437849	0.229422	0.708894
C112	C	0.819148	-0.479956	-0.000219
C113	C	1.152481	-0.146623	0.333114
C114	C	1.485815	0.186710	0.666448
C115	C	0.868186	-0.450216	-0.042657
C116	C	1.201519	-0.116883	0.290677
C117	C	1.534852	0.216450	0.624010
C118	C	0.869248	-0.377771	-0.042653
C119	C	1.202582	-0.044438	0.290681
C120	C	1.535915	0.288896	0.624014
C121	C	0.821269	-0.335065	-0.000208
C122	C	1.154602	-0.001732	0.333125
C123	C	1.487935	0.331602	0.666459
C124	C	0.880770	-0.603209	-0.000244
C125	C	1.214104	-0.269875	0.333090
C126	C	1.547437	0.063458	0.666423
C127	C	0.879707	-0.675657	-0.000259
C128	C	1.213040	-0.342323	0.333074
C129	C	1.546374	-0.008990	0.666407
C130	C	0.753097	-0.658697	-0.000230
C131	C	1.086430	-0.325363	0.333104
C132	C	1.419763	0.007970	0.666437
C133	C	0.754162	-0.586250	-0.000221
C134	C	1.087495	-0.252917	0.333112
C135	C	1.420829	0.080417	0.666445
C136	C	0.818001	-0.558511	-0.000225
C137	C	1.151334	-0.225177	0.333109
C138	C	1.484667	0.108156	0.666442
C139	C	0.947220	0.087022	-0.000250
C140	C	1.280553	0.420355	0.333084
C141	C	1.613887	0.753689	0.666417
C142	C	1.024324	0.088151	-0.000274
C143	C	1.357657	0.421484	0.333060
C144	C	1.690990	0.754818	0.666393
C145	C	0.814745	0.219497	-0.000234
C146	C	1.148078	0.552831	0.333099
C147	C	1.481412	0.886164	0.666432
C148	C	0.815874	0.296601	-0.000246
C149	C	1.149207	0.629934	0.333088
C150	C	1.482541	0.963267	0.666421
N151	N	0.820190	0.092482	0.188451
N152	N	1.153524	0.425815	0.521784
N153	N	1.486857	0.759148	0.855117
N154	N	0.820242	0.092493	-0.188885
N155	N	1.153575	0.425827	0.144448
N156	N	1.486909	0.759160	0.477781
C157	C	0.867574	0.045137	0.226546
C158	C	1.200907	0.378470	0.559879
C159	C	1.534241	0.711803	0.893213
C160	C	0.867578	0.045134	0.302774
C161	C	1.200912	0.378467	0.636107
C162	C	1.534245	0.711800	0.969440
C163	C	0.820206	0.092488	0.340903
C164	C	1.153539	0.425821	0.674237
C165	C	1.486872	0.759154	1.007570
C166	C	0.772813	0.139836	0.302799
C167	C	1.106146	0.473170	0.636132
C168	C	1.439480	0.806503	0.969465
C169	C	0.772805	0.139834	0.226572
C170	C	1.106139	0.473167	0.559906
C171	C	1.439472	0.806500	0.893239
C172	C	0.810907	0.155775	0.461657
C173	C	1.144241	0.489109	0.794990
C174	C	1.477574	0.822442	1.128324
C175	C	0.810920	0.155779	0.537882
C176	C	1.144253	0.489112	0.871215
C177	C	1.477587	0.822446	1.204548
C178	C	0.820225	0.092496	0.576011
C179	C	1.153559	0.425830	0.909344
C180	C	1.486892	0.759163	1.242677
C181	C	0.829533	0.029207	0.537905
C182	C	1.162866	0.362540	0.871239
C183	C	1.496200	0.695873	1.204572
C184	C	0.829525	0.029204	0.461679
C185	C	1.162859	0.362537	0.795012
C186	C	1.496192	0.695871	1.128346
C187	C	0.820208	0.092496	0.423558
C188	C	1.153542	0.425829	0.756891
C189	C	1.486875	0.759162	1.090225
C190	C	0.867617	0.045144	0.696761
C191	C	1.200950	0.378477	1.030094
C192	C	1.534283	0.711810	1.363428
C193	C	0.867616	0.045140	0.772990
C194	C	1.200949	0.378473	1.106324
C195	C	1.534283	0.711806	1.439657
C196	C	0.772854	0.139849	0.773014
C197	C	1.106187	0.473182	1.106347
C198	C	1.439521	0.806515	1.439681
C199	C	0.772851	0.139847	0.696786
C200	C	1.106184	0.473180	1.030119
C201	C	1.439518	0.806513	1.363453
C202	C	0.820236	0.092495	0.658664
C203	C	1.153569	0.425828	0.991998
C204	C	1.486903	0.759162	1.325331
H205	H	0.015674	0.203099	-0.000284
H206	H	0.349008	0.536433	0.333050
H207	H	0.682341	0.869766	0.666383
N208	N	0.721743	0.190912	0.655692
N209	N	1.055077	0.524245	0.989025
N210	N	1.388410	0.857578	1.322358
H211	H	0.691732	0.220910	0.691411
H212	H	1.025065	0.554243	1.024744
H213	H	1.358398	0.887577	1.358078
H214	H	0.748230	0.221552	0.624041
H215	H	1.081563	0.554885	0.957374
H216	H	1.414896	0.888218	1.290707
H217	H	0.266331	0.003548	-0.077215
H218	H	0.599664	0.336881	0.256119
H219	H	0.932997	0.670215	0.589452
H220	H	0.242671	0.179506	0.076733
H221	H	0.576004	0.512839	0.410066
H222	H	0.909337	0.846172	0.743399
N223	N	0.718290	-0.469309	0.087999
N224	N	1.051623	-0.135976	0.421333
N225	N	1.384957	0.197358	0.754666
H226	H	0.688025	-0.495366	0.055505
H227	H	1.021359	-0.162032	0.388838
H228	H	1.354692	0.171301	0.722172
H229	H	0.743396	-0.502755	0.124275
H230	H	1.076729	-0.169422	0.457608
H231	H	1.410063	0.163911	0.790942
H232	H	0.837102	-0.022328	0.430657
H233	H	1.170435	0.311005	0.763990
H234	H	1.503769	0.644338	1.097324
N235	N	0.450743	0.226241	-0.000219
N236	N	0.784077	0.559574	0.333115
N237	N	1.117410	0.892908	0.666448
H238	H	0.459671	0.254097	-0.045115
H239	H	0.793004	0.587430	0.288218
H240	H	1.126337	0.920764	0.621552
H241	H	0.400660	0.215823	-0.000201
H242	H	0.733994	0.549156	0.333132
H243	H	1.067327	0.882490	0.666465
H244	H	0.937375	-0.265162	-0.000231
H245	H	1.270708	0.068171	0.333103
H246	H	1.604041	0.401505	0.666436
N247	N	0.922130	-0.345694	-0.088427
N248	N	1.255464	-0.012361	0.244907
N249	N	1.588797	0.320972	0.578240
H250	H	0.915523	-0.293321	-0.081980
H251	H	1.248856	0.040013	0.251353
H252	H	1.582190	0.373346	0.584686
H253	H	0.970790	-0.364903	-0.072576
H254	H	1.304123	-0.031569	0.260757
H255	H	1.637456	0.301764	0.594091
H256	H	0.707679	-0.234401	-0.000185
H257	H	1.041012	0.098932	0.333148
H258	H	1.374346	0.432265	0.666481
N259	N	0.918719	-0.005927	0.655637
N260	N	1.252053	0.327407	0.988970
N261	N	1.585386	0.660740	1.322304
H262	H	0.948735	-0.035925	0.691341
H263	H	1.282068	0.297408	1.024674
H264	H	1.615401	0.630741	1.358007
H265	H	0.892225	-0.036566	0.624029
H266	H	1.225558	0.296767	0.957363
H267	H	1.558891	0.630101	1.290696
H268	H	0.046435	-0.026600	-0.000306
H269	H	0.379769	0.306734	0.333027
H270	H	0.713102	0.640067	0.666360
N271	N	0.956172	-0.126397	-0.000212
N272	N	1.289505	0.206936	0.333121
N273	N	1.622838	0.540270	0.666455
H274	H	0.995774	-0.165710	-0.000222
H275	H	1.329108	0.167624	0.333112
H276	H	1.662441	0.500957	0.666445
H277	H	0.959380	-0.096699	-0.045104
H278	H	1.292714	0.236634	0.288229
H279	H	1.626047	0.569968	0.621562
H280	H	0.397755	0.005473	-0.077191
H281	H	0.731088	0.338806	0.256143
H282	H	1.064421	0.672140	0.589476
H283	H	0.907244	-0.484991	-0.077221
H284	H	1.240578	-0.151658	0.256112
H285	H	1.573911	0.181675	0.589446
H286	H	0.147101	0.205028	-0.000265
H287	H	0.480434	0.538362	0.333069
H288	H	0.813767	0.871695	0.666402
H289	H	0.177866	-0.024674	-0.000236
H290	H	0.511199	0.308660	0.333097
H291	H	0.844533	0.641993	0.666431
N292	N	0.949620	-0.573283	-0.000251
N293	N	1.282953	-0.239949	0.333083
N294	N	1.616287	0.093384	0.666416
H295	H	0.989224	-0.612594	-0.000266
H296	H	1.322557	-0.279261	0.333068
H297	H	1.655891	0.054073	0.666401
H298	H	0.952825	-0.543581	-0.045140
H299	H	1.286158	-0.210247	0.288193
H300	H	1.619491	0.123086	0.621526
H301	H	0.703049	-0.549857	-0.000208
H302	H	1.036383	-0.216524	0.333126
H303	H	1.369716	0.116810	0.666459
N304	N	0.947410	-0.723869	-0.000275
N305	N	1.280743	-0.390536	0.333058
N306	N	1.614076	-0.057203	0.666392
H307	H	0.988009	-0.695300	-0.000274
H308	H	1.321343	-0.361967	0.333059
H309	H	1.654676	-0.028634	0.666393
H310	H	0.949714	-0.754308	0.044615
H311	H	1.283047	-0.420974	0.377948
H312	H	1.616380	-0.087641	0.711282
N313	N	0.485996	-0.036920	-0.000169
N314	N	0.819329	0.296413	0.333164
N315	N	1.152663	0.629747	0.666498
H316	H	0.433319	-0.028069	-0.000182
H317	H	0.766652	0.305264	0.333151
H318	H	1.099986	0.638597	0.666485
H319	H	0.502387	-0.064380	-0.045053
H320	H	0.835721	0.268953	0.288280
H321	H	1.169054	0.602287	0.621613
H322	H	0.624756	-0.018124	-0.000144
H323	H	0.958090	0.315210	0.333190
H324	H	1.291423	0.648543	0.666523
N325	N	0.720500	-0.318734	0.088007
N326	N	1.053834	0.014599	0.421341
N327	N	1.387167	0.347932	0.754674
H328	H	0.689279	-0.348566	0.114894
H329	H	1.022612	-0.015233	0.448227
H330	H	1.355946	0.318101	0.781561
H331	H	0.746494	-0.292107	0.124241
H332	H	1.079828	0.041226	0.457575
H333	H	1.413161	0.374559	0.790908
N334	N	0.381961	0.194390	0.087968
N335	N	0.715295	0.527723	0.421301
N336	N	1.048628	0.861057	0.754635
H337	H	0.343894	0.224612	0.114841
H338	H	0.677228	0.557946	0.448175
H339	H	1.010561	0.891279	0.781508
H340	H	0.415422	0.169266	0.124214
H341	H	0.748755	0.502599	0.457547
H342	H	1.082088	0.835932	0.790880
H343	H	0.906200	0.006582	0.804008
H344	H	1.239533	0.339915	1.137342
H345	H	1.572866	0.673249	1.470675
H346	H	0.701123	-0.681288	-0.000221
H347	H	1.034457	-0.347954	0.333112
H348	H	1.367790	-0.014621	0.666445
N349	N	0.721753	0.190918	0.814130
N350	N	1.055086	0.524252	1.147464
N351	N	1.388420	0.857585	1.480797
H352	H	0.729587	0.240198	0.800850
H353	H	1.062921	0.573532	1.134183
H354	H	1.396254	0.906865	1.467516
H355	H	0.672508	0.182976	0.800871
H356	H	1.005842	0.516309	1.134204
H357	H	1.339175	0.849642	1.467538
H358	H	0.709599	-0.102967	-0.000182
H359	H	1.042933	0.230367	0.333151
H360	H	1.376266	0.563700	0.666484
N361	N	0.800876	0.224037	0.578978
N362	N	1.134209	0.557370	0.912311
N363	N	1.467543	0.890703	1.245645
H364	H	0.839384	0.252906	0.565683
H365	H	1.172717	0.586239	0.899016
H366	H	1.506051	0.919573	1.232349
H367	H	0.754197	0.250443	0.565711
H368	H	1.087530	0.583776	0.899045
H369	H	1.420863	0.917110	1.232378
N370	N	0.918678	-0.005935	0.185429
N371	N	1.252011	0.327398	0.518762
N372	N	1.585344	0.660731	0.852096
H373	H	0.948695	-0.035930	0.221134
H374	H	1.282029	0.297403	0.554467
H375	H	1.615362	0.630737	0.887801
H376	H	0.892183	-0.036578	0.153826
H377	H	1.225516	0.296755	0.487159
H378	H	1.558849	0.630088	0.820493
N379	N	0.839574	-0.039055	0.579018
N380	N	1.172907	0.294278	0.912351
N381	N	1.506241	0.627612	1.245684
H382	H	0.838164	-0.029453	0.633088
H383	H	1.171497	0.303880	0.966422
H384	H	1.504830	0.637214	1.299755
H385	H	0.801051	-0.067885	0.565718
H386	H	1.134384	0.265449	0.899051
H387	H	1.467718	0.598782	1.232385
H388	H	0.906165	0.006578	0.333797
H389	H	1.239499	0.339911	0.667130
H390	H	1.572832	0.673245	1.000463
N391	N	0.800872	0.224035	0.420535
N392	N	1.134205	0.557368	0.753869
N393	N	1.467538	0.890701	1.087202
H394	H	0.794985	0.264127	0.456239
H395	H	1.128318	0.597460	0.789572
H396	H	1.461651	0.930794	1.122906
H397	H	0.843052	0.227978	0.388887
H398	H	1.176386	0.561311	0.722220
H399	H	1.509719	0.894645	1.055554
H400	H	0.734219	0.178388	0.195554
H401	H	1.067552	0.511722	0.528888
H402	H	1.400885	0.845055	0.862221
N403	N	0.601326	0.228449	-0.000201
N404	N	0.934659	0.561782	0.333132
N405	N	1.267993	0.895115	0.666465
H406	H	0.562013	0.268051	-0.000217
H407	H	0.895347	0.601385	0.333117
H408	H	1.228680	0.934718	0.666450
H409	H	0.630990	0.231653	0.044696
H410	H	0.964324	0.564986	0.378029
H411	H	1.297657	0.898319	0.711362
N412	N	0.721713	0.190908	0.343919
N413	N	1.055047	0.524242	0.677252
N414	N	1.388380	0.857575	1.010585
H415	H	0.728909	0.183727	0.397989
H416	H	1.062242	0.517061	0.731322
H417	H	1.395576	0.850394	1.064656
H418	H	0.729575	0.240164	0.330577
H419	H	1.062909	0.573497	0.663910
H420	H	1.396242	0.906830	0.997243
