data_functionalizedCrystal
_audit_creation_method	'MofGen! by Chris Wilmer'
_symmetry_space_group_name_H-M	'P1'
_symmetry_Int_Tables_number	1
_symmetry_cell_setting	triclinic
loop_
_symmetry_equiv_pos_as_xyz
  x,y,z
_cell_length_a	14.971482
_cell_length_b	10.967829
_cell_length_c	13.448316
_cell_angle_alpha	77.865540
_cell_angle_beta	89.993798
_cell_angle_gamma	84.173805
loop_
_atom_site_label
_atom_site_type_symbol
_atom_site_fract_x
_atom_site_fract_y
_atom_site_fract_z
O1	O	1.187825	0.162598	-0.110539
O2	O	0.927529	0.182077	-0.113882
O3	O	1.063678	-0.009305	-0.081080
O4	O	1.051676	0.353980	-0.143340
O5	O	1.063661	-0.009317	0.084306
O6	O	0.927512	0.182065	0.051504
O7	O	1.187808	0.162586	0.054847
Cu8	Cu	1.057658	0.172324	0.068277
Cu9	Cu	1.057679	0.172338	-0.127311
O10	O	1.051659	0.353968	0.022046
C11	C	0.894191	0.181201	-0.031040
C12	C	0.794880	0.178593	-0.030595
C13	C	0.748219	0.177358	0.059769
C14	C	0.654908	0.174887	0.060193
C15	C	0.608257	0.173661	-0.029749
C16	C	0.654925	0.174892	-0.120118
C17	C	0.748236	0.177353	-0.120540
C18	C	0.460435	0.169764	-0.119233
C19	C	0.367118	0.167305	-0.118812
C20	C	0.367107	0.167298	0.061500
C21	C	0.460418	0.169760	0.061078
C22	C	0.507079	0.170993	-0.029292
C23	C	1.062795	-0.055803	0.009578
C24	C	1.060178	-0.194333	0.033313
C25	C	1.059021	-0.256081	-0.041781
C26	C	1.056316	-0.399259	-0.017252
C27	C	1.221146	0.163462	-0.027997
C28	C	1.320457	0.166070	-0.028449
C29	C	1.052542	0.400466	-0.068615
C30	C	1.055159	0.538996	-0.092357
N31	N	1.057650	0.172314	0.205843
N32	N	1.057694	0.172339	-0.264876
C33	C	1.117956	0.087605	0.272401
C34	C	1.117962	0.087604	0.376505
C35	C	1.057665	0.172319	0.414046
C36	C	0.997353	0.257032	0.347480
C37	C	0.997344	0.257026	0.243379
C38	C	0.997378	0.257040	0.564458
C39	C	0.997388	0.257048	0.668565
C40	C	1.117996	0.087618	0.697584
C41	C	1.117987	0.087612	0.593483
C42	C	1.057675	0.172327	0.526924
H43	H	0.786225	0.178361	-0.194124
C44	C	0.931010	0.350223	0.170162
N45	N	0.881045	0.420422	0.115016
C46	C	1.058810	-0.266107	0.144703
N47	N	1.057780	-0.320166	0.228604
C48	C	1.184288	-0.005591	0.231117
N49	N	1.234249	-0.075793	0.200025
H50	H	0.948287	0.326031	0.699125
H51	H	0.786194	0.178367	0.133008
H52	H	1.167067	0.018626	0.430698
H53	H	1.167089	0.018637	0.562917
C54	C	1.184336	-0.005574	0.770803
N55	N	1.234303	-0.075762	0.825955
H56	H	1.055299	-0.452387	0.065204
H57	H	1.056159	-0.407876	-0.174813
C58	C	0.603582	0.173558	0.159595
N59	N	0.564924	0.172566	0.234468
H60	H	0.948254	0.326005	0.378052
H61	H	0.948263	0.326021	0.510268
H62	H	0.329111	0.166294	0.135083
C63	C	0.315805	0.165950	-0.217751
N64	N	0.277156	0.164929	-0.292274
H65	H	1.060028	-0.202947	-0.124231
C66	C	0.603607	0.173539	-0.219054
N67	N	0.564954	0.172524	-0.293576
H68	H	0.498397	0.170766	0.134315
H69	H	0.498424	0.170769	-0.192823
