data_functionalizedCrystal
_audit_creation_method	'MofGen! by Chris Wilmer'
_symmetry_space_group_name_H-M	'P1'
_symmetry_Int_Tables_number	1
_symmetry_cell_setting	triclinic
loop_
_symmetry_equiv_pos_as_xyz
  x,y,z
_cell_length_a	12.594517
_cell_length_b	12.594510
_cell_length_c	12.827892
_cell_angle_alpha	90.034053
_cell_angle_beta	89.984651
_cell_angle_gamma	89.985902
loop_
_atom_site_label
_atom_site_type_symbol
_atom_site_fract_x
_atom_site_fract_y
_atom_site_fract_z
Zn1	Zn	1.627270	-0.601663	0.415940
Zn2	Zn	1.627163	-0.423685	0.590730
Zn3	Zn	1.449274	-0.423714	0.416004
Zn4	Zn	1.449258	-0.601637	0.590639
O5	O	1.538241	-0.512675	0.503328
O6	O	1.776201	-0.578053	0.439137
O7	O	1.603528	-0.274743	0.567617
O8	O	1.472937	-0.447341	0.269759
O9	O	1.776123	-0.447293	0.567555
O10	O	1.603710	-0.578080	0.269712
O11	O	1.472834	-0.274764	0.439246
O12	O	1.300326	-0.447317	0.439158
O13	O	1.472909	-0.750586	0.567400
O14	O	1.300314	-0.578036	0.567462
O15	O	1.603694	-0.750605	0.439049
O16	O	1.603512	-0.447268	0.736954
O17	O	1.472806	-0.578009	0.736887
C18	C	1.261700	-0.512677	0.503308
C19	C	1.143395	-0.512704	0.503324
C20	C	1.538311	-0.790296	0.503208
C21	C	1.538341	-0.908601	0.503156
C22	C	1.003402	-0.583670	0.573236
C23	C	1.074174	-0.486529	0.598682
C24	C	1.074195	-0.609834	0.477924
C25	C	1.003380	-0.415479	0.528854
C26	C	1.003396	-0.538850	0.408052
C27	C	1.074135	-0.441642	0.433462
C28	C	1.609496	-0.977865	0.433341
C29	C	1.512420	-1.048667	0.407762
C30	C	1.635475	-1.048598	0.528662
C31	C	1.441213	-0.977846	0.477528
C32	C	1.564333	-0.977770	0.598472
C33	C	1.467190	-1.048540	0.572930
C34	C	1.815862	-0.512673	0.503349
C35	C	1.934167	-0.512672	0.503358
C36	C	1.538175	-0.512656	0.774838
C37	C	1.538243	-0.512683	0.890991
C38	C	1.538232	-0.236134	0.503373
C39	C	1.538409	-0.117829	0.503130
C40	C	1.538337	-0.512717	0.230758
C41	C	1.538378	-0.512735	0.114605
C42	C	1.602998	-0.448061	0.942774
C43	C	1.603071	-0.448088	1.062825
H44	H	0.972345	-0.643622	0.632388
O45	O	1.669100	-0.381943	1.115912
C46	C	1.720926	-0.200991	1.149617
C47	C	1.646061	-0.275770	1.089436
H48	H	1.702341	-0.115136	1.128217
H49	H	1.709182	-0.212701	1.236980
H50	H	1.806741	-0.219791	1.128151
H51	H	1.560218	-0.257017	1.110814
H52	H	1.657898	-0.264046	1.002087
O53	O	0.966566	-0.317430	0.554766
C54	C	0.961601	-0.178771	0.684192
C55	C	1.003386	-0.289804	0.654965
H56	H	0.991334	-0.156411	0.765212
H57	H	0.991373	-0.118156	0.625048
H58	H	0.871088	-0.179581	0.683975
H59	H	1.093896	-0.289098	0.655192
H60	H	0.973533	-0.350372	0.714115
H61	H	1.658388	-0.392718	0.898234
O62	O	1.111218	-0.460292	0.694879
C63	C	1.117150	-0.505384	0.877313
C64	C	1.075156	-0.535225	0.768424
H65	H	1.087992	-0.565938	0.936808
H66	H	1.207661	-0.504938	0.876246
H67	H	1.086823	-0.423125	0.899507
H68	H	1.105403	-0.617490	0.746163
H69	H	0.984646	-0.535597	0.769550
H70	H	0.972283	-0.561014	0.327492
H71	H	1.482932	-0.568060	1.070080
O72	O	1.111180	-0.707922	0.452393
C73	C	1.117235	-0.893580	0.497289
C74	C	1.075263	-0.782559	0.526297
H75	H	1.088232	-0.953950	0.557037
H76	H	1.086879	-0.916553	0.416656
H77	H	1.207743	-0.892410	0.496734
H78	H	0.984759	-0.783644	0.526912
H79	H	1.105701	-0.759629	0.606912
H80	H	1.104996	-0.381545	0.374355
O81	O	1.395216	-1.085290	0.643233
C82	C	1.211591	-1.090685	0.695768
C83	C	1.292987	-1.049014	0.616068
H84	H	1.128923	-1.061354	0.673846
H85	H	1.212543	-1.181199	0.695725
H86	H	1.233069	-1.060290	0.776788
H87	H	1.271565	-1.079331	0.535009
H88	H	1.292019	-0.958501	0.616203
H89	H	1.669564	-0.946829	0.374266
O90	O	1.472280	-0.578868	0.944074
C91	C	1.420520	-0.759852	0.977522
C92	C	1.495308	-0.685018	0.917364
H93	H	1.439096	-0.845689	0.955933
H94	H	1.432356	-0.748203	1.064889
H95	H	1.334679	-0.741051	0.956226
H96	H	1.581177	-0.703773	0.938573
H97	H	1.483379	-0.696681	0.830012
O98	O	1.486392	-1.085777	0.311526
C99	C	1.531872	-1.091819	0.129144
C100	C	1.561474	-1.049748	0.238077
H101	H	1.592546	-1.062687	0.069728
H102	H	1.531443	-1.182330	0.130191
H103	H	1.449654	-1.061524	0.106858
H104	H	1.643697	-1.079964	0.260430
H105	H	1.561830	-0.959238	0.236972
O106	O	1.343295	-0.940756	0.451635
C107	C	1.233388	-0.786947	0.422666
C108	C	1.344332	-0.828809	0.451982
H109	H	1.234184	-0.696434	0.422959
H110	H	1.211094	-0.816704	0.341628
H111	H	1.172726	-0.816723	0.481785
H112	H	1.405067	-0.799050	0.392934
H113	H	1.366536	-0.799060	0.533046
H114	H	1.586324	-0.946607	0.679068
H115	H	1.717590	-1.079680	0.550244
