data_functionalizedCrystal
_audit_creation_method	'MofGen! by Chris Wilmer'
_symmetry_space_group_name_H-M	'P1'
_symmetry_Int_Tables_number	1
_symmetry_cell_setting	triclinic
loop_
_symmetry_equiv_pos_as_xyz
  x,y,z
_cell_length_a	17.639929
_cell_length_b	17.639123
_cell_length_c	17.637464
_cell_angle_alpha	92.193406
_cell_angle_beta	92.143398
_cell_angle_gamma	92.177189
loop_
_atom_site_label
_atom_site_type_symbol
_atom_site_fract_x
_atom_site_fract_y
_atom_site_fract_z
Zn1	Zn	-0.215294	-1.124399	-0.631234
Zn2	Zn	0.284706	-0.624399	-0.131234
Zn3	Zn	-0.309263	-1.171963	-0.489714
Zn4	Zn	0.190737	-0.671963	0.010286
Zn5	Zn	-0.205659	-1.020848	-0.480041
Zn6	Zn	0.294341	-0.520848	0.019959
Zn7	Zn	-0.356766	-1.030438	-0.583572
Zn8	Zn	0.143234	-0.530438	-0.083572
O9	O	-0.271746	-1.086912	-0.546140
O10	O	0.228254	-0.586912	-0.046140
O11	O	-0.211912	-1.233274	-0.636457
O12	O	0.288088	-0.733274	-0.136457
O13	O	-0.271607	-1.167809	-0.385877
O14	O	0.228393	-0.667809	0.114123
O15	O	-0.104372	-1.010666	-0.515996
O16	O	0.395628	-0.510666	-0.015996
O17	O	-0.280951	-1.268219	-0.532482
O18	O	0.219049	-0.768219	-0.032482
O19	O	-0.111451	-1.086744	-0.627077
O20	O	0.388549	-0.586744	-0.127077
O21	O	-0.195489	-1.056786	-0.378770
O22	O	0.304511	-0.556786	0.121230
O23	O	-0.241551	-0.919555	-0.469780
O24	O	0.258449	-0.419555	0.030220
O25	O	-0.361912	-1.027009	-0.692449
O26	O	0.138088	-0.527009	-0.192449
O27	O	-0.352568	-0.926600	-0.545843
O28	O	0.147432	-0.426600	-0.045843
O29	O	-0.257973	-1.096043	-0.727466
O30	O	0.242027	-0.596043	-0.227466
O31	O	-0.418130	-1.177108	-0.486266
O32	O	0.081870	-0.677108	0.013734
O33	O	-0.453030	-1.073130	-0.555223
O34	O	0.046970	-0.573130	-0.055223
C35	C	-0.301169	-0.896483	-0.501590
C36	C	0.198831	-0.396483	-0.001590
C37	C	-0.313778	-0.815018	-0.482546
C38	C	0.186222	-0.315018	0.017454
C39	C	-0.367403	-0.718383	-0.401514
C40	C	0.132597	-0.218383	0.098486
C41	C	-0.355550	-0.794929	-0.419415
C42	C	0.144450	-0.294929	0.080585
C43	C	-0.283846	-0.758562	-0.527803
C44	C	0.216154	-0.258562	-0.027803
C45	C	-0.295696	-0.682011	-0.509913
C46	C	0.204304	-0.182011	-0.009913
C47	C	-0.337474	-0.661928	-0.446767
C48	C	0.162526	-0.161928	0.053233
C49	C	-0.265767	-0.625557	-0.555166
C50	C	0.234233	-0.125557	-0.055166
C51	C	-0.277613	-0.549013	-0.537275
C52	C	0.222387	-0.049013	-0.037275
C53	C	-0.319387	-0.528923	-0.474131
C54	C	0.180613	-0.028923	0.025869
C55	C	-0.349320	-0.585384	-0.428876
C56	C	0.150680	-0.085384	0.071124
C57	C	-0.223984	-0.645641	-0.618308
C58	C	0.276016	-0.145641	-0.118308
C59	C	-0.194056	-0.589187	-0.663562
C60	C	0.305944	-0.089187	-0.163562
C61	C	-0.205906	-0.512641	-0.645674
C62	C	0.294094	-0.012641	-0.145674
C63	C	-0.247680	-0.492551	-0.582530
C64	C	0.252320	0.007449	-0.082530
C65	C	-0.175973	-0.456180	-0.690929
C66	C	0.324027	0.043820	-0.190929
C67	C	-0.187819	-0.379635	-0.673038
C68	C	0.312181	0.120365	-0.173038
C69	C	-0.259526	-0.416007	-0.564639
C70	C	0.240474	0.083993	-0.064639
C71	C	-0.462174	-1.131338	-0.516643
C72	C	0.037826	-0.631338	-0.016643
C73	C	-0.543636	-1.150407	-0.504063
C74	C	-0.043636	-0.650407	-0.004063
C75	C	-0.640262	-1.231442	-0.450487
C76	C	-0.140262	-0.731442	0.049513
C77	C	-0.563719	-1.213517	-0.462311
C78	C	-0.063719	-0.713517	0.037689
C79	C	-0.600096	-1.105199	-0.534012
C80	C	-0.100096	-0.605199	-0.034012
C81	C	-0.676644	-1.123117	-0.522197
C82	C	-0.176644	-0.623117	-0.022197
C83	C	-0.696721	-1.186239	-0.480433
C84	C	-0.196721	-0.686239	0.019567
C85	C	-0.733102	-1.077914	-0.552144
C86	C	-0.233102	-0.577914	-0.052144
C87	C	-0.809644	-1.095828	-0.540327
C88	C	-0.309644	-0.595828	-0.040327
C89	C	-0.829727	-1.158945	-0.498563
C90	C	-0.329727	-0.658945	0.001437
C91	C	-0.773262	-1.204153	-0.468616
C92	C	-0.273262	-0.704153	0.031384
C93	C	-0.713024	-1.014789	-0.593903
C94	C	-0.213024	-0.514789	-0.093903
C95	C	-0.769482	-0.969586	-0.623850
C96	C	-0.269482	-0.469586	-0.123850
C97	C	-0.846025	-0.987503	-0.612037
C98	C	-0.346025	-0.487503	-0.112037
C99	C	-0.866108	-1.050620	-0.570273
C100	C	-0.366108	-0.550620	-0.070273
C101	C	-0.902490	-0.942295	-0.641984
C102	C	-0.402490	-0.442295	-0.141984
C103	C	-0.979031	-0.960210	-0.630167
C104	C	-0.479031	-0.460210	-0.130167
C105	C	-0.942650	-1.068535	-0.558456
C106	C	-0.442650	-0.568535	-0.058456
C107	C	-0.080574	-1.042330	-0.575774
C108	C	0.419426	-0.542330	-0.075774
C109	C	0.000892	-1.023331	-0.588403
C110	C	0.500892	-0.523331	-0.088403
C111	C	-0.316316	-1.057290	-0.737292
C112	C	0.183684	-0.557290	-0.237292
C113	C	-0.335310	-1.044667	-0.818750
C114	C	0.164690	-0.544667	-0.318750
C115	C	-0.242202	-0.278085	-0.590857
C116	C	0.257798	0.221915	-0.090857
C117	C	-0.229597	-0.359552	-0.609892
C118	C	0.270403	0.140448	-0.109892
C119	C	-0.416191	-0.990938	-0.915332
C120	C	0.083809	-0.490938	-0.415332
C121	C	-0.398337	-1.002803	-0.838792
C122	C	0.101663	-0.502803	-0.338792
C123	C	-0.290113	-1.074687	-0.875247
C124	C	0.209887	-0.574687	-0.375247
C125	C	-0.307960	-1.062831	-0.951791
C126	C	0.192040	-0.562831	-0.451791
C127	C	-0.370999	-1.020955	-0.971827
C128	C	0.129001	-0.520955	-0.471827
C129	C	-0.262768	-1.092848	-1.008286
C130	C	0.237232	-0.592848	-0.508286
C131	C	-0.280611	-1.080989	-1.084824
C132	C	0.219389	-0.580989	-0.584824
C133	C	-0.343646	-1.039114	-1.104866
C134	C	0.156354	-0.539114	-0.604866
C135	C	-0.388842	-1.009096	-1.048365
C136	C	0.111158	-0.509096	-0.548365
C137	C	-0.199726	-1.134719	-0.988249
C138	C	0.300274	-0.634719	-0.488249
C139	C	-0.154535	-1.164736	-1.044744
C140	C	0.345465	-0.664736	-0.544744
C141	C	-0.172381	-1.152882	-1.121283
C142	C	0.327619	-0.652882	-0.621283
C143	C	-0.235416	-1.111006	-1.141326
C144	C	0.264584	-0.611006	-0.641326
C145	C	-0.127185	-1.182899	-1.177785
C146	C	0.372815	-0.682899	-0.677785
C147	C	-0.145028	-1.171041	-1.254322
C148	C	0.354972	-0.671041	-0.754322
C149	C	-0.253259	-1.099148	-1.217863
C150	C	0.246741	-0.599148	-0.717863
C151	C	-0.227289	-1.116448	-0.355750
C152	C	0.272711	-0.616448	0.144250
C153	C	-0.208067	-1.129165	-0.274358
C154	C	0.291933	-0.629165	0.225642
H155	H	-0.329018	-0.466594	-0.459556
H156	H	0.170982	0.033406	0.040444
H157	H	-0.383348	-0.569033	-0.377462
H158	H	0.116652	-0.069033	0.122538
N159	N	-0.912282	-1.178264	-0.485812
N160	N	-0.412282	-0.678264	0.014188
H161	H	-0.940337	-1.188214	-0.536397
H162	H	-0.440337	-0.688214	-0.036397
H163	H	-0.916368	-1.225094	-0.454785
H164	H	-0.416368	-0.725094	0.045215
H165	H	-0.440179	-0.975003	-1.064679
H166	H	0.059821	-0.475003	-0.564679
N167	N	-0.096287	-1.203412	-1.315262
N168	N	0.403713	-0.703412	-0.815262
H169	H	-0.053647	-1.231741	-1.290956
H170	H	0.446353	-0.731741	-0.790956
H171	H	-0.128288	-1.239365	-1.350329
H172	H	0.371712	-0.739365	-0.850329
H173	H	-0.304596	-1.065054	-1.234177
H174	H	0.195404	-0.565054	-0.734177
H175	H	-0.141951	-0.472543	-0.742337
H176	H	0.358049	0.027457	-0.242337
H177	H	-0.379925	-0.840895	-0.382560
H178	H	0.120075	-0.340895	0.117440
H179	H	-0.789609	-1.255559	-0.434616
H180	H	-0.289609	-0.755559	0.065384
H181	H	-0.238785	-1.108780	-0.858922
H182	H	0.261215	-0.608780	-0.358922
H183	H	-0.467528	-0.956844	-0.931646
H184	H	0.032472	-0.456844	-0.431646
N185	N	-0.238805	-0.780227	-0.595919
N186	N	0.261195	-0.280227	-0.095919
H187	H	-0.235847	-0.837284	-0.600392
H188	H	0.264153	-0.337284	-0.100392
H189	H	-0.264584	-0.761431	-0.643324
H190	H	0.235416	-0.261431	-0.143324
H191	H	-0.401431	-0.702032	-0.350100
H192	H	0.098569	-0.202032	0.149900
N193	N	-0.180484	-1.147512	-0.905697
N194	N	0.319516	-0.647512	-0.405697
H195	H	-0.181887	-1.203791	-0.896939
H196	H	0.318113	-0.703791	-0.396939
H197	H	-0.127997	-1.125127	-0.891953
H198	H	0.372003	-0.625127	-0.391953
H199	H	-0.435131	-0.978339	-0.792792
H200	H	0.064869	-0.478339	-0.292792
N201	N	-1.039928	-0.911454	-0.662464
N202	N	-0.539928	-0.411454	-0.162464
H203	H	-1.037038	-0.911556	-0.719551
H204	H	-0.537038	-0.411556	-0.219551
H205	H	-1.091431	-0.932409	-0.648582
H206	H	-0.591431	-0.432409	-0.148582
H207	H	-0.293554	-0.399655	-0.513225
H208	H	0.206446	0.100345	-0.013225
H209	H	-0.214338	-0.707970	-0.632871
H210	H	0.285662	-0.207970	-0.132871
H211	H	-0.160037	-0.605549	-0.714973
H212	H	0.339963	-0.105549	-0.214973
N213	N	-0.086560	-1.209918	-1.023125
N214	N	0.413440	-0.709918	-0.523125
H215	H	-0.049785	-1.177147	-0.989661
H216	H	0.450215	-0.677147	-0.489661
H217	H	-0.103784	-1.255738	-0.994731
H218	H	0.396216	-0.755738	-0.494731
N219	N	-0.155538	-0.318739	-0.721842
N220	N	0.344462	0.181261	-0.221842
H221	H	-0.127277	-0.343076	-0.764560
H222	H	0.372723	0.156924	-0.264560
H223	H	-0.198238	-0.288716	-0.743654
H224	H	0.301762	0.211284	-0.243654
N225	N	-0.964300	-1.136616	-0.513405
N226	N	-0.464300	-0.636616	-0.013405
H227	H	-0.992769	-1.119561	-0.467548
H228	H	-0.492769	-0.619561	0.032452
H229	H	-0.997694	-1.173337	-0.546310
H230	H	-0.497694	-0.673337	-0.046310
N231	N	-0.059205	-1.228077	-1.156171
N232	N	0.440795	-0.728077	-0.656171
H233	H	-0.054762	-1.231038	-1.099112
H234	H	0.445238	-0.731038	-0.599112
H235	H	-0.065666	-1.281009	-1.180027
H236	H	0.434334	-0.781009	-0.680027
N237	N	-0.362887	-1.026319	-1.187418
N238	N	0.137113	-0.526319	-0.687418
H239	H	-0.372892	-1.076882	-1.215529
H240	H	0.127108	-0.576882	-0.715529
H241	H	-0.409662	-0.995210	-1.191474
H242	H	0.090338	-0.495210	-0.691474
N243	N	-0.661935	-1.299524	-0.405447
N244	N	-0.161935	-0.799524	0.094553
H245	H	-0.643142	-1.346986	-0.431184
H246	H	-0.143142	-0.846986	0.068816
H247	H	-0.638190	-1.293124	-0.352479
H248	H	-0.138190	-0.793124	0.147521
N249	N	-0.502821	-1.262271	-0.430003
N250	N	-0.002821	-0.762271	0.069997
H251	H	-0.527158	-1.304973	-0.401751
H252	H	-0.027158	-0.804973	0.098249
H253	H	-0.472742	-1.284099	-0.472696
H254	H	0.027258	-0.784099	0.027304
N255	N	-0.880822	-0.874217	-0.687023
N256	N	-0.380822	-0.374217	-0.187023
H257	H	-0.904564	-0.880551	-0.739999
H258	H	-0.404564	-0.380551	-0.239999
H259	H	-0.899620	-0.826792	-0.661226
H260	H	-0.399620	-0.326792	-0.161226
N261	N	-0.578430	-1.037125	-0.579058
N262	N	-0.078430	-0.537125	-0.079058
H263	H	-0.602175	-1.043465	-0.632032
H264	H	-0.102175	-0.543465	-0.132032
H265	H	-0.597227	-0.989696	-0.553265
H266	H	-0.097227	-0.489696	-0.053265
N267	N	-0.630468	-0.995464	-0.606645
N268	N	-0.130468	-0.495464	-0.106645
H269	H	-0.621646	-0.996774	-0.662924
H270	H	-0.121646	-0.496774	-0.162924
H271	H	-0.616756	-0.942995	-0.584164
H272	H	-0.116756	-0.442995	-0.084164
N273	N	-0.747825	-0.901503	-0.668887
N274	N	-0.247825	-0.401503	-0.168887
H275	H	-0.690769	-0.897011	-0.671828
H276	H	-0.190769	-0.397011	-0.171828
H277	H	-0.771619	-0.907882	-0.721836
H278	H	-0.271619	-0.407882	-0.221836
