data_functionalizedCrystal
_audit_creation_method	'MofGen! by Chris Wilmer'
_symmetry_space_group_name_H-M	'P1'
_symmetry_Int_Tables_number	1
_symmetry_cell_setting	triclinic
loop_
_symmetry_equiv_pos_as_xyz
  x,y,z
_cell_length_a	25.639242
_cell_length_b	16.625546
_cell_length_c	16.625539
_cell_angle_alpha	89.969603
_cell_angle_beta	90.029355
_cell_angle_gamma	89.982005
loop_
_atom_site_label
_atom_site_type_symbol
_atom_site_fract_x
_atom_site_fract_y
_atom_site_fract_z
Zn1	Zn	0.799321	0.321096	0.456087
Zn2	Zn	1.299321	0.821096	0.956087
Zn3	Zn	0.799258	0.455939	0.321249
Zn4	Zn	1.299258	0.955939	0.821249
Zn5	Zn	0.711886	0.321114	0.321246
Zn6	Zn	1.211886	0.821114	0.821246
Zn7	Zn	0.711867	0.455880	0.456018
Zn8	Zn	1.211867	0.955880	0.956018
O9	O	0.755583	0.388507	0.388650
O10	O	1.255583	0.888507	0.888650
O11	O	0.872478	0.339001	0.438230
O12	O	1.372478	0.839001	0.938230
O13	O	0.787650	0.438087	0.208416
O14	O	1.287650	0.938087	0.708416
O15	O	0.723519	0.208279	0.339161
O16	O	1.223519	0.708279	0.839161
O17	O	0.872432	0.438070	0.339165
O18	O	1.372432	0.938070	0.839165
O19	O	0.787757	0.208266	0.438227
O20	O	1.287757	0.708266	0.938227
O21	O	0.723458	0.339031	0.208414
O22	O	1.223458	0.839031	0.708414
O23	O	0.638719	0.338974	0.339095
O24	O	1.138719	0.838974	0.839095
O25	O	0.723486	0.437969	0.568860
O26	O	1.223486	0.937969	1.068860
O27	O	0.638705	0.437986	0.438111
O28	O	1.138705	0.937986	0.938111
O29	O	0.787738	0.338943	0.568910
O30	O	1.287738	0.838943	1.068910
O31	O	0.787631	0.568764	0.339099
O32	O	1.287631	1.068764	0.839099
O33	O	0.723426	0.568720	0.438113
O34	O	1.223426	1.068720	0.938113
C35	C	0.755534	0.597998	0.388616
C36	C	1.255534	1.097998	0.888616
C37	C	0.755560	0.687619	0.388629
C38	C	1.255560	1.187619	0.888629
C39	C	0.619741	0.388476	0.388595
C40	C	1.119741	0.888476	0.888595
C41	C	0.561627	0.388482	0.388591
C42	C	1.061627	0.888482	0.888591
C43	C	0.755617	0.388447	0.598959
C44	C	1.255617	0.888447	1.098959
C45	C	0.755632	0.388422	0.688580
C46	C	1.255632	0.888422	1.188580
C47	C	0.201265	0.440149	0.440159
C48	C	0.701265	0.940149	0.940159
C49	C	0.146661	0.440154	0.440172
C50	C	0.646661	0.940154	0.940172
O51	O	0.118425	0.484044	0.483970
O52	O	0.618425	0.984044	0.983970
N53	N	0.119344	0.388530	0.388703
N54	N	0.619344	0.888530	0.888703
C55	C	0.146635	0.336891	0.337223
C56	C	0.646635	0.836891	0.837223
O57	O	0.118386	0.292980	0.293447
O58	O	0.618386	0.792980	0.793447
C59	C	0.201238	0.336883	0.337215
C60	C	0.701238	0.836883	0.837215
C61	C	0.228552	0.388516	0.388682
C62	C	0.728552	0.888516	0.888682
C63	C	0.228579	0.491778	0.491622
C64	C	0.728579	0.991778	0.991622
C65	C	0.283180	0.491774	0.491608
C66	C	0.783180	0.991774	0.991608
C67	C	0.310466	0.440141	0.440131
C68	C	0.810466	0.940141	0.940131
C69	C	0.283152	0.388512	0.388668
C70	C	0.783152	0.888512	0.888668
C71	C	0.228528	0.285241	0.285741
C72	C	0.728528	0.785241	0.785741
C73	C	0.283135	0.285236	0.285738
C74	C	0.783135	0.785236	0.785738
C75	C	0.310448	0.336870	0.337204
C76	C	0.810448	0.836870	0.837204
C77	C	0.365040	0.336875	0.337177
C78	C	0.865040	0.836875	0.837177
N79	N	0.392356	0.388500	0.388646
N80	N	0.892356	0.888500	0.888646
C81	C	0.365070	0.440133	0.440123
C82	C	0.865070	0.940133	0.940123
C83	C	0.031964	0.336912	0.337245
C84	C	0.531964	0.836912	0.837245
C85	C	-0.022638	0.336923	0.337249
C86	C	0.477362	0.836923	0.837249
C87	C	-0.022608	0.440186	0.440198
C88	C	0.477392	0.940186	0.940198
C89	C	0.031995	0.440177	0.440190
C90	C	0.531995	0.940177	0.940190
C91	C	0.059281	0.388536	0.388714
C92	C	0.559281	0.888536	0.888714
C93	C	0.479735	0.440121	0.440089
C94	C	0.979735	0.940121	0.940089
C95	C	0.534340	0.440114	0.440068
C96	C	1.034340	0.940114	0.940068
C97	C	0.534305	0.336850	0.337122
C98	C	1.034305	0.836850	0.837122
C99	C	0.479705	0.336858	0.337140
C100	C	0.979705	0.836858	0.837140
C101	C	0.452421	0.388497	0.388630
C102	C	0.952421	0.888497	0.888630
O103	O	0.393310	0.293005	0.293403
O104	O	0.893310	0.793005	0.793403
O105	O	0.393325	0.484029	0.483900
O106	O	0.893325	0.984029	0.983900
C107	C	0.891956	0.388540	0.388705
C108	C	1.391956	0.888540	0.888705
C109	C	0.950070	0.388554	0.388729
C110	C	1.450070	0.888554	0.888729
C111	C	0.755647	0.178199	0.388702
C112	C	1.255647	0.678199	0.888702
C113	C	0.755674	0.088577	0.388724
C114	C	1.255674	0.588577	0.888724
C115	C	0.755652	1.015795	0.388713
C116	C	1.255652	1.515795	0.888713
C117	C	0.755625	0.924487	0.388692
C118	C	1.255625	1.424487	0.888692
C119	C	0.755606	0.851710	0.388670
C120	C	1.255606	1.351710	0.888670
C121	C	0.755579	0.760396	0.388650
C122	C	1.255579	1.260396	0.888650
C123	C	0.755580	0.388509	0.179159
C124	C	1.255580	0.888509	0.679159
C125	C	0.755666	0.388308	0.089539
C126	C	1.255666	0.888308	0.589539
C127	C	0.755656	0.388332	1.016756
C128	C	1.255656	0.888332	1.516756
C129	C	0.755648	0.388359	0.925448
C130	C	1.255648	0.888359	1.425448
C131	C	0.755644	0.388377	0.852671
C132	C	1.255644	0.888377	1.352671
C133	C	0.755635	0.388404	0.761357
C134	C	1.255635	0.888404	1.261357
H135	H	0.556577	0.482164	0.481979
H136	H	1.056577	0.982164	0.981979
H137	H	0.054230	0.482221	0.482100
H138	H	0.554230	0.982221	0.982100
H139	H	0.556532	0.294814	0.295208
H140	H	1.056532	0.794814	0.795208
H141	H	0.054177	0.294860	0.295322
H142	H	0.554177	0.794860	0.795322
H143	H	0.206368	0.533824	0.533545
H144	H	0.706368	1.033824	1.033545
H145	H	0.457527	0.482168	0.482019
H146	H	0.957527	0.982168	0.982019
H147	H	0.305414	0.533818	0.533519
H148	H	0.805414	1.033818	1.033519
H149	H	-0.044873	0.294886	0.295331
H150	H	0.455127	0.794886	0.795331
H151	H	0.206298	0.243197	0.243829
H152	H	0.706298	0.743197	0.743829
H153	H	-0.044835	0.482226	0.482116
H154	H	0.455165	0.982226	0.982116
H155	H	0.305348	0.243178	0.243824
H156	H	0.805348	0.743178	0.743824
H157	H	0.457465	0.294816	0.295230
H158	H	0.957465	0.794816	0.795230
