data_functionalizedCrystal
_audit_creation_method	'MofGen! by Chris Wilmer'
_symmetry_space_group_name_H-M	'P1'
_symmetry_Int_Tables_number	1
_symmetry_cell_setting	triclinic
loop_
_symmetry_equiv_pos_as_xyz
  x,y,z
_cell_length_a	11.792241
_cell_length_b	11.026623
_cell_length_c	10.065875
_cell_angle_alpha	79.268776
_cell_angle_beta	81.196375
_cell_angle_gamma	83.609940
loop_
_atom_site_label
_atom_site_type_symbol
_atom_site_fract_x
_atom_site_fract_y
_atom_site_fract_z
O1	O	1.552944	-0.148820	-0.113355
O2	O	1.226015	-0.165980	-0.113386
O3	O	1.362382	0.019430	-0.113366
O4	O	1.416577	-0.334231	-0.113375
O5	O	1.336408	-0.016068	0.113619
O6	O	1.200041	-0.201478	0.113599
O7	O	1.526970	-0.184318	0.113630
Zn8	Zn	1.359381	-0.198534	0.149653
Zn9	Zn	1.393603	-0.151764	-0.149409
O10	O	1.390603	-0.369729	0.113610
C11	C	1.170523	-0.182650	0.000102
C12	C	1.043870	-0.179421	0.000090
C13	C	1.339397	0.046958	0.000124
C14	C	1.309595	0.181869	0.000118
N15	N	1.336034	-0.230453	0.353755
C16	C	0.811975	-0.173493	0.000130
C17	C	0.941017	-0.176787	0.000108
C18	C	1.582462	-0.167648	0.000139
C19	C	1.709116	-0.170875	0.000142
C20	C	1.391884	0.255132	0.000125
C21	C	1.361083	0.394570	0.000119
C22	C	1.413586	0.602743	0.000120
C23	C	1.443384	0.467832	0.000125
N24	N	1.416958	-0.119836	-0.353511
C25	C	1.385471	-0.162862	0.421541
C26	C	1.367513	-0.187437	0.578706
H27	H	1.485136	0.214625	0.000142
H28	H	1.441087	-0.086796	0.363225
H29	H	1.472577	-0.043765	0.588176
C30	C	1.261954	-0.331859	0.431749
C31	C	1.258901	-0.336100	0.572128
C32	C	1.190682	-0.429512	0.644014
H33	H	1.185992	-0.314825	0.408575
H34	H	1.293729	-0.409394	0.408477
H35	H	1.227123	-0.258584	0.595391
H36	H	1.334845	-0.353151	0.595343
H37	H	1.222456	-0.507047	0.620742
H38	H	1.114724	-0.412469	0.620828
H39	H	1.188610	-0.432410	0.739268
H40	H	1.311884	-0.263498	0.637019
C41	C	1.236790	0.448786	0.000171
C42	C	1.230945	0.576301	0.000200
C43	C	1.116466	0.626284	0.000266
H44	H	1.208959	0.434901	-0.078964
H45	H	1.190930	0.410086	0.079355
H46	H	1.276788	0.614988	-0.078976
H47	H	1.258752	0.590221	0.079329
H48	H	1.070606	0.587585	0.079450
H49	H	1.088645	0.612391	-0.078871
H50	H	1.112484	0.712805	0.000298
H51	H	1.216342	0.222377	0.000101
C52	C	1.567663	0.413599	0.000205
C53	C	1.573505	0.286073	0.000239
C54	C	1.687967	0.236070	0.000329
H55	H	1.613605	0.452228	-0.078925
H56	H	1.595398	0.427539	0.079395
H57	H	1.545785	0.272142	-0.078943
H58	H	1.527589	0.247410	0.079363
H59	H	1.715702	0.250010	0.079519
H60	H	1.733899	0.274708	-0.078802
H61	H	1.691944	0.149537	0.000365
