data_functionalizedCrystal
_audit_creation_method	'MofGen! by Chris Wilmer'
_symmetry_space_group_name_H-M	'P1'
_symmetry_Int_Tables_number	1
_symmetry_cell_setting	triclinic
loop_
_symmetry_equiv_pos_as_xyz
  x,y,z
_cell_length_a	19.288840
_cell_length_b	19.188930
_cell_length_c	18.366186
_cell_angle_alpha	90.011368
_cell_angle_beta	90.016271
_cell_angle_gamma	83.135398
loop_
_atom_site_label
_atom_site_type_symbol
_atom_site_fract_x
_atom_site_fract_y
_atom_site_fract_z
O1	O	0.921370	0.087016	0.060679
O2	O	1.421370	0.587016	0.560679
O3	O	0.719108	0.098784	0.060655
O4	O	1.219108	0.598784	0.560655
O5	O	0.826076	-0.008757	0.060654
O6	O	1.326076	0.491243	0.560654
O7	O	0.814402	0.194556	0.060681
O8	O	1.314402	0.694556	0.560681
O9	O	0.826058	-0.008762	-0.060446
O10	O	1.326058	0.491238	0.439554
O11	O	0.719090	0.098778	-0.060444
O12	O	1.219090	0.598778	0.439556
O13	O	0.921352	0.087011	-0.060420
O14	O	1.421352	0.587011	0.439580
Zn15	Zn	0.820218	0.092894	-0.079659
Zn16	Zn	1.320218	0.592894	0.420341
Zn17	Zn	0.820242	0.092901	0.079894
Zn18	Zn	1.320242	0.592901	0.579894
O19	O	0.814384	0.194551	-0.060419
O20	O	1.314384	0.694551	0.439581
C21	C	0.693222	0.098405	0.000102
C22	C	1.193222	0.598405	0.500102
C23	C	0.616118	0.097277	0.000092
C24	C	1.116118	0.597277	0.500092
C25	C	0.579924	0.096738	0.066105
C26	C	1.079924	0.596738	0.566105
C27	C	0.507477	0.095671	0.066114
C28	C	1.007477	0.595671	0.566114
C29	C	0.471228	0.095128	0.000106
C30	C	0.971228	0.595128	0.500106
C31	C	0.507430	0.095671	-0.065916
C32	C	1.007430	0.595671	0.434084
C33	C	0.579875	0.096746	-0.065922
C34	C	1.079875	0.596746	0.434078
C35	C	0.361890	0.052528	-0.050461
C36	C	0.861890	0.552528	0.449539
C37	C	0.289447	0.051449	-0.050451
C38	C	0.789447	0.551449	0.449549
C39	C	0.247784	0.091817	0.000125
C40	C	0.747784	0.591817	0.500125
C41	C	0.278575	0.133255	0.050703
C42	C	0.778575	0.633255	0.550703
C43	C	0.351019	0.134330	0.050696
C44	C	0.851019	0.634330	0.550696
C45	C	0.392674	0.093963	0.000106
C46	C	0.892674	0.593963	0.500106
C47	C	0.133035	0.090121	0.066152
C48	C	0.633035	0.590121	0.566152
C49	C	0.060586	0.089058	0.066158
C50	C	0.560586	0.589058	0.566158
C51	C	0.060542	0.089052	-0.065874
C52	C	0.560542	0.589052	0.434126
C53	C	0.132989	0.090122	-0.065878
C54	C	0.632989	0.590122	0.434122
C55	C	0.169231	0.090653	0.000137
C56	C	0.669231	0.590653	0.500137
C57	C	0.825689	-0.034770	0.000102
C58	C	1.325689	0.465230	0.500102
C59	C	0.824554	-0.112275	0.000096
C60	C	1.324554	0.387725	0.500096
C61	C	0.887319	-0.157209	0.000100
C62	C	1.387319	0.342791	0.500100
C63	C	0.886253	-0.230033	0.000111
C64	C	1.386253	0.269967	0.500111
C65	C	0.822418	-0.257919	0.000104
C66	C	1.322418	0.242081	0.500104
C67	C	0.759645	-0.212975	0.000104
C68	C	1.259645	0.287025	0.500104
C69	C	0.760713	-0.140153	0.000100
C70	C	1.260713	0.359847	0.500100
N71	N	0.773618	-0.365917	-0.041114
N72	N	1.273618	0.134083	0.458886
N73	N	0.772608	-0.435096	-0.041112
N74	N	1.272608	0.064904	0.458888
C75	C	0.819197	-0.477327	0.000118
C76	C	1.319197	0.022673	0.500118
N77	N	0.866845	-0.447767	0.041337
N78	N	1.366845	0.052233	0.541337
N79	N	0.867857	-0.378583	0.041331
N80	N	1.367857	0.121417	0.541331
C81	C	0.821253	-0.336881	0.000109
C82	C	1.321253	0.163119	0.500109
C83	C	0.880811	-0.601225	0.000136
C84	C	1.380811	-0.101225	0.500136
C85	C	0.879742	-0.674050	0.000152
C86	C	1.379742	-0.174050	0.500152
C87	C	0.753131	-0.656990	0.000138
C88	C	1.253131	-0.156990	0.500138
C89	C	0.754202	-0.584167	0.000129
C90	C	1.254202	-0.084167	0.500129
C91	C	0.818043	-0.556289	0.000125
C92	C	1.318043	-0.056289	0.500125
C93	C	0.947238	0.087389	0.000135
C94	C	1.447238	0.587389	0.500135
C95	C	1.024343	0.088517	0.000149
C96	C	1.524343	0.588517	0.500149
C97	C	0.814771	0.220565	0.000135
C98	C	1.314771	0.720565	0.500135
C99	C	0.815906	0.298069	0.000146
C100	C	1.315906	0.798069	0.500146
N101	N	0.820207	0.092888	-0.188550
N102	N	1.320207	0.592888	0.311450
C103	C	0.867588	0.045293	-0.226651
C104	C	1.367588	0.545293	0.273349
C105	C	0.867592	0.045290	-0.302879
C106	C	1.367592	0.545290	0.197121
C107	C	0.820222	0.092894	-0.341003
C108	C	1.320222	0.592894	0.158997
C109	C	0.772833	0.140494	-0.302893
C110	C	1.272833	0.640494	0.197107
C111	C	0.772825	0.140491	-0.226666
C112	C	1.272825	0.640491	0.273334
C113	C	0.810929	0.156512	-0.461756
C114	C	1.310929	0.656512	0.038244
C115	C	0.810941	0.156516	-0.537981
C116	C	1.310941	0.656516	-0.037981
C117	C	0.820242	0.092903	-0.576111
C118	C	1.320242	0.592903	-0.076111
C119	C	0.829545	0.029284	-0.538006
C120	C	1.329545	0.529284	-0.038006
C121	C	0.829537	0.029281	-0.461780
C122	C	1.329537	0.529281	0.038220
C123	C	0.820225	0.092902	-0.423658
C124	C	1.320225	0.592902	0.076342
C125	C	0.867630	0.045300	-0.696867
C126	C	1.367630	0.545300	-0.196867
C127	C	0.867630	0.045296	-0.773096
C128	C	1.367630	0.545296	-0.273096
C129	C	0.772874	0.140506	-0.773108
C130	C	1.272874	0.640506	-0.273108
C131	C	0.772871	0.140504	-0.696880
C132	C	1.272871	0.640504	-0.196880
C133	C	0.820253	0.092902	-0.658764
C134	C	1.320253	0.592902	-0.158764
N135	N	0.820259	0.092900	0.188786
N136	N	1.320259	0.592900	0.688786
H137	H	0.244654	0.166129	0.091885
H138	H	0.744654	0.666129	0.591885
H139	H	0.930855	-0.710636	0.000159
H140	H	1.430855	-0.210636	0.500159
H141	H	0.939304	-0.134516	0.000099
H142	H	1.439304	0.365484	0.500099
H143	H	0.837118	-0.022516	-0.569050
H144	H	1.337118	0.477484	-0.069050
H145	H	0.906210	0.006537	-0.665831
H146	H	1.406210	0.506537	-0.165831
H147	H	0.701156	-0.679694	0.000135
H148	H	1.201156	-0.179694	0.500135
H149	H	0.162458	0.090556	-0.119633
H150	H	0.662458	0.590556	0.380367
H151	H	0.703092	-0.547580	0.000122
H152	H	1.203092	-0.047580	0.500122
H153	H	0.937366	-0.266625	0.000117
H154	H	1.437366	0.233375	0.500117
H155	H	0.906177	0.006530	-0.333907
H156	H	1.406177	0.506530	0.166093
H157	H	0.478002	0.095233	0.119872
H158	H	0.978002	0.595233	0.619872
H159	H	0.734241	0.179249	-0.195644
H160	H	1.234241	0.679249	0.304356
H161	H	0.707670	-0.235684	0.000100
H162	H	1.207670	0.264316	0.500100
H163	H	0.906167	0.006531	-0.195619
H164	H	1.406167	0.506531	0.304381
H165	H	0.837110	-0.022520	-0.430758
H166	H	1.337110	0.477480	0.069242
H167	H	0.162545	0.090562	0.119905
H168	H	0.662545	0.590562	0.619905
H169	H	0.031118	0.088624	0.119916
H170	H	0.531118	0.588624	0.619916
H171	H	0.709600	-0.103566	0.000096
H172	H	1.209600	0.396434	0.500096
H173	H	0.734302	0.179264	-0.804148
H174	H	1.234302	0.679264	-0.304148
H175	H	0.906211	0.006534	-0.804118
H176	H	1.406211	0.506534	-0.304118
H177	H	0.734292	0.179263	-0.665856
H178	H	1.234292	0.679263	-0.165856
H179	H	0.477912	0.095231	-0.119660
H180	H	0.977912	0.595231	0.380340
H181	H	0.031029	0.088614	-0.119619
H182	H	0.531029	0.588614	0.380381
H183	H	0.609343	0.097185	-0.119680
H184	H	1.109343	0.597185	0.380320
H185	H	0.264384	0.017704	-0.091632
H186	H	0.764384	0.517704	0.408368
H187	H	0.932794	-0.578526	0.000136
H188	H	1.432794	-0.078526	0.500136
H189	H	0.395807	0.019654	-0.091649
H190	H	0.895807	0.519654	0.408351
H191	H	0.803371	0.208318	-0.568999
H192	H	1.303371	0.708318	-0.068999
H193	H	0.734262	0.179253	-0.333937
H194	H	1.234262	0.679253	0.166063
H195	H	0.609428	0.097171	0.119860
H196	H	1.109428	0.597171	0.619860
H197	H	0.376085	0.168071	0.091877
H198	H	0.876085	0.668071	0.591877
H199	H	0.803343	0.208317	-0.430716
H200	H	1.303343	0.708317	0.069284
