data_functionalizedCrystal
_audit_creation_method	'MofGen! by Chris Wilmer'
_symmetry_space_group_name_H-M	'P1'
_symmetry_Int_Tables_number	1
_symmetry_cell_setting	triclinic
loop_
_symmetry_equiv_pos_as_xyz
  x,y,z
_cell_length_a	12.837943
_cell_length_b	11.892095
_cell_length_c	12.811415
_cell_angle_alpha	91.507040
_cell_angle_beta	89.411917
_cell_angle_gamma	94.310562
loop_
_atom_site_label
_atom_site_type_symbol
_atom_site_fract_x
_atom_site_fract_y
_atom_site_fract_z
O1	O	1.385142	0.121163	0.265180
O2	O	1.885142	0.621163	0.765180
O3	O	1.083182	0.119797	0.251783
O4	O	1.583182	0.619797	0.751783
O5	O	1.240668	0.104992	0.107445
O6	O	1.740668	0.604992	0.607445
O7	O	1.227656	0.135968	0.409518
O8	O	1.727656	0.635968	0.909518
O9	O	1.227537	-0.081783	0.119459
O10	O	1.727537	0.418217	0.619459
O11	O	1.070051	-0.066978	0.263797
O12	O	1.570051	0.433022	0.763797
O13	O	1.372010	-0.065612	0.277194
O14	O	1.872010	0.434388	0.777194
Zn15	Zn	1.218946	-0.095950	0.272403
Zn16	Zn	1.718946	0.404050	0.772403
Zn17	Zn	1.236247	0.150135	0.256574
Zn18	Zn	1.736247	0.650135	0.756574
O19	O	1.214524	-0.050807	0.421532
O20	O	1.714524	0.449193	0.921532
C21	C	1.037943	0.025946	0.253265
C22	C	1.537943	0.525946	0.753265
C23	C	0.922711	0.024565	0.239768
C24	C	1.422711	0.524565	0.739768
C25	C	0.683625	0.041188	0.402028
C26	C	1.183625	0.541188	0.902028
C27	C	0.575353	0.039890	0.389351
C28	C	1.075353	0.539890	0.889351
C29	C	0.597892	0.020663	0.201738
C30	C	1.097892	0.520663	0.701738
C31	C	0.706164	0.021961	0.214415
C32	C	1.206164	0.521961	0.714415
C33	C	0.749026	0.032226	0.314563
C34	C	1.249026	0.532226	0.814563
C35	C	0.857301	0.033532	0.327239
C36	C	1.357301	0.533532	0.827239
C37	C	0.879837	0.014297	0.139627
C38	C	1.379837	0.514297	0.639627
C39	C	0.771565	0.012999	0.126950
C40	C	1.271565	0.512999	0.626950
N41	N	1.207146	-0.263896	0.283206
N42	N	1.707146	0.236104	0.783206
C43	C	1.330162	-0.512101	0.170532
C44	C	1.830162	-0.012101	0.670532
C45	C	1.321922	-0.629667	0.178091
C46	C	1.821922	-0.129667	0.678091
C47	C	1.182421	-0.616598	0.305879
C48	C	1.682421	-0.116598	0.805879
C49	C	1.190661	-0.499031	0.298319
C50	C	1.690661	0.000969	0.798319
C51	C	1.264535	-0.446787	0.230645
C52	C	1.764535	0.053213	0.730645
C53	C	1.272780	-0.329218	0.223091
C54	C	1.772780	0.170782	0.723091
C55	C	1.133274	-0.316151	0.350873
C56	C	1.633274	0.183849	0.850873
C57	C	1.125034	-0.433718	0.358432
C58	C	1.625034	0.066282	0.858432
C59	C	1.417249	0.028241	0.275712
C60	C	1.917249	0.528241	0.775712
C61	C	1.532482	0.029630	0.289209
C62	C	2.032482	0.529630	0.789209
N63	N	1.248054	0.318080	0.245764
N64	N	1.748054	0.818080	0.745764
C65	C	1.232971	0.007614	0.074520
C66	C	1.732971	0.507614	0.574520
C67	C	1.229587	-0.004274	-0.041488
C68	C	1.729587	0.495726	0.458512
C69	C	1.237526	0.177031	-0.272570
C70	C	1.737526	0.677031	0.227430
C71	C	1.234347	0.165866	-0.381570
C72	C	1.734347	0.665866	0.118430
C73	C	1.220041	-0.037769	-0.368491
C74	C	1.720041	0.462231	0.131509
C75	C	1.223221	-0.026604	-0.259491
C76	C	1.723221	0.473396	0.240509
C77	C	1.231965	0.080800	-0.211534
C78	C	1.731965	0.580800	0.288466
C79	C	1.235151	0.091964	-0.102532
C80	C	1.735151	0.591964	0.397468
C81	C	1.220839	-0.111670	-0.089455
C82	C	1.720839	0.388330	0.410545
C83	C	1.217659	-0.122835	-0.198455
C84	C	1.717659	0.377165	0.301545
C85	C	1.222222	0.046573	0.454458
C86	C	1.722222	0.546573	0.954458
C87	C	1.225606	0.058469	0.570465
C88	C	1.725606	0.558469	1.070465
H89	H	0.892197	0.041888	0.408784
H90	H	1.392197	0.541888	0.908784
C91	C	0.550729	0.009362	0.091588
C92	C	1.050729	0.509362	0.591588
H93	H	0.476879	0.009874	0.096570
H94	H	0.976879	0.509874	0.596570
H95	H	0.568528	-0.059508	0.059311
H96	H	1.068528	0.440492	0.559311
H97	H	0.577673	0.070765	0.050931
H98	H	1.077673	0.570765	0.550931
C99	C	1.247153	0.295163	-0.219809
C100	C	1.747153	0.795163	0.280191
H101	H	1.248257	0.288029	-0.146151
H102	H	1.748257	0.788029	0.353849
H103	H	1.189187	0.335375	-0.238408
H104	H	1.689187	0.835375	0.261592
H105	H	1.309972	0.334960	-0.242308
H106	H	1.809972	0.834960	0.257692
C107	C	0.951781	0.004439	0.043411
C108	C	1.451781	0.504439	0.543411
H109	H	1.022404	0.006678	0.065302
H110	H	1.522404	0.506678	0.565302
H111	H	0.943241	0.065409	-0.001394
H112	H	1.443241	0.565409	0.498606
H113	H	0.934093	-0.064865	0.006978
H114	H	1.434093	0.435135	0.506978
C115	C	1.061094	-0.244303	0.417013
C116	C	1.561094	0.255697	0.917013
H117	H	1.076580	-0.166801	0.402821
H118	H	1.576580	0.333199	0.902821
H119	H	1.071829	-0.256326	0.488994
H120	H	1.571829	0.243674	0.988994
H121	H	0.990342	-0.265445	0.400014
H122	H	1.490342	0.234555	0.900014
C123	C	1.210410	-0.155902	-0.421251
C124	C	1.710410	0.344098	0.078749
H125	H	1.207544	-0.211619	-0.369290
H126	H	1.707544	0.288381	0.130710
H127	H	1.269255	-0.164693	-0.465458
H128	H	1.769255	0.335307	0.034542
H129	H	1.148469	-0.164279	-0.461541
H130	H	1.648469	0.335721	0.038459
H131	H	0.736651	0.004629	0.045413
H132	H	1.236651	0.504629	0.545413
H133	H	1.375360	-0.682843	0.129140
H134	H	1.875360	-0.182843	0.629140
C135	C	1.101166	-0.674081	0.380310
C136	C	1.601166	-0.174081	0.880310
H137	H	1.105663	-0.753453	0.376202
H138	H	1.605663	-0.253453	0.876202
H139	H	1.033124	-0.656698	0.360832
H140	H	1.533124	-0.156698	0.860832
H141	H	1.114597	-0.647565	0.449824
H142	H	1.614597	-0.147565	0.949824
C143	C	1.208040	-0.240971	-0.251209
C144	C	1.708040	0.259029	0.248791
H145	H	1.205178	-0.296684	-0.199244
H146	H	1.705178	0.203316	0.300756
H147	H	1.266890	-0.249757	-0.295411
H148	H	1.766890	0.250243	0.204589
H149	H	1.146103	-0.249361	-0.291503
H150	H	1.646103	0.250639	0.208497
H151	H	1.332934	-0.286682	0.167990
H152	H	1.832934	0.213318	0.667990
C153	C	0.730778	0.052488	0.512182
C154	C	1.230778	0.552488	1.012182
H155	H	0.676319	0.057638	0.562459
H156	H	1.176319	0.557638	1.062459
H157	H	0.777126	0.118527	0.516834
H158	H	1.277126	0.618527	1.016834
H159	H	0.767966	-0.011746	0.525218
H160	H	1.267966	0.488254	1.025218
H161	H	1.064884	-0.476269	0.413529
H162	H	1.564884	0.023731	0.913529
H163	H	1.242274	0.179417	-0.063488
H164	H	1.742274	0.679417	0.436512
H165	H	0.522106	0.047185	0.460575
H166	H	1.022106	0.547185	0.960575
C167	C	1.411421	-0.454628	0.096099
C168	C	1.911421	0.045372	0.596099
H169	H	1.449325	-0.510366	0.061377
H170	H	1.949325	-0.010366	0.561377
H171	H	1.458264	-0.404464	0.134990
H172	H	1.958264	0.095536	0.634990
H173	H	1.376797	-0.413611	0.045992
H174	H	1.876797	0.086389	0.545992
H175	H	1.216314	-0.190028	-0.039748
H176	H	1.716314	0.309972	0.460252
H177	H	1.238872	0.244227	-0.431261
H178	H	1.738872	0.744227	0.068739
