data_functionalizedCrystal
_audit_creation_method	'MofGen! by Chris Wilmer'
_symmetry_space_group_name_H-M	'P1'
_symmetry_Int_Tables_number	1
_symmetry_cell_setting	triclinic
loop_
_symmetry_equiv_pos_as_xyz
  x,y,z
_cell_length_a	25.639242
_cell_length_b	25.639239
_cell_length_c	25.639234
_cell_angle_alpha	90.024905
_cell_angle_beta	90.029352
_cell_angle_gamma	90.034213
loop_
_atom_site_label
_atom_site_type_symbol
_atom_site_fract_x
_atom_site_fract_y
_atom_site_fract_z
Zn1	Zn	0.799262	-0.208245	0.295742
Zn2	Zn	1.299262	0.291755	0.795742
Zn3	Zn	0.799175	-0.295673	0.208307
Zn4	Zn	1.299175	0.204327	0.708307
Zn5	Zn	0.711827	-0.208247	0.208306
Zn6	Zn	1.211827	0.291753	0.708306
Zn7	Zn	0.711784	-0.295644	0.295696
Zn8	Zn	1.211784	0.204356	0.795696
O9	O	0.755512	-0.251952	0.252013
O10	O	1.255512	0.248048	0.752013
O11	O	0.872416	-0.219854	0.284163
O12	O	1.372416	0.280146	0.784163
O13	O	0.787570	-0.284089	0.135141
O14	O	1.287570	0.215911	0.635141
O15	O	0.723481	-0.135081	0.219924
O16	O	1.223481	0.364919	0.719924
O17	O	0.872351	-0.284087	0.219924
O18	O	1.372351	0.215913	0.719924
O19	O	0.787719	-0.135080	0.284163
O20	O	1.287719	0.364920	0.784163
O21	O	0.723396	-0.219857	0.135141
O22	O	1.223396	0.280143	0.635141
O23	O	0.638656	-0.219829	0.219880
O24	O	1.138656	0.280171	0.719880
O25	O	0.723406	-0.284038	0.368868
O26	O	1.223406	0.215962	0.868868
O27	O	0.638624	-0.284040	0.284085
O28	O	1.138624	0.215960	0.784085
O29	O	0.787676	-0.219826	0.368901
O30	O	1.287676	0.280174	0.868901
O31	O	0.787527	-0.368835	0.219880
O32	O	1.287527	0.131165	0.719880
O33	O	0.723321	-0.368813	0.284085
O34	O	1.223321	0.131187	0.784085
C35	C	0.619669	-0.251932	0.251977
C36	C	1.119669	0.248068	0.751977
C37	C	0.561555	-0.251935	0.251975
C38	C	1.061555	0.248065	0.751975
C39	C	0.201184	-0.285443	0.285413
C40	C	0.701184	0.214557	0.785413
C41	C	0.146580	-0.285446	0.285421
C42	C	0.646580	0.214554	0.785421
O43	O	0.118337	-0.313909	0.313821
O44	O	0.618337	0.186091	0.813821
N45	N	0.119273	-0.251967	0.252047
N46	N	0.619273	0.248033	0.752047
C47	C	0.146573	-0.218478	0.218666
C48	C	0.646573	0.281522	0.718666
O49	O	0.118332	-0.190002	0.190280
O50	O	0.618332	0.309998	0.690280
C51	C	0.201176	-0.218473	0.218661
C52	C	0.701176	0.281527	0.718661
C53	C	0.228481	-0.251958	0.252034
C54	C	0.728481	0.248042	0.752034
C55	C	0.228489	-0.318925	0.318783
C56	C	0.728489	0.181075	0.818783
C57	C	0.283089	-0.318922	0.318774
C58	C	0.783089	0.181078	0.818774
C59	C	0.310385	-0.285437	0.285395
C60	C	0.810385	0.214563	0.785395
C61	C	0.283081	-0.251955	0.252024
C62	C	0.783081	0.248045	0.752024
C63	C	0.228475	-0.184982	0.185283
C64	C	0.728475	0.315018	0.685283
C65	C	0.283082	-0.184980	0.185281
C66	C	0.783082	0.315020	0.685281
C67	C	0.310387	-0.218465	0.218654
C68	C	0.810387	0.281535	0.718654
C69	C	0.364978	-0.218468	0.218636
C70	C	0.864978	0.281532	0.718636
N71	N	0.392285	-0.251947	0.252010
N72	N	0.892285	0.248053	0.752010
C73	C	0.364989	-0.285432	0.285389
C74	C	0.864989	0.214568	0.785389
C75	C	0.031902	-0.218492	0.218680
C76	C	0.531902	0.281508	0.718680
C77	C	-0.022700	-0.218499	0.218683
C78	C	0.477300	0.281501	0.718683
C79	C	-0.022689	-0.285466	0.285438
C80	C	0.477311	0.214534	0.785438
C81	C	0.031914	-0.285461	0.285433
C82	C	0.531914	0.214539	0.785433
C83	C	0.059209	-0.251971	0.252054
C84	C	0.559209	0.248029	0.752054
C85	C	0.479654	-0.285424	0.285368
C86	C	0.979654	0.214576	0.785368
C87	C	0.534259	-0.285420	0.285354
C88	C	1.034259	0.214580	0.785354
C89	C	0.534243	-0.218451	0.218601
C90	C	1.034243	0.281549	0.718601
C91	C	0.479643	-0.218457	0.218612
C92	C	0.979643	0.281543	0.718612
C93	C	0.452349	-0.251945	0.252000
C94	C	0.952349	0.248055	0.752000
O95	O	0.393256	-0.190018	0.190252
O96	O	0.893256	0.309982	0.690252
O97	O	0.393236	-0.313899	0.313776
O98	O	0.893236	0.186101	0.813776
C99	C	0.755424	-0.387795	0.251989
C100	C	1.255424	0.112205	0.751989
C101	C	0.755434	-0.445909	0.251996
C102	C	1.255434	0.054091	0.751996
C103	C	0.789031	-0.806270	0.218638
C104	C	1.289031	-0.306270	0.718638
C105	C	0.789051	-0.860875	0.218645
C106	C	1.289051	-0.360875	0.718645
O107	O	0.817526	-0.889110	0.190257
O108	O	1.317526	-0.389110	0.690257
N109	N	0.755604	-0.888191	0.252048
N110	N	1.255604	-0.388191	0.752048
C111	C	0.722138	-0.860901	0.285449
C112	C	1.222138	-0.360901	0.785449
O113	O	0.693690	-0.889150	0.313861
O114	O	1.193690	-0.389150	0.813861
C115	C	0.722120	-0.806298	0.285444
C116	C	1.222120	-0.306298	0.785444
C117	C	0.755566	-0.778984	0.252036
C118	C	1.255566	-0.278984	0.752036
C119	C	0.822475	-0.778957	0.185233
C120	C	1.322475	-0.278957	0.685233
C121	C	0.822454	-0.724356	0.185226
C122	C	1.322454	-0.224356	0.685226
C123	C	0.788989	-0.697069	0.218623
C124	C	1.288989	-0.197069	0.718623
C125	C	0.755545	-0.724383	0.252028
C126	C	1.255545	-0.224383	0.752028
C127	C	0.688657	-0.779008	0.318847
C128	C	1.188657	-0.279008	0.818847
C129	C	0.688643	-0.724401	0.318840
C130	C	1.188643	-0.224401	0.818840
C131	C	0.722089	-0.697087	0.285432
C132	C	1.222089	-0.197087	0.785432
C133	C	0.722059	-0.642496	0.285418
C134	C	1.222059	-0.142496	0.785418
N135	N	0.755507	-0.615179	0.252016
N136	N	1.255507	-0.115179	0.752016
C137	C	0.788972	-0.642466	0.218619
C138	C	1.288972	-0.142466	0.718619
C139	C	0.722177	-0.975571	0.285457
C140	C	1.222177	-0.475571	0.785457
C141	C	0.722191	-1.030174	0.285459
C142	C	1.222191	-0.530174	0.785459
C143	C	0.789106	-1.030144	0.218656
C144	C	1.289106	-0.530144	0.718656
C145	C	0.789089	-0.975541	0.218652
C146	C	1.289089	-0.475541	0.718652
C147	C	0.755625	-0.948255	0.252055
C148	C	1.255625	-0.448255	0.752055
C149	C	0.788925	-0.527801	0.218605
C150	C	1.288925	-0.027801	0.718605
C151	C	0.788899	-0.473196	0.218599
C152	C	1.288899	0.026804	0.718599
C153	C	0.721987	-0.473230	0.285403
C154	C	1.221987	0.026770	0.785403
C155	C	0.722010	-0.527831	0.285408
C156	C	1.222010	-0.027831	0.785408
C157	C	0.755483	-0.555115	0.252007
C158	C	1.255483	-0.055115	0.752007
O159	O	0.693601	-0.614226	0.313794
O160	O	1.193601	-0.114226	0.813794
O161	O	0.817419	-0.614210	0.190216
O162	O	1.317419	-0.114210	0.690216
C163	C	0.891885	-0.251973	0.252049
C164	C	1.391885	0.248027	0.752049
C165	C	0.949999	-0.251982	0.252064
C166	C	1.449999	0.248018	0.752064
C167	C	0.755546	-0.251928	0.388386
C168	C	1.255546	0.248072	0.888386
C169	C	0.755560	-0.251918	0.446500
C170	C	1.255560	0.248082	0.946500
C171	C	0.755614	-0.115579	0.252048
C172	C	1.255614	0.384421	0.752048
C173	C	0.755658	-0.057465	0.252064
C174	C	1.255658	0.442535	0.752064
C175	C	0.755508	-0.251938	0.116170
C176	C	1.255508	0.248062	0.616170
C177	C	0.755595	-0.251801	0.058057
C178	C	1.255595	0.248199	0.558057
C179	C	0.722160	-0.218411	0.806869
C180	C	1.222160	0.281589	1.306869
C181	C	0.722163	-0.218401	0.861473
C182	C	1.222163	0.281599	1.361473
O183	O	0.693738	-0.189969	0.889714
O184	O	1.193738	0.310031	1.389714
N185	N	0.755578	-0.251836	0.888783
N186	N	1.255578	0.248164	1.388783
C187	C	0.788988	-0.285287	0.861485
C188	C	1.288988	0.214713	1.361485
O189	O	0.817411	-0.313726	0.889728
O190	O	1.317411	0.186274	1.389728
C191	C	0.788983	-0.285299	0.806882
C192	C	1.288983	0.214701	1.306882
C193	C	0.755569	-0.251857	0.779575
C194	C	1.255569	0.248143	1.279575
C195	C	0.688749	-0.184972	0.779562
C196	C	1.188749	0.315028	1.279562
C197	C	0.688747	-0.184981	0.724961
C198	C	1.188747	0.315019	1.224961
C199	C	0.722156	-0.218428	0.697668
C200	C	1.222156	0.281572	1.197668
C201	C	0.755567	-0.251866	0.724974
C202	C	1.255567	0.248134	1.224974
C203	C	0.822390	-0.318752	0.779585
C204	C	1.322390	0.181248	1.279585
C205	C	0.822381	-0.318761	0.724978
C206	C	1.322381	0.181239	1.224978
C207	C	0.788968	-0.285319	0.697672
C208	C	1.288968	0.214681	1.197672
C209	C	0.788974	-0.285322	0.643080
C210	C	1.288974	0.214678	1.143080
N211	N	0.755559	-0.251887	0.615771
N212	N	1.255559	0.248113	1.115771
C213	C	0.722150	-0.218440	0.643064
C214	C	1.222150	0.281560	1.143064
C215	C	0.788998	-0.285260	0.976156
C216	C	1.288998	0.214740	1.476156
C217	C	0.789006	-0.285246	1.030758
C218	C	1.289006	0.214754	1.530758
C219	C	0.722180	-0.218361	1.030742
C220	C	1.222180	0.281639	1.530742
C221	C	0.722174	-0.218373	0.976139
C222	C	1.222174	0.281627	1.476139
C223	C	0.755583	-0.251825	0.948846
C224	C	1.255583	0.248175	1.448846
C225	C	0.722149	-0.218461	0.528399
C226	C	1.222149	0.281539	1.028399
C227	C	0.722151	-0.218471	0.473794
C228	C	1.222151	0.281529	0.973794
C229	C	0.788976	-0.285358	0.473814
C230	C	1.288976	0.214642	0.973814
C231	C	0.788975	-0.285346	0.528415
C232	C	1.288975	0.214654	1.028415
C233	C	0.755558	-0.251896	0.555706
C234	C	1.255558	0.248104	1.055706
O235	O	0.817383	-0.313741	0.614804
O236	O	1.317383	0.186259	1.114804
O237	O	0.693728	-0.190011	0.614814
O238	O	1.193728	0.309989	1.114814
H239	H	-0.044924	-0.312730	0.312619
H240	H	0.455076	0.187270	0.812619
H241	H	0.206253	-0.157717	0.158106
H242	H	0.706253	0.342283	0.658106
H243	H	0.305303	-0.157704	0.158103
H244	H	0.805303	0.342296	0.658103
H245	H	0.206270	-0.346192	0.345967
H246	H	0.706270	0.153808	0.845967
F247	F	0.824551	-0.556831	0.183056
F248	F	1.324551	-0.056831	0.683056
H249	H	0.694942	-0.191237	0.451563
H250	H	1.194942	0.308763	0.951563
H251	H	0.816209	-0.312498	0.953938
H252	H	1.316209	0.187502	1.453938
F253	F	0.857939	-0.354368	0.695935
F254	F	1.357939	0.145632	1.195935
H255	H	0.556488	-0.312690	0.312530
H256	H	1.056488	0.187310	0.812530
F257	F	0.857951	-0.354348	0.808636
F258	F	1.357951	0.145652	1.308636
H259	H	0.457411	-0.191192	0.191436
H260	H	0.957411	0.308808	0.691436
F261	F	0.824546	-0.320930	0.557478
F262	F	1.324546	0.179070	1.057478
H263	H	0.457438	-0.312692	0.312556
H264	H	0.957438	0.187308	0.812556
F265	F	0.563304	-0.182817	0.183077
F266	F	1.063304	0.317183	0.683077
H267	H	0.694922	-0.953358	0.312656
H268	H	1.194922	-0.453358	0.812656
F269	F	-0.051754	-0.182866	0.183157
F270	F	0.448246	0.317134	0.683157
F271	F	0.686584	-0.182857	0.557436
F272	F	1.186584	0.317143	1.057436
F273	F	0.824498	-0.444129	0.183039
F274	F	1.324498	0.055871	0.683039
H275	H	0.849690	-0.702120	0.158024
H276	H	1.349690	-0.202120	0.658024
F277	F	0.858097	-0.807989	0.149685
F278	F	1.358097	-0.307989	0.649685
H279	H	0.054123	-0.191221	0.191496
H280	H	0.554123	0.308779	0.691496
F281	F	0.653181	-0.149391	0.695906
F282	F	1.153181	0.350609	1.195906
H283	H	0.816324	-0.953305	0.191448
H284	H	1.316324	-0.453305	0.691448
H285	H	0.816221	-0.312472	1.052987
H286	H	1.316221	0.187528	1.552987
F287	F	0.686374	-0.444180	0.320947
F288	F	1.186374	0.055820	0.820947
F289	F	0.824722	-1.059194	0.183111
F290	F	1.324722	-0.559194	0.683111
H291	H	0.661540	-0.157736	0.801778
H292	H	1.161540	0.342264	1.301778
F293	F	0.686587	-1.059237	0.321011
F294	F	1.186587	-0.559237	0.821011
F295	F	0.686611	-0.182781	0.947082
F296	F	1.186611	0.317219	1.447082
H297	H	0.054142	-0.312727	0.312609
H298	H	0.554142	0.187273	0.812609
F299	F	0.653063	-0.808066	0.354410
F300	F	1.153063	-0.308066	0.854410
H301	H	0.816178	-0.312589	0.451582
H302	H	1.316178	0.187411	0.951582
H303	H	0.305316	-0.346188	0.345950
H304	H	0.805316	0.153812	0.845950
H305	H	0.661393	-0.702188	0.346042
H306	H	1.161393	-0.202188	0.846042
H307	H	0.694777	-0.550071	0.312613
H308	H	1.194777	-0.050071	0.812613
H309	H	0.694976	-0.191127	1.052975
H310	H	1.194976	0.308873	1.552975
