data_functionalizedCrystal
_audit_creation_method	'MofGen! by Chris Wilmer'
_symmetry_space_group_name_H-M	'P1'
_symmetry_Int_Tables_number	1
_symmetry_cell_setting	triclinic
loop_
_symmetry_equiv_pos_as_xyz
  x,y,z
_cell_length_a	12.827893
_cell_length_b	16.120444
_cell_length_c	12.827885
_cell_angle_alpha	87.135329
_cell_angle_beta	90.019082
_cell_angle_gamma	92.926647
loop_
_atom_site_label
_atom_site_type_symbol
_atom_site_fract_x
_atom_site_fract_y
_atom_site_fract_z
Zn1	Zn	1.576496	-0.331863	0.611895
Zn2	Zn	2.076496	0.168137	1.111895
Zn3	Zn	1.567494	-0.471299	0.446001
Zn4	Zn	2.067494	0.028701	0.946001
Zn5	Zn	1.401735	-0.331905	0.437172
Zn6	Zn	1.901735	0.168095	0.937172
Zn7	Zn	1.392831	-0.471238	0.620697
Zn8	Zn	1.892831	0.028762	1.120697
O9	O	1.484639	-0.401576	0.528941
O10	O	1.984639	0.098424	1.028941
O11	O	1.721538	-0.350369	0.589900
O12	O	2.221538	0.149631	1.089900
O13	O	1.545465	-0.452851	0.298596
O14	O	2.045465	0.047149	0.798596
O15	O	1.432411	-0.215233	0.452971
O16	O	1.932411	0.284767	0.952971
O17	O	1.714924	-0.452811	0.468018
O18	O	2.214924	0.047189	0.968018
O19	O	1.560808	-0.215203	0.581339
O20	O	2.060808	0.284797	1.081339
O21	O	1.423683	-0.350438	0.292110
O22	O	1.923683	0.149562	0.792110
O23	O	1.254319	-0.350379	0.461506
O24	O	1.754319	0.149621	0.961506
O25	O	1.417235	-0.452706	0.765763
O26	O	1.917235	0.047294	1.265763
O27	O	1.247777	-0.452746	0.596341
O28	O	1.747777	0.047254	1.096341
O29	O	1.552174	-0.350309	0.759296
O30	O	2.052174	0.149691	1.259296
O31	O	1.536831	-0.587957	0.476553
O32	O	2.036831	-0.087957	0.976553
O33	O	1.408506	-0.587912	0.604902
O34	O	1.908506	-0.087912	1.104902
C35	C	1.213130	-0.401561	0.528921
C36	C	1.713130	0.098439	1.028921
C37	C	1.096976	-0.401574	0.528939
C38	C	1.596976	0.098426	1.028939
C39	C	1.470754	-0.618184	0.542663
C40	C	1.970754	-0.118184	1.042663
C41	C	1.464909	-0.710850	0.548569
C42	C	1.964909	-0.210850	1.048569
C43	C	0.921932	-0.452321	0.595583
C44	C	1.421932	0.047679	1.095583
C45	C	1.041983	-0.452308	0.595567
C46	C	1.541983	0.047692	1.095567
C47	C	1.515214	-0.921795	0.498532
C48	C	2.015214	-0.421795	0.998532
C49	C	1.454258	-0.880507	0.559361
C50	C	1.954258	-0.380507	1.059361
C51	C	1.460186	-0.786101	0.553355
C52	C	1.960186	-0.286101	1.053355
C53	C	1.509287	-1.016209	0.504537
C54	C	2.009287	-0.516209	1.004537
C55	C	1.757208	-0.401592	0.528962
C56	C	2.257208	0.098408	1.028962
C57	C	1.873361	-0.401599	0.528971
C58	C	2.373361	0.098401	1.028971
C59	C	1.484715	-0.401496	0.801507
C60	C	1.984715	0.098504	1.301507
C61	C	1.484748	-0.401462	0.917658
C62	C	1.984748	0.098538	1.417658
C63	C	1.498607	-0.184122	0.515188
C64	C	1.998607	0.315878	1.015188
C65	C	1.504559	-0.091456	0.509328
C66	C	2.004559	0.408544	1.009328
C67	C	1.484627	-0.401596	0.257433
C68	C	1.984627	0.098404	0.757433
C69	C	1.484812	-0.401395	0.141267
C70	C	1.984812	0.098605	0.641267
C71	C	1.551527	-0.350783	0.966242
C72	C	2.051527	0.149217	1.466242
C73	C	1.551562	-0.350746	1.086290
C74	C	2.051562	0.149254	1.586290
H75	H	0.874637	-0.495759	0.652621
H76	H	1.374637	0.004241	1.152621
O77	O	1.416745	-0.453204	1.091309
O78	O	1.916745	0.046796	1.591309
C79	C	1.472829	-0.507040	1.031605
C80	C	1.972829	-0.007040	1.531605
H81	H	1.553923	-0.477633	1.013510
H82	H	2.053923	0.022367	1.513510
H83	H	1.429601	-0.518178	0.955507
H84	H	1.929601	-0.018178	1.455507
H85	H	1.480312	-0.568842	1.077515
H86	H	1.980312	-0.068842	1.577515
O87	O	0.929881	-0.349896	0.460872
O88	O	1.429881	0.150104	0.960872
C89	C	0.989928	-0.397339	0.396317
C90	C	1.489928	0.102661	0.896317
H91	H	1.002143	-0.460565	0.437062
H92	H	1.502143	0.039435	0.937062
H93	H	1.068889	-0.363417	0.380292
H94	H	1.568889	0.136583	0.880292
H95	H	0.947311	-0.406399	0.319397
H96	H	1.447311	0.093601	0.819397
O97	O	1.091941	-0.504000	0.663651
O98	O	1.591941	-0.004000	1.163651
C99	C	1.158122	-0.456544	0.728191
C100	C	1.658122	0.043456	1.228191
H101	H	1.178394	-0.393315	0.687441
H102	H	1.678394	0.106685	1.187441
H103	H	1.232756	-0.490451	0.744196
H104	H	1.732756	0.009549	1.244196
H105	H	1.116735	-0.447492	0.805121
H106	H	1.616735	0.052508	1.305121
H107	H	1.055201	-0.358144	0.471911
H108	H	1.555201	0.141856	0.971911
H109	H	1.427595	-0.444818	0.964938
H110	H	1.927595	0.055182	1.464938
O111	O	1.582683	-0.879260	0.431044
O112	O	2.082683	-0.379260	0.931044
C113	C	1.573659	-0.793105	0.440010
C114	C	2.073659	-0.293105	0.940010
H115	H	1.493718	-0.781363	0.473441
H116	H	1.993718	-0.281363	0.973441
H117	H	1.582815	-0.759980	0.359674
H118	H	2.082815	-0.259980	0.859674
H119	H	1.637143	-0.768306	0.494161
H120	H	2.137143	-0.268306	0.994161
H121	H	1.608670	-0.307418	0.918961
H122	H	2.108670	0.192582	1.418961
H123	H	1.397620	-0.916060	0.615950
H124	H	1.897620	-0.416060	1.115950
O125	O	1.619670	-0.299005	1.136303
O126	O	2.119670	0.200995	1.636303
C127	C	1.604553	-0.310496	1.245030
C128	C	2.104553	0.189504	1.745030
H129	H	1.522144	-0.337806	1.261555
H130	H	2.022144	0.162194	1.761555
H131	H	1.615620	-0.248066	1.282636
H132	H	2.115620	0.251934	1.782636
H133	H	1.663669	-0.354907	1.278820
H134	H	2.163669	0.145093	1.778820
