data_functionalizedCrystal
_audit_creation_method	'MofGen! by Chris Wilmer'
_symmetry_space_group_name_H-M	'P1'
_symmetry_Int_Tables_number	1
_symmetry_cell_setting	triclinic
loop_
_symmetry_equiv_pos_as_xyz
  x,y,z
_cell_length_a	15.297475
_cell_length_b	16.959454
_cell_length_c	15.296720
_cell_angle_alpha	99.648278
_cell_angle_beta	91.617114
_cell_angle_gamma	80.323279
loop_
_atom_site_label
_atom_site_type_symbol
_atom_site_fract_x
_atom_site_fract_y
_atom_site_fract_z
Zn1	Zn	1.253421	-0.615181	-0.726635
Zn2	Zn	1.278688	-0.729000	-0.580157
Zn3	Zn	1.132298	-0.570776	-0.554873
Zn4	Zn	1.106914	-0.721230	-0.701285
O5	O	1.192830	-0.659047	-0.640738
O6	O	1.379352	-0.652115	-0.728395
O7	O	1.280466	-0.692679	-0.454228
O8	O	1.148414	-0.466067	-0.577685
O9	O	1.397915	-0.735737	-0.620778
O10	O	1.237403	-0.498691	-0.703878
O11	O	1.172914	-0.576432	-0.435651
O12	O	1.006352	-0.568898	-0.553104
O13	O	1.105151	-0.722495	-0.827223
O14	O	0.987702	-0.679437	-0.660673
O15	O	1.212790	-0.644581	-0.845848
O16	O	1.255853	-0.838569	-0.596198
O17	O	1.129651	-0.832860	-0.685190
C18	C	0.965244	-0.618506	-0.601395
C19	C	0.867878	-0.601185	-0.584584
C20	C	0.554738	-0.782854	-0.760885
C21	C	0.646218	-0.799134	-0.776677
C22	C	0.701637	-0.749648	-0.728655
C23	C	0.665567	-0.683879	-0.664839
C24	C	0.574078	-0.667601	-0.649041
C25	C	0.720978	-0.634395	-0.616811
C26	C	0.684908	-0.568627	-0.552995
C27	C	0.593428	-0.552351	-0.537200
C28	C	0.538009	-0.601837	-0.585221
C29	C	0.812467	-0.650673	-0.632609
C30	C	0.831808	-0.535421	-0.520765
C31	C	0.740327	-0.519141	-0.504973
C32	C	1.192759	-0.864398	-0.640710
C33	C	1.192804	-0.952266	-0.640741
C34	C	1.127199	-1.320817	-0.687084
C35	C	1.258690	-1.326729	-0.594523
C36	C	1.258660	-1.244176	-0.594509
C37	C	1.192899	-1.199940	-0.640783
C38	C	1.127167	-1.238256	-0.687070
C39	C	1.324386	-1.205852	-0.548216
C40	C	1.324359	-1.123295	-0.548200
C41	C	1.258601	-1.079058	-0.594479
C42	C	1.192866	-1.117379	-0.640769
C43	C	1.127105	-1.073143	-0.687042
C44	C	1.061373	-1.111464	-0.733338
C45	C	1.061408	-1.194019	-0.733349
C46	C	1.258566	-0.996503	-0.594468
C47	C	1.127072	-0.990582	-0.687028
C48	C	1.421305	-0.699746	-0.680234
C49	C	1.518668	-0.717090	-0.697066
C50	C	1.153320	-0.687624	-0.869207
C51	C	1.136484	-0.699803	-0.966567
C52	C	1.192922	-0.452900	-0.640788
C53	C	1.192961	-0.365053	-0.640810
C54	C	1.313198	-0.571876	-1.279796
C55	C	1.329022	-0.560436	-1.188322
C56	C	1.280889	-0.595276	-1.132879
C57	C	1.216928	-0.641559	-1.168918
C58	C	1.201107	-0.653005	-1.260401
C59	C	1.168798	-0.676406	-1.113484
C60	C	1.104838	-0.722688	-1.149523
C61	C	1.089019	-0.734131	-1.240998
C62	C	1.137153	-0.699291	-1.296441
C63	C	1.184620	-0.664960	-1.022001
C64	C	1.072529	-0.746089	-1.002606
C65	C	1.056705	-0.757528	-1.094080
C66	C	1.232237	-0.630532	-0.413166
C67	C	1.249243	-0.618162	-0.315836
H68	H	0.509609	-0.823142	-0.799972
F69	F	1.057250	-1.361601	-0.736357
H70	H	0.463516	-0.588584	-0.572369
F71	F	1.364424	-0.534809	-1.338808
H72	H	1.124272	-0.708603	-1.370927
H73	H	1.033337	-0.774460	-0.957464
H74	H	1.293777	-0.585960	-1.058398
F75	F	1.328510	-0.955720	-0.545191
F76	F	1.020960	-0.783403	-1.279353
F77	F	1.252689	-0.615704	-0.983656
F78	F	1.394372	-1.252936	-0.498976
H79	H	0.564064	-0.498805	-0.485228
H80	H	1.377882	-1.092099	-0.510505
H81	H	0.776125	-0.762907	-0.741517
F82	F	0.991457	-1.234808	-0.782614
H83	H	1.381101	-0.522755	-1.158987
H84	H	1.312225	-1.362749	-0.556843
F85	F	0.850845	-0.720667	-0.700525
H86	H	1.004627	-0.795212	-1.123436
H87	H	0.710946	-0.465591	-0.453013
F88	F	0.684601	-0.869128	-0.844591
H89	H	1.073523	-0.954571	-0.724714
F90	F	0.890785	-0.482753	-0.469650
F91	F	0.991384	-1.064374	-0.782579
