data_functionalizedCrystal
_audit_creation_method	'MofGen! by Chris Wilmer'
_symmetry_space_group_name_H-M	'P1'
_symmetry_Int_Tables_number	1
_symmetry_cell_setting	triclinic
loop_
_symmetry_equiv_pos_as_xyz
  x,y,z
_cell_length_a	14.853566
_cell_length_b	14.853559
_cell_length_c	13.330367
_cell_angle_alpha	89.997552
_cell_angle_beta	89.995295
_cell_angle_gamma	83.632934
loop_
_atom_site_label
_atom_site_type_symbol
_atom_site_fract_x
_atom_site_fract_y
_atom_site_fract_z
O1	O	1.196366	0.117699	-0.083352
O2	O	0.933906	0.131721	-0.083368
O3	O	1.072151	-0.006520	-0.083359
O4	O	1.058121	0.255940	-0.083362
O5	O	1.072131	-0.006523	0.083488
O6	O	0.933886	0.131718	0.083479
O7	O	1.196346	0.117696	0.083495
Cu8	Cu	1.065114	0.124707	0.098721
Cu9	Cu	1.065138	0.124710	-0.098595
O10	O	1.058101	0.255937	0.083485
C11	C	0.900307	0.131085	0.000053
C12	C	0.800223	0.129181	0.000047
C13	C	0.377050	0.121132	-0.090884
C14	C	0.377049	0.121129	0.091020
C15	C	0.471083	0.122917	0.091016
C16	C	0.518105	0.123813	0.000062
C17	C	0.471092	0.122922	-0.090890
C18	C	0.518102	0.123817	0.181966
C19	C	0.612141	0.125605	0.181967
C20	C	0.659165	0.126496	0.091011
C21	C	0.612147	0.125604	0.000056
C22	C	0.659168	0.126500	-0.090899
C23	C	0.612153	0.125602	-0.181855
C24	C	0.518116	0.123813	-0.181845
C25	C	0.753202	0.128285	0.091002
C26	C	0.753211	0.128290	-0.090904
C27	C	1.071506	-0.040111	0.000063
C28	C	1.069605	-0.140195	0.000057
C29	C	1.061553	-0.563368	-0.090892
C30	C	1.061531	-0.563366	0.091011
C31	C	1.063324	-0.469333	0.091012
C32	C	1.064230	-0.422313	0.000060
C33	C	1.063343	-0.469326	-0.090894
C34	C	1.064202	-0.422312	0.181964
C35	C	1.065994	-0.328273	0.181969
C36	C	1.066907	-0.281251	0.091015
C37	C	1.066021	-0.328270	0.000058
C38	C	1.066928	-0.281250	-0.090894
C39	C	1.066048	-0.328268	-0.181853
C40	C	1.064256	-0.422305	-0.181847
C41	C	1.068699	-0.187215	0.091010
C42	C	1.068718	-0.187208	-0.090896
C43	C	1.229945	0.118332	0.000071
C44	C	1.330028	0.120236	0.000071
C45	C	1.058745	0.289528	0.000062
C46	C	1.060646	0.389612	0.000061
N47	N	1.065104	0.124703	0.237503
N48	N	1.065155	0.124706	-0.237376
C49	C	1.003920	0.185900	0.710122
C50	C	1.126379	0.063514	0.710098
C51	C	1.126369	0.063511	0.605080
C52	C	1.065135	0.124704	0.552577
C53	C	1.003910	0.185900	0.605094
C54	C	1.187599	0.002322	0.552556
C55	C	1.187592	0.002318	0.447531
C56	C	1.126352	0.063507	0.395027
C57	C	1.065124	0.124705	0.447549
C58	C	1.003890	0.185899	0.395047
C59	C	0.942657	0.247093	0.447568
C60	C	0.942670	0.247090	0.552589
C61	C	1.126339	0.063510	0.290005
C62	C	1.003879	0.185900	0.290019
H63	H	0.479809	0.123093	0.256016
H64	H	1.237459	-0.047495	0.595306
H65	H	0.650449	0.126338	-0.255910
H66	H	1.237449	-0.047510	0.404775
C67	C	0.821609	0.368057	0.542064
C68	C	0.875366	0.314349	0.610320
H69	H	0.780056	0.409575	0.577709
H70	H	0.859163	0.400560	0.501094
H71	H	0.789138	0.330459	0.501107
H72	H	0.907843	0.351948	0.651272
H73	H	0.837807	0.281845	0.651307
C74	C	0.281332	0.041682	0.196550
C75	C	0.325365	0.120147	0.190993
H76	H	0.249427	0.041074	0.258275
H77	H	0.239878	0.040903	0.142390
H78	H	0.324835	-0.010147	0.192770
H79	H	0.281861	0.171976	0.194766
H80	H	0.366823	0.120934	0.245167
C81	C	0.982078	-0.659090	0.196533
C82	C	1.060543	-0.615056	0.190978
H83	H	0.981477	-0.691010	0.258248
H84	H	0.930255	-0.615594	0.192767
H85	H	0.981299	-0.700541	0.142356
H86	H	1.061319	-0.573600	0.245151
H87	H	1.112380	-0.658557	0.194754
H88	H	1.066714	-0.289999	0.256033
C89	C	1.068560	-0.196656	-0.270705
C90	C	1.069712	-0.135526	-0.190877
H91	H	1.069168	-0.164747	-0.332427
H92	H	1.120392	-0.240139	-0.266916
H93	H	1.015328	-0.226528	-0.266916
H94	H	1.122947	-0.105659	-0.194661
H95	H	1.017875	-0.092027	-0.194667
H96	H	0.479828	0.123080	-0.255897
H97	H	0.954063	0.235721	0.752887
C98	C	0.983549	-0.582274	-0.245919
C99	C	1.060558	-0.615052	-0.190864
H100	H	0.982931	-0.614182	-0.307637
H101	H	0.930738	-0.590870	-0.208531
H102	H	0.984759	-0.519542	-0.258939
H103	H	1.059344	-0.677783	-0.177837
H104	H	1.113382	-0.606464	-0.228259
H105	H	0.650414	0.126335	0.256029
H106	H	0.791477	0.129025	0.165057
H107	H	1.176197	0.013691	0.247248
C108	C	1.282380	0.010840	0.742398
C109	C	1.193683	-0.003755	0.767800
H110	H	1.323928	-0.030692	0.778027
H111	H	1.291127	0.002083	0.672342
H112	H	1.292241	0.071027	0.759614
H113	H	1.183819	-0.063940	0.750577
H114	H	1.184932	0.004995	0.837871
H115	H	1.066779	-0.289971	-0.255906
H116	H	1.063539	-0.460595	-0.255900
C117	C	0.984774	-0.518064	0.287480
C118	C	1.063227	-0.474012	0.281925
H119	H	0.984185	-0.549993	0.349190
H120	H	0.932942	-0.474577	0.283726
H121	H	0.983998	-0.559508	0.233296
H122	H	1.064000	-0.432563	0.336105
H123	H	1.115073	-0.517504	0.285689
H124	H	0.338766	0.120397	-0.164938
H125	H	0.954011	0.235728	0.247278
C126	C	0.991764	-0.148215	0.246027
C127	C	1.069651	-0.135525	0.190977
H128	H	0.992353	-0.116305	0.307746
H129	H	0.939548	-0.125995	0.208637
H130	H	0.990579	-0.210951	0.259044
H131	H	1.070833	-0.072789	0.177953
H132	H	1.121881	-0.157740	0.228374
C133	C	0.743764	0.128118	-0.270712
C134	C	0.804893	0.129281	-0.190887
H135	H	0.775672	0.128736	-0.332436
H136	H	0.713905	0.074888	-0.266927
H137	H	0.700269	0.179951	-0.266918
H138	H	0.848385	0.077444	-0.194677
H139	H	0.834767	0.182516	-0.194674
H140	H	0.892803	0.296921	0.404808
