data_functionalizedCrystal
_audit_creation_method	'MofGen! by Chris Wilmer'
_symmetry_space_group_name_H-M	'P1'
_symmetry_Int_Tables_number	1
_symmetry_cell_setting	triclinic
loop_
_symmetry_equiv_pos_as_xyz
  x,y,z
_cell_length_a	6.817900
_cell_length_b	15.301126
_cell_length_c	10.773894
_cell_angle_alpha	96.210204
_cell_angle_beta	96.645922
_cell_angle_gamma	104.177575
loop_
_atom_site_label
_atom_site_type_symbol
_atom_site_fract_x
_atom_site_fract_y
_atom_site_fract_z
V1	V	-3.952252	-0.121442	-0.389313
O2	O	-3.937687	0.009245	-0.381512
O3	O	-3.907641	-0.244078	-0.387026
O4	O	-3.869821	-0.118078	-0.558935
O5	O	-3.975769	-0.117627	-0.208413
V6	V	-4.439799	-0.105987	-0.367630
O7	O	-4.204684	-0.155344	-0.436876
O8	O	-4.637564	-0.072085	-0.320068
O9	O	-4.261203	0.016649	-0.369918
O10	O	-4.571760	-0.236675	-0.375432
O11	O	-4.533678	-0.109802	-0.548531
O12	O	-4.299023	-0.109351	-0.198009
C13	C	-3.754665	-0.274021	-0.380981
C14	C	-3.799251	-0.374269	-0.380241
C15	C	-4.001183	-0.425904	-0.386130
C16	C	-4.043065	-0.520098	-0.385442
C17	C	-3.883011	-0.562653	-0.378857
C18	C	-3.681062	-0.511010	-0.372972
C19	C	-3.639184	-0.416820	-0.373669
C20	C	-3.768361	-0.707333	-0.371517
C21	C	-3.810240	-0.801530	-0.370818
C22	C	-4.172242	-0.810612	-0.383291
C23	C	-4.130364	-0.716421	-0.383988
C24	C	-3.928417	-0.664785	-0.378100
C25	C	-3.706421	-0.113294	-0.600267
C26	C	-3.720333	-0.111355	-0.738936
C27	C	-3.898512	-0.114716	-0.806808
C28	C	-3.912895	-0.112712	-0.950130
C29	C	-4.077522	0.046587	-0.375959
C30	C	-4.012173	0.146834	-0.376707
C31	C	-4.125767	-0.114138	-0.156670
C32	C	-4.091093	-0.116073	-0.018000
H33	H	-3.679913	-0.836179	-0.365493
H34	H	-3.550747	-0.545667	-0.367618
C35	C	-4.282814	-0.121961	-0.953186
H36	H	-4.396461	-0.123803	-1.014355
H37	H	-4.310011	-0.175581	-0.914168
H38	H	-4.260251	-0.070116	-0.891059
C39	C	-3.417062	-0.360016	-0.367190
H40	H	-3.415045	-0.297826	-0.368561
H41	H	-3.338213	-0.365968	-0.291409
H42	H	-3.360902	-0.381204	-0.437630
C43	C	-3.528634	-0.105466	-0.803764
H44	H	-3.563453	-0.104899	-0.891590
H45	H	-3.427216	-0.051209	-0.768296
H46	H	-3.476985	-0.156674	-0.791415
H47	H	-4.040406	-0.119070	-0.758810
C48	C	-3.721182	-0.106822	-1.014953
H49	H	-3.756001	-0.106255	-1.102779
H50	H	-3.619764	-0.052565	-0.979485
H51	H	-3.669533	-0.158030	-1.002604
C52	C	-3.546222	-0.650534	-0.365028
H53	H	-3.456892	-0.689365	-0.360990
H54	H	-3.533674	-0.621211	-0.438140
H55	H	-3.511046	-0.605990	-0.291921
H56	H	-4.131522	-0.391262	-0.391480
H57	H	-4.260697	-0.681775	-0.389343
C58	C	-4.394382	-0.867410	-0.389796
H59	H	-4.396410	-0.929604	-0.388459
H60	H	-4.450576	-0.846234	-0.319372
H61	H	-4.473199	-0.861448	-0.465591
C62	C	-4.265187	-0.576892	-0.391908
H63	H	-4.354508	-0.538056	-0.395911
H64	H	-4.300401	-0.621441	-0.465001
H65	H	-4.277698	-0.606207	-0.318779
