data_functionalizedCrystal
_audit_creation_method	'MofGen! by Chris Wilmer'
_symmetry_space_group_name_H-M	'P1'
_symmetry_Int_Tables_number	1
_symmetry_cell_setting	triclinic
loop_
_symmetry_equiv_pos_as_xyz
  x,y,z
_cell_length_a	17.699083
_cell_length_b	14.853567
_cell_length_c	16.176319
_cell_angle_alpha	89.996997
_cell_angle_beta	89.998611
_cell_angle_gamma	83.458972
loop_
_atom_site_label
_atom_site_type_symbol
_atom_site_fract_x
_atom_site_fract_y
_atom_site_fract_z
O1	O	1.004375	0.114008	-0.068624
O2	O	0.784035	0.128841	-0.068650
O3	O	0.900090	-0.009827	-0.068639
O4	O	0.888319	0.252676	-0.068635
O5	O	0.900074	-0.009836	0.068855
O6	O	0.784019	0.128832	0.068843
O7	O	1.004359	0.113999	0.068869
Cu8	Cu	0.894187	0.121415	0.081411
Cu9	Cu	0.894206	0.121425	-0.081191
O10	O	0.888303	0.252667	0.068858
C11	C	0.755828	0.128305	0.000093
C12	C	0.671806	0.126711	0.000083
C13	C	0.899549	-0.043418	0.000106
C14	C	0.897951	-0.143496	0.000098
C15	C	0.623396	0.208106	0.000084
C16	C	0.544449	0.206602	0.000095
C17	C	0.513913	0.123703	0.000098
C18	C	0.562329	0.042301	0.000099
C19	C	0.641275	0.043806	0.000095
C20	C	0.243950	0.036232	0.000120
C21	C	0.164999	0.034734	0.000122
C22	C	0.147125	0.199028	0.000120
C23	C	0.226070	0.200533	0.000115
C24	C	0.274479	0.119132	0.000121
C25	C	0.360083	0.120763	0.000111
C26	C	0.428311	0.122070	0.000102
C27	C	0.822255	-0.555751	0.000105
C28	C	0.960131	-0.577539	0.000121
C29	C	0.961634	-0.483511	0.000117
C30	C	0.893446	-0.425598	0.000107
C31	C	0.823756	-0.461714	0.000103
C32	C	1.031324	-0.447389	0.000129
C33	C	1.032829	-0.353355	0.000126
C34	C	0.964641	-0.295441	0.000111
C35	C	0.894947	-0.331561	0.000105
C36	C	0.826759	-0.273648	0.000096
C37	C	0.757065	-0.309767	0.000084
C38	C	0.755567	-0.403799	0.000088
C39	C	0.966139	-0.201409	0.000107
C40	C	0.828260	-0.179611	0.000094
C41	C	1.032565	0.114535	0.000125
C42	C	1.116587	0.116130	0.000129
C43	C	0.888844	0.286258	0.000112
C44	C	0.890443	0.386336	0.000114
N45	N	0.894179	0.121407	0.195776
N46	N	0.894220	0.121426	-0.195556
C47	C	0.945584	0.060030	0.239045
C48	C	0.945588	0.060029	0.325592
C49	C	0.894190	0.121410	0.368868
C50	C	0.842780	0.182790	0.325593
C51	C	0.842773	0.182786	0.239048
C52	C	0.842806	0.182807	0.674621
C53	C	0.842818	0.182808	0.761173
C54	C	0.945621	0.060050	0.761166
C55	C	0.945614	0.060046	0.674620
C56	C	0.894201	0.121422	0.631353
C57	C	0.894197	0.121422	0.537508
C58	C	0.894198	0.121416	0.462711
H59	H	0.648252	0.275612	0.000081
H60	H	0.698825	-0.433216	0.000079
Cl61	Cl	0.778197	0.259978	0.815577
Cl62	Cl	0.483594	0.308932	0.000092
H63	H	1.089579	-0.323956	0.000134
H64	H	0.987470	0.010067	0.639387
Cl65	Cl	0.778144	0.259947	0.184653
H66	H	0.250928	0.268038	0.000109
Cl67	Cl	1.010253	-0.017114	0.815564
H68	H	0.765511	-0.585163	0.000092
Cl69	Cl	0.778177	0.259967	0.620233
H70	H	0.107700	0.265309	0.000120
H71	H	0.800927	0.232765	0.360834
Cl72	Cl	0.126612	-0.069491	0.000127
H73	H	0.537461	-0.025197	0.000114
H74	H	0.283356	-0.030050	0.000125
H75	H	0.701546	-0.262602	0.000083
H76	H	0.987445	0.010051	0.360821
Cl77	Cl	0.702134	-0.058524	0.000097
H78	H	1.086839	-0.494548	0.000145
H79	H	1.022883	-0.172005	0.000122
H80	H	0.772732	-0.132463	0.000082
H81	H	1.015647	-0.624697	0.000135
H82	H	0.987442	0.010050	0.203815
