data_functionalizedCrystal
_audit_creation_method	'MofGen! by Chris Wilmer'
_symmetry_space_group_name_H-M	'P1'
_symmetry_Int_Tables_number	1
_symmetry_cell_setting	triclinic
loop_
_symmetry_equiv_pos_as_xyz
  x,y,z
_cell_length_a	12.837943
_cell_length_b	14.421503
_cell_length_c	12.837942
_cell_angle_alpha	90.005286
_cell_angle_beta	85.171060
_cell_angle_gamma	90.007355
loop_
_atom_site_label
_atom_site_type_symbol
_atom_site_fract_x
_atom_site_fract_y
_atom_site_fract_z
O1	O	1.402341	0.077094	-0.272127
O2	O	1.099207	0.077100	-0.258683
O3	O	1.244052	0.077091	-0.113838
O4	O	1.257496	0.077103	-0.416972
O5	O	1.244028	-0.077132	-0.113859
O6	O	1.099183	-0.077124	-0.258705
O7	O	1.402316	-0.077129	-0.272148
Cu8	Cu	1.250747	-0.091208	-0.265428
Cu9	Cu	1.250776	0.091179	-0.265403
O10	O	1.257471	-0.077121	-0.416993
C11	C	1.060126	-0.000011	-0.254153
C12	C	0.943711	-0.000009	-0.240608
N13	N	1.250735	-0.219489	-0.265446
C14	C	0.718837	-0.000017	-0.403437
C15	C	0.609454	-0.000015	-0.390716
C16	C	0.615562	-0.000012	-0.202445
C17	C	0.724944	-0.000014	-0.215166
C18	C	0.776578	-0.000014	-0.315666
C19	C	0.885962	-0.000009	-0.328386
C20	C	0.892067	-0.000012	-0.140116
C21	C	0.782685	-0.000011	-0.127395
C22	C	1.183742	-0.469139	-0.332388
C23	C	1.280341	-0.530943	-0.362050
C24	C	1.250758	-0.408651	-0.265423
C25	C	1.154186	-0.530941	-0.235788
C26	C	1.250772	-0.591372	-0.265403
C27	C	1.347409	-0.469094	-0.295137
C28	C	1.221188	-0.469087	-0.168829
C29	C	1.317851	-0.530862	-0.198457
C30	C	1.250749	-0.303390	-0.265438
C31	C	1.250792	-0.696631	-0.265389
C32	C	1.441398	-0.000016	-0.276679
C33	C	1.557813	-0.000012	-0.290223
C34	C	1.239499	-0.000020	-0.074780
C35	C	1.225954	-0.000018	0.041635
N36	N	1.250796	0.219460	-0.265378
C37	C	1.262025	-0.000008	-0.456052
C38	C	1.275569	-0.000003	-0.572467
C39	C	1.388784	-0.000002	0.266510
C40	C	1.376062	0.000000	0.375892
C41	C	1.187791	-0.000006	0.369785
C42	C	1.200513	-0.000008	0.260402
C43	C	1.301012	-0.000007	0.208769
C44	C	1.313732	-0.000015	0.099384
C45	C	1.125462	-0.000015	0.093279
C46	C	1.112741	-0.000013	0.202661
H47	H	0.928000	-0.000011	-0.410218
H48	H	1.127138	-0.442038	-0.389074
H49	H	1.196137	-0.441895	-0.087171
O50	O	0.547171	-0.000014	-0.485382
H51	H	0.601456	-0.000008	-0.557398
O52	O	1.393016	-0.566543	-0.123439
H53	H	1.349699	-0.608896	-0.061928
H54	H	0.939092	-0.000004	-0.068646
H55	H	0.740630	-0.000021	-0.045571
O56	O	1.313457	-0.566991	-0.470225
H57	H	1.257693	-0.542297	-0.525674
O58	O	1.455633	-0.433262	-0.328457
H59	H	1.511260	-0.458559	-0.273187
O60	O	0.559864	-0.000026	-0.094055
H61	H	0.474104	-0.000027	-0.099960
O62	O	1.046002	-0.566929	-0.202585
H63	H	0.990523	-0.542199	-0.258302
H64	H	1.395564	-0.000018	0.057346
O65	O	1.497171	0.000001	0.210807
H66	H	1.556070	0.000009	0.269336
O67	O	1.079401	0.000005	0.425480
H68	H	1.036689	-0.062851	0.403018
H69	H	0.760878	-0.000016	-0.485268
O70	O	1.470728	-0.000005	0.438175
H71	H	1.542744	-0.000013	0.383890
H72	H	1.030917	-0.000010	0.244717
O73	O	1.030783	-0.000017	0.031004
H74	H	1.056509	-0.000014	-0.053732
