data_functionalizedCrystal
_audit_creation_method	'MofGen! by Chris Wilmer'
_symmetry_space_group_name_H-M	'P1'
_symmetry_Int_Tables_number	1
_symmetry_cell_setting	triclinic
loop_
_symmetry_equiv_pos_as_xyz
  x,y,z
_cell_length_a	8.597340
_cell_length_b	8.559649
_cell_length_c	17.766277
_cell_angle_alpha	89.994756
_cell_angle_beta	97.692772
_cell_angle_gamma	77.625043
loop_
_atom_site_label
_atom_site_type_symbol
_atom_site_fract_x
_atom_site_fract_y
_atom_site_fract_z
O1	O	2.053698	0.238033	0.070602
O2	O	1.594576	0.256297	0.040825
O3	O	1.864586	0.015195	0.058338
O4	O	1.783688	0.479135	0.053090
O5	O	1.864545	0.015182	0.183524
O6	O	1.594536	0.256284	0.166011
O7	O	2.053657	0.238020	0.195788
Cu8	Cu	1.824093	0.247151	0.192330
Cu9	Cu	1.824141	0.247166	0.044283
O10	O	1.783648	0.479122	0.178275
C11	C	1.536323	0.254329	0.099641
C12	C	1.362807	0.248467	0.088387
C13	C	1.870697	-0.044246	0.121327
C14	C	1.888945	-0.221341	0.122506
C15	C	2.111911	0.239988	0.136971
C16	C	2.285426	0.245849	0.148220
C17	C	1.777537	0.538563	0.115285
C18	C	1.759288	0.715658	0.114100
N19	N	1.824070	0.247139	0.296459
N20	N	1.824177	0.247166	-0.059845
C21	C	1.943659	0.140433	0.343602
C22	C	1.943669	0.140425	0.422405
C23	C	1.824102	0.247152	0.454062
C24	C	1.704492	0.353866	0.406907
C25	C	1.704477	0.353860	0.328106
C26	C	1.786071	0.392081	0.576432
C27	C	1.786098	0.392090	0.655233
C28	C	1.824141	0.247172	0.697110
C29	C	1.862193	0.102240	0.660180
C30	C	1.862177	0.102233	0.581379
C31	C	1.824105	0.247171	0.539507
C32	C	1.943748	0.140449	0.829701
C33	C	1.943747	0.140440	0.908504
C34	C	1.704576	0.353894	0.893005
C35	C	1.704571	0.353890	0.814203
C36	C	1.824165	0.247169	0.782556
H37	H	1.296304	0.246224	0.028545
O38	O	2.054497	-0.329348	0.133253
H39	H	2.069182	-0.405958	0.083182
H40	H	1.634323	-0.202797	0.105998
O41	O	2.072625	0.025312	0.309465
H42	H	2.155775	-0.048902	0.355491
O43	O	2.072671	0.025349	0.473269
H44	H	2.155835	-0.048851	0.438024
O45	O	1.903187	-0.054071	0.541541
H46	H	1.929633	-0.154848	0.583892
H47	H	1.893171	-0.015766	0.694275
H48	H	1.351924	0.248081	0.208057
O49	O	2.072711	0.025332	0.795556
H50	H	2.155857	-0.048893	0.841580
H51	H	2.041127	0.053538	0.946890
O52	O	1.575611	0.469016	0.927136
H53	H	1.595716	0.451103	0.989853
O54	O	1.575602	0.468999	0.763348
H55	H	1.492467	0.543224	0.798598
H56	H	1.755124	0.510102	0.685296
H57	H	1.755063	0.510097	0.542340
H58	H	1.607137	0.440762	0.432686
O59	O	1.575498	0.468966	0.277251
H60	H	1.492358	0.543188	0.312499
