data_functionalizedCrystal
_audit_creation_method	'MofGen! by Chris Wilmer'
_symmetry_space_group_name_H-M	'P1'
_symmetry_Int_Tables_number	1
_symmetry_cell_setting	triclinic
loop_
_symmetry_equiv_pos_as_xyz
  x,y,z
_cell_length_a	16.959455
_cell_length_b	16.959454
_cell_length_c	18.215384
_cell_angle_alpha	89.909027
_cell_angle_beta	90.061507
_cell_angle_gamma	89.977637
loop_
_atom_site_label
_atom_site_type_symbol
_atom_site_fract_x
_atom_site_fract_y
_atom_site_fract_z
Zn1	Zn	1.208733	0.314169	0.416126
Zn2	Zn	1.208541	0.446512	0.293071
Zn3	Zn	1.076454	0.314350	0.293075
Zn4	Zn	1.076520	0.446308	0.416098
O5	O	1.142562	0.380335	0.354592
O6	O	1.319319	0.331734	0.399812
O7	O	1.190912	0.429142	0.190087
O8	O	1.094054	0.203715	0.309412
O9	O	1.319178	0.428966	0.309404
O10	O	1.191239	0.203582	0.399817
O11	O	1.093867	0.332043	0.190090
O12	O	0.965852	0.331845	0.309384
O13	O	1.094166	0.428619	0.519086
O14	O	0.965900	0.428794	0.399769
O15	O	1.191303	0.331537	0.519107
O16	O	1.190976	0.557096	0.309377
O17	O	1.093980	0.556946	0.399764
C18	C	0.937196	0.380318	0.354574
C19	C	0.849339	0.380330	0.354584
C20	C	0.807990	0.430882	0.307446
C21	C	0.808135	0.329784	0.401728
C22	C	0.725589	0.329790	0.401737
C23	C	0.684240	0.380342	0.354599
C24	C	0.725436	0.430888	0.307451
C25	C	0.684387	0.279239	0.448878
C26	C	0.601836	0.279243	0.448888
C27	C	0.560485	0.329800	0.401753
C28	C	0.601686	0.380348	0.354604
C29	C	0.560337	0.430900	0.307466
C30	C	0.601537	0.481453	0.260321
C31	C	0.684085	0.481445	0.260316
C32	C	0.477936	0.329808	0.401757
C33	C	0.477783	0.430906	0.307472
C34	C	1.142486	0.585701	0.354583
C35	C	1.142525	0.673558	0.354604
C36	C	1.092097	1.044985	0.401662
C37	C	1.193181	1.045081	0.307618
C38	C	1.193158	0.962535	0.307610
C39	C	1.142602	0.921211	0.354628
C40	C	1.092070	0.962432	0.401654
C41	C	1.243684	0.921308	0.260579
C42	C	1.243661	0.838757	0.260569
C43	C	1.193109	0.797431	0.307591
C44	C	1.142575	0.838657	0.354620
C45	C	1.092020	0.797333	0.401638
C46	C	1.041489	0.838557	0.448671
C47	C	1.041518	0.921106	0.448677
C48	C	1.193081	0.714883	0.307585
C49	C	1.091993	0.714779	0.401630
C50	C	1.348730	0.380353	0.354611
C51	C	1.436587	0.380360	0.354619
C52	C	1.142648	1.174167	0.354622
C53	C	1.142652	1.086310	0.354644
C54	C	1.142407	0.380577	0.163386
C55	C	1.142474	0.380482	0.081587
C56	C	1.092423	0.431152	-0.106820
C57	C	1.092485	0.431054	-0.183678
C58	C	1.192902	0.329231	-0.183243
C59	C	1.192836	0.329326	-0.106386
C60	C	1.142598	0.380291	-0.068176
C61	C	1.142726	0.380098	-0.221892
C62	C	1.142793	0.379991	-0.305225
C63	C	1.142529	0.380398	0.015163
C64	C	1.142764	0.380035	0.546546
C65	C	1.142849	0.379907	0.628345
H66	H	0.444395	0.288643	0.440137
O67	O	1.043659	0.480763	-0.069784
C68	C	1.006203	0.615518	-0.046648
C69	C	1.061470	0.559423	-0.088646
H70	H	1.020595	0.679127	-0.061871
H71	H	0.942377	0.602136	-0.061852
H72	H	1.014759	0.606812	0.014919
H73	H	1.052985	0.568097	-0.150223
H74	H	1.125277	0.572819	-0.073381
O75	O	1.241615	0.280025	-0.068760
C76	C	1.348203	0.268733	0.018208
C77	C	1.293009	0.324655	-0.024346
H78	H	1.389780	0.304794	0.054115
H79	H	1.311639	0.227723	0.054278
H80	H	1.384089	0.232274	-0.022314
H81	H	1.257111	0.361164	0.016123
H82	H	1.329618	0.365611	-0.060427
H83	H	1.000323	0.804901	0.486950
O84	O	1.241731	0.279657	-0.220247
C85	C	1.341361	0.178710	-0.211703
C86	C	1.286086	0.234798	-0.169707
H87	H	1.377249	0.142438	-0.170859
H88	H	1.304865	0.137542	-0.247626
H89	H	1.382933	0.214675	-0.247723
H90	H	1.244504	0.198897	-0.133647
H91	H	1.322632	0.275968	-0.133830
H92	H	0.568298	0.238080	0.487278
O93	O	0.724229	0.530468	0.214542
C94	C	0.851338	0.575284	0.172774
C95	C	0.805971	0.519717	0.224640
H96	H	0.917434	0.566623	0.180931
H97	H	0.835095	0.561399	0.113439
H98	H	0.835062	0.639015	0.185591
H99	H	0.822222	0.455967	0.211889
H100	H	0.822217	0.533669	0.283959
H101	H	1.234337	1.078733	0.269333
O102	O	0.848128	0.479912	0.261673
C103	C	0.975230	0.524753	0.219910
C104	C	0.929872	0.469174	0.271772
H105	H	1.041328	0.516103	0.228068
H106	H	0.958991	0.510870	0.160574
H107	H	0.958943	0.588481	0.232731
H108	H	0.946135	0.405428	0.259017
H109	H	0.946115	0.483125	0.331092
O110	O	1.043858	0.480501	-0.221297
C111	C	1.034023	0.587216	-0.308328
C112	C	1.089185	0.531253	-0.265784
H113	H	1.070648	0.628274	-0.344293
H114	H	0.992489	0.551222	-0.344339
H115	H	0.998090	0.623619	-0.267799
H116	H	1.125170	0.494837	-0.306259
H117	H	1.130667	0.567292	-0.229762
H118	H	1.050827	0.681137	0.439921
H119	H	0.444122	0.472076	0.269088
O120	O	0.848336	0.280794	0.447592
C121	C	0.941709	0.270161	0.546924
C122	C	0.896211	0.325733	0.495037
H123	H	0.980439	0.306471	0.585286
H124	H	0.898122	0.234050	0.580679
H125	H	0.980291	0.228811	0.513179
H126	H	0.857629	0.367131	0.528726
H127	H	0.939841	0.361789	0.461280
O128	O	0.992542	0.961239	0.494391
C129	C	0.981953	1.054243	0.593770
C130	C	1.037507	1.008850	0.542038
H131	H	1.018286	1.092735	0.632315
H132	H	0.940644	1.093031	0.559985
H133	H	0.945796	1.010517	0.627343
H134	H	1.073716	1.052519	0.508454
H135	H	1.078764	0.970051	0.575865
O136	O	1.292673	0.798593	0.214911
C137	C	1.337475	0.671467	0.173254
C138	C	1.281915	0.716855	0.224984
H139	H	1.328809	0.605374	0.181391
H140	H	1.323589	0.687754	0.113885
H141	H	1.401209	0.687681	0.186226
H142	H	1.218163	0.700666	0.212079
H143	H	1.295870	0.700565	0.284338
O144	O	0.561331	0.530642	0.214636
C145	C	0.468032	0.637321	0.204587
C146	C	0.513533	0.581679	0.256405
H147	H	0.429363	0.678587	0.238335
H148	H	0.511616	0.673511	0.170902
H149	H	0.429387	0.601011	0.166149
H150	H	0.552179	0.617928	0.294887
H151	H	0.469906	0.545486	0.290038
H152	H	0.718059	0.238079	0.487253
O153	O	1.292695	0.961571	0.214914
C154	C	1.337340	1.088791	0.173074
C155	C	1.281850	1.043287	0.224883
H156	H	1.328580	1.154865	0.181105
H157	H	1.401125	1.072602	0.185960
H158	H	1.323356	1.072584	0.113758
H159	H	1.295763	1.059469	0.284216
H160	H	1.218082	1.059480	0.211934
O161	O	1.242084	0.674715	0.261927
C162	C	1.286879	0.547588	0.220267
C163	C	1.231325	0.592978	0.272002
H164	H	1.278211	0.481495	0.228405
H165	H	1.272987	0.563875	0.160899
H166	H	1.350614	0.563799	0.233233
H167	H	1.167571	0.576790	0.259101
H168	H	1.245285	0.576687	0.331354
H169	H	1.050958	1.078554	0.439958
