data_functionalizedCrystal
_audit_creation_method	'MofGen! by Chris Wilmer'
_symmetry_space_group_name_H-M	'P1'
_symmetry_Int_Tables_number	1
_symmetry_cell_setting	triclinic
loop_
_symmetry_equiv_pos_as_xyz
  x,y,z
_cell_length_a	15.297475
_cell_length_b	16.120484
_cell_length_c	16.120297
_cell_angle_alpha	95.614431
_cell_angle_beta	83.675009
_cell_angle_gamma	83.687474
loop_
_atom_site_label
_atom_site_type_symbol
_atom_site_fract_x
_atom_site_fract_y
_atom_site_fract_z
Zn1	Zn	1.308575	-0.577514	-0.709546
Zn2	Zn	1.808575	-0.077514	-0.209546
Zn3	Zn	1.308464	-0.710185	-0.576838
Zn4	Zn	1.808464	-0.210185	-0.076838
Zn5	Zn	1.168358	-0.546794	-0.546209
Zn6	Zn	1.668358	-0.046794	-0.046209
Zn7	Zn	1.152498	-0.690914	-0.690328
Zn8	Zn	1.652498	-0.190914	-0.190328
O9	O	1.234474	-0.631352	-0.630730
O10	O	1.734474	-0.131352	-0.130730
O11	O	1.432514	-0.616035	-0.712803
O12	O	1.932514	-0.116035	-0.212803
O13	O	1.296469	-0.683720	-0.456922
O14	O	1.796469	-0.183720	0.043078
O15	O	1.193642	-0.435032	-0.563100
O16	O	1.693642	0.064968	-0.063100
O17	O	1.432432	-0.713507	-0.615303
O18	O	1.932432	-0.213507	-0.115303
O19	O	1.296659	-0.457601	-0.683104
O20	O	1.796659	0.042399	-0.183104
O21	O	1.193534	-0.563677	-0.434418
O22	O	1.693534	-0.063677	0.065582
O23	O	1.042301	-0.544991	-0.544465
O24	O	1.542301	-0.044991	-0.044465
O25	O	1.166612	-0.680662	-0.808731
O26	O	1.666612	-0.180662	-0.308731
O27	O	1.030649	-0.650874	-0.650349
O28	O	1.530649	-0.150874	-0.150349
O29	O	1.281281	-0.597348	-0.822850
O30	O	1.781281	-0.097348	-0.322850
O31	O	1.281091	-0.823466	-0.596668
O32	O	1.781091	-0.323466	-0.096668
O33	O	1.166503	-0.809308	-0.680049
O34	O	1.666503	-0.309308	-0.180049
C35	C	1.004335	-0.592508	-0.591999
C36	C	1.504335	-0.092508	-0.091999
C37	C	0.905878	-0.575912	-0.575450
C38	C	1.405878	-0.075912	-0.075450
C39	C	1.222087	-0.846427	-0.639619
C40	C	1.722087	-0.346427	-0.139619
C41	C	1.216867	-0.938452	-0.643463
C42	C	1.716867	-0.438452	-0.143463
C43	C	0.604176	-0.749976	-0.749011
C44	C	1.104176	-0.249976	-0.249011
C45	C	0.696681	-0.765575	-0.764558
C46	C	1.196681	-0.265575	-0.264558
C47	C	0.748985	-0.718161	-0.717283
C48	C	1.248985	-0.218161	-0.217283
C49	C	0.708775	-0.655144	-0.654457
C50	C	1.208775	-0.155144	-0.154457
C51	C	0.616261	-0.639548	-0.638905
C52	C	1.116261	-0.139548	-0.138905
C53	C	0.761069	-0.607733	-0.607176
C54	C	1.261069	-0.107733	-0.107176
C55	C	0.720859	-0.544716	-0.544351
C56	C	1.220859	-0.044716	-0.044351
C57	C	0.628354	-0.529122	-0.528801
C58	C	1.128354	-0.029122	-0.028801
C59	C	0.576051	-0.576537	-0.576077
C60	C	1.076051	-0.076537	-0.076077
C61	C	0.853583	-0.623329	-0.622728
C62	C	1.353583	-0.123329	-0.122728
C63	C	0.865668	-0.512901	-0.512622
C64	C	1.365668	-0.012901	-0.012622
C65	C	0.773163	-0.497301	-0.497075
C66	C	1.273163	0.002699	0.002925
C67	C	1.207342	-1.106945	-0.650499
C68	C	1.707342	-0.606945	-0.150499
C69	C	1.261764	-1.154945	-0.611002
C70	C	1.761764	-0.654945	-0.111002
C71	C	1.256464	-1.248701	-0.614917
C72	C	1.756464	-0.748701	-0.114917
C73	C	1.212640	-1.013181	-0.646585
C74	C	1.712640	-0.513181	-0.146585
C75	C	1.465512	-0.670347	-0.669614
C76	C	1.965512	-0.170347	-0.169614
C77	C	1.563966	-0.686965	-0.686183
C78	C	2.063966	-0.186965	-0.186183
C79	C	1.222190	-0.640282	-0.846670
C80	C	1.722190	-0.140282	-0.346670
C81	C	1.216955	-0.644088	-0.938691
C82	C	1.716955	-0.144088	-0.438691
C83	C	1.246932	-0.415441	-0.621829
C84	C	1.746932	0.084559	-0.121829
C85	C	1.252241	-0.323433	-0.618036
C86	C	1.752241	0.176567	-0.118036
C87	C	1.207366	-0.651012	-1.107168
C88	C	1.707366	-0.151012	-0.607168
C89	C	1.261770	-0.611473	-1.155163
C90	C	1.761770	-0.111473	-0.655163
C91	C	1.256435	-0.615326	-1.248910
C92	C	1.756435	-0.115326	-0.748910
C93	C	1.212700	-0.647160	-1.013413
C94	C	1.712700	-0.147160	-0.513413
C95	C	1.246765	-0.622405	-0.415637
C96	C	1.746765	-0.122405	0.084363
C97	C	1.252184	-0.618395	-0.323636
C98	C	1.752184	-0.118395	0.176364
H99	H	0.886313	-0.674637	-0.673882
H100	H	1.386313	-0.174637	-0.173882
C101	C	0.584862	-0.460645	-0.460579
C102	C	1.084862	0.039355	0.039421
C103	C	0.650463	-0.422443	-0.422520
C104	C	1.150463	0.077557	0.077480
C105	C	0.610433	-0.359351	-0.359678
C106	C	1.110433	0.140649	0.140322
H107	H	0.549011	-0.484579	-0.419616
H108	H	1.049011	0.015421	0.080384
H109	H	0.549069	-0.419814	-0.484739
H110	H	1.049069	0.080186	0.015261
H111	H	0.686241	-0.463266	-0.398360
H112	H	1.186241	0.036734	0.101640
H113	H	0.686318	-0.398491	-0.463461
H114	H	1.186318	0.101509	0.036539
H115	H	0.574640	-0.318520	-0.383838
H116	H	1.074640	0.181480	0.116162
H117	H	0.574583	-0.383293	-0.318721
H118	H	1.074583	0.116707	0.181279
H119	H	0.654936	-0.333418	-0.333852
H120	H	1.154936	0.166582	0.166148
H121	H	0.740410	-0.445993	-0.445922
H122	H	1.240410	0.054007	0.054078
H123	H	1.156772	-1.136261	-0.687250
H124	H	1.656772	-0.636261	-0.187250
H125	H	1.156787	-0.687753	-1.136482
H126	H	1.656787	-0.187753	-0.636482
C127	C	0.849406	-0.735190	-0.734319
C128	C	1.349406	-0.235190	-0.234319
C129	C	0.873426	-0.800509	-0.799471
C130	C	1.373426	-0.300509	-0.299471
C131	C	0.965929	-0.816212	-0.815201
C132	C	1.465929	-0.316212	-0.315201
H133	H	0.872653	-0.750784	-0.685043
H134	H	1.372653	-0.250784	-0.185043
H135	H	0.872613	-0.685938	-0.750086
H136	H	1.372613	-0.185938	-0.250086
H137	H	0.850229	-0.849751	-0.783701
H138	H	1.350229	-0.349751	-0.283701
H139	H	0.850201	-0.784934	-0.848760
H140	H	1.350201	-0.284934	-0.348760
H141	H	0.989136	-0.766960	-0.830968
H142	H	1.489136	-0.266960	-0.330968
H143	H	0.989168	-0.831802	-0.765921
H144	H	1.489168	-0.331802	-0.265921
H145	H	0.982239	-0.860527	-0.859413
H146	H	1.482239	-0.360527	-0.359413
C147	C	0.740169	-0.833995	-0.832830
C148	C	1.240169	-0.333995	-0.332830
C149	C	0.674568	-0.872166	-0.870919
C150	C	1.174568	-0.372166	-0.370919
C151	C	0.714596	-0.935193	-0.933826
C152	C	1.214596	-0.435193	-0.433826
H153	H	0.775977	-0.874862	-0.808749
H154	H	1.275977	-0.374862	-0.308749
H155	H	0.776005	-0.809983	-0.873758
H156	H	1.276005	-0.309983	-0.373758
H157	H	0.638747	-0.896178	-0.829998
H158	H	1.138747	-0.396178	-0.329998
H159	H	0.638756	-0.831321	-0.895017
H160	H	1.138756	-0.331321	-0.395017
H161	H	0.750432	-0.911181	-0.974754
H162	H	1.250432	-0.411181	-0.474754
H163	H	0.750403	-0.976054	-0.909738
H164	H	1.250403	-0.476054	-0.409738
H165	H	0.670092	-0.961094	-0.959682
H166	H	1.170092	-0.461094	-0.459682
H167	H	1.312354	-0.574729	-1.125847
H168	H	1.812354	-0.074729	-0.625847
H169	H	0.908253	-0.474293	-0.474125
H170	H	1.408253	0.025707	0.025875
C171	C	1.329285	-1.116023	-0.561977
C172	C	1.829285	-0.616023	-0.061977
C173	C	1.378466	-1.178740	-0.526319
C174	C	1.878466	-0.678740	-0.026319
C175	C	1.440676	-1.142914	-0.481160
C176	C	1.940676	-0.642914	0.018840
H177	H	1.299450	-1.075134	-0.518747
H178	H	1.799450	-0.575134	-0.018747
H179	H	1.367971	-1.090077	-0.598770
H180	H	1.867971	-0.590077	-0.098770
H181	H	1.339785	-1.204673	-0.489529
H182	H	1.839785	-0.704673	0.010471
H183	H	1.408320	-1.219633	-0.569530
H184	H	1.908320	-0.719633	-0.069530
H185	H	1.479363	-1.116967	-0.517954
H186	H	1.979363	-0.616967	-0.017954
H187	H	1.410834	-1.102026	-0.437935
H188	H	1.910834	-0.602026	0.062065
H189	H	1.474059	-1.185463	-0.456968
H190	H	1.974059	-0.685463	0.043032
C191	C	0.547238	-0.801333	-0.800269
C192	C	1.047238	-0.301333	-0.300269
C193	C	0.457618	-0.774173	-0.773211
C194	C	0.957618	-0.274173	-0.273211
C195	C	0.405140	-0.821461	-0.820420
C196	C	0.905140	-0.321461	-0.320420
H197	H	0.559783	-0.859002	-0.792942
H198	H	1.059783	-0.359002	-0.292942
H199	H	0.559879	-0.794150	-0.857978
H200	H	1.059879	-0.294150	-0.357978
H201	H	0.444982	-0.781363	-0.715516
H202	H	0.944982	-0.281363	-0.215516
H203	H	0.445046	-0.716510	-0.780540
H204	H	0.945046	-0.216510	-0.280540
H205	H	0.417781	-0.814278	-0.878130
H206	H	0.917781	-0.314278	-0.378130
H207	H	0.417692	-0.879128	-0.813090
H208	H	0.917692	-0.379128	-0.313090
H209	H	0.344328	-0.803035	-0.802074
H210	H	0.844328	-0.303035	-0.302074
H211	H	0.500725	-0.563838	-0.563424
H212	H	1.000725	-0.063838	-0.063424
