data_functionalizedCrystal
_audit_creation_method	'MofGen! by Chris Wilmer'
_symmetry_space_group_name_H-M	'P1'
_symmetry_Int_Tables_number	1
_symmetry_cell_setting	triclinic
loop_
_symmetry_equiv_pos_as_xyz
  x,y,z
_cell_length_a	18.050590
_cell_length_b	18.215405
_cell_length_c	18.215399
_cell_angle_alpha	89.969449
_cell_angle_beta	89.995989
_cell_angle_gamma	90.014052
loop_
_atom_site_label
_atom_site_type_symbol
_atom_site_fract_x
_atom_site_fract_y
_atom_site_fract_z
Zn1	Zn	1.135345	-0.293205	-0.415792
Zn2	Zn	1.385345	-0.043205	-0.165792
Zn3	Zn	1.635345	0.206795	0.084208
Zn4	Zn	1.885345	0.456795	0.334208
Zn5	Zn	1.135252	-0.416276	-0.292720
Zn6	Zn	1.385252	-0.166276	-0.042720
Zn7	Zn	1.635252	0.083724	0.207280
Zn8	Zn	1.885252	0.333724	0.457280
Zn9	Zn	1.011154	-0.293205	-0.292773
Zn10	Zn	1.261154	-0.043205	-0.042773
Zn11	Zn	1.511154	0.206795	0.207227
Zn12	Zn	1.761154	0.456795	0.457227
Zn13	Zn	1.011119	-0.416211	-0.415779
Zn14	Zn	1.261119	-0.166211	-0.165779
Zn15	Zn	1.511119	0.083789	0.084221
Zn16	Zn	1.761119	0.333789	0.334221
O17	O	1.073217	-0.354724	-0.354266
O18	O	1.323217	-0.104724	-0.104266
O19	O	1.573217	0.145276	0.145734
O20	O	1.823217	0.395276	0.395734
O21	O	1.239257	-0.309558	-0.399449
O22	O	1.489257	-0.059558	-0.149449
O23	O	1.739257	0.190442	0.100551
O24	O	1.989257	0.440442	0.350551
O25	O	1.118766	-0.399977	-0.189743
O26	O	1.368766	-0.149977	0.060257
O27	O	1.618766	0.100023	0.310257
O28	O	1.868766	0.350023	0.560257
O29	O	1.027681	-0.190220	-0.309120
O30	O	1.277681	0.059780	-0.059120
O31	O	1.527681	0.309780	0.190880
O32	O	1.777681	0.559780	0.440880
O33	O	1.239189	-0.399978	-0.309029
O34	O	1.489189	-0.149978	-0.059029
O35	O	1.739189	0.100022	0.190971
O36	O	1.989189	0.350022	0.440971
O37	O	1.118924	-0.190220	-0.399501
O38	O	1.368924	0.059780	-0.149501
O39	O	1.618924	0.309780	0.100499
O40	O	1.868924	0.559780	0.350499
O41	O	1.027591	-0.309557	-0.189782
O42	O	1.277591	-0.059557	0.060218
O43	O	1.527591	0.190443	0.310218
O44	O	1.777591	0.440443	0.560218
O45	O	0.907224	-0.309494	-0.309107
O46	O	1.157224	-0.059494	-0.059107
O47	O	1.407224	0.190506	0.190893
O48	O	1.657224	0.440506	0.440893
O49	O	1.027622	-0.399867	-0.518765
O50	O	1.277622	-0.149867	-0.268765
O51	O	1.527622	0.100133	-0.018765
O52	O	1.777622	0.350133	0.231235
O53	O	0.907199	-0.399866	-0.399479
O54	O	1.157199	-0.149866	-0.149479
O55	O	1.407199	0.100134	0.100521
O56	O	1.657199	0.350134	0.350521
O57	O	1.118890	-0.309495	-0.518774
O58	O	1.368890	-0.059495	-0.268774
O59	O	1.618890	0.190505	-0.018774
O60	O	1.868890	0.440505	0.231226
O61	O	1.118733	-0.519252	-0.309016
O62	O	1.368733	-0.269252	-0.059016
O63	O	1.618733	-0.019252	0.190984
O64	O	1.868733	0.230748	0.440984
O65	O	1.027533	-0.519204	-0.399427
O66	O	1.277533	-0.269204	-0.149427
O67	O	1.527533	-0.019204	0.100573
O68	O	1.777533	0.230796	0.350573
C69	C	1.073139	-0.545930	-0.354231
C70	C	1.323139	-0.295930	-0.104231
C71	C	1.573139	-0.045930	0.145769
C72	C	1.823139	0.204070	0.395769
C73	C	1.073173	-0.627729	-0.354240
C74	C	1.323173	-0.377729	-0.104240
C75	C	1.573173	-0.127729	0.145760
C76	C	1.823173	0.122271	0.395760
C77	C	0.880265	-0.354674	-0.354298
C78	C	1.130265	-0.104674	-0.104298
C79	C	1.380265	0.145326	0.145702
C80	C	1.630265	0.395326	0.395702
C81	C	0.797719	-0.354670	-0.354329
C82	C	1.047719	-0.104670	-0.104329
C83	C	1.297719	0.145330	0.145671
C84	C	1.547719	0.395330	0.395671
C85	C	1.120773	-0.815924	-0.307250
C86	C	1.370773	-0.565924	-0.057250
C87	C	1.620773	-0.315924	0.192750
C88	C	1.870773	-0.065924	0.442750
C89	C	1.120806	-0.892782	-0.307267
C90	C	1.370806	-0.642782	-0.057267
C91	C	1.620806	-0.392782	0.192733
C92	C	1.870806	-0.142782	0.442733
C93	C	1.025757	-0.892772	-0.401335
C94	C	1.275757	-0.642772	-0.151335
C95	C	1.525757	-0.392772	0.098665
C96	C	1.775757	-0.142772	0.348665
C97	C	1.025728	-0.815915	-0.401320
C98	C	1.275728	-0.565915	-0.151320
C99	C	1.525728	-0.315915	0.098680
C100	C	1.775728	-0.065915	0.348680
C101	C	1.073235	-0.777493	-0.354274
C102	C	1.323235	-0.527493	-0.104274
C103	C	1.573235	-0.277493	0.145726
C104	C	1.823235	-0.027493	0.395726
C105	C	1.073297	-0.931209	-0.354306
C106	C	1.323297	-0.681209	-0.104306
C107	C	1.573297	-0.431209	0.145694
C108	C	1.823297	-0.181209	0.395694
C109	C	1.073333	-1.014542	-0.354326
C110	C	1.323333	-0.764542	-0.104326
C111	C	1.573333	-0.514542	0.145674
C112	C	1.823333	-0.264542	0.395674
C113	C	1.073200	-0.694154	-0.354255
C114	C	1.323200	-0.444154	-0.104255
C115	C	1.573200	-0.194154	0.145745
C116	C	1.823200	0.055846	0.395745
C117	C	0.598277	-0.403955	-0.403356
C118	C	0.848277	-0.153955	-0.153356
C119	C	1.098277	0.096045	0.096644
C120	C	1.348277	0.346045	0.346644
C121	C	0.548881	-0.336851	-0.421469
C122	C	0.798881	-0.086851	-0.171469
C123	C	1.048881	0.163149	0.078531
C124	C	1.298881	0.413149	0.328531
C125	C	0.646589	-0.354711	-0.354293
C126	C	0.896589	-0.104711	-0.104293
C127	C	1.146589	0.145289	0.145707
C128	C	1.396589	0.395289	0.395707
C129	C	0.548903	-0.421853	-0.336179
C130	C	0.798903	-0.171853	-0.086179
C131	C	1.048903	0.078147	0.163821
C132	C	1.298903	0.328147	0.413821
C133	C	0.500604	-0.354757	-0.354259
C134	C	0.750604	-0.104757	-0.104259
C135	C	1.000604	0.145243	0.145741
C136	C	1.250604	0.395243	0.395741
C137	C	0.598281	-0.287571	-0.372441
C138	C	0.848281	-0.037571	-0.122441
C139	C	1.098281	0.212429	0.127559
C140	C	1.348281	0.462429	0.377559
C141	C	0.598307	-0.372619	-0.287120
C142	C	0.848307	-0.122619	-0.037120
C143	C	1.098307	0.127381	0.212880
C144	C	1.348307	0.377381	0.462880
C145	C	0.548934	-0.305469	-0.305207
C146	C	0.798934	-0.055469	-0.055207
C147	C	1.048934	0.194531	0.194793
C148	C	1.298934	0.444531	0.444793
C149	C	0.730687	-0.354686	-0.354314
C150	C	0.980687	-0.104686	-0.104314
C151	C	1.230687	0.145314	0.145686
C152	C	1.480687	0.395314	0.395686
C153	C	0.416507	-0.354774	-0.354238
C154	C	0.666507	-0.104774	-0.104238
C155	C	0.916507	0.145226	0.145762
C156	C	1.166507	0.395226	0.395762
C157	C	1.266923	-0.354775	-0.354235
C158	C	1.516923	-0.104775	-0.104235
C159	C	1.766923	0.145225	0.145765
C160	C	2.016923	0.395225	0.395765
C161	C	1.349469	-0.354797	-0.354221
C162	C	1.599469	-0.104797	-0.104221
C163	C	1.849469	0.145203	0.145779
C164	C	2.099469	0.395203	0.395779
C165	C	1.073263	-0.354673	-0.546219
C166	C	1.323263	-0.104673	-0.296219
C167	C	1.573263	0.145327	-0.046219
C168	C	1.823263	0.395327	0.203781
C169	C	1.073282	-0.354652	-0.628018
C170	C	1.323282	-0.104652	-0.378018
C171	C	1.573282	0.145348	-0.128018
C172	C	1.823282	0.395348	0.121982
C173	C	1.073316	-0.162771	-0.354318
C174	C	1.323316	0.087229	-0.104318
C175	C	1.573316	0.337229	0.145682
C176	C	1.823316	0.587229	0.395682
C177	C	1.073358	-0.080972	-0.354340
C178	C	1.323358	0.169028	-0.104340
C179	C	1.573358	0.419028	0.145660
C180	C	1.823358	0.669028	0.395660
C181	C	1.120822	-0.307551	-0.816218
C182	C	1.370822	-0.057551	-0.566218
C183	C	1.620822	0.192449	-0.316218
C184	C	1.870822	0.442449	-0.066218
C185	C	1.120831	-0.307529	-0.893077
C186	C	1.370831	-0.057529	-0.643077
C187	C	1.620831	0.192471	-0.393077
C188	C	1.870831	0.442471	-0.143077
C189	C	1.025794	-0.401639	-0.893056
C190	C	1.275794	-0.151639	-0.643056
C191	C	1.525794	0.098361	-0.393056
C192	C	1.775794	0.348361	-0.143056
C193	C	1.025782	-0.401656	-0.816198
C194	C	1.275782	-0.151656	-0.566198
C195	C	1.525782	0.098344	-0.316198
C196	C	1.775782	0.348344	-0.066198
C197	C	1.073300	-0.354613	-0.777781
C198	C	1.323300	-0.104613	-0.527781
C199	C	1.573300	0.145387	-0.277781
C200	C	1.823300	0.395387	-0.027781
C201	C	1.073321	-0.354574	-0.931498
C202	C	1.323321	-0.104574	-0.681498
C203	C	1.573321	0.145426	-0.431498
C204	C	1.823321	0.395426	-0.181498
C205	C	1.073330	-0.354551	-1.014831
C206	C	1.323330	-0.104551	-0.764831
C207	C	1.573330	0.145449	-0.514831
C208	C	1.823330	0.395449	-0.264831
C209	C	1.073290	-0.354635	-0.694442
C210	C	1.323290	-0.104635	-0.444442
C211	C	1.573290	0.145365	-0.194442
C212	C	1.823290	0.395365	0.055558
C213	C	1.073215	-0.354721	-0.163060
C214	C	1.323215	-0.104721	0.086940
C215	C	1.573215	0.145279	0.336940
C216	C	1.823215	0.395279	0.586940
C217	C	1.073340	-0.354536	-0.081261
C218	C	1.323340	-0.104536	0.168739
C219	C	1.573340	0.145464	0.418739
C220	C	1.823340	0.395464	0.668739
H221	H	1.159457	-0.784642	-0.268942
H222	H	1.409457	-0.534642	-0.018942
H223	H	1.659457	-0.284642	0.231058
H224	H	1.909457	-0.034642	0.481058
H225	H	1.159513	-0.269244	-0.784941
H226	H	1.409513	-0.019244	-0.534941
H227	H	1.659513	0.230756	-0.284941
H228	H	1.909513	0.480756	-0.034941
H229	H	0.987108	-0.439941	-0.924344
H230	H	1.237108	-0.189941	-0.674344
H231	H	1.487108	0.060059	-0.424344
H232	H	1.737108	0.310059	-0.174344
F233	F	0.975196	-0.451745	-0.775289
F234	F	1.225196	-0.201745	-0.525289
F235	F	1.475196	0.048255	-0.275289
F236	F	1.725196	0.298255	-0.025289
F237	F	1.171404	-0.933680	-0.257220
F238	F	1.421404	-0.683680	-0.007220
F239	F	1.671404	-0.433680	0.242780
F240	F	1.921404	-0.183680	0.492780
H241	H	0.987078	-0.924065	-0.439638
H242	H	1.237078	-0.674065	-0.189638
H243	H	1.487078	-0.424065	0.060362
H244	H	1.737078	-0.174065	0.310362
H245	H	0.987017	-0.784622	-0.439616
H246	H	1.237017	-0.534622	-0.189616
H247	H	1.487017	-0.284622	0.060384
H248	H	1.737017	-0.034622	0.310384
H249	H	0.619944	-0.445526	-0.444894
H250	H	0.869944	-0.195526	-0.194894
H251	H	1.119944	0.054474	0.055106
H252	H	1.369944	0.304474	0.305106
H253	H	0.620034	-0.387771	-0.230343
H254	H	0.870034	-0.137771	0.019657
H255	H	1.120034	0.112229	0.269657
H256	H	1.370034	0.362229	0.519657
H257	H	1.159527	-0.269206	-0.924368
H258	H	1.409527	-0.019206	-0.674368
H259	H	1.659527	0.230794	-0.424368
H260	H	1.909527	0.480794	-0.174368
F261	F	0.520552	-0.496045	-0.316171
F262	F	0.770552	-0.246045	-0.066171
F263	F	1.020552	0.003955	0.183829
F264	F	1.270552	0.253955	0.433829
F265	F	0.626509	-0.213357	-0.392532
F266	F	0.876509	0.036643	-0.142532
F267	F	1.126509	0.286643	0.107468
F268	F	1.376509	0.536643	0.357468
F269	F	0.520503	-0.317071	-0.495700
F270	F	0.770503	-0.067071	-0.245700
F271	F	1.020503	0.182929	0.004300
F272	F	1.270503	0.432929	0.254300
H273	H	0.527405	-0.263796	-0.263702
H274	H	0.777405	-0.013796	-0.013702
H275	H	1.027405	0.236204	0.236298
H276	H	1.277405	0.486204	0.486298
