data_functionalizedCrystal
_audit_creation_method	'MofGen! by Chris Wilmer'
_symmetry_space_group_name_H-M	'P1'
_symmetry_Int_Tables_number	1
_symmetry_cell_setting	triclinic
loop_
_symmetry_equiv_pos_as_xyz
  x,y,z
_cell_length_a	15.944545
_cell_length_b	17.699083
_cell_length_c	16.776229
_cell_angle_alpha	89.992455
_cell_angle_beta	89.995644
_cell_angle_gamma	83.389594
loop_
_atom_site_label
_atom_site_type_symbol
_atom_site_fract_x
_atom_site_fract_y
_atom_site_fract_z
O1	O	1.114325	0.097593	-0.066238
O2	O	0.869749	0.109633	-0.066251
O3	O	0.998947	-0.006564	-0.066237
O4	O	0.985127	0.213791	-0.066252
O5	O	0.998930	-0.006572	0.066339
O6	O	0.869732	0.109626	0.066325
O7	O	1.114308	0.097586	0.066338
Zn8	Zn	0.992018	0.103605	0.087381
Zn9	Zn	0.992040	0.103614	-0.087294
O10	O	0.985110	0.213783	0.066324
C11	C	0.998443	-0.034766	0.000051
C12	C	0.996958	-0.118786	0.000051
C13	C	0.838448	0.109130	0.000035
C14	C	0.745205	0.107634	0.000031
C15	C	1.072794	-0.167279	0.000056
C16	C	1.071393	-0.246225	0.000049
C17	C	0.994155	-0.276676	0.000043
C18	C	0.918313	-0.228177	0.000035
C19	C	0.919715	-0.149233	0.000036
C20	C	0.912658	-0.546550	0.000028
C21	C	0.911262	-0.625500	0.000029
C22	C	1.064337	-0.643542	0.000041
C23	C	1.065739	-0.564598	0.000042
C24	C	0.989897	-0.516105	0.000031
C25	C	0.991417	-0.430504	0.000037
C26	C	0.992634	-0.362276	0.000042
C27	C	0.474733	0.031140	0.000044
C28	C	0.525229	0.068016	0.065411
C29	C	0.409572	0.102300	0.000045
C30	C	0.525226	0.068042	-0.065299
C31	C	0.574480	0.104917	0.000036
C32	C	0.458840	0.139157	0.065465
C33	C	0.458834	0.139172	-0.065304
C34	C	0.509296	0.176101	0.000079
C35	C	0.314573	0.100790	0.000050
C36	C	0.669476	0.106432	0.000037
C37	C	1.145610	0.098089	0.000050
C38	C	1.238853	0.099585	0.000049
C39	C	0.985614	0.241985	0.000034
C40	C	0.987100	0.326005	0.000029
N41	N	0.992008	0.103598	0.206592
N42	N	0.992056	0.103615	-0.206505
C43	C	1.049234	0.052167	0.248316
C44	C	1.049239	0.052166	0.331768
C45	C	0.992021	0.103601	0.373495
C46	C	0.934789	0.155034	0.331766
C47	C	0.934781	0.155031	0.248315
C48	C	0.934819	0.155049	0.668313
C49	C	0.934833	0.155050	0.751770
C50	C	1.049277	0.052185	0.751766
C51	C	1.049269	0.052181	0.668315
C52	C	0.992035	0.103612	0.626593
C53	C	0.992029	0.103611	0.536105
C54	C	0.992030	0.103606	0.463982
H55	H	1.135690	-0.142493	0.000067
H56	H	1.133147	-0.285706	0.000055
H57	H	1.128634	-0.539809	0.000052
O58	O	0.879268	0.204945	0.627668
C59	C	0.828577	0.250586	0.499113
C60	C	0.891517	0.194018	0.545048
H61	H	0.838470	0.241781	0.432306
H62	H	0.761304	0.240697	0.515472
H63	H	0.839402	0.311201	0.515562
H64	H	0.880770	0.133380	0.528623
H65	H	0.958769	0.203972	0.528684
O66	O	0.879162	0.205066	0.207906
C67	C	0.765611	0.307069	0.216712
C68	C	0.828572	0.250458	0.262573
H69	H	0.724681	0.343772	0.260890
H70	H	0.801746	0.344951	0.177650
H71	H	0.723756	0.274349	0.177635
H72	H	0.870443	0.283115	0.301693
H73	H	0.792385	0.212577	0.301585
H74	H	0.888196	0.196911	0.365745
H75	H	1.126091	-0.683034	0.000047
H76	H	0.850903	-0.507076	0.000019
O77	O	0.836155	-0.654955	-0.000019
C78	C	0.684468	-0.628733	0.000002
C79	C	0.769460	-0.595273	0.000037
H80	H	0.630522	-0.580497	0.000065
H81	H	0.679945	-0.665210	-0.055495
H82	H	0.680020	-0.665273	0.055472
H83	H	0.773965	-0.558699	-0.055395
H84	H	0.773946	-0.558840	0.055570
O85	O	0.843336	-0.257845	-0.000078
C86	C	0.752902	-0.336459	-0.068790
C87	C	0.837852	-0.302927	-0.068755
H88	H	0.748433	-0.372902	-0.124318
H89	H	0.748399	-0.373023	-0.013345
H90	H	0.698953	-0.288226	-0.068757
H91	H	0.891849	-0.351112	-0.068817
H92	H	0.842282	-0.266344	-0.124196
O93	O	0.845993	-0.102200	-0.000074
C94	C	0.715621	-0.062580	-0.068797
C95	C	0.799073	-0.115899	-0.068756
H96	H	0.677671	-0.073625	-0.124329
H97	H	0.677532	-0.073664	-0.013355
H98	H	0.729911	-0.000933	-0.068759
H99	H	0.784859	-0.177565	-0.068822
H100	H	0.837137	-0.104750	-0.124193
O101	O	0.456245	-0.041980	0.000262
C102	C	0.469278	-0.162103	0.069405
C103	C	0.490259	-0.079312	0.069262
H104	H	0.496783	-0.192315	0.125177
H105	H	0.397846	-0.162603	0.068885
H106	H	0.497724	-0.192699	0.014217
H107	H	0.461868	-0.048667	0.124440
H108	H	0.561698	-0.078867	0.069740
H109	H	0.554214	0.037980	-0.120558
O110	O	0.527529	0.249296	0.000010
C111	C	0.513054	0.369866	-0.068303
C112	C	0.492324	0.286999	-0.068319
H113	H	0.484616	0.400369	-0.123549
H114	H	0.485479	0.400112	-0.012579
H115	H	0.584474	0.370446	-0.068792
H116	H	0.420917	0.286349	-0.067859
H117	H	0.519958	0.256788	-0.124039
H118	H	0.554215	0.037960	0.120677
H119	H	0.429960	0.169184	0.120787
H120	H	0.429831	0.169202	-0.120572
O121	O	1.104919	0.002186	0.372174
C122	C	1.218424	-0.099857	0.363363
C123	C	1.155418	-0.043285	0.317505
H124	H	1.259257	-0.136646	0.319184
H125	H	1.260369	-0.067183	0.402394
H126	H	1.182242	-0.137661	0.402471
H127	H	1.191532	-0.005467	0.278354
H128	H	1.113474	-0.076007	0.278525
O129	O	1.104882	0.002144	0.627906
C130	C	1.218429	-0.099863	0.636711
C131	C	1.155483	-0.043245	0.682572
H132	H	1.259368	-0.136564	0.680889
H133	H	1.182283	-0.137746	0.597678
H134	H	1.260278	-0.067149	0.597605
H135	H	1.113618	-0.075897	0.721721
H136	H	1.191681	-0.005362	0.721555
O137	O	0.879162	0.205041	0.792182
C138	C	0.765665	0.307093	0.783384
C139	C	0.828648	0.250513	0.737519
H140	H	0.724820	0.343883	0.739210
H141	H	0.723728	0.274425	0.822447
H142	H	0.801865	0.344895	0.822462
H143	H	0.792517	0.212697	0.698399
H144	H	0.870584	0.283228	0.698507
H145	H	1.095831	0.010286	0.214347
H146	H	1.095879	0.010305	0.785744
