data_functionalizedCrystal
_audit_creation_method	'MofGen! by Chris Wilmer'
_symmetry_space_group_name_H-M	'P1'
_symmetry_Int_Tables_number	1
_symmetry_cell_setting	triclinic
loop_
_symmetry_equiv_pos_as_xyz
  x,y,z
_cell_length_a	14.519709
_cell_length_b	12.996460
_cell_length_c	17.699083
_cell_angle_alpha	89.992964
_cell_angle_beta	96.518420
_cell_angle_gamma	89.999966
loop_
_atom_site_label
_atom_site_type_symbol
_atom_site_fract_x
_atom_site_fract_y
_atom_site_fract_z
O1	O	1.223447	0.085435	-0.099215
O2	O	1.556780	0.418768	0.234118
O3	O	1.890114	0.752102	0.567452
O4	O	0.954920	0.085467	-0.110899
O5	O	1.288254	0.418800	0.222435
O6	O	1.621587	0.752133	0.555768
O7	O	1.096770	0.085441	0.005111
O8	O	1.430104	0.418774	0.338444
O9	O	1.763437	0.752108	0.671777
O10	O	1.081597	0.085461	-0.215224
O11	O	1.414931	0.418794	0.118109
O12	O	1.748264	0.752127	0.451442
O13	O	1.096756	-0.085693	0.005117
O14	O	1.430089	0.247640	0.338450
O15	O	1.763422	0.580974	0.671784
O16	O	0.954906	-0.085667	-0.110892
O17	O	1.288239	0.247666	0.222441
O18	O	1.621572	0.581000	0.555774
O19	O	1.223432	-0.085699	-0.099209
O20	O	1.556766	0.247635	0.234125
O21	O	1.890099	0.580968	0.567458
Cu22	Cu	1.089168	-0.101309	-0.105050
Cu23	Cu	1.422501	0.232024	0.228283
Cu24	Cu	1.755834	0.565358	0.561617
Cu25	Cu	1.089185	0.101077	-0.105057
Cu26	Cu	1.422518	0.434410	0.228276
Cu27	Cu	1.755852	0.767743	0.561609
O28	O	1.081583	-0.085673	-0.215218
O29	O	1.414916	0.247660	0.118115
O30	O	1.748249	0.580994	0.451449
C31	C	0.920556	-0.000096	-0.110351
C32	C	1.253889	0.333237	0.222982
C33	C	1.587222	0.666570	0.556316
C34	C	0.818181	-0.000084	-0.108719
C35	C	1.151515	0.333249	0.224614
C36	C	1.484848	0.666582	0.557947
C37	C	0.443311	-0.000132	-0.102712
C38	C	0.776644	0.333202	0.230621
C39	C	1.109978	0.666535	0.563954
C40	C	0.547612	-0.000118	-0.104380
C41	C	0.880945	0.333215	0.228953
C42	C	1.214279	0.666548	0.562286
C43	C	0.630743	-0.000107	-0.105716
C44	C	0.964076	0.333226	0.227618
C45	C	1.297410	0.666560	0.560951
C46	C	0.735050	-0.000096	-0.107384
C47	C	1.068384	0.333238	0.225949
C48	C	1.401717	0.666571	0.559283
N49	N	1.089162	-0.243656	-0.105044
N50	N	1.422496	0.089677	0.228289
N51	N	1.755829	0.423011	0.561623
C52	C	1.089184	-0.663470	-0.105058
C53	C	1.422517	-0.330137	0.228275
C54	C	1.755850	0.003196	0.561608
C55	C	1.089175	-0.546665	-0.105057
C56	C	1.422508	-0.213332	0.228277
C57	C	1.755842	0.120002	0.561610
C58	C	1.089173	-0.453567	-0.105052
C59	C	1.422507	-0.120233	0.228282
C60	C	1.755840	0.213100	0.561615
C61	C	1.089164	-0.336754	-0.105049
C62	C	1.422497	-0.003421	0.228284
C63	C	1.755830	0.329912	0.561618
C64	C	1.257797	-0.000134	-0.099756
C65	C	1.591130	0.333200	0.233577
C66	C	1.924464	0.666533	0.566910
C67	C	1.360171	-0.000139	-0.101388
C68	C	1.693505	0.333195	0.231945
C69	C	2.026838	0.666528	0.565279
C70	C	1.096219	-0.000126	0.033312
C71	C	1.429553	0.333207	0.366646
C72	C	1.762886	0.666541	0.699979
C73	C	1.094588	-0.000126	0.117335
C74	C	1.427922	0.333207	0.450668
C75	C	1.761255	0.666540	0.784002
N76	N	1.089198	0.243424	-0.105057
N77	N	1.422531	0.576757	0.228276
N78	N	1.755865	0.910090	0.561609
C79	C	1.082134	-0.000104	-0.243420
C80	C	1.415467	0.333230	0.089914
C81	C	1.748800	0.666563	0.423247
C82	C	1.083765	-0.000097	-0.327442
C83	C	1.417098	0.333237	0.005891
C84	C	1.750431	0.666570	0.339224
C85	C	1.177851	-0.000138	0.165718
C86	C	1.511184	0.333196	0.499051
C87	C	1.844518	0.666529	0.832384
C88	C	1.176313	-0.000128	0.244665
C89	C	1.509646	0.333205	0.577999
C90	C	1.842980	0.666538	0.911332
C91	C	1.091511	-0.000115	0.275229
C92	C	1.424844	0.333218	0.608562
C93	C	1.758178	0.666552	0.941896
C94	C	1.008242	-0.000101	0.226840
C95	C	1.341575	0.333233	0.560174
C96	C	1.674909	0.666566	0.893507
C97	C	1.009781	-0.000103	0.147894
C98	C	1.343114	0.333231	0.481227
C99	C	1.676448	0.666564	0.814561
C100	C	1.002033	-0.000092	0.545221
C101	C	1.335367	0.333242	0.878554
C102	C	1.668700	0.666575	1.211888
C103	C	1.000501	-0.000093	0.624173
C104	C	1.333834	0.333240	0.957507
C105	C	1.667167	0.666574	1.290840
C106	C	1.168566	-0.000117	0.641992
C107	C	1.501899	0.333216	0.975326
C108	C	1.835232	0.666549	1.308659
C109	C	1.170105	-0.000119	0.563046
C110	C	1.503438	0.333214	0.896380
C111	C	1.836771	0.666547	1.229713
C112	C	1.086836	-0.000099	0.514664
C113	C	1.420169	0.333234	0.847998
C114	C	1.753502	0.666567	1.181331
C115	C	1.088505	-0.000108	0.429060
C116	C	1.421838	0.333226	0.762394
C117	C	1.755171	0.666559	1.095727
C118	C	1.089841	-0.000114	0.360831
C119	C	1.423175	0.333219	0.694165
C120	C	1.756508	0.666552	1.027498
H121	H	1.246907	-0.000155	0.140840
H122	H	1.580240	0.333179	0.474173
H123	H	1.913573	0.666512	0.807506
H124	H	1.244114	-0.000140	0.284056
H125	H	1.577447	0.333194	0.617389
H126	H	1.910781	0.666527	0.950723
C127	C	0.918195	-0.000090	0.094670
C128	C	1.251528	0.333243	0.428003
C129	C	1.584861	0.666577	0.761337
H130	H	0.931256	-0.000082	0.043275
H131	H	1.264589	0.333251	0.376609
H132	H	1.597922	0.666585	0.709942
H133	H	0.883404	-0.059761	0.103949
H134	H	1.216737	0.273573	0.437282
H135	H	1.550071	0.606906	0.770615
H136	H	0.883425	0.059603	0.103943
H137	H	1.216759	0.392936	0.437276
H138	H	1.550092	0.726270	0.770610
C139	C	1.263386	-0.000129	0.529430
C140	C	1.596719	0.333204	0.862764
C141	C	1.930053	0.666537	1.196097
H142	H	1.312756	-0.000124	0.569553
H143	H	1.646089	0.333209	0.902886
H144	H	1.979422	0.666542	1.236220
H145	H	1.267478	-0.059806	0.499007
H146	H	1.600811	0.273527	0.832341
H147	H	1.934144	0.606861	1.165674
H148	H	1.267479	0.059558	0.499001
H149	H	1.600813	0.392891	0.832334
H150	H	1.934146	0.726224	1.165667
C151	C	0.914959	-0.000078	0.260454
C152	C	1.248293	0.333255	0.593788
C153	C	1.581626	0.666588	0.927121
H154	H	0.865591	-0.000060	0.220330
H155	H	1.198925	0.333273	0.553664
H156	H	1.532258	0.666606	0.886997
H157	H	0.910854	-0.059753	0.290887
H158	H	1.244188	0.273580	0.624221
H159	H	1.577521	0.606913	0.957554
H160	H	0.910876	0.059611	0.290873
H161	H	1.244210	0.392944	0.624207
H162	H	1.577543	0.726277	0.957540
C163	C	1.260161	-0.000122	0.695214
C164	C	1.593494	0.333211	1.028548
C165	C	1.926828	0.666544	1.361881
H166	H	1.247104	-0.000107	0.746610
H167	H	1.580437	0.333227	1.079943
H168	H	1.913771	0.666560	1.413277
H169	H	1.294937	-0.059805	0.685945
H170	H	1.628270	0.273528	1.019279
H171	H	1.961603	0.606862	1.352612
H172	H	1.294943	0.059559	0.685928
H173	H	1.628277	0.392892	1.019261
H174	H	1.961610	0.726225	1.352595
C175	C	0.907215	-0.000065	0.657792
C176	C	1.240548	0.333269	0.991125
C177	C	1.573881	0.666602	1.324458
H178	H	0.857842	-0.000042	0.617671
H179	H	1.191176	0.333292	0.951004
H180	H	1.524509	0.666625	1.284338
H181	H	0.903109	-0.059740	0.688224
H182	H	1.236442	0.273593	1.021557
H183	H	1.569776	0.606926	1.354891
H184	H	0.903139	0.059623	0.688213
H185	H	1.236473	0.392957	1.021546
H186	H	1.569806	0.726290	1.354880
H187	H	0.934231	-0.000076	0.505837
H188	H	1.267564	0.333257	0.839171
H189	H	1.600897	0.666591	1.172504
