data_functionalizedCrystal
_audit_creation_method	'MofGen! by Chris Wilmer'
_symmetry_space_group_name_H-M	'P1'
_symmetry_Int_Tables_number	1
_symmetry_cell_setting	triclinic
loop_
_symmetry_equiv_pos_as_xyz
  x,y,z
_cell_length_a	11.169417
_cell_length_b	21.395361
_cell_length_c	21.395355
_cell_angle_alpha	90.019049
_cell_angle_beta	89.978801
_cell_angle_gamma	89.968588
loop_
_atom_site_label
_atom_site_type_symbol
_atom_site_fract_x
_atom_site_fract_y
_atom_site_fract_z
Zn1	Zn	1.834810	0.249496	-0.354203
Zn2	Zn	2.334810	0.749496	0.145797
Zn3	Zn	1.834624	0.354256	-0.249425
Zn4	Zn	2.334624	0.854256	0.250575
Zn5	Zn	1.634091	0.249498	-0.249446
Zn6	Zn	2.134091	0.749498	0.250554
Zn7	Zn	1.634033	0.354242	-0.354171
Zn8	Zn	2.134033	0.854242	0.145829
O9	O	1.734389	0.301873	-0.301811
O10	O	2.234389	0.801873	0.198189
O11	O	2.002735	0.263398	-0.340308
O12	O	2.502735	0.763398	0.159692
O13	O	1.807969	0.340367	-0.161749
O14	O	2.307969	0.840367	0.338251
O15	O	1.660819	0.161820	-0.263365
O16	O	2.160819	0.661820	0.236635
O17	O	2.002598	0.340365	-0.263328
O18	O	2.502598	0.840365	0.236672
O19	O	1.808287	0.161819	-0.340329
O20	O	2.308287	0.661819	0.159671
O21	O	1.660639	0.263401	-0.161765
O22	O	2.160639	0.763401	0.338235
O23	O	1.466134	0.263387	-0.263333
O24	O	1.966134	0.763387	0.236667
O25	O	1.660720	0.340340	-0.441853
O26	O	2.160720	0.840340	0.058147
O27	O	1.466091	0.340342	-0.340274
O28	O	1.966091	0.840342	0.159726
O29	O	1.808230	0.263384	-0.441877
O30	O	2.308230	0.763384	0.058123
O31	O	1.807913	0.441932	-0.263297
O32	O	2.307913	0.941932	0.236703
O33	O	1.660539	0.441922	-0.340254
O34	O	2.160539	0.941922	0.159746
C35	C	1.422565	0.301864	-0.301803
C36	C	1.922565	0.801864	0.198197
C37	C	1.289165	0.301875	-0.301814
C38	C	1.789165	0.801875	0.198186
C39	C	1.734232	0.464661	-0.301783
C40	C	2.234232	0.964661	0.198217
C41	C	1.734274	0.534302	-0.301792
C42	C	2.234274	1.034302	0.198208
C43	C	1.734489	0.301860	-0.465234
C44	C	2.234489	0.801860	0.034766
C45	C	1.734532	0.301855	-0.534876
C46	C	2.234532	0.801855	-0.034876
C47	C	2.047432	0.301883	-0.301820
C48	C	2.547432	0.801883	0.198180
C49	C	2.180832	0.301887	-0.301823
C50	C	2.680832	0.801887	0.198177
C51	C	1.811080	0.567000	-0.261763
C52	C	2.311080	1.067000	0.238237
C53	C	1.811136	0.632435	-0.261780
C54	C	2.311136	1.132435	0.238220
C55	C	1.734365	0.665170	-0.301819
C56	C	2.234365	1.165170	0.198181
C57	C	1.657554	0.632465	-0.341856
C58	C	2.157554	1.132465	0.158144
C59	C	1.657509	0.567030	-0.341842
C60	C	2.157509	1.067030	0.158158
C61	C	1.626302	0.768886	-0.306737
C62	C	2.126302	1.268886	0.193263
C63	C	1.626345	0.834319	-0.306746
C64	C	2.126345	1.334319	0.193254
C65	C	1.734506	0.866991	-0.301865
C66	C	2.234506	1.366991	0.198135
C67	C	1.842627	0.834222	-0.296961
C68	C	2.342627	1.334222	0.203039
C69	C	1.842582	0.768788	-0.296947
C70	C	2.342582	1.268788	0.203053
C71	C	1.734407	0.736123	-0.301839
C72	C	2.234407	1.236123	0.198161
C73	C	1.811379	0.970641	-0.261852
C74	C	2.311379	1.470641	0.238148
C75	C	1.811438	1.036078	-0.261873
C76	C	2.311438	1.536078	0.238127
C77	C	1.657845	1.036106	-0.341946
C78	C	2.157845	1.536106	0.158054
C79	C	1.657798	0.970671	-0.341928
C80	C	2.157798	1.470671	0.158072
C81	C	1.734563	0.937942	-0.301878
C82	C	2.234563	1.437942	0.198122
C83	C	1.734582	1.138450	-0.301864
C84	C	2.234582	1.638450	0.198136
C85	C	1.734667	1.068809	-0.301914
C86	C	2.234667	1.568809	0.198086
C87	C	1.811337	0.261782	-0.567602
C88	C	2.311337	0.761782	-0.067602
C89	C	1.811335	0.261755	-0.633038
C90	C	2.311335	0.761755	-0.133038
C91	C	1.734541	0.301812	-0.665744
C92	C	2.234541	0.801812	-0.165744
C93	C	1.657721	0.341888	-0.633010
C94	C	2.157721	0.841888	-0.133010
C95	C	1.657716	0.341909	-0.567576
C96	C	2.157716	0.841909	-0.067576
C97	C	1.725010	0.358228	-0.769409
C98	C	2.225010	0.858228	-0.269409
C99	C	1.725023	0.358207	-0.834842
C100	C	2.225023	0.858207	-0.334842
C101	C	1.734548	0.301746	-0.867565
C102	C	2.234548	0.801746	-0.367565
C103	C	1.744086	0.245303	-0.834846
C104	C	2.244086	0.745303	-0.334846
C105	C	1.744081	0.245325	-0.769412
C106	C	2.244081	0.745325	-0.269412
C107	C	1.734537	0.301793	-0.736697
C108	C	2.234537	0.801793	-0.236697
C109	C	1.811356	0.261641	-0.971244
C110	C	2.311356	0.761641	-0.471244
C111	C	1.811346	0.261613	-1.036681
C112	C	2.311346	0.761613	-0.536681
C113	C	1.657738	0.341751	-1.036652
C114	C	2.157738	0.841751	-0.536652
C115	C	1.657741	0.341773	-0.971216
C116	C	2.157741	0.841773	-0.471216
C117	C	1.734557	0.301719	-0.938516
C118	C	2.234557	0.801719	-0.438516
C119	C	1.734359	0.301841	-0.139024
C120	C	2.234359	0.801841	0.360976
C121	C	1.734549	0.301669	-0.069383
C122	C	2.234549	0.801669	0.430617
H123	H	1.873590	0.540354	-0.229154
H124	H	2.373590	1.040354	0.270846
F125	F	1.957749	0.868988	-0.291760
F126	F	2.457749	1.368988	0.208240
F127	F	1.575966	0.384562	-0.532745
F128	F	2.075966	0.884562	-0.032745
F129	F	1.714882	0.418278	-0.869658
F130	F	2.214882	0.918278	-0.369658
F131	F	1.511275	0.869189	-0.311963
F132	F	2.011275	1.369189	0.188037
H133	H	1.873685	0.659063	-0.229184
H134	H	2.373685	1.159063	0.270816
F135	F	1.957648	0.733915	-0.291733
F136	F	2.457648	1.233915	0.208267
F137	F	1.575998	0.384427	-0.936385
F138	F	2.075998	0.884427	-0.436385
F139	F	1.893197	1.070877	-0.219271
F140	F	2.393197	1.570877	0.280729
F141	F	1.576146	1.070941	-0.384562
F142	F	2.076146	1.570941	0.115438
H143	H	1.873888	0.228977	-1.063325
H144	H	2.373888	0.728977	-0.563325
H145	H	1.595250	0.944046	-0.374521
H146	H	2.095250	1.444046	0.125479
H147	H	1.873877	0.229120	-0.659689
H148	H	2.373877	0.729120	-0.159689
F149	F	1.754229	0.185208	-0.869667
F150	F	2.254229	0.685208	-0.369667
F151	F	1.714898	0.418327	-0.734590
F152	F	2.214898	0.918327	-0.234590
H153	H	1.595198	0.374360	-1.063281
H154	H	2.095198	0.874360	-0.563281
H155	H	1.873897	0.229023	-0.944618
H156	H	2.373897	0.729023	-0.444618
F157	F	1.575987	0.384517	-0.667819
F158	F	2.075987	0.884517	-0.167819
F159	F	1.893078	0.935807	-0.219227
F160	F	2.393078	1.435807	0.280773
H161	H	1.538217	0.742291	-0.310715
H162	H	2.038217	1.242291	0.189285
H163	H	1.594964	0.540407	-0.374440
H164	H	2.094964	1.040407	0.125560
F165	F	1.893086	0.219150	-0.532804
F166	F	2.393086	0.719150	-0.032804
F167	F	1.575854	0.667304	-0.384471
F168	F	2.075854	1.167304	0.115529
H169	H	1.751844	0.199367	-0.742776
H170	H	2.251844	0.699367	-0.242776
