data_functionalizedCrystal
_audit_creation_method	'MofGen! by Chris Wilmer'
_symmetry_space_group_name_H-M	'P1'
_symmetry_Int_Tables_number	1
_symmetry_cell_setting	triclinic
loop_
_symmetry_equiv_pos_as_xyz
  x,y,z
_cell_length_a	10.540539
_cell_length_b	10.489741
_cell_length_c	9.616153
_cell_angle_alpha	89.998052
_cell_angle_beta	89.995174
_cell_angle_gamma	84.532333
loop_
_atom_site_label
_atom_site_type_symbol
_atom_site_fract_x
_atom_site_fract_y
_atom_site_fract_z
O1	O	1.685914	0.179760	-0.115579
O2	O	1.316503	0.196697	-0.115596
O3	O	1.509614	0.002629	-0.115579
O4	O	1.492802	0.373827	-0.115596
O5	O	1.509587	0.002633	0.115712
O6	O	1.316476	0.196701	0.115695
O7	O	1.685887	0.179764	0.115712
Zn8	Zn	1.501177	0.188233	0.152426
Zn9	Zn	1.501212	0.188228	-0.152310
O10	O	1.492776	0.373831	0.115695
C11	C	1.269186	0.195429	0.000047
C12	C	1.128238	0.191629	0.000041
C13	C	0.944793	0.046011	0.000588
C14	C	1.091412	0.049864	0.000052
C15	C	1.066588	0.259850	-0.132036
C16	C	0.920043	0.255011	-0.132132
C17	C	0.919525	0.257900	0.130890
C18	C	1.066507	0.259206	0.132621
C19	C	1.508331	-0.044900	0.000066
C20	C	1.504532	-0.186529	0.000063
C21	C	1.381661	-0.254654	0.000047
C22	C	1.439691	-0.346782	0.114088
C23	C	1.439746	-0.346760	-0.113947
C24	C	1.562613	-0.276791	0.114199
C25	C	1.562651	-0.276760	-0.113939
C26	C	1.620770	-0.368860	0.000130
C27	C	1.733203	0.181032	0.000066
C28	C	1.874152	0.184832	0.000063
C29	C	1.494059	0.421361	0.000047
C30	C	1.497858	0.562990	0.000041
N31	N	1.501163	0.188236	0.360401
N32	N	1.501237	0.188215	-0.360285
C33	C	1.397545	0.291701	0.580761
C34	C	1.397773	0.292088	0.419594
C35	C	1.633890	0.218515	0.418855
C36	C	1.633325	0.219248	0.580073
C37	C	1.473374	0.054153	0.580317
C38	C	1.470328	0.055022	0.419090
H39	H	0.891838	0.204586	-0.230856
H40	H	0.872087	0.356966	-0.138131
H41	H	1.109182	0.212456	-0.230326
C42	C	1.244296	-0.330458	0.244026
C43	C	1.369498	-0.388648	0.244234
H44	H	1.200957	-0.356308	0.324365
H45	H	1.245535	-0.240039	0.244540
H46	H	1.201481	-0.355583	0.163037
H47	H	1.412316	-0.363516	0.325219
H48	H	1.368265	-0.479087	0.243733
C49	C	1.258824	0.009443	0.481789
C50	C	1.338518	0.024022	0.367525
H51	H	1.177449	-0.009687	0.449946
H52	H	1.294971	-0.058484	0.538844
H53	H	1.249988	0.086623	0.534057
H54	H	1.347361	-0.053161	0.315262
H55	H	1.302362	0.091954	0.310447
H56	H	1.658799	0.315218	0.378461
H57	H	1.614546	-0.245964	0.210720
H58	H	1.378634	0.025335	0.621051
C59	C	1.857650	0.149205	0.420999
C60	C	1.740610	0.119552	0.367091
H61	H	1.923530	0.088103	0.389045
H62	H	1.874203	0.232232	0.390813
H63	H	1.854597	0.147367	0.519702
H64	H	1.743660	0.121399	0.268387
H65	H	1.724054	0.036503	0.397269
H66	H	1.721885	-0.418297	0.000198
H67	H	1.614607	-0.245724	-0.210353
C68	C	1.639182	-0.108598	0.517486
C69	C	1.575424	-0.049836	0.631786
H70	H	1.702189	-0.172782	0.549270
H71	H	1.579845	-0.146583	0.460088
H72	H	1.678772	-0.046278	0.465595
H73	H	1.535826	-0.112154	0.683672
H74	H	1.634771	-0.011851	0.689207
H75	H	1.540845	-0.025687	0.378802
H76	H	1.280637	-0.204991	0.000157
H77	H	1.133162	-0.004197	-0.094786
H78	H	1.387752	-0.377720	-0.210369
C79	C	1.183949	0.252313	0.479494
C80	C	1.264637	0.267519	0.366234
H81	H	1.101750	0.237157	0.446554
H82	H	1.217674	0.181643	0.534173
H83	H	1.177685	0.327838	0.534554
H84	H	1.270908	0.191989	0.311179
H85	H	1.230903	0.338195	0.311532
C86	C	1.315064	0.476561	0.711074
C87	C	1.421409	0.425214	0.635422
H88	H	1.329807	0.558981	0.744827
H89	H	1.242203	0.483569	0.652467
H90	H	1.301077	0.421963	0.787252
H91	H	1.435391	0.479807	0.559238
H92	H	1.494292	0.418213	0.694032
C93	C	1.325504	0.516164	0.416503
C94	C	1.421962	0.426357	0.367501
H95	H	1.340449	0.599059	0.384351
H96	H	1.245372	0.494913	0.383109
H97	H	1.325291	0.515440	0.515286
H98	H	1.422170	0.427074	0.268718
H99	H	1.502116	0.447614	0.400888
C100	C	1.787044	0.374077	0.581649
C101	C	1.666213	0.351287	0.630810
H102	H	1.807341	0.455599	0.612959
H103	H	1.848646	0.309666	0.615764
H104	H	1.787081	0.372441	0.482879
H105	H	1.666178	0.352913	0.729582
H106	H	1.604595	0.415714	0.596702
H107	H	1.134009	-0.003815	0.094731
H108	H	0.916190	-0.009992	0.095308
H109	H	0.914590	-0.009758	-0.093600
H110	H	1.088954	0.363958	-0.136955
H111	H	0.887962	0.212023	0.231003
H112	H	1.107452	0.209368	0.230331
H113	H	1.298618	0.273762	0.619569
H114	H	1.090745	0.362562	0.140590
H115	H	0.872310	0.360296	0.131777
H116	H	1.712959	0.146910	0.619068
