data_functionalizedCrystal
_audit_creation_method	'MofGen! by Chris Wilmer'
_symmetry_space_group_name_H-M	'P1'
_symmetry_Int_Tables_number	1
_symmetry_cell_setting	triclinic
loop_
_symmetry_equiv_pos_as_xyz
  x,y,z
_cell_length_a	19.188930
_cell_length_b	19.188924
_cell_length_c	13.448316
_cell_angle_alpha	89.991325
_cell_angle_beta	89.979356
_cell_angle_gamma	83.143372
loop_
_atom_site_label
_atom_site_type_symbol
_atom_site_fract_x
_atom_site_fract_y
_atom_site_fract_z
O1	O	0.926145	0.087170	-0.083016
O2	O	0.722833	0.098904	-0.082948
O3	O	0.830359	-0.008619	-0.082972
O4	O	0.818619	0.194693	-0.082992
O5	O	0.830345	-0.008626	0.082411
O6	O	0.722820	0.098897	0.082435
O7	O	0.926131	0.087163	0.082368
Cu8	Cu	0.824474	0.093030	0.097502
Cu9	Cu	0.824490	0.093037	-0.098083
O10	O	0.818606	0.194686	0.082392
C11	C	0.696815	0.098521	-0.000248
C12	C	0.619311	0.097380	-0.000222
C13	C	0.574386	0.160471	-0.000243
C14	C	0.501562	0.159399	-0.000254
C15	C	0.473667	0.095233	-0.000263
C16	C	0.518602	0.032134	-0.000236
C17	C	0.591424	0.033207	-0.000215
N18	N	0.365692	0.046188	-0.056586
N19	N	0.296514	0.045173	-0.056608
C20	C	0.254258	0.091995	-0.000324
N21	N	0.283793	0.139881	0.055971
N22	N	0.352978	0.140899	0.055988
C23	C	0.394704	0.094062	-0.000285
C24	C	0.130368	0.153928	-0.000356
C25	C	0.057543	0.152854	-0.000360
C26	C	0.074585	0.025586	-0.000352
C27	C	0.147409	0.026663	-0.000337
C28	C	0.175295	0.090835	-0.000344
C29	C	0.829973	-0.034634	-0.000279
C30	C	0.828834	-0.112138	-0.000276
C31	C	0.828310	-0.148534	-0.090427
C32	C	0.827230	-0.221356	-0.090434
C33	C	0.826688	-0.257783	-0.000286
C34	C	0.827208	-0.221378	0.089877
C35	C	0.828281	-0.148556	0.089882
N36	N	0.864730	-0.377449	0.066797
N37	N	0.863713	-0.446627	0.066787
C38	C	0.823454	-0.477192	-0.000294
N39	N	0.784260	-0.435967	-0.067379
N40	N	0.785281	-0.366782	-0.067372
C41	C	0.825524	-0.336746	-0.000281
C42	C	0.821758	-0.592550	-0.090459
C43	C	0.820674	-0.665373	-0.090462
C44	C	0.820659	-0.665395	0.089852
C45	C	0.821736	-0.592572	0.089852
C46	C	0.822289	-0.556154	-0.000306
C47	C	0.952149	0.087546	-0.000335
C48	C	1.029654	0.088687	-0.000368
C49	C	0.818992	0.220700	-0.000303
C50	C	0.820131	0.298205	-0.000313
N51	N	0.824468	0.093024	0.235067
N52	N	0.824502	0.093038	-0.235647
C53	C	0.872095	0.045432	0.287097
C54	C	0.872100	0.045431	0.391200
C55	C	0.824480	0.093026	0.443271
C56	C	0.776848	0.140620	0.391234
C57	C	0.776841	0.140617	0.287133
C58	C	0.776867	0.140625	0.608214
C59	C	0.776875	0.140629	0.712323
C60	C	0.872126	0.045439	0.712281
C61	C	0.872119	0.045436	0.608180
C62	C	0.824488	0.093031	0.556150
H63	H	0.495885	-0.020111	-0.000257
N64	N	0.820095	-0.702604	0.181929
N65	N	0.819132	-0.767622	0.181915
H66	H	0.818730	-0.793905	0.246947
N67	N	0.602858	0.226026	-0.000253
N68	N	0.562732	0.282354	-0.000273
H69	H	0.582842	0.328653	-0.000281
N70	N	0.920755	-0.003196	0.765438
N71	N	0.920740	-0.003206	0.858385
H72	H	0.955075	-0.037560	0.895932
H73	H	0.826799	-0.250995	-0.163848
N74	N	0.828876	-0.111327	-0.182511
N75	N	0.878681	-0.077276	-0.202638
H76	H	0.879081	-0.050997	-0.267672
N77	N	0.637319	-0.031242	-0.000178
N78	N	0.634867	-0.073968	0.069541
H79	H	0.667282	-0.119486	0.069568
H80	H	0.910875	0.006677	0.244707
N81	N	0.920751	-0.003190	0.444331
N82	N	0.963267	-0.045680	0.397827
H83	H	0.997629	-0.080023	0.435350
H84	H	0.822204	-0.562897	-0.163871
H85	H	0.153075	0.206181	-0.000346
N86	N	0.455671	0.223854	-0.000271
N87	N	0.480579	0.281144	-0.000271
H88	H	0.448171	0.326667	-0.000283
H89	H	0.826765	-0.251041	0.163277
H90	H	0.828705	-0.118923	0.163295
N91	N	0.820160	-0.702551	-0.182559
N92	N	0.868775	-0.749768	-0.202680
H93	H	0.868417	-0.776025	-0.267727
N94	N	0.920801	-0.003148	0.555003
N95	N	0.963346	-0.045619	0.601467
H96	H	0.997740	-0.079922	0.563912
H97	H	0.738097	0.179386	0.754714
H98	H	0.822169	-0.562939	0.163263
N99	N	0.728206	0.189244	0.555081
N100	N	0.685693	0.231738	0.601582
H101	H	0.651329	0.266077	0.564057
H102	H	0.738057	0.179370	0.244771
N103	N	0.011660	0.217310	-0.000370
N104	N	0.036572	0.274598	-0.000373
H105	H	0.004167	0.320122	-0.000380
N106	N	0.046089	-0.039953	-0.000343
N107	N	-0.018931	-0.040904	-0.000352
H108	H	-0.039060	-0.087193	-0.000339
H109	H	0.183988	-0.024713	-0.000325
N110	N	0.728195	0.189227	0.444423
N111	N	0.684933	0.167178	0.502547
H112	H	0.650571	0.201507	0.540112
