data_functionalizedCrystal
_audit_creation_method	'MofGen! by Chris Wilmer'
_symmetry_space_group_name_H-M	'P1'
_symmetry_Int_Tables_number	1
_symmetry_cell_setting	triclinic
loop_
_symmetry_equiv_pos_as_xyz
  x,y,z
_cell_length_a	25.639243
_cell_length_b	25.639239
_cell_length_c	17.077396
_cell_angle_alpha	90.031074
_cell_angle_beta	90.022159
_cell_angle_gamma	90.041410
loop_
_atom_site_label
_atom_site_type_symbol
_atom_site_fract_x
_atom_site_fract_y
_atom_site_fract_z
Zn1	Zn	0.799257	-0.208113	0.443884
Zn2	Zn	0.799171	-0.295550	0.312612
Zn3	Zn	0.711824	-0.208135	0.312626
Zn4	Zn	0.711779	-0.295523	0.443830
O5	O	0.755508	-0.251830	0.378238
O6	O	0.872411	-0.219714	0.426488
O7	O	0.787567	-0.283975	0.202767
O8	O	0.723477	-0.134967	0.330066
O9	O	0.872348	-0.283954	0.330043
O10	O	0.787714	-0.134950	0.426501
O11	O	0.723394	-0.219751	0.202777
O12	O	0.638653	-0.219725	0.330014
O13	O	0.723400	-0.283907	0.553684
O14	O	0.638619	-0.283929	0.426408
O15	O	0.787670	-0.219687	0.553724
O16	O	0.787523	-0.368712	0.329990
O17	O	0.723316	-0.368692	0.426395
C18	C	0.619665	-0.251827	0.378207
C19	C	0.561551	-0.251838	0.378212
C20	C	0.201215	-0.218433	0.428541
C21	C	0.146611	-0.218433	0.428546
O22	O	0.118397	-0.190021	0.471298
N23	N	0.119269	-0.251829	0.378260
C24	C	0.146533	-0.285224	0.327960
O25	O	0.118262	-0.313629	0.285188
C26	C	0.201137	-0.285221	0.327952
C27	C	0.228476	-0.251827	0.378247
C28	C	0.228555	-0.185041	0.478831
C29	C	0.283155	-0.185042	0.478827
C30	C	0.310416	-0.218436	0.428533
C31	C	0.283077	-0.251828	0.378243
C32	C	0.228400	-0.318613	0.277649
C33	C	0.283007	-0.318608	0.277644
C34	C	0.310347	-0.285213	0.327939
C35	C	0.364938	-0.285223	0.327944
N36	N	0.392281	-0.251827	0.378230
C37	C	0.365020	-0.218433	0.428524
C38	C	0.031863	-0.285226	0.327980
C39	C	-0.022740	-0.285232	0.327992
C40	C	-0.022658	-0.218440	0.428576
C41	C	0.031945	-0.218437	0.428568
C42	C	0.059205	-0.251830	0.378266
C43	C	0.479685	-0.218439	0.428513
C44	C	0.534290	-0.218444	0.428506
C45	C	0.534204	-0.285234	0.327919
C46	C	0.479603	-0.285231	0.327928
C47	C	0.452345	-0.251829	0.378227
O48	O	0.393186	-0.313618	0.285212
O49	O	0.393297	-0.190027	0.471282
C50	C	0.755420	-0.387673	0.378202
C51	C	0.755430	-0.445787	0.378213
C52	C	0.789027	-0.806148	0.328126
C53	C	0.789048	-0.860752	0.328136
O54	O	0.817522	-0.888987	0.285511
N55	N	0.755600	-0.888069	0.378290
C56	C	0.722133	-0.860779	0.428443
O57	O	0.693685	-0.889029	0.471104
C58	C	0.722115	-0.806176	0.428435
C59	C	0.755562	-0.778862	0.378272
C60	C	0.822472	-0.778833	0.277967
C61	C	0.822451	-0.724233	0.277956
C62	C	0.788985	-0.696947	0.328103
C63	C	0.755541	-0.724261	0.378261
C64	C	0.688652	-0.778887	0.478591
C65	C	0.688638	-0.724280	0.478580
C66	C	0.722084	-0.696966	0.428417
C67	C	0.722054	-0.642375	0.428397
N68	N	0.755503	-0.615057	0.378243
C69	C	0.788968	-0.642343	0.328096
C70	C	0.722172	-0.975450	0.428455
C71	C	0.722186	-1.030052	0.428458
C72	C	0.789102	-1.030021	0.328153
C73	C	0.789085	-0.975418	0.328146
C74	C	0.755620	-0.948133	0.378301
C75	C	0.788921	-0.527678	0.328075
C76	C	0.788895	-0.473073	0.328066
C77	C	0.721982	-0.473109	0.428374
C78	C	0.722005	-0.527710	0.428381
C79	C	0.755479	-0.554993	0.378229
O80	O	0.693596	-0.614105	0.471003
O81	O	0.817416	-0.614087	0.285449
C82	C	0.891881	-0.251834	0.378270
C83	C	0.949995	-0.251836	0.378283
C84	C	0.755539	-0.251792	0.582982
C85	C	0.755553	-0.251775	0.670232
C86	C	0.755610	-0.115457	0.378291
C87	C	0.755654	-0.057343	0.378314
C88	C	0.755506	-0.251831	0.174290
C89	C	0.755594	-0.251700	0.087041
C90	C	0.789019	-0.218333	0.711245
C91	C	0.789026	-0.218316	0.793225
C92	C	0.755568	-0.251744	0.834192
C93	C	0.722097	-0.285187	0.793174
C94	C	0.722089	-0.285202	0.711195
C95	C	0.722118	-0.285156	0.964044
C96	C	0.722127	-0.285142	1.046029
C97	C	0.789055	-0.218270	1.046074
C98	C	0.789047	-0.218284	0.964095
C99	C	0.755577	-0.251729	0.923083
H100	H	0.206150	-0.345806	0.236692
H101	H	0.816279	-0.191085	0.826614
H102	H	0.816307	-0.191037	1.079470
N103	N	0.686042	-0.321195	1.090217
H104	H	0.664835	-0.342382	1.051798
H105	H	0.661870	-0.299903	1.124234
N106	N	0.686017	-0.321225	0.919807
H107	H	0.664824	-0.342400	0.958197
H108	H	0.707278	-0.345427	0.885790
H109	H	0.816132	-0.450835	0.287215
N110	N	0.686012	-0.321237	0.837369
H111	H	0.694099	-0.358598	0.823093
H112	H	0.648673	-0.313073	0.823082
H113	H	0.556410	-0.312423	0.286973
N114	N	0.825137	-0.182235	0.919907
H115	H	0.846341	-0.161046	0.958326
H116	H	0.803869	-0.158046	0.885895
H117	H	0.694831	-0.312428	0.677804
N118	N	0.312409	-0.354623	0.223385
H119	H	0.286800	-0.375775	0.191528
H120	H	0.335056	-0.378848	0.255265
N121	N	0.563778	-0.182427	0.482758
H122	H	0.538219	-0.161272	0.514617
H123	H	0.586442	-0.158203	0.450872
H124	H	0.305411	-0.157848	0.519781
H125	H	0.661387	-0.702067	0.519425
N126	N	0.825113	-0.182285	0.667062
H127	H	0.803885	-0.158061	0.633045
H128	H	0.849313	-0.203584	0.633100
N129	N	0.858564	-0.808260	0.223869
H130	H	0.882793	-0.830878	0.255797
H131	H	0.879709	-0.782632	0.192107
H132	H	0.694733	-0.450884	0.469201
N133	N	0.825161	-0.945959	0.274045
H134	H	0.846361	-0.971535	0.242280
H135	H	0.849339	-0.923268	0.306030
H136	H	0.206365	-0.157845	0.519787
N137	N	0.450290	-0.182411	0.482759
H138	H	0.475901	-0.161260	0.514613
H139	H	0.427629	-0.203721	0.519033
H140	H	0.054054	-0.312423	0.287020
H141	H	-0.044864	-0.191247	0.469527
N142	N	0.061431	-0.182419	0.482814
H143	H	0.035871	-0.161268	0.514675
H144	H	0.084091	-0.158193	0.450927
N145	N	0.450107	-0.321249	0.273692
H146	H	0.459582	-0.358618	0.285781
H147	H	0.459612	-0.313038	0.217650
N148	N	0.825024	-0.557101	0.273985
H149	H	0.846204	-0.531505	0.242211
H150	H	0.803765	-0.579795	0.237629
H151	H	0.849687	-0.701997	0.237111
N152	N	-0.052224	-0.321256	0.273755
H153	H	-0.026664	-0.342409	0.241897
H154	H	-0.074874	-0.299945	0.237485
H155	H	0.816353	-1.052247	0.287323
H156	H	0.694946	-1.052287	0.469299
N157	N	0.686072	-0.946023	0.482547
H158	H	0.664887	-0.971617	0.514315
H159	H	0.661879	-0.923408	0.450556
H160	H	0.661413	-0.801117	0.519436
N161	N	0.685926	-0.557174	0.482474
H162	H	0.664722	-0.531601	0.514238
H163	H	0.707205	-0.579787	0.518840
