data_functionalizedCrystal
_audit_creation_method	'MofGen! by Chris Wilmer'
_symmetry_space_group_name_H-M	'P1'
_symmetry_Int_Tables_number	1
_symmetry_cell_setting	triclinic
loop_
_symmetry_equiv_pos_as_xyz
  x,y,z
_cell_length_a	12.827893
_cell_length_b	12.759399
_cell_length_c	12.827885
_cell_angle_alpha	89.972517
_cell_angle_beta	90.019272
_cell_angle_gamma	89.984498
loop_
_atom_site_label
_atom_site_type_symbol
_atom_site_fract_x
_atom_site_fract_y
_atom_site_fract_z
Zn1	Zn	1.597669	0.418214	0.590867
Zn2	Zn	2.097669	0.918214	1.090867
Zn3	Zn	1.597562	0.593930	0.416135
Zn4	Zn	2.097562	1.093930	0.916135
Zn5	Zn	1.422910	0.418266	0.416140
Zn6	Zn	1.922910	0.918266	0.916140
Zn7	Zn	1.422895	0.593852	0.590835
Zn8	Zn	1.922895	1.093852	1.090835
O9	O	1.510259	0.506066	0.503494
O10	O	2.010259	1.006066	1.003494
O11	O	1.743891	0.441535	0.567699
O12	O	2.243891	0.941535	1.067699
O13	O	1.574356	0.570683	0.269899
O14	O	2.074356	1.070683	0.769899
O15	O	1.446143	0.271238	0.439334
O16	O	1.946143	0.771238	0.939334
O17	O	1.743812	0.570633	0.439324
O18	O	2.243812	1.070633	0.939324
O19	O	1.574537	0.271200	0.567705
O20	O	2.074537	0.771200	1.067705
O21	O	1.446040	0.441623	0.269904
O22	O	1.946040	0.941623	0.769904
O23	O	1.276672	0.441546	0.439303
O24	O	1.776672	0.941546	0.939303
O25	O	1.446117	0.570498	0.737075
O26	O	1.946117	1.070498	1.237075
O27	O	1.276661	0.570549	0.567650
O28	O	1.776661	1.070549	1.067650
O29	O	1.574523	0.441458	0.737099
O30	O	2.074523	0.941458	1.237099
O31	O	1.574341	0.740941	0.439293
O32	O	2.074341	1.240941	0.939293
O33	O	1.446014	0.740883	0.567644
O34	O	1.946014	1.240883	1.067644
C35	C	1.238749	0.506045	0.503474
C36	C	1.738749	1.006045	1.003474
C37	C	1.122596	0.506062	0.503490
C38	C	1.622596	1.006062	1.003490
C39	C	1.070833	0.569996	0.566903
C40	C	1.570833	1.069996	1.066903
C41	C	0.950783	0.570015	0.566921
C42	C	1.450783	1.070015	1.066921
C43	C	1.510193	0.779033	0.503487
C44	C	2.010193	1.279033	1.003487
C45	C	1.510260	0.895810	0.503520
C46	C	2.010260	1.395810	1.003520
C47	C	1.577154	0.950667	0.436764
C48	C	2.077154	1.450667	0.936764
C49	C	1.577216	1.060391	0.436802
C50	C	2.077216	1.560391	0.936802
C51	C	1.443483	1.060391	0.570355
C52	C	1.943483	1.560391	1.070355
C53	C	1.443426	0.950669	0.570321
C54	C	1.943426	1.450669	1.070321
C55	C	1.643987	0.895808	0.369963
C56	C	2.143987	1.395808	0.869963
C57	C	1.710885	0.950665	0.303201
C58	C	2.210885	1.450665	0.803201
C59	C	1.710948	1.060389	0.303239
C60	C	2.210948	1.560389	0.803239
C61	C	1.644113	1.115256	0.370039
C62	C	2.144113	1.615256	0.870039
C63	C	1.782829	0.506087	0.503515
C64	C	2.282829	1.006087	1.003515
C65	C	1.898982	0.506096	0.503523
C66	C	2.398982	1.006096	1.003523
C67	C	1.510330	0.505964	0.776064
C68	C	2.010330	1.005964	1.276064
C69	C	1.510360	0.505920	0.892218
C70	C	2.010360	1.005920	1.392218
C71	C	1.510350	1.232032	0.503538
C72	C	2.010350	1.732032	1.003538
C73	C	1.510379	1.115256	0.503592
C74	C	2.010379	1.615256	1.003592
C75	C	1.510248	0.506091	0.231984
C76	C	2.010248	1.006091	0.731984
C77	C	1.510420	0.505839	0.115832
C78	C	2.010420	1.005839	0.615832
C79	C	1.446918	0.442002	1.064049
C80	C	1.946918	0.942002	1.564049
C81	C	1.446886	0.442045	0.943998
C82	C	1.946886	0.942045	1.443998
H83	H	0.943490	0.451360	0.449227
H84	H	1.443490	0.951360	0.949227
O85	O	0.891878	0.642567	0.638837
O86	O	1.391878	1.142567	1.138837
H87	H	0.842177	0.595616	0.692082
H88	H	1.342177	1.095616	1.192082
O89	O	1.643924	0.777463	0.369903
O90	O	2.143924	1.277463	0.869903
H91	H	1.565098	0.748625	0.348696
H92	H	2.065098	1.248625	0.848696
H93	H	1.564766	0.560520	1.071288
H94	H	2.064766	1.060520	1.571288
H95	H	1.115394	0.624715	0.621182
H96	H	1.615394	1.124715	1.121182
H97	H	1.392516	0.387395	0.899467
H98	H	1.892516	0.887395	1.399467
O99	O	1.371393	1.119574	0.642384
O100	O	1.871393	1.619574	1.142384
H101	H	1.389261	1.098451	0.724414
H102	H	1.889261	1.598451	1.224414
H103	H	1.078035	0.451335	0.449219
H104	H	1.578035	0.951335	0.949219
O105	O	1.582382	0.578331	0.951179
O106	O	2.082382	1.078331	1.451179
H107	H	1.635544	0.531254	1.000912
H108	H	2.135544	1.031254	1.500912
H109	H	1.765307	0.905987	0.248820
H110	H	2.265307	1.405987	0.748820
O111	O	1.783097	1.119563	0.231238
O112	O	2.283097	1.619563	0.731238
H113	H	1.829551	1.062979	0.184779
H114	H	2.329551	1.562979	0.684779
O115	O	1.374934	0.369551	1.123033
O116	O	1.874934	0.869551	1.623033
H117	H	1.392877	0.287089	1.102148
H118	H	1.892877	0.787089	1.602148
O119	O	1.644174	1.233602	0.370084
O120	O	2.144174	1.733602	0.870084
H121	H	1.701915	1.262534	0.312438
H122	H	2.201915	1.762534	0.812438
O123	O	1.371271	0.891489	0.642310
O124	O	1.871271	1.391489	1.142310
H125	H	1.324793	0.948067	0.688753
H126	H	1.824793	1.448067	1.188753
