data_functionalizedCrystal
_audit_creation_method	'MofGen! by Chris Wilmer'
_symmetry_space_group_name_H-M	'P1'
_symmetry_Int_Tables_number	1
_symmetry_cell_setting	triclinic
loop_
_symmetry_equiv_pos_as_xyz
  x,y,z
_cell_length_a	16.109301
_cell_length_b	17.699092
_cell_length_c	14.586319
_cell_angle_alpha	90.010680
_cell_angle_beta	90.005889
_cell_angle_gamma	83.373976
loop_
_atom_site_label
_atom_site_type_symbol
_atom_site_fract_x
_atom_site_fract_y
_atom_site_fract_z
O1	O	1.102971	0.097294	0.076186
O2	O	1.602971	0.597294	0.576186
O3	O	0.860888	0.109401	0.076199
O4	O	1.360888	0.609401	0.576199
O5	O	0.988765	-0.006832	0.076190
O6	O	1.488765	0.493168	0.576190
O7	O	0.975094	0.213526	0.076195
O8	O	1.475094	0.713526	0.576195
O9	O	0.988747	-0.006851	-0.076291
O10	O	1.488747	0.493149	0.423709
O11	O	0.860870	0.109381	-0.076282
O12	O	1.360870	0.609381	0.423718
O13	O	1.102953	0.097274	-0.076294
O14	O	1.602953	0.597274	0.423706
Cu15	Cu	0.981910	0.103326	-0.090211
Cu16	Cu	1.481910	0.603326	0.409789
Cu17	Cu	0.981931	0.103349	0.090115
Cu18	Cu	1.481931	0.603349	0.590115
O19	O	0.975076	0.213507	-0.076286
O20	O	1.475076	0.713507	0.423714
C21	C	0.829905	0.108900	-0.000040
C22	C	1.329905	0.608900	0.499960
C23	C	0.737613	0.107430	-0.000035
C24	C	1.237613	0.607430	0.499965
C25	C	0.428506	0.171593	-0.000050
C26	C	0.928506	0.671593	0.499950
C27	C	0.515224	0.172982	-0.000044
C28	C	1.015224	0.672982	0.499956
C29	C	0.535330	0.035076	-0.000035
C30	C	1.035330	0.535076	0.499965
C31	C	0.448614	0.033688	-0.000034
C32	C	0.948614	0.533688	0.499966
C33	C	0.395203	0.101949	-0.000046
C34	C	0.895203	0.601949	0.499954
C35	C	0.568638	0.104726	-0.000042
C36	C	1.068638	0.604726	0.499958
C37	C	0.662661	0.106231	-0.000036
C38	C	1.162661	0.606231	0.499964
C39	C	0.301174	0.100444	-0.000050
C40	C	0.801174	0.600444	0.499950
C41	C	0.988265	-0.035039	-0.000049
C42	C	1.488265	0.464961	0.499951
C43	C	0.986792	-0.119059	-0.000044
C44	C	1.486792	0.380941	0.499956
C45	C	0.986112	-0.158517	0.083074
C46	C	1.486112	0.341483	0.583074
C47	C	0.984722	-0.237462	0.083075
C48	C	1.484722	0.262538	0.583075
C49	C	0.984019	-0.276948	-0.000043
C50	C	1.484019	0.223052	0.499957
C51	C	0.984697	-0.237484	-0.083168
C52	C	1.484697	0.262516	0.416832
C53	C	0.986081	-0.158540	-0.083168
C54	C	1.486081	0.341460	0.416832
C55	C	0.979116	-0.555857	-0.083169
C56	C	1.479116	-0.055857	0.416831
C57	C	0.977735	-0.634808	-0.083162
C58	C	1.477735	-0.134808	0.416838
C59	C	0.977758	-0.634779	0.083074
C60	C	1.477758	-0.134779	0.583074
C61	C	0.979142	-0.555835	0.083074
C62	C	1.479142	-0.055835	0.583074
C63	C	0.979815	-0.516377	-0.000050
C64	C	1.479815	-0.016377	0.499950
C65	C	0.981320	-0.430776	-0.000050
C66	C	1.481320	0.069224	0.499950
C67	C	0.982520	-0.362549	-0.000044
C68	C	1.482520	0.137451	0.499956
C69	C	1.133936	0.097775	-0.000054
C70	C	1.633936	0.597775	0.499946
C71	C	1.226229	0.099245	-0.000052
C72	C	1.726229	0.599245	0.499948
C73	C	0.975576	0.241714	-0.000045
C74	C	1.475576	0.741714	0.499955
C75	C	0.977049	0.325734	-0.000043
C76	C	1.477049	0.825734	0.499957
N77	N	0.981901	0.103309	-0.217043
N78	N	1.481901	0.603309	0.282957
C79	C	0.931596	0.057424	-0.548070
C80	C	1.431596	0.557424	-0.048070
C81	C	0.931589	0.057413	-0.452089
C82	C	1.431589	0.557413	0.047911
C83	C	1.032258	0.149247	-0.452032
C84	C	1.532258	0.649247	0.047968
C85	C	1.032268	0.149253	-0.548012
C86	C	1.532268	0.649253	-0.048012
C87	C	0.981932	0.103343	-0.596028
C88	C	1.481932	0.603343	-0.096028
C89	C	0.981915	0.103326	-0.404067
C90	C	1.481915	0.603326	0.095933
C91	C	0.981909	0.103315	-0.300000
C92	C	1.481909	0.603315	0.200000
C93	C	0.981940	0.103353	-0.700102
C94	C	1.481940	0.603353	-0.200102
N95	N	0.981947	0.103360	0.216947
N96	N	1.481947	0.603360	0.716947
H97	H	0.578827	-0.020499	-0.000027
H98	H	1.078827	0.479501	0.499973
Cl99	Cl	0.983803	-0.287124	-0.187660
Cl100	Cl	1.483803	0.212876	0.312340
H101	H	0.890610	0.020040	-0.587162
H102	H	1.390610	0.520040	-0.087162
H103	H	0.977206	-0.666914	0.150758
H104	H	1.477206	-0.166914	0.650758
Cl105	Cl	0.868302	-0.000312	-0.391802
Cl106	Cl	1.368302	0.499688	0.108198
Cl107	Cl	0.976849	-0.684447	-0.187662
Cl108	Cl	1.476849	-0.184447	0.312338
Cl109	Cl	1.095529	0.206963	-0.391662
Cl110	Cl	1.595529	0.706963	0.108338
Cl111	Cl	0.986935	-0.108936	-0.187664
Cl112	Cl	1.486935	0.391064	0.312336
Cl113	Cl	1.095557	0.206981	-0.608307
Cl114	Cl	1.595557	0.706981	-0.108307
H115	H	0.979681	-0.523743	-0.150854
H116	H	1.479681	-0.023743	0.349146
Cl117	Cl	0.406745	-0.053872	-0.000017
Cl118	Cl	0.906745	0.446128	0.499983
H119	H	0.542334	0.229693	-0.000047
H120	H	1.042334	0.729693	0.499953
Cl121	Cl	0.983869	-0.287063	0.187572
Cl122	Cl	1.483869	0.212937	0.687572
Cl123	Cl	0.987002	-0.108885	0.187572
Cl124	Cl	1.487002	0.391115	0.687572
Cl125	Cl	0.980030	-0.506199	0.187570
Cl126	Cl	1.480030	-0.006199	0.687570
Cl127	Cl	0.361365	0.257407	-0.000060
Cl128	Cl	0.861365	0.757407	0.499940
