data_functionalizedCrystal
_audit_creation_method	'MofGen! by Chris Wilmer'
_symmetry_space_group_name_H-M	'P1'
_symmetry_Int_Tables_number	1
_symmetry_cell_setting	triclinic
loop_
_symmetry_equiv_pos_as_xyz
  x,y,z
_cell_length_a	12.594517
_cell_length_b	12.594516
_cell_length_c	12.759393
_cell_angle_alpha	90.029124
_cell_angle_beta	90.022886
_cell_angle_gamma	90.015485
loop_
_atom_site_label
_atom_site_type_symbol
_atom_site_fract_x
_atom_site_fract_y
_atom_site_fract_z
Zn1	Zn	1.627274	-0.423695	0.594122
Zn2	Zn	1.627163	-0.601715	0.418450
Zn3	Zn	1.449276	-0.423749	0.418448
Zn4	Zn	1.449260	-0.601631	0.594078
O5	O	1.538243	-0.512697	0.506274
O6	O	1.776205	-0.447323	0.570838
O7	O	1.603526	-0.578165	0.271428
O8	O	1.472941	-0.274796	0.441770
O9	O	1.776123	-0.578113	0.441772
O10	O	1.603715	-0.274757	0.570837
O11	O	1.472833	-0.447414	0.271427
O12	O	1.300328	-0.447332	0.441727
O13	O	1.472914	-0.577969	0.741105
O14	O	1.300316	-0.578021	0.570761
O15	O	1.603700	-0.447241	0.741137
O16	O	1.603511	-0.750649	0.441729
O17	O	1.472806	-0.750587	0.570762
C18	C	1.261702	-0.512674	0.506239
C19	C	1.143397	-0.512690	0.506249
C20	C	1.003355	-0.441530	0.436228
C21	C	1.074215	-0.415592	0.532098
C22	C	1.074109	-0.538580	0.410390
C23	C	1.003471	-0.486743	0.602247
C24	C	1.003358	-0.609777	0.480474
C25	C	1.074186	-0.583876	0.576410
C26	C	1.538173	-0.789238	0.506264
C27	C	1.538241	-0.907544	0.506295
C28	C	1.467144	-0.976802	0.576427
C29	C	1.441209	-1.047672	0.480558
C30	C	1.564272	-1.047473	0.602180
C31	C	1.512255	-0.976856	0.410376
C32	C	1.635363	-0.976650	0.532062
C33	C	1.609466	-1.047488	0.436127
C34	C	1.815864	-0.512721	0.506310
C35	C	1.934169	-0.512732	0.506326
C36	C	1.538318	-0.512590	0.780308
C37	C	1.538349	-0.512544	0.897085
C38	C	1.538342	-0.235077	0.506308
C39	C	1.538384	-0.116771	0.506322
C40	C	1.538230	-0.512728	0.233307
C41	C	1.538405	-0.512473	0.116531
C42	C	1.606459	-0.444468	0.951965
C43	C	1.606484	-0.444429	1.061690
C44	C	1.470287	-0.580553	1.061643
C45	C	1.470258	-0.580585	0.951920
C46	C	1.685095	-0.365881	0.951993
C47	C	1.685120	-0.365842	1.061718
H48	H	0.972259	-0.381290	0.377054
H49	H	1.406912	-0.945764	0.635649
H50	H	1.763377	-0.395432	0.917965
H51	H	1.655627	-0.287521	1.095760
O52	O	1.332497	-1.088991	0.451689
H53	H	1.333752	-1.177110	0.451223
O54	O	1.115461	-0.306867	0.561030
H55	H	1.087104	-0.247920	0.502761
H56	H	1.669651	-1.078330	0.376762
O57	O	1.744083	-0.935291	0.560821
H58	H	1.803199	-0.964893	0.503317
O59	O	1.794304	-0.395099	1.101188
H60	H	1.847735	-0.409464	1.033494
H61	H	0.972571	-0.464767	0.683370
O62	O	1.593371	-1.088560	0.709574
H63	H	1.534166	-1.060248	0.767619
O64	O	1.396845	-0.653935	1.120787
H65	H	1.444468	-0.708086	1.170771
H66	H	0.972212	-0.691840	0.458606
O67	O	1.115222	-0.567569	0.302969
H68	H	1.085631	-0.647578	0.281048
H69	H	1.414792	-0.636016	0.907241
O70	O	1.115137	-0.663612	0.654969
H71	H	1.086695	-0.641886	0.734461
H72	H	1.490201	-0.945964	0.329276
O73	O	1.655888	-0.256700	0.912555
H74	H	1.641600	-0.203223	0.980265
