data_functionalizedCrystal
_audit_creation_method	'MofGen! by Chris Wilmer'
_symmetry_space_group_name_H-M	'P1'
_symmetry_Int_Tables_number	1
_symmetry_cell_setting	triclinic
loop_
_symmetry_equiv_pos_as_xyz
  x,y,z
_cell_length_a	14.853567
_cell_length_b	12.837943
_cell_length_c	11.892095
_cell_angle_alpha	94.310562
_cell_angle_beta	93.898435
_cell_angle_gamma	90.768065
loop_
_atom_site_label
_atom_site_type_symbol
_atom_site_fract_x
_atom_site_fract_y
_atom_site_fract_z
O1	O	0.229205	-1.382409	-0.093964
O2	O	0.217625	-1.080587	-0.093972
O3	O	0.092869	-1.239561	-0.093971
O4	O	0.353961	-1.223436	-0.093965
O5	O	0.103253	-1.226306	0.094036
O6	O	0.228009	-1.067332	0.094035
O7	O	0.239589	-1.369154	0.094043
Zn8	Zn	0.235448	-1.216139	0.123889
Zn9	Zn	0.221766	-1.233603	-0.123818
O10	O	0.364345	-1.210181	0.094042
C11	C	0.064410	-1.232203	0.000029
C12	C	-0.035860	-1.230014	0.000019
C13	C	0.218906	-1.035334	0.000031
C14	C	0.207240	-0.920240	0.000027
C15	C	0.238308	-1.414408	0.000038
C16	C	0.249974	-1.529502	0.000034
C17	C	-0.457187	-1.126324	0.000038
C18	C	-0.462449	-1.315188	0.000043
C19	C	-0.368241	-1.317247	0.000036
C20	C	-0.318502	-1.223843	0.000032
C21	C	-0.362970	-1.128380	0.000035
C22	C	-0.323765	-1.412707	0.000045
C23	C	-0.229551	-1.414770	0.000040
C24	C	-0.179810	-1.321366	0.000028
C25	C	-0.224285	-1.225899	0.000029
C26	C	-0.174546	-1.132495	0.000025
C27	C	-0.219019	-1.037028	0.000018
C28	C	-0.313230	-1.034976	0.000023
C29	C	-0.085599	-1.323418	0.000023
C30	C	-0.080329	-1.134551	0.000022
C31	C	0.392804	-1.217539	0.000040
C32	C	0.493073	-1.219728	0.000042
N33	N	0.244785	-1.204228	0.292943
C34	C	0.347487	-0.679482	0.000047
C35	C	0.336530	-0.571341	0.000045
C36	C	0.174369	-0.595813	0.000029
C37	C	0.185327	-0.703955	0.000031
C38	C	0.271888	-0.745785	0.000038
C39	C	0.282844	-0.853929	0.000032
C40	C	0.120685	-0.878399	0.000024
C41	C	0.109727	-0.770257	0.000022
N42	N	0.212422	-1.245522	-0.292873
C43	C	0.147396	-1.328405	0.529592
C44	C	0.153930	-1.320087	0.647934
C45	C	0.264382	-1.179269	0.647971
C46	C	0.257848	-1.187587	0.529629
C47	C	0.199354	-1.262159	0.470444
C48	C	0.192826	-1.270481	0.352100
C49	C	0.303272	-1.129659	0.352140
C50	C	0.309806	-1.121341	0.470481
H51	H	-0.039837	-1.058490	0.000014
N52	N	0.084303	-1.408811	0.465731
H53	H	0.120006	-1.458211	0.416614
H54	H	0.052383	-1.449448	0.521218
H55	H	-0.193349	-1.492505	0.000043
N56	N	0.129727	-1.350887	0.288247
H57	H	0.165426	-1.400295	0.239132
H58	H	0.097807	-1.391515	0.343740
N59	N	0.359324	-1.058208	0.288346
H60	H	0.346314	-1.074793	0.204395
H61	H	0.343703	-0.983192	0.309042
N62	N	0.039141	-0.949913	0.000032
H63	H	-0.017354	-0.907000	0.000029
H64	H	0.036305	-1.000228	-0.069664
N65	N	0.097899	-1.391545	0.711732
H66	H	0.059858	-1.440048	0.656276
H67	H	0.139096	-1.433972	0.760817
H68	H	-0.049393	-1.401145	0.000036
N69	N	0.418082	-0.499844	0.000085
H70	H	0.451602	-0.518223	-0.069596
H71	H	0.397955	-0.425008	0.000136
N72	N	0.016370	-0.725134	0.000000
H73	H	-0.029860	-0.783550	-0.000009
H74	H	0.012132	-0.675887	0.069695
N75	N	0.327455	-1.098832	0.711816
H76	H	0.323703	-1.103614	0.795760
H77	H	0.391316	-1.112346	0.691143
H78	H	0.103900	-0.561729	0.000116
N79	N	-0.165367	-0.936285	0.000043
H80	H	-0.098937	-0.952080	0.000054
H81	H	-0.184521	-0.899589	-0.069650
N82	N	-0.361195	-0.932015	0.000020
H83	H	-0.428425	-0.944888	0.000030
H84	H	-0.339723	-0.886227	0.069716
H85	H	-0.493402	-1.048598	0.000028
H86	H	0.417969	-0.713541	0.000051
N87	N	0.372888	-1.040909	0.534320
H88	H	0.369143	-1.045688	0.618264
H89	H	0.436745	-1.054433	0.513637
N90	N	-0.377412	-1.513443	0.000036
H91	H	-0.334945	-1.574230	0.000040
H92	H	-0.412770	-1.511790	0.069728
H93	H	0.353327	-0.887985	0.000040
N94	N	-0.516099	-1.415919	0.000060
H95	H	-0.559161	-1.424187	-0.069629
H96	H	-0.473574	-1.476648	0.000102
