data_functionalizedCrystal
_audit_creation_method	'MofGen! by Chris Wilmer'
_symmetry_space_group_name_H-M	'P1'
_symmetry_Int_Tables_number	1
_symmetry_cell_setting	triclinic
loop_
_symmetry_equiv_pos_as_xyz
  x,y,z
_cell_length_a	17.666332
_cell_length_b	10.654541
_cell_length_c	10.654545
_cell_angle_alpha	84.484678
_cell_angle_beta	89.995921
_cell_angle_gamma	89.992010
loop_
_atom_site_label
_atom_site_type_symbol
_atom_site_fract_x
_atom_site_fract_y
_atom_site_fract_z
O1	O	0.062921	-1.667853	-0.176387
O2	O	0.062927	-1.302374	-0.193196
O3	O	0.062923	-1.493516	-0.002052
O4	O	0.062925	-1.476712	-0.367531
O5	O	-0.062973	-1.493482	-0.002041
O6	O	-0.062970	-1.302340	-0.193185
O7	O	-0.062976	-1.667819	-0.176376
Cu8	Cu	-0.074468	-1.485077	-0.184780
Cu9	Cu	0.074419	-1.485117	-0.184792
O10	O	-0.062972	-1.476678	-0.367520
C11	C	-0.000020	-1.255559	-0.191957
C12	C	-0.000018	-1.116116	-0.188266
N13	N	-0.179188	-1.485058	-0.184770
C14	C	-0.000024	-1.492265	0.044751
C15	C	-0.000019	-1.488572	0.184195
C16	C	-0.218799	-1.569723	-0.100174
C17	C	-0.298047	-1.569731	-0.100168
C18	C	-0.337680	-1.485084	-0.184780
C19	C	-0.298059	-1.400403	-0.269383
C20	C	-0.218813	-1.400389	-0.269378
N21	N	-0.462098	-1.470066	-0.295770
N22	N	-0.537378	-1.470086	-0.295771
C23	C	-0.576444	-1.485118	-0.184798
N24	N	-0.537385	-1.500153	-0.073821
N25	N	-0.462098	-1.500139	-0.073821
C26	C	-0.423609	-1.485089	-0.184794
C27	C	-0.701985	-1.569796	-0.100188
C28	C	-0.781234	-1.569794	-0.100180
C29	C	-0.781244	-1.400473	-0.269406
C30	C	-0.701997	-1.400468	-0.269403
C31	C	-0.662372	-1.485136	-0.184795
N32	N	0.179139	-1.485146	-0.184792
C33	C	-0.000027	-1.714634	-0.177615
C34	C	-0.000024	-1.854078	-0.181306
C35	C	-0.000008	-1.088146	-0.416831
C36	C	0.000001	-1.008652	-0.529374
C37	C	0.000001	-0.877634	-0.525898
C38	C	-0.000009	-0.826108	-0.409867
C39	C	-0.000017	-0.905602	-0.297324
C40	C	-0.000015	-1.036622	-0.300812
C41	C	-0.000032	-0.933572	-0.068763
C42	C	-0.000028	-1.064590	-0.072235
C43	C	-0.000042	-0.882046	0.047269
C44	C	-0.000045	-0.961540	0.159814
C45	C	-0.000045	-1.092565	0.156334
C46	C	-0.000036	-1.144084	0.040308
C47	C	-0.000024	-1.477929	-0.414323
C48	C	-0.000023	-1.481621	-0.553766
C49	C	0.137237	-1.488624	0.184191
C50	C	0.205865	-1.486920	0.249700
C51	C	0.205866	-1.483451	0.380719
C52	C	0.137232	-1.481682	0.446232
C53	C	0.068604	-1.483386	0.380723
C54	C	0.068610	-1.486859	0.249702
C55	C	-0.068651	-1.483325	0.380725
C56	C	-0.068654	-1.486803	0.249707
C57	C	-0.137285	-1.481556	0.446238
C58	C	-0.205915	-1.483269	0.380731
C59	C	-0.205913	-1.486740	0.249704
C60	C	-0.137281	-1.488507	0.184199
H61	H	-0.186539	-1.638662	-0.031278
H62	H	-0.000017	-0.719425	-0.407048
O63	O	-0.279930	-1.481367	0.451402
H64	H	-0.312835	-1.396569	0.415818
H65	H	-0.000046	-0.775363	0.050090
H66	H	-0.137273	-1.491339	0.077518
O67	O	-0.137284	-1.477809	0.587551
H68	H	-0.196537	-1.476855	0.622095
O69	O	0.137210	-1.492407	0.042883
H70	H	0.107570	-1.578775	0.018851
H71	H	-0.000052	-0.919576	0.254278
O72	O	-0.000062	-1.178302	0.277724
H73	H	0.051247	-1.238684	0.281617
O74	O	0.279892	-1.488828	0.179044
H75	H	0.268366	-1.491537	0.076934
H76	H	-0.186560	-1.331443	-0.338268
H77	H	-0.000027	-1.250764	0.037463
H78	H	-0.330304	-1.638678	-0.031276
H79	H	-0.330332	-1.331480	-0.338273
H80	H	0.000008	-1.194826	-0.419672
H81	H	0.000006	-1.050619	-0.623844
H82	H	-0.669720	-1.638734	-0.031291
O83	O	-0.823964	-1.661130	-0.008946
H84	H	-0.783093	-1.720011	0.049870
O85	O	-0.823978	-1.309174	-0.360674
H86	H	-0.885739	-1.323410	-0.346472
H87	H	0.000003	-0.812909	-0.617541
O88	O	0.279883	-1.481597	0.451385
H89	H	0.327609	-1.483409	0.383825
H90	H	-0.669743	-1.331530	-0.338295
H91	H	0.137239	-1.478842	0.552912
O92	O	-0.279934	-1.488588	0.179049
H93	H	-0.327654	-1.486786	0.246621
