data_functionalizedCrystal
_audit_creation_method	'MofGen! by Chris Wilmer'
_symmetry_space_group_name_H-M	'P1'
_symmetry_Int_Tables_number	1
_symmetry_cell_setting	triclinic
loop_
_symmetry_equiv_pos_as_xyz
  x,y,z
_cell_length_a	14.519731
_cell_length_b	19.188924
_cell_length_c	13.596369
_cell_angle_alpha	89.991944
_cell_angle_beta	89.994584
_cell_angle_gamma	83.415409
loop_
_atom_site_label
_atom_site_type_symbol
_atom_site_fract_x
_atom_site_fract_y
_atom_site_fract_z
O1	O	1.223284	0.091596	-0.081798
O2	O	1.723284	0.591596	0.418202
O3	O	0.954743	0.102358	-0.081800
O4	O	1.454743	0.602358	0.418200
O5	O	1.096766	-0.004651	-0.081788
O6	O	1.596766	0.495349	0.418212
O7	O	1.081261	0.198605	-0.081811
O8	O	1.581261	0.698605	0.418189
O9	O	1.096752	-0.004657	0.081795
O10	O	1.596752	0.495343	0.581795
O11	O	0.954729	0.102352	0.081783
O12	O	1.454729	0.602352	0.581783
O13	O	1.223270	0.091590	0.081785
O14	O	1.723270	0.591590	0.581785
Zn15	Zn	1.088997	0.096970	0.107756
Zn16	Zn	1.588997	0.596970	0.607756
Zn17	Zn	1.089016	0.096978	-0.107771
Zn18	Zn	1.589016	0.596978	0.392229
O19	O	1.081247	0.198599	0.081772
O20	O	1.581247	0.698599	0.581772
C21	C	0.920380	0.101851	-0.000009
C22	C	1.420380	0.601851	0.499991
C23	C	0.818009	0.100340	-0.000009
C24	C	1.318009	0.600340	0.499991
C25	C	0.734872	0.099112	-0.000013
C26	C	1.234872	0.599112	0.499987
C27	C	0.630573	0.097578	-0.000013
C28	C	1.130573	0.597578	0.499987
C29	C	0.547442	0.096360	-0.000013
C30	C	1.047442	0.596360	0.499987
C31	C	0.443136	0.094826	-0.000015
C32	C	0.943136	0.594826	0.499985
C33	C	1.096258	-0.030667	0.000005
C34	C	1.596258	0.469333	0.500005
C35	C	1.094754	-0.108177	0.000007
C36	C	1.594754	0.391823	0.500007
C37	C	1.094060	-0.144575	-0.089162
C38	C	1.594060	0.355425	0.410838
C39	C	1.092633	-0.217403	-0.089169
C40	C	1.592633	0.282597	0.410831
C41	C	1.091920	-0.253832	-0.000002
C42	C	1.591920	0.246168	0.499998
C43	C	1.092609	-0.217424	0.089179
C44	C	1.592609	0.282576	0.589179
C45	C	1.094026	-0.144597	0.089184
C46	C	1.594026	0.355403	0.589184
N47	N	1.142169	-0.373316	0.066363
N48	N	1.642169	0.126684	0.566363
N49	N	1.140825	-0.442499	0.066352
N50	N	1.640825	0.057501	0.566352
C51	C	1.087648	-0.473256	-0.000012
C52	C	1.587648	0.026744	0.499988
N53	N	1.035878	-0.432219	-0.066380
N54	N	1.535878	0.067781	0.433620
N55	N	1.037227	-0.363030	-0.066372
N56	N	1.537227	0.136970	0.433628
C57	C	1.090383	-0.332801	0.000002
C58	C	1.590383	0.167199	0.500002
C59	C	1.085406	-0.588623	-0.089195
C60	C	1.585406	-0.088623	0.410805
C61	C	1.083974	-0.661452	-0.089199
C62	C	1.583974	-0.161452	0.410801
C63	C	1.083959	-0.661472	0.089151
C64	C	1.583959	-0.161472	0.589151
C65	C	1.085382	-0.588644	0.089152
C66	C	1.585382	-0.088644	0.589152
C67	C	1.086110	-0.552224	-0.000024
C68	C	1.586110	-0.052224	0.499976
C69	C	1.257634	0.092097	-0.000009
C70	C	1.757634	0.592097	0.499991
C71	C	1.360004	0.093608	-0.000015
C72	C	1.860004	0.593608	0.499985
C73	C	1.081755	0.224615	-0.000022
C74	C	1.581755	0.724615	0.499978
C75	C	1.083259	0.302125	-0.000032
C76	C	1.583259	0.802125	0.499968
N77	N	1.088991	0.096965	0.254848
N78	N	1.588991	0.596965	0.754848
N79	N	1.089029	0.096978	-0.254863
N80	N	1.589029	0.596978	0.245137
C81	C	1.089015	0.096978	0.656139
C82	C	1.589015	0.596978	1.156139
C83	C	1.089005	0.096977	0.544487
C84	C	1.589005	0.596977	1.044487
C85	C	1.089003	0.096972	0.455497
C86	C	1.589003	0.596972	0.955497
C87	C	1.088993	0.096970	0.343838
C88	C	1.588993	0.596970	0.843838
H89	H	1.094650	-0.114927	-0.161776
H90	H	1.594650	0.385073	0.338224
H91	H	1.092062	-0.247044	-0.161784
H92	H	1.592062	0.252956	0.338216
O93	O	1.091790	-0.252871	0.175734
O94	O	1.591790	0.247129	0.675734
C95	C	1.010273	-0.327264	0.279256
C96	C	1.510273	0.172736	0.779256
C97	C	1.011102	-0.287169	0.181184
C98	C	1.511102	0.212831	0.681184
H99	H	0.945033	-0.354993	0.283703
H100	H	1.445033	0.145007	0.783703
H101	H	1.074089	-0.367709	0.283734
H102	H	1.574089	0.132291	0.783734
H103	H	1.011057	-0.288725	0.342974
H104	H	1.511057	0.211275	0.842974
H105	H	1.010286	-0.325655	0.117410
H106	H	1.510286	0.174345	0.617410
H107	H	0.947292	-0.246714	0.176792
H108	H	1.447292	0.253286	0.676792
H109	H	1.094588	-0.114961	0.161798
H110	H	1.594588	0.385039	0.661798
O111	O	1.083423	-0.696903	-0.175758
O112	O	1.583423	-0.196903	0.324242
C113	C	1.161746	-0.786901	-0.279274
C114	C	1.661746	-0.286901	0.220726
C115	C	1.162472	-0.746816	-0.181202
C116	C	1.662472	-0.246816	0.318798
H117	H	1.225660	-0.827254	-0.283716
H118	H	1.725660	-0.327254	0.216284
H119	H	1.096600	-0.814739	-0.283756
H120	H	1.596600	-0.314739	0.216244
H121	H	1.162468	-0.748344	-0.342992
H122	H	1.662468	-0.248344	0.157008
H123	H	1.161784	-0.785326	-0.117428
H124	H	1.661784	-0.285326	0.382572
H125	H	1.227612	-0.718966	-0.176805
H126	H	1.727612	-0.218966	0.323195
H127	H	1.083371	-0.691131	0.161753
H128	H	1.583371	-0.191131	0.661753
O129	O	1.086111	-0.553396	0.175861
O130	O	1.586111	-0.053396	0.675861
C131	C	1.085901	-0.561100	0.352756
C132	C	1.585901	-0.061100	0.852756
C133	C	1.085097	-0.601106	0.254626
C134	C	1.585097	-0.101106	0.754626
H135	H	1.085062	-0.599654	0.416463
H136	H	1.585062	-0.099654	0.916463
H137	H	1.151105	-0.533334	0.357280
H138	H	1.651105	-0.033334	0.857280
H139	H	1.022057	-0.520678	0.357166
H140	H	1.522057	-0.020678	0.857166
H141	H	1.148896	-0.641562	0.250150
H142	H	1.648896	-0.141562	0.750150
H143	H	1.019850	-0.628823	0.250143
H144	H	1.519850	-0.128823	0.750143
O145	O	1.086059	-0.553343	-0.175904
O146	O	1.586059	-0.053343	0.324096
C147	C	1.085975	-0.561012	-0.352800
C148	C	1.585975	-0.061012	0.147200
C149	C	1.085212	-0.601048	-0.254675
C150	C	1.585212	-0.101048	0.245325
H151	H	1.085310	-0.599566	-0.416512
H152	H	1.585310	-0.099566	0.083488
H153	H	1.022101	-0.520624	-0.357323
H154	H	1.522101	-0.020624	0.142677
H155	H	1.151151	-0.533205	-0.357204
H156	H	1.651151	-0.033205	0.142796
H157	H	1.020079	-0.628898	-0.250206
H158	H	1.520079	-0.128898	0.249794
H159	H	1.149129	-0.641397	-0.250194
H160	H	1.649129	-0.141397	0.249806
