data_functionalizedCrystal
_audit_creation_method	'MofGen! by Chris Wilmer'
_symmetry_space_group_name_H-M	'P1'
_symmetry_Int_Tables_number	1
_symmetry_cell_setting	triclinic
loop_
_symmetry_equiv_pos_as_xyz
  x,y,z
_cell_length_a	15.538191
_cell_length_b	17.699097
_cell_length_c	16.776229
_cell_angle_alpha	89.996625
_cell_angle_beta	89.998535
_cell_angle_gamma	65.280263
loop_
_atom_site_label
_atom_site_type_symbol
_atom_site_fract_x
_atom_site_fract_y
_atom_site_fract_z
O1	O	0.119259	0.971470	0.066344
O2	O	0.134754	0.746859	0.066330
O3	O	-0.010221	0.902887	0.066344
O4	O	0.264233	0.815442	0.066331
O5	O	-0.010230	0.902905	-0.066233
O6	O	0.134744	0.746877	-0.066246
O7	O	0.119249	0.971488	-0.066232
Zn8	Zn	0.126995	0.859186	-0.087288
Zn9	Zn	0.127008	0.859162	0.087387
O10	O	0.264224	0.815460	-0.066246
C11	C	0.134192	0.718824	0.000040
C12	C	0.132520	0.635263	0.000035
C13	C	0.122276	0.122335	0.072336
C14	C	0.123841	0.200852	0.072332
C15	C	0.124619	0.240114	0.000061
C16	C	0.123824	0.200858	-0.072211
C17	C	0.122252	0.122346	-0.072206
C18	C	0.130159	0.517491	-0.072232
C19	C	0.131734	0.596008	-0.072231
C20	C	0.131748	0.595997	0.072305
C21	C	0.130176	0.517485	0.072310
C22	C	0.129376	0.478238	0.000039
C23	C	0.127678	0.393102	0.000045
C24	C	0.126324	0.325246	0.000055
C25	C	-0.045341	0.912045	0.000059
C26	C	-0.149976	0.939297	0.000069
C27	C	-0.437163	0.668556	0.000034
C28	C	-0.535486	0.694183	0.000034
C29	C	-0.558250	0.838325	0.000044
C30	C	-0.459927	0.812711	0.000048
C31	C	-0.399391	0.727826	0.000042
C32	C	-0.422155	0.871980	0.000056
C33	C	-0.323840	0.846368	0.000055
C34	C	-0.263298	0.761486	0.000047
C35	C	-0.301076	0.702213	0.000042
C36	C	-0.482693	0.956865	0.000055
C37	C	-0.444921	1.016135	0.000063
C38	C	-0.346605	0.990522	0.000069
C39	C	-0.286062	0.905641	0.000061
C40	C	-0.308827	1.049795	0.000074
C41	C	-0.210512	1.024183	0.000074
C42	C	-0.187748	0.880028	0.000061
C43	C	0.299344	0.806302	0.000041
C44	C	0.403979	0.779050	0.000037
C45	C	0.119811	0.999524	0.000060
C46	C	0.121483	1.083084	0.000070
N47	N	0.126986	0.859208	-0.206500
N48	N	0.127009	0.859148	0.206598
C49	C	0.062926	0.928355	0.751769
C50	C	0.062925	0.928346	0.668317
C51	C	0.126990	0.859191	0.626597
C52	C	0.191054	0.790037	0.668335
C53	C	0.191050	0.790045	0.751785
C54	C	0.191074	0.790004	0.331788
C55	C	0.191075	0.790002	0.248331
C56	C	0.062949	0.928305	0.248319
C57	C	0.062944	0.928312	0.331769
C58	C	0.127004	0.859157	0.373499
C59	C	0.127003	0.859168	0.463988
C60	C	0.126997	0.859182	0.536111
H61	H	0.121617	0.090385	-0.131052
N62	N	0.132576	0.638357	-0.150184
H63	H	0.131829	0.601582	-0.195967
H64	H	0.074821	0.693116	-0.153325
H65	H	-0.183245	0.740634	0.000043
N66	N	0.121442	0.079989	0.150286
H67	H	0.122180	0.116773	0.196065
H68	H	0.062381	0.069595	0.153439
H69	H	0.124480	0.232809	0.131178
H70	H	-0.562746	0.977716	0.000063
H71	H	-0.358130	1.118909	0.000071
N72	N	-0.122431	0.788476	0.000057
H73	H	-0.134551	0.761409	0.049201
H74	H	-0.134586	0.761491	-0.049123
H75	H	0.129547	0.485520	0.131161
N76	N	-0.371847	0.577004	0.000013
H77	H	-0.330539	0.563156	0.049153
H78	H	-0.410745	0.543390	-0.000024
H79	H	0.129494	0.485551	-0.131079
H80	H	0.243235	0.733696	0.365758
N81	N	-0.169765	1.088105	0.000075
H82	H	-0.129473	1.080685	0.049216
H83	H	-0.129534	1.080656	-0.049109
N84	N	0.124661	0.243202	-0.150162
H85	H	0.125781	0.298894	-0.139201
H86	H	0.182793	0.207294	-0.181721
N87	N	-0.623554	0.929875	0.000054
H88	H	-0.611421	0.956919	0.049205
H89	H	-0.611393	0.956871	-0.049120
N90	N	-0.235773	0.610658	0.000049
H91	H	-0.274617	0.576993	0.000049
H92	H	-0.194485	0.596895	-0.049098
N93	N	-0.576227	0.630252	0.000024
H94	H	-0.522956	0.572594	0.000021
H95	H	-0.616521	0.637732	0.049172
N96	N	0.260149	0.715443	0.623342
H97	H	0.250434	0.725930	0.564144
H98	H	0.327039	0.705702	0.637930
N99	N	-0.510215	1.107686	0.000061
H100	H	-0.578229	1.114920	0.000058
H101	H	-0.498003	1.134678	0.049213
N102	N	-0.006169	1.002947	0.796763
H103	H	-0.046752	1.046749	0.757660
H104	H	-0.047876	0.985507	0.831391
H105	H	0.010761	0.984650	0.634339
N106	N	0.132600	0.638327	0.150261
H107	H	0.191657	0.648725	0.153478
H108	H	0.074802	0.693052	0.153442
N109	N	-0.006150	1.002902	0.376767
H110	H	-0.046735	1.046706	0.337666
H111	H	-0.047856	0.985458	0.411394
N112	N	-0.006149	1.002896	0.203310
H113	H	0.003569	0.992400	0.144114
H114	H	-0.073041	1.012641	0.217899
H115	H	0.243247	0.733684	0.214365
H116	H	0.243213	0.733737	0.785762
