data_functionalizedCrystal
_audit_creation_method	'MofGen! by Chris Wilmer'
_symmetry_space_group_name_H-M	'P1'
_symmetry_Int_Tables_number	1
_symmetry_cell_setting	triclinic
loop_
_symmetry_equiv_pos_as_xyz
  x,y,z
_cell_length_a	10.540510
_cell_length_b	17.038272
_cell_length_c	9.016244
_cell_angle_alpha	89.997742
_cell_angle_beta	89.992396
_cell_angle_gamma	87.812433
loop_
_atom_site_label
_atom_site_type_symbol
_atom_site_fract_x
_atom_site_fract_y
_atom_site_fract_z
O1	O	1.696188	0.110135	-0.123352
O2	O	1.327742	0.120547	-0.123353
O3	O	1.509775	0.001513	-0.123340
O4	O	1.514155	0.229169	-0.123364
O5	O	1.509747	0.001516	0.123340
O6	O	1.327714	0.120550	0.123328
O7	O	1.696160	0.110138	0.123329
Cu8	Cu	1.511934	0.115344	0.145853
Cu9	Cu	1.511968	0.115341	-0.145876
O10	O	1.514127	0.229171	0.123317
C11	C	1.280352	0.119772	-0.000012
C12	C	1.139185	0.117451	-0.000012
C13	C	1.505778	-0.027636	-0.000000
C14	C	1.493894	-0.114497	-0.000001
C15	C	0.929443	0.200143	-0.000588
C16	C	1.076270	0.202619	-0.000023
C17	C	1.090343	0.073855	0.140855
C18	C	0.943407	0.071982	0.140965
C19	C	0.943467	0.070205	-0.139557
C20	C	1.090185	0.074245	-0.141411
C21	C	1.603005	-0.163991	0.000001
C22	C	1.591831	-0.245605	-0.000013
C23	C	1.471544	-0.277723	-0.000018
C24	C	1.362425	-0.228222	-0.000025
C25	C	1.373600	-0.146610	-0.000021
C26	C	1.432064	-0.523705	-0.000039
C27	C	1.420897	-0.605324	-0.000038
C28	C	1.650304	-0.622701	-0.000029
C29	C	1.661469	-0.541087	-0.000016
C30	C	1.552349	-0.491593	-0.000030
C31	C	1.460120	-0.361146	-0.000028
C32	C	1.563775	-0.408172	-0.000031
C33	C	1.743550	0.110912	-0.000014
C34	C	1.884717	0.113234	-0.000024
C35	C	1.518124	0.258321	-0.000027
C36	C	1.530008	0.345181	-0.000036
N37	N	1.511920	0.115346	0.351039
N38	N	1.511991	0.115333	-0.351062
C39	C	1.414207	0.178807	0.586065
C40	C	1.414459	0.179045	0.414174
C41	C	1.646376	0.133907	0.413375
C42	C	1.645852	0.134356	0.585320
C43	C	1.476475	0.033115	0.585591
C44	C	1.473480	0.033648	0.413637
H45	H	1.108809	0.236726	-0.101007
C46	C	0.905478	-0.016175	-0.140847
H47	H	0.854065	-0.026001	-0.056814
H48	H	0.979714	-0.049544	-0.137749
H49	H	0.859185	-0.026263	-0.228765
H50	H	1.133454	0.012065	-0.149911
H51	H	1.264485	-0.254379	-0.000038
H52	H	1.343211	-0.483417	-0.000050
C53	C	0.889555	0.106570	-0.283800
H54	H	0.830705	0.148340	-0.260269
H55	H	0.847815	0.067618	-0.338805
H56	H	0.956891	0.126209	-0.341299
H57	H	1.121775	0.105965	-0.245624
H58	H	1.700954	-0.137848	0.000015
C59	C	0.874833	0.244711	0.135113
H60	H	0.824898	0.210583	0.192113
H61	H	0.823442	0.288412	0.102721
H62	H	0.942482	0.262620	0.194243
C63	C	1.687497	0.214022	0.355186
H64	H	1.768986	0.224729	0.393523
H65	H	1.627906	0.253926	0.386207
H66	H	1.690984	0.212832	0.249920
C67	C	1.793780	-0.505759	-0.000000
H68	H	1.784808	-0.450065	0.000020
H69	H	1.839101	-0.522698	-0.086017
H70	H	1.839054	-0.522709	0.086040
H71	H	0.914469	0.008281	0.147370
H72	H	0.890597	0.233323	-0.101613
C73	C	1.288580	-0.640656	-0.000044
H74	H	1.297557	-0.696350	-0.000024
H75	H	1.243290	-0.623714	-0.086069
H76	H	1.243272	-0.623711	0.085988
H77	H	1.539390	-0.015855	0.370666
H78	H	1.107863	0.236935	0.101120
C79	C	1.711853	-0.300046	0.000004
H80	H	1.785091	-0.269229	0.000030
H81	H	1.712285	-0.332243	-0.086018
H82	H	1.712242	-0.332245	0.086039
H83	H	1.547681	-0.014129	0.626248
C84	C	1.253579	-0.092166	-0.000019
H85	H	1.180339	-0.122981	-0.000010
H86	H	1.253182	-0.059965	-0.086042
H87	H	1.253159	-0.059970	0.086015
H88	H	0.905958	0.101778	0.246259
C89	C	1.146455	-0.010846	0.147961
H90	H	1.115681	-0.036129	0.233959
H91	H	1.236430	-0.009879	0.152188
H92	H	1.121846	-0.038790	0.062120
C93	C	1.346239	0.009263	0.644222
H94	H	1.312303	0.049230	0.707889
H95	H	1.355905	-0.038605	0.697778
H96	H	1.290147	0.002470	0.563159
H97	H	1.124009	0.104134	0.245683
H98	H	1.374528	0.019578	0.372896
C99	C	1.327809	-0.396475	-0.000034
H100	H	1.264419	-0.355311	-0.000042
H101	H	1.318673	-0.427959	0.085981
H102	H	1.318703	-0.427944	-0.086076
H103	H	1.314799	0.167878	0.372031
C104	C	1.279172	0.163957	0.641964
H105	H	1.221596	0.202888	0.602755
H106	H	1.277717	0.166316	0.747217
H107	H	1.254885	0.113502	0.610378
C108	C	1.445715	0.260747	0.644391
H109	H	1.518206	0.256442	0.706888
H110	H	1.375566	0.282126	0.699131
H111	H	1.462839	0.294219	0.563125
H112	H	1.739142	-0.663008	-0.000020
C113	C	1.686302	0.215387	0.639485
H114	H	1.686344	0.216375	0.744837
H115	H	1.628365	0.254900	0.603113
H116	H	1.769169	0.224871	0.603931
C117	C	1.446350	0.261441	0.358561
H118	H	1.446608	0.261869	0.253195
H119	H	1.527712	0.274463	0.394167
H120	H	1.384392	0.298826	0.393996
H121	H	1.661712	-0.382018	-0.000060
C122	C	1.747515	0.073165	0.358118
H123	H	1.708546	0.035859	0.296387
H124	H	1.785975	0.047055	0.440657
H125	H	1.810411	0.099112	0.303189
H126	H	1.721357	0.089987	0.626907
