data_functionalizedCrystal
_audit_creation_method	'MofGen! by Chris Wilmer'
_symmetry_space_group_name_H-M	'P1'
_symmetry_Int_Tables_number	1
_symmetry_cell_setting	triclinic
loop_
_symmetry_equiv_pos_as_xyz
  x,y,z
_cell_length_a	18.050583
_cell_length_b	11.169417
_cell_length_c	18.050590
_cell_angle_alpha	89.993416
_cell_angle_beta	89.972555
_cell_angle_gamma	90.012662
loop_
_atom_site_label
_atom_site_type_symbol
_atom_site_fract_x
_atom_site_fract_y
_atom_site_fract_z
Zn1	Zn	-0.419892	-1.834916	-0.295589
Zn2	Zn	-0.295721	-1.834847	-0.419802
Zn3	Zn	-0.295723	-1.634227	-0.295632
Zn4	Zn	-0.419877	-1.634226	-0.419743
O5	O	-0.357803	-1.734554	-0.357691
O6	O	-0.403425	-2.002857	-0.312072
O7	O	-0.191796	-1.808206	-0.403373
O8	O	-0.312201	-1.660879	-0.191702
O9	O	-0.312198	-2.002806	-0.403331
O10	O	-0.403428	-1.808324	-0.191670
O11	O	-0.191798	-1.660811	-0.312146
O12	O	-0.312187	-1.466277	-0.312089
O13	O	-0.523803	-1.660876	-0.403231
O14	O	-0.403402	-1.466276	-0.403273
O15	O	-0.523814	-1.808323	-0.312016
O16	O	-0.312183	-1.808204	-0.523719
O17	O	-0.403400	-1.660809	-0.523676
C18	C	-0.357793	-1.422729	-0.357680
C19	C	-0.357807	-1.289329	-0.357693
C20	C	-0.357806	-1.734532	-0.550644
C21	C	-0.357832	-1.734632	-0.633189
C22	C	-0.551509	-1.734607	-0.357612
C23	C	-0.634054	-1.734630	-0.357578
C24	C	-0.833511	-1.814891	-0.307951
C25	C	-0.882907	-1.705417	-0.289776
C26	C	-0.785185	-1.734678	-0.357566
C27	C	-0.882871	-1.844196	-0.375694
C28	C	-0.931170	-1.734734	-0.357552
C29	C	-0.833494	-1.625146	-0.339355
C30	C	-0.833453	-1.763998	-0.425305
C31	C	-0.882826	-1.654448	-0.407155
C32	C	-0.701087	-1.734647	-0.357572
C33	C	-1.015267	-1.734752	-0.357546
C34	C	-0.164851	-1.734570	-0.357717
C35	C	-0.082305	-1.734780	-0.357541
C36	C	-0.357813	-2.047596	-0.357703
C37	C	-0.357817	-2.180996	-0.357708
C38	C	-0.357817	-1.734609	-0.163986
C39	C	-0.357822	-1.734633	-0.081440
C40	C	-0.407443	-1.814828	0.167403
C41	C	-0.425607	-1.705338	0.118014
C42	C	-0.357829	-1.734629	0.215680
C43	C	-0.339697	-1.844115	0.117988
C44	C	-0.357827	-1.734637	0.069695
C45	C	-0.376028	-1.625082	0.167378
C46	C	-0.290087	-1.763932	0.167357
C47	C	-0.308224	-1.654367	0.117990
C48	C	-0.357832	-1.734627	0.299779
C49	C	-0.357825	-1.734627	-0.014401
H50	H	-0.811855	-1.882614	-0.265968
O51	O	-0.501489	-1.672499	0.089300
H52	H	-0.497504	-1.589750	0.055477
O53	O	-0.396438	-1.502402	0.195985
H54	H	-0.396308	-1.503376	0.257473
H55	H	-0.324327	-1.936718	0.096342
O56	O	-0.911323	-1.564530	-0.462731
H57	H	-0.945142	-1.611323	-0.505132
O58	O	-0.804642	-1.796878	-0.501165
H59	H	-0.852039	-1.814150	-0.538833
O60	O	-0.911691	-1.672582	-0.213893
H61	H	-0.891947	-1.739270	-0.172811
O62	O	-0.911610	-1.966840	-0.396016
H63	H	-0.890957	-1.991721	-0.451858
H64	H	-0.232816	-1.788754	0.189049
O65	O	-0.804895	-1.502457	-0.318940
H66	H	-0.743407	-1.503410	-0.319076
O67	O	-0.463056	-1.904540	0.196160
H68	H	-0.519246	-1.879923	0.176401
O69	O	-0.252643	-1.564443	0.089427
H70	H	-0.267867	-1.473693	0.109316
