data_functionalizedCrystal
_audit_creation_method	'MofGen! by Chris Wilmer'
_symmetry_space_group_name_H-M	'P1'
_symmetry_Int_Tables_number	1
_symmetry_cell_setting	triclinic
loop_
_symmetry_equiv_pos_as_xyz
  x,y,z
_cell_length_a	23.532355
_cell_length_b	15.625429
_cell_length_c	14.185569
_cell_angle_alpha	59.452262
_cell_angle_beta	76.928902
_cell_angle_gamma	96.433782
loop_
_atom_site_label
_atom_site_type_symbol
_atom_site_fract_x
_atom_site_fract_y
_atom_site_fract_z
O1	O	-0.734848	0.142527	-0.135167
O2	O	-0.568064	0.159981	-0.141537
O3	O	-0.663999	0.007048	-0.085897
O4	O	-0.638913	0.295460	-0.190808
O5	O	-0.692339	-0.038125	0.097373
O6	O	-0.596404	0.114808	0.041732
O7	O	-0.763187	0.097354	0.048102
Cu8	Cu	-0.682383	0.101956	0.061651
Cu9	Cu	-0.648868	0.155379	-0.155086
O10	O	-0.667252	0.250287	-0.007539
C11	C	-0.561040	0.136959	-0.049747
C12	C	-0.497888	0.135650	-0.049279
C13	C	-0.209497	0.154536	-0.147082
C14	C	-0.268832	0.155778	-0.147538
O15	O	-0.286388	0.177327	-0.232718
N16	N	-0.313953	0.131781	-0.047865
C17	C	-0.299738	0.106531	0.052272
O18	O	-0.343566	0.086233	0.137009
C19	C	-0.240406	0.105282	0.052728
C20	C	-0.195286	0.129291	-0.046954
C21	C	-0.164379	0.178542	-0.246756
C22	C	-0.105048	0.177301	-0.246301
C23	C	-0.090836	0.152056	-0.146173
C24	C	-0.135955	0.128050	-0.046499
C25	C	-0.226193	0.080025	0.152867
C26	C	-0.166856	0.078777	0.153316
C27	C	-0.121735	0.102786	0.053633
C28	C	-0.062413	0.101565	0.054084
N29	N	-0.017292	0.125561	-0.045588
C30	C	-0.031504	0.150807	-0.145716
C31	C	-0.424340	0.109154	0.051306
C32	C	-0.483671	0.110409	0.050848
C33	C	-0.452760	0.159655	-0.148961
C34	C	-0.393428	0.158406	-0.148504
C35	C	-0.379219	0.133150	-0.048366
C36	C	0.093094	0.148201	-0.144754
C37	C	0.152429	0.146963	-0.144292
C38	C	0.121512	0.097713	0.055518
C39	C	0.062183	0.098956	0.055055
C40	C	0.047976	0.124199	-0.045089
O41	O	-0.044813	0.080022	0.139224
O42	O	0.012327	0.171088	-0.230435
C43	C	-0.679843	-0.052429	0.019155
C44	C	-0.684824	-0.162351	0.059133
C45	C	-0.623958	-0.400763	-0.308846
C46	C	-0.628642	-0.504059	-0.271247
C47	C	-0.659536	-0.553290	-0.071460
C48	C	-0.654858	-0.449997	-0.109042
C49	C	-0.637068	-0.373740	-0.227737
C50	C	-0.667968	-0.422974	-0.027932
C51	C	-0.663287	-0.319688	-0.065512
C52	C	-0.645496	-0.243426	-0.184202
C53	C	-0.632387	-0.270455	-0.265316
C54	C	-0.685753	-0.499231	0.090762
C55	C	-0.698863	-0.472208	0.171872
C56	C	-0.694186	-0.368922	0.134293
C57	C	-0.676396	-0.292660	0.015603
C58	C	-0.707295	-0.341893	0.215407
C59	C	-0.702614	-0.238608	0.177827
C60	C	-0.671715	-0.189374	-0.021977
C61	C	0.229789	0.120384	-0.043690
C62	C	0.166640	0.121717	-0.044163
C63	C	-0.651408	0.309765	-0.112593
C64	C	-0.646426	0.419689	-0.152577
N65	N	-0.705960	0.064381	0.214093
N66	N	-0.625296	0.192946	-0.307525
C67	C	-0.556030	0.303298	0.494819
C68	C	-0.573893	0.274842	0.610194
C69	C	-0.658856	0.139470	0.659406
C70	C	-0.640999	0.167911	0.544035
C71	C	-0.589586	0.249826	0.461749
C72	C	-0.674554	0.114440	0.510965
C73	C	-0.656700	0.142883	0.395602
C74	C	-0.605290	0.224797	0.313310
C75	C	-0.571731	0.278269	0.346387
C76	C	-0.725970	0.032529	0.593251
C77	C	-0.759525	-0.020942	0.560181
C78	C	-0.741669	0.007496	0.444818
C79	C	-0.690259	0.089410	0.362526
C80	C	-0.775227	-0.045977	0.411741
C81	C	-0.757373	-0.017534	0.296379
C82	C	-0.672404	0.117853	0.247163
H83	H	-0.412776	0.088599	0.132852
H84	H	-0.784698	-0.061076	0.269454
H85	H	0.081535	0.168758	-0.226301
C86	C	-0.533296	0.084009	0.160503
N87	N	-0.570673	0.064117	0.243101
C88	C	0.202058	0.173368	-0.253952
N89	N	0.239436	0.193251	-0.336545
H90	H	-0.068315	0.196847	-0.327472
C91	C	-0.180000	0.206314	-0.356915
N92	N	-0.191759	0.227241	-0.439896
C93	C	-0.816077	-0.111051	0.650708
N94	N	-0.858671	-0.178925	0.718893
H95	H	-0.262922	0.060471	0.234041
H96	H	-0.657234	-0.127282	-0.118630
C97	C	-0.151231	0.050999	0.263477
N98	N	-0.139463	0.030081	0.346449
H99	H	-0.630535	0.184550	0.180163
H100	H	-0.356693	0.177956	-0.229675
C101	C	-0.831782	-0.136078	0.502268
N102	N	-0.874380	-0.203945	0.570453
C103	C	-0.499452	0.393370	0.404312
N104	N	-0.456833	0.461198	0.336147
C105	C	-0.468405	0.187416	-0.259102
N106	N	-0.480192	0.208323	-0.342054
H107	H	-0.617906	-0.208362	-0.361969
C108	C	-0.690909	-0.612849	0.132098
N109	N	-0.694795	-0.698427	0.163232
H110	H	-0.713277	-0.216604	0.243874
C111	C	-0.715408	0.049361	0.749933
N112	N	-0.758001	-0.018513	0.818119
H113	H	-0.641679	-0.159324	-0.214798
C114	C	-0.726856	-0.425785	0.345967
N115	N	-0.741588	-0.488973	0.444307
H116	H	0.025446	0.079426	0.136217
H117	H	-0.740506	0.009377	0.687184
H118	H	0.133095	0.077162	0.137039
H119	H	-0.609477	-0.338671	-0.405499
H120	H	-0.617960	-0.526052	-0.337306
C121	C	-0.536973	0.333669	0.646564
N122	N	-0.509166	0.377978	0.673958
H123	H	-0.674018	-0.615391	0.025182
C124	C	-0.718429	-0.556099	0.302433
N125	N	-0.733168	-0.619286	0.400773
H126	H	-0.590755	0.247957	0.219374
C127	C	-0.515153	0.368341	0.255879
N128	N	-0.472534	0.436169	0.187714
