data_functionalizedCrystal
_audit_creation_method	'MofGen! by Chris Wilmer'
_symmetry_space_group_name_H-M	'P1'
_symmetry_Int_Tables_number	1
_symmetry_cell_setting	triclinic
loop_
_symmetry_equiv_pos_as_xyz
  x,y,z
_cell_length_a	16.120484
_cell_length_b	16.625548
_cell_length_c	16.625539
_cell_angle_alpha	90.018832
_cell_angle_beta	92.870299
_cell_angle_gamma	87.074492
loop_
_atom_site_label
_atom_site_type_symbol
_atom_site_fract_x
_atom_site_fract_y
_atom_site_fract_z
Zn1	Zn	-0.331925	-1.216357	-0.472207
Zn2	Zn	-0.471345	-1.209424	-0.344203
Zn3	Zn	-0.331949	-1.081526	-0.337384
Zn4	Zn	-0.471299	-1.074647	-0.478987
O5	O	-0.401629	-1.145488	-0.408195
O6	O	-0.350428	-1.328269	-0.455243
O7	O	-0.452883	-1.192435	-0.230468
O8	O	-0.215280	-1.105192	-0.349577
O9	O	-0.452860	-1.323175	-0.361199
O10	O	-0.215262	-1.204252	-0.448631
O11	O	-0.350470	-1.098469	-0.225458
O12	O	-0.350425	-0.967781	-0.356152
O13	O	-0.452781	-1.093468	-0.590918
O14	O	-0.452804	-0.962727	-0.460186
O15	O	-0.350384	-1.197581	-0.585937
O16	O	-0.588005	-1.185765	-0.367774
O17	O	-0.587971	-1.086745	-0.466799
C18	C	-0.401613	-0.935998	-0.408165
C19	C	-0.401626	-0.846377	-0.408173
C20	C	-0.618238	-1.134778	-0.418779
C21	C	-0.710904	-1.130270	-0.423334
C22	C	-0.401624	-0.518201	-0.408197
C23	C	-0.401622	-0.609510	-0.408187
C24	C	-0.401625	-0.682286	-0.408184
C25	C	-0.401623	-0.773600	-0.408176
C26	C	-0.880566	-1.122043	-0.431667
C27	C	-0.921852	-1.169078	-0.384736
C28	C	-1.016258	-1.164501	-0.389373
C29	C	-0.786152	-1.126619	-0.427032
C30	C	-0.184175	-1.156263	-0.397587
C31	C	-0.091509	-1.160854	-0.393067
C32	C	-0.401574	-1.145531	-0.618501
C33	C	-0.401551	-1.145549	-0.708121
C34	C	-0.401641	-0.355797	-0.408218
C35	C	-0.401632	-0.445418	-0.408207
C36	C	-0.401532	-1.145563	-0.780903
C37	C	-0.401501	-1.145583	-0.872210
C38	C	-0.401472	-1.145603	-0.944985
C39	C	-0.401442	-1.145625	-1.036298
C40	C	-0.401624	-1.145496	-0.198704
C41	C	-0.401413	-1.145645	-0.109073
H42	H	-0.886298	-1.212782	-0.341075
C43	C	-0.928590	-1.063000	-0.490645
C44	C	-1.024361	-1.058450	-0.495250
C45	C	-1.072397	-0.999406	-0.554225
C46	C	-1.024662	-0.944913	-0.608594
C47	C	-0.928885	-0.949461	-0.603990
C48	C	-0.880849	-1.008505	-0.545015
H49	H	-1.059703	-1.098791	-0.455001
H50	H	-1.143298	-0.996040	-0.557633
H51	H	-1.060221	-0.901205	-0.652251
H52	H	-0.893544	-0.909120	-0.644239
H53	H	-0.809949	-1.011871	-0.541608
