data_functionalizedCrystal
_audit_creation_method	'MofGen! by Chris Wilmer'
_symmetry_space_group_name_H-M	'P1'
_symmetry_Int_Tables_number	1
_symmetry_cell_setting	triclinic
loop_
_symmetry_equiv_pos_as_xyz
  x,y,z
_cell_length_a	12.759401
_cell_length_b	19.076919
_cell_length_c	12.759393
_cell_angle_alpha	92.335790
_cell_angle_beta	89.980324
_cell_angle_gamma	87.669368
loop_
_atom_site_label
_atom_site_type_symbol
_atom_site_fract_x
_atom_site_fract_y
_atom_site_fract_z
Zn1	Zn	1.589336	0.280176	-0.577129
Zn2	Zn	1.582114	0.397897	-0.394367
Zn3	Zn	1.413633	0.280211	-0.401466
Zn4	Zn	1.406516	0.397845	-0.570011
O5	O	1.497900	0.339032	-0.485743
O6	O	1.735399	0.295799	-0.552893
O7	O	1.559720	0.382322	-0.248285
O8	O	1.442941	0.181710	-0.430718
O9	O	1.730092	0.382288	-0.418618
O10	O	1.572029	0.181684	-0.559777
O11	O	1.435938	0.295859	-0.253501
O12	O	1.265668	0.295809	-0.423816
O13	O	1.430812	0.382200	-0.717978
O14	O	1.260440	0.382234	-0.547645
O15	O	1.565129	0.295749	-0.723208
O16	O	1.552819	0.496387	-0.411716
O17	O	1.423809	0.496349	-0.540761
C18	C	1.224933	0.339020	-0.485729
C19	C	1.108156	0.339032	-0.485747
C20	C	1.056052	0.294079	-0.555762
C21	C	0.946328	0.294086	-0.555769
C22	C	0.940819	0.384006	-0.415741
C23	C	1.050542	0.383995	-0.415730
C24	C	1.486787	0.521907	-0.474719
C25	C	1.482128	0.600142	-0.470038
C26	C	1.547099	0.636823	-0.535087
C27	C	1.542718	0.710332	-0.530691
C28	C	1.473371	0.747160	-0.461239
C29	C	1.408393	0.710474	-0.396187
C30	C	1.412769	0.636966	-0.400590
C31	C	1.453076	0.967014	-0.440866
C32	C	1.448706	1.040528	-0.436466
C33	C	1.583031	1.040381	-0.570972
C34	C	1.587405	0.966871	-0.575364
C35	C	1.522424	0.930192	-0.510316
N36	N	1.468894	0.822299	-0.456741
N37	N	1.526897	0.855054	-0.514820
C38	C	1.771932	0.339045	-0.485758
C39	C	1.888708	0.339050	-0.485764
C40	C	1.509041	1.155443	-0.496822
C41	C	1.513677	1.077209	-0.501516
C42	C	1.497982	0.338965	-0.759781
C43	C	1.498018	0.338936	-0.876559
C44	C	1.567962	0.293914	-0.934146
C45	C	1.567981	0.293883	-1.043872
C46	C	1.428109	0.383904	-1.038414
C47	C	1.428085	0.383930	-0.928690
C48	C	1.497881	0.339049	-0.212775
C49	C	1.498061	0.338879	-0.096009
H50	H	1.603574	0.606842	-0.591638
Cl51	Cl	1.655924	0.237287	-1.116263
H52	H	1.102959	0.257465	-0.612771
H53	H	1.400167	0.937156	-0.387899
Cl54	Cl	1.361524	1.086825	-0.349145
Cl55	Cl	0.880831	0.237569	-0.643791
H56	H	0.893897	0.420613	-0.358737
Cl57	Cl	1.116049	0.440505	-0.327693
H58	H	1.371175	0.420538	-1.080872
Cl59	Cl	1.340142	0.440530	-0.856289
H60	H	1.595632	0.740195	-0.583653
Cl61	Cl	1.664712	1.086497	-0.652746
Cl62	Cl	1.674587	0.920579	-0.662680
Cl63	Cl	1.321203	0.756772	-0.308886
Cl64	Cl	1.331087	0.590852	-0.318811
Cl65	Cl	1.655872	0.237347	-0.868614
