data_functionalizedCrystal
_audit_creation_method	'MofGen! by Chris Wilmer'
_symmetry_space_group_name_H-M	'P1'
_symmetry_Int_Tables_number	1
_symmetry_cell_setting	triclinic
loop_
_symmetry_equiv_pos_as_xyz
  x,y,z
_cell_length_a	6.817900
_cell_length_b	16.305681
_cell_length_c	16.305550
_cell_angle_alpha	95.371254
_cell_angle_beta	103.455250
_cell_angle_gamma	103.457389
loop_
_atom_site_label
_atom_site_type_symbol
_atom_site_fract_x
_atom_site_fract_y
_atom_site_fract_z
V1	V	-4.026191	-0.117429	-0.263322
O2	O	-4.013843	0.004910	-0.258012
O3	O	-3.977589	-0.232137	-0.261807
O4	O	-3.977598	-0.115944	-0.378035
O5	O	-4.013834	-0.112087	-0.140979
V6	V	-4.509870	-0.102758	-0.248654
O7	O	-4.287107	-0.149611	-0.295497
O8	O	-4.699152	-0.070575	-0.216479
O9	O	-4.335266	0.011951	-0.250169
O10	O	-4.639615	-0.225097	-0.253964
O11	O	-4.639624	-0.108100	-0.370997
O12	O	-4.335257	-0.104243	-0.133941
C13	C	-3.822547	-0.260091	-0.257726
C14	C	-3.864094	-0.353868	-0.257252
C15	C	-3.940236	-0.525570	-0.256406
C16	C	-3.736017	-0.556086	-0.251127
C17	C	-3.779332	-0.653679	-0.250964
C18	C	-4.015199	-0.694622	-0.255573
C19	C	-4.151340	-0.674609	-0.339102
C20	C	-4.106672	-0.577011	-0.339618
C21	C	-4.026207	-0.551426	-0.178454
C22	C	-4.064811	-0.648742	-0.176814
C23	C	-4.057579	-0.790163	-0.255105
C24	C	-3.897866	-0.430030	-0.256880
C25	C	-3.822557	-0.111874	-0.405986
C26	C	-3.864109	-0.111419	-0.499767
C27	C	-4.015197	-0.109656	-0.840508
C28	C	-3.779151	-0.104421	-0.799567
C29	C	-3.735957	-0.105244	-0.702074
C30	C	-3.940239	-0.110530	-0.671462
C31	C	-4.107233	-0.193843	-0.722295
C32	C	-4.149097	-0.193372	-0.819843
C33	C	-4.069988	-0.032242	-0.794473
C34	C	-4.022059	-0.031583	-0.696629
C35	C	-3.897889	-0.111027	-0.575926
C36	C	-4.057556	-0.109164	-0.936046
C37	C	-4.153650	0.039900	-0.254247
C38	C	-4.091341	0.133676	-0.254727
C39	C	-4.153640	-0.108316	-0.105985
C40	C	-4.091326	-0.108767	-0.012203
H41	H	-3.963914	-0.660527	-0.115061
C42	C	-4.107390	-0.717694	-0.417137
C43	C	-4.292180	-0.774488	-0.468049
C44	C	-4.251752	-0.814197	-0.539934
H45	H	-4.056160	-0.675679	-0.449061
H46	H	-4.005860	-0.748135	-0.399436
H47	H	-4.393675	-0.744049	-0.485750
H48	H	-4.343437	-0.816519	-0.436151
H49	H	-4.150222	-0.844638	-0.522233
H50	H	-4.200520	-0.772176	-0.571850
H51	H	-4.377119	-0.852742	-0.574482
H52	H	-4.322930	-0.200679	-0.847853
C53	C	-4.289896	-0.685276	-0.174960
C54	C	-4.389939	-0.750190	-0.244839
C55	C	-4.597308	-0.783854	-0.243174
H56	H	-4.292122	-0.707983	-0.123520
H57	H	-4.360490	-0.641368	-0.177885
H58	H	-4.319364	-0.794090	-0.241906
H59	H	-4.387770	-0.727504	-0.296290
H60	H	-4.667902	-0.739946	-0.246099
H61	H	-4.599513	-0.806557	-0.191731
H62	H	-4.665219	-0.827896	-0.290589
C63	C	-3.566473	-0.509697	-0.171328
C64	C	-3.642389	-0.452857	-0.125443
C65	C	-3.486248	-0.410091	-0.051934
H66	H	-3.527396	-0.550015	-0.136739
H67	H	-3.448138	-0.478910	-0.187183
H68	H	-3.760687	-0.483641	-0.109587
H69	H	-3.681452	-0.412521	-0.160007
H70	H	-3.367913	-0.379305	-0.067789
H71	H	-3.447182	-0.450416	-0.017352
H72	H	-3.537728	-0.371515	-0.020796
H73	H	-4.259459	-0.557744	-0.346915
H74	H	-4.324961	-0.702057	-0.345517
C75	C	-3.567449	-0.025398	-0.655011
C76	C	-3.528556	-0.026172	-0.566942
C77	C	-3.373367	0.047379	-0.523565
H78	H	-3.442842	-0.024092	-0.672074
H79	H	-3.613191	0.023720	-0.668255
H80	H	-3.482805	-0.075276	-0.553705
H81	H	-3.653118	-0.027464	-0.549854
H82	H	-3.419109	0.096497	-0.536809
H83	H	-3.248773	0.048678	-0.540635
H84	H	-3.346972	0.046868	-0.463806
H85	H	-4.177665	-0.532034	-0.181547
H86	H	-3.669674	-0.538725	-0.307126
C87	C	-3.718973	-0.694276	-0.325908
C88	C	-3.643321	-0.630926	-0.371515
C89	C	-3.587710	-0.668292	-0.440565
H90	H	-3.613419	-0.722013	-0.305372
H91	H	-3.838148	-0.734851	-0.362360
H92	H	-3.524161	-0.590366	-0.335070
H93	H	-3.748842	-0.603184	-0.392071
H94	H	-3.706885	-0.708868	-0.477016
H95	H	-3.482161	-0.696029	-0.420021
H96	H	-3.536392	-0.625317	-0.471522
C97	C	-4.311260	-0.203074	-0.696939
C98	C	-4.275461	-0.207153	-0.609494
C99	C	-4.463361	-0.215666	-0.586106
H100	H	-4.364230	-0.155296	-0.708947
H101	H	-4.410030	-0.253874	-0.728376
H102	H	-4.176724	-0.156358	-0.578067
H103	H	-4.222520	-0.254930	-0.597465
H104	H	-4.562132	-0.266466	-0.617543
H105	H	-4.516317	-0.167886	-0.598118
H106	H	-4.439101	-0.218442	-0.526775
H107	H	-4.050850	-0.562046	-0.398575
H108	H	-3.901041	0.030041	-0.662098
H109	H	-4.169347	-0.030546	-0.675279
C110	C	-3.637989	-0.024154	-0.815986
C111	C	-3.760499	0.022070	-0.863179
C112	C	-3.630531	0.096012	-0.878338
H113	H	-3.557809	0.010019	-0.763079
H114	H	-3.546920	-0.039527	-0.847181
H115	H	-3.851531	0.037445	-0.831985
H116	H	-3.840676	-0.012077	-0.916095
H117	H	-3.539463	0.080638	-0.909533
H118	H	-3.550357	0.130177	-0.825428
H119	H	-3.713633	0.127379	-0.910367
H120	H	-3.734035	-0.160039	-0.831216
H121	H	-3.669505	-0.161503	-0.685919
H122	H	-3.912582	-0.515435	-0.115666
H123	H	-4.112925	-0.251976	-0.850370
H124	H	-3.673706	-0.666410	-0.190933
C125	C	-4.033713	-0.272118	-0.700155
C126	C	-4.184563	-0.345826	-0.746051
C127	C	-4.116911	-0.417946	-0.725669
H128	H	-3.905589	-0.269717	-0.714646
H129	H	-4.013652	-0.273451	-0.640701
H130	H	-4.204597	-0.344493	-0.805492
H131	H	-4.312697	-0.348255	-0.731567
H132	H	-4.096851	-0.419278	-0.666215
H133	H	-3.988786	-0.415536	-0.740161
H134	H	-4.219259	-0.467964	-0.756800
H135	H	-3.978616	0.030884	-0.807685
H136	H	-4.242052	-0.035336	-0.821297
