data_functionalizedCrystal
_audit_creation_method	'MofGen! by Chris Wilmer'
_symmetry_space_group_name_H-M	'P1'
_symmetry_Int_Tables_number	1
_symmetry_cell_setting	triclinic
loop_
_symmetry_equiv_pos_as_xyz
  x,y,z
_cell_length_a	17.019370
_cell_length_b	17.019311
_cell_length_c	9.130307
_cell_angle_alpha	93.881240
_cell_angle_beta	86.125062
_cell_angle_gamma	83.659878
loop_
_atom_site_label
_atom_site_type_symbol
_atom_site_fract_x
_atom_site_fract_y
_atom_site_fract_z
O1	O	0.100525	1.046558	0.241123
O2	O	0.113334	0.816880	0.210543
O3	O	-0.007909	0.938127	0.241110
O4	O	0.221768	0.925312	0.210556
O5	O	-0.007910	0.938123	-0.002490
O6	O	0.113333	0.816876	-0.033057
O7	O	0.100524	1.046555	-0.002477
Cu8	Cu	0.106928	0.931715	-0.040009
Cu9	Cu	0.106930	0.931720	0.248075
O10	O	0.221766	0.925308	-0.033044
C11	C	0.112847	0.787490	0.085098
C12	C	0.111387	0.699921	0.074238
C13	C	0.103156	0.204649	0.006157
C14	C	0.104528	0.286929	0.016363
C15	C	0.105209	0.328072	0.154256
C16	C	0.104525	0.286930	0.281949
C17	C	0.103159	0.204651	0.271740
C18	C	0.109338	0.576500	0.191722
C19	C	0.110701	0.658785	0.201922
C20	C	0.110705	0.658779	-0.063665
C21	C	0.109335	0.576499	-0.073861
C22	C	0.108656	0.535363	0.053831
C23	C	0.106608	0.412175	0.164692
C24	C	0.107262	0.451261	0.043393
C25	C	-0.037297	0.937639	0.122954
C26	C	-0.124865	0.936181	0.133813
C27	C	-0.166012	0.935492	0.006134
C28	C	-0.248292	0.934128	0.016351
C29	C	-0.289422	0.933446	0.154246
C30	C	-0.248270	0.934138	0.281934
C31	C	-0.165992	0.935508	0.271717
C32	C	-0.537847	0.929315	0.191738
C33	C	-0.620130	0.927942	0.201944
C34	C	-0.620147	0.927934	-0.063640
C35	C	-0.537867	0.929299	-0.073845
C36	C	-0.496722	0.929995	0.053843
C37	C	-0.373525	0.932049	0.164691
C38	C	-0.412622	0.931398	0.043397
C39	C	0.251155	0.925796	0.085115
C40	C	0.338723	0.927254	0.074266
C41	C	0.101011	1.075945	0.122971
C42	C	0.102471	1.163513	0.133840
N43	N	0.106927	0.931717	-0.242632
C44	C	-0.000403	1.039125	-0.215553
C45	C	-0.054065	1.092834	-0.278680
C46	C	-0.054066	1.092842	-0.432012
C47	C	-0.000400	1.039133	-0.522223
C48	C	0.053263	0.985424	-0.459096
C49	C	0.053259	0.985424	-0.305758
C50	C	0.160587	0.878015	-0.486174
C51	C	0.160593	0.878009	-0.332842
C52	C	0.214253	0.824306	-0.576384
C53	C	0.267921	0.770600	-0.513258
C54	C	0.267920	0.770595	-0.359915
C55	C	0.214255	0.824300	-0.269715
N56	N	0.106925	0.931723	0.450699
H57	H	0.105084	0.320434	0.394223
H58	H	0.311615	0.726855	-0.308527
H59	H	-0.097765	1.136573	-0.483409
O60	O	-0.664532	0.927205	-0.201346
H61	H	-0.694939	0.872848	-0.210721
H62	H	-0.653615	0.927380	0.314240
O63	O	-0.000408	1.039138	-0.687602
H64	H	0.045920	0.992769	-0.739725
O65	O	0.325808	0.712686	-0.610549
H66	H	0.315790	0.651204	-0.587632
O67	O	-0.292674	0.933384	-0.121359
H68	H	-0.269804	0.879900	-0.194653
H69	H	0.214247	0.824312	-0.701235
H70	H	0.106712	0.417758	-0.068879
O71	O	0.111450	0.703148	-0.201381
H72	H	0.164929	0.680260	-0.274667
O73	O	0.107330	0.456564	0.313411
H74	H	0.160805	0.433698	0.367482
O75	O	-0.121651	0.936234	-0.142595
H76	H	-0.164092	0.935536	-0.229659
H77	H	0.108782	0.543018	0.295699
O78	O	0.102790	0.160233	-0.142628
H79	H	0.101853	0.096091	-0.128299
O80	O	0.105299	0.331296	-0.121355
H81	H	0.104598	0.288864	-0.218955
H82	H	-0.504357	0.929880	0.295711
O83	O	0.102403	0.160279	0.409456
H84	H	0.103093	0.202711	0.507060
O85	O	-0.493506	0.930051	-0.222572
H86	H	-0.535944	0.929354	-0.309640
O87	O	-0.292625	0.933398	0.430669
H88	H	-0.356750	0.932319	0.416325
H89	H	0.214253	0.824304	-0.144862
H90	H	0.108763	0.543008	-0.186145
H91	H	0.111262	0.692281	0.314215
H92	H	-0.379131	0.931956	-0.068876
O93	O	-0.121605	0.936242	0.409424
H94	H	-0.164025	0.935529	0.507027
O95	O	-0.417888	0.931300	0.313416
H96	H	-0.462468	0.984411	0.332092
H97	H	-0.000401	1.039130	-0.090700
H98	H	-0.097761	1.136561	-0.205217
