data_functionalizedCrystal
_audit_creation_method	'MofGen! by Chris Wilmer'
_symmetry_space_group_name_H-M	'P1'
_symmetry_Int_Tables_number	1
_symmetry_cell_setting	triclinic
loop_
_symmetry_equiv_pos_as_xyz
  x,y,z
_cell_length_a	18.215407
_cell_length_b	18.215405
_cell_length_c	17.077396
_cell_angle_alpha	89.967575
_cell_angle_beta	89.985449
_cell_angle_gamma	90.022344
loop_
_atom_site_label
_atom_site_type_symbol
_atom_site_fract_x
_atom_site_fract_y
_atom_site_fract_z
Zn1	Zn	1.125055	-0.293028	-0.443769
Zn2	Zn	1.124968	-0.416103	-0.312496
Zn3	Zn	1.001992	-0.293050	-0.312523
Zn4	Zn	1.001953	-0.416052	-0.443726
O5	O	1.063492	-0.354558	-0.378129
O6	O	1.228028	-0.309367	-0.426362
O7	O	1.108635	-0.399811	-0.202653
O8	O	1.018370	-0.190063	-0.329963
O9	O	1.227964	-0.399790	-0.329917
O10	O	1.108783	-0.190047	-0.426389
O11	O	1.018286	-0.309404	-0.202673
O12	O	0.899003	-0.309354	-0.329921
O13	O	1.018303	-0.399702	-0.553579
O14	O	0.898974	-0.399723	-0.426315
O15	O	1.108745	-0.309317	-0.553611
O16	O	1.108597	-0.519081	-0.329875
O17	O	1.018219	-0.519043	-0.426288
C18	C	0.872286	-0.354536	-0.378117
C19	C	0.790487	-0.354544	-0.378130
C20	C	0.525434	-0.401691	-0.428252
C21	C	0.602293	-0.401685	-0.428248
C22	C	0.602292	-0.307442	-0.328019
C23	C	0.525435	-0.307453	-0.328020
C24	C	0.487008	-0.354576	-0.378140
C25	C	0.640724	-0.354559	-0.378136
C26	C	0.724057	-0.354552	-0.378132
C27	C	0.403669	-0.354584	-0.378144
C28	C	1.063415	-0.545765	-0.378091
C29	C	1.063449	-0.627564	-0.378101
C30	C	1.110619	-0.815753	-0.327991
C31	C	1.110652	-0.892611	-0.328010
C32	C	1.016459	-0.892612	-0.428323
C33	C	1.016431	-0.815755	-0.428308
C34	C	1.063510	-0.777327	-0.378137
C35	C	1.063571	-0.931043	-0.378171
C36	C	1.063606	-1.014377	-0.378192
C37	C	1.063475	-0.693988	-0.378117
C38	C	1.255445	-0.354582	-0.378141
C39	C	1.337244	-0.354591	-0.378147
C40	C	1.063590	-0.162605	-0.378184
C41	C	1.063632	-0.080806	-0.378207
C42	C	1.063529	-0.354501	-0.582873
C43	C	1.063545	-0.354477	-0.670123
C44	C	1.016514	-0.307397	-0.711123
C45	C	1.016526	-0.307380	-0.793103
C46	C	1.063573	-0.354440	-0.834082
C47	C	1.110606	-0.401526	-0.793077
C48	C	1.110590	-0.401546	-0.711098
C49	C	1.110638	-0.401480	-0.963947
C50	C	1.110655	-0.401460	-1.045932
C51	C	1.016574	-0.307314	-1.045953
C52	C	1.016558	-0.307334	-0.963974
C53	C	1.063592	-0.354419	-0.922974
C54	C	1.063498	-0.354562	-0.174181
C55	C	1.063625	-0.354379	-0.086932
H56	H	0.494147	-0.269085	-0.287209
O57	O	1.161325	-0.452320	-0.666875
H58	H	1.148683	-0.510073	-0.682596
O59	O	1.161473	-0.934053	-0.273929
H60	H	1.153595	-0.993953	-0.282376
O61	O	0.965668	-0.934058	-0.482420
H62	H	0.973593	-0.993958	-0.473998
O63	O	1.161406	-0.774299	-0.273896
H64	H	1.148841	-0.789103	-0.212276
O65	O	0.483984	-0.452571	-0.482247
H66	H	0.523620	-0.485355	-0.517066
O67	O	0.965607	-0.774301	-0.482384
H68	H	0.932863	-0.813933	-0.517262
H69	H	0.978207	-0.269070	-0.677764
H70	H	0.633576	-0.440051	-0.469053
H71	H	0.978226	-0.269045	-0.826482
O72	O	0.965826	-0.256567	-0.919769
H73	H	0.933122	-0.223824	-0.962050
H74	H	0.978278	-0.268975	-1.079339
H75	H	1.148965	-0.439780	-1.079294
H76	H	1.148945	-0.439815	-0.930567
H77	H	0.633589	-0.269075	-0.287213
O78	O	1.161350	-0.452290	-0.837268
H79	H	1.198824	-0.419349	-0.874623
