data_functionalizedCrystal
_audit_creation_method	'MofGen! by Chris Wilmer'
_symmetry_space_group_name_H-M	'P1'
_symmetry_Int_Tables_number	1
_symmetry_cell_setting	triclinic
loop_
_symmetry_equiv_pos_as_xyz
  x,y,z
_cell_length_a	14.044191
_cell_length_b	10.489746
_cell_length_c	12.503572
_cell_angle_alpha	93.558979
_cell_angle_beta	86.162165
_cell_angle_gamma	88.866539
loop_
_atom_site_label
_atom_site_type_symbol
_atom_site_fract_x
_atom_site_fract_y
_atom_site_fract_z
O1	O	1.265230	0.301028	-0.089270
O2	O	0.989186	0.289913	-0.089283
O3	O	1.133486	0.110511	-0.089268
O4	O	1.120930	0.480430	-0.089285
O5	O	1.122634	0.124027	0.089373
O6	O	0.978333	0.303429	0.089358
O7	O	1.254378	0.314545	0.089371
Cu8	Cu	1.115365	0.310221	0.105676
Cu9	Cu	1.128199	0.294236	-0.105588
O10	O	1.110078	0.493947	0.089356
C11	C	0.948412	0.291809	0.000036
C12	C	0.843087	0.277305	0.000031
C13	C	0.593322	0.353651	0.000038
C14	C	0.650248	0.250811	0.000041
C15	C	0.757553	0.265556	0.000035
C16	C	0.486007	0.338908	0.000043
C17	C	1.127111	0.069641	0.000052
C18	C	1.124270	-0.072277	0.000051
C19	C	1.030775	-0.234622	0.000033
C20	C	1.082869	-0.159151	-0.088042
C21	C	1.072192	-0.145864	0.088084
C22	C	1.171357	-0.249671	-0.088120
C23	C	1.160662	-0.236384	0.088085
C24	C	1.212823	-0.160958	-0.000012
C25	C	1.295152	0.312648	0.000050
C26	C	1.400477	0.327152	0.000048
C27	C	1.116453	0.534816	0.000034
C28	C	1.119294	0.676733	0.000027
N29	N	1.106345	0.321464	0.254267
N30	N	1.137226	0.282984	-0.254179
C31	C	1.093077	0.338013	0.473381
C32	C	1.150491	0.266438	0.526714
C33	C	1.143109	0.275647	0.648636
C34	C	1.100458	0.328806	0.351447
H35	H	0.618399	0.151688	-0.000031
N36	N	1.222949	0.176107	0.465917
H37	H	1.218024	0.182249	0.386175
H38	H	1.289203	0.199875	0.485502
N39	N	0.635506	0.484938	0.000025
H40	H	0.707294	0.476992	0.000019
H41	H	0.617694	0.527801	-0.066205
H42	H	1.289854	-0.128671	-0.000056
N43	N	0.928838	-0.277762	-0.000094
H44	H	0.899557	-0.249797	-0.066698
H45	H	0.927705	-0.373945	0.000619
H46	H	1.030284	-0.100578	0.162545
N47	N	1.039374	-0.114047	-0.186684
H48	H	0.970653	-0.140677	-0.186626
H49	H	1.042241	-0.017889	-0.186248
N50	N	1.226824	-0.309439	-0.186866
H51	H	1.224545	-0.405570	-0.186282
H52	H	1.197665	-0.280614	-0.253258
H53	H	1.038382	0.406203	0.519283
N54	N	1.204124	-0.281525	0.186727
H55	H	1.155187	-0.329756	0.230080
H56	H	1.261098	-0.339609	0.164205
