data_functionalizedCrystal
_audit_creation_method	'MofGen! by Chris Wilmer'
_symmetry_space_group_name_H-M	'P1'
_symmetry_Int_Tables_number	1
_symmetry_cell_setting	triclinic
loop_
_symmetry_equiv_pos_as_xyz
  x,y,z
_cell_length_a	14.971482
_cell_length_b	12.811415
_cell_length_c	11.295443
_cell_angle_alpha	79.999173
_cell_angle_beta	85.406332
_cell_angle_gamma	83.829015
loop_
_atom_site_label
_atom_site_type_symbol
_atom_site_fract_x
_atom_site_fract_y
_atom_site_fract_z
O1	O	1.193576	0.144073	-0.114567
O2	O	0.933319	0.160571	-0.116354
O3	O	1.069091	-0.001523	-0.098841
O4	O	1.057803	0.306167	-0.132080
O5	O	1.058210	-0.014252	0.100586
O6	O	0.922437	0.147842	0.083073
O7	O	1.182694	0.131343	0.084860
Cu8	Cu	1.051572	0.138430	0.102176
Cu9	Cu	1.064441	0.153484	-0.133670
O10	O	1.046922	0.293438	0.067348
C11	C	0.894547	0.153469	-0.016561
C12	C	0.795231	0.151261	-0.016325
C13	C	0.742645	0.143281	0.092496
C14	C	0.649329	0.141189	0.092724
C15	C	0.608598	0.147083	-0.015872
C16	C	0.661191	0.155060	-0.124702
C17	C	0.754506	0.157145	-0.124927
C18	C	0.466691	0.150717	-0.124225
C19	C	0.373368	0.148634	-0.124001
C20	C	0.361513	0.134761	0.093426
C21	C	0.454829	0.136846	0.093201
C22	C	0.507415	0.144824	-0.015630
C23	C	1.062684	-0.047264	0.005123
C24	C	1.059795	-0.164593	0.017790
C25	C	1.066215	-0.371177	-0.175849
C26	C	1.063501	-0.481418	-0.163953
C27	C	1.051647	-0.495317	0.053476
C28	C	1.054361	-0.385076	0.041580
C29	C	1.061646	-0.323010	-0.073086
C30	C	1.064367	-0.212768	-0.084980
C31	C	1.052506	-0.226668	0.132447
C32	C	1.049792	-0.336909	0.144343
C33	C	1.221466	0.138445	-0.014935
C34	C	1.320783	0.140655	-0.015179
C35	C	1.053329	0.339179	-0.036620
C36	C	1.056218	0.456508	-0.049294
N37	N	1.042528	0.127842	0.268058
N38	N	1.073492	0.164065	-0.299550
C39	C	0.977427	0.051633	0.463319
C40	C	0.984255	0.059632	0.337790
C41	C	1.093979	0.188054	0.323862
C42	C	1.087151	0.180056	0.449391
C43	C	1.028873	0.111844	0.519115
C44	C	1.022041	0.103852	0.644645
C45	C	1.131769	0.232268	0.630716
C46	C	1.138597	0.240267	0.505187
H47	H	0.487988	0.132052	0.181629
H48	H	1.072155	-0.320643	-0.269214
H49	H	0.509504	0.157214	-0.212846
H50	H	0.318693	0.128265	0.182039
F51	F	1.156006	0.260634	0.249639
H52	H	0.606519	0.134674	0.181339
F53	F	1.047652	-0.175399	0.241822
H54	H	1.045708	-0.545869	0.146832
H55	H	0.340208	0.153434	-0.212429
F56	F	0.929501	-0.004455	0.278413
F57	F	1.072124	-0.146714	-0.207016
H58	H	0.775800	0.138490	0.180928
H59	H	1.186048	0.295799	0.448401
H60	H	0.929967	-0.003898	0.520088
H61	H	1.173654	0.281303	0.676157
H62	H	0.974585	0.048314	0.701413
F63	F	1.068361	-0.532676	-0.273327
F64	F	0.810472	0.165633	-0.240750
F65	F	0.617843	0.161301	-0.240275
F66	F	1.042032	-0.402974	0.266372
