data_functionalizedCrystal
_audit_creation_method	'MofGen! by Chris Wilmer'
_symmetry_space_group_name_H-M	'P1'
_symmetry_Int_Tables_number	1
_symmetry_cell_setting	triclinic
loop_
_symmetry_equiv_pos_as_xyz
  x,y,z
_cell_length_a	27.732064
_cell_length_b	26.809956
_cell_length_c	27.732048
_cell_angle_alpha	89.990422
_cell_angle_beta	97.353960
_cell_angle_gamma	90.008415
loop_
_atom_site_label
_atom_site_type_symbol
_atom_site_fract_x
_atom_site_fract_y
_atom_site_fract_z
O1	O	0.640930	0.041396	-0.057554
O2	O	0.974263	0.374729	0.275779
O3	O	1.307597	0.708063	0.609113
O4	O	0.500138	0.041417	-0.066291
O5	O	0.833471	0.374751	0.267042
O6	O	1.166804	0.708084	0.600376
O7	O	0.574907	0.041396	0.008474
O8	O	0.908240	0.374730	0.341807
O9	O	1.241573	0.708063	0.675141
O10	O	0.566161	0.041417	-0.132319
O11	O	0.899495	0.374750	0.201014
O12	O	1.232828	0.708083	0.534348
O13	O	0.574884	-0.041563	0.008474
O14	O	0.908217	0.291770	0.341807
O15	O	1.241550	0.625104	0.675141
O16	O	0.500115	-0.041542	-0.066291
O17	O	0.833448	0.291791	0.267042
O18	O	1.166782	0.625125	0.600376
O19	O	0.640907	-0.041563	-0.057554
O20	O	0.974241	0.291770	0.275779
O21	O	1.307574	0.625103	0.609113
Zn22	Zn	0.570507	-0.054724	-0.061923
Zn23	Zn	0.903841	0.278609	0.271411
Zn24	Zn	1.237174	0.611942	0.604744
Zn25	Zn	0.570538	0.054578	-0.061923
Zn26	Zn	0.903871	0.387911	0.271411
Zn27	Zn	1.237204	0.721245	0.604744
O28	O	0.566138	-0.041543	-0.132319
O29	O	0.899472	0.291791	0.201014
O30	O	1.232805	0.625124	0.534348
C31	C	0.482120	-0.000060	-0.066106
C32	C	0.815453	0.333273	0.267227
C33	C	1.148786	0.666607	0.600560
C34	C	0.428465	-0.000052	-0.065551
C35	C	0.761798	0.333281	0.267783
C36	C	1.095132	0.666615	0.601116
N37	N	0.570490	-0.129320	-0.061922
N38	N	0.903824	0.204013	0.271411
N39	N	1.237157	0.537346	0.604744
C40	C	0.051392	-0.000087	-0.017583
C41	C	0.384726	0.333246	0.315750
C42	C	0.718059	0.666579	0.649083
C43	C	0.253053	-0.000074	-0.019630
C44	C	0.586386	0.333259	0.313704
C45	C	0.919719	0.666592	0.647037
O46	O	0.284305	-0.000098	0.017591
O47	O	0.617639	0.333235	0.350925
O48	O	0.950972	0.666568	0.684258
N49	N	0.272180	-0.000066	-0.063964
N50	N	0.605513	0.333268	0.269369
N51	N	0.938847	0.666601	0.602703
C52	C	0.240889	-0.000064	-0.107790
C53	C	0.574222	0.333270	0.225544
C54	C	0.907556	0.666603	0.558877
O55	O	0.261785	-0.000061	-0.145546
O56	O	0.595119	0.333272	0.187788
O57	O	0.928452	0.666606	0.521121
C58	C	0.039230	-0.000080	-0.105743
C59	C	0.372563	0.333253	0.227590
C60	C	0.705896	0.666586	0.560924
C61	C	0.020105	-0.000084	-0.061406
C62	C	0.353439	0.333249	0.271928
C63	C	0.686772	0.666583	0.605261
C64	C	0.032267	-0.000092	0.026750
C65	C	0.365601	0.333242	0.360084
C66	C	0.698934	0.666575	0.693417
C67	C	-0.018145	-0.000092	0.027261
C68	C	0.315189	0.333241	0.360595
C69	C	0.648522	0.666574	0.693928
C70	C	-0.049432	-0.000089	-0.016561
C71	C	0.283901	0.333245	0.316772
C72	C	0.617235	0.666578	0.650105
C73	C	-0.030307	-0.000085	-0.060895
C74	C	0.303026	0.333249	0.272439
C75	C	0.636360	0.666582	0.605772
C76	C	0.007940	-0.000082	-0.149568
C77	C	0.341273	0.333251	0.183765
C78	C	0.674606	0.666585	0.517098
C79	C	-0.042478	-0.000087	-0.149053
C80	C	0.290855	0.333246	0.184281
C81	C	0.624189	0.666579	0.517614
C82	C	-0.061602	-0.000091	-0.104716
C83	C	0.271731	0.333242	0.228618
C84	C	0.605064	0.666576	0.561951
C85	C	-0.112006	-0.000082	-0.104206
C86	C	0.221327	0.333252	0.229127
C87	C	0.554661	0.666585	0.562461
N88	N	-0.131134	-0.000090	-0.059872
N89	N	0.202200	0.333243	0.273461
N90	N	0.535533	0.666576	0.606795
C91	C	-0.099846	-0.000094	-0.016049
C92	C	0.233487	0.333240	0.317284
C93	C	0.566820	0.666573	0.650617
C94	C	0.346763	-0.000054	-0.108861
C95	C	0.680097	0.333280	0.224472
C96	C	1.013430	0.666613	0.557806
C97	C	0.397178	-0.000049	-0.109373
C98	C	0.730511	0.333285	0.223960
C99	C	1.063845	0.666618	0.557294
C100	C	0.409338	-0.000060	-0.021213
C101	C	0.742672	0.333273	0.312121
C102	C	1.076005	0.666606	0.645454
C103	C	0.358923	-0.000062	-0.020701
C104	C	0.692256	0.333272	0.312632
C105	C	1.025589	0.666605	0.645965
C106	C	0.327636	-0.000062	-0.064527
C107	C	0.660969	0.333271	0.268806
C108	C	0.994303	0.666604	0.602140
C109	C	-0.205716	-0.000095	-0.014979
C110	C	0.127617	0.333239	0.318354
C111	C	0.460951	0.666572	0.651687
C112	C	-0.256133	-0.000093	-0.014472
C113	C	0.077200	0.333240	0.318861
C114	C	0.410534	0.666574	0.652194
C115	C	-0.268289	-0.000084	-0.102632
C116	C	0.065045	0.333249	0.230701
C117	C	0.398378	0.666582	0.564034
C118	C	-0.217876	-0.000083	-0.103140
C119	C	0.115457	0.333250	0.230194
C120	C	0.448791	0.666584	0.563527
C121	C	-0.186590	-0.000090	-0.059309
C122	C	0.146743	0.333243	0.274024
C123	C	0.480076	0.666577	0.607357
O124	O	-0.143287	-0.000063	-0.141407
O125	O	0.190046	0.333270	0.191926
O126	O	0.523380	0.666603	0.525259
O127	O	-0.120752	-0.000107	0.021701
O128	O	0.212581	0.333226	0.355034
O129	O	0.545914	0.666559	0.688368
C130	C	0.101804	-0.000087	-0.018094
C131	C	0.435138	0.333246	0.315239
C132	C	0.768471	0.666580	0.648572
C133	C	0.120929	-0.000083	-0.062428
C134	C	0.454263	0.333251	0.270905
C135	C	0.787596	0.666584	0.604239
C136	C	0.089642	-0.000079	-0.106250
C137	C	0.422976	0.333254	0.227083
C138	C	0.756309	0.666587	0.560416
C139	C	0.171344	-0.000078	-0.062940
C140	C	0.504677	0.333256	0.270394
C141	C	0.838011	0.666589	0.603727
C142	C	0.202631	-0.000081	-0.019117
C143	C	0.535965	0.333252	0.314216
C144	C	0.869298	0.666585	0.647549
C145	C	0.183504	-0.000090	0.025217
C146	C	0.516837	0.333244	0.358550
C147	C	0.850170	0.666577	0.691884
C148	C	0.133092	-0.000090	0.025728
C149	C	0.466425	0.333243	0.359061
C150	C	0.799758	0.666576	0.692395
C151	C	0.108770	-0.000071	-0.150585
C152	C	0.442103	0.333263	0.182749
C153	C	0.775437	0.666596	0.516082
C154	C	0.159183	-0.000069	-0.151092
C155	C	0.492516	0.333264	0.182241
C156	C	0.825849	0.666597	0.515574
C157	C	0.190470	-0.000073	-0.107270
C158	C	0.523803	0.333260	0.226064
C159	C	0.857136	0.666594	0.559397
C160	C	0.599628	-0.473947	-0.091035
C161	C	0.932961	-0.140613	0.242298
C162	C	1.266295	0.192720	0.575632
C163	C	0.599644	-0.682824	-0.091035
C164	C	0.932977	-0.349491	0.242299
C165	C	1.266310	-0.016158	0.575632
O166	O	0.624404	-0.709828	-0.115782
O167	O	0.957738	-0.376495	0.217551
O168	O	1.291071	-0.043162	0.550885
N169	N	0.570549	-0.708947	-0.061918
N170	N	0.903882	-0.375614	0.271416
N171	N	1.237216	-0.042281	0.604749
C172	C	0.541451	-0.682848	-0.032796
C173	C	0.874785	-0.349514	0.300537
C174	C	1.208118	-0.016181	0.633870
O175	O	0.516709	-0.709860	-0.008027
O176	O	0.850042	-0.376527	0.325307
O177	O	1.183375	-0.043193	0.658640
C178	C	0.541439	-0.473971	-0.032794
C179	C	0.874772	-0.140638	0.300539
C180	C	1.208105	0.192696	0.633872
C181	C	0.570531	-0.447851	-0.061917
C182	C	0.903864	-0.114517	0.271416
C183	C	1.237198	0.218816	0.604750
C184	C	0.628718	-0.447826	-0.120155
C185	C	0.962052	-0.114493	0.213178
C186	C	1.295385	0.218841	0.546512
C187	C	0.628712	-0.395610	-0.120157
C188	C	0.962046	-0.062277	0.213177
C189	C	1.295379	0.271057	0.546510
C190	C	0.599615	-0.369514	-0.091039
C191	C	0.932949	-0.036181	0.242295
C192	C	1.266282	0.297153	0.575628
C193	C	0.570525	-0.395634	-0.061919
C194	C	0.903858	-0.062301	0.271414
C195	C	1.237192	0.271032	0.604748
C196	C	0.512344	-0.447872	-0.003671
C197	C	0.845677	-0.114539	0.329663
C198	C	1.179010	0.218794	0.662996
C199	C	0.512344	-0.395650	-0.003672
C200	C	0.845677	-0.062317	0.329661
C201	C	1.179011	0.271017	0.662995
C202	C	0.541436	-0.369530	-0.032795
C203	C	0.874770	-0.036196	0.300539
C204	C	1.208103	0.297137	0.633872
C205	C	0.541422	-0.317322	-0.032803
C206	C	0.874755	0.016011	0.300531
C207	C	1.208089	0.349344	0.633864
N208	N	0.570516	-0.291199	-0.061920
N209	N	0.903850	0.042134	0.271414
N210	N	1.237183	0.375468	0.604747
C211	C	0.599613	-0.317295	-0.091038
C212	C	0.932946	0.016038	0.242296
C213	C	1.266280	0.349372	0.575629
C214	C	0.541459	-0.792511	-0.032800
C215	C	0.874793	-0.459178	0.300533
C216	C	1.208126	-0.125844	0.633867
C217	C	0.541462	-0.844730	-0.032801
C218	C	0.874795	-0.511397	0.300532
C219	C	1.208128	-0.178063	0.633866
C220	C	0.599655	-0.844703	-0.091039
C221	C	0.932988	-0.511370	0.242295
C222	C	1.266321	-0.178036	0.575628
C223	C	0.599649	-0.792483	-0.091040
C224	C	0.932983	-0.459150	0.242293
C225	C	1.266316	-0.125816	0.575627
C226	C	0.570554	-0.766388	-0.061917
C227	C	0.903887	-0.433055	0.271416
C228	C	1.237220	-0.099721	0.604750
C229	C	0.599598	-0.207637	-0.091040
C230	C	0.932931	0.125696	0.242294
C231	C	1.266264	0.459030	0.575627
C232	C	0.599587	-0.155416	-0.091040
C233	C	0.932921	0.177917	0.242293
C234	C	1.266254	0.511251	0.575626
C235	C	0.541396	-0.155448	-0.032801
C236	C	0.874730	0.177886	0.300533
C237	C	1.208063	0.511219	0.633866
C238	C	0.541404	-0.207664	-0.032802
C239	C	0.874738	0.125669	0.300532
C240	C	1.208071	0.459003	0.633865
C241	C	0.570509	-0.233757	-0.061923
C242	C	0.903842	0.099576	0.271411
C243	C	1.237176	0.432909	0.604744
O244	O	0.516678	-0.290286	-0.008064
O245	O	0.850011	0.043047	0.325269
O246	O	1.183345	0.376381	0.658603
O247	O	0.624360	-0.290274	-0.115795
O248	O	0.957693	0.043059	0.217538
O249	O	1.291027	0.376393	0.550871
C250	C	0.599634	-0.526163	-0.091033
C251	C	0.932967	-0.192830	0.242300
C252	C	1.266301	0.140504	0.575633
C253	C	0.570543	-0.552283	-0.061913
C254	C	0.903877	-0.218950	0.271420
C255	C	1.237210	0.114383	0.604753
C256	C	0.541447	-0.526187	-0.032795
C257	C	0.874780	-0.192854	0.300538
C258	C	1.208113	0.140479	0.633871
C259	C	0.570546	-0.604502	-0.061914
C260	C	0.903879	-0.271169	0.271419
C261	C	1.237213	0.062164	0.604752
C262	C	0.599643	-0.630598	-0.091032
C263	C	0.932976	-0.297265	0.242301
C264	C	1.266309	0.036069	0.575634
C265	C	0.628737	-0.604475	-0.120150
C266	C	0.962070	-0.271142	0.213184
C267	C	1.295404	0.062192	0.546517
C268	C	0.628731	-0.552259	-0.120151
C269	C	0.962064	-0.218925	0.213182
C270	C	1.295398	0.114408	0.546515
C271	C	0.512352	-0.552310	-0.003678
C272	C	0.845686	-0.218977	0.329655
C273	C	1.179019	0.114356	0.662988
C274	C	0.512360	-0.604527	-0.003679
C275	C	0.845694	-0.271193	0.329654
C276	C	1.179027	0.062140	0.662987
C277	C	0.541457	-0.630623	-0.032797
C278	C	0.874791	-0.297289	0.300536
C279	C	1.208124	0.036044	0.633869
C280	C	0.658925	-0.000085	-0.057739
C281	C	0.992259	0.333248	0.275595
C282	C	1.325592	0.666581	0.608928
C283	C	0.712580	-0.000090	-0.058295
C284	C	1.045913	0.333244	0.275039
C285	C	1.379247	0.666577	0.608372
C286	C	0.574712	-0.000085	0.026481
C287	C	0.908045	0.333249	0.359814
C288	C	1.241378	0.666582	0.693147
C289	C	0.574159	-0.000089	0.080136
C290	C	0.907492	0.333245	0.413469
C291	C	1.240826	0.666578	0.746802
N292	N	0.570558	0.129174	-0.061919
N293	N	0.903892	0.462507	0.271414
N294	N	1.237225	0.795841	0.604748
C295	C	0.566333	-0.000060	-0.150326
C296	C	0.899667	0.333273	0.183007
C297	C	1.233000	0.666606	0.516341
C298	C	0.566886	-0.000053	-0.203981
C299	C	0.900219	0.333280	0.129352
C300	C	1.233553	0.666613	0.462686
C301	C	0.614862	-0.000069	0.418948
C302	C	0.948196	0.333264	0.752282
C303	C	1.281529	0.666598	1.085615
C304	C	0.612811	-0.000062	0.620608
C305	C	0.946145	0.333271	0.953941
C306	C	1.279478	0.666605	1.287275
O307	O	0.650032	-0.000046	0.651862
O308	O	0.983365	0.333288	0.985195
O309	O	1.316698	0.666621	1.318528
N310	N	0.568476	-0.000056	0.639735
N311	N	0.901810	0.333278	0.973068
N312	N	1.235143	0.666611	1.306401
C313	C	0.524651	-0.000048	0.608442
C314	C	0.857985	0.333285	0.941776
C315	C	1.191318	0.666619	1.275109
O316	O	0.486895	-0.000037	0.629338
O317	O	0.820228	0.333296	0.962671
O318	O	1.153561	0.666629	1.296004
C319	C	0.526703	-0.000052	0.406784
C320	C	0.860036	0.333282	0.740117
C321	C	1.193369	0.666615	1.073450
C322	C	0.571040	-0.000063	0.387660
C323	C	0.904374	0.333270	0.720994
C324	C	1.237707	0.666604	1.054327
C325	C	0.659196	-0.000080	0.399824
C326	C	0.992530	0.333253	0.733158
C327	C	1.325863	0.666587	1.066491
C328	C	0.659709	-0.000084	0.349412
C329	C	0.993042	0.333249	0.682746
C330	C	1.326375	0.666582	1.016079
C331	C	0.615887	-0.000078	0.318124
C332	C	0.949220	0.333255	0.651458
C333	C	1.282553	0.666588	0.984791
C334	C	0.571553	-0.000067	0.337248
C335	C	0.904886	0.333266	0.670582
C336	C	1.238219	0.666599	1.003915
C337	C	0.482878	-0.000040	0.375493
C338	C	0.816211	0.333293	0.708826
C339	C	1.149545	0.666626	1.042159
C340	C	0.483395	-0.000040	0.325075
C341	C	0.816728	0.333293	0.658409
C342	C	1.150062	0.666627	0.991742
C343	C	0.527733	-0.000051	0.305952
C344	C	0.861066	0.333282	0.639285
C345	C	1.194399	0.666615	0.972619
C346	C	0.528243	-0.000066	0.255548
C347	C	0.861576	0.333268	0.588882
C348	C	1.194910	0.666601	0.922215
N349	N	0.572578	-0.000072	0.236422
N350	N	0.905911	0.333261	0.569755
N351	N	1.239245	0.666595	0.903089
C352	C	0.616400	-0.000078	0.267710
C353	C	0.949733	0.333255	0.601043
C354	C	1.283066	0.666588	0.934377
C355	C	0.523577	-0.000047	0.714317
C356	C	0.856911	0.333286	1.047650
C357	C	1.190244	0.666620	1.380983
C358	C	0.523064	-0.000047	0.764731
C359	C	0.856398	0.333286	1.098064
C360	C	1.189731	0.666620	1.431398
C361	C	0.611225	-0.000060	0.776893
C362	C	0.944558	0.333273	1.110227
C363	C	1.277891	0.666607	1.443560
C364	C	0.611737	-0.000064	0.726478
C365	C	0.945070	0.333270	1.059811
C366	C	1.278404	0.666603	1.393145
C367	C	0.567912	-0.000053	0.695190
C368	C	0.901245	0.333280	1.028524
C369	C	1.234579	0.666613	1.361857
C370	C	0.617472	-0.000088	0.161841
C371	C	0.950806	0.333245	0.495174
C372	C	1.284139	0.666578	0.828507
C373	C	0.617981	-0.000095	0.111424
C374	C	0.951314	0.333239	0.444757
C375	C	1.284647	0.666572	0.778090
C376	C	0.529821	-0.000079	0.099266
C377	C	0.863154	0.333254	0.432599
C378	C	1.196487	0.666587	0.765933
C379	C	0.529312	-0.000075	0.149679
C380	C	0.862645	0.333258	0.483012
C381	C	1.195979	0.666591	0.816345
C382	C	0.573142	-0.000078	0.180965
C383	C	0.906475	0.333255	0.514299
C384	C	1.239808	0.666589	0.847632
O385	O	0.491043	-0.000076	0.224267
O386	O	0.824376	0.333257	0.557600
O387	O	1.157709	0.666590	0.890933
O388	O	0.654151	-0.000078	0.246805
O389	O	0.987484	0.333256	0.580139
O390	O	1.320818	0.666589	0.913472
C391	C	0.614350	-0.000065	0.469360
C392	C	0.947683	0.333269	0.802694
C393	C	1.281017	0.666602	1.136027
C394	C	0.570016	-0.000054	0.488484
C395	C	0.903349	0.333279	0.821818
C396	C	1.236683	0.666613	1.155151
C397	C	0.526194	-0.000048	0.457196
C398	C	0.859527	0.333286	0.790530
C399	C	1.192861	0.666619	1.123863
C400	C	0.569503	-0.000054	0.538899
C401	C	0.902836	0.333279	0.872232
C402	C	1.236170	0.666613	1.205565
C403	C	0.613325	-0.000060	0.570187
C404	C	0.946658	0.333273	0.903520
C405	C	1.279991	0.666607	1.236853
C406	C	0.657660	-0.000066	0.551060
C407	C	0.990993	0.333267	0.884394
C408	C	1.324326	0.666600	1.217727
C409	C	0.658172	-0.000071	0.500648
C410	C	0.991505	0.333263	0.833982
C411	C	1.324839	0.666596	1.167315
C412	C	0.481859	-0.000041	0.476323
C413	C	0.815193	0.333292	0.809656
C414	C	1.148526	0.666625	1.142989
C415	C	0.481351	-0.000037	0.526735
C416	C	0.814684	0.333296	0.860068
C417	C	1.148017	0.666629	1.193402
C418	C	0.525172	-0.000044	0.558023
C419	C	0.858506	0.333290	0.891357
C420	C	1.191839	0.666623	1.224690
H421	H	-0.271701	-0.000095	0.021634
H422	H	0.061632	0.333239	0.354967
H423	H	0.394966	0.666572	0.688301
H424	H	0.652426	-0.625731	-0.143861
H425	H	0.985760	-0.292398	0.189472
H426	H	1.319093	0.040935	0.522806
F427	F	0.659693	-0.524466	-0.151150
F428	F	0.993026	-0.191133	0.182183
F429	F	1.326360	0.142201	0.515516
F430	F	0.481379	-0.367881	0.027329
F431	F	0.814712	-0.034547	0.360663
F432	F	1.148045	0.298786	0.693996
H433	H	0.083300	-0.000068	-0.186271
H434	H	0.416634	0.333265	0.147062
H435	H	0.749967	0.666598	0.480396
F436	F	-0.172426	-0.000102	0.031670
F437	F	0.160907	0.333232	0.365003
F438	F	0.494240	0.666565	0.698337
F439	F	0.630623	-0.872485	-0.122028
F440	F	0.963956	-0.539152	0.211305
F441	F	1.297289	-0.205818	0.544639
F442	F	0.510490	-0.872524	-0.001812
F443	F	0.843824	-0.539190	0.331522
F444	F	1.177157	-0.205857	0.664855
F445	F	0.510482	-0.764745	-0.001808
F446	F	0.843815	-0.431412	0.331525
F447	F	1.177149	-0.098078	0.664858
F448	F	0.630550	-0.127620	-0.122041
F449	F	0.963883	0.205714	0.211292
F450	F	1.297216	0.539047	0.544626
F451	F	0.510430	-0.127665	-0.001814
F452	F	0.843763	0.205668	0.331519
F453	F	1.177096	0.539001	0.664853
H454	H	-0.033711	-0.000097	0.063365
H455	H	0.299623	0.333236	0.396698
H456	H	0.632956	0.666569	0.730032
F457	F	0.657863	-0.000066	0.810201
F458	F	0.991197	0.333268	1.143534
F459	F	1.324530	0.666601	1.476868
F460	F	0.112745	-0.000092	0.072918
F461	F	0.446078	0.333241	0.406251
F462	F	0.779411	0.666574	0.739585
H463	H	0.623297	-0.228876	-0.114752
H464	H	0.956631	0.104457	0.218581
H465	H	1.289964	0.437791	0.551914
H466	H	0.652405	-0.374347	-0.143869
H467	H	0.985738	-0.041014	0.189464
H468	H	1.319071	0.292319	0.522797
F469	F	-0.301595	-0.000078	-0.149269
F470	F	0.031738	0.333256	0.184065
F471	F	0.365071	0.666589	0.517398
H472	H	0.652415	-0.469068	-0.143866
H473	H	0.985748	-0.135735	0.189467
H474	H	1.319082	0.197599	0.522800
F475	F	0.705842	-0.000086	0.433117
F476	F	1.039175	0.333247	0.766450
F477	F	1.372509	0.666581	1.099784
H478	H	0.694276	-0.000080	0.485083
H479	H	1.027609	0.333253	0.818417
H480	H	1.360943	0.666587	1.151750
H481	H	0.488659	-0.531068	0.020034
H482	H	0.821992	-0.197735	0.353368
H483	H	1.155325	0.135598	0.686701
H484	H	0.208987	-0.000090	0.060899
H485	H	0.542320	0.333244	0.394232
H486	H	0.875653	0.666577	0.727565
H487	H	-0.202304	-0.000080	-0.139243
H488	H	0.131029	0.333254	0.194091
H489	H	0.464362	0.666587	0.527424
F490	F	0.475874	-0.000044	0.785078
F491	F	0.809208	0.333289	1.118411
F492	F	1.142541	0.666623	1.451744
H493	H	0.446173	-0.000035	0.450852
H494	H	0.779507	0.333298	0.784185
H495	H	1.112840	0.666631	1.117519
H496	H	0.693341	-0.000074	0.576544
H497	H	1.026674	0.333260	0.909877
H498	H	1.360008	0.666593	1.243211
H499	H	0.488654	-0.469131	0.020045
H500	H	0.821987	-0.135797	0.353378
H501	H	1.155320	0.197536	0.686711
H502	H	0.057737	-0.000096	0.062438
H503	H	0.391070	0.333237	0.395771
H504	H	0.724404	0.666571	0.729104
F505	F	0.338574	-0.000067	0.026488
F506	F	0.671907	0.333266	0.359821
F507	F	1.005240	0.666599	0.693154
H508	H	0.654087	-0.000105	0.095857
H509	H	0.987421	0.333228	0.429190
H510	H	1.320754	0.666561	0.762523
H511	H	0.174748	-0.000063	-0.187200
H512	H	0.508082	0.333270	0.146134
H513	H	0.841415	0.666604	0.479467
H514	H	-0.067950	-0.000090	-0.184742
H515	H	0.265384	0.333243	0.148592
H516	H	0.598717	0.666576	0.481925
H517	H	0.623339	-0.771219	-0.114755
H518	H	0.956672	-0.437886	0.218579
H519	H	1.290005	-0.104553	0.551912
F520	F	0.028282	-0.000078	-0.196759
F521	F	0.361615	0.333255	0.136575
F522	F	0.694949	0.666589	0.469908
F523	F	0.510436	-0.235464	-0.001811
F524	F	0.843770	0.097869	0.331522
F525	F	1.177103	0.431202	0.664855
F526	F	0.481391	-0.632320	0.027316
F527	F	0.814724	-0.298987	0.360650
F528	F	1.148058	0.034346	0.693983
H529	H	0.434821	-0.000061	0.014469
H530	H	0.768154	0.333272	0.347803
H531	H	1.101488	0.666605	0.681136
H532	H	0.653163	-0.000089	0.187309
H533	H	0.986496	0.333245	0.520642
H534	H	1.319829	0.666578	0.853976
H535	H	0.695813	-0.000092	0.333847
H536	H	1.029146	0.333242	0.667181
H537	H	1.362480	0.666575	1.000514
H538	H	0.647841	-0.000072	0.710911
H539	H	0.981174	0.333261	1.044245
H540	H	1.314507	0.666594	1.377578
H541	H	0.446774	-0.000028	0.391054
H542	H	0.780107	0.333305	0.724387
H543	H	1.113440	0.666638	1.057720
H544	H	0.412744	-0.000039	-0.145477
H545	H	0.746078	0.333295	0.187857
H546	H	1.079411	0.666628	0.521190
F547	F	0.476930	-0.000036	0.681023
F548	F	0.810263	0.333297	1.014357
F549	F	1.143596	0.666631	1.347690
H550	H	0.447706	-0.000031	0.299603
H551	H	0.781040	0.333302	0.632936
H552	H	1.114373	0.666636	0.966269
F553	F	0.482123	-0.000072	0.170032
F554	F	0.815457	0.333261	0.503365
F555	F	1.148790	0.666595	0.836698
H556	H	0.494142	-0.000076	0.073782
H557	H	0.827476	0.333257	0.407116
H558	H	1.160809	0.666591	0.740449
F559	F	0.313471	-0.000051	-0.155510
F560	F	0.646804	0.333282	0.177824
F561	F	0.980138	0.666615	0.511157
H562	H	0.445243	-0.000033	0.542300
H563	H	0.778576	0.333301	0.875633
H564	H	1.111909	0.666634	1.208967
