data_functionalizedCrystal
_audit_creation_method	'MofGen! by Chris Wilmer'
_symmetry_space_group_name_H-M	'P1'
_symmetry_Int_Tables_number	1
_symmetry_cell_setting	triclinic
loop_
_symmetry_equiv_pos_as_xyz
  x,y,z
_cell_length_a	12.759401
_cell_length_b	19.805405
_cell_length_c	12.759393
_cell_angle_alpha	89.963446
_cell_angle_beta	89.979062
_cell_angle_gamma	90.027935
loop_
_atom_site_label
_atom_site_type_symbol
_atom_site_fract_x
_atom_site_fract_y
_atom_site_fract_z
Zn1	Zn	1.606181	-0.269403	-0.593976
Zn2	Zn	1.606036	-0.382606	-0.418277
Zn3	Zn	1.430480	-0.269439	-0.418311
Zn4	Zn	1.430436	-0.382558	-0.593915
O5	O	1.518283	-0.326001	-0.506120
O6	O	1.753183	-0.284424	-0.570681
O7	O	1.582706	-0.367629	-0.271261
O8	O	1.453866	-0.174718	-0.441653
O9	O	1.753076	-0.367594	-0.441596
O10	O	1.582953	-0.174691	-0.570713
O11	O	1.453725	-0.284486	-0.271285
O12	O	1.283453	-0.284440	-0.441594
O13	O	1.453791	-0.367513	-0.740944
O14	O	1.283420	-0.367548	-0.570609
O15	O	1.582910	-0.284378	-0.740989
O16	O	1.582663	-0.477316	-0.441536
O17	O	1.453650	-0.477281	-0.570576
C18	C	1.245316	-0.325993	-0.506099
C19	C	1.128539	-0.326006	-0.506115
C20	C	1.073688	-0.369346	-0.573187
C21	C	0.963964	-0.369349	-0.573208
C22	C	0.963952	-0.282669	-0.439075
C23	C	1.073674	-0.282663	-0.439060
C24	C	1.518165	-0.501858	-0.506069
C25	C	1.518210	-0.577089	-0.506082
C26	C	1.585453	-0.612429	-0.438962
C27	C	1.585497	-0.683118	-0.438985
C28	C	1.518294	-0.718465	-0.506124
C29	C	1.451048	-0.683120	-0.573252
C30	C	1.451010	-0.612433	-0.573234
C31	C	1.451203	-0.968194	-0.573330
C32	C	1.451245	-1.038886	-0.573342
C33	C	1.585691	-1.038878	-0.439081
C34	C	1.585652	-0.968191	-0.439063
C35	C	1.518411	-0.932852	-0.506194
C36	C	1.518365	-0.856204	-0.506170
C37	C	1.518334	-0.795112	-0.506144
C38	C	1.792316	-0.326010	-0.506141
C39	C	1.909093	-0.326014	-0.506150
C40	C	1.518362	-0.325936	-0.780153
C41	C	1.518395	-0.325909	-0.896930
C42	C	1.518430	-0.149459	-0.506194
C43	C	1.518493	-0.074227	-0.506225
C44	C	1.585633	-0.282614	-0.951817
C45	C	1.585650	-0.282584	-1.061541
C46	C	1.451190	-0.369151	-1.061481
C47	C	1.451168	-0.369177	-0.951759
C48	C	1.518265	-0.326017	-0.233152
C49	C	1.518435	-0.325854	-0.116376
H50	H	0.919309	-0.404640	-0.627827
H51	H	1.640370	-0.247380	-0.907178
C52	C	1.377120	-0.722005	-0.647103
N53	N	1.321431	-0.751292	-0.702725
H54	H	0.919267	-0.247382	-0.384480
C55	C	1.134014	-0.234983	-0.365271
N56	N	1.179462	-0.199071	-0.309697
H57	H	1.640173	-0.583654	-0.384284
H58	H	1.640446	-1.067659	-0.384424
H59	H	1.640400	-0.247328	-1.106225
H60	H	1.396521	-1.067663	-0.628022
H61	H	1.396408	-0.404432	-0.907069
C62	C	1.134035	-0.417019	-0.646957
N63	N	1.179486	-0.452926	-0.702526
C64	C	1.659463	-0.721988	-0.365140
N65	N	1.715175	-0.751265	-0.309515
H66	H	1.640372	-0.939413	-0.384388
C67	C	1.377243	-0.416742	-1.121804
N68	N	1.321543	-0.452589	-1.167238
C69	C	1.377290	-0.929330	-0.647231
N70	N	1.321634	-0.900056	-0.702916
H71	H	1.396256	-0.583660	-0.627892
