data_functionalizedCrystal
_audit_creation_method	'MofGen! by Chris Wilmer'
_symmetry_space_group_name_H-M	'P1'
_symmetry_Int_Tables_number	1
_symmetry_cell_setting	triclinic
loop_
_symmetry_equiv_pos_as_xyz
  x,y,z
_cell_length_a	13.033286
_cell_length_b	14.908178
_cell_length_c	13.032268
_cell_angle_alpha	93.450130
_cell_angle_beta	105.163409
_cell_angle_gamma	86.543831
loop_
_atom_site_label
_atom_site_type_symbol
_atom_site_fract_x
_atom_site_fract_y
_atom_site_fract_z
Zn1	Zn	1.513991	-0.564513	-0.360388
Zn2	Zn	1.528608	-0.696675	-0.174946
Zn3	Zn	1.360928	-0.531011	-0.207387
Zn4	Zn	1.328524	-0.696640	-0.375102
O5	O	1.433013	-0.622210	-0.279456
O6	O	1.663723	-0.596080	-0.316055
O7	O	1.526043	-0.660693	-0.031452
O8	O	1.388676	-0.410829	-0.235102
O9	O	1.674462	-0.693178	-0.179811
O10	O	1.501131	-0.435443	-0.347512
O11	O	1.402849	-0.538981	-0.055286
O12	O	1.208836	-0.538947	-0.249369
O13	O	1.333449	-0.693119	-0.520948
O14	O	1.185030	-0.660634	-0.372589
O15	O	1.469710	-0.596046	-0.510138
O16	O	1.494622	-0.821296	-0.194078
O17	O	1.347622	-0.821271	-0.341132
C18	C	1.158612	-0.596152	-0.316096
C19	C	1.041217	-0.585028	-0.331795
C20	C	0.994211	-0.628018	-0.271289
C21	C	0.872878	-0.616522	-0.287513
C22	C	1.419217	-0.853603	-0.265700
C23	C	1.413408	-0.952606	-0.259838
C24	C	1.519468	-1.164128	-0.366033
C25	C	1.514013	-1.257151	-0.360528
C26	C	1.397036	-1.231677	-0.243330
C27	C	1.402491	-1.138654	-0.248835
C28	C	1.463711	-1.104883	-0.310187
C29	C	1.469172	-1.011858	-0.315686
C30	C	1.352189	-0.986386	-0.198494
C31	C	1.346734	-1.079409	-0.192989
C32	C	1.708485	-0.648370	-0.242673
C33	C	1.825875	-0.659518	-0.226998
C34	C	1.396334	-0.648316	-0.554937
C35	C	1.380704	-0.659440	-0.672330
C36	C	1.446887	-0.389918	-0.293284
C37	C	1.452800	-0.290930	-0.299177
C38	C	1.441156	-0.616370	-0.719319
C39	C	1.425003	-0.627867	-0.840651
C40	C	1.469613	-0.596147	-0.005042
C41	C	1.485462	-0.584791	0.112363
H42	H	1.043793	-0.673337	-0.207480
F43	F	0.808078	-0.557291	-0.370932
F44	F	1.568757	-0.525474	-0.822820
H45	H	1.504865	-0.570981	-0.669723
H46	H	1.361279	-0.673249	-0.890246
H47	H	1.316985	-0.704819	-0.721928
F48	F	1.281575	-1.115361	-0.127705
F49	F	0.890671	-0.718760	-0.143589
H50	H	1.569324	-1.136632	-0.415980
H51	H	1.559410	-1.305386	-0.406009
F52	F	0.976413	-0.525801	-0.415210
F53	F	1.331863	-1.267635	-0.178064
F54	F	1.534330	-0.975918	-0.380978
H55	H	1.306791	-0.938138	-0.153017
