data_functionalizedCrystal
_audit_creation_method	'MofGen! by Chris Wilmer'
_symmetry_space_group_name_H-M	'P1'
_symmetry_Int_Tables_number	1
_symmetry_cell_setting	triclinic
loop_
_symmetry_equiv_pos_as_xyz
  x,y,z
_cell_length_a	8.497365
_cell_length_b	19.077409
_cell_length_c	19.077068
_cell_angle_alpha	85.466866
_cell_angle_beta	87.757695
_cell_angle_gamma	92.258502
loop_
_atom_site_label
_atom_site_type_symbol
_atom_site_fract_x
_atom_site_fract_y
_atom_site_fract_z
Zn1	Zn	-0.817621	1.066524	0.237156
Zn2	Zn	-0.564851	1.061664	0.355105
Zn3	Zn	-0.564854	0.948605	0.241972
Zn4	Zn	-0.839562	0.943867	0.359745
O5	O	-0.696722	1.005165	0.298494
O6	O	-0.774907	1.164527	0.248845
O7	O	-0.344100	1.046615	0.340171
O8	O	-0.589203	0.968264	0.142682
O9	O	-0.589198	1.160956	0.335502
O10	O	-0.774910	1.054899	0.139144
O11	O	-0.344102	0.963551	0.257053
O12	O	-0.610479	0.849329	0.261552
O13	O	-1.057403	0.960189	0.343410
O14	O	-0.812305	0.845848	0.348079
O15	O	-1.041283	1.050305	0.253344
O16	O	-0.610474	1.042021	0.454371
O17	O	-0.812303	0.955476	0.457780
C18	C	-0.713774	0.822010	0.305842
C19	C	-0.721108	0.743655	0.309002
C20	C	-0.713801	0.997726	0.481654
C21	C	-0.721154	0.994608	0.560008
C22	C	-0.773777	0.302407	0.331612
C23	C	-0.766857	0.376030	0.328648
C24	C	-0.658478	0.414634	0.282043
C25	C	-0.557000	0.379611	0.238405
C26	C	-0.563913	0.305989	0.241373
C27	C	-0.626544	0.635011	0.268332
C28	C	-0.619641	0.708637	0.265365
C29	C	-0.829498	0.705051	0.355610
C30	C	-0.836408	0.631429	0.358571
C31	C	-0.734925	0.596412	0.314935
N32	N	-0.651405	0.489888	0.279011
N33	N	-0.741990	0.521159	0.317972
C34	C	-0.286854	1.005111	0.298573
C35	C	-0.108188	1.005217	0.298425
C36	C	-0.679605	1.189035	0.291119
C37	C	-0.672311	1.267389	0.287976
C38	C	-0.679610	1.012652	0.114619
C39	C	-0.672317	1.015843	0.036262
C40	C	-0.619608	1.038237	0.595019
C41	C	-0.626533	1.035309	0.668641
C42	C	-0.734998	0.988747	0.707250
C43	C	-0.836555	0.945116	0.672234
C44	C	-0.829637	0.948048	0.598613
C45	C	-0.766956	0.975144	0.927625
C46	C	-0.773864	0.972214	1.001251
C47	C	-0.563842	1.062408	0.997653
C48	C	-0.556927	1.065333	0.924031
C49	C	-0.658490	1.021705	0.889021
N50	N	-0.742075	0.985751	0.782503
N51	N	-0.651419	1.024705	0.813769
H52	H	-0.862040	0.270981	0.369559
C53	C	-0.955612	0.588963	0.409842
C54	C	-1.081484	0.539629	0.381383
C55	C	-1.200690	0.497161	0.432652
C56	C	-1.194024	0.504026	0.512381
C57	C	-1.068147	0.553361	0.540843
C58	C	-0.948941	0.595830	0.489574
H59	H	-1.086423	0.534545	0.322360
H60	H	-1.293873	0.460639	0.411582
H61	H	-1.282267	0.472588	0.550333
H62	H	-1.063208	0.558445	0.599867
H63	H	-0.855759	0.632351	0.510644
C64	C	-0.500295	1.089457	0.552552
C65	C	-0.374471	1.060944	0.503257
C66	C	-0.255160	1.112168	0.460791
C67	C	-0.261671	1.191904	0.467621
C68	C	-0.387500	1.220421	0.516918
C69	C	-0.506811	1.169198	0.559383
H70	H	-0.369647	1.001915	0.498199
H71	H	-0.162013	1.091057	0.424298
H72	H	-0.173350	1.229823	0.436185
H73	H	-0.392325	1.279451	0.521975
H74	H	-0.599958	1.190309	0.595876
C75	C	-0.941112	0.743571	0.403612
C76	C	-0.872949	0.791915	0.456893
C77	C	-0.984564	0.830434	0.504900
C78	C	-1.164342	0.820610	0.499625
C79	C	-1.232515	0.772264	0.446341
C80	C	-1.120899	0.733745	0.398335
H81	H	-0.739858	0.799189	0.460800
H82	H	-0.934097	0.866223	0.544344
H83	H	-1.246966	0.849124	0.535162
H84	H	-1.365606	0.764990	0.442434
H85	H	-1.171366	0.697956	0.358891
H86	H	-0.543903	0.606509	0.232803
H87	H	-0.481158	1.097929	1.026166
H88	H	-0.924876	0.907208	0.703675
H89	H	-0.531396	0.740067	0.227405
C90	C	-0.437779	0.422072	0.187138
C91	C	-0.430175	0.503053	0.183868
C92	C	-0.310955	0.545513	0.132598
C93	C	-0.199339	0.506992	0.084600
C94	C	-0.206940	0.426007	0.087869
C95	C	-0.326160	0.383547	0.139138
H96	H	-0.512803	0.531573	0.219401
H97	H	-0.305329	0.605464	0.130179
H98	H	-0.111085	0.538424	0.046647
H99	H	-0.124312	0.397487	0.052336
H100	H	-0.331786	0.323596	0.141558
C101	C	-0.452307	0.267465	0.193369
C102	C	-0.457067	0.280836	0.112825
C103	C	-0.345454	0.242312	0.064822
C104	C	-0.229082	0.190417	0.097362
C105	C	-0.224318	0.177044	0.177910
C106	C	-0.335931	0.215568	0.225914
H107	H	-0.543217	0.319254	0.088733
H108	H	-0.348982	0.252212	0.005194
H109	H	-0.146460	0.161900	0.061827
H110	H	-0.138169	0.138626	0.202003
H111	H	-0.332404	0.205668	0.285541
H112	H	-0.543842	1.070836	0.697144
C113	C	-0.437623	1.116557	0.881562
C114	C	-0.325927	1.164553	0.920073
C115	C	-0.206618	1.215775	0.877605
C116	C	-0.199006	1.219002	0.796625
C117	C	-0.310705	1.171004	0.758110
C118	C	-0.430014	1.119781	0.800578
H119	H	-0.331559	1.162166	0.980024
H120	H	-0.123931	1.251306	0.906117
H121	H	-0.110686	1.256920	0.765187
H122	H	-0.305074	1.173390	0.698159
H123	H	-0.512701	1.084250	0.772066
C124	C	-0.893186	0.920994	1.043723
C125	C	-1.004903	0.873004	1.005216
C126	C	-1.124214	0.821785	1.047688
C127	C	-1.131807	0.818557	1.128668
C128	C	-1.020085	0.866549	1.167180
C129	C	-0.900775	0.917767	1.124707
H130	H	-0.999286	0.875392	0.945265
H131	H	-1.206917	0.786259	1.019179
H132	H	-1.220127	0.780642	1.160109
H133	H	-1.025703	0.864160	1.227130
H134	H	-0.818072	0.953294	1.153217
C135	C	-0.878677	0.927152	0.889125
C136	C	-0.874085	0.846608	0.902543
C137	C	-0.985817	0.798614	0.864041
C138	C	-1.102141	0.831162	0.812122
C139	C	-1.106738	0.911710	0.798702
C140	C	-0.995006	0.959705	0.837203
H141	H	-0.787971	0.822510	0.940978
H142	H	-0.982414	0.738987	0.873976
H143	H	-1.184852	0.795634	0.783621
H144	H	-1.192852	0.935808	0.760266
H145	H	-0.998409	1.019331	0.827269
H146	H	-0.912329	0.912522	0.570108
H147	H	-0.849479	0.404538	0.364184
