data_functionalizedCrystal
_audit_creation_method	'MofGen! by Chris Wilmer'
_symmetry_space_group_name_H-M	'P1'
_symmetry_Int_Tables_number	1
_symmetry_cell_setting	triclinic
loop_
_symmetry_equiv_pos_as_xyz
  x,y,z
_cell_length_a	10.654559
_cell_length_b	10.489716
_cell_length_c	9.730223
_cell_angle_alpha	90.002678
_cell_angle_beta	89.999563
_cell_angle_gamma	84.508910
loop_
_atom_site_label
_atom_site_type_symbol
_atom_site_fract_x
_atom_site_fract_y
_atom_site_fract_z
O1	O	1.667896	0.179214	-0.114284
O2	O	1.302425	0.196272	-0.114284
O3	O	1.493493	0.002140	-0.114289
O4	O	1.476828	0.373347	-0.114279
O5	O	1.493490	0.002144	0.114291
O6	O	1.302423	0.196277	0.114296
O7	O	1.667893	0.179219	0.114296
Zn8	Zn	1.485158	0.187749	0.150588
Zn9	Zn	1.485161	0.187742	-0.150576
O10	O	1.476826	0.373352	0.114301
C11	C	1.255626	0.195019	0.000006
C12	C	1.116182	0.191265	0.000006
C13	C	1.064597	0.073434	0.000006
C14	C	0.933573	0.069914	-0.000004
C15	C	0.905730	0.302066	-0.000010
C16	C	1.036751	0.305585	-0.000009
C17	C	1.080671	-0.060598	0.000015
C18	C	0.949648	-0.064118	0.000005
C19	C	1.492239	-0.045390	-0.000003
C20	C	1.488493	-0.187019	-0.000015
C21	C	1.605662	-0.284745	-0.000003
C22	C	1.543748	-0.362081	-0.112701
C23	C	1.543719	-0.362040	0.112661
C24	C	1.426629	-0.262489	-0.112807
C25	C	1.426617	-0.262443	0.112656
C26	C	1.364617	-0.339729	-0.000069
C27	C	1.714693	0.180472	0.000003
C28	C	1.854137	0.184226	-0.000005
C29	C	1.478079	0.420881	0.000012
C30	C	1.481825	0.562510	0.000016
N31	N	1.485165	0.187753	0.356124
N32	N	1.485163	0.187729	-0.356112
C33	C	1.569792	0.101820	0.428048
C34	C	1.569788	0.101805	0.571931
C35	C	1.400528	0.273665	0.571954
C36	C	1.400526	0.273673	0.428074
C37	C	1.667517	0.002601	0.428036
C38	C	1.667513	0.002586	0.571919
H39	H	0.914003	-0.106809	-0.098693
N40	N	0.912742	-0.129842	0.120004
N41	N	0.799035	-0.143856	0.140304
H42	H	0.772967	-0.190271	0.225051
H43	H	1.331606	0.343635	0.369514
N44	N	1.314079	0.361413	0.645472
N45	N	1.314083	0.361389	0.773935
H46	H	1.253027	0.423362	0.825858
H47	H	1.593205	-0.405532	0.207936
H48	H	1.126296	-0.101088	0.098711
H49	H	1.377195	-0.219165	-0.208190
N50	N	1.236666	-0.370311	-0.000153
N51	N	1.164931	-0.333889	-0.097008
H52	H	1.074566	-0.355489	-0.097074
H53	H	1.764033	0.024445	0.610971
H54	H	1.758712	0.033672	0.383411
H55	H	1.078745	0.401534	-0.000033
H56	H	1.593211	-0.405600	-0.207982
N57	N	0.824591	0.418835	0.000013
N58	N	0.829898	0.496947	0.096372
H59	H	0.772595	0.579419	0.096393
H60	H	1.377198	-0.218900	0.207940
N61	N	1.133013	-0.123972	-0.119980
N62	N	1.062443	-0.171500	-0.204531
H63	H	1.099408	-0.216259	-0.289277
H64	H	1.646036	-0.095445	0.388980
H65	H	1.636965	-0.090068	0.616532
H66	H	1.707578	-0.260115	-0.000118
