data_functionalizedCrystal
_audit_creation_method	'MofGen! by Chris Wilmer'
_symmetry_space_group_name_H-M	'P1'
_symmetry_Int_Tables_number	1
_symmetry_cell_setting	triclinic
loop_
_symmetry_equiv_pos_as_xyz
  x,y,z
_cell_length_a	14.519709
_cell_length_b	10.540539
_cell_length_c	13.596369
_cell_angle_alpha	89.996161
_cell_angle_beta	90.000291
_cell_angle_gamma	84.102818
loop_
_atom_site_label
_atom_site_type_symbol
_atom_site_fract_x
_atom_site_fract_y
_atom_site_fract_z
O1	O	1.224765	0.166400	-0.081658
O2	O	1.724765	0.666400	0.418342
O3	O	0.956394	0.185995	-0.081688
O4	O	1.456394	0.685995	0.418312
O5	O	1.096702	-0.008572	-0.081671
O6	O	1.596702	0.491428	0.418329
O7	O	1.084457	0.360966	-0.081675
O8	O	1.584457	0.860966	0.418325
O9	O	1.096688	-0.008582	0.081912
O10	O	1.596688	0.491418	0.581912
O11	O	0.956380	0.185985	0.081895
O12	O	1.456380	0.685985	0.581895
O13	O	1.224751	0.166389	0.081924
O14	O	1.724751	0.666389	0.581924
Zn15	Zn	1.090563	0.176185	0.107882
Zn16	Zn	1.590563	0.676185	0.607882
Zn17	Zn	1.090582	0.176199	-0.107646
Zn18	Zn	1.590582	0.676199	0.392354
O19	O	1.084442	0.360956	0.081908
O20	O	1.584442	0.860956	0.581908
C21	C	0.922022	0.185077	0.000100
C22	C	1.422022	0.685077	0.500100
C23	C	0.819626	0.182340	0.000088
C24	C	1.319626	0.682340	0.500088
C25	C	0.444676	0.172265	0.000133
C26	C	0.944676	0.672265	0.500133
C27	C	0.548999	0.175063	0.000120
C28	C	1.048999	0.675063	0.500120
C29	C	0.632148	0.177303	0.000110
C30	C	1.132148	0.677303	0.500110
C31	C	0.736477	0.180101	0.000099
C32	C	1.236477	0.680101	0.500099
C33	C	1.095777	-0.055870	0.000118
C34	C	1.595777	0.444130	0.500118
C35	C	1.093029	-0.196790	0.000113
C36	C	1.593029	0.303210	0.500113
C37	C	0.987750	-0.379142	-0.000266
C38	C	1.487750	0.120858	0.499734
C39	C	0.990535	-0.232553	0.000102
C40	C	1.490535	0.267447	0.500102
C41	C	1.142346	-0.258957	0.093532
C42	C	1.642346	0.241043	0.593532
C43	C	1.138848	-0.405466	0.093610
C44	C	1.638848	0.094534	0.593610
C45	C	1.140949	-0.405994	-0.092414
C46	C	1.640949	0.094006	0.407586
C47	C	1.141893	-0.259022	-0.093649
C48	C	1.641893	0.240978	0.406351
C49	C	1.259123	0.167308	0.000135
C50	C	1.759123	0.667308	0.500135
C51	C	1.361519	0.170044	0.000140
C52	C	1.861519	0.670044	0.500140
C53	C	1.085368	0.408255	0.000116
C54	C	1.585368	0.908255	0.500116
C55	C	1.088115	0.549175	0.000115
C56	C	1.588115	1.049175	0.500115
N57	N	1.090557	0.176175	0.254974
N58	N	1.590557	0.676175	0.754974
N59	N	1.090595	0.176199	-0.254737
N60	N	1.590595	0.676199	0.245263
C61	C	1.090580	0.176200	0.656265
C62	C	1.590580	0.676200	1.156265
C63	C	1.090571	0.176198	0.544613
C64	C	1.590571	0.676198	1.044613
C65	C	1.090569	0.176189	0.455623
C66	C	1.590569	0.676189	0.955623
C67	C	1.090559	0.176184	0.343964
C68	C	1.590559	0.676184	0.843964
H69	H	0.951729	-0.189549	-0.066865
H70	H	1.451729	0.310451	0.433135
C71	C	1.161263	-0.527245	-0.241740
C72	C	1.661263	-0.027245	0.258260
C73	C	1.096177	-0.448121	-0.188001
C74	C	1.596177	0.051879	0.311999
H75	H	1.133612	-0.553257	-0.300743
H76	H	1.633612	-0.053257	0.199257
H77	H	1.212597	-0.481899	-0.257335
H78	H	1.712597	0.018101	0.242665
H79	H	1.181710	-0.600254	-0.203589
H80	H	1.681710	-0.100254	0.296411
H81	H	1.075735	-0.375107	-0.226149
H82	H	1.575735	0.124893	0.273851
H83	H	1.044826	-0.493467	-0.172408
H84	H	1.544826	0.006533	0.327592
H85	H	1.216619	-0.235563	-0.099282
H86	H	1.716619	0.264437	0.400718
H87	H	1.105808	-0.217791	-0.162758
H88	H	1.605808	0.282209	0.337242
H89	H	1.214980	-0.453976	-0.093034
H90	H	1.714980	0.046024	0.406966
H91	H	1.212560	-0.454188	0.097856
H92	H	1.712560	0.045812	0.597856
C93	C	0.854128	-0.471936	-0.059733
C94	C	1.354128	0.028064	0.440267
C95	C	0.933085	-0.417177	-0.090699
C96	C	1.433085	0.082823	0.409301
H97	H	0.820378	-0.495412	-0.115566
H98	H	1.320378	0.004588	0.384434
H99	H	0.872183	-0.545543	-0.021281
H100	H	1.372183	-0.045543	0.478719
H101	H	0.816269	-0.411978	-0.021364
H102	H	1.316269	0.088022	0.478636
H103	H	0.970948	-0.477138	-0.129062
H104	H	1.470948	0.022862	0.370938
H105	H	0.915032	-0.343560	-0.129168
H106	H	1.415032	0.156440	0.370832
H107	H	0.947421	-0.408942	0.066343
H108	H	1.447421	0.091058	0.566343
H109	H	1.217615	-0.237372	0.097013
H110	H	1.717615	0.262628	0.597013
C111	C	1.061454	-0.297454	0.242871
C112	C	1.561454	0.202546	0.742871
C113	C	1.096085	-0.201002	0.187377
C114	C	1.596085	0.298998	0.687377
H115	H	1.032896	-0.261675	0.300808
H116	H	1.532896	0.238325	0.800808
H117	H	1.017156	-0.336557	0.205076
H118	H	1.517156	0.163443	0.705076
H119	H	1.110830	-0.359533	0.260379
H120	H	1.610830	0.140467	0.760379
H121	H	1.046707	-0.138928	0.169863
H122	H	1.546707	0.361072	0.669863
H123	H	1.140386	-0.161879	0.225180
H124	H	1.640386	0.338121	0.725180
C125	C	0.903549	-0.273616	0.144787
C126	C	1.403549	0.226384	0.644787
C127	C	0.937784	-0.175641	0.090655
C128	C	1.437784	0.324359	0.590655
H129	H	0.870990	-0.238480	0.200698
H130	H	1.370990	0.261520	0.700698
H131	H	0.862808	-0.316224	0.104779
H132	H	1.362808	0.183776	0.604779
H133	H	0.953636	-0.332578	0.165611
H134	H	1.453636	0.167422	0.665611
H135	H	0.887696	-0.116684	0.069825
H136	H	1.387696	0.383316	0.569825
H137	H	0.978527	-0.133012	0.130671
H138	H	1.478527	0.366988	0.630671
H139	H	1.102389	-0.433298	0.163435
H140	H	1.602389	0.066702	0.663435
