data_functionalizedCrystal
_audit_creation_method	'MofGen! by Chris Wilmer'
_symmetry_space_group_name_H-M	'P1'
_symmetry_Int_Tables_number	1
_symmetry_cell_setting	triclinic
loop_
_symmetry_equiv_pos_as_xyz
  x,y,z
_cell_length_a	19.188930
_cell_length_b	19.188925
_cell_length_c	9.198806
_cell_angle_alpha	90.001285
_cell_angle_beta	90.011901
_cell_angle_gamma	83.143665
loop_
_atom_site_label
_atom_site_type_symbol
_atom_site_fract_x
_atom_site_fract_y
_atom_site_fract_z
O1	O	-0.087152	-0.926143	-0.120940
O2	O	0.412848	-0.426143	0.379060
O3	O	-0.098890	-0.722831	-0.120938
O4	O	0.401110	-0.222831	0.379062
O5	O	0.008635	-0.830354	-0.120911
O6	O	0.508635	-0.330354	0.379089
O7	O	-0.194677	-0.818620	-0.120967
O8	O	0.305323	-0.318620	0.379033
O9	O	0.008643	-0.830354	0.120874
O10	O	0.508643	-0.330354	0.620874
O11	O	-0.098882	-0.722831	0.120847
O12	O	0.401118	-0.222831	0.620847
O13	O	-0.087144	-0.926142	0.120845
O14	O	0.412856	-0.426142	0.620845
Cu15	Cu	-0.093012	-0.824487	0.142923
Cu16	Cu	0.406988	-0.324487	0.642923
Cu17	Cu	-0.093022	-0.824487	-0.143016
Cu18	Cu	0.406978	-0.324487	0.356984
O19	O	-0.194668	-0.818619	0.120818
O20	O	0.305332	-0.318619	0.620818
C21	C	0.034650	-0.829974	-0.000014
C22	C	0.534650	-0.329974	0.499986
C23	C	0.112154	-0.828833	-0.000002
C24	C	0.612154	-0.328833	0.499998
C25	C	-0.098507	-0.696820	-0.000045
C26	C	0.401493	-0.196820	0.499955
C27	C	-0.097367	-0.619315	-0.000043
C28	C	0.402633	-0.119315	0.499957
C29	C	-0.220684	-0.819000	-0.000082
C30	C	0.279316	-0.319000	0.499918
C31	C	-0.298188	-0.820140	-0.000104
C32	C	0.201812	-0.320140	0.499896
C33	C	0.157079	-0.891924	0.000005
C34	C	0.657079	-0.391924	0.500005
C35	C	0.229903	-0.890852	-0.000018
C36	C	0.729903	-0.390852	0.499982
C37	C	0.257799	-0.826686	-0.000019
C38	C	0.757799	-0.326686	0.499981
C39	C	0.212864	-0.763587	-0.000033
C40	C	0.712864	-0.263587	0.499967
C41	C	0.140041	-0.764660	-0.000025
C42	C	0.640041	-0.264660	0.499975
N43	N	0.365806	-0.777639	0.082266
N44	N	0.865806	-0.277639	0.582266
N45	N	0.434984	-0.776623	0.082260
N46	N	0.934984	-0.276623	0.582260
C47	C	0.477207	-0.823448	-0.000048
C48	C	0.977207	-0.323448	0.499952
N49	N	0.447640	-0.871337	-0.082333
N50	N	0.947640	-0.371337	0.417667
N51	N	0.378455	-0.872355	-0.082322
N52	N	0.878455	-0.372355	0.417678
C53	C	0.336761	-0.825515	-0.000029
C54	C	0.836761	-0.325515	0.499971
C55	C	0.601097	-0.885381	-0.000069
C56	C	1.101097	-0.385381	0.499931
C57	C	0.673922	-0.884307	-0.000101
C58	C	1.173922	-0.384307	0.499899
C59	C	0.656880	-0.757040	-0.000102
C60	C	1.156880	-0.257040	0.499898
C61	C	0.584057	-0.758116	-0.000084
C62	C	1.084057	-0.258116	0.499916
C63	C	0.556170	-0.822289	-0.000061
C64	C	1.056170	-0.322289	0.499939
C65	C	-0.087527	-0.952154	-0.000051
C66	C	0.412473	-0.452154	0.499949
C67	C	-0.088666	-1.029658	-0.000063
C68	C	0.411334	-0.529658	0.499937
C69	C	-0.152831	-0.057545	-0.000062
C70	C	0.347169	0.442455	0.499938
C71	C	-0.153908	-0.130368	-0.000070
C72	C	0.346092	0.369632	0.499930
C73	C	-0.090816	-0.175302	-0.000050
C74	C	0.409184	0.324698	0.499950
C75	C	-0.026642	-0.147408	-0.000059
C76	C	0.473358	0.352592	0.499941
C77	C	-0.025568	-0.074586	-0.000065
C78	C	0.474432	0.425414	0.499935
N79	N	-0.045137	-0.295979	0.082268
N80	N	0.454863	0.204021	0.582268
N81	N	-0.046162	-0.365157	0.082277
N82	N	0.453838	0.134843	0.582277
C83	C	-0.094050	-0.394712	-0.000034
C84	C	0.405950	0.105288	0.499966
N85	N	-0.140884	-0.352474	-0.082336
N86	N	0.359116	0.147526	0.417664
N87	N	-0.139861	-0.283290	-0.082339
N88	N	0.360139	0.216710	0.417661
C89	C	-0.091974	-0.254267	-0.000044
C90	C	0.408026	0.245733	0.499956
C91	C	-0.159386	-0.501561	-0.000044
C92	C	0.340614	-0.001561	0.499956
C93	C	-0.160460	-0.574385	-0.000061
C94	C	0.339540	-0.074385	0.499939
C95	C	-0.033193	-0.591425	-0.000035
C96	C	0.466807	-0.091425	0.499965
C97	C	-0.032121	-0.518601	-0.000033
C98	C	0.467879	-0.018601	0.499967
C99	C	-0.095220	-0.473673	-0.000030
C100	C	0.404780	0.026327	0.499970
N101	N	-0.093024	-0.824487	-0.344130
N102	N	0.406976	-0.324487	0.155870
C103	C	-0.138164	-0.779160	-0.583778
C104	C	0.361836	-0.279160	-0.083778
C105	C	-0.138175	-0.779157	-0.416365
C106	C	0.361825	-0.279157	0.083635
N107	N	-0.093004	-0.824491	0.344037
N108	N	0.406996	-0.324491	0.844037
H109	H	0.134379	-0.944179	0.000019
H110	H	0.634379	-0.444179	0.500019
H111	H	0.266488	-0.942230	-0.000019
H112	H	0.766488	-0.442230	0.499981
F113	F	0.536242	-0.690965	-0.000085
F114	F	1.036242	-0.190965	0.499915
F115	F	0.242553	-0.695297	-0.000043
F116	F	0.742553	-0.195297	0.499957
F117	F	0.092227	-0.697507	-0.000032
F118	F	0.592227	-0.197507	0.499968
H119	H	-0.054352	-0.863303	-0.593825
H120	H	0.445648	-0.363303	-0.093825
F121	F	-0.042476	-0.875210	-0.425255
F122	F	0.457524	-0.375210	0.074745
H123	H	0.578390	-0.937635	-0.000057
H124	H	1.078390	-0.437635	0.499943
H125	H	-0.204211	-0.020968	-0.000067
H126	H	0.295789	0.479032	0.499933
F127	F	0.040505	-0.195232	-0.000043
F128	F	0.540505	0.304768	0.499957
H129	H	-0.206160	-0.153078	-0.000056
H130	H	0.293840	0.346922	0.499944
H131	H	0.710500	-0.935686	-0.000104
H132	H	1.210500	-0.435686	0.499896
H133	H	0.679592	-0.704794	-0.000110
H134	H	1.179592	-0.204794	0.499890
H135	H	0.026685	-0.051883	-0.000066
H136	H	0.526685	0.448117	0.499934
H137	H	0.020129	-0.495896	-0.000024
H138	H	0.520129	0.004104	0.499976
H139	H	-0.210765	-0.464978	-0.000044
H140	H	0.289235	0.035022	0.499956
H141	H	-0.212713	-0.597088	-0.000072
H142	H	0.287287	-0.097088	0.499928
H143	H	-0.176822	-0.740353	-0.645914
H144	H	0.323178	-0.240353	-0.145914
F145	F	0.033955	-0.639242	-0.000032
F146	F	0.533955	-0.139242	0.499968
H147	H	-0.176835	-0.740344	-0.354289
H148	H	0.323165	-0.240344	0.145711
