data_functionalizedCrystal
_audit_creation_method	'MofGen! by Chris Wilmer'
_symmetry_space_group_name_H-M	'P1'
_symmetry_Int_Tables_number	1
_symmetry_cell_setting	triclinic
loop_
_symmetry_equiv_pos_as_xyz
  x,y,z
_cell_length_a	13.897447
_cell_length_b	21.295418
_cell_length_c	13.897441
_cell_angle_alpha	90.045201
_cell_angle_beta	90.026528
_cell_angle_gamma	90.039407
loop_
_atom_site_label
_atom_site_type_symbol
_atom_site_fract_x
_atom_site_fract_y
_atom_site_fract_z
Zn1	Zn	0.383515	-0.962380	-0.546038
Zn2	Zn	0.883515	-0.462380	-0.046038
Zn3	Zn	0.544837	-0.962305	-0.384751
Zn4	Zn	1.044837	-0.462305	0.115249
Zn5	Zn	0.383609	-0.857108	-0.384688
Zn6	Zn	0.883609	-0.357108	0.115312
Zn7	Zn	0.544821	-0.857090	-0.545935
Zn8	Zn	1.044821	-0.357090	-0.045935
O9	O	0.464195	-0.909721	-0.465353
O10	O	0.964195	-0.409721	0.034647
O11	O	0.404882	-1.050459	-0.524713
O12	O	0.904882	-0.550459	-0.024713
O13	O	0.523495	-0.948326	-0.249761
O14	O	1.023495	-0.448326	0.250239
O15	O	0.248615	-0.871112	-0.406108
O16	O	0.748615	-0.371112	0.093892
O17	O	0.523405	-1.050404	-0.406216
O18	O	1.023405	-0.550404	0.093784
O19	O	0.248546	-0.948455	-0.524652
O20	O	0.748546	-0.448455	-0.024652
O21	O	0.405042	-0.871039	-0.249715
O22	O	0.905042	-0.371039	0.250285
O23	O	0.405027	-0.769016	-0.406008
O24	O	0.905027	-0.269016	0.093992
O25	O	0.523378	-0.871081	-0.680930
O26	O	1.023378	-0.371081	-0.180930
O27	O	0.523469	-0.769003	-0.524475
O28	O	1.023469	-0.269003	-0.024475
O29	O	0.404867	-0.948437	-0.681006
O30	O	0.904867	-0.448437	-0.181006
O31	O	0.679816	-0.948308	-0.406116
O32	O	1.179816	-0.448308	0.093884
O33	O	0.679805	-0.871007	-0.524537
O34	O	1.179805	-0.371007	-0.024537
C35	C	0.464257	-0.746169	-0.465224
C36	C	0.964257	-0.246169	0.034776
C37	C	0.464306	-0.676201	-0.465192
C38	C	0.964306	-0.176201	0.034808
C39	C	0.526063	-0.643344	-0.526782
C40	C	1.026063	-0.143344	-0.026782
C41	C	0.526043	-0.577601	-0.526818
C42	C	1.026043	-0.077601	-0.026818
C43	C	0.464277	-0.544718	-0.465247
C44	C	0.964277	-0.044718	0.034753
C45	C	0.402509	-0.577583	-0.403652
C46	C	0.902509	-0.077583	0.096348
C47	C	0.402523	-0.643325	-0.403625
C48	C	0.902523	-0.143325	0.096375
N49	N	0.456756	-0.441444	-0.380868
N50	N	0.956756	0.058556	0.119132
N51	N	0.456748	-0.378993	-0.380897
N52	N	0.956748	0.121007	0.119103
C53	C	0.464228	-0.346644	-0.465327
C54	C	0.964228	0.153356	0.034673
N55	N	0.471736	-0.379105	-0.549730
N56	N	0.971736	0.120895	-0.049730
N57	N	0.471750	-0.441563	-0.549700
N58	N	0.971750	0.058437	-0.049700
C59	C	0.464254	-0.473433	-0.465270
C60	C	0.964254	0.026567	0.034730
C61	C	0.525967	-0.242501	-0.526962
C62	C	1.025967	0.257499	-0.026962
C63	C	0.525941	-0.176757	-0.526999
C64	C	1.025941	0.323243	-0.026999
C65	C	0.402411	-0.176741	-0.403825
C66	C	0.902411	0.323259	0.096175
C67	C	0.402432	-0.242483	-0.403796
C68	C	0.902432	0.257517	0.096204
C69	C	0.464215	-0.275359	-0.465363
C70	C	0.964215	0.224641	0.034637
C71	C	0.714810	-0.909665	-0.465343
C72	C	1.214810	-0.409665	0.034657
C73	C	0.822024	-0.909698	-0.465371
C74	C	1.322024	-0.409698	0.034629
C75	C	0.909093	-0.909727	-0.465397
C76	C	1.409093	-0.409727	0.034603
C77	C	1.018326	-0.909769	-0.465427
C78	C	1.518326	-0.409769	0.034573
C79	C	1.212602	-0.909789	-0.465397
C80	C	1.712602	-0.409789	0.034603
C81	C	1.105388	-0.909806	-0.465447
C82	C	1.605388	-0.409806	0.034553
C83	C	0.464110	-0.909765	-0.716946
C84	C	0.964110	-0.409765	-0.216946
C85	C	0.464074	-0.909784	-0.824160
C86	C	0.964074	-0.409784	-0.324160
C87	C	0.464151	-0.073911	-0.465456
C88	C	0.964151	0.426089	0.034544
C89	C	0.464173	-0.143879	-0.465428
C90	C	0.964173	0.356121	0.034572
C91	C	0.464009	-0.909801	-1.020456
C92	C	0.964009	-0.409801	-0.520456
C93	C	0.464048	-0.909790	-0.911223
C94	C	0.964048	-0.409790	-0.411223
C95	C	0.464211	-0.909712	-0.214739
C96	C	0.964211	-0.409712	0.285261
C97	C	0.463975	-0.909815	-0.107525
C98	C	0.963975	-0.409815	0.392475
H99	H	0.352148	-0.269236	-0.353637
H100	H	0.852148	0.230764	0.146363
F101	F	0.336790	-0.678295	-0.338069
F102	F	0.836790	-0.178295	0.161931
H103	H	0.352217	-0.550806	-0.353522
H104	H	0.852217	-0.050806	0.146478
F105	F	0.591716	-0.277492	-0.592490
F106	F	1.091716	0.222508	-0.092490
F107	F	0.591815	-0.678329	-0.592311
F108	F	1.091815	-0.178329	-0.092311
F109	F	0.336669	-0.141749	-0.338300
F110	F	0.836669	0.358251	0.161700
F111	F	0.591669	-0.141788	-0.592561
F112	F	1.091669	0.358212	-0.092561
H113	H	0.576332	-0.550844	-0.576976
H114	H	1.076332	-0.050844	-0.076976
