data_functionalizedCrystal
_audit_creation_method	'MofGen! by Chris Wilmer'
_symmetry_space_group_name_H-M	'P1'
_symmetry_Int_Tables_number	1
_symmetry_cell_setting	triclinic
loop_
_symmetry_equiv_pos_as_xyz
  x,y,z
_cell_length_a	27.732048
_cell_length_b	10.540539
_cell_length_c	9.016244
_cell_angle_alpha	89.995353
_cell_angle_beta	90.003098
_cell_angle_gamma	83.584073
loop_
_atom_site_label
_atom_site_type_symbol
_atom_site_fract_x
_atom_site_fract_y
_atom_site_fract_z
O1	O	-0.641876	-0.151031	0.123143
O2	O	-0.501228	-0.173994	0.123187
O3	O	-0.574761	0.022333	0.123162
O4	O	-0.568343	-0.347358	0.123168
O5	O	-0.574758	0.022348	-0.123519
O6	O	-0.501224	-0.173980	-0.123494
O7	O	-0.641873	-0.151016	-0.123538
Cu8	Cu	-0.571549	-0.162497	-0.146040
Cu9	Cu	-0.571552	-0.162514	0.145689
O10	O	-0.568340	-0.347344	-0.123513
C11	C	-0.483216	-0.173505	-0.000148
C12	C	-0.429552	-0.172054	-0.000131
C13	C	-0.574278	0.069623	-0.000175
C14	C	-0.572838	0.210508	-0.000167
C15	C	-0.659885	-0.151506	-0.000200
C16	C	-0.713549	-0.152957	-0.000207
C17	C	-0.091410	-0.278933	-0.000194
C18	C	0.110284	-0.273547	-0.000207
O19	O	0.140924	-0.371280	-0.000270
N20	N	0.130140	-0.157133	-0.000206
C21	C	0.099570	-0.042057	-0.000212
O22	O	0.121088	0.057084	-0.000226
C23	C	-0.102122	-0.047444	-0.000209
C24	C	-0.121976	-0.163865	-0.000195
C25	C	-0.111264	-0.395345	-0.000181
C26	C	-0.161685	-0.396690	-0.000170
C27	C	-0.192251	-0.281623	-0.000171
C28	C	-0.172396	-0.165211	-0.000183
C29	C	-0.132691	0.067631	-0.000225
C30	C	-0.183117	0.066274	-0.000228
C31	C	-0.202971	-0.050148	-0.000214
C32	C	-0.253383	-0.051489	-0.000173
N33	N	-0.273240	-0.167903	-0.000174
C34	C	-0.242674	-0.282970	-0.000173
C35	C	0.205462	-0.039237	-0.000210
C36	C	0.255885	-0.037890	-0.000208
C37	C	0.266595	-0.269381	-0.000206
C38	C	0.216171	-0.270726	-0.000198
C39	C	0.185605	-0.155651	-0.000211
C40	C	-0.348561	-0.285786	-0.000147
C41	C	-0.398986	-0.287121	-0.000130
C42	C	-0.409691	-0.055631	-0.000140
C43	C	-0.359270	-0.054295	-0.000149
C44	C	-0.328706	-0.169383	-0.000158
O45	O	-0.284052	0.046192	-0.000127
O46	O	-0.264200	-0.382096	-0.000191
C47	C	-0.040990	-0.277587	-0.000205
C48	C	-0.021135	-0.161175	-0.000217
C49	C	-0.051701	-0.046108	-0.000219
C50	C	0.029288	-0.159828	-0.000216
C51	C	0.059854	-0.274895	-0.000214
C52	C	0.039997	-0.391310	-0.000215
C53	C	-0.010423	-0.392655	-0.000204
C54	C	-0.031845	0.070306	-0.000218
C55	C	0.018576	0.071642	-0.000227
C56	C	0.049142	-0.043425	-0.000226
C57	C	-0.568823	-0.394633	-0.000172
C58	C	-0.570263	-0.535519	-0.000171
N59	N	-0.571550	-0.162484	-0.351226
C60	C	-0.517663	0.391539	0.000404
C61	C	-0.519123	0.244984	-0.000152
C62	C	-0.598687	0.273296	-0.141042
C63	C	-0.596853	0.419761	-0.141160
C64	C	-0.597949	0.420311	0.139362
C65	C	-0.598444	0.273350	0.141224
C66	C	-0.611032	-0.057811	-0.586226
C67	C	-0.610925	-0.057423	-0.414335
C68	C	-0.521024	-0.134547	-0.413636
C69	C	-0.521259	-0.133815	-0.585580
C70	C	-0.582150	-0.295472	-0.585732
C71	C	-0.583290	-0.294550	-0.413776
N72	N	-0.571555	-0.162517	0.350875
H73	H	-0.415148	-0.381929	-0.000117
H74	H	0.200010	-0.365527	-0.000194
F75	F	-0.182808	-0.520603	-0.000162
F76	F	0.299134	-0.391844	-0.000207
F77	F	-0.575214	0.216609	-0.278056
F78	F	-0.509144	-0.007117	-0.638023
H79	H	-0.553368	-0.373379	-0.626415
F80	F	-0.481678	-0.229767	-0.639971
H81	H	-0.604108	0.041268	-0.373215
H82	H	-0.490920	-0.208817	-0.372758
F83	F	0.277009	0.086022	-0.000190
H84	H	-0.604312	0.040318	-0.629451
F85	F	-0.659995	-0.078993	-0.359176
H86	H	-0.648700	-0.074024	-0.627577
H87	H	-0.511539	-0.038721	-0.370585
F88	F	0.172937	0.083251	-0.000223
H89	H	0.064893	-0.485001	-0.000208
H90	H	-0.496445	0.419212	0.101428
F91	F	-0.031547	-0.516568	-0.000189
F92	F	-0.316038	-0.408276	-0.000158
F93	F	-0.489967	0.430255	-0.130525
F94	F	-0.648661	0.484241	0.140588
H95	H	-0.618231	-0.322571	-0.629096
H96	H	-0.498783	0.201492	0.100833
H97	H	-0.208002	0.159985	-0.000240
H98	H	-0.116536	0.162434	-0.000238
F99	F	-0.492347	0.189245	-0.132347
H100	H	-0.620461	-0.315772	-0.372987
H101	H	-0.086382	-0.489052	-0.000185
H102	H	-0.343105	0.040505	-0.000139
H103	H	-0.637607	0.250829	0.149718
H104	H	-0.434587	0.038054	-0.000135
F105	F	0.039700	0.195563	-0.000224
F106	F	-0.571879	0.455547	-0.278784
H107	H	-0.635485	0.469408	-0.147563
F108	F	-0.064369	0.192784	-0.000222
F109	F	-0.650247	0.246320	-0.147909
H110	H	-0.556435	-0.376037	-0.370814
F111	F	-0.575224	0.460543	0.278924
F112	F	-0.573917	0.218278	0.277462
