data_functionalizedCrystal
_audit_creation_method	'MofGen! by Chris Wilmer'
_symmetry_space_group_name_H-M	'P1'
_symmetry_Int_Tables_number	1
_symmetry_cell_setting	triclinic
loop_
_symmetry_equiv_pos_as_xyz
  x,y,z
_cell_length_a	19.188925
_cell_length_b	19.188930
_cell_length_c	13.596369
_cell_angle_alpha	89.988893
_cell_angle_beta	89.993722
_cell_angle_gamma	83.143665
loop_
_atom_site_label
_atom_site_type_symbol
_atom_site_fract_x
_atom_site_fract_y
_atom_site_fract_z
O1	O	0.926148	0.087151	-0.081824
O2	O	1.176148	0.337151	0.168176
O3	O	1.426148	0.587151	0.418176
O4	O	1.676148	0.837151	0.668176
O5	O	0.722836	0.098889	-0.081822
O6	O	0.972836	0.348889	0.168178
O7	O	1.222836	0.598889	0.418178
O8	O	1.472836	0.848889	0.668178
O9	O	0.830359	-0.008636	-0.081804
O10	O	1.080359	0.241364	0.168196
O11	O	1.330359	0.491364	0.418196
O12	O	1.580359	0.741364	0.668196
O13	O	0.818625	0.194675	-0.081842
O14	O	1.068625	0.444675	0.168158
O15	O	1.318625	0.694675	0.418158
O16	O	1.568625	0.944675	0.668158
O17	O	0.830348	-0.008642	0.081779
O18	O	1.080348	0.241358	0.331779
O19	O	1.330348	0.491358	0.581779
O20	O	1.580348	0.741358	0.831779
O21	O	0.722825	0.098883	0.081761
O22	O	0.972825	0.348883	0.331761
O23	O	1.222825	0.598883	0.581761
O24	O	1.472825	0.848883	0.831761
O25	O	0.926137	0.087145	0.081759
O26	O	1.176137	0.337145	0.331759
O27	O	1.426137	0.587145	0.581759
O28	O	1.676137	0.837145	0.831759
Zn29	Zn	0.824480	0.093013	0.107732
Zn30	Zn	1.074480	0.343013	0.357732
Zn31	Zn	1.324480	0.593013	0.607732
Zn32	Zn	1.574480	0.843013	0.857732
Zn33	Zn	0.824494	0.093021	-0.107795
Zn34	Zn	1.074494	0.343021	0.142205
Zn35	Zn	1.324494	0.593021	0.392205
Zn36	Zn	1.574494	0.843021	0.642205
O37	O	0.818614	0.194670	0.081741
O38	O	1.068614	0.444670	0.331741
O39	O	1.318614	0.694670	0.581741
O40	O	1.568614	0.944670	0.831741
C41	C	0.696820	0.098507	-0.000030
C42	C	0.946820	0.348507	0.249970
C43	C	1.196820	0.598507	0.499970
C44	C	1.446820	0.848507	0.749970
C45	C	0.619315	0.097367	-0.000029
C46	C	0.869315	0.347367	0.249971
C47	C	1.119315	0.597367	0.499971
C48	C	1.369315	0.847367	0.749971
C49	C	0.057545	0.152831	-0.000042
C50	C	0.307545	0.402831	0.249958
C51	C	0.557545	0.652831	0.499958
C52	C	0.807545	0.902831	0.749958
C53	C	0.130368	0.153908	-0.000047
C54	C	0.380368	0.403908	0.249953
C55	C	0.630368	0.653908	0.499953
C56	C	0.880368	0.903908	0.749953
C57	C	0.175302	0.090816	-0.000034
C58	C	0.425302	0.340816	0.249966
C59	C	0.675302	0.590816	0.499966
C60	C	0.925302	0.840816	0.749966
C61	C	0.147408	0.026642	-0.000040
C62	C	0.397408	0.276642	0.249960
C63	C	0.647408	0.526642	0.499960
C64	C	0.897408	0.776642	0.749960
C65	C	0.074586	0.025568	-0.000044
C66	C	0.324586	0.275568	0.249956
C67	C	0.574586	0.525568	0.499956
C68	C	0.824586	0.775568	0.749956
N69	N	0.295976	0.045138	0.055660
N70	N	0.545976	0.295138	0.305660
N71	N	0.795976	0.545138	0.555660
N72	N	1.045976	0.795138	0.805660
N73	N	0.365153	0.046163	0.055666
N74	N	0.615153	0.296163	0.305666
N75	N	0.865153	0.546163	0.555666
N76	N	1.115153	0.796163	0.805666
C77	C	0.394712	0.094050	-0.000023
C78	C	0.644712	0.344050	0.249977
C79	C	0.894712	0.594050	0.499977
C80	C	1.144712	0.844050	0.749977
N81	N	0.352478	0.140883	-0.055706
N82	N	0.602478	0.390883	0.194294
N83	N	0.852478	0.640883	0.444294
N84	N	1.102478	0.890883	0.694294
N85	N	0.283294	0.139860	-0.055707
N86	N	0.533294	0.389860	0.194293
N87	N	0.783294	0.639860	0.444293
N88	N	1.033294	0.889860	0.694293
C89	C	0.254267	0.091974	-0.000030
C90	C	0.504267	0.341974	0.249970
C91	C	0.754267	0.591974	0.499970
C92	C	1.004267	0.841974	0.749970
C93	C	0.501561	0.159386	-0.000030
C94	C	0.751561	0.409386	0.249970
C95	C	1.001561	0.659386	0.499970
C96	C	1.251561	0.909386	0.749970
C97	C	0.574385	0.160460	-0.000041
C98	C	0.824385	0.410460	0.249959
C99	C	1.074385	0.660460	0.499959
C100	C	1.324385	0.910460	0.749959
C101	C	0.591425	0.033193	-0.000024
C102	C	0.841425	0.283193	0.249976
C103	C	1.091425	0.533193	0.499976
C104	C	1.341425	0.783193	0.749976
C105	C	0.518601	0.032121	-0.000022
C106	C	0.768601	0.282121	0.249978
C107	C	1.018601	0.532121	0.499978
C108	C	1.268601	0.782121	0.749978
C109	C	0.473673	0.095220	-0.000020
C110	C	0.723673	0.345220	0.249980
C111	C	0.973673	0.595220	0.499980
C112	C	1.223673	0.845220	0.749980
C113	C	0.829974	-0.034650	-0.000009
C114	C	1.079974	0.215350	0.249991
C115	C	1.329974	0.465350	0.499991
C116	C	1.579974	0.715350	0.749991
C117	C	0.828833	-0.112154	-0.000001
C118	C	1.078833	0.137846	0.249999
C119	C	1.328833	0.387846	0.499999
C120	C	1.578833	0.637846	0.749999
C121	C	0.891924	-0.157079	0.000003
C122	C	1.141924	0.092921	0.250003
C123	C	1.391924	0.342921	0.500003
C124	C	1.641924	0.592921	0.750003
C125	C	0.890852	-0.229903	-0.000012
C126	C	1.140852	0.020097	0.249988
C127	C	1.390852	0.270097	0.499988
C128	C	1.640852	0.520097	0.749988
C129	C	0.826686	-0.257799	-0.000013
C130	C	1.076686	-0.007799	0.249987
C131	C	1.326686	0.242201	0.499987
C132	C	1.576686	0.492201	0.749987
C133	C	0.763587	-0.212864	-0.000023
C134	C	1.013587	0.037136	0.249977
C135	C	1.263587	0.287136	0.499977
C136	C	1.513587	0.537136	0.749977
C137	C	0.764660	-0.140041	-0.000017
C138	C	1.014660	0.109959	0.249983
C139	C	1.264660	0.359959	0.499983
C140	C	1.514660	0.609959	0.749983
N141	N	0.777635	-0.365805	0.055658
N142	N	1.027635	-0.115805	0.305658
N143	N	1.277635	0.134195	0.555658
N144	N	1.527635	0.384195	0.805658
N145	N	0.776620	-0.434983	0.055654
N146	N	1.026620	-0.184983	0.305654
N147	N	1.276620	0.065017	0.555654
N148	N	1.526620	0.315017	0.805654
C149	C	0.823448	-0.477207	-0.000033
C150	C	1.073448	-0.227207	0.249967
C151	C	1.323448	0.022793	0.499967
C152	C	1.573448	0.272793	0.749967
N153	N	0.871341	-0.447641	-0.055704
N154	N	1.121341	-0.197641	0.194296
N155	N	1.371341	0.052359	0.444296
N156	N	1.621341	0.302359	0.694296
N157	N	0.872358	-0.378456	-0.055696
N158	N	1.122358	-0.128456	0.194304
N159	N	1.372358	0.121544	0.444304
N160	N	1.622358	0.371544	0.694304
C161	C	0.825515	-0.336761	-0.000020
C162	C	1.075515	-0.086761	0.249980
C163	C	1.325515	0.163239	0.499980
C164	C	1.575515	0.413239	0.749980
C165	C	0.885381	-0.601097	-0.000047
C166	C	1.135381	-0.351097	0.249953
C167	C	1.385381	-0.101097	0.499953
C168	C	1.635381	0.148903	0.749953
C169	C	0.884307	-0.673922	-0.000069
C170	C	1.134307	-0.423922	0.249931
C171	C	1.384307	-0.173922	0.499931
C172	C	1.634307	0.076078	0.749931
C173	C	0.757040	-0.656880	-0.000069
C174	C	1.007040	-0.406880	0.249931
C175	C	1.257040	-0.156880	0.499931
C176	C	1.507040	0.093120	0.749931
C177	C	0.758116	-0.584057	-0.000057
C178	C	1.008116	-0.334057	0.249943
C179	C	1.258116	-0.084057	0.499943
C180	C	1.508116	0.165943	0.749943
C181	C	0.822289	-0.556170	-0.000041
C182	C	1.072289	-0.306170	0.249959
C183	C	1.322289	-0.056170	0.499959
C184	C	1.572289	0.193830	0.749959
C185	C	0.952154	0.087527	-0.000035
C186	C	1.202154	0.337527	0.249965
C187	C	1.452154	0.587527	0.499965
C188	C	1.702154	0.837527	0.749965
C189	C	1.029658	0.088666	-0.000042
C190	C	1.279658	0.338666	0.249958
C191	C	1.529658	0.588666	0.499958
C192	C	1.779658	0.838666	0.749958
C193	C	0.819000	0.220684	-0.000056
C194	C	1.069000	0.470684	0.249944
C195	C	1.319000	0.720684	0.499944
C196	C	1.569000	0.970684	0.749944
C197	C	0.820140	0.298188	-0.000071
C198	C	1.070140	0.548188	0.249929
C199	C	1.320140	0.798188	0.499929
C200	C	1.570140	1.048188	0.749929
N201	N	0.824475	0.093008	0.254824
N202	N	1.074475	0.343008	0.504824
N203	N	1.324475	0.593008	0.754824
N204	N	1.574475	0.843008	1.004824
N205	N	0.824504	0.093021	-0.254887
N206	N	1.074504	0.343021	-0.004887
N207	N	1.324504	0.593021	0.245113
N208	N	1.574504	0.843021	0.495113
C209	C	0.824493	0.093021	0.656115
C210	C	1.074493	0.343021	0.906115
C211	C	1.324493	0.593021	1.156115
C212	C	1.574493	0.843021	1.406115
C213	C	0.824486	0.093020	0.544464
C214	C	1.074486	0.343020	0.794464
C215	C	1.324486	0.593020	1.044464
C216	C	1.574486	0.843020	1.294464
C217	C	0.824484	0.093015	0.455473
C218	C	1.074484	0.343015	0.705473
C219	C	1.324484	0.593015	0.955473
C220	C	1.574484	0.843015	1.205473
C221	C	0.824477	0.093013	0.343815
C222	C	1.074477	0.343013	0.593815
C223	C	1.324477	0.593013	0.843815
C224	C	1.574477	0.843013	1.093815
H225	H	0.495896	-0.020129	-0.000017
H226	H	0.745896	0.229871	0.249983
H227	H	0.995896	0.479871	0.499983
H228	H	1.245896	0.729871	0.749983
H229	H	0.935686	-0.710500	-0.000071
H230	H	1.185686	-0.460500	0.249929
H231	H	1.435686	-0.210500	0.499929
H232	H	1.685686	0.039500	0.749929
H233	H	0.944179	-0.134379	0.000013
H234	H	1.194179	0.115621	0.250013
H235	H	1.444179	0.365621	0.500013
H236	H	1.694179	0.615621	0.750013
H237	H	0.628010	-0.018178	-0.000020
H238	H	0.878010	0.231822	0.249980
H239	H	1.128010	0.481822	0.499980
H240	H	1.378010	0.731822	0.749980
H241	H	0.183999	-0.024728	-0.000032
H242	H	0.433999	0.225272	0.249968
H243	H	0.683999	0.475272	0.499968
H244	H	0.933999	0.725272	0.749968
H245	H	0.706740	-0.547478	-0.000055
H246	H	0.956740	-0.297478	0.249945
H247	H	1.206740	-0.047478	0.499945
H248	H	1.456740	0.202522	0.749945
H249	H	0.020968	0.204211	-0.000045
H250	H	0.270968	0.454211	0.249955
H251	H	0.520968	0.704211	0.499955
H252	H	0.770968	0.954211	0.749955
H253	H	0.153078	0.206160	-0.000038
H254	H	0.403078	0.456160	0.249962
H255	H	0.653078	0.706160	0.499962
H256	H	0.903078	0.956160	0.749962
H257	H	0.051883	-0.026685	-0.000045
H258	H	0.301883	0.223315	0.249955
H259	H	0.551883	0.473315	0.499955
H260	H	0.801883	0.723315	0.749955
H261	H	0.464978	0.210765	-0.000030
H262	H	0.714978	0.460765	0.249970
H263	H	0.964978	0.710765	0.499970
H264	H	1.214978	0.960765	0.749970
H265	H	0.942230	-0.266488	-0.000013
H266	H	1.192230	-0.016488	0.249987
H267	H	1.442230	0.233512	0.499987
H268	H	1.692230	0.483512	0.749987
H269	H	0.937635	-0.578390	-0.000038
H270	H	1.187635	-0.328390	0.249962
H271	H	1.437635	-0.078390	0.499962
H272	H	1.687635	0.171610	0.749962
H273	H	0.704794	-0.679592	-0.000074
H274	H	0.954794	-0.429592	0.249926
H275	H	1.204794	-0.179592	0.499926
H276	H	1.454794	0.070408	0.749926
H277	H	0.713282	-0.103462	-0.000020
H278	H	0.963282	0.146538	0.249980
H279	H	1.213282	0.396538	0.499980
H280	H	1.463282	0.646538	0.749980
H281	H	0.597088	0.212713	-0.000049
H282	H	0.847088	0.462713	0.249951
H283	H	1.097088	0.712713	0.499951
H284	H	1.347088	0.962713	0.749951
H285	H	0.711342	-0.235581	-0.000025
H286	H	0.961342	0.014419	0.249975
H287	H	1.211342	0.264419	0.499975
H288	H	1.461342	0.514419	0.749975
