data_functionalizedCrystal
_audit_creation_method	'MofGen! by Chris Wilmer'
_symmetry_space_group_name_H-M	'P1'
_symmetry_Int_Tables_number	1
_symmetry_cell_setting	triclinic
loop_
_symmetry_equiv_pos_as_xyz
  x,y,z
_cell_length_a	14.560438
_cell_length_b	18.760486
_cell_length_c	14.560438
_cell_angle_alpha	89.955614
_cell_angle_beta	60.003556
_cell_angle_gamma	119.974697
loop_
_atom_site_label
_atom_site_type_symbol
_atom_site_fract_x
_atom_site_fract_y
_atom_site_fract_z
Zr1	Zr	1.005224	-0.686702	-0.119736
O2	O	1.196819	-0.572888	-0.266481
O3	O	0.813632	-0.721589	-0.074763
O4	O	1.005227	-0.721592	-0.266349
O5	O	1.005222	-0.572885	0.076245
O6	O	1.005226	-0.838895	-0.266231
O7	O	1.005224	-0.572885	-0.074895
O8	O	0.662498	-0.838890	0.076481
O9	O	1.347949	-0.572891	-0.266467
O10	O	0.892435	-0.824013	-0.055479
O11	O	0.892434	-0.736471	0.057227
O12	O	1.118012	-0.736475	-0.168341
O13	O	1.118010	-0.648933	-0.055635
Zr14	Zr	1.005219	-0.873787	0.121505
Zr15	Zr	1.005223	-0.873786	-0.119547
Zr16	Zr	1.005220	-0.686702	0.121316
Zr17	Zr	1.246260	-0.686706	-0.119713
Zr18	Zr	0.764183	-0.873782	0.121482
O19	O	1.196812	-0.838899	0.076533
O20	O	1.196817	-0.838899	-0.266213
O21	O	1.196813	-0.572889	0.076264
O22	O	0.813625	-0.987600	0.268250
O23	O	0.813631	-0.987600	-0.074495
O24	O	0.813626	-0.721589	0.267982
O25	O	1.005222	-0.987603	-0.074476
O26	O	1.005217	-0.838896	0.268119
O27	O	1.005218	-0.721593	0.268000
O28	O	1.005219	-0.987603	0.076664
O29	O	1.347949	-0.721598	-0.266317
O30	O	0.662495	-0.838890	0.268086
O31	O	0.662494	-0.987597	0.268236
O32	O	0.662498	-0.987597	0.076632
O33	O	1.347946	-0.572891	-0.074863
O34	O	1.347945	-0.721599	-0.074712
O35	O	0.892432	-0.824013	0.170110
O36	O	0.892433	-0.911555	0.057404
O37	O	1.118010	-0.824017	-0.055458
O38	O	1.118008	-0.736475	0.057248
C39	C	0.703723	-0.780239	0.000856
C40	C	0.601397	-0.780237	0.000846
C41	C	0.540368	-0.715626	-0.082422
C42	C	0.636544	-0.715617	-0.082459
C43	C	0.470062	-0.844866	0.084199
C44	C	0.373889	-0.844871	0.084240
C45	C	0.636486	-0.641007	-0.178644
C46	C	0.732662	-0.640998	-0.178680
C47	C	1.005223	-0.546230	0.000648
C48	C	1.005223	-0.466807	0.000568
C49	C	1.122977	-0.085296	-0.057974
C50	C	0.887471	-0.176692	0.059856
C51	C	0.887469	-0.251314	0.059775
C52	C	1.005223	-0.242930	0.000818
C53	C	1.122979	-0.159923	-0.058059
C54	C	0.769715	-0.334325	0.118642
C55	C	0.769708	-0.408953	0.118563
C56	C	0.887464	-0.400570	0.059611
C57	C	1.005224	-0.317557	0.000733
C58	C	1.122978	-0.309173	-0.058224
C59	C	1.240740	-0.226161	-0.117096
C60	C	1.240734	-0.151540	-0.117010
C61	C	0.887470	-0.475191	0.059525
C62	C	1.122979	-0.383801	-0.058309
C63	C	1.306721	-0.780249	0.000913
C64	C	1.409047	-0.780251	0.000923
C65	C	1.005227	-0.780244	-0.300635
C66	C	1.005229	-0.780244	-0.402968
C67	C	1.005221	-0.014258	0.001066
C68	C	1.005223	-0.093680	0.000984
C69	C	1.122975	-0.734546	-0.509957
C70	C	1.122969	-0.734549	-0.606106
C71	C	0.887459	-0.825948	-0.488263
C72	C	0.887467	-0.825950	-0.392117
C73	C	1.258945	-0.681775	-0.577993
C74	C	1.258939	-0.681777	-0.674142
C75	C	1.005217	-0.780244	0.302404
C76	C	1.005215	-0.780244	0.404737
C77	C	0.703722	-1.014253	0.001092
C78	C	0.601395	-1.093674	0.001163
C79	C	0.703718	-0.780239	0.302375
C80	C	0.601390	-0.780237	0.404698
C81	C	0.703716	-1.014254	0.302612
C82	C	0.601388	-1.093674	0.405015
C83	C	1.306727	-0.546235	-0.300843
C84	C	1.409055	-0.466814	-0.403246
C85	C	1.306722	-0.546235	0.000677
C86	C	1.409048	-0.466814	0.000607
C87	C	1.306726	-0.780249	-0.300606
C88	C	1.409054	-0.780251	-0.402929
C89	C	0.553343	-1.085275	-0.057738
C90	C	0.457210	-1.159892	-0.057695
C91	C	0.409124	-1.242907	0.001257
C92	C	0.457186	-1.251305	0.060160
C93	C	0.553324	-1.176689	0.060109
C94	C	0.553335	-1.176675	0.394273
C95	C	0.457200	-1.251306	0.490483
C96	C	0.409114	-1.242935	0.597433
C97	C	0.457177	-1.159926	0.608173
C98	C	0.553317	-1.085296	0.511964
C99	C	1.457121	-0.383813	-0.392504
C100	C	1.553285	-0.309182	-0.488714
C101	C	1.601376	-0.317553	-0.595664
C102	C	1.553307	-0.400563	-0.606404
C103	C	1.457151	-0.475192	-0.510195
C104	C	1.457111	-0.475214	0.059497
C105	C	1.553271	-0.400597	0.059427
C106	C	1.601360	-0.317581	0.000472
C107	C	1.553293	-0.309184	-0.058426
C108	C	1.457142	-0.383800	-0.058362
C109	C	0.553310	-0.825934	0.511694
C110	C	0.457167	-0.825925	0.607833
C111	C	0.457189	-0.734522	0.489968
C112	C	0.553336	-0.734526	0.393831
C113	C	0.553293	-0.878708	0.579743
C114	C	0.457150	-0.878699	0.675883
H115	H	0.795650	-0.647427	-0.260800
H116	H	0.643300	-0.849360	0.579740
H117	H	0.418011	-1.153123	0.695265
O118	O	0.605204	-1.185714	0.278925
H119	H	0.555640	-1.255974	0.287638
O120	O	1.705102	-0.237052	-0.699424
H121	H	1.668204	-0.197643	-0.699401
H122	H	0.418020	-1.318906	0.108156
H123	H	0.266963	-0.897489	0.152115
O124	O	1.328073	-0.589227	-0.743368
H125	H	1.412755	-0.572514	-0.828055
H126	H	0.592429	-1.017716	0.520726
H127	H	1.417964	-0.542802	0.107513
H128	H	0.441452	-0.897476	0.152034
H129	H	0.791602	-0.183511	0.107852
O130	O	0.642714	-0.343370	0.182220
H131	H	0.662500	-0.277533	0.172396
O132	O	0.605055	-0.685248	0.278481
H133	H	0.711112	-0.634699	0.231735
H134	H	0.673819	-0.476538	0.166498
H135	H	0.493278	-0.843887	0.726775
H136	H	1.301139	-0.614214	-0.569330
O137	O	1.367746	-0.217119	-0.180795
H138	H	1.347953	-0.282958	-0.170997
O139	O	0.605209	-0.995741	-0.121338
H140	H	0.555646	-1.002451	-0.162296
O141	O	1.605088	-0.409663	0.122971
H142	H	1.555468	-0.479926	0.163994
H143	H	1.679652	-0.256831	0.000429
O144	O	1.314855	-0.727871	-0.741574
H145	H	1.344510	-0.752305	-0.699571
H146	H	0.418053	-0.697306	0.481134
H147	H	0.792332	-0.581644	-0.161944
O148	O	0.305405	-1.323437	0.701193
H149	H	0.280034	-1.303679	0.777374
O150	O	1.405274	-0.374764	-0.277162
H151	H	1.299219	-0.406557	-0.230520
O152	O	0.405371	-1.150825	-0.121217
H153	H	0.454947	-1.080563	-0.162197
O154	O	0.650810	-0.556591	-0.167742
H155	H	0.734086	-0.515262	-0.162424
H156	H	1.418017	-0.542773	-0.518955
H157	H	1.336609	-0.083948	-0.164939
H158	H	1.592462	-0.241583	-0.106426
O159	O	0.405416	-1.340828	0.478877
H160	H	0.330513	-1.391324	0.563738
O161	O	0.760474	-0.564721	0.123014
H162	H	0.678593	-0.558014	0.164026
H163	H	1.592407	-0.241600	-0.479947
H164	H	1.592475	-0.407368	-0.693494
H165	H	1.418012	-0.376949	-0.106315
H166	H	0.636460	-0.654051	-0.255086
H167	H	0.592436	-1.183540	0.108080
O168	O	0.505443	-0.968191	0.568239
H169	H	0.402322	-1.015631	0.639894
O170	O	1.249990	0.004230	-0.121484
H171	H	1.230215	0.054716	-0.111531
H172	H	0.367130	-0.948570	0.728143
O173	O	0.760471	-0.875241	-0.276718
H174	H	0.678588	-0.907013	-0.285330
H175	H	0.791582	-0.863160	-0.479441
O176	O	1.249964	-0.374788	-0.121916
H177	H	1.306469	-0.338640	-0.087923
O178	O	1.328063	-0.720677	-0.577939
H179	H	1.412747	-0.671675	-0.577986
O180	O	0.305428	-1.323386	0.001314
H181	H	0.217826	-1.323328	0.038150
