data_functionalizedCrystal
_audit_creation_method	'MofGen! by Chris Wilmer'
_symmetry_space_group_name_H-M	'P1'
_symmetry_Int_Tables_number	1
_symmetry_cell_setting	triclinic
loop_
_symmetry_equiv_pos_as_xyz
  x,y,z
_cell_length_a	17.699083
_cell_length_b	16.109301
_cell_length_c	15.186229
_cell_angle_alpha	90.000638
_cell_angle_beta	90.004632
_cell_angle_gamma	83.372248
loop_
_atom_site_label
_atom_site_type_symbol
_atom_site_fract_x
_atom_site_fract_y
_atom_site_fract_z
O1	O	-0.097285	-1.102963	-0.073175
O2	O	-0.109391	-0.860880	-0.073189
O3	O	0.006841	-0.988761	-0.073174
O4	O	-0.213517	-0.975082	-0.073190
O5	O	0.006843	-0.988753	0.073284
O6	O	-0.109390	-0.860872	0.073268
O7	O	-0.097283	-1.102955	0.073283
Zn8	Zn	-0.103336	-0.981912	0.096529
Zn9	Zn	-0.103338	-0.981923	-0.096435
O10	O	-0.213516	-0.975074	0.073267
C11	C	-0.108900	-0.829902	0.000038
C12	C	-0.107430	-0.737609	0.000033
C13	C	0.035040	-0.988267	0.000055
C14	C	0.119060	-0.986796	0.000055
C15	C	-0.241714	-0.975568	0.000037
C16	C	-0.325734	-0.977039	0.000031
C17	C	0.167574	-1.061860	0.000061
C18	C	0.246519	-1.060473	0.000053
C19	C	0.276949	-0.984022	0.000046
C20	C	0.228429	-0.908953	0.000038
C21	C	0.149485	-0.910341	0.000039
C22	C	0.546800	-0.903356	0.000030
C23	C	0.625750	-0.901974	0.000031
C24	C	0.643834	-1.053488	0.000044
C25	C	0.564890	-1.054876	0.000046
C26	C	0.516377	-0.979807	0.000033
C27	C	0.430776	-0.981312	0.000040
C28	C	0.362549	-0.982517	0.000045
C29	C	-0.097774	-1.133933	0.000054
C30	C	-0.099244	-1.226226	0.000053
N31	N	-0.103334	-0.981910	0.228221
C32	C	-0.172981	-0.515224	0.000038
C33	C	-0.171594	-0.428506	0.000044
C34	C	-0.033688	-0.448618	0.000050
C35	C	-0.035076	-0.535334	0.000051
C36	C	-0.104725	-0.568635	0.000040
C37	C	-0.101949	-0.395200	0.000046
C38	C	-0.100445	-0.301177	0.000052
C39	C	-0.106230	-0.662664	0.000036
N40	N	-0.103334	-0.981931	-0.228128
C41	C	-0.051884	-1.038555	0.453951
C42	C	-0.051882	-1.038558	0.546141
C43	C	-0.154787	-0.925280	0.546136
C44	C	-0.154785	-0.925274	0.453948
C45	C	-0.103334	-0.981916	0.407858
C46	C	-0.103334	-0.981925	0.592236
C47	C	-0.103333	-0.981927	0.692192
C48	C	-0.103334	-0.981913	0.307896
H49	H	0.142805	-1.124115	0.000072
Cl50	Cl	-0.260540	-0.557085	0.000030
H51	H	-0.227175	-0.385022	0.000044
Cl52	Cl	0.050740	-0.602484	0.000061
H53	H	-0.009988	-1.084675	0.416427
H54	H	0.683343	-1.114613	0.000050
H55	H	0.650523	-0.839715	0.000027
Cl56	Cl	0.012803	-1.109762	0.604084
H57	H	0.023018	-0.421494	0.000064
H58	H	-0.196682	-0.879148	0.416417
Cl59	Cl	0.307505	-1.154843	0.000063
Cl60	Cl	0.526640	-1.150989	0.000052
H61	H	0.507310	-0.842230	0.000020
Cl62	Cl	0.266684	-0.812843	0.000018
Cl63	Cl	0.088496	-0.815971	0.000029
H64	H	-0.196679	-0.879165	0.583672
