data_functionalizedCrystal
_audit_creation_method	'MofGen! by Chris Wilmer'
_symmetry_space_group_name_H-M	'P1'
_symmetry_Int_Tables_number	1
_symmetry_cell_setting	triclinic
loop_
_symmetry_equiv_pos_as_xyz
  x,y,z
_cell_length_a	23.532407
_cell_length_b	23.532407
_cell_length_c	10.065918
_cell_angle_alpha	99.889985
_cell_angle_beta	99.888156
_cell_angle_gamma	82.848712
loop_
_atom_site_label
_atom_site_type_symbol
_atom_site_fract_x
_atom_site_fract_y
_atom_site_fract_z
O1	O	0.762668	0.076538	0.113423
O2	O	0.596806	0.086543	0.113447
O3	O	0.684737	-0.001393	0.113409
O4	O	0.674737	0.164474	0.113460
O5	O	0.669903	-0.016211	-0.113582
O6	O	0.581972	0.071725	-0.113544
O7	O	0.747834	0.061720	-0.113568
Zn8	Zn	0.662548	0.064370	-0.149596
Zn9	Zn	0.682092	0.083893	0.149474
O10	O	0.659903	0.149656	-0.113530
C11	C	0.568173	0.078879	-0.000046
C12	C	0.504957	0.078114	-0.000038
C13	C	0.238786	0.022915	-0.000093
C14	C	0.298186	0.023626	-0.000092
O15	O	0.334927	-0.020163	-0.000153
N16	N	0.320814	0.075904	-0.000067
C17	C	0.284037	0.127473	-0.000056
O18	O	0.308738	0.172005	-0.000035
C19	C	0.224637	0.126761	-0.000066
C20	C	0.202014	0.074480	-0.000078
C21	C	0.216162	-0.029361	-0.000106
C22	C	0.156766	-0.030072	-0.000104
C23	C	0.119994	0.021493	-0.000089
C24	C	0.142618	0.073769	-0.000076
C25	C	0.187861	0.178328	-0.000065
C26	C	0.128458	0.177611	-0.000076
C27	C	0.105834	0.125331	-0.000088
C28	C	0.046450	0.124623	-0.000058
N29	N	0.023822	0.072345	-0.000084
C30	C	0.060594	0.020780	-0.000099
C31	C	0.408781	0.128966	-0.000036
C32	C	0.468180	0.129680	-0.000016
C33	C	0.482325	0.025833	-0.000055
C34	C	0.422925	0.025120	-0.000066
C35	C	0.386153	0.076688	-0.000062
C36	C	-0.064142	0.019291	-0.000094
C37	C	-0.123544	0.018585	-0.000086
C38	C	-0.137684	0.122431	-0.000054
C39	C	-0.078287	0.123138	-0.000055
C40	C	-0.041518	0.071563	-0.000079
O41	O	0.009674	0.168390	-0.000003
O42	O	0.035883	-0.023745	-0.000137
C43	C	0.677065	-0.030018	-0.000090
C44	C	0.676298	-0.093236	-0.000100
C45	C	0.723536	-0.492334	-0.000032
C46	C	0.722826	-0.551734	-0.000022
O47	O	0.766614	-0.588476	0.000022
N48	N	0.670550	-0.574360	-0.000015
C49	C	0.618982	-0.537582	-0.000005
O50	O	0.574452	-0.562281	0.000002
C51	C	0.619694	-0.478183	-0.000006
C52	C	0.671972	-0.455561	-0.000026
C53	C	0.775811	-0.469712	-0.000051
C54	C	0.776521	-0.410317	-0.000064
C55	C	0.724957	-0.373544	-0.000058
C56	C	0.672683	-0.396166	-0.000039
C57	C	0.568128	-0.441405	0.000014
C58	C	0.568844	-0.382002	0.000014
C59	C	0.621123	-0.359381	-0.000006
C60	C	0.621829	-0.299997	-0.000047
N61	N	0.674105	-0.277372	-0.000053
C62	C	0.725669	-0.314145	-0.000059
C63	C	0.617491	-0.662324	-0.000002
C64	C	0.616778	-0.721722	-0.000011
C65	C	0.720622	-0.735871	-0.000024
C66	C	0.721334	-0.676472	-0.000025
C67	C	0.669767	-0.639698	-0.000008
C68	C	0.727157	-0.189410	-0.000087
C69	C	0.727862	-0.130009	-0.000106
C70	C	0.624019	-0.115866	-0.000085
C71	C	0.623313	-0.175262	-0.000074
C72	C	0.674887	-0.212033	-0.000070
O73	O	0.578064	-0.263221	-0.000085
O74	O	0.770193	-0.289436	-0.000049
C75	C	0.776467	0.069384	-0.000072
C76	C	0.839684	0.070150	-0.000071
C77	C	0.667575	0.178281	-0.000029
C78	C	0.668342	0.241500	-0.000009
N79	N	0.649214	0.051045	-0.353704
C80	C	0.667196	0.069001	-0.578643
C81	C	0.677453	0.079262	-0.421475
N82	N	0.695431	0.097213	0.353582
H83	H	0.138351	-0.072645	-0.000119
N84	N	0.719535	0.121320	-0.344218
H85	H	0.706481	0.161210	-0.369002
H86	H	0.759406	0.108191	-0.369034
H87	H	0.378844	0.170962	-0.000023
H88	H	0.574206	-0.740136	-0.000018
N89	N	0.088805	0.233238	-0.000069
H90	H	0.069340	0.240758	0.084075
H91	H	0.058383	0.229730	-0.084272
N92	N	0.513218	-0.342349	0.000008
H93	H	0.505698	-0.322892	-0.084147
H94	H	0.516725	-0.311920	0.084200
H95	H	0.763903	-0.658058	-0.000040
H96	H	0.575496	-0.632386	0.000001
N97	N	0.212245	0.234721	-0.000045
H98	H	0.193313	0.251799	-0.084188
H99	H	0.255455	0.227319	0.000011
N100	N	0.255817	-0.084983	-0.000103
H101	H	0.296883	-0.076609	-0.000090
H102	H	0.243026	-0.113276	-0.084255
N103	N	0.776239	-0.775540	-0.000012
H104	H	0.809468	-0.752199	-0.000019
H105	H	0.772705	-0.805993	-0.084156
N106	N	0.607135	0.008981	-0.430945
H107	H	0.605772	0.007611	-0.532272
H108	H	0.567272	0.022084	-0.406052
N109	N	-0.053880	0.179524	-0.000036
H110	H	-0.024052	0.187628	0.084105
H111	H	-0.086225	0.212046	-0.000073
N112	N	0.737516	0.139267	-0.569168
H113	H	0.738879	0.140634	-0.467842
H114	H	0.724437	0.179133	-0.594060
N115	N	0.782781	-0.229065	-0.000084
H116	H	0.816000	-0.205713	-0.000101
H117	H	0.779250	-0.259517	-0.084230
H118	H	0.525558	-0.459812	0.000038
H119	H	-0.141960	-0.023990	-0.000092
N120	N	-0.177350	0.178046	-0.000047
H121	H	-0.164615	0.206367	0.084104
H122	H	-0.218398	0.169607	-0.000106
H123	H	0.580741	-0.193683	-0.000095
H124	H	0.817803	-0.499648	-0.000051
H125	H	-0.034211	-0.022707	-0.000113
N126	N	0.784250	-0.105611	-0.000136
H127	H	0.816806	-0.137923	-0.000134
H128	H	0.792308	-0.075774	0.084006
N129	N	0.568410	-0.076191	-0.000105
H130	H	0.571893	-0.045729	0.084034
H131	H	0.535205	-0.099568	-0.000150
N132	N	0.398526	-0.031267	-0.000080
H133	H	0.430839	-0.063822	-0.000084
H134	H	0.368696	-0.039321	-0.084235
H135	H	0.512276	-0.016155	-0.000068
N136	N	0.832911	-0.385928	-0.000075
H137	H	0.860980	-0.393866	0.084073
H138	H	0.825499	-0.342726	-0.000128
N139	N	0.492580	0.186070	0.000032
H140	H	0.460267	0.218626	0.000046
H141	H	0.511421	0.183141	-0.084112
N142	N	0.625120	0.026939	-0.655893
H143	H	0.623758	0.025570	-0.757219
H144	H	0.585256	0.040042	-0.631002
