data_functionalizedCrystal
_audit_creation_method	'MofGen! by Chris Wilmer'
_symmetry_space_group_name_H-M	'P1'
_symmetry_Int_Tables_number	1
_symmetry_cell_setting	triclinic
loop_
_symmetry_equiv_pos_as_xyz
  x,y,z
_cell_length_a	16.120542
_cell_length_b	16.120444
_cell_length_c	16.120297
_cell_angle_alpha	84.384883
_cell_angle_beta	90.127087
_cell_angle_gamma	89.835691
loop_
_atom_site_label
_atom_site_type_symbol
_atom_site_fract_x
_atom_site_fract_y
_atom_site_fract_z
Zn1	Zn	-1.224978	-0.422357	0.554850
Zn2	Zn	-0.724978	0.077643	1.054850
Zn3	Zn	-1.224871	-0.555041	0.422156
Zn4	Zn	-0.724871	-0.055041	0.922156
Zn5	Zn	-1.093718	-0.408262	0.408089
Zn6	Zn	-0.593718	0.091738	0.908089
Zn7	Zn	-1.078868	-0.554263	0.554085
Zn8	Zn	-0.578868	-0.054263	1.054085
O9	O	-1.155609	-0.484981	0.484795
O10	O	-0.655609	0.015019	0.984795
O11	O	-1.340999	-0.446182	0.543455
O12	O	-0.840999	0.053818	1.043455
O13	O	-1.213643	-0.529998	0.303658
O14	O	-0.713643	-0.029998	0.803658
O15	O	-1.117389	-0.293501	0.421990
O16	O	-0.617389	0.206499	0.921990
O17	O	-1.340921	-0.543664	0.445966
O18	O	-0.840921	-0.043664	0.945966
O19	O	-1.213825	-0.303856	0.529814
O20	O	-0.713825	0.196144	1.029814
O21	O	-1.117285	-0.422160	0.293322
O22	O	-0.617285	0.077840	0.793322
O23	O	-0.975712	-0.421406	0.421248
O24	O	-0.475712	0.078594	0.921248
O25	O	-1.092080	-0.542338	0.670819
O26	O	-0.592080	-0.042338	1.170819
O27	O	-0.964803	-0.528671	0.528511
O28	O	-0.464803	-0.028671	1.028511
O29	O	-1.199427	-0.445427	0.671381
O30	O	-0.699427	0.054573	1.171381
O31	O	-1.199244	-0.671568	0.445224
O32	O	-0.699244	-0.171568	0.945224
O33	O	-1.091977	-0.670997	0.542152
O34	O	-0.591977	-0.170997	1.042152
C35	C	-0.940171	-0.473425	0.473271
C36	C	-0.440171	0.026575	0.973271
C37	C	-0.848003	-0.468503	0.468361
C38	C	-0.348003	0.031497	0.968361
C39	C	-0.632809	-0.510488	0.510215
C40	C	-0.132809	-0.010488	1.010215
C41	C	-0.679257	-0.459523	0.459397
C42	C	-0.179257	0.040477	0.959397
C43	C	-0.773156	-0.464521	0.464386
C44	C	-0.273156	0.035479	0.964386
C45	C	-0.538901	-0.505492	0.505227
C46	C	-0.038901	-0.005492	1.005227
C47	C	-1.144009	-0.701526	0.495151
C48	C	-0.644009	-0.201526	0.995151
C49	C	-1.139121	-0.794170	0.499613
C50	C	-0.639121	-0.294170	0.999613
C51	C	-0.371889	-0.496577	0.496353
C52	C	0.128111	0.003423	0.996353
C53	C	-0.464057	-0.501506	0.501248
C54	C	0.035943	-0.001506	1.001248
C55	C	-1.181159	-1.005331	0.461837
C56	C	-0.681159	-0.505331	0.961837
C57	C	-1.130212	-0.963788	0.507769
C58	C	-0.630212	-0.463788	1.007769
C59	C	-1.135170	-0.869403	0.503230
C60	C	-0.635170	-0.369403	1.003230
C61	C	-1.176202	-1.099724	0.466376
C62	C	-0.676202	-0.599724	0.966376
C63	C	-1.144109	-0.495368	0.702187
C64	C	-0.644109	0.004632	1.202187
C65	C	-1.139209	-0.499794	0.794827
C66	C	-0.639209	0.000206	1.294827
C67	C	-1.167275	-0.267592	0.474418
C68	C	-0.667275	0.232408	0.974418
C69	C	-1.172247	-0.174954	0.469996
C70	C	-0.672247	0.325046	0.969996
C71	C	-1.167115	-0.474577	0.268248
C72	C	-0.667115	0.025423	0.768248
C73	C	-1.172188	-0.469924	0.175607
C74	C	-0.672188	0.030076	0.675607
C75	C	-1.130232	-0.507855	0.964438
C76	C	-0.630232	-0.007855	1.464438
C77	C	-1.181162	-0.461865	1.006001
C78	C	-0.681162	0.038135	1.506001
C79	C	-1.176168	-0.466351	1.100378
C80	C	-0.676168	0.033649	1.600378
C81	C	-1.135226	-0.503371	0.870052
C82	C	-0.635226	-0.003371	1.370052
H83	H	-0.663562	-0.557871	0.557464
H84	H	-0.163562	-0.057871	1.057464
C85	C	-1.245106	-0.957629	0.404106
C86	C	-0.745106	-0.457629	0.904106
H87	H	-1.276425	-0.996104	0.375884
H88	H	-0.776425	-0.496104	0.875884
H89	H	-1.217079	-0.920278	0.364476
H90	H	-0.717079	-0.420278	0.864476
H91	H	-1.281276	-0.927077	0.436349
H92	H	-0.781276	-0.427077	0.936349
H93	H	-1.082870	-0.999106	0.550502
H94	H	-0.582870	-0.499106	1.050502
C95	C	-1.245139	-0.404131	0.958325
C96	C	-0.745139	0.095869	1.458325
H97	H	-1.240152	-0.408659	0.900228
H98	H	-0.740152	0.091341	1.400228
H99	H	-1.235280	-0.348141	0.969207
H100	H	-0.735280	0.151859	1.469207
H101	H	-1.299460	-0.419992	0.976117
H102	H	-0.799460	0.080008	1.476117
H103	H	-1.082883	-0.550594	0.999732
H104	H	-0.582883	-0.050594	1.499732
H105	H	-0.648501	-0.412137	0.412144
H106	H	-0.148501	0.087863	0.912144
