data_functionalizedCrystal
_audit_creation_method	'MofGen! by Chris Wilmer'
_symmetry_space_group_name_H-M	'P1'
_symmetry_Int_Tables_number	1
_symmetry_cell_setting	triclinic
loop_
_symmetry_equiv_pos_as_xyz
  x,y,z
_cell_length_a	6.817900
_cell_length_b	13.466098
_cell_length_c	17.110486
_cell_angle_alpha	95.022981
_cell_angle_beta	99.060439
_cell_angle_gamma	111.116846
loop_
_atom_site_label
_atom_site_type_symbol
_atom_site_fract_x
_atom_site_fract_y
_atom_site_fract_z
V1	V	-4.016772	-0.147117	-0.247437
O2	O	-3.963369	0.007396	-0.241988
O3	O	-4.007892	-0.292023	-0.246455
O4	O	-3.945978	-0.144711	-0.355028
O5	O	-4.025712	-0.140936	-0.132663
V6	V	-4.498181	-0.128653	-0.233623
O7	O	-4.282668	-0.187621	-0.277740
O8	O	-4.682482	-0.088149	-0.203320
O9	O	-4.283854	0.016253	-0.234604
O10	O	-4.668981	-0.283166	-0.239072
O11	O	-4.606638	-0.134835	-0.348396
O12	O	-4.345769	-0.131059	-0.126031
C13	C	-3.863232	-0.327353	-0.242735
C14	C	-3.937109	-0.445814	-0.242650
C15	C	-4.224005	-0.618203	-0.246511
C16	C	-4.154602	-0.506898	-0.246587
C17	C	-3.789009	-0.496043	-0.238635
C18	C	-3.858412	-0.607349	-0.238559
C19	C	-4.075915	-0.668425	-0.242498
C20	C	-4.145319	-0.779734	-0.242428
C21	C	-3.779724	-0.768876	-0.234470
C22	C	-3.710321	-0.657570	-0.234546
C23	C	-3.784252	-0.139440	-0.381230
C24	C	-3.807915	-0.138432	-0.469191
C25	C	-4.001769	-0.143276	-0.514573
C26	C	-4.023991	-0.142328	-0.597221
C27	C	-3.852361	-0.136543	-0.634488
C28	C	-3.658489	-0.131694	-0.589100
C29	C	-3.636265	-0.132635	-0.506452
C30	C	-3.910316	-0.133429	-0.883828
C31	C	-3.932558	-0.132492	-0.966482
C32	C	-4.298058	-0.143124	-0.974597
C33	C	-4.275821	-0.144070	-0.891948
C34	C	-4.081948	-0.139216	-0.846567
C35	C	-3.875073	-0.135576	-0.718968
C36	C	-4.059234	-0.140175	-0.762087
C37	C	-4.091859	0.051577	-0.238322
C38	C	-3.997219	0.170037	-0.238412
C39	C	-4.170838	-0.136334	-0.099825
C40	C	-4.126412	-0.137337	-0.011863
H41	H	-3.611914	-0.446293	-0.235418
H42	H	-3.478393	-0.128664	-0.469500
Br43	Br	-3.578737	-0.837042	-0.229037
H44	H	-3.533228	-0.607826	-0.231336
Br45	Br	-4.519187	-0.701102	-0.251873
Br46	Br	-4.355589	-0.438740	-0.252026
Br47	Br	-3.699617	-0.124644	-1.017058
H48	H	-3.518742	-0.126978	-0.619448
Br49	Br	-4.561157	-0.149708	-1.036190
Br50	Br	-4.292150	-0.148022	-0.711509
Br51	Br	-3.647225	-0.126871	-0.822252
Br52	Br	-4.234720	-0.151139	-0.464006
H53	H	-4.415584	-0.148780	-0.861612
Br54	Br	-4.440499	-0.862625	-0.247779
H55	H	-4.181840	-0.146267	-0.634167
H56	H	-3.735337	-0.130870	-0.749320
