data_functionalizedCrystal
_audit_creation_method	'MofGen! by Chris Wilmer'
_symmetry_space_group_name_H-M	'P1'
_symmetry_Int_Tables_number	1
_symmetry_cell_setting	triclinic
loop_
_symmetry_equiv_pos_as_xyz
  x,y,z
_cell_length_a	12.827893
_cell_length_b	12.645330
_cell_length_c	12.827885
_cell_angle_alpha	89.971022
_cell_angle_beta	89.980728
_cell_angle_gamma	90.017662
loop_
_atom_site_label
_atom_site_type_symbol
_atom_site_fract_x
_atom_site_fract_y
_atom_site_fract_z
Zn1	Zn	1.597653	-0.421989	-0.590855
Zn2	Zn	1.597540	-0.599290	-0.416117
Zn3	Zn	1.422894	-0.422040	-0.416128
Zn4	Zn	1.422873	-0.599211	-0.590817
O5	O	1.510240	-0.510632	-0.503479
O6	O	1.743874	-0.445520	-0.567686
O7	O	1.574335	-0.575832	-0.269883
O8	O	1.446133	-0.273686	-0.439326
O9	O	1.743791	-0.575782	-0.439308
O10	O	1.574527	-0.273648	-0.567697
O11	O	1.446023	-0.445608	-0.269891
O12	O	1.276655	-0.445531	-0.439290
O13	O	1.446096	-0.575647	-0.737058
O14	O	1.276639	-0.575697	-0.567633
O15	O	1.574506	-0.445443	-0.737086
O16	O	1.574314	-0.747626	-0.439271
O17	O	1.445986	-0.747568	-0.567623
C18	C	1.238730	-0.510612	-0.503459
C19	C	1.122577	-0.510629	-0.503476
C20	C	1.070812	-0.575140	-0.566886
C21	C	0.950762	-0.575159	-0.566904
C22	C	1.510164	-0.786062	-0.503465
C23	C	1.510227	-0.903892	-0.503493
C24	C	1.429829	-1.071464	-0.584488
C25	C	1.429418	-0.948904	-0.584228
C26	C	1.480414	-0.948494	-0.393362
C27	C	1.479923	-1.071093	-0.393854
C28	C	1.620929	-1.070979	-0.531736
C29	C	1.620251	-0.948372	-0.534144
C30	C	1.782810	-0.510654	-0.503500
C31	C	1.898963	-0.510663	-0.503509
C32	C	1.510311	-0.510531	-0.776050
C33	C	1.510341	-0.510487	-0.892203
C34	C	1.510345	-0.234127	-0.503517
C35	C	1.510390	-0.116297	-0.503533
C36	C	1.573890	-0.446045	-0.944001
C37	C	1.573923	-0.445999	-1.064052
C38	C	1.510229	-0.510657	-0.231969
C39	C	1.510401	-0.510402	-0.115817
H40	H	0.906245	-0.630392	-0.621189
H41	H	1.628268	-0.390905	-0.899471
N42	N	1.442099	-0.579640	-0.948058
N43	N	1.375595	-0.542248	-1.008980
H44	H	1.327394	-0.591087	-1.048427
H45	H	1.399118	-1.099786	-0.369962
H46	H	1.347469	-0.919671	-0.565543
H47	H	0.943473	-0.455433	-0.449214
H48	H	1.400452	-0.917885	-0.369038
H49	H	1.078018	-0.455408	-0.449206
H50	H	1.115371	-0.630352	-0.621164
H51	H	1.648124	-1.101818	-0.610678
N52	N	1.452980	-1.108354	-0.687276
N53	N	1.397059	-1.080830	-0.762309
H54	H	1.413409	-1.106891	-0.834907
N55	N	1.642164	-0.376783	-1.119941
N56	N	1.605379	-0.309264	-1.180876
H57	H	1.653575	-0.260377	-1.220352
N58	N	1.452819	-0.911078	-0.686674
N59	N	1.469567	-0.975223	-0.758866
H60	H	1.486091	-0.948514	-0.831224
N61	N	1.550316	-1.108294	-0.315583
N62	N	1.599644	-1.043710	-0.260765
H63	H	1.649346	-1.069978	-0.205475
N64	N	1.442127	-0.579618	-1.059968
N65	N	1.382404	-0.640162	-1.108583
H66	H	1.334183	-0.689047	-1.069134
N67	N	1.327672	-1.110240	-0.561346
N68	N	1.313941	-1.170750	-0.485489
H69	H	1.241794	-1.198139	-0.469142
N70	N	1.551663	-0.911920	-0.315603
N71	N	1.540196	-0.939446	-0.222702
H72	H	1.590515	-0.913612	-0.167784
N73	N	1.648452	-0.911769	-0.635812
N74	N	1.655988	-0.814811	-0.653282
H75	H	1.675901	-0.788950	-0.725086
N76	N	1.699506	-0.909926	-0.465553
N77	N	1.676085	-0.848850	-0.392633
H78	H	1.732056	-0.821701	-0.344179
H79	H	1.680949	-1.099972	-0.472773
