data_functionalizedCrystal
_audit_creation_method	'MofGen! by Chris Wilmer'
_symmetry_space_group_name_H-M	'P1'
_symmetry_Int_Tables_number	1
_symmetry_cell_setting	triclinic
loop_
_symmetry_equiv_pos_as_xyz
  x,y,z
_cell_length_a	14.853567
_cell_length_b	15.944493
_cell_length_c	13.930277
_cell_angle_alpha	90.001318
_cell_angle_beta	89.995755
_cell_angle_gamma	83.554987
loop_
_atom_site_label
_atom_site_type_symbol
_atom_site_fract_x
_atom_site_fract_y
_atom_site_fract_z
O1	O	1.196203	0.109667	-0.079752
O2	O	1.696203	0.609667	0.420248
O3	O	0.933724	0.122731	-0.079767
O4	O	1.433724	0.622731	0.420233
O5	O	1.072158	-0.006071	-0.079767
O6	O	1.572158	0.493929	0.420233
O7	O	1.057769	0.238470	-0.079752
O8	O	1.557769	0.738470	0.420248
O9	O	1.072139	-0.006073	0.079895
O10	O	1.572139	0.493927	0.579895
O11	O	0.933705	0.122729	0.079895
O12	O	1.433705	0.622729	0.579895
O13	O	1.196184	0.109665	0.079910
O14	O	1.696184	0.609665	0.579910
Zn15	Zn	1.064941	0.116196	0.105252
Zn16	Zn	1.564941	0.616196	0.605252
Zn17	Zn	1.064967	0.116200	-0.105109
Zn18	Zn	1.564967	0.616200	0.394891
O19	O	1.057749	0.238467	0.079910
O20	O	1.557749	0.738467	0.579910
C21	C	0.900126	0.122138	0.000062
C22	C	1.400126	0.622138	0.500062
C23	C	0.800045	0.120364	0.000056
C24	C	1.300045	0.620364	0.500056
C25	C	1.071561	-0.037368	0.000060
C26	C	1.571561	0.462632	0.500060
C27	C	1.069797	-0.130618	0.000048
C28	C	1.569797	0.369382	0.500048
C29	C	0.387638	0.036355	0.000072
C30	C	0.887638	0.536355	0.500072
C31	C	0.366127	0.189375	0.000081
C32	C	0.866127	0.689375	0.500081
C33	C	0.460158	0.191042	0.000078
C34	C	0.960158	0.691042	0.500078
C35	C	0.517934	0.115365	0.000070
C36	C	1.017934	0.615365	0.500070
C37	C	0.481678	0.038020	0.000066
C38	C	0.981678	0.538020	0.500066
C39	C	0.496420	0.268386	0.000072
C40	C	0.996420	0.768386	0.500072
C41	C	0.590457	0.270057	0.000068
C42	C	1.090457	0.770057	0.500068
C43	C	0.648235	0.194379	0.000068
C44	C	1.148235	0.694379	0.500068
C45	C	0.611974	0.117031	0.000065
C46	C	1.111974	0.617031	0.500065
C47	C	0.669750	0.041354	0.000057
C48	C	1.169750	0.541354	0.500057
C49	C	0.633491	-0.035995	0.000061
C50	C	1.133491	0.464005	0.500061
C51	C	0.539456	-0.037658	0.000066
C52	C	1.039456	0.462342	0.500066
C53	C	0.742270	0.196041	0.000063
C54	C	1.242270	0.696041	0.500063
C55	C	0.763790	0.043019	0.000051
C56	C	1.263790	0.543019	0.500051
C57	C	1.151283	-0.366287	0.000070
C58	C	1.651283	0.133713	0.500070
C59	C	1.107350	-0.416903	-0.078653
C60	C	1.607350	0.083097	0.421347
C61	C	1.066530	-0.301343	0.000059
C62	C	1.566530	0.198657	0.500059
C63	C	1.107312	-0.416882	0.078761
C64	C	1.607312	0.083118	0.578761
C65	C	1.063381	-0.466256	0.000075
C66	C	1.563381	0.033744	0.500075
C67	C	1.022620	-0.350730	-0.078729
C68	C	1.522620	0.149270	0.421271
C69	C	1.022594	-0.350706	0.078755
C70	C	1.522594	0.149294	0.578755
C71	C	0.978599	-0.401288	0.000013
C72	C	1.478599	0.098712	0.500013
C73	C	1.068347	-0.206341	0.000050
C74	C	1.568347	0.293659	0.500050
C75	C	1.061557	-0.561255	0.000077
C76	C	1.561557	-0.061255	0.500077
C77	C	1.229781	0.110258	0.000079
C78	C	1.729781	0.610258	0.500079
C79	C	1.329862	0.112032	0.000079
C80	C	1.829862	0.612032	0.500079
C81	C	1.058347	0.269764	0.000081
C82	C	1.558347	0.769764	0.500081
C83	C	1.060110	0.363014	0.000087
C84	C	1.560110	0.863014	0.500087
N85	N	1.064931	0.116193	0.248818
N86	N	1.564931	0.616193	0.748818
N87	N	1.064984	0.116196	-0.248675
N88	N	1.564984	0.616196	0.251325
C89	C	1.003665	0.173211	0.701088
C90	C	1.503665	0.673211	1.201088
C91	C	1.126293	0.059182	0.701057
C92	C	1.626293	0.559182	1.201057
C93	C	1.126282	0.059180	0.600561
C94	C	1.626282	0.559180	1.100561
C95	C	1.064963	0.116194	0.550324
C96	C	1.564963	0.616194	1.050324
C97	C	1.003655	0.173212	0.600583
C98	C	1.503655	0.673212	1.100583
C99	C	1.187595	0.002169	0.550295
C100	C	1.687595	0.502169	1.050295
C101	C	1.187588	0.002164	0.449793
C102	C	1.687588	0.502164	0.949793
C103	C	1.126263	0.059176	0.399554
C104	C	1.626263	0.559176	0.899554
C105	C	1.064952	0.116195	0.449819
C106	C	1.564952	0.616195	0.949819
C107	C	1.003633	0.173210	0.399582
C108	C	1.503633	0.673210	0.899582
C109	C	0.942317	0.230226	0.449845
C110	C	1.442317	0.730226	0.949845
C111	C	0.942331	0.230223	0.550344
C112	C	1.442331	0.730223	1.050344
C113	C	1.126250	0.059178	0.299056
C114	C	1.626250	0.559178	0.799056
C115	C	1.003622	0.173211	0.299077
C116	C	1.503622	0.673211	0.799077
H117	H	0.810826	-0.018607	0.000049
H118	H	1.310826	0.481393	0.500049
C119	C	0.630339	0.355133	0.000068
C120	C	1.130339	0.855133	0.500068
H121	H	0.694617	0.345289	0.000059
H122	H	1.194617	0.845289	0.500059
H123	H	0.610504	0.386298	0.055746
H124	H	1.110504	0.886298	0.555746
H125	H	0.610510	0.386294	-0.055616
H126	H	1.110510	0.886294	0.444384
H127	H	1.143114	-0.445774	0.145311
H128	H	1.643114	0.054226	0.645311
H129	H	0.953740	0.219630	0.742014
H130	H	1.453740	0.719630	1.242014
H131	H	0.319080	0.250987	0.000078
H132	H	0.819080	0.750987	0.500078
C133	C	1.249899	-0.345056	-0.000028
C134	C	1.749899	0.154944	0.499972
H135	H	1.279885	-0.367840	-0.056031
H136	H	1.779885	0.132160	0.443969
H137	H	1.280289	-0.368696	0.055330
H138	H	1.780289	0.131304	0.555330
H139	H	1.250359	-0.285526	0.000535
H140	H	1.750359	0.214474	0.500535
H141	H	0.680545	-0.097611	0.000049
H142	H	1.180545	0.402389	0.500049
C143	C	0.936172	0.235930	0.243824
C144	C	1.436172	0.735930	0.743824
H145	H	0.899664	0.269887	0.288154
H146	H	1.399664	0.769887	0.788154
H147	H	0.898650	0.205652	0.204620
H148	H	1.398650	0.705652	0.704620
H149	H	0.968596	0.270959	0.204619
H150	H	1.468596	0.770959	0.704619
C151	C	0.974264	-0.311638	0.168659
C152	C	1.474264	0.188362	0.668659
H153	H	0.924188	-0.272810	0.149751
H154	H	1.424188	0.227190	0.649751
H155	H	1.015393	-0.282974	0.205092
H156	H	1.515393	0.217026	0.705092
H157	H	0.953382	-0.355035	0.206599
H158	H	1.453382	0.144965	0.706599
H159	H	1.237513	-0.044261	0.408875
H160	H	1.737513	0.455739	0.908875
C161	C	0.782156	0.281112	0.000056
C162	C	1.282156	0.781112	0.500056
H163	H	0.846435	0.271266	0.000047
H164	H	1.346435	0.771266	0.500047
H165	H	0.762323	0.312281	0.055731
H166	H	1.262323	0.812281	0.555731
H167	H	0.762329	0.312269	-0.055631
H168	H	1.262329	0.812269	0.444369
C169	C	1.255036	-0.060548	0.605551
C170	C	1.755036	0.439452	1.105551
H171	H	1.291554	-0.094499	0.561225
H172	H	1.791554	0.405501	1.061225
H173	H	1.222612	-0.095569	0.644756
H174	H	1.722612	0.404431	1.144756
H175	H	1.292561	-0.030265	0.644754
H176	H	1.792561	0.469735	1.144754
C177	C	0.874899	0.292940	0.605634
C178	C	1.374899	0.792940	1.105634
H179	H	0.883697	0.284780	0.672682
H180	H	1.383697	0.784780	1.172682
H181	H	0.814731	0.283720	0.589182
H182	H	1.314731	0.783720	1.089182
H183	H	0.884684	0.349020	0.589160
H184	H	1.384684	0.849020	1.089160
C185	C	0.499569	-0.122732	0.000060
C186	C	0.999569	0.377268	0.500060
H187	H	0.435291	-0.112883	0.000052
H188	H	0.935291	0.387117	0.500052
H189	H	0.519394	-0.153901	0.055733
H190	H	1.019394	0.346099	0.555733
H191	H	0.519403	-0.153890	-0.055629
H192	H	1.019403	0.346110	0.444371
C193	C	0.874871	0.292943	0.394582
C194	C	1.374871	0.792943	0.894582
H195	H	0.838358	0.326903	0.438905
H196	H	1.338358	0.826903	0.938905
H197	H	0.837354	0.262662	0.355376
H198	H	1.337354	0.762662	0.855376
H199	H	0.907300	0.327968	0.355379
H200	H	1.407300	0.827968	0.855379
C201	C	1.193738	-0.003528	0.756315
C202	C	1.693738	0.496472	1.256315
H203	H	1.184961	0.004635	0.823367
H204	H	1.684961	0.504635	1.323367
H205	H	1.253900	0.005693	0.739831
H206	H	1.753900	0.505693	1.239831
H207	H	1.183949	-0.059609	0.739849
H208	H	1.683949	0.440391	1.239849
H209	H	1.176177	0.012761	0.258136
H210	H	1.676177	0.512761	0.758136
H211	H	0.358112	-0.026621	0.000079
H212	H	0.858112	0.473379	0.500079
C213	C	0.879906	-0.422301	-0.000049
C214	C	1.379906	0.077699	0.499951
H215	H	0.849949	-0.399430	-0.056022
H216	H	1.349949	0.100570	0.443978
H217	H	0.849587	-0.398630	0.055340
H218	H	1.349587	0.101370	0.555340
H219	H	0.879299	-0.481815	0.000475
H220	H	1.379299	0.018185	0.500475
C221	C	0.432869	0.351622	0.000084
C222	C	0.932869	0.851622	0.500084
H223	H	0.371673	0.339551	0.000101
H224	H	0.871673	0.839551	0.500101
H225	H	0.443852	0.383337	-0.055592
H226	H	0.943852	0.883337	0.444408
H227	H	0.443862	0.383328	0.055770
H228	H	0.943862	0.883328	0.555770
H229	H	1.143151	-0.445808	-0.145205
H230	H	1.643151	0.054192	0.354795
H231	H	0.986856	-0.321949	-0.145355
H232	H	1.486856	0.178051	0.354645
