data_functionalizedCrystal
_audit_creation_method	'MofGen! by Chris Wilmer'
_symmetry_space_group_name_H-M	'P1'
_symmetry_Int_Tables_number	1
_symmetry_cell_setting	triclinic
loop_
_symmetry_equiv_pos_as_xyz
  x,y,z
_cell_length_a	14.044209
_cell_length_b	18.266242
_cell_length_c	14.044190
_cell_angle_alpha	90.010750
_cell_angle_beta	86.810135
_cell_angle_gamma	89.996672
loop_
_atom_site_label
_atom_site_type_symbol
_atom_site_fract_x
_atom_site_fract_y
_atom_site_fract_z
O1	O	-1.277181	0.060807	0.230160
O2	O	-1.000509	0.060828	0.221857
O3	O	-1.134688	0.060803	0.087672
O4	O	-1.143001	0.060831	0.364344
O5	O	-1.134663	-0.060959	0.087662
O6	O	-1.000483	-0.060934	0.221847
O7	O	-1.277155	-0.060955	0.230150
Zn8	Zn	-1.138815	-0.080277	0.225997
Zn9	Zn	-1.138849	0.080150	0.226010
O10	O	-1.142975	-0.060931	0.364335
C11	C	-0.964874	-0.000051	0.218216
C12	C	-0.858731	-0.000044	0.207373
N13	N	-1.138799	-0.189764	0.225988
C14	C	-0.664393	-0.000059	0.187548
C15	C	-0.613265	-0.000054	0.264463
C16	C	-0.505128	-0.000062	0.253432
C17	C	-0.772539	-0.000051	0.198577
C18	C	-1.198238	-0.228083	0.166605
C19	C	-1.198243	-0.304728	0.166601
C20	C	-1.138821	-0.343051	0.225998
C21	C	-1.079370	-0.304722	0.285385
C22	C	-1.079359	-0.228079	0.285380
N23	N	-1.133814	-0.463374	0.309448
N24	N	-1.133830	-0.536182	0.309449
C25	C	-1.138849	-0.573973	0.226014
N26	N	-1.143870	-0.536206	0.142575
N27	N	-1.143859	-0.463391	0.142575
C28	C	-1.138826	-0.426158	0.226009
C29	C	-1.198297	-0.695400	0.166621
C30	C	-1.198296	-0.772046	0.166616
C31	C	-1.079428	-0.772038	0.285408
C32	C	-1.079424	-0.695393	0.285405
C33	C	-1.138863	-0.657079	0.226013
C34	C	-0.312790	-0.000072	0.233793
C35	C	-0.418932	-0.000069	0.244642
C36	C	-1.131039	-0.000080	0.052045
C37	C	-1.120192	-0.000085	-0.054098
N38	N	-1.138872	0.189637	0.226012
C39	C	-1.177292	-0.000061	-0.299557
C40	C	-1.100376	-0.000060	-0.248431
C41	C	-1.111404	-0.000074	-0.140294
C42	C	-1.166265	-0.000047	-0.407703
C43	C	-1.146625	-0.000046	0.399962
C44	C	-1.157472	-0.000036	0.506105
H45	H	-0.626954	-0.000070	0.113420
H46	H	-0.650706	-0.000043	0.338596
C47	C	-1.000223	-0.000054	-0.299001
C48	C	-0.930629	-0.063285	-0.282101
C49	C	-0.830480	-0.063283	-0.332675
C50	C	-0.799924	-0.000051	-0.400149
C51	C	-0.869519	0.063184	-0.417052
C52	C	-0.969668	0.063182	-0.366479
H53	H	-0.953247	-0.110097	-0.232150
H54	H	-0.778961	-0.110094	-0.320161
H55	H	-0.725787	-0.000050	-0.437587
H56	H	-0.846901	0.109996	-0.467004
H57	H	-1.021187	0.109993	-0.378992
H58	H	-1.031041	-0.803240	0.333766
H59	H	-1.251419	-0.000074	-0.262116
C60	C	-1.263609	-0.185936	0.101268
C61	C	-1.328990	-0.228089	0.035939
C62	C	-1.394358	-0.185938	-0.029400
C63	C	-1.394346	-0.101633	-0.029409
C64	C	-1.328963	-0.059475	0.035923
C65	C	-1.263594	-0.101626	0.101262
H66	H	-1.329001	-0.290501	0.035943
H67	H	-1.442759	-0.217146	-0.077763
H68	H	-1.442735	-0.070430	-0.077776
H69	H	-1.328951	0.002937	0.035919
H70	H	-1.215193	-0.070417	0.149625
H71	H	-1.246647	-0.335934	0.118242
H72	H	-1.030986	-0.335928	0.333745
H73	H	-1.246693	-0.664203	0.118258
H74	H	-1.246695	-0.803247	0.118253
C75	C	-1.013979	-0.185922	0.350711
C76	C	-0.948641	-0.228067	0.416078
C77	C	-0.883261	-0.185908	0.481411
C78	C	-0.883220	-0.101604	0.481377
C79	C	-0.948561	-0.059453	0.416008
C80	C	-1.013940	-0.101612	0.350675
H81	H	-0.948669	-0.290479	0.416105
H82	H	-0.834892	-0.217111	0.529801
H83	H	-0.834823	-0.070395	0.529741
H84	H	-0.948533	0.002959	0.415981
H85	H	-1.062310	-0.070409	0.302285
C86	C	-1.014050	-0.653235	0.350738
C87	C	-0.948712	-0.695381	0.416104
C88	C	-0.883332	-0.653222	0.481437
C89	C	-0.883291	-0.568917	0.481404
C90	C	-0.948632	-0.526767	0.416035
C91	C	-1.014011	-0.568926	0.350702
H92	H	-0.948740	-0.757793	0.416131
H93	H	-0.834963	-0.684425	0.529828
H94	H	-0.834894	-0.537709	0.529767
H95	H	-0.948604	-0.464355	0.416008
H96	H	-1.062381	-0.537723	0.302311
