data_functionalizedCrystal
_audit_creation_method	'MofGen! by Chris Wilmer'
_symmetry_space_group_name_H-M	'P1'
_symmetry_Int_Tables_number	1
_symmetry_cell_setting	triclinic
loop_
_symmetry_equiv_pos_as_xyz
  x,y,z
_cell_length_a	17.699083
_cell_length_b	10.654550
_cell_length_c	16.176319
_cell_angle_alpha	89.994395
_cell_angle_beta	89.998611
_cell_angle_gamma	83.883959
loop_
_atom_site_label
_atom_site_type_symbol
_atom_site_fract_x
_atom_site_fract_y
_atom_site_fract_z
O1	O	1.005088	0.158809	-0.068628
O2	O	0.784841	0.179470	-0.068655
O3	O	0.900029	-0.013688	-0.068638
O4	O	0.889901	0.351967	-0.068646
O5	O	0.900013	-0.013701	0.068855
O6	O	0.784825	0.179458	0.068838
O7	O	1.005072	0.158797	0.068865
Cu8	Cu	0.894947	0.169126	0.081406
Cu9	Cu	0.894966	0.169141	-0.081196
O10	O	0.889885	0.351955	0.068848
C11	C	0.756632	0.178724	0.000088
C12	C	0.672599	0.176503	0.000078
C13	C	0.624699	0.289883	0.000076
C14	C	0.545743	0.287788	0.000086
C15	C	0.514688	0.172313	0.000093
C16	C	0.562594	0.058924	0.000098
C17	C	0.641549	0.061020	0.000093
C18	C	0.244177	0.050470	0.000118
C19	C	0.165216	0.048383	0.000121
C20	C	0.148371	0.277239	0.000112
C21	C	0.227326	0.279334	0.000107
C22	C	0.275225	0.165946	0.000116
C23	C	0.360839	0.168219	0.000106
C24	C	0.429076	0.170039	0.000097
C25	C	0.899277	-0.060479	0.000107
C26	C	0.897052	-0.199884	0.000104
C27	C	0.964873	-0.280557	0.000115
C28	C	0.962778	-0.411541	0.000109
C29	C	0.825036	-0.381166	0.000085
C30	C	0.827132	-0.250185	0.000085
C31	C	1.034794	-0.230256	0.000134
C32	C	1.102620	-0.310930	0.000146
C33	C	1.100525	-0.441914	0.000140
C34	C	1.030603	-0.492224	0.000122
C35	C	1.033282	0.159543	0.000120
C36	C	1.117314	0.161764	0.000125
C37	C	0.890637	0.398746	0.000100
C38	C	0.892861	0.538151	0.000098
N39	N	0.894940	0.169115	0.195771
N40	N	0.894980	0.169142	-0.195561
C41	C	0.945960	0.083619	0.239042
C42	C	0.945964	0.083618	0.325590
C43	C	0.894950	0.169120	0.368863
C44	C	0.843924	0.254619	0.325586
C45	C	0.843917	0.254614	0.239040
C46	C	0.843950	0.254643	0.674614
C47	C	0.843962	0.254644	0.761165
C48	C	0.945997	0.083647	0.761163
C49	C	0.945990	0.083642	0.674618
C50	C	0.894962	0.169136	0.631348
C51	C	0.894957	0.169135	0.537503
C52	C	0.894958	0.169128	0.462706
H53	H	0.252606	0.373366	0.000098
Cl54	Cl	0.741870	-0.148761	0.000071
H55	H	0.537303	-0.035099	0.000115
H56	H	0.139935	-0.045657	0.000127
Cl57	Cl	1.185790	-0.543329	0.000146
H58	H	1.159547	-0.269958	0.000140
Cl59	Cl	0.779825	0.362139	0.815566
Cl60	Cl	0.737141	-0.444415	0.000065
Cl61	Cl	1.027972	-0.656892	0.000151
H62	H	0.802402	0.324258	0.639390
H63	H	0.649978	0.383916	0.000069
H64	H	0.506745	0.380114	0.000084
Cl65	Cl	0.779788	0.362103	0.379985
Cl66	Cl	0.304383	-0.092076	0.000129
H67	H	1.036507	-0.123604	0.000142
Cl68	Cl	0.088149	0.419786	0.000104
H69	H	0.802370	0.324231	0.203809
Cl70	Cl	1.010100	-0.023869	0.184650
H71	H	0.680549	-0.031306	0.000094
Cl72	Cl	1.010105	-0.023865	0.379990
Cl73	Cl	1.010126	-0.023845	0.620220
H74	H	0.987545	0.014029	0.796403
