data_functionalizedCrystal
_audit_creation_method	'MofGen! by Chris Wilmer'
_symmetry_space_group_name_H-M	'P1'
_symmetry_Int_Tables_number	1
_symmetry_cell_setting	triclinic
loop_
_symmetry_equiv_pos_as_xyz
  x,y,z
_cell_length_a	12.996460
_cell_length_b	11.792241
_cell_length_c	11.792241
_cell_angle_alpha	95.806584
_cell_angle_beta	90.006284
_cell_angle_gamma	89.998631
loop_
_atom_site_label
_atom_site_type_symbol
_atom_site_fract_x
_atom_site_fract_y
_atom_site_fract_z
O1	O	0.085467	-1.506910	0.155570
O2	O	0.335467	-1.256910	0.405570
O3	O	0.585467	-1.006910	0.655570
O4	O	0.835467	-0.756910	0.905570
O5	O	0.085491	-1.176569	0.171603
O6	O	0.335491	-0.926569	0.421603
O7	O	0.585491	-0.676569	0.671603
O8	O	0.835491	-0.426569	0.921603
O9	O	0.085472	-1.349756	-0.001584
O10	O	0.335472	-1.099756	0.248416
O11	O	0.585472	-0.849756	0.498416
O12	O	0.835472	-0.599756	0.748416
O13	O	0.085487	-1.333723	0.328757
O14	O	0.335487	-1.083723	0.578757
O15	O	0.585487	-0.833723	0.828757
O16	O	0.835487	-0.583723	1.078757
O17	O	-0.085662	-1.349738	-0.001594
O18	O	0.164338	-1.099738	0.248406
O19	O	0.414338	-0.849738	0.498406
O20	O	0.664338	-0.599738	0.748406
O21	O	-0.085642	-1.176551	0.171593
O22	O	0.164358	-0.926551	0.421593
O23	O	0.414358	-0.676551	0.671593
O24	O	0.664358	-0.426551	0.921593
O25	O	-0.085666	-1.506892	0.155560
O26	O	0.164334	-1.256892	0.405560
O27	O	0.414334	-1.006892	0.655560
O28	O	0.664334	-0.756892	0.905560
Cu29	Cu	-0.101280	-1.341720	0.163576
Cu30	Cu	0.148720	-1.091720	0.413576
Cu31	Cu	0.398720	-0.841720	0.663576
Cu32	Cu	0.648720	-0.591720	0.913576
Cu33	Cu	0.101105	-1.341741	0.163587
Cu34	Cu	0.351105	-1.091741	0.413587
Cu35	Cu	0.601105	-0.841741	0.663587
Cu36	Cu	0.851105	-0.591741	0.913587
O37	O	-0.085647	-1.333705	0.328747
O38	O	0.164353	-1.083705	0.578747
O39	O	0.414353	-0.833705	0.828747
O40	O	0.664353	-0.583705	1.078747
C41	C	-0.000073	-1.134269	0.170591
C42	C	0.249927	-0.884269	0.420591
C43	C	0.499927	-0.634269	0.670591
C44	C	0.749927	-0.384269	0.920591
C45	C	-0.000064	-1.008255	0.167576
C46	C	0.249936	-0.758255	0.417576
C47	C	0.499936	-0.508255	0.667576
C48	C	0.749936	-0.258255	0.917576
C49	C	-0.000095	-1.348740	-0.043880
C50	C	0.249905	-1.098740	0.206120
C51	C	0.499905	-0.848740	0.456120
C52	C	0.749905	-0.598740	0.706120
C53	C	-0.000094	-1.345726	-0.169894
C54	C	0.249906	-1.095726	0.080106
C55	C	0.499906	-0.845726	0.330106
C56	C	0.749906	-0.595726	0.580106
N57	N	-0.243627	-1.341713	0.163567
N58	N	0.006373	-1.091713	0.413567
N59	N	0.256373	-0.841713	0.663567
N60	N	0.506373	-0.591713	0.913567
C61	C	-0.663442	-1.341740	0.163588
C62	C	-0.413442	-1.091740	0.413588
C63	C	-0.163442	-0.841740	0.663588
C64	C	0.086558	-0.591740	0.913588
C65	C	-0.546637	-1.341729	0.163586
C66	C	-0.296637	-1.091729	0.413586
C67	C	-0.046637	-0.841729	0.663586
C68	C	0.203363	-0.591729	0.913586
C69	C	-0.453538	-1.341727	0.163579
C70	C	-0.203538	-1.091727	0.413579
C71	C	0.046462	-0.841727	0.663579
C72	C	0.296462	-0.591727	0.913579
C73	C	-0.336726	-1.341715	0.163575
C74	C	-0.086726	-1.091715	0.413575
C75	C	0.163274	-0.841715	0.663575
C76	C	0.413274	-0.591715	0.913575
N77	N	0.243452	-1.341757	0.163587
N78	N	0.493452	-1.091757	0.413587
N79	N	0.743452	-0.841757	0.663587
N80	N	0.993452	-0.591757	0.913587
C81	C	-0.000100	-1.549192	0.156572
C82	C	0.249900	-1.299192	0.406572
C83	C	0.499900	-1.049192	0.656572
C84	C	0.749900	-0.799192	0.906572
C85	C	-0.000103	-1.675206	0.159587
C86	C	0.249897	-1.425206	0.409587
C87	C	0.499897	-1.175206	0.659587
C88	C	0.749897	-0.925206	0.909587
C89	C	-0.000093	-0.777543	0.162034
C90	C	0.249907	-0.527543	0.412034
C91	C	0.499907	-0.277543	0.662034
C92	C	0.749907	-0.027543	0.912034
C93	C	-0.000077	-0.905928	0.165113
C94	C	0.249923	-0.655928	0.415113
C95	C	0.499923	-0.405928	0.665113
C96	C	0.749923	-0.155928	0.915113
C97	C	-0.000076	-1.340183	-0.400606
C98	C	0.249924	-1.090183	-0.150606
C99	C	0.499924	-0.840183	0.099394
C100	C	0.749924	-0.590183	0.349394
C101	C	-0.000086	-1.343262	-0.272221
C102	C	0.249914	-1.093262	-0.022221
C103	C	0.499914	-0.843262	0.227779
C104	C	0.749914	-0.593262	0.477779
C105	C	-0.000078	-1.334721	0.371043
C106	C	0.249922	-1.084721	0.621043
C107	C	0.499922	-0.834721	0.871043
C108	C	0.749922	-0.584721	1.121043
C109	C	-0.000072	-1.337736	0.497057
C110	C	0.249928	-1.087736	0.747057
C111	C	0.499928	-0.837736	0.997057
C112	C	0.749928	-0.587736	1.247057
