data_functionalizedCrystal
_audit_creation_method	'MofGen! by Chris Wilmer'
_symmetry_space_group_name_H-M	'P1'
_symmetry_Int_Tables_number	1
_symmetry_cell_setting	triclinic
loop_
_symmetry_equiv_pos_as_xyz
  x,y,z
_cell_length_a	11.169417
_cell_length_b	19.076808
_cell_length_c	19.076919
_cell_angle_alpha	89.878360
_cell_angle_beta	92.284570
_cell_angle_gamma	92.324818
loop_
_atom_site_label
_atom_site_type_symbol
_atom_site_fract_x
_atom_site_fract_y
_atom_site_fract_z
Zn1	Zn	1.788060	-0.295717	-0.385990
Zn2	Zn	2.288060	0.204283	0.114010
Zn3	Zn	1.788566	-0.408512	-0.263760
Zn4	Zn	2.288566	0.091488	0.236240
Zn5	Zn	1.595739	-0.291019	-0.268505
Zn6	Zn	2.095739	0.208981	0.231495
Zn7	Zn	1.579579	-0.413197	-0.381234
Zn8	Zn	2.079579	0.086803	0.118766
O9	O	1.687986	-0.352111	-0.324872
O10	O	2.187986	0.147889	0.175128
O11	O	1.956076	-0.310685	-0.369780
O12	O	2.456076	0.189315	0.130220
O13	O	1.769961	-0.388999	-0.166058
O14	O	2.269961	0.111001	0.333942
O15	O	1.627802	-0.193305	-0.288066
O16	O	2.127802	0.306695	0.211934
O17	O	1.956448	-0.393555	-0.279978
O18	O	2.456448	0.106445	0.220022
O19	O	1.769100	-0.196757	-0.374382
O20	O	2.269100	0.303243	0.125618
O21	O	1.628292	-0.302678	-0.169544
O22	O	2.128292	0.197322	0.330456
O23	O	1.425646	-0.307221	-0.283455
O24	O	1.925646	0.192779	0.216545
O25	O	1.600260	-0.401539	-0.480196
O26	O	2.100260	0.098461	0.019804
O27	O	1.413773	-0.396984	-0.366276
O28	O	1.913773	0.103016	0.133724
O29	O	1.753430	-0.315228	-0.483691
O30	O	2.253430	0.184772	0.016309
O31	O	1.754292	-0.507470	-0.275366
O32	O	2.254292	-0.007470	0.224634
O33	O	1.600750	-0.510912	-0.361674
O34	O	2.100750	-0.010912	0.138326
C35	C	1.376162	-0.352101	-0.324865
C36	C	1.876162	0.147899	0.175135
C37	C	1.242761	-0.352115	-0.324877
C38	C	1.742761	0.147885	0.175123
C39	C	1.675854	-0.534689	-0.317505
C40	C	2.175854	-0.034689	0.182495
C41	C	1.670771	-0.612798	-0.314376
C42	C	2.170771	-0.112798	0.185624
C43	C	1.741890	-0.651231	-0.357883
C44	C	2.241890	-0.151231	0.142117
C45	C	1.737110	-0.724623	-0.354945
C46	C	2.237110	-0.224623	0.145055
C47	C	1.661217	-0.759579	-0.308496
C48	C	2.161217	-0.259579	0.191504
C49	C	1.590090	-0.721140	-0.264987
C50	C	2.090090	-0.221140	0.235013
C51	C	1.594865	-0.647750	-0.267930
C52	C	2.094865	-0.147750	0.232070
C53	C	1.639049	-0.978885	-0.294876
C54	C	2.139049	-0.478885	0.205124
C55	C	1.634282	-1.052280	-0.291936
C56	C	2.134282	-0.552280	0.208064
C57	C	1.781301	-1.055757	-0.381894
C58	C	2.281301	-0.555757	0.118106
C59	C	1.786074	-0.982366	-0.384830
C60	C	2.286074	-0.482366	0.115170
C61	C	1.714943	-0.943933	-0.341324
C62	C	2.214943	-0.443933	0.158676
N63	N	1.656331	-0.834597	-0.305490
N64	N	2.156331	-0.334597	0.194510
N65	N	1.719823	-0.868917	-0.344334
N66	N	2.219823	-0.368917	0.155666
C67	C	2.001027	-0.352121	-0.324880
C68	C	2.501027	0.147879	0.175120
C69	C	2.134426	-0.352126	-0.324884
C70	C	2.634426	0.147874	0.175116
C71	C	1.674986	-0.359430	-0.508153
C72	C	2.174986	0.140570	-0.008153
C73	C	1.669446	-0.362549	-0.586256
C74	C	2.169446	0.137451	-0.086256
C75	C	1.700197	-0.168821	-0.332284
C76	C	2.200197	0.331179	0.167716
C77	C	1.705401	-0.090713	-0.335442
C78	C	2.205401	0.409287	0.164558
C79	C	1.746587	-0.319079	-0.624769
C80	C	2.246587	0.180921	-0.124769
C81	C	1.741367	-0.322007	-0.698155
C82	C	2.241367	0.177993	-0.198155
C83	C	1.659012	-0.368409	-0.733027
C84	C	2.159012	0.131591	-0.233027
C85	C	1.581862	-0.411881	-0.694508
C86	C	2.081862	0.088119	-0.194508
C87	C	1.587077	-0.408949	-0.621124
C88	C	2.087077	0.091051	-0.121124
C89	C	1.634859	-0.381993	-0.952309
C90	C	2.134859	0.118007	-0.452309
C91	C	1.629652	-0.384923	-1.025699
C92	C	2.129652	0.115077	-0.525699
C93	C	1.789156	-0.295047	-1.029341
C94	C	2.289156	0.204953	-0.529341
C95	C	1.794368	-0.292122	-0.955954
C96	C	2.294368	0.207878	-0.455954
C97	C	1.717215	-0.335592	-0.917442
C98	C	2.217215	0.164408	-0.417442
N99	N	1.653677	-0.371405	-0.808039
N100	N	2.153677	0.128595	-0.308039
N101	N	1.722545	-0.332593	-0.842431
N102	N	2.222545	0.167407	-0.342431
C103	C	1.701008	-0.344770	-0.142307
C104	C	2.201008	0.155230	0.357693
C105	C	1.706793	-0.341453	-0.064212
C106	C	2.206793	0.158547	0.435788
H107	H	1.803696	-0.622775	-0.395703
H108	H	2.303696	-0.122775	0.104297
O109	O	1.562340	-0.937434	-0.247953
O110	O	2.062340	-0.437434	0.252047
H111	H	1.620819	-0.902551	-0.213577
H112	H	2.120819	-0.402551	0.286423
O113	O	1.824574	-0.275121	-0.739694
O114	O	2.324574	0.224879	-0.239694
H115	H	1.881152	-0.307913	-0.771865
H116	H	2.381152	0.192087	-0.271865
H117	H	1.847872	-0.953906	-0.422652
H118	H	2.347872	-0.453906	0.077348
O119	O	1.540810	-0.434965	-1.063316
O120	O	2.040810	0.065035	-0.563316
H121	H	1.558695	-0.489559	-1.047002
H122	H	2.058695	0.010441	-0.547002
O123	O	1.883192	-0.242071	-0.918344
O124	O	2.383192	0.257929	-0.418344
H125	H	1.944535	-0.272195	-0.883648
H126	H	2.444535	0.227805	-0.383648
O127	O	1.872336	-0.248143	-1.070877
O128	O	2.372336	0.251857	-0.570877
H129	H	1.854862	-0.257965	-1.127766
H130	H	2.354862	0.242035	-0.627766
H131	H	1.813654	-0.281295	-0.596382
H132	H	2.313654	0.218705	-0.096382
O133	O	1.858000	-1.097207	-0.428828
O134	O	2.358000	-0.597207	0.071172
H135	H	1.841922	-1.154113	-0.418987
H136	H	2.341922	-0.654113	0.081013
H137	H	1.572052	-0.417400	-0.920961
H138	H	2.072052	0.082600	-0.420961
H139	H	1.528291	-0.749607	-0.227171
H140	H	2.028291	-0.249607	0.272829
O141	O	1.518170	-0.606291	-0.221000
O142	O	2.018170	-0.106291	0.279000
H143	H	1.464605	-0.642926	-0.188200
H144	H	1.964605	-0.142926	0.311800
O145	O	1.493033	-0.461929	-0.732118
O146	O	1.993033	0.038071	-0.232118
H147	H	1.400644	-0.449303	-0.718518
H148	H	1.900644	0.050697	-0.218518
H149	H	1.524249	-0.444341	-0.589767
H150	H	2.024249	0.055659	-0.089767
O151	O	1.813816	-0.766074	-0.401872
O152	O	2.313816	-0.266074	0.098128
H153	H	1.874967	-0.798243	-0.369114
H154	H	2.374967	-0.298243	0.130886
H155	H	1.572475	-1.080739	-0.254111
H156	H	2.072475	-0.580739	0.245889
