data_functionalizedCrystal
_audit_creation_method	'MofGen! by Chris Wilmer'
_symmetry_space_group_name_H-M	'P1'
_symmetry_Int_Tables_number	1
_symmetry_cell_setting	triclinic
loop_
_symmetry_equiv_pos_as_xyz
  x,y,z
_cell_length_a	11.026607
_cell_length_b	19.288840
_cell_length_c	17.766277
_cell_angle_alpha	89.983415
_cell_angle_beta	89.996915
_cell_angle_gamma	95.856016
loop_
_atom_site_label
_atom_site_type_symbol
_atom_site_fract_x
_atom_site_fract_y
_atom_site_fract_z
O1	O	0.151132	0.940532	-0.062721
O2	O	0.171570	0.740861	-0.062695
O3	O	-0.015209	0.824148	-0.062703
O4	O	0.337911	0.857245	-0.062712
O5	O	-0.015218	0.824128	0.062486
O6	O	0.171561	0.740841	0.062494
O7	O	0.151122	0.940512	0.062468
Cu8	Cu	0.161341	0.840675	0.073912
Cu9	Cu	0.161352	0.840698	-0.074138
O10	O	0.337902	0.857225	0.062476
C11	C	0.170913	0.714892	-0.000097
C12	C	0.168954	0.637539	-0.000087
C13	C	0.168018	0.601227	-0.068329
C14	C	0.166164	0.528545	-0.068338
C15	C	0.165221	0.492176	-0.000101
C16	C	0.166164	0.528497	0.068150
C17	C	0.168031	0.601179	0.068157
C18	C	0.091232	0.373457	0.052169
C19	C	0.089358	0.300776	0.052159
C20	C	0.159470	0.268003	-0.000121
C21	C	0.231441	0.307918	-0.052403
C22	C	0.233307	0.380600	-0.052396
C23	C	0.163198	0.413366	-0.000102
C24	C	0.156526	0.152881	-0.068378
C25	C	0.154679	0.080198	-0.068384
C26	C	0.154667	0.080151	0.068106
C27	C	0.156526	0.152834	0.068110
C28	C	0.157449	0.189194	-0.000133
C29	C	-0.060390	0.818032	-0.000108
C30	C	-0.195002	0.799831	-0.000109
C31	C	-0.269090	0.850089	-0.000116
C32	C	-0.408219	0.831277	-0.000117
C33	C	0.383083	0.863341	-0.000120
C34	C	0.517694	0.881543	-0.000124
C35	C	0.151780	0.966482	-0.000131
C36	C	0.153738	1.043835	-0.000146
N37	N	0.161332	0.840663	0.178042
N38	N	0.161351	0.840714	-0.178269
C39	C	0.078667	0.877563	0.217425
C40	C	0.078661	0.877566	0.296227
C41	C	0.161342	0.840679	0.335643
C42	C	0.244013	0.803771	0.296250
C43	C	0.244009	0.803763	0.217449
C44	C	0.271834	0.845394	0.460478
C45	C	0.271841	0.845407	0.539277
C46	C	0.161356	0.840700	0.578689
C47	C	0.050861	0.835993	0.539292
C48	C	0.050856	0.835985	0.460492
C49	C	0.161356	0.840683	0.421088
C50	C	0.078678	0.877605	0.703518
C51	C	0.078671	0.877603	0.782321
C52	C	0.244034	0.803812	0.782343
C53	C	0.244030	0.803810	0.703541
C54	C	0.161354	0.840709	0.664133
H55	H	0.168770	0.630827	-0.123899
H56	H	0.165404	0.498974	-0.123911
H57	H	0.011348	0.907648	0.814388
C58	C	0.169041	0.641122	0.143227
H59	H	0.168205	0.609055	0.183867
H60	H	0.240462	0.673015	0.146068
H61	H	0.099051	0.665932	0.146062
C62	C	0.334963	0.763199	0.339603
H63	H	0.323136	0.768494	0.392175
H64	H	0.322007	0.715223	0.326713
H65	H	0.415865	0.780858	0.326675
C66	C	0.334953	0.763178	0.174126
H67	H	0.384200	0.741211	0.208883
H68	H	0.291465	0.728828	0.143398
H69	H	0.385322	0.794464	0.143375
H70	H	-0.442742	0.938501	-0.000188
C71	C	0.393375	0.850584	0.582610
H72	H	0.377557	0.849923	0.635184
H73	H	0.436813	0.812205	0.569711
H74	H	0.440730	0.892828	0.569673
C75	C	0.165219	0.488500	0.143208
H76	H	0.163990	0.440013	0.133431
H77	H	0.236253	0.503956	0.171210
H78	H	0.094842	0.496848	0.171287
H79	H	-0.229519	0.907042	-0.000119
C80	C	-0.248447	0.722890	-0.000100
H81	H	-0.334946	0.720340	-0.000096
H82	H	-0.221680	0.700437	-0.043751
H83	H	-0.221697	0.700426	0.043567
C84	C	0.153636	0.040158	0.143168
H85	H	0.154465	0.072198	0.183813
H86	H	0.082211	0.008266	0.146006
H87	H	0.223621	0.015344	0.145998
H88	H	0.311349	0.773775	0.814434
H89	H	0.311349	0.773766	0.671473
H90	H	0.361810	0.849216	0.428396
H91	H	-0.039107	0.832160	0.571380
C92	C	0.312481	0.424505	-0.109894
H93	H	0.353981	0.394582	-0.141030
H94	H	0.262009	0.450311	-0.140124
H95	H	0.370324	0.455701	-0.083994
C96	C	0.308573	0.271879	-0.109912
H97	H	0.297169	0.222877	-0.102425
H98	H	0.283912	0.282556	-0.159452
H99	H	0.392232	0.287960	-0.103326
C100	C	0.153655	0.040251	-0.143452
H101	H	0.152427	-0.008242	-0.133684
H102	H	0.083258	0.048634	-0.171487
H103	H	0.224669	0.055712	-0.171493
H104	H	0.157290	0.182488	-0.123946
H105	H	0.011344	0.907607	0.185342
H106	H	0.030749	0.268282	0.094727
C107	C	0.157540	0.192781	0.143176
H108	H	0.158795	0.241276	0.133407
H109	H	0.086532	0.177324	0.171217
H110	H	0.227943	0.184397	0.171211
C111	C	0.014082	0.409499	0.109670
H112	H	-0.029066	0.375318	0.140794
H113	H	0.065995	0.440408	0.139912
H114	H	-0.042303	0.434998	0.083769
C115	C	-0.461658	0.754333	-0.000108
H116	H	-0.548157	0.751783	-0.000104
H117	H	-0.434891	0.731880	-0.043759
H118	H	-0.434908	0.731869	0.043559
H119	H	0.011342	0.907616	0.328299
H120	H	-0.039113	0.832152	0.428418
H121	H	0.011354	0.907648	0.671431
