data_functionalizedCrystal
_audit_creation_method	'MofGen! by Chris Wilmer'
_symmetry_space_group_name_H-M	'P1'
_symmetry_Int_Tables_number	1
_symmetry_cell_setting	triclinic
loop_
_symmetry_equiv_pos_as_xyz
  x,y,z
_cell_length_a	18.101395
_cell_length_b	14.908941
_cell_length_c	14.908694
_cell_angle_alpha	90.213236
_cell_angle_beta	93.269480
_cell_angle_gamma	86.669348
loop_
_atom_site_label
_atom_site_type_symbol
_atom_site_fract_x
_atom_site_fract_y
_atom_site_fract_z
Zn1	Zn	-0.248629	-1.403885	-0.429229
Zn2	Zn	0.251371	-0.903885	0.070771
Zn3	Zn	-0.365777	-1.395085	-0.278879
Zn4	Zn	0.134223	-0.895085	0.221121
Zn5	Zn	-0.249483	-1.244851	-0.287547
Zn6	Zn	0.250517	-0.744851	0.212453
Zn7	Zn	-0.379969	-1.253462	-0.437848
Zn8	Zn	0.120031	-0.753462	0.062152
O9	O	-0.310964	-1.324321	-0.358376
O10	O	0.189036	-0.824321	0.141624
O11	O	-0.257872	-1.528543	-0.402050
O12	O	0.242128	-1.028543	0.097950
O13	O	-0.344768	-1.367870	-0.154206
O14	O	0.155232	-0.867870	0.345794
O15	O	-0.145734	-1.266027	-0.306361
O16	O	0.354266	-0.766027	0.193639
O17	O	-0.343940	-1.522078	-0.291589
O18	O	0.156060	-1.022078	0.208411
O19	O	-0.145106	-1.382868	-0.410455
O20	O	0.354894	-0.882868	0.089545
O21	O	-0.259327	-1.257494	-0.160574
O22	O	0.240673	-0.757494	0.339426
O23	O	-0.273088	-1.120168	-0.314719
O24	O	0.226912	-0.620168	0.185281
O25	O	-0.368128	-1.280702	-0.562528
O26	O	0.131872	-0.780702	-0.062528
O27	O	-0.368956	-1.126494	-0.425144
O28	O	0.131044	-0.626494	0.074856
O29	O	-0.271633	-1.391217	-0.556195
O30	O	0.228367	-0.891217	-0.056195
O31	O	-0.471295	-1.376219	-0.299946
O32	O	0.028705	-0.876219	0.200054
O33	O	-0.481722	-1.272169	-0.416740
O34	O	0.018278	-0.772169	0.083260
C35	C	-0.322655	-1.090705	-0.371808
C36	C	0.177345	-0.590705	0.128192
C37	C	-0.327676	-0.990765	-0.377576
C38	C	0.172324	-0.490765	0.122424
C39	C	-0.237147	-0.796336	-0.273588
C40	C	0.262853	-0.296336	0.226412
C41	C	-0.241862	-0.702433	-0.279005
C42	C	0.258138	-0.202433	0.220995
C43	C	-0.341822	-0.709053	-0.393819
C44	C	0.158178	-0.209053	0.106181
C45	C	-0.337108	-0.802957	-0.388403
C46	C	0.162892	-0.302957	0.111597
C47	C	-0.284768	-0.846595	-0.328286
C48	C	0.215232	-0.346595	0.171714
C49	C	-0.280050	-0.940500	-0.322875
C50	C	0.219950	-0.440500	0.177125
C51	C	-0.380014	-0.947118	-0.437685
C52	C	0.119986	-0.447118	0.062315
C53	C	-0.384728	-0.853215	-0.443101
C54	C	0.115272	-0.353215	0.056899
C55	C	-0.503380	-1.324199	-0.358356
C56	C	-0.003380	-0.824199	0.141644
C57	C	-0.585693	-1.324231	-0.358373
C58	C	-0.085693	-0.824231	0.141627
C59	C	-0.884776	-1.324431	-0.358410
C60	C	-0.384776	-0.824431	0.141590
C61	C	-0.860042	-1.259136	-0.432057
C62	C	-0.360042	-0.759136	0.067943
C63	C	-0.774431	-1.258794	-0.431858
C64	C	-0.274431	-0.758794	0.068142
C65	C	-0.736398	-1.324332	-0.358393
C66	C	-0.236398	-0.824332	0.141607
C67	C	-0.764608	-1.293211	-0.265107
C68	C	-0.264608	-0.793211	0.234893
C69	C	-0.850294	-1.292788	-0.265550
C70	C	-0.350294	-0.792788	0.234450
C71	C	-0.849436	-1.420949	-0.377206
C72	C	-0.349436	-0.920949	0.122794
C73	C	-0.763906	-1.420510	-0.379316
C74	C	-0.263906	-0.920510	0.120684
C75	C	-0.652540	-1.324277	-0.358377
C76	C	-0.152540	-0.824277	0.141623
C77	C	-0.968634	-1.324483	-0.358420
C78	C	-0.468634	-0.824483	0.141580
C79	C	-0.117797	-1.324469	-0.358413
C80	C	0.382203	-0.824469	0.141587
C81	C	-0.035481	-1.324532	-0.358430
C82	C	0.464519	-0.824532	0.141570
C83	C	-0.321369	-1.337901	-0.592898
C84	C	0.178631	-0.837901	-0.092898
C85	C	-0.325802	-1.343689	-0.692838
C86	C	0.174198	-0.843689	-0.192838
C87	C	-0.299220	-0.558848	-0.344885
C88	C	0.200780	-0.058848	0.155115
C89	C	-0.294197	-0.658788	-0.339119
C90	C	0.205803	-0.158788	0.160881
C91	C	-0.245167	-1.239608	-0.887269
C92	C	0.254833	-0.739608	-0.387269
C93	C	-0.249331	-1.245043	-0.981171
C94	C	0.250669	-0.745043	-0.481171
C95	C	-0.338297	-1.359987	-0.974547
C96	C	0.161703	-0.859987	-0.474547
C97	C	-0.334133	-1.354553	-0.880644
C98	C	0.165867	-0.854553	-0.380644
C99	C	-0.287566	-1.294362	-0.837009
C100	C	0.212434	-0.794362	-0.337009
C101	C	-0.283399	-1.288933	-0.743104
C102	C	0.216601	-0.788933	-0.243104
C103	C	-0.372368	-1.403872	-0.736482
C104	C	0.127632	-0.903872	-0.236482
C105	C	-0.376532	-1.409307	-0.830385
C106	C	0.123468	-0.909307	-0.330385
C107	C	-0.300544	-1.310844	-0.124762
C108	C	0.199456	-0.810844	0.375238
C109	C	-0.295893	-1.305231	-0.024813
C110	C	0.204107	-0.805231	0.475187
H111	H	-0.427344	-0.817672	-0.492044
H112	H	0.072656	-0.317672	0.007956
Cl113	Cl	-0.874852	-1.362559	-0.178391
Cl114	Cl	-0.374852	-0.862559	0.321609
H115	H	-0.418786	-0.988049	-0.482229
H116	H	0.081214	-0.488049	0.017771
H117	H	-0.745684	-1.443878	-0.447942
H118	H	-0.245684	-0.943878	0.052058
Cl119	Cl	-0.396844	-1.435636	-1.029420
Cl120	Cl	0.103156	-0.935636	-0.529420
H121	H	-0.414448	-1.458309	-0.865926
H122	H	0.085552	-0.958309	-0.365926
H123	H	-0.756823	-1.187363	-0.419839
H124	H	-0.256823	-0.687363	0.080161
Cl125	Cl	-0.171345	-0.851200	-0.198023
Cl126	Cl	0.328655	-0.351200	0.301977
Cl127	Cl	-0.735479	-1.185131	-0.238907
Cl128	Cl	-0.235479	-0.685131	0.261093
Cl129	Cl	-0.181995	-0.639254	-0.210236
Cl130	Cl	0.318005	-0.139254	0.289764
Cl131	Cl	-0.873227	-1.496165	-0.294303
Cl132	Cl	-0.373227	-0.996165	0.205697
Cl133	Cl	-0.214251	-0.995358	-0.247303
Cl134	Cl	0.285749	-0.495358	0.252697
Cl135	Cl	-0.407641	-0.654177	-0.469355
Cl136	Cl	0.092359	-0.154177	0.030645
Cl137	Cl	-0.745503	-1.289828	-0.538917
Cl138	Cl	-0.245503	-0.789828	-0.038917
Cl139	Cl	-0.895394	-1.289942	-0.539484
Cl140	Cl	-0.395394	-0.789942	-0.039484
Cl141	Cl	-0.897714	-1.149535	-0.413795
Cl142	Cl	-0.397714	-0.649535	0.086205
Cl143	Cl	-0.885205	-1.183607	-0.239987
Cl144	Cl	-0.385205	-0.683607	0.260013
H145	H	-0.245478	-1.239926	-0.707577
H146	H	0.254522	-0.739926	-0.207577
Cl147	Cl	-0.725705	-1.363951	-0.178444
Cl148	Cl	-0.225705	-0.863951	0.321556
H149	H	-0.872842	-1.448256	-0.443782
H150	H	-0.372842	-0.948256	0.056218
H151	H	-0.737671	-1.472170	-0.329150
H152	H	-0.237671	-0.972170	0.170850
Cl153	Cl	-0.186619	-1.163952	-0.832408
Cl154	Cl	0.313381	-0.663952	-0.332408
Cl155	Cl	-0.196030	-1.176203	-1.044352
Cl156	Cl	0.303970	-0.676203	-0.544352
H157	H	-0.406890	-1.448460	-0.695550
H158	H	0.093110	-0.948460	-0.195550
