data_functionalizedCrystal
_audit_creation_method	'MofGen! by Chris Wilmer'
_symmetry_space_group_name_H-M	'P1'
_symmetry_Int_Tables_number	1
_symmetry_cell_setting	triclinic
loop_
_symmetry_equiv_pos_as_xyz
  x,y,z
_cell_length_a	21.295411
_cell_length_b	17.077404
_cell_length_c	17.077402
_cell_angle_alpha	90.023108
_cell_angle_beta	90.018237
_cell_angle_gamma	90.024445
loop_
_atom_site_label
_atom_site_type_symbol
_atom_site_fract_x
_atom_site_fract_y
_atom_site_fract_z
Zn1	Zn	-0.355924	-1.200093	0.312593
Zn2	Zn	-0.022591	-0.866760	0.645926
Zn3	Zn	0.310742	-0.533426	0.979260
Zn4	Zn	-0.250656	-1.199989	0.443841
Zn5	Zn	0.082677	-0.866655	0.777175
Zn6	Zn	0.416011	-0.533322	1.110508
Zn7	Zn	-0.250670	-1.068813	0.312594
Zn8	Zn	0.082664	-0.735480	0.645927
Zn9	Zn	0.415997	-0.402147	0.979261
Zn10	Zn	-0.355888	-1.068793	0.443821
Zn11	Zn	-0.022555	-0.735459	0.777154
Zn12	Zn	0.310779	-0.402126	1.110488
O13	O	-0.303285	-1.134422	0.378212
O14	O	0.030049	-0.801089	0.711546
O15	O	0.363382	-0.467755	1.044879
O16	O	-0.341970	-1.309926	0.330011
O17	O	-0.008637	-0.976593	0.663345
O18	O	0.324697	-0.643259	0.996678
O19	O	-0.162568	-1.182553	0.426440
O20	O	0.170765	-0.849220	0.759773
O21	O	0.504098	-0.515886	1.093107
O22	O	-0.264653	-1.086280	0.202747
O23	O	0.068681	-0.752947	0.536080
O24	O	0.402014	-0.419614	0.869414
O25	O	-0.264630	-1.309849	0.426439
O26	O	0.068704	-0.976516	0.759772
O27	O	0.402037	-0.643183	1.093106
O28	O	-0.341983	-1.182731	0.202746
O29	O	-0.008650	-0.849397	0.536079
O30	O	0.324684	-0.516064	0.869413
O31	O	-0.162578	-1.086179	0.330013
O32	O	0.170755	-0.752846	0.663346
O33	O	0.504088	-0.419512	0.996680
O34	O	-0.264618	-0.958964	0.329994
O35	O	0.068716	-0.625630	0.663327
O36	O	0.402049	-0.292297	0.996660
O37	O	-0.443982	-1.086245	0.426405
O38	O	-0.110649	-0.752912	0.759738
O39	O	0.222684	-0.419578	1.093071
O40	O	-0.341921	-0.958949	0.426406
O41	O	-0.008588	-0.625615	0.759739
O42	O	0.324746	-0.292282	1.093072
O43	O	-0.444009	-1.182711	0.329992
O44	O	-0.110676	-0.849377	0.663325
O45	O	0.222658	-0.516044	0.996658
O46	O	-0.264594	-1.182533	0.553686
O47	O	0.068739	-0.849200	0.887019
O48	O	0.402072	-0.515866	1.220352
O49	O	-0.341908	-1.086144	0.553671
O50	O	-0.008574	-0.752811	0.887004
O51	O	0.324759	-0.419477	1.220337
C52	C	-0.303267	-0.930474	0.378198
C53	C	0.030066	-0.597141	0.711531
C54	C	0.363400	-0.263807	1.044865
C55	C	-0.303275	-0.843224	0.378211
C56	C	0.030059	-0.509891	0.711544
C57	C	0.363392	-0.176558	1.044878
C58	C	-0.303259	-1.134346	0.582160
C59	C	0.030074	-0.801013	0.915494
C60	C	0.363407	-0.467679	1.248827
C61	C	-0.303270	-1.134386	0.669410
C62	C	0.030064	-0.801052	1.002743
C63	C	0.363397	-0.467719	1.336077
C64	C	-0.467475	-1.134487	0.378196
C65	C	-0.134141	-0.801154	0.711529
C66	C	0.199192	-0.467820	1.044862
C67	C	-0.537443	-1.134515	0.378189
C68	C	-0.204110	-0.801181	0.711522
C69	C	0.129224	-0.467848	1.044855
C70	C	-0.570325	-1.184742	0.327984
C71	C	-0.236991	-0.851409	0.661318
C72	C	0.096342	-0.518076	0.994651
C73	C	-0.636067	-1.184741	0.327950
C74	C	-0.302734	-0.851408	0.661284
C75	C	0.030600	-0.518075	0.994617
C76	C	-0.668926	-1.134521	0.378135
C77	C	-0.335592	-0.801188	0.711468
C78	C	-0.002259	-0.467854	1.044801
C79	C	-0.636036	-1.084284	0.428343
C80	C	-0.302703	-0.750950	0.761676
C81	C	0.030631	-0.417617	1.095009
C82	C	-0.570295	-1.084281	0.428370
C83	C	-0.236961	-0.750947	0.761703
C84	C	0.096372	-0.417614	1.095036
N85	N	-0.772144	-1.128474	0.446804
N86	N	-0.438811	-0.795140	0.780137
N87	N	-0.105478	-0.461807	1.113470
N88	N	-0.834596	-1.128481	0.446776
N89	N	-0.501262	-0.795148	0.780109
N90	N	-0.167929	-0.461815	1.113443
C91	C	-0.867000	-1.134526	0.378055
C92	C	-0.533667	-0.801193	0.711388
C93	C	-0.200334	-0.467859	1.044722
N94	N	-0.834594	-1.140578	0.309362
N95	N	-0.501261	-0.807245	0.642695
N96	N	-0.167928	-0.473911	0.976028
N97	N	-0.772137	-1.140575	0.309390
N98	N	-0.438804	-0.807241	0.642724
N99	N	-0.105470	-0.473908	0.976057
C100	C	-0.740211	-1.134518	0.378111
C101	C	-0.406878	-0.801185	0.711444
C102	C	-0.073544	-0.467852	1.044777
C103	C	-0.971168	-1.184755	0.327809
C104	C	-0.637834	-0.851422	0.661143
C105	C	-0.304501	-0.518088	0.994476
C106	C	-1.036911	-1.184748	0.327774
C107	C	-0.703578	-0.851415	0.661107
C108	C	-0.370245	-0.518082	0.994441
C109	C	-1.036879	-1.084295	0.428173
C110	C	-0.703546	-0.750961	0.761507
C111	C	-0.370212	-0.417628	1.094840
C112	C	-0.971136	-1.084297	0.428202
C113	C	-0.637803	-0.750964	0.761535
C114	C	-0.304470	-0.417631	1.094868
C115	C	-0.938285	-1.134532	0.378021
C116	C	-0.604951	-0.801198	0.711354
C117	C	-0.271618	-0.467865	1.044688
C118	C	-0.139733	-1.134402	0.378172
C119	C	0.193600	-0.801069	0.711506
C120	C	0.526934	-0.467736	1.044839
C121	C	-0.069765	-1.134527	0.377958
C122	C	0.263568	-0.801193	0.711291
C123	C	0.596901	-0.467860	1.044625
C124	C	-0.303302	-1.339166	0.378227
C125	C	0.030031	-1.005833	0.711560
C126	C	0.363364	-0.672499	1.044894
C127	C	-0.303310	-1.426416	0.378233
C128	C	0.030023	-1.093083	0.711567
C129	C	0.363357	-0.759749	1.044900
C130	C	-0.343462	-0.802247	0.428488
C131	C	-0.010129	-0.468913	0.761822
C132	C	0.323205	-0.135580	1.095155
C133	C	-0.343472	-0.720266	0.428490
C134	C	-0.010139	-0.386933	0.761823
C135	C	0.323195	-0.053600	1.095157
C136	C	-0.303291	-0.679265	0.378218
C137	C	0.030042	-0.345932	0.711551
C138	C	0.363376	-0.012598	1.044884
C139	C	-0.263102	-0.720248	0.327935
C140	C	0.070231	-0.386915	0.661268
C141	C	0.403565	-0.053581	0.994601
C142	C	-0.263096	-0.802227	0.327930
C143	C	0.070238	-0.468894	0.661263
C144	C	0.403571	-0.135560	0.994596
C145	C	-0.263117	-0.549378	0.327950
C146	C	0.070216	-0.216045	0.661283
C147	C	0.403550	0.117289	0.994617
C148	C	-0.263123	-0.467393	0.327956
C149	C	0.070211	-0.134060	0.661289
C150	C	0.403544	0.199273	0.994623
C151	C	-0.343494	-0.467417	0.428511
C152	C	-0.010160	-0.134084	0.761844
C153	C	0.323173	0.199249	1.095177
C154	C	-0.343487	-0.549396	0.428506
C155	C	-0.010154	-0.216063	0.761839
C156	C	0.323179	0.117270	1.095172
C157	C	-0.303297	-0.590374	0.378223
C158	C	0.030036	-0.257041	0.711557
C159	C	0.363370	0.076293	1.044890
C160	C	-0.303324	-1.134519	0.173468
C161	C	0.030010	-0.801186	0.506801
C162	C	0.363343	-0.467853	0.840135
C163	C	-0.303340	-1.134561	0.086218
C164	C	0.029993	-0.801228	0.419552
C165	C	0.363327	-0.467894	0.752885
C166	C	-0.263056	-1.184627	0.710382
C167	C	0.070278	-0.851293	1.043715
C168	C	0.403611	-0.517960	1.377048
C169	C	-0.263072	-1.184665	0.792362
C170	C	0.070261	-0.851332	1.125696
C171	C	0.403595	-0.517998	1.459029
C172	C	-0.303299	-1.134458	0.833369
C173	C	0.030034	-0.801124	1.166703
C174	C	0.363368	-0.467791	1.500036
C175	C	-0.343517	-1.084214	0.792392
C176	C	-0.010184	-0.750881	1.125725
C177	C	0.323149	-0.417548	1.459058
C178	C	-0.343504	-1.084181	0.710413
C179	C	-0.010171	-0.750847	1.043746
C180	C	0.323163	-0.417514	1.377080
C181	C	-0.343541	-1.084287	0.963262
C182	C	-0.010208	-0.750954	1.296595
C183	C	0.323125	-0.417621	1.629928
C184	C	-0.343554	-1.084320	1.045246
C185	C	-0.010221	-0.750986	1.378580
C186	C	0.323113	-0.417653	1.711913
C187	C	-0.263109	-1.184772	1.045211
C188	C	0.070224	-0.851438	1.378544
C189	C	0.403558	-0.518105	1.711878
C190	C	-0.263096	-1.184738	0.963232
C191	C	0.070238	-0.851404	1.296566
C192	C	0.403571	-0.518071	1.629899
C193	C	-0.303313	-1.134493	0.922260
C194	C	0.030020	-0.801160	1.255594
C195	C	0.363353	-0.467827	1.588927
H196	H	-0.543581	-1.225646	0.287122
H197	H	-0.210247	-0.892313	0.620455
H198	H	0.123086	-0.558979	0.953789
H199	H	-0.230389	-0.686858	0.286999
H200	H	0.102945	-0.353525	0.620332
H201	H	0.436278	-0.020192	0.953665
H202	H	-0.230396	-0.582740	0.286998
H203	H	0.102938	-0.249406	0.620331
H204	H	0.436271	0.083927	0.953665
Br205	Br	-0.680628	-1.016121	0.496445
Br206	Br	-0.347294	-0.682788	0.829779
Br207	Br	-0.013961	-0.349455	1.163112
H208	H	-0.543523	-1.043376	0.469251
H209	H	-0.210190	-0.710042	0.802584
H210	H	0.123144	-0.376709	1.135918
H211	H	-0.944418	-1.225654	0.286945
H212	H	-0.611085	-0.892321	0.620278
H213	H	-0.277752	-0.558988	0.953611
Br214	Br	-0.208557	-0.857841	0.259689
Br215	Br	0.124776	-0.524507	0.593022
Br216	Br	0.458110	-0.191174	0.926356
Br217	Br	-0.398139	-1.016169	1.100899
Br218	Br	-0.064806	-0.682836	1.434232
Br219	Br	0.268527	-0.349502	1.767566
H220	H	-0.376274	-1.043338	0.825786
H221	H	-0.042941	-0.710005	1.159120
H222	H	0.290393	-0.376672	1.492453
Br223	Br	-1.081538	-1.252932	0.259645
Br224	Br	-0.748205	-0.919599	0.592979
Br225	Br	-0.414871	-0.586266	0.926312
H226	H	-1.063632	-1.043396	0.469027
H227	H	-0.730298	-0.710063	0.802360
H228	H	-0.396965	-0.376730	1.135693
H229	H	-0.230295	-1.225508	0.676999
H230	H	0.103038	-0.892174	1.010332
H231	H	0.436371	-0.558841	1.343666
H232	H	-0.230364	-1.225685	1.078574
H233	H	0.102969	-0.892352	1.411908
H234	H	0.436302	-0.559018	1.745241
H235	H	-0.376293	-1.043375	0.929905
H236	H	-0.042960	-0.710042	1.263239
H237	H	0.290374	-0.376709	1.596572
H238	H	-0.230325	-1.225576	0.825718
H239	H	0.103008	-0.892242	1.159051
H240	H	0.436341	-0.558909	1.492384
H241	H	-0.230337	-1.225616	0.929844
H242	H	0.102997	-0.892283	1.263178
H243	H	0.436330	-0.558949	1.596511
H244	H	-0.376251	-1.043270	0.677054
H245	H	-0.042918	-0.709937	1.010388
H246	H	0.290416	-0.376604	1.343721
H247	H	-0.944364	-1.043401	0.469088
H248	H	-0.611031	-0.710068	0.802422
H249	H	-0.277697	-0.376735	1.135755
Br250	Br	-0.397992	-0.857884	0.496725
Br251	Br	-0.064658	-0.524550	0.830058
Br252	Br	0.268675	-0.191217	1.163392
H253	H	-0.662845	-1.225641	0.287063
H254	H	-0.329511	-0.892308	0.620397
H255	H	0.003822	-0.558974	0.953730
Br256	Br	-0.398013	-0.605041	0.496741
Br257	Br	-0.064679	-0.271708	0.830074
Br258	Br	0.268654	0.061626	1.163407
Br259	Br	-0.398016	-0.664657	0.496725
Br260	Br	-0.064683	-0.331323	0.830058
Br261	Br	0.268651	0.002010	1.163391
H262	H	-0.230411	-0.434012	0.287010
H263	H	0.102922	-0.100679	0.620344
H264	H	0.436255	0.232654	0.953677
Br265	Br	-0.398046	-0.411806	0.496741
Br266	Br	-0.064712	-0.078473	0.830074
Br267	Br	0.268621	0.254860	1.163407
