data_functionalizedCrystal
_audit_creation_method	'MofGen! by Chris Wilmer'
_symmetry_space_group_name_H-M	'P1'
_symmetry_Int_Tables_number	1
_symmetry_cell_setting	triclinic
loop_
_symmetry_equiv_pos_as_xyz
  x,y,z
_cell_length_a	16.992694
_cell_length_b	14.853567
_cell_length_c	16.053802
_cell_angle_alpha	92.572962
_cell_angle_beta	87.249047
_cell_angle_gamma	87.151577
loop_
_atom_site_label
_atom_site_type_symbol
_atom_site_fract_x
_atom_site_fract_y
_atom_site_fract_z
O1	O	1.043898	0.187626	-0.069313
O2	O	0.815612	0.185528	-0.069338
O3	O	0.935853	0.055778	-0.069327
O4	O	0.923657	0.317376	-0.069323
O5	O	0.929234	0.062888	0.069531
O6	O	0.808993	0.192638	0.069521
O7	O	1.037280	0.194737	0.069545
Zn8	Zn	0.922086	0.194816	0.091580
Zn9	Zn	0.930806	0.185448	-0.091372
O10	O	0.917038	0.324487	0.069535
C11	C	0.783087	0.186385	0.000088
C12	C	0.696035	0.178334	0.000078
C13	C	0.645879	0.256009	0.000080
C14	C	0.564083	0.248440	0.000092
C15	C	0.532446	0.163195	0.000095
C16	C	0.582608	0.085513	0.000096
C17	C	0.664401	0.093084	0.000091
C18	C	0.288813	0.131819	0.000117
C19	C	0.207013	0.124255	0.000120
C20	C	0.188494	0.287183	0.000117
C21	C	0.270290	0.294745	0.000107
C22	C	0.320445	0.217064	0.000112
N23	N	0.448838	0.155456	0.000104
N24	N	0.404051	0.224804	0.000109
C25	C	0.931991	0.025705	0.000099
C26	C	0.930335	-0.074496	0.000092
C27	C	0.851909	-0.492567	0.000099
C28	C	0.994758	-0.503761	0.000115
C29	C	0.996315	-0.409617	0.000110
C30	C	0.925668	-0.356944	0.000101
C31	C	0.853464	-0.398414	0.000097
C32	C	1.068518	-0.368139	0.000123
C33	C	1.070078	-0.273990	0.000119
C34	C	0.999430	-0.221316	0.000104
C35	C	0.927223	-0.262792	0.000099
C36	C	0.856576	-0.210118	0.000090
C37	C	0.784368	-0.251593	0.000079
C38	C	0.782816	-0.345740	0.000082
C39	C	1.000983	-0.127169	0.000101
C40	C	0.858131	-0.115966	0.000088
C41	C	1.069804	0.193880	0.000118
C42	C	1.156857	0.201930	0.000122
C43	C	0.920900	0.354559	0.000106
C44	C	0.922556	0.454760	0.000108
N45	N	0.916140	0.201210	0.216440
N46	N	0.936757	0.179048	-0.216232
C47	C	0.967322	0.146023	0.260138
C48	C	0.963170	0.150505	0.347544
C49	C	0.907840	0.210178	0.391251
C50	C	0.856653	0.265367	0.347546
C51	C	0.860801	0.260880	0.260141
C52	C	0.889719	0.229750	0.652659
C53	C	0.885576	0.234235	0.740070
C54	C	0.992092	0.119371	0.740062
C55	C	0.996239	0.114894	0.652655
C56	C	0.945049	0.170079	0.608958
N57	N	0.903597	0.214762	0.480594
N58	N	0.949289	0.165490	0.519617
H59	H	0.800601	-0.073086	0.000077
H60	H	1.012380	0.097435	0.224558
H61	H	0.726847	-0.208694	0.000078
O62	O	0.840075	0.283497	0.610261
C63	C	0.795530	0.435563	0.583570
C64	C	0.851808	0.374795	0.631623
H65	H	0.804984	0.509389	0.600837
H66	H	0.807987	0.422193	0.513580
H67	H	0.731906	0.420084	0.600762
H68	H	0.915451	0.390238	0.614501
H69	H	0.839282	0.388175	0.701601
H70	H	0.811598	0.313950	0.383137
O71	O	0.515476	0.323984	0.000055
C72	C	0.505737	0.486387	0.000100
C73	C	0.560875	0.400902	0.000119
H74	H	0.542419	0.548598	0.000169
H75	H	0.469753	0.484001	-0.058021
H76	H	0.464207	0.489844	0.058203
H77	H	0.602452	0.397391	-0.057945
H78	H	0.596804	0.403323	0.058278
O79	O	1.041917	0.065851	0.782469
C80	C	1.176935	0.024245	0.809154
C81	C	1.120599	0.084934	0.761093
H82	H	1.240561	0.039638	0.791876
H83	H	1.164538	0.037697	0.879143
H84	H	1.167408	-0.049586	0.791979
H85	H	1.130094	0.158785	0.778198
H86	H	1.133010	0.071404	0.691116
H87	H	0.724028	-0.379517	0.000074
H88	H	0.819123	0.305817	0.224563
H89	H	0.147649	0.350426	0.000115
H90	H	0.671631	0.325425	0.000077
H91	H	0.793119	-0.526340	0.000087
H92	H	1.052275	-0.546652	0.000129
H93	H	1.126034	-0.411032	0.000138
O94	O	0.551846	0.002718	-0.000048
C95	C	0.473629	-0.104046	-0.071958
C96	C	0.508432	-0.010265	-0.071905
H97	H	0.438507	-0.114565	-0.130040
H98	H	0.523500	-0.158305	-0.072012
H99	H	0.433067	-0.108669	-0.013818
H100	H	0.548984	-0.005554	-0.130035
H101	H	0.458522	0.043950	-0.071808
O102	O	1.140287	-0.233854	0.000087
C103	C	1.281809	-0.254898	0.000150
C104	C	1.202354	-0.300472	0.000170
H105	H	1.332011	-0.308737	0.000236
H106	H	1.288933	-0.214113	-0.057979
H107	H	1.283298	-0.208091	0.058245
H108	H	1.200810	-0.347322	-0.057885
H109	H	1.195263	-0.341200	0.058338
O110	O	0.301121	0.377502	0.000195
C111	C	0.379302	0.484311	0.072096
C112	C	0.344440	0.390564	0.072110
H113	H	0.414319	0.494910	0.130242
H114	H	0.419936	0.488933	0.014010
H115	H	0.329404	0.538525	0.072049
H116	H	0.394285	0.336296	0.072187
H117	H	0.303785	0.386020	0.130191
O118	O	0.176408	0.041375	0.000160
C119	C	0.203405	-0.119432	0.000110
C120	C	0.238170	-0.025633	0.000089
H121	H	0.253324	-0.173633	0.000035
H122	H	0.162836	-0.124128	0.058234
H123	H	0.168313	-0.129973	-0.057990
H124	H	0.273300	-0.015029	0.058150
H125	H	0.278696	-0.020980	-0.058073
O126	O	1.012978	0.096872	0.389863
C127	C	1.119054	-0.017544	0.380631
C128	C	1.062700	0.043157	0.332602
H129	H	1.159257	-0.061001	0.334357
H130	H	1.156373	0.026300	0.421517
H131	H	1.083207	-0.062914	0.421587
H132	H	1.098484	0.088538	0.291601
H133	H	1.025379	-0.000740	0.291770
H134	H	1.059773	-0.093404	0.000115
O135	O	1.049712	0.056516	0.610297
C136	C	1.070350	-0.071110	0.512266
C137	C	1.009818	-0.004811	0.560046
H138	H	1.038118	-0.120722	0.471639
H139	H	1.111761	-0.032015	0.471094
H140	H	1.105989	-0.109716	0.558746
H141	H	0.974124	0.033811	0.513626
H142	H	0.968461	-0.043958	0.601230
O143	O	0.337608	0.056420	0.000001
C144	C	0.444081	-0.033315	-0.071976
C145	C	0.388880	0.052123	-0.071935
H146	H	0.485537	-0.036827	-0.130138
H147	H	0.480134	-0.030889	-0.013906
H148	H	0.407394	-0.095521	-0.071937
H149	H	0.425506	0.114373	-0.072003
H150	H	0.352824	0.049618	-0.129999
H151	H	0.705238	0.029832	0.000089
O152	O	0.831713	0.292096	0.782494
C153	C	0.694154	0.336391	0.809234
C154	C	0.755063	0.270798	0.761149
H155	H	0.632170	0.319207	0.791981
H156	H	0.699922	0.330108	0.879219
H157	H	0.705290	0.408467	0.792057
H158	H	0.743967	0.198694	0.778257
H159	H	0.749282	0.277159	0.691176
