data_functionalizedCrystal
_audit_creation_method	'MofGen! by Chris Wilmer'
_symmetry_space_group_name_H-M	'P1'
_symmetry_Int_Tables_number	1
_symmetry_cell_setting	triclinic
loop_
_symmetry_equiv_pos_as_xyz
  x,y,z
_cell_length_a	6.817900
_cell_length_b	17.982723
_cell_length_c	16.015572
_cell_angle_alpha	78.163913
_cell_angle_beta	104.485554
_cell_angle_gamma	102.447564
loop_
_atom_site_label
_atom_site_type_symbol
_atom_site_fract_x
_atom_site_fract_y
_atom_site_fract_z
V1	V	-3.990105	-0.030701	-0.269500
O2	O	-3.983626	0.078251	-0.263992
O3	O	-3.936765	-0.134714	-0.268020
O4	O	-3.928047	0.003460	-0.386872
O5	O	-3.992405	-0.060879	-0.144317
V6	V	-4.476142	-0.021649	-0.254483
O7	O	-4.245847	-0.050556	-0.302441
O8	O	-4.670598	-0.001794	-0.221542
O9	O	-4.306275	0.082364	-0.255963
O10	O	-4.600018	-0.130601	-0.259991
O11	O	-4.591239	0.008529	-0.379666
O12	O	-4.314994	-0.055809	-0.137110
C13	C	-3.781007	-0.161123	-0.263862
C14	C	-3.818591	-0.245939	-0.263435
C15	C	-4.230787	-0.769248	-0.265080
C16	C	-4.195462	-0.689554	-0.265486
C17	C	-3.996379	-0.647028	-0.261369
C18	C	-3.832608	-0.684200	-0.256837
C19	C	-3.867933	-0.763894	-0.256425
C20	C	-3.690145	-0.362806	-0.258497
C21	C	-3.654834	-0.283106	-0.258912
C22	C	-4.017675	-0.288466	-0.267558
C23	C	-4.052999	-0.368159	-0.267146
C24	C	-3.889225	-0.405326	-0.262610
C25	C	-3.927530	-0.491739	-0.262168
C26	C	-3.958075	-0.560614	-0.261817
C27	C	-3.769884	0.015132	-0.415469
C28	C	-3.800395	0.042373	-0.511424
C29	C	-4.077548	-0.199421	-0.889900
C30	C	-4.106224	-0.173799	-0.980060
C31	C	-4.035531	-0.041238	-0.954891
C32	C	-4.006838	-0.066850	-0.864727
C33	C	-4.027853	-0.145942	-0.832239
C34	C	-3.957143	-0.013370	-0.807066
C35	C	-3.928464	-0.038979	-0.716910
C36	C	-3.949480	-0.118068	-0.684415
C37	C	-3.999174	-0.171551	-0.742083
C38	C	-3.936143	0.065722	-0.839556
C39	C	-3.886448	0.119201	-0.781895
C40	C	-3.857754	0.093592	-0.691736
C41	C	-3.878770	0.014503	-0.659241
C42	C	-3.808060	0.147075	-0.634068
C43	C	-3.779381	0.121466	-0.543912
C44	C	-3.850091	-0.011106	-0.569085
C45	C	-4.125376	0.108769	-0.260118
C46	C	-4.067029	0.193585	-0.260552
C47	C	-4.136499	-0.067486	-0.108509
C48	C	-4.085226	-0.094723	-0.012553
H49	H	-4.328815	-0.659296	-0.269177
F50	F	-4.264888	-0.413414	-0.271531
H51	H	-4.016259	-0.235956	-0.715629
F52	F	-4.442680	-0.814500	-0.269469
H53	H	-3.492711	-0.248483	-0.255559
F54	F	-3.864090	0.203375	-0.816481
H55	H	-3.790976	0.211472	-0.660535
H56	H	-3.867176	-0.075511	-0.542632
H57	H	-3.959466	0.086571	-0.912967
H58	H	-4.151023	-0.258196	-0.271247
H59	H	-3.556781	-0.393058	-0.254793
F60	F	-4.013172	0.042935	-0.989477
F61	F	-3.918962	-0.145325	-0.588461
F62	F	-3.620723	-0.638940	-0.252444
H63	H	-3.734584	-0.794153	-0.252745
F64	F	-3.726558	0.178383	-0.482543
F65	F	-4.099874	-0.283600	-0.855318
H66	H	-4.146682	-0.217355	-1.027006
