data_functionalizedCrystal
_audit_creation_method	'MofGen! by Chris Wilmer'
_symmetry_space_group_name_H-M	'P1'
_symmetry_Int_Tables_number	1
_symmetry_cell_setting	triclinic
loop_
_symmetry_equiv_pos_as_xyz
  x,y,z
_cell_length_a	29.839133
_cell_length_b	29.839134
_cell_length_c	10.686551
_cell_angle_alpha	85.592830
_cell_angle_beta	85.599263
_cell_angle_gamma	90.024465
loop_
_atom_site_label
_atom_site_type_symbol
_atom_site_fract_x
_atom_site_fract_y
_atom_site_fract_z
Zn1	Zn	-0.159384	0.706314	-0.713885
Zn2	Zn	-0.240287	0.700481	-0.502895
Zn3	Zn	-0.165166	0.625415	-0.502856
Zn4	Zn	-0.234483	0.631158	-0.713806
O5	O	-0.199830	0.665842	-0.608360
O6	O	-0.170125	0.768409	-0.685946
O7	O	-0.235171	0.685680	-0.326307
O8	O	-0.101532	0.636185	-0.530866
O9	O	-0.229564	0.764124	-0.530933
O10	O	-0.097284	0.695620	-0.685908
O11	O	-0.179980	0.630529	-0.326278
O12	O	-0.174352	0.563309	-0.530789
O13	O	-0.219673	0.645972	-0.890399
O14	O	-0.225279	0.567528	-0.685773
O15	O	-0.164498	0.701189	-0.890457
O16	O	-0.302385	0.691248	-0.530856
O17	O	-0.298121	0.640316	-0.685811
C18	C	-0.199814	0.549117	-0.608269
C19	C	-0.199817	0.499182	-0.608260
C20	C	-0.316553	0.665785	-0.608357
C21	C	-0.366486	0.665803	-0.608397
C22	C	-0.720825	0.696809	-0.689183
C23	C	-0.533152	0.696767	-0.689182
O24	O	-0.506976	0.723071	-0.757850
N25	N	-0.511932	0.665838	-0.608394
C26	C	-0.537633	0.634920	-0.527596
O27	O	-0.515277	0.608615	-0.458872
C28	C	-0.725305	0.634965	-0.527592
C29	C	-0.746522	0.665893	-0.608393
C30	C	-0.742043	0.727735	-0.769977
C31	C	-0.788958	0.727744	-0.769982
C32	C	-0.814656	0.696827	-0.689192
C33	C	-0.793438	0.665901	-0.608398
C34	C	-0.751005	0.604049	-0.446788
C35	C	-0.797926	0.604064	-0.446792
C36	C	-0.819144	0.634992	-0.527593
C37	C	-0.866051	0.634993	-0.527613
N38	N	-0.887271	0.665922	-0.608400
C39	C	-0.861574	0.696839	-0.689190
C40	C	-0.439102	0.634898	-0.527605
C41	C	-0.392184	0.634886	-0.527608
C42	C	-0.387707	0.696734	-0.689192
C43	C	-0.434625	0.696743	-0.689195
C44	C	-0.460322	0.665827	-0.608393
C45	C	-0.960099	0.696855	-0.689194
C46	C	-1.007019	0.696859	-0.689195
C47	C	-1.011492	0.635014	-0.527606
C48	C	-0.964577	0.635007	-0.527609
C49	C	-0.938881	0.665931	-0.608407
O50	O	-0.892255	0.608706	-0.458970
O51	O	-0.883938	0.723146	-0.757883
C52	C	-0.673910	0.696801	-0.689179
C53	C	-0.652692	0.665875	-0.608385
C54	C	-0.678389	0.634958	-0.527595
C55	C	-0.605774	0.665863	-0.608387
C56	C	-0.580076	0.696780	-0.689177
C57	C	-0.601297	0.727709	-0.769964
C58	C	-0.648212	0.727717	-0.769968
C59	C	-0.657169	0.604030	-0.446808
C60	C	-0.610253	0.604023	-0.446811
C61	C	-0.584556	0.634940	-0.527601
C62	C	-0.226393	0.191745	-0.688961
C63	C	-0.226404	0.004074	-0.689018
O64	O	-0.248981	-0.018317	-0.757579
N65	N	-0.199844	-0.021597	-0.608455
C66	C	-0.173277	-0.000348	-0.527879
O67	O	-0.150683	-0.026488	-0.459366
C68	C	-0.173264	0.187323	-0.527830
C69	C	-0.199829	0.212992	-0.608389
C70	C	-0.252956	0.217414	-0.769514
C71	C	-0.252955	0.264329	-0.769495
C72	C	-0.226391	0.285575	-0.688922
C73	C	-0.199828	0.259907	-0.608369
C74	C	-0.146695	0.208572	-0.447261
C75	C	-0.146693	0.255493	-0.447259
C76	C	-0.173258	0.281162	-0.527817
C77	C	-0.173263	0.328068	-0.527777
N78	N	-0.199823	0.353739	-0.608339
C79	C	-0.226387	0.332493	-0.688912
C80	C	-0.173287	-0.098877	-0.527909
C81	C	-0.173291	-0.145795	-0.527919
C82	C	-0.226417	-0.141370	-0.689059
C83	C	-0.226415	-0.094452	-0.689042
C84	C	-0.199847	-0.073206	-0.608471
C85	C	-0.226383	0.431017	-0.688863
C86	C	-0.226381	0.477936	-0.688833
C87	C	-0.173252	0.473507	-0.527698
C88	C	-0.173256	0.426592	-0.527723
C89	C	-0.199823	0.405349	-0.608316
O90	O	-0.150694	0.350489	-0.459261
O91	O	-0.248970	0.358642	-0.757434
C92	C	-0.226394	0.144830	-0.688981
C93	C	-0.199832	0.119162	-0.608428
C94	C	-0.173268	0.140408	-0.527856
C95	C	-0.199836	0.072244	-0.608439
C96	C	-0.226399	0.050998	-0.689011
C97	C	-0.252960	0.076669	-0.769573
C98	C	-0.252958	0.123584	-0.769554
C99	C	-0.146708	0.114737	-0.447293
C100	C	-0.146711	0.067822	-0.447318
C101	C	-0.173275	0.046576	-0.527891
C102	C	-0.082651	0.665913	-0.608392
C103	C	-0.032716	0.665943	-0.608405
C104	C	-0.190793	0.674871	-0.937494
C105	C	-0.186942	0.678719	-1.077752
C106	C	-0.199847	0.783023	-0.608452
C107	C	-0.199855	0.832959	-0.608492
C108	C	-0.208800	0.656874	-0.280506
C109	C	-0.212525	0.653114	-0.140250
H110	H	-1.024292	0.722044	-0.755001
C111	C	-0.282179	0.053289	-0.858206
N112	N	-0.304184	0.035677	-0.924966
H113	H	-0.947301	0.609819	-0.461826
C114	C	-0.685430	0.570015	-0.357934
N115	N	-0.706714	0.544390	-0.290995
H116	H	-0.162092	0.703588	-1.131552
H117	H	-0.451897	0.721925	-0.754997
H118	H	-0.721124	0.752913	-0.835765
C119	C	-0.931841	0.730871	-0.778080
N120	N	-0.910557	0.756491	-0.845036
C121	C	-0.812292	0.761774	-0.858849
N122	N	-0.829864	0.787410	-0.925780
C123	C	-0.117486	0.138101	-0.358646
N124	N	-0.095476	0.155697	-0.291866
C125	C	-0.144028	0.496888	-0.439087
N126	N	-0.122011	0.514500	-0.372356
H127	H	-0.366776	0.721907	-0.754976
C128	C	-0.368849	0.600856	-0.438742
N129	N	-0.351275	0.575223	-0.371804
H130	H	-0.460020	0.609721	-0.461802
H131	H	-0.733736	0.578865	-0.380991
C132	C	-0.246096	0.619520	-1.067578
N133	N	-0.271381	0.594215	-1.012834
H134	H	-0.248015	0.498834	-0.754434
C135	C	-0.255636	-0.066221	-0.777669
N136	N	-0.277646	-0.044959	-0.844429
H137	H	-0.818846	0.578888	-0.380990
H138	H	-0.151663	-0.166691	-0.462307
H139	H	-1.032423	0.609841	-0.461832
H140	H	-0.665483	0.752902	-0.835767
H141	H	-0.274590	0.144479	-0.835153
H142	H	-0.248015	0.413727	-0.754493
H143	H	-0.580366	0.752881	-0.835751
H144	H	-0.248047	-0.158677	-0.754665
H145	H	-0.274586	0.285224	-0.835096
C146	C	-0.586919	0.569993	-0.357931
N147	N	-0.569346	0.544363	-0.290985
H148	H	-0.274588	0.200120	-0.835133
H149	H	-0.125064	0.187681	-0.381658
C150	C	-0.144060	-0.075514	-0.439260
N151	N	-0.122049	-0.057918	-0.372484
C152	C	-0.144037	0.398356	-0.439095
N153	N	-0.122025	0.377091	-0.372347
C154	C	-0.117484	0.039592	-0.358695
N155	N	-0.095467	0.018331	-0.291955
C156	C	-0.117466	0.278860	-0.358618
N157	N	-0.095454	0.296459	-0.291850
