data_functionalizedCrystal
_audit_creation_method	'MofGen! by Chris Wilmer'
_symmetry_space_group_name_H-M	'P1'
_symmetry_Int_Tables_number	1
_symmetry_cell_setting	triclinic
loop_
_symmetry_equiv_pos_as_xyz
  x,y,z
_cell_length_a	17.019372
_cell_length_b	16.098538
_cell_length_c	11.792254
_cell_angle_alpha	87.258456
_cell_angle_beta	83.794324
_cell_angle_gamma	88.864305
loop_
_atom_site_label
_atom_site_type_symbol
_atom_site_fract_x
_atom_site_fract_y
_atom_site_fract_z
O1	O	1.046997	-0.005767	0.144977
O2	O	1.546997	0.494233	0.644977
O3	O	0.818245	0.010627	0.162222
O4	O	1.318245	0.510627	0.662222
O5	O	0.938166	0.002027	-0.011599
O6	O	1.438166	0.502027	0.488401
O7	O	0.927075	0.002833	0.318798
O8	O	1.427075	0.502833	0.818798
O9	O	0.931161	-0.135984	-0.001485
O10	O	1.431161	0.364016	0.498515
O11	O	0.811239	-0.127384	0.172336
O12	O	1.311239	0.372616	0.672336
O13	O	1.039991	-0.143777	0.155091
O14	O	1.539991	0.356223	0.655091
Zn15	Zn	0.924503	-0.157493	0.165319
Zn16	Zn	1.424503	0.342507	0.665319
Zn17	Zn	0.933733	0.024342	0.151994
Zn18	Zn	1.433733	0.524342	0.651994
O19	O	0.920070	-0.135177	0.328912
O20	O	1.420070	0.364823	0.828912
C21	C	0.785457	-0.056280	0.166427
C22	C	1.285457	0.443720	0.666427
C23	C	0.698196	-0.050027	0.163875
C24	C	1.198196	0.449973	0.663875
C25	C	0.204861	-0.010830	0.149123
C26	C	0.704861	0.489170	0.649123
C27	C	0.286852	-0.016717	0.151522
C28	C	0.786852	0.483283	0.651522
C29	C	0.324020	-0.094891	0.158243
C30	C	0.824020	0.405109	0.658243
C31	C	0.279194	-0.167182	0.162554
C32	C	0.779194	0.332818	0.662554
C33	C	0.197205	-0.161295	0.160147
C34	C	0.697205	0.338705	0.660147
C35	C	0.571381	-0.116431	0.165779
C36	C	1.071381	0.383569	0.665779
C37	C	0.653375	-0.122313	0.168189
C38	C	1.153375	0.377687	0.668189
C39	C	0.661028	0.028153	0.157155
C40	C	1.161028	0.528153	0.657155
C41	C	0.579037	0.034034	0.154755
C42	C	1.079037	0.534034	0.654755
C43	C	0.534219	-0.038258	0.159060
C44	C	1.034219	0.461742	0.659060
C45	C	0.407827	-0.100910	0.160698
C46	C	0.907827	0.399090	0.660698
C47	C	0.450414	-0.032238	0.156596
C48	C	0.950414	0.467762	0.656596
N49	N	0.918210	-0.281591	0.174413
N50	N	1.418210	0.218409	0.674413
C51	C	0.969128	-0.328827	0.100662
C52	C	1.469128	0.171173	0.600662
C53	C	0.964733	-0.415701	0.107034
C54	C	1.464733	0.084299	0.607034
C55	C	0.909422	-0.455337	0.187163
C56	C	1.409422	0.044663	0.687163
C57	C	0.858499	-0.408094	0.260917
C58	C	1.358499	0.091906	0.760917
C59	C	0.862891	-0.321221	0.254538
C60	C	1.362891	0.178779	0.754538
C61	C	0.893501	-0.717445	0.210266
C62	C	1.393501	-0.217445	0.710266
C63	C	0.889114	-0.804324	0.216641
C64	C	1.389114	-0.304324	0.716641
C65	C	0.995348	-0.811925	0.062757
C66	C	1.495348	-0.311925	0.562757
C67	C	0.999738	-0.725051	0.056390
C68	C	1.499738	-0.225051	0.556390
C69	C	0.948812	-0.677815	0.130140
C70	C	1.448812	-0.177815	0.630140
C71	C	0.904930	-0.544136	0.193681
C72	C	1.404930	-0.044136	0.693681
C73	C	0.953301	-0.589018	0.123616
C74	C	1.453301	-0.089018	0.623616
C75	C	1.072779	-0.076869	0.150886
C76	C	1.572779	0.423131	0.650886
C77	C	1.160041	-0.083116	0.153437
C78	C	1.660041	0.416884	0.653437
C79	C	0.933965	-0.066928	-0.048829
C80	C	1.433965	0.433072	0.451171
C81	C	0.931874	-0.066778	-0.174831
C82	C	1.431874	0.433222	0.325169
N83	N	0.940033	0.148440	0.142891
N84	N	1.440033	0.648440	0.642891
C85	C	0.930175	-0.066653	-0.277159
C86	C	1.430175	0.433347	0.222841
C87	C	0.928050	-0.066493	-0.405535
C88	C	1.428050	0.433507	0.094465
C89	C	0.924271	-0.066220	0.366142
C90	C	1.424271	0.433780	0.866142
C91	C	0.926363	-0.066366	0.492143
C92	C	1.426363	0.433634	0.992143
H93	H	0.534901	-0.175296	0.169268
H94	H	1.034901	0.324704	0.669268
N95	N	0.829446	-0.847073	0.303059
N96	N	1.329446	-0.347073	0.803059
H97	H	0.834395	-0.909274	0.295908
H98	H	1.334395	-0.409274	0.795908
H99	H	0.839627	-0.832552	0.382505
H100	H	1.339627	-0.332552	0.882505
H101	H	0.160712	-0.220158	0.163671
H102	H	0.660712	0.279842	0.663671
N103	N	0.319278	-0.251500	0.169799
N104	N	0.819278	0.248500	0.669799
H105	H	0.378018	-0.244262	0.170675
H106	H	0.878018	0.255738	0.670675
H107	H	0.297199	-0.282880	0.242081
H108	H	0.797199	0.217120	0.742081
H109	H	0.821426	-0.282762	0.314592
H110	H	1.321426	0.217238	0.814592
N111	N	1.019680	-0.466640	0.027515
N112	N	1.519680	0.033360	0.527515
H113	H	1.011076	-0.450863	-0.054199
H114	H	1.511076	0.049137	0.445801
H115	H	1.076244	-0.455465	0.039866
H116	H	1.576244	0.044535	0.539866
N117	N	0.798843	-0.450835	0.347350
N118	N	1.298843	0.049165	0.847350
H119	H	0.743771	-0.431732	0.332921
H120	H	1.243771	0.068268	0.832921
H121	H	0.803856	-0.513027	0.340165
H122	H	1.303856	-0.013027	0.840165
H123	H	1.044776	-0.692781	-0.008857
H124	H	1.544776	-0.192781	0.491143
H125	H	0.438098	-0.164559	0.166173
H126	H	0.938098	0.335441	0.666173
H127	H	0.697528	0.087008	0.153649
H128	H	1.197528	0.587008	0.653649
H129	H	0.174605	0.052827	0.143658
H130	H	0.674605	0.552827	0.643658
H131	H	0.420148	0.031410	0.151120
H132	H	0.920148	0.531410	0.651120
N133	N	0.538951	0.118349	0.147495
N134	N	1.038951	0.618349	0.647495
H135	H	0.579787	0.163251	0.145120
H136	H	1.079787	0.663251	0.645120
H137	H	0.511176	0.123621	0.075960
H138	H	1.011176	0.623621	0.575960
H139	H	0.323342	0.042146	0.148002
H140	H	0.823342	0.542146	0.648002
H141	H	1.014171	-0.296562	0.035418
H142	H	1.514171	0.203438	0.535418
H143	H	1.036809	-0.850392	0.002712
H144	H	1.536809	-0.350392	0.502712
H145	H	0.998332	-0.556743	0.058370
H146	H	1.498332	-0.056743	0.558370
H147	H	0.852036	-0.678993	0.270318
H148	H	1.352036	-0.178993	0.770318
N149	N	0.693466	-0.206632	0.175440
N150	N	1.193466	0.293368	0.675440
H151	H	0.652634	-0.251536	0.177800
H152	H	1.152634	0.248464	0.677800
H153	H	0.733393	-0.212787	0.106390
H154	H	1.233393	0.287213	0.606390
H155	H	0.859897	-0.576414	0.258925
H156	H	1.359897	-0.076414	0.758925
