data_functionalizedCrystal
_audit_creation_method	'MofGen! by Chris Wilmer'
_symmetry_space_group_name_H-M	'P1'
_symmetry_Int_Tables_number	1
_symmetry_cell_setting	triclinic
loop_
_symmetry_equiv_pos_as_xyz
  x,y,z
_cell_length_a	31.640172
_cell_length_b	27.440280
_cell_length_c	27.440280
_cell_angle_alpha	60.004534
_cell_angle_beta	90.009039
_cell_angle_gamma	59.997945
loop_
_atom_site_label
_atom_site_type_symbol
_atom_site_fract_x
_atom_site_fract_y
_atom_site_fract_z
Zr1	Zr	-0.055411	0.533341	0.469561
O2	O	-0.122907	0.635020	0.391744
O3	O	-0.034720	0.431675	0.493407
O4	O	-0.122897	0.533347	0.493405
O5	O	0.034826	0.533340	0.391757
O6	O	-0.122888	0.533338	0.573608
O7	O	-0.034730	0.533348	0.391745
O8	O	0.034844	0.351464	0.573611
O9	O	-0.122906	0.715213	0.391754
O10	O	-0.025889	0.473480	0.563442
O11	O	0.026014	0.473481	0.503597
O12	O	-0.077803	0.593187	0.503595
O13	O	-0.025900	0.593188	0.443749
Zr14	Zr	0.055538	0.533313	0.597494
Zr15	Zr	-0.055397	0.533327	0.597475
Zr16	Zr	0.055524	0.533328	0.469579
Zr17	Zr	-0.055409	0.661239	0.469577
Zr18	Zr	0.055536	0.405415	0.597477
O19	O	0.034847	0.634980	0.573648
O20	O	-0.122887	0.634999	0.573621
O21	O	0.034827	0.635001	0.391770
O22	O	0.123034	0.431634	0.675311
O23	O	-0.034700	0.431653	0.675285
O24	O	0.123014	0.431655	0.493433
O25	O	-0.034699	0.533315	0.675298
O26	O	0.123024	0.533307	0.573649
O27	O	0.123015	0.533317	0.493446
O28	O	0.034857	0.533306	0.675309
O29	O	-0.122895	0.715201	0.493429
O30	O	0.123022	0.351453	0.573626
O31	O	0.123033	0.351441	0.675300
O32	O	0.034855	0.351452	0.675286
O33	O	-0.034728	0.715202	0.391769
O34	O	-0.034717	0.715190	0.493444
O35	O	0.077930	0.473467	0.563460
O36	O	0.026027	0.473467	0.623306
O37	O	-0.025887	0.593174	0.563458
O38	O	0.026015	0.593174	0.503612
C39	C	0.000062	0.373347	0.533507
C40	C	0.000061	0.319051	0.533500
C41	C	-0.027025	-0.017692	0.564783
C42	C	-0.027023	-0.068715	0.564788
O43	O	-0.050049	-0.095122	0.591374
N44	N	0.000068	-0.094231	0.533549
C45	C	0.027165	-0.068725	0.502307
O46	O	0.050209	-0.095114	0.475736
C47	C	0.027166	-0.017706	0.502305
C48	C	0.000068	0.007812	0.533542
C49	C	-0.054120	0.007826	0.596017
C50	C	-0.054122	0.058847	0.596011
C51	C	-0.027029	0.084351	0.564770
C52	C	0.000066	0.058833	0.533535
C53	C	0.054265	0.007795	0.471067
C54	C	0.054264	0.058818	0.471069
C55	C	0.027166	0.084336	0.502305
C56	C	0.027157	0.135358	0.502288
N57	N	0.000065	0.160874	0.533527
C58	C	-0.027028	0.135371	0.564768
C59	C	0.027160	-0.175871	0.502313
C60	C	0.027156	-0.226886	0.502311
C61	C	-0.027031	-0.226873	0.564794
C62	C	-0.027029	-0.175854	0.564792
C63	C	0.000069	-0.150355	0.533553
C64	C	-0.027030	0.242519	0.564752
C65	C	-0.027032	0.293547	0.564741
C66	C	0.027158	0.293527	0.502261
C67	C	0.027157	0.242507	0.502270
C68	C	0.000062	0.217002	0.533519
O69	O	0.050172	0.161795	0.475718
O70	O	-0.050062	0.161759	0.591341
C71	C	-0.138699	0.533344	0.533504
C72	C	-0.185793	0.533350	0.533496
C73	C	-0.477793	0.533310	0.577723
C74	C	-0.654780	0.533301	0.577736
O75	O	-0.677648	0.533266	0.615329
N76	N	-0.676915	0.533307	0.533551
C77	C	-0.654799	0.533311	0.489362
O78	O	-0.677685	0.533310	0.451783
C79	C	-0.477812	0.533316	0.489351
C80	C	-0.455682	0.533316	0.533536
C81	C	-0.455663	0.533309	0.621904
C82	C	-0.411421	0.533315	0.621899
C83	C	-0.389309	0.533322	0.577712
C84	C	-0.411439	0.533322	0.533530
C85	C	-0.455695	0.533315	0.445165
C86	C	-0.411444	0.533314	0.445167
C87	C	-0.389314	0.533315	0.489352
C88	C	-0.345085	0.533334	0.489338
N89	N	-0.322950	0.533328	0.533523
C90	C	-0.345062	0.533322	0.577710
C91	C	-0.747721	0.533311	0.489369
C92	C	-0.791968	0.533311	0.489371
C93	C	-0.791945	0.533299	0.577747
C94	C	-0.747699	0.533303	0.577742
C95	C	-0.725586	0.533304	0.533555
C96	C	-0.252150	0.533335	0.577694
C97	C	-0.207905	0.533344	0.577683
C98	C	-0.207930	0.533352	0.489310
C99	C	-0.252173	0.533347	0.489319
C100	C	-0.274281	0.533336	0.533516
O101	O	-0.322186	0.533362	0.451768
O102	O	-0.322162	0.533308	0.615290
C103	C	-0.522036	0.533304	0.577729
C104	C	-0.544166	0.533304	0.533547
C105	C	-0.522054	0.533310	0.489360
C106	C	-0.588413	0.533304	0.533549
C107	C	-0.610525	0.533298	0.577736
C108	C	-0.588390	0.533291	0.621921
C109	C	-0.544148	0.533297	0.621915
C110	C	-0.544190	0.533317	0.445175
C111	C	-0.588432	0.533312	0.445184
C112	C	-0.610544	0.533305	0.489371
C113	C	0.138825	0.533310	0.533550
C114	C	0.185920	0.533304	0.533558
C115	C	0.000046	0.533346	0.373526
C116	C	0.000040	0.533352	0.319223
C117	C	0.000065	0.693308	0.533548
C118	C	0.000066	0.747604	0.533555
C119	C	0.027176	0.470830	0.013765
C120	C	0.027181	0.470826	-0.037253
O121	O	0.050243	0.417685	-0.037073
N122	N	0.000082	0.533311	-0.094010
C123	C	-0.027020	0.595804	-0.099747
O124	O	-0.050069	0.648952	-0.152708
C125	C	-0.027021	0.595807	-0.048729
C126	C	0.000076	0.533318	0.008027
C127	C	0.054272	0.408346	0.070519
C128	C	0.054266	0.408350	0.121534
C129	C	0.027165	0.470838	0.115795
C130	C	0.000070	0.533322	0.059042
C131	C	-0.054119	0.658300	-0.054467
C132	C	-0.054117	0.658297	-0.003443
C133	C	-0.027021	0.595808	0.053313
C134	C	-0.027036	0.595814	0.104318
N135	N	0.000064	0.533329	0.161074
C136	C	0.027164	0.470841	0.166813
C137	C	-0.027014	0.595793	-0.206886
C138	C	-0.027016	0.595791	-0.257903
C139	C	0.027185	0.470812	-0.195405
C140	C	0.027184	0.470816	-0.144387
C141	C	0.000085	0.533308	-0.150129
C142	C	0.027150	0.470855	0.273945
C143	C	0.027141	0.470864	0.324962
C144	C	-0.027058	0.595842	0.262460
C145	C	-0.027051	0.595833	0.211448
C146	C	0.000057	0.533334	0.217194
O147	O	-0.050084	0.648929	0.104183
O148	O	0.050215	0.417702	0.219775
C149	C	0.000081	0.533308	0.693528
C150	C	0.000087	0.533302	0.747831
C151	C	0.000079	0.373328	0.693508
C152	C	0.000085	0.319026	0.747804
C153	C	0.138824	0.373330	0.533530
C154	C	0.185918	0.319028	0.533531
C155	C	0.138841	0.373311	0.693531
C156	C	0.185941	0.319003	0.747835
C157	C	-0.138714	0.693343	0.373524
C158	C	-0.185814	0.747652	0.319220
C159	C	0.000048	0.693326	0.373547
C160	C	0.000042	0.747629	0.319251
C161	C	-0.138697	0.693325	0.533525
C162	C	-0.185791	0.747626	0.533524
C163	C	-0.027017	0.293532	0.742054
C164	C	-0.027022	0.242516	0.793066
C165	C	0.000077	0.216992	0.849827
C166	C	0.027180	0.242491	0.855576
C167	C	0.027182	0.293509	0.804564
C168	C	0.235138	0.293520	0.564779
C169	C	0.279392	0.242505	0.564777
C170	C	0.274425	0.216995	0.533531
C171	C	0.225200	0.242508	0.502279
C172	C	0.180947	0.293526	0.502277
C173	C	0.180967	0.293499	0.804581
C174	C	0.225218	0.242478	0.855610
C175	C	0.274443	0.216958	0.849891
C176	C	0.279416	0.242467	0.793140
C177	C	0.235165	0.293491	0.742112
C178	C	-0.180840	0.773162	0.262474
C179	C	-0.225091	0.824199	0.211445
C180	C	-0.274316	0.849721	0.217163
C181	C	-0.279289	0.824209	0.273915
C182	C	-0.235038	0.773176	0.324943
C183	C	0.027139	0.773128	0.325001
C184	C	0.027132	0.824158	0.273989
C185	C	0.000031	0.849684	0.217228
C186	C	-0.027069	0.824182	0.211479
C187	C	-0.027065	0.773157	0.262490
C188	C	-0.180807	0.773120	0.564777
C189	C	-0.225053	0.824136	0.564788
C190	C	-0.274282	0.849660	0.533542
C191	C	-0.279264	0.824161	0.502288
C192	C	-0.235019	0.773143	0.502281
H193	H	-0.076181	-0.012936	0.621460
Br194	Br	0.063915	0.386052	0.401988
Br195	Br	0.218467	0.207879	0.459875
Br196	Br	-0.063845	0.858831	0.134441
Br197	Br	-0.063805	0.207920	0.785250
Br198	Br	-0.514120	0.533299	0.681883
H199	H	0.000072	0.175449	0.891359
H200	H	0.049215	-0.247651	0.476868
Br201	Br	0.334488	0.147756	0.533539
Br202	Br	0.063969	0.328098	0.812379
Br203	Br	0.063957	0.207841	0.932614
H204	H	0.076330	0.079577	0.445628
H205	H	0.140871	0.314287	0.476833
H206	H	0.140890	0.314270	0.809248
Br207	Br	0.241925	0.328094	0.665101
H208	H	0.319468	0.221739	0.590229
H209	H	-0.049088	0.646676	-0.304113
H210	H	0.049203	0.844912	0.278681
Br211	Br	-0.218330	0.858810	0.134433
H212	H	-0.076185	0.079619	0.621448
H213	H	0.239192	0.314285	0.590224
H214	H	0.310470	0.175411	0.891446
H215	H	0.221160	0.221714	0.901815
Br216	Br	-0.241792	0.738556	0.459857
H217	H	-0.310304	0.891202	0.533552
H218	H	-0.140763	0.752384	0.257807
Br219	Br	0.063923	0.207884	0.459867
Br220	Br	0.346225	0.207826	0.785389
Br221	Br	-0.114003	0.738492	0.607187
Br222	Br	-0.334366	0.918981	0.147904
Br223	Br	-0.346098	0.858852	0.281665
H224	H	-0.239094	0.752406	0.371146
H225	H	0.049224	-0.155108	0.476868
Br226	Br	0.000031	0.918934	0.148003
H227	H	0.049212	0.752349	0.371214
Br228	Br	-0.063840	0.738554	0.254676
Br229	Br	-0.090891	0.743112	-0.131483
Br230	Br	-0.282212	0.533360	0.429346
H231	H	-0.049091	0.314313	0.695840
Br232	Br	-0.218279	0.858733	0.607204
H233	H	-0.049100	0.314324	0.590177
Br234	Br	-0.063806	-0.141227	0.607186
Br235	Br	-0.063800	0.207912	0.607165
H236	H	0.049214	0.314304	0.476823
Br237	Br	-0.346079	0.858814	0.459880
H238	H	0.076331	-0.012974	0.445632
Br239	Br	-0.063800	-0.261495	0.607193
H240	H	0.049253	0.419931	-0.098177
H241	H	-0.189889	0.533346	0.613664
H242	H	-0.270144	0.533325	0.613684
Br243	Br	-0.381390	0.533311	0.681868
H244	H	-0.473662	0.533302	0.657889
H245	H	0.049225	0.419962	0.278633
H246	H	-0.729683	0.533303	0.613721
H247	H	-0.809957	0.533295	0.613725
H248	H	-0.473707	0.533314	0.409186
Br249	Br	-0.717715	0.533313	0.429395
Br250	Br	-0.381434	0.533311	0.385197
Br251	Br	-0.822004	0.533327	0.429396
Br252	Br	-0.618410	0.533288	0.681886
Br253	Br	-0.177916	0.533363	0.429343
H254	H	-0.606450	0.533317	0.409199
Br255	Br	-0.090894	0.743113	-0.011241
H256	H	-0.526189	0.533321	0.409193
H257	H	0.076343	0.357458	0.075202
Br258	Br	0.063964	0.386006	-0.187627
Br259	Br	-0.063799	0.680613	-0.214687
Br260	Br	-0.063838	0.680640	0.134420
Br261	Br	-0.063828	0.680643	0.254684
Br262	Br	0.091046	0.323539	0.198554
