data_functionalizedCrystal
_audit_creation_method	'MofGen! by Chris Wilmer'
_symmetry_space_group_name_H-M	'P1'
_symmetry_Int_Tables_number	1
_symmetry_cell_setting	triclinic
loop_
_symmetry_equiv_pos_as_xyz
  x,y,z
_cell_length_a	17.699097
_cell_length_b	17.699083
_cell_length_c	15.186229
_cell_angle_alpha	90.001174
_cell_angle_beta	90.009198
_cell_angle_gamma	83.285722
loop_
_atom_site_label
_atom_site_type_symbol
_atom_site_fract_x
_atom_site_fract_y
_atom_site_fract_z
O1	O	1.004071	0.095754	0.073303
O2	O	1.504071	0.595754	0.573303
O3	O	0.783694	0.108196	0.073289
O4	O	1.283694	0.608196	0.573289
O5	O	0.900109	-0.008214	0.073289
O6	O	1.400109	0.491786	0.573289
O7	O	0.887657	0.212164	0.073304
O8	O	1.387657	0.712164	0.573304
O9	O	0.900095	-0.008207	-0.073168
O10	O	1.400095	0.491793	0.426832
O11	O	0.783681	0.108202	-0.073168
O12	O	1.283681	0.608202	0.426832
O13	O	1.004058	0.095761	-0.073154
O14	O	1.504058	0.595761	0.426846
Zn15	Zn	0.893867	0.101983	-0.096414
Zn16	Zn	1.393867	0.601983	0.403586
Zn17	Zn	0.893885	0.101974	0.096550
Zn18	Zn	1.393885	0.601974	0.596550
O19	O	0.887643	0.212170	-0.073153
O20	O	1.387643	0.712170	0.426847
C21	C	0.755491	0.107752	0.000059
C22	C	1.255491	0.607752	0.500059
C23	C	0.671473	0.106409	0.000053
C24	C	1.171473	0.606409	0.500053
C25	C	0.899656	-0.036408	0.000060
C26	C	1.399656	0.463592	0.500060
C27	C	0.898317	-0.120426	0.000060
C28	C	1.398317	0.379574	0.500060
C29	C	0.155762	0.098176	0.079922
C30	C	0.655762	0.598176	0.579922
C31	C	0.234706	0.099432	0.079918
C32	C	0.734706	0.599432	0.579918
C33	C	0.274165	0.100065	0.000080
C34	C	0.774165	0.600065	0.500080
C35	C	0.234676	0.099434	-0.079758
C36	C	0.734676	0.599434	0.420242
C37	C	0.155734	0.098173	-0.079753
C38	C	0.655734	0.598173	0.420247
C39	C	0.553040	0.104522	-0.079781
C40	C	1.053040	0.604522	0.420219
C41	C	0.631987	0.105786	-0.079780
C42	C	1.131987	0.605786	0.420220
C43	C	0.632012	0.105781	0.079890
C44	C	1.132012	0.605781	0.579890
C45	C	0.553070	0.104520	0.079895
C46	C	1.053070	0.604520	0.579895
C47	C	0.513589	0.103885	0.000057
C48	C	1.013589	0.603885	0.500057
C49	C	0.427989	0.102521	0.000063
C50	C	0.927989	0.602521	0.500063
C51	C	0.359763	0.101434	0.000074
C52	C	0.859763	0.601434	0.500074
C53	C	0.966650	-0.169044	0.000063
C54	C	1.466650	0.330956	0.500063
C55	C	0.965388	-0.247987	0.000071
C56	C	1.465388	0.252013	0.500071
C57	C	0.895792	-0.278311	0.000069
C58	C	1.395792	0.221689	0.500069
C59	C	0.827454	-0.229687	0.000068
C60	C	1.327454	0.270313	0.500068
C61	C	0.828717	-0.150745	0.000067
C62	C	1.328717	0.349255	0.500067
C63	C	0.822359	-0.548050	0.000075
C64	C	1.322359	-0.048050	0.500075
C65	C	0.821101	-0.626998	0.000074
C66	C	1.321101	-0.126998	0.500074
C67	C	0.959030	-0.645292	0.000079
C68	C	1.459030	-0.145292	0.500079
C69	C	0.960293	-0.566350	0.000077
C70	C	1.460293	-0.066350	0.500077
C71	C	0.891955	-0.517733	0.000082
C72	C	1.391955	-0.017733	0.500082
C73	C	0.893325	-0.432134	0.000075
C74	C	1.393325	0.067866	0.500075
C75	C	0.894422	-0.363909	0.000069
C76	C	1.394422	0.136091	0.500069
C77	C	1.032261	0.096205	0.000079
C78	C	1.532261	0.596205	0.500079
C79	C	1.116279	0.097547	0.000090
C80	C	1.616279	0.597547	0.500090
C81	C	0.888096	0.240364	0.000077
C82	C	1.388096	0.740364	0.500077
C83	C	0.889435	0.324382	0.000083
C84	C	1.389435	0.824382	0.500083
N85	N	0.893860	0.101988	-0.228107
N86	N	1.393860	0.601988	0.271893
C87	C	0.939691	0.147825	-0.453823
C88	C	1.439691	0.647825	0.046177
C89	C	0.939699	0.147820	-0.546013
C90	C	1.439699	0.647820	-0.046013
C91	C	0.848065	0.056120	-0.546035
C92	C	1.348065	0.556120	-0.046035
C93	C	0.848062	0.056122	-0.453847
C94	C	1.348062	0.556122	0.046153
C95	C	0.893873	0.101979	-0.407743
C96	C	1.393873	0.601979	0.092257
C97	C	0.893885	0.101972	-0.592121
C98	C	1.393885	0.601972	-0.092121
C99	C	0.893894	0.101965	-0.692077
C100	C	1.393894	0.601965	-0.192077
C101	C	0.893866	0.101984	-0.307781
C102	C	1.393866	0.601984	0.192219
N103	N	0.893898	0.101962	0.228242
N104	N	1.393898	0.601962	0.728242
H105	H	0.123640	0.097666	0.144935
H106	H	0.623640	0.597666	0.644935
H107	H	0.520906	0.103993	-0.144790
H108	H	1.020906	0.603993	0.355210
C109	C	1.036848	-0.532998	0.000083
C110	C	1.536848	-0.032998	0.500083
H111	H	1.077365	-0.573260	0.000095
H112	H	1.577365	-0.073260	0.500095
H113	H	1.040206	-0.502582	-0.050988
H114	H	1.540206	-0.002582	0.449012
H115	H	1.040208	-0.502584	0.051164
H116	H	1.540208	-0.002584	0.551164
H117	H	0.520947	0.104008	0.144907
H118	H	1.020947	0.604008	0.644907
C119	C	0.675445	0.106471	0.167711
C120	C	1.175445	0.606471	0.667711
H121	H	0.728112	0.107304	0.156278
H122	H	1.228112	0.607304	0.656278
H123	H	0.656661	0.150382	0.200516
H124	H	1.156661	0.650382	0.700516
H125	H	0.668364	0.062139	0.200512
H126	H	1.168364	0.562139	0.700512
C127	C	0.112302	0.097485	-0.167568
C128	C	0.612302	0.597485	0.332432
H129	H	0.147106	0.098050	-0.215118
H130	H	0.647106	0.598050	0.284882
H131	H	0.087358	0.052874	-0.170888
H132	H	0.587358	0.552874	0.329112
H133	H	0.075654	0.141118	-0.170881
H134	H	0.575654	0.641118	0.329119
C135	C	0.750900	-0.263042	0.000064
C136	C	1.250900	0.236958	0.500064
H137	H	0.759933	-0.317020	0.000056
H138	H	1.259933	0.182980	0.500056
H139	H	0.722772	-0.246346	0.051134
H140	H	1.222772	0.253654	0.551134
H141	H	0.722768	-0.246344	-0.051018
H142	H	1.222768	0.253656	0.448982
H143	H	0.266851	0.099940	0.144925
H144	H	0.766851	0.599940	0.644925
H145	H	0.766714	-0.508475	0.000078
H146	H	1.266714	-0.008475	0.500078
C147	C	0.797657	0.005691	-0.403155
C148	C	1.297657	0.505691	0.096845
H149	H	0.770366	-0.021612	-0.443815
H150	H	1.270366	0.478388	0.056185
H151	H	0.828734	-0.029179	-0.367185
H152	H	1.328734	0.470821	0.132815
H153	H	0.762766	0.036757	-0.367202
H154	H	1.262766	0.536757	0.132798
H155	H	0.664112	0.106301	-0.144797
H156	H	1.164112	0.606301	0.355203
C157	C	0.990085	0.198258	-0.403108
C158	C	1.490085	0.698258	0.096892
H159	H	0.983517	0.191700	-0.341604
H160	H	1.483517	0.691700	0.158396
H161	H	1.041894	0.184131	-0.418204
H162	H	1.541894	0.684131	0.081796
H163	H	0.975923	0.250065	-0.418221
H164	H	1.475923	0.750065	0.081779
H165	H	0.266810	0.099945	-0.144763
H166	H	0.766810	0.599945	0.355237
H167	H	0.977010	0.185151	-0.583527
H168	H	1.477010	0.685151	-0.083527
C169	C	0.797658	0.005698	-0.596747
C170	C	1.297658	0.505698	-0.096747
H171	H	0.770371	-0.021607	-0.556098
H172	H	1.270371	0.478393	-0.056098
H173	H	0.762774	0.036767	-0.632710
H174	H	1.262774	0.536767	-0.132710
H175	H	0.828731	-0.029181	-0.632709
H176	H	1.328731	0.470819	-0.132709
C177	C	1.043207	-0.135694	0.000065
C178	C	1.543207	0.364306	0.500065
H179	H	1.083722	-0.175958	0.000076
H180	H	1.583722	0.324042	0.500076
H181	H	1.046565	-0.105280	-0.051008
H182	H	1.546565	0.394720	0.448992
H183	H	1.046571	-0.105280	0.051145
H184	H	1.546571	0.394720	0.551145
H185	H	0.773073	-0.111161	0.000065
H186	H	1.273073	0.388839	0.500065
H187	H	1.021032	-0.287569	0.000071
H188	H	1.521032	0.212431	0.500071
H189	H	0.764424	-0.651685	0.000071
H190	H	1.264424	-0.151685	0.500071
C191	C	1.034201	-0.698773	0.000089
C192	C	1.534201	-0.198773	0.500089
H193	H	1.023485	-0.750131	0.000100
H194	H	1.523485	-0.250131	0.500100
H195	H	1.062741	-0.689597	-0.050983
H196	H	1.562741	-0.189597	0.449017
H197	H	1.062747	-0.689589	0.051169
H198	H	1.562747	-0.189589	0.551169
