data_functionalizedCrystal
_audit_creation_method	'MofGen! by Chris Wilmer'
_symmetry_space_group_name_H-M	'P1'
_symmetry_Int_Tables_number	1
_symmetry_cell_setting	triclinic
loop_
_symmetry_equiv_pos_as_xyz
  x,y,z
_cell_length_a	18.426585
_cell_length_b	14.809374
_cell_length_c	14.809374
_cell_angle_alpha	60.797835
_cell_angle_beta	89.999492
_cell_angle_gamma	67.427171
loop_
_atom_site_label
_atom_site_type_symbol
_atom_site_fract_x
_atom_site_fract_y
_atom_site_fract_z
Zr1	Zr	0.801597	0.955238	-0.203700
O2	O	0.712699	1.113155	-0.350856
O3	O	0.816264	0.777472	-0.145624
O4	O	0.845949	0.926621	-0.332165
O5	O	0.673914	0.993501	-0.031917
O6	O	0.965376	0.926626	-0.332169
O7	O	0.683014	0.964006	-0.164315
O8	O	0.912274	0.659826	0.001519
O9	O	0.727016	1.260301	-0.365605
O10	O	0.926851	0.857945	-0.136522
O11	O	0.830933	0.879953	-0.037712
O12	O	0.865884	1.055557	-0.257339
O13	O	0.769966	1.077565	-0.158529
Zr14	Zr	0.977556	1.002288	0.007454
Zr15	Zr	0.992069	0.955247	-0.203706
Zr16	Zr	0.787084	1.002280	0.007460
Zr17	Zr	0.824431	1.189920	-0.227222
Zr18	Zr	0.954723	0.767606	0.030976
O19	O	0.962890	1.180054	-0.050623
O20	O	0.983526	1.113167	-0.350865
O21	O	0.692063	1.180042	-0.050614
O22	O	1.066454	0.844371	0.154610
O23	O	1.087090	0.777484	-0.145633
O24	O	0.795628	0.844359	0.154619
O25	O	1.105240	0.964025	-0.164329
O26	O	0.933204	1.030905	0.135918
O27	O	0.813777	1.030900	0.135922
O28	O	1.096140	0.993520	-0.031931
O29	O	0.878415	1.260308	-0.365610
O30	O	0.900738	0.697218	0.169363
O31	O	1.052138	0.697225	0.169358
O32	O	1.063674	0.659833	0.001514
O33	O	0.715480	1.297693	-0.197760
O34	O	0.866879	1.297700	-0.197766
O35	O	0.913269	0.901969	0.061093
O36	O	1.009187	0.879961	-0.037717
O37	O	0.948220	1.077573	-0.158535
O38	O	0.852302	1.099581	-0.059725
C39	C	0.861016	0.685212	-0.068701
C40	C	0.851322	0.585583	-0.058715
C41	C	0.894582	0.530248	-0.103280
C42	C	0.884565	0.427277	-0.092960
C43	C	0.651325	0.978752	-0.098115
C44	C	0.570465	0.978748	-0.098113
C45	C	0.274355	0.978783	-0.098134
C46	C	0.356741	0.978778	-0.098131
C47	C	0.422408	0.978766	-0.098124
C48	C	0.504798	0.978761	-0.098120
C49	C	1.127828	0.978774	-0.098131
C50	C	1.208688	0.978778	-0.098134
C51	C	0.907731	0.919921	-0.362252
C52	C	0.913892	0.899951	-0.451895
C53	C	0.918138	1.272314	-0.127546
C54	C	0.927831	1.371943	-0.137531
C55	C	0.886395	0.989076	-0.551795
C56	C	0.892762	0.968438	-0.644447
C57	C	0.871423	1.037605	0.166006
C58	C	0.865262	1.057575	0.255649
C59	C	1.099267	0.685223	-0.068709
C60	C	1.170434	0.585598	-0.058726
C61	C	0.842862	0.744054	0.195428
C62	C	0.827007	0.664396	0.295057
C63	C	1.081113	0.744065	0.195420
C64	C	1.146119	0.664410	0.295046
C65	C	0.698040	1.213461	-0.391667
C66	C	0.633035	1.293116	-0.491293
C67	C	0.679886	1.272303	-0.127538
C68	C	0.608720	1.371928	-0.137521
C69	C	0.936292	1.213472	-0.391675
C70	C	0.952146	1.293131	-0.491303
C71	C	1.160877	0.527319	-0.105622
C72	C	1.227741	0.433719	-0.096263
C73	C	1.304160	0.398396	-0.040001
C74	C	1.313717	0.456684	0.006895
C75	C	1.246854	0.550287	-0.002471
C76	C	0.862539	0.638481	0.393427
C77	C	0.847640	0.563649	0.487046
C78	C	0.797212	0.514726	0.482292
C79	C	0.761676	0.540647	0.383911
C80	C	0.776571	0.615484	0.290294
C81	C	1.226722	0.615516	0.290254
C82	C	1.287811	0.540683	0.383853
C83	C	1.268294	0.514740	0.482245
C84	C	1.187683	0.563643	0.487035
C85	C	1.126596	0.638481	0.393436
C86	C	0.552432	1.342022	-0.486501
C87	C	0.491346	1.416883	-0.580104
C88	C	0.510864	1.442831	-0.678496
C89	C	0.591475	1.393922	-0.683285
C90	C	0.652560	1.319068	-0.589685
C91	C	0.618278	1.430215	-0.090635
C92	C	0.551418	1.523835	-0.100020
C93	C	0.474999	1.559162	-0.156284
C94	C	0.465442	1.500870	-0.203176
C95	C	0.532303	1.407256	-0.193797
C96	C	1.002578	1.342031	-0.486515
C97	C	1.017491	1.416868	-0.580118
C98	C	0.981966	1.442809	-0.678508
C99	C	0.931532	1.393899	-0.683293
C100	C	0.916625	1.319058	-0.589691
H101	H	0.972290	0.400792	-0.183323
H102	H	0.837007	1.149165	-0.761295
C103	C	0.741221	1.265263	-0.594971
N104	N	0.808001	1.224738	-0.598961
C105	C	0.824506	0.388299	-0.031091
N106	N	0.779269	0.358941	0.015507
C107	C	0.930936	0.844704	-0.621555
N108	N	0.959686	0.751509	-0.604315
C109	C	0.561947	1.587933	-0.048421
N110	N	0.569879	1.636206	-0.009553
H111	H	1.060966	0.678282	0.397353
H112	H	0.747637	0.636571	0.210201
H113	H	0.806871	0.556723	-0.012919
H114	H	1.242629	0.636625	0.210147
H115	H	1.058556	1.456685	-0.576201
C116	C	1.335500	0.432405	0.585199
N117	N	1.386123	0.370385	0.662742
H118	H	0.875556	1.279250	-0.593605
H119	H	0.785090	0.453790	0.558529
C120	C	1.257379	0.614376	0.049136
N121	N	1.265311	0.662642	0.088010
H122	H	1.031509	1.320924	-0.406410
H123	H	0.858144	1.080658	-0.568729
C124	C	0.443658	1.525165	-0.781450
N125	N	0.393034	1.587175	-0.858991
C126	C	0.530944	1.313503	-0.378280
N127	N	0.514753	1.292035	-0.296770
H128	H	0.607357	1.415059	-0.763408
C129	C	0.401457	1.662137	-0.166586
N130	N	0.346068	1.739696	-0.174338
H131	H	0.425714	1.456694	-0.576184
C132	C	0.706210	0.486814	0.378700
N133	N	0.664438	0.446258	0.374780
C134	C	1.166226	0.535084	0.595278
N135	N	1.150066	0.513564	0.676811
C136	C	0.998372	1.525141	-0.781464
N137	N	1.010730	1.587157	-0.859007
C138	C	0.381371	1.539729	-0.265047
N139	N	0.318045	1.568993	-0.311638
C140	C	0.892493	1.422401	-0.791529
N141	N	0.863098	1.443859	-0.873053
H142	H	0.942149	0.808368	-0.434961
C143	C	0.954624	0.569248	-0.165169
N144	N	0.999842	0.598629	-0.211795
H145	H	1.098660	0.556075	-0.151448
H146	H	0.680496	1.401462	-0.044812
H147	H	1.219944	0.386271	-0.134453
C148	C	0.886747	0.535139	0.595255
N149	N	0.916205	0.513664	0.676756
H150	H	1.358597	0.322175	-0.032382
H151	H	0.903601	0.678309	0.397318
C152	C	1.397784	0.417806	0.068789
N153	N	1.461105	0.388514	0.115415
H154	H	1.353444	0.500872	0.379935
H155	H	0.524508	1.359801	-0.231975
