data_functionalizedCrystal
_audit_creation_method	'MofGen! by Chris Wilmer'
_symmetry_space_group_name_H-M	'P1'
_symmetry_Int_Tables_number	1
_symmetry_cell_setting	triclinic
loop_
_symmetry_equiv_pos_as_xyz
  x,y,z
_cell_length_a	19.805407
_cell_length_b	12.594516
_cell_length_c	19.805384
_cell_angle_alpha	89.908134
_cell_angle_beta	89.931692
_cell_angle_gamma	90.016053
loop_
_atom_site_label
_atom_site_type_symbol
_atom_site_fract_x
_atom_site_fract_y
_atom_site_fract_z
Zn1	Zn	1.035110	-0.423020	-0.382753
Zn2	Zn	1.034949	-0.601234	-0.269577
Zn3	Zn	0.921828	-0.423270	-0.269577
Zn4	Zn	0.921909	-0.600957	-0.382724
O5	O	0.978449	-0.512120	-0.326158
O6	O	1.129805	-0.446672	-0.367752
O7	O	1.019842	-0.577848	-0.174861
O8	O	0.936889	-0.274291	-0.284601
O9	O	1.129687	-0.577605	-0.284602
O10	O	1.020117	-0.274107	-0.367751
O11	O	0.936733	-0.447098	-0.174860
O12	O	0.827123	-0.446829	-0.284574
O13	O	0.937026	-0.577132	-0.477445
O14	O	0.827181	-0.577375	-0.367703
O15	O	1.020195	-0.446403	-0.477466
O16	O	1.019920	-0.750143	-0.284575
O17	O	0.936870	-0.749940	-0.367704
C18	C	0.802593	-0.512100	-0.326136
C19	C	0.727361	-0.512117	-0.326143
C20	C	0.692065	-0.580195	-0.369358
C21	C	0.621377	-0.580197	-0.369367
C22	C	0.585985	-0.512125	-0.326158
C23	C	0.621286	-0.444040	-0.282941
C24	C	0.691973	-0.444034	-0.282935
C25	C	0.336213	-0.444063	-0.282963
C26	C	0.265521	-0.444077	-0.282971
C27	C	0.265616	-0.580226	-0.369395
C28	C	0.336304	-0.580220	-0.369390
C29	C	0.371598	-0.512131	-0.326176
C30	C	0.448247	-0.512129	-0.326167
C31	C	0.509338	-0.512132	-0.326163
C32	C	0.978405	-0.788661	-0.326151
C33	C	0.978448	-0.906967	-0.326171
C34	C	0.933272	-0.976148	-0.371353
C35	C	0.916731	-1.047124	-0.309591
C36	C	0.995051	-1.046789	-0.387944
C37	C	0.961874	-0.976385	-0.264376
C38	C	1.040222	-0.976043	-0.342771
C39	C	1.023704	-1.046988	-0.280966
C40	C	1.154992	-0.512142	-0.326180
C41	C	1.230224	-0.512151	-0.326190
C42	C	0.978637	-0.511709	-0.502701
C43	C	0.978717	-0.511534	-0.577933
C44	C	0.978512	-0.234499	-0.326179
C45	C	0.978539	-0.116194	-0.326188
C46	C	0.978301	-0.512453	-0.150301
C47	C	0.978351	-0.512329	-0.075070
C48	C	0.934793	-0.444697	-0.039757
C49	C	0.934847	-0.444579	0.030931
C50	C	0.978456	-0.512100	0.066306
C51	C	1.022020	-0.579735	0.030988
C52	C	1.021969	-0.579846	-0.039699
C53	C	1.022227	-0.579286	0.316061
C54	C	1.022273	-0.579172	0.386753
C55	C	0.935105	-0.444019	0.386691
C56	C	0.935054	-0.444131	0.316004
C57	C	0.978620	-0.511761	0.280693
C58	C	0.978562	-0.511886	0.204044
C59	C	0.978512	-0.511981	0.142953
H60	H	0.364941	-0.388630	-0.247770
C61	C	1.074783	-1.088275	-0.230082
C62	C	1.123507	-1.149245	-0.263536
C63	C	1.170571	-1.187288	-0.216683
H64	H	1.052396	-1.130935	-0.197400
H65	H	1.096056	-1.030056	-0.208296
H66	H	1.102236	-1.207456	-0.285311
H67	H	1.145911	-1.106607	-0.296214
H68	H	1.191844	-1.129069	-0.194897
H69	H	1.148178	-1.229944	-0.184004
H70	H	1.203639	-1.228652	-0.239375
C71	C	0.227333	-0.654320	-0.416241
C72	C	0.244479	-0.759629	-0.401378
C73	C	0.209222	-0.827912	-0.444511
H74	H	0.238954	-0.638886	-0.461757
H75	H	0.180158	-0.644648	-0.410057
H76	H	0.291643	-0.769295	-0.407568
H77	H	0.232856	-0.775096	-0.355870
H78	H	0.162048	-0.818240	-0.438326
H79	H	0.220846	-0.812468	-0.490023
H80	H	0.220846	-0.899371	-0.434427
H81	H	0.365116	-0.635654	-0.404573
C82	C	0.943134	-0.935534	-0.194653
C83	C	0.931573	-1.021672	-0.151378
C84	C	0.914316	-0.984079	-0.087144
H85	H	0.903380	-0.893623	-0.197640
H86	H	0.979035	-0.893526	-0.177443
H87	H	0.895675	-1.063663	-0.168584
H88	H	0.971319	-1.063592	-0.148371
H89	H	0.950216	-0.942071	-0.069934
H90	H	0.874563	-0.942167	-0.090138
H91	H	0.906475	-1.042517	-0.057773
H92	H	0.592642	-0.635633	-0.404557
C93	C	0.227186	-0.370222	-0.235944
C94	C	0.244310	-0.393364	-0.168951
C95	C	0.209018	-0.325347	-0.125612
H96	H	0.180021	-0.379910	-0.242040
H97	H	0.238806	-0.298690	-0.245888
H98	H	0.232685	-0.464880	-0.159010
H99	H	0.291469	-0.383670	-0.162833
H100	H	0.220638	-0.253815	-0.135557
H101	H	0.161855	-0.335041	-0.131714
H102	H	0.220637	-0.341033	-0.080153
C103	C	1.069287	-0.653394	-0.077919
C104	C	1.107478	-0.712523	-0.031812
C105	C	1.151072	-0.780293	-0.066994
H106	H	1.098639	-0.612505	-0.105619
H107	H	1.043596	-0.700162	-0.105354
H108	H	1.133167	-0.665760	-0.004388
H109	H	1.078144	-0.753433	-0.004110
H110	H	1.125381	-0.827062	-0.094429
H111	H	1.180419	-0.739396	-0.094693
H112	H	1.176985	-0.820427	-0.035716
H113	H	1.009057	-1.077719	-0.440177
C114	C	0.887417	-0.371271	-0.078039
C115	C	0.849295	-0.311996	-0.031980
C116	C	0.805653	-0.244331	-0.067218
H117	H	0.858024	-0.412243	-0.105492
H118	H	0.913070	-0.324589	-0.105726
H119	H	0.823645	-0.358672	-0.004305
H120	H	0.878670	-0.271003	-0.004525
H121	H	0.831305	-0.197650	-0.094905
H122	H	0.776264	-0.285311	-0.094670
H123	H	0.779786	-0.204098	-0.035972
C124	C	0.887623	-0.371196	0.069392
C125	C	0.897012	-0.385525	0.138868
C126	C	0.853526	-0.317931	0.174319
H127	H	0.842180	-0.387247	0.058003
H128	H	0.897207	-0.299565	0.057709
H129	H	0.887424	-0.457140	0.150547
H130	H	0.942446	-0.369466	0.150278
H131	H	0.863110	-0.246299	0.162636
H132	H	0.808086	-0.333988	0.162924
H133	H	0.859895	-0.327636	0.221462
C134	C	0.730365	-0.654142	-0.416347
C135	C	0.684321	-0.713740	-0.454209
C136	C	0.719575	-0.781859	-0.497512
H137	H	0.757904	-0.700610	-0.390482
H138	H	0.757968	-0.613449	-0.445916
H139	H	0.656729	-0.754430	-0.424644
H140	H	0.656781	-0.667301	-0.480088
H141	H	0.747179	-0.741166	-0.527081
H142	H	0.747113	-0.828320	-0.471641
H143	H	0.688340	-0.822297	-0.523211
C144	C	0.582742	-0.370242	-0.236056
C145	C	0.513282	-0.384836	-0.245297
C146	C	0.477755	-0.316881	-0.202111
H147	H	0.594268	-0.298686	-0.245997
H148	H	0.594227	-0.385818	-0.190545
H149	H	0.501801	-0.369253	-0.290797
H150	H	0.501735	-0.456379	-0.235350
H151	H	0.489240	-0.332457	-0.156600
H152	H	0.489287	-0.245328	-0.212056
H153	H	0.430623	-0.326780	-0.208370
C154	C	0.730419	-0.370162	-0.236087
C155	C	0.799899	-0.384703	-0.245344
C156	C	0.835335	-0.316656	-0.202207
H157	H	0.718858	-0.385666	-0.190566
H158	H	0.718896	-0.298627	-0.246078
H159	H	0.811418	-0.456222	-0.235348
H160	H	0.811480	-0.369192	-0.290856
H161	H	0.823811	-0.245121	-0.212198
H162	H	0.823768	-0.332165	-0.156689
H163	H	0.882480	-0.326506	-0.208486
H164	H	0.895000	-0.945044	-0.409506
H165	H	0.864532	-1.078369	-0.295565
H166	H	1.092410	-0.944802	-0.356826
C167	C	0.887680	-0.370704	0.277720
C168	C	0.849557	-0.311426	0.323776
C169	C	0.805917	-0.243761	0.288534
H170	H	0.858288	-0.411676	0.250265
H171	H	0.913335	-0.324024	0.250034
H172	H	0.823904	-0.358100	0.351450
H173	H	0.878931	-0.270433	0.351232
H174	H	0.831572	-0.197081	0.260848
H175	H	0.776530	-0.284741	0.261081
H176	H	0.780050	-0.203526	0.319777
C177	C	0.887882	-0.370619	0.425152
C178	C	0.897271	-0.384945	0.494628
C179	C	0.853788	-0.317342	0.530078
H180	H	0.842439	-0.386665	0.413763
H181	H	0.897470	-0.298990	0.413467
H182	H	0.887679	-0.456558	0.506309
H183	H	0.942706	-0.368891	0.506038
H184	H	0.863376	-0.245713	0.518392
H185	H	0.808348	-0.333394	0.518683
H186	H	0.860157	-0.327046	0.577221
H187	H	1.057791	-0.634153	0.415553
C188	C	1.069546	-0.652836	0.277851
C189	C	1.107731	-0.711966	0.323963
C190	C	1.151323	-0.779746	0.288786
H191	H	1.098902	-0.611955	0.250150
H192	H	1.043854	-0.699605	0.250417
H193	H	1.133421	-0.665203	0.351385
H194	H	1.078394	-0.752869	0.351665
H195	H	1.125631	-0.826514	0.261352
H196	H	1.180674	-0.738856	0.261086
H197	H	1.177232	-0.819880	0.320067
H198	H	1.057531	-0.634707	0.059796
