data_functionalizedCrystal
_audit_creation_method	'MofGen! by Chris Wilmer'
_symmetry_space_group_name_H-M	'P1'
_symmetry_Int_Tables_number	1
_symmetry_cell_setting	triclinic
loop_
_symmetry_equiv_pos_as_xyz
  x,y,z
_cell_length_a	10.723024
_cell_length_b	13.101039
_cell_length_c	10.723024
_cell_angle_alpha	93.394799
_cell_angle_beta	84.467869
_cell_angle_gamma	86.609981
loop_
_atom_site_label
_atom_site_type_symbol
_atom_site_fract_x
_atom_site_fract_y
_atom_site_fract_z
O1	O	-1.663995	0.085222	-0.168198
O2	O	-1.300843	0.085222	-0.184951
O3	O	-1.490795	0.085216	0.005001
O4	O	-1.474043	0.085227	-0.358150
O5	O	-1.477166	-0.085213	-0.008650
O6	O	-1.287214	-0.085208	-0.198603
O7	O	-1.650366	-0.085208	-0.181849
Zn8	Zn	-1.466626	-0.112267	-0.192394
Zn9	Zn	-1.484583	0.112281	-0.174407
O10	O	-1.460414	-0.085202	-0.371802
C11	C	-1.247529	0.000007	-0.190558
C12	C	-1.108975	0.000007	-0.186910
N13	N	-1.454381	-0.265515	-0.204668
C14	C	-1.033992	0.000010	-0.293197
C15	C	-0.890789	0.000010	-0.289430
C16	C	-1.437720	-0.474557	-0.221380
C17	C	-1.513495	-0.525435	-0.145415
C18	C	-1.504225	-0.641753	-0.154714
C19	C	-1.446989	-0.358229	-0.212083
C20	C	-0.703680	0.000007	-0.176243
C21	C	-0.842235	0.000007	-0.179891
C22	C	-1.482762	0.000002	0.044675
C23	C	-1.479114	0.000005	0.183230
N24	N	-1.496838	0.265529	-0.162123
C25	C	-1.585402	0.000006	0.258212
C26	C	-1.581634	0.000008	0.401416
C27	C	-1.468447	0.000012	0.588524
C28	C	-1.472095	0.000009	0.449970
H29	H	-0.826357	0.000017	-0.380420
C30	C	-1.610550	-0.466271	-0.048129
C31	C	-1.619745	-0.348270	-0.038786
C32	C	-1.716799	-0.289100	0.058492
C33	C	-1.804658	-0.347931	0.146426
C34	C	-1.795466	-0.465938	0.137086
C35	C	-1.698412	-0.525108	0.039809
H36	H	-1.554704	-0.304714	-0.103883
H37	H	-1.723604	-0.201743	0.065405
H38	H	-1.876504	-0.304129	0.218436
H39	H	-1.860507	-0.509494	0.202183
H40	H	-1.691607	-0.612465	0.032895
H41	H	-0.906660	0.000011	-0.088895
H42	H	-1.365891	-0.518352	-0.293395
C43	C	-1.712107	0.000001	0.201725
C44	C	-1.798266	-0.088501	0.223890
C45	C	-1.924974	-0.088507	0.167405
C46	C	-1.965524	-0.000012	0.088755
C47	C	-1.879364	0.088496	0.066586
C48	C	-1.752655	0.088503	0.123071
H49	H	-1.768250	-0.154016	0.282115
H50	H	-1.988756	-0.154027	0.183817
H51	H	-2.059322	-0.000016	0.046942
H52	H	-1.909380	0.154012	0.008361
H53	H	-1.688874	0.154023	0.106659
C54	C	-1.090482	0.000021	-0.419901
C55	C	-1.169141	-0.088472	-0.460465
C56	C	-1.225630	-0.088458	-0.587172
C57	C	-1.203459	0.000050	-0.673314
C58	C	-1.124796	0.088550	-0.632751
C59	C	-1.068308	0.088535	-0.506045
H60	H	-1.185557	-0.153996	-0.396696
H61	H	-1.283862	-0.153971	-0.617198
H62	H	-1.245276	0.000061	-0.767109
H63	H	-1.108381	0.154074	-0.696520
H64	H	-1.010076	0.154049	-0.476018
H65	H	-1.067154	0.000030	-0.093122
H66	H	-1.672625	0.000004	0.465848
H67	H	-1.381099	0.000002	0.385544
H68	H	-1.385329	0.000011	0.225052
