data_functionalizedCrystal
_audit_creation_method	'MofGen! by Chris Wilmer'
_symmetry_space_group_name_H-M	'P1'
_symmetry_Int_Tables_number	1
_symmetry_cell_setting	triclinic
loop_
_symmetry_equiv_pos_as_xyz
  x,y,z
_cell_length_a	23.532407
_cell_length_b	23.532407
_cell_length_c	9.730223
_cell_angle_alpha	89.990960
_cell_angle_beta	90.002051
_cell_angle_gamma	82.848678
loop_
_atom_site_label
_atom_site_type_symbol
_atom_site_fract_x
_atom_site_fract_y
_atom_site_fract_z
O1	O	0.755259	0.069135	-0.114132
O2	O	0.589395	0.079138	-0.114175
O3	O	0.677328	-0.008795	-0.114127
O4	O	0.667325	0.157068	-0.114180
O5	O	0.677323	-0.008798	0.114453
O6	O	0.589390	0.079136	0.114405
O7	O	0.755253	0.069132	0.114448
Zn8	Zn	0.672320	0.074134	0.150719
Zn9	Zn	0.672328	0.074137	-0.150445
O10	O	0.667320	0.157066	0.114400
C11	C	0.568176	0.078882	0.000110
C12	C	0.504959	0.078116	0.000095
C13	C	0.105856	0.125350	0.000143
C14	C	0.046456	0.124638	0.000151
O15	O	0.009711	0.168424	0.000187
N16	N	0.023830	0.072362	0.000166
C17	C	0.060607	0.020794	0.000185
O18	O	0.035908	-0.023737	0.000200
C19	C	0.120006	0.021506	0.000187
C20	C	0.142629	0.073785	0.000158
C21	C	0.128479	0.177625	0.000116
C22	C	0.187876	0.178336	0.000105
C23	C	0.224649	0.126772	0.000120
C24	C	0.202025	0.074496	0.000147
C25	C	0.156783	-0.030062	0.000216
C26	C	0.216185	-0.029345	0.000218
C27	C	0.238808	0.022934	0.000190
C28	C	0.298194	0.023643	0.000151
N29	N	0.320820	0.075920	0.000137
C30	C	0.284048	0.127484	0.000121
C31	C	-0.064135	0.019302	0.000185
C32	C	-0.123533	0.018589	0.000174
C33	C	-0.137680	0.122434	0.000143
C34	C	-0.078281	0.123146	0.000144
C35	C	-0.041509	0.071578	0.000171
C36	C	0.408784	0.128974	0.000097
C37	C	0.468186	0.129680	0.000080
C38	C	0.482329	0.025836	0.000119
C39	C	0.422932	0.025129	0.000128
C40	C	0.386160	0.076702	0.000122
O41	O	0.334974	-0.020119	0.000121
O42	O	0.308755	0.172007	0.000125
C43	C	0.677071	-0.030013	0.000167
C44	C	0.676305	-0.093230	0.000177
C45	C	0.723539	-0.492333	0.000114
C46	C	0.722827	-0.551733	0.000103
O47	O	0.766613	-0.588478	0.000063
N48	N	0.670551	-0.574359	0.000091
C49	C	0.618983	-0.537582	0.000075
O50	O	0.574452	-0.562281	0.000062
C51	C	0.619695	-0.478182	0.000076
C52	C	0.671974	-0.455560	0.000102
C53	C	0.775814	-0.469710	0.000138
C54	C	0.776525	-0.410313	0.000152
C55	C	0.724961	-0.373540	0.000140
C56	C	0.672685	-0.396164	0.000115
C57	C	0.568127	-0.441406	0.000050
C58	C	0.568844	-0.382004	0.000050
C59	C	0.621123	-0.359381	0.000076
C60	C	0.621832	-0.299995	0.000117
N61	N	0.674109	-0.277368	0.000129
C62	C	0.725673	-0.314141	0.000141
C63	C	0.617491	-0.662324	0.000071
C64	C	0.616778	-0.721722	0.000080
C65	C	0.720623	-0.735869	0.000105
C66	C	0.721335	-0.676470	0.000106
C67	C	0.669767	-0.639698	0.000083
C68	C	0.727163	-0.189405	0.000170
C69	C	0.727869	-0.130003	0.000188
C70	C	0.624025	-0.115860	0.000156
C71	C	0.623318	-0.175257	0.000144
C72	C	0.674891	-0.212029	0.000146
O73	O	0.578070	-0.263215	0.000151
O74	O	0.770196	-0.289433	0.000135
C75	C	0.776472	0.069388	0.000160
C76	C	0.839689	0.070154	0.000166
C77	C	0.667577	0.178283	0.000104
C78	C	0.668343	0.241500	0.000084
N79	N	0.672320	0.074131	0.356255
N80	N	0.672333	0.074135	-0.355982
C81	C	0.711269	0.035210	0.428202
C82	C	0.711275	0.035210	0.572085
C83	C	0.633379	0.113057	0.572061
C84	C	0.633371	0.113054	0.428181
H85	H	0.486602	0.172255	0.000056
H86	H	0.601651	0.144748	0.369598
O87	O	0.749089	-0.002674	0.641822
C88	C	0.783011	-0.101872	0.685944
C89	C	0.740163	-0.059028	0.606859
H90	H	0.775801	-0.147444	0.657728
H91	H	0.828592	-0.094726	0.657615
H92	H	0.776335	-0.095158	0.801128
H93	H	0.746787	-0.065716	0.491657
H94	H	0.694598	-0.066185	0.635302
H95	H	0.762610	-0.765821	0.000110
O96	O	-0.173351	0.172562	0.000321
C97	C	-0.203653	0.261077	0.118769
C98	C	-0.163214	0.204340	0.118723
H99	H	-0.195480	0.286780	0.214501
H100	H	-0.195466	0.286866	0.023167
H101	H	-0.249987	0.251568	0.118712
H102	H	-0.116866	0.213797	0.118829
H103	H	-0.171450	0.178568	0.214317
O104	O	0.777223	-0.225176	0.000361
C105	C	0.836709	-0.300428	0.118842
C106	C	0.779990	-0.259959	0.118768
H107	H	0.838969	-0.328552	0.214577
H108	H	0.838990	-0.328623	0.023244
H109	H	0.874179	-0.274034	0.118797
H110	H	0.742487	-0.286308	0.118861
H111	H	0.777758	-0.231763	0.214358
H112	H	-0.141947	-0.023982	0.000176
H113	H	0.601669	0.144748	0.630638
H114	H	0.574207	-0.740136	0.000082
H115	H	0.378851	0.170970	0.000096
O116	O	0.827295	-0.388313	0.000401
C117	C	0.888363	-0.329451	0.118775
C118	C	0.830849	-0.354334	0.118689
H119	H	0.891250	-0.301964	0.214386
H120	H	0.925114	-0.365921	0.118863
H121	H	0.891285	-0.302015	0.023069
H122	H	0.827871	-0.381763	0.214378
H123	H	0.794126	-0.317837	0.118529
O124	O	0.209752	0.229171	0.000155
C125	C	0.189428	0.332094	0.000061
C126	C	0.164583	0.274561	0.000028
H127	H	0.152922	0.368807	-0.000070
H128	H	0.216863	0.335063	0.095745
H129	H	0.216902	0.335002	-0.095576
H130	H	0.137085	0.271615	0.095600
H131	H	0.137182	0.271617	-0.095719
O132	O	0.825856	-0.505507	0.000090
C133	C	0.870803	-0.603278	0.000198
C134	C	0.814085	-0.562809	0.000209
H135	H	0.861306	-0.649615	0.000323
H136	H	0.896557	-0.595121	-0.095474
H137	H	0.896540	-0.595053	0.095847
H138	H	0.788302	-0.571010	-0.095375
H139	H	0.788374	-0.570974	0.095944
H140	H	0.575496	-0.632386	0.000064
O141	O	-0.028440	-0.030810	-0.000055
C142	C	0.001788	-0.119361	-0.118422
C143	C	-0.038655	-0.062626	-0.118339
H144	H	-0.006465	-0.145105	-0.214030
H145	H	0.048142	-0.109914	-0.118515
H146	H	-0.006399	-0.145083	-0.022714
H147	H	-0.030519	-0.036875	-0.214031
H148	H	-0.084996	-0.072112	-0.118174
O149	O	0.092706	0.227682	-0.000091
C150	C	0.017470	0.287173	-0.118607
C151	C	0.057935	0.230452	-0.118510
H152	H	-0.010644	0.289436	-0.214352
H153	H	-0.010735	0.289455	-0.023019
H154	H	0.043866	0.324641	-0.118560
H155	H	0.031585	0.192951	-0.118606
H156	H	0.086142	0.228219	-0.214090
H157	H	-0.059867	0.165717	0.000129
H158	H	0.525555	-0.459814	0.000020
O159	O	0.134912	-0.080897	0.000317
C160	C	0.155239	-0.183820	0.000313
C161	C	0.180082	-0.126286	0.000224
H162	H	0.191747	-0.220532	0.000208
H163	H	0.127810	-0.186788	0.096005
H164	H	0.127760	-0.186731	-0.095316
H165	H	0.207586	-0.123337	0.095788
H166	H	0.207478	-0.123342	-0.095531
O167	O	0.251986	-0.079388	0.000299
C168	C	0.349763	-0.124322	0.000219
C169	C	0.309286	-0.067609	0.000164
H170	H	0.396097	-0.114819	0.000080
H171	H	0.341618	-0.150072	0.095914
H172	H	0.341532	-0.150066	-0.095407
H173	H	0.317492	-0.041819	0.095725
H174	H	0.317438	-0.041902	-0.095594
O175	O	0.518033	-0.024266	-0.000110
C176	C	0.548291	-0.112818	-0.118442
C177	C	0.507830	-0.056094	-0.118382
H178	H	0.540047	-0.138573	-0.214040
H179	H	0.594640	-0.103356	-0.118537
H180	H	0.540111	-0.138538	-0.022724
H181	H	0.515958	-0.030347	-0.214084
H182	H	0.461494	-0.065597	-0.118215
O183	O	0.518696	-0.346365	0.000089
C184	C	0.415622	-0.338607	-0.000044
C185	C	0.472370	-0.379031	-0.000058
H186	H	0.378152	-0.365001	-0.000192
H187	H	0.413312	-0.310462	0.095642
H188	H	0.413394	-0.310425	-0.095679
H189	H	0.474636	-0.407249	0.095512
H190	H	0.474657	-0.407136	-0.095807
O191	O	0.778707	-0.108123	0.000147
C192	C	0.881630	-0.128435	0.000251
C193	C	0.824101	-0.153287	0.000269
H194	H	0.918347	-0.164938	0.000379
H195	H	0.884602	-0.100992	-0.095426
H196	H	0.884529	-0.100969	0.095895
H197	H	0.821164	-0.180778	-0.095310
H198	H	0.821154	-0.180698	0.096009
O199	O	0.572571	-0.197306	-0.000052
C200	C	0.511491	-0.256114	-0.118562
C201	C	0.568987	-0.231197	-0.118478
H202	H	0.508569	-0.283510	-0.214314
H203	H	0.508550	-0.283619	-0.022980
H204	H	0.474767	-0.219617	-0.118495
H205	H	0.605743	-0.267657	-0.118594
H206	H	0.571877	-0.203677	-0.214052
O207	O	0.573922	-0.080158	0.000380
C208	C	0.485360	-0.049910	0.118697
C209	C	0.542086	-0.090367	0.118648
H210	H	0.459599	-0.058158	0.214293
H211	H	0.494819	-0.003560	0.118790
H212	H	0.459648	-0.058089	0.022976
H213	H	0.567826	-0.082239	0.214353
H214	H	0.532587	-0.136704	0.118484
H215	H	0.742983	0.003516	0.369643
H216	H	0.404512	-0.017441	0.000131
H217	H	0.763906	-0.658056	0.000126
