data_functionalizedCrystal
_audit_creation_method	'MofGen! by Chris Wilmer'
_symmetry_space_group_name_H-M	'P1'
_symmetry_Int_Tables_number	1
_symmetry_cell_setting	triclinic
loop_
_symmetry_equiv_pos_as_xyz
  x,y,z
_cell_length_a	31.640172
_cell_length_b	27.440280
_cell_length_c	27.440280
_cell_angle_alpha	59.992170
_cell_angle_beta	89.999603
_cell_angle_gamma	59.994340
loop_
_atom_site_label
_atom_site_type_symbol
_atom_site_fract_x
_atom_site_fract_y
_atom_site_fract_z
Zr1	Zr	0.407152	0.533438	-0.064061
O2	O	0.339651	0.635133	-0.141892
O3	O	0.427847	0.431754	-0.040190
O4	O	0.427832	0.533444	-0.141880
O5	O	0.339676	0.533436	0.040000
O6	O	0.497388	0.533435	-0.141883
O7	O	0.339666	0.533444	-0.040202
O8	O	0.497416	0.351532	0.040022
O9	O	0.339648	0.715339	-0.141905
O10	O	0.488580	0.473568	-0.030025
O11	O	0.436678	0.473568	0.029831
O12	O	0.436660	0.593294	-0.089896
O13	O	0.384758	0.593294	-0.030040
Zr14	Zr	0.518101	0.533412	0.063847
Zr15	Zr	0.518086	0.533425	-0.064066
Zr16	Zr	0.407167	0.533425	0.063853
Zr17	Zr	0.407148	0.661357	-0.064081
Zr18	Zr	0.518106	0.405493	0.063868
O19	O	0.497406	0.635096	0.039977
O20	O	0.497385	0.635114	-0.141899
O21	O	0.339672	0.635114	0.039984
O22	O	0.585603	0.431717	0.141679
O23	O	0.585581	0.431736	-0.040197
O24	O	0.427869	0.431736	0.141686
O25	O	0.585578	0.533415	-0.040213
O26	O	0.497422	0.533407	0.141667
O27	O	0.427865	0.533415	0.141670
O28	O	0.585587	0.533406	0.039989
O29	O	0.427826	0.715328	-0.141909
O30	O	0.497427	0.351522	0.141696
O31	O	0.585605	0.351511	0.141692
O32	O	0.585593	0.351522	0.040018
O33	O	0.339660	0.715329	-0.040231
O34	O	0.427838	0.715318	-0.040235
O35	O	0.488594	0.473556	0.089683
O36	O	0.540496	0.473556	0.029826
O37	O	0.488576	0.593282	-0.030044
O38	O	0.436674	0.593282	0.029812
C39	C	0.462632	0.373418	-0.000081
C40	C	0.462634	0.319112	-0.000072
C41	C	0.424300	0.026623	-0.044313
C42	C	0.424300	-0.024394	-0.044319
O43	O	0.391716	-0.013194	-0.081915
N44	N	0.462625	-0.094107	-0.000130
C45	C	0.500956	-0.112803	0.044065
O46	O	0.533555	-0.176784	0.081651
C47	C	0.500958	-0.061787	0.044068
C48	C	0.462627	0.007927	-0.000121
C49	C	0.385973	0.096333	-0.088499
C50	C	0.385973	0.147346	-0.088492
C51	C	0.424300	0.128650	-0.044299
C52	C	0.462627	0.058940	-0.000114
C53	C	0.539291	-0.080483	0.088260
C54	C	0.539290	-0.029459	0.088259
C55	C	0.500959	0.040254	0.044071
C56	C	0.500954	0.091257	0.044086
N57	N	0.462629	0.160970	-0.000103
C58	C	0.424302	0.179666	-0.044296
C59	C	0.500949	-0.219938	0.044054
C60	C	0.500946	-0.270955	0.044054
C61	C	0.424290	-0.182542	-0.044331
C62	C	0.424292	-0.131525	-0.044328
C63	C	0.462624	-0.150225	-0.000135
C64	C	0.424305	0.286795	-0.044277
C65	C	0.424307	0.337809	-0.044265
C66	C	0.500964	0.249392	0.044118
C67	C	0.500960	0.198382	0.044108
C68	C	0.462628	0.217089	-0.000095
O69	O	0.533523	0.080109	0.081661
O70	O	0.391713	0.243647	-0.081880
C71	C	0.323865	0.533442	-0.000100
C72	C	0.276771	0.533447	-0.000098
C73	C	-0.015240	0.533417	-0.044289
C74	C	-0.192226	0.533408	-0.044294
O75	O	-0.215103	0.533382	-0.081856
N76	N	-0.214352	0.533405	-0.000110
C77	C	-0.192226	0.533400	0.044079
O78	O	-0.215103	0.533390	0.081664
C79	C	-0.015238	0.533404	0.044086
C80	C	0.006882	0.533414	-0.000104
C81	C	0.006881	0.533426	-0.088475
C82	C	0.051123	0.533432	-0.088476
C83	C	0.073245	0.533429	-0.044290
C84	C	0.051124	0.533420	-0.000104
C85	C	0.006889	0.533393	0.088278
C86	C	0.051139	0.533393	0.088276
C87	C	0.073259	0.533403	0.044086
C88	C	0.117488	0.533422	0.044081
N89	N	0.139614	0.533425	-0.000103
C90	C	0.117492	0.533429	-0.044288
C91	C	-0.285148	0.533399	0.044072
C92	C	-0.329395	0.533400	0.044070
C93	C	-0.329392	0.533407	-0.044303
C94	C	-0.285146	0.533412	-0.044302
C95	C	-0.263022	0.533402	-0.000111
C96	C	0.210404	0.533442	-0.044286
C97	C	0.254649	0.533450	-0.044283
C98	C	0.254643	0.533440	0.044091
C99	C	0.210401	0.533435	0.044087
C100	C	0.188283	0.533433	-0.000104
O101	O	0.140396	0.533441	0.081627
O102	O	0.140383	0.533423	-0.081859
C103	C	-0.059482	0.533411	-0.044289
C104	C	-0.081603	0.533402	-0.000103
C105	C	-0.059481	0.533399	0.044082
C106	C	-0.125850	0.533402	-0.000105
C107	C	-0.147972	0.533406	-0.044291
C108	C	-0.125846	0.533409	-0.088474
C109	C	-0.081604	0.533415	-0.088475
C110	C	-0.081607	0.533396	0.088266
C111	C	-0.125849	0.533390	0.088262
C112	C	-0.147971	0.533394	0.044076
C113	C	0.601389	0.533409	-0.000113
C114	C	0.648483	0.533403	-0.000115
C115	C	0.462608	0.533441	-0.160106
C116	C	0.462602	0.533447	-0.214409
C117	C	0.462622	0.693433	-0.000132
C118	C	0.462620	0.747738	-0.000141
C119	C	0.500960	0.533405	-0.551108
C120	C	0.500965	0.533400	-0.602126
O121	O	0.533565	0.533370	-0.628502
N122	N	0.462645	0.533406	-0.627642
C123	C	0.424321	0.533410	-0.602134
O124	O	0.391728	0.533413	-0.628521
C125	C	0.424319	0.533410	-0.551114
C126	C	0.462639	0.533411	-0.525605
C127	C	0.539276	0.533406	-0.525598
C128	C	0.539271	0.533412	-0.474584
C129	C	0.500949	0.533418	-0.449081
C130	C	0.462633	0.533417	-0.474591
C131	C	0.385998	0.533409	-0.525605
C132	C	0.386000	0.533408	-0.474582
C133	C	0.424319	0.533409	-0.449072
C134	C	0.424306	0.533429	-0.398074
N135	N	0.462626	0.533424	-0.372558
C136	C	0.500947	0.533418	-0.398061
C137	C	0.424329	0.533408	-0.709277
C138	C	0.424329	0.533413	-0.760298
C139	C	0.500972	0.533402	-0.760286
C140	C	0.500970	0.533402	-0.709267
C141	C	0.462649	0.533402	-0.683761
C142	C	0.500933	0.533432	-0.290929
C143	C	0.500923	0.533441	-0.239912
C144	C	0.424281	0.533448	-0.239927
C145	C	0.424289	0.533442	-0.290941
C146	C	0.462620	0.533432	-0.316440
O147	O	0.391724	0.533456	-0.371664
O148	O	0.533539	0.533405	-0.371663
C149	C	0.462646	0.533409	0.159893
C150	C	0.462652	0.533404	0.214196
C151	C	0.601394	0.373401	-0.000087
C152	C	0.648490	0.319090	-0.000081
C153	C	0.462651	0.373401	0.159919
C154	C	0.462659	0.319091	0.214230
C155	C	0.601413	0.373385	0.159912
C156	C	0.648515	0.319069	0.214221
C157	C	0.323841	0.693465	-0.160126
C158	C	0.276739	0.747781	-0.214435
C159	C	0.323860	0.693449	-0.000126
C160	C	0.276764	0.747760	-0.000132
C161	C	0.462603	0.693449	-0.160132
C162	C	0.462595	0.747759	-0.214443
C163	C	0.643507	0.293592	-0.031325
C164	C	0.687755	0.242568	-0.031331
C165	C	0.736985	0.217041	-0.000089
C166	C	0.741967	0.242544	0.031156
C167	C	0.697719	0.293570	0.031158
C168	C	0.489762	0.293580	0.270982
C169	C	0.489768	0.242556	0.322018
C170	C	0.462673	0.217042	0.316301
C171	C	0.435566	0.242558	0.259542
C172	C	0.435558	0.293584	0.208508
C173	C	0.697732	0.293561	0.208481
C174	C	0.741994	0.242533	0.259505
C175	C	0.737038	0.217009	0.316269
C176	C	0.687816	0.242521	0.322008
C177	C	0.643555	0.293553	0.270985
C178	C	0.227522	0.773295	-0.208694
C179	C	0.183260	0.824340	-0.259718
C180	C	0.188215	0.849866	-0.316482
C181	C	0.237437	0.824350	-0.322221
C182	C	0.281698	0.773310	-0.271198
C183	C	0.281746	0.773264	0.031107
C184	C	0.237499	0.824301	0.031098
C185	C	0.188269	0.849831	-0.000146
C186	C	0.183287	0.824325	-0.031388
C187	C	0.227534	0.773292	-0.031383
C188	C	0.489695	0.773258	-0.208706
C189	C	0.489698	0.824282	-0.259733
C190	C	0.462596	0.849809	-0.316495
C191	C	0.435495	0.824306	-0.322231
C192	C	0.435496	0.773279	-0.271205
H193	H	0.393092	0.302036	-0.080272
C194	C	0.242990	0.852343	0.065475
N195	N	0.247128	0.873461	0.091368
H196	H	0.511766	0.845041	-0.255051
H197	H	0.683689	0.221810	-0.056774
C198	C	-0.353726	0.533396	0.092679
N199	N	-0.372048	0.533389	0.129295
C200	C	0.222044	0.745235	-0.065743
N201	N	0.217906	0.724104	-0.091623
C202	C	0.139600	0.905966	-0.000142
N203	N	0.102945	0.948245	-0.000135
H204	H	0.511764	0.752481	-0.162492
H205	H	0.701784	0.314325	0.056605
C206	C	0.382171	0.533419	-0.788357
N207	N	0.350419	0.533418	-0.809486
C208	C	0.519595	0.214491	0.384447
N209	N	0.542062	0.193353	0.431466
H210	H	-0.143867	0.533415	-0.124454
H211	H	0.462684	0.175493	0.357861
H212	H	0.152171	0.891426	-0.358024
C213	C	0.589358	0.321666	-0.065700
N214	N	0.548574	0.342813	-0.091597
H215	H	0.413506	0.221776	0.254896
H216	H	0.223477	0.752514	-0.162479
H217	H	0.701777	0.314335	0.162265
C218	C	0.785653	0.160906	-0.000092
N219	N	0.822309	0.118622	-0.000095
H220	H	-0.063597	0.533423	-0.124458
C221	C	-0.353732	0.533405	-0.092904
N222	N	-0.372064	0.533398	-0.129506
C223	C	0.343811	0.224028	-0.137109
N224	N	0.312054	0.281785	-0.173733
C225	C	0.129120	0.852396	-0.253392
N226	N	0.088344	0.873527	-0.248625
C227	C	0.405707	0.852369	-0.384675
N228	N	0.383277	0.873502	-0.431710
H229	H	0.511827	0.314348	0.275649
C230	C	0.343802	0.116915	-0.137113
N231	N	0.312031	0.132424	-0.173728
H232	H	0.413489	0.314348	0.162299
H233	H	0.069132	0.533438	-0.124457
H234	H	0.782069	0.221766	0.254822
H235	H	0.773083	0.175456	0.357811
C236	C	0.682373	0.214432	0.384454
N237	N	0.678275	0.193270	0.431490
H238	H	0.462600	0.891359	-0.358038
C239	C	0.405674	0.745246	-0.277526
N240	N	0.383208	0.724135	-0.282291
C241	C	0.075472	0.533384	0.136891
N242	N	0.093798	0.533379	0.173507
H243	H	0.143198	0.845119	-0.056826
H244	H	0.272657	0.533460	-0.080270
C245	C	0.796125	0.214451	0.065525
N246	N	0.836918	0.193286	0.091416
C247	C	0.382131	0.533451	-0.211862
N248	N	0.350386	0.533447	-0.190719
C249	C	0.589417	0.321604	0.277309
N250	N	0.548642	0.342731	0.282077
H251	H	0.241466	0.845140	-0.368445
C252	C	0.335895	0.745194	0.065477
N253	N	0.376679	0.724059	0.091363
H254	H	0.321772	0.752537	-0.275879
C255	C	-0.150176	0.533379	0.136878
N256	N	-0.168495	0.533363	0.173498
C257	C	-0.017444	0.533425	-0.137085
N258	N	-0.035764	0.533426	-0.173702
H259	H	0.532167	0.141617	0.080095
H260	H	0.393077	-0.074764	-0.080307
C261	C	0.382140	0.414496	-0.092880
N262	N	0.350382	0.472254	-0.129497
C263	C	-0.260812	0.533376	0.092697
N264	N	-0.242482	0.533354	0.129323
H265	H	0.393084	-0.167326	-0.080317
H266	H	0.532154	-0.327715	0.080042
H267	H	0.570504	-0.137240	0.124243
C268	C	0.543116	-0.240520	0.092679
N269	N	0.574875	-0.256025	0.129303
H270	H	0.570505	-0.044694	0.124247
H271	H	0.393119	0.533414	-0.688516
H272	H	-0.063598	0.533392	0.124247
H273	H	0.532168	0.234179	0.080100
C274	C	0.343837	0.533419	-0.446534
N275	N	0.312078	0.533432	-0.425413
C276	C	-0.260815	0.533416	-0.092911
N277	N	-0.242490	0.533416	-0.129523
C278	C	-0.017430	0.533375	0.136895
N279	N	-0.035746	0.533358	0.173517
C280	C	0.186065	0.533429	0.092695
N281	N	0.167742	0.533418	0.129311
C282	C	0.278987	0.533432	0.092695
N283	N	0.297327	0.533420	0.129306
C284	C	0.543081	0.533439	-0.211853
N285	N	0.574834	0.533434	-0.190719
C286	C	0.186080	0.533444	-0.092900
N287	N	0.167757	0.533450	-0.129518
H288	H	0.570475	0.533410	-0.453815
C289	C	0.581440	0.533391	-0.553640
N290	N	0.613200	0.533383	-0.574758
C291	C	0.543127	0.533397	-0.681207
N292	N	0.574882	0.533390	-0.660074
C293	C	0.543130	0.533389	-0.788346
N294	N	0.574882	0.533378	-0.809482
C295	C	0.543098	0.533423	-0.318971
N296	N	0.574854	0.533421	-0.340095
H297	H	0.354796	0.533407	-0.546368
H298	H	0.393082	0.533451	-0.311717
