data_functionalizedCrystal
_audit_creation_method	'MofGen! by Chris Wilmer'
_symmetry_space_group_name_H-M	'P1'
_symmetry_Int_Tables_number	1
_symmetry_cell_setting	triclinic
loop_
_symmetry_equiv_pos_as_xyz
  x,y,z
_cell_length_a	11.169417
_cell_length_b	25.639239
_cell_length_c	25.639233
_cell_angle_alpha	89.981253
_cell_angle_beta	89.989948
_cell_angle_gamma	90.039565
loop_
_atom_site_label
_atom_site_type_symbol
_atom_site_fract_x
_atom_site_fract_y
_atom_site_fract_z
Zn1	Zn	1.834610	-0.208202	-0.295573
Zn2	Zn	1.834434	-0.295621	-0.208138
Zn3	Zn	1.633930	-0.208203	-0.208156
Zn4	Zn	1.633804	-0.295610	-0.295546
O5	O	1.734195	-0.251909	-0.251853
O6	O	2.002536	-0.219803	-0.283979
O7	O	1.807816	-0.284030	-0.134975
O8	O	1.660677	-0.135037	-0.219771
O9	O	2.002407	-0.284029	-0.219740
O10	O	1.808116	-0.135037	-0.283996
O11	O	1.660507	-0.219804	-0.134988
O12	O	1.465964	-0.219793	-0.219745
O13	O	1.660462	-0.284010	-0.368715
O14	O	1.465871	-0.284011	-0.283950
O15	O	1.807994	-0.219792	-0.368735
O16	O	1.807694	-0.368785	-0.219714
O17	O	1.660292	-0.368776	-0.283932
C18	C	1.422370	-0.251901	-0.251846
C19	C	1.288970	-0.251910	-0.251856
C20	C	1.733993	-0.387751	-0.251829
C21	C	1.734016	-0.445866	-0.251836
C22	C	1.811147	-0.806220	-0.218472
C23	C	1.811194	-0.860825	-0.218479
O24	O	1.876564	-0.889054	-0.190084
N25	N	1.734406	-0.888148	-0.251888
C26	C	1.657575	-0.860864	-0.285296
O27	O	1.592265	-0.889119	-0.313714
C28	C	1.657535	-0.806261	-0.285291
C29	C	1.734320	-0.778940	-0.251876
C30	C	1.887927	-0.778900	-0.185059
C31	C	1.887878	-0.724299	-0.185052
C32	C	1.811050	-0.697019	-0.218456
C33	C	1.734271	-0.724340	-0.251869
C34	C	1.580711	-0.778978	-0.318702
C35	C	1.580679	-0.724371	-0.318694
C36	C	1.657463	-0.697051	-0.285279
C37	C	1.657395	-0.642459	-0.285266
N38	N	1.734183	-0.615136	-0.251856
C39	C	1.811011	-0.642416	-0.218452
C40	C	1.657665	-0.975535	-0.285304
C41	C	1.657698	-1.030137	-0.285307
C42	C	1.811319	-1.030094	-0.218490
C43	C	1.811279	-0.975490	-0.218485
C44	C	1.734453	-0.948211	-0.251895
C45	C	1.810903	-0.527751	-0.218438
C46	C	1.810844	-0.473145	-0.218432
C47	C	1.657228	-0.473194	-0.285251
C48	C	1.657282	-0.527794	-0.285255
C49	C	1.734129	-0.555071	-0.251847
O50	O	1.592062	-0.614195	-0.313647
O51	O	1.876320	-0.614155	-0.190043
C52	C	2.047237	-0.251917	-0.251860
C53	C	2.180637	-0.251921	-0.251863
C54	C	1.734233	-0.251900	-0.388226
C55	C	1.734250	-0.251896	-0.446340
C56	C	1.734430	-0.115536	-0.251889
C57	C	1.734530	-0.057422	-0.251904
C58	C	1.811167	-0.218358	-0.806720
C59	C	1.811182	-0.218344	-0.861324
O60	O	1.876482	-0.189890	-0.889574
N61	N	1.734382	-0.251773	-0.888623
C62	C	1.657554	-0.285216	-0.861315
O63	O	1.592231	-0.313648	-0.889549
C64	C	1.657534	-0.285227	-0.806712
C65	C	1.734347	-0.251799	-0.779415
C66	C	1.887973	-0.184933	-0.779423
C67	C	1.887959	-0.184948	-0.724823
C68	C	1.811140	-0.218389	-0.697518
C69	C	1.734334	-0.251814	-0.724815
C70	C	1.580701	-0.318666	-0.779404
C71	C	1.580687	-0.318675	-0.724797
C72	C	1.657500	-0.285247	-0.697501
C73	C	1.657501	-0.285271	-0.642910
N74	N	1.734300	-0.251841	-0.615611
C75	C	1.811120	-0.218400	-0.642915
C76	C	1.657601	-0.285188	-0.975986
C77	C	1.657626	-0.285180	-1.030588
C78	C	1.811252	-0.218307	-1.030593
C79	C	1.811232	-0.218319	-0.975990
C80	C	1.734400	-0.251759	-0.948686
C81	C	1.811086	-0.218435	-0.528250
C82	C	1.811069	-0.218455	-0.473645
C83	C	1.657439	-0.285325	-0.473644
C84	C	1.657460	-0.285308	-0.528245
C85	C	1.734288	-0.251858	-0.555546
O86	O	1.592230	-0.313708	-0.614625
O87	O	1.876421	-0.189967	-0.614674
C88	C	1.734225	-0.251880	-0.116011
C89	C	1.734441	-0.251737	-0.057897
H90	H	1.873482	-0.549954	-0.191235
H91	H	1.518119	-0.702163	-0.345903
O92	O	1.574777	-0.321235	-1.060025
H93	H	1.595278	-0.362273	-1.049538
O94	O	1.894081	-0.182265	-0.946551
H95	H	1.840409	-0.155667	-0.921674
O96	O	1.497798	-0.354738	-0.695352
H97	H	1.518301	-0.395773	-0.705826
O98	O	1.574612	-0.321363	-0.557686
H99	H	1.513601	-0.297949	-0.582560
O100	O	1.970713	-0.694834	-0.149019
H101	H	2.024148	-0.722985	-0.125800
O102	O	1.574575	-0.321386	-0.444187
H103	H	1.595077	-0.362423	-0.454655
O104	O	1.574711	-0.321251	-0.946537
H105	H	1.521314	-0.344490	-0.974697
O106	O	1.497845	-0.354721	-0.808834
H107	H	1.510753	-0.349104	-0.851392
O108	O	1.893673	-0.443677	-0.182394
H109	H	1.947113	-0.471823	-0.159173
O110	O	1.970794	-0.808322	-0.149029
H111	H	1.950252	-0.797868	-0.107987
O112	O	1.894107	-0.946024	-0.182451
H113	H	1.947538	-0.974172	-0.159228
O114	O	1.894210	-1.059521	-0.182468
H115	H	1.881345	-1.102079	-0.188094
O116	O	1.574873	-1.059603	-0.321343
H117	H	1.521453	-1.031454	-0.344571
H118	H	1.873624	-0.191233	-0.451422
H119	H	1.595094	-0.953327	-0.312509
H120	H	1.518179	-0.801213	-0.345910
H121	H	1.873642	-0.191196	-0.550473
O122	O	1.894103	-0.182236	-1.060051
H123	H	1.947519	-0.158993	-1.031901
O124	O	1.574460	-0.557270	-0.321288
H125	H	1.594973	-0.546764	-0.362329
O126	O	1.574371	-0.443766	-0.321282
H127	H	1.587256	-0.401208	-0.315665
O128	O	1.970801	-0.148891	-0.695384
H129	H	2.024206	-0.125635	-0.723551
H130	H	1.950529	-0.157698	-0.801649
