data_functionalizedCrystal
_audit_creation_method	'MofGen! by Chris Wilmer'
_symmetry_space_group_name_H-M	'P1'
_symmetry_Int_Tables_number	1
_symmetry_cell_setting	triclinic
loop_
_symmetry_equiv_pos_as_xyz
  x,y,z
_cell_length_a	23.532407
_cell_length_b	22.610064
_cell_length_c	23.532407
_cell_angle_alpha	89.999397
_cell_angle_beta	97.151322
_cell_angle_gamma	90.002839
loop_
_atom_site_label
_atom_site_type_symbol
_atom_site_fract_x
_atom_site_fract_y
_atom_site_fract_z
O1	O	0.755263	0.049117	-0.069127
O2	O	1.255263	0.549117	0.430873
O3	O	0.589400	0.049135	-0.079130
O4	O	1.089400	0.549135	0.420870
O5	O	0.677333	0.049114	0.008803
O6	O	1.177333	0.549114	0.508803
O7	O	0.667330	0.049137	-0.157060
O8	O	1.167330	0.549137	0.342940
O9	O	0.677318	-0.049255	0.008790
O10	O	1.177318	0.450745	0.508790
O11	O	0.589385	-0.049234	-0.079143
O12	O	1.089385	0.450766	0.420857
O13	O	0.755248	-0.049252	-0.069140
O14	O	1.255248	0.450748	0.430860
Zn15	Zn	0.672314	-0.064862	-0.074144
Zn16	Zn	1.172314	0.435138	0.425856
Zn17	Zn	0.672334	0.064744	-0.074127
Zn18	Zn	1.172334	0.564744	0.425873
O19	O	0.667315	-0.049232	-0.157073
O20	O	1.167315	0.450768	0.342927
C21	C	0.568176	-0.000048	-0.078882
C22	C	1.068176	0.499952	0.421118
C23	C	0.504959	-0.000041	-0.078116
C24	C	1.004959	0.499959	0.421884
N25	N	0.672304	-0.153314	-0.074155
N26	N	1.172304	0.346686	0.425845
C27	C	0.105856	-0.000061	-0.125350
C28	C	0.605856	0.499939	0.374650
C29	C	0.046456	-0.000065	-0.124638
C30	C	0.546456	0.499935	0.375362
O31	O	0.009711	-0.000081	-0.168424
O32	O	0.509711	0.499919	0.331576
N33	N	0.023830	-0.000071	-0.072362
N34	N	0.523830	0.499929	0.427638
C35	C	0.060607	-0.000080	-0.020794
C36	C	0.560607	0.499920	0.479206
O37	O	0.035908	-0.000086	0.023737
O38	O	0.535908	0.499914	0.523737
C39	C	0.120006	-0.000080	-0.021506
C40	C	0.620006	0.499920	0.478494
C41	C	0.142629	-0.000068	-0.073785
C42	C	0.642629	0.499932	0.426215
C43	C	0.128479	-0.000050	-0.177625
C44	C	0.628479	0.499950	0.322375
C45	C	0.187876	-0.000045	-0.178336
C46	C	0.687876	0.499955	0.321664
C47	C	0.224649	-0.000052	-0.126772
C48	C	0.724649	0.499948	0.373228
C49	C	0.202025	-0.000063	-0.074497
C50	C	0.702025	0.499937	0.425503
C51	C	0.156783	-0.000093	0.030062
C52	C	0.656783	0.499907	0.530062
C53	C	0.216185	-0.000094	0.029345
C54	C	0.716185	0.499906	0.529345
C55	C	0.238808	-0.000082	-0.022934
C56	C	0.738808	0.499918	0.477066
C57	C	0.298194	-0.000065	-0.023643
C58	C	0.798194	0.499935	0.476357
N59	N	0.320820	-0.000059	-0.075920
N60	N	0.820820	0.499941	0.424080
C61	C	0.284048	-0.000052	-0.127484
C62	C	0.784048	0.499948	0.372516
C63	C	-0.064135	-0.000080	-0.019302
C64	C	0.435865	0.499920	0.480698
C65	C	-0.123533	-0.000075	-0.018589
C66	C	0.376467	0.499925	0.481411
C67	C	-0.137680	-0.000061	-0.122434
C68	C	0.362320	0.499939	0.377566
C69	C	-0.078281	-0.000062	-0.123146
C70	C	0.421719	0.499938	0.376854
C71	C	-0.041509	-0.000074	-0.071578
C72	C	0.458491	0.499926	0.428422
C73	C	0.408784	-0.000042	-0.128974
C74	C	0.908784	0.499958	0.371026
C75	C	0.468186	-0.000034	-0.129680
C76	C	0.968186	0.499966	0.370320
C77	C	0.482329	-0.000051	-0.025836
C78	C	0.982329	0.499949	0.474164
C79	C	0.422932	-0.000055	-0.025129
C80	C	0.922932	0.499945	0.474871
C81	C	0.386160	-0.000052	-0.076702
C82	C	0.886160	0.499948	0.423298
O83	O	0.334974	-0.000052	0.020119
O84	O	0.834974	0.499948	0.520119
O85	O	0.308755	-0.000054	-0.172007
O86	O	0.808755	0.499946	0.327993
C87	C	0.711273	-0.561965	-0.035196
C88	C	1.211273	-0.061965	0.464804
C89	C	0.711276	-0.623884	-0.035192
C90	C	1.211276	-0.123884	0.464808
O91	O	0.744384	-0.655911	-0.002076
O92	O	1.244384	-0.155911	0.497924
N93	N	0.672334	-0.654851	-0.074115
N94	N	1.172334	-0.154851	0.425885
C95	C	0.633383	-0.623895	-0.113041
C96	C	1.133383	-0.123895	0.386959
O97	O	0.600259	-0.655920	-0.146147
O98	O	1.100259	-0.155920	0.353853
C99	C	0.633377	-0.561976	-0.113042
C100	C	1.133377	-0.061976	0.386958
C101	C	0.672326	-0.531013	-0.074120
C102	C	1.172326	-0.031013	0.425880
C103	C	0.750218	-0.531001	0.003724
C104	C	1.250218	-0.031001	0.503724
C105	C	0.750215	-0.469085	0.003719
C106	C	1.250215	0.030915	0.503719
C107	C	0.711268	-0.438133	-0.035206
C108	C	1.211268	0.061867	0.464794
C109	C	0.672323	-0.469097	-0.074125
C110	C	1.172323	0.030903	0.425875
C111	C	0.594424	-0.531021	-0.151965
C112	C	1.094424	-0.031021	0.348035
C113	C	0.594422	-0.469098	-0.151962
C114	C	1.094422	0.030902	0.348038
C115	C	0.633370	-0.438134	-0.113040
C116	C	1.133370	0.061866	0.386960
C117	C	0.633374	-0.376229	-0.113054
C118	C	1.133374	0.123771	0.386946
N119	N	0.672316	-0.345262	-0.074131
N120	N	1.172316	0.154738	0.425869
C121	C	0.711263	-0.376214	-0.035207
C122	C	1.211263	0.123786	0.464793
C123	C	0.633396	-0.753928	-0.113035
C124	C	1.133396	-0.253928	0.386965
C125	C	0.633403	-0.815846	-0.113037
C126	C	1.133403	-0.315846	0.386963
C127	C	0.711296	-0.815831	-0.035187
C128	C	1.211296	-0.315831	0.464813
C129	C	0.711291	-0.753913	-0.035188
C130	C	1.211291	-0.253913	0.464812
C131	C	0.672338	-0.722962	-0.074112
C132	C	1.172338	-0.222962	0.425888
C133	C	0.711255	-0.246187	-0.035220
C134	C	1.211255	0.253813	0.464780
C135	C	0.711251	-0.184266	-0.035230
C136	C	1.211251	0.315734	0.464770
C137	C	0.633357	-0.184286	-0.113078
C138	C	1.133357	0.315714	0.386922
C139	C	0.633363	-0.246202	-0.113071
C140	C	1.133363	0.253798	0.386929
C141	C	0.672314	-0.277151	-0.074137
C142	C	1.172314	0.222849	0.425863
O143	O	0.600281	-0.344163	-0.146152
O144	O	1.100281	0.155837	0.353848
O145	O	0.744376	-0.344182	-0.002101
O146	O	1.244376	0.155818	0.497899
C147	C	0.776472	-0.000069	-0.069388
C148	C	1.276472	0.499931	0.430612
C149	C	0.839689	-0.000071	-0.070154
C150	C	1.339689	0.499929	0.429846
C151	C	0.677071	-0.000072	0.030013
C152	C	1.177071	0.499928	0.530013
C153	C	0.676305	-0.000076	0.093230
C154	C	1.176305	0.499924	0.593230
N155	N	0.672349	0.153196	-0.074111
N156	N	1.172349	0.653196	0.425889
C157	C	0.667577	-0.000045	-0.178283
C158	C	1.167577	0.499955	0.321717
C159	C	0.668343	-0.000036	-0.241500
C160	C	1.168343	0.499964	0.258500
C161	C	0.723539	-0.000049	0.492333
C162	C	1.223539	0.499951	0.992333
C163	C	0.722827	-0.000044	0.551733
C164	C	1.222827	0.499956	1.051733
O165	O	0.766613	-0.000027	0.588478
O166	O	1.266613	0.499973	1.088478
N167	N	0.670551	-0.000039	0.574359
N168	N	1.170551	0.499961	1.074359
C169	C	0.618983	-0.000032	0.537582
C170	C	1.118983	0.499968	1.037582
O171	O	0.574452	-0.000027	0.562281
O172	O	1.074452	0.499973	1.062281
C173	C	0.619695	-0.000033	0.478182
C174	C	1.119695	0.499967	0.978182
C175	C	0.671974	-0.000044	0.455560
C176	C	1.171974	0.499956	0.955560
C177	C	0.775814	-0.000060	0.469710
C178	C	1.275814	0.499940	0.969710
C179	C	0.776525	-0.000065	0.410313
C180	C	1.276525	0.499935	0.910313
C181	C	0.724961	-0.000060	0.373540
C182	C	1.224961	0.499940	0.873540
C183	C	0.672685	-0.000050	0.396164
C184	C	1.172685	0.499950	0.896164
C185	C	0.568127	-0.000022	0.441406
C186	C	1.068127	0.499978	0.941406
C187	C	0.568844	-0.000021	0.382004
C188	C	1.068844	0.499979	0.882004
C189	C	0.621123	-0.000033	0.359381
C190	C	1.121123	0.499967	0.859381
C191	C	0.621832	-0.000050	0.299995
C192	C	1.121832	0.499950	0.799995
N193	N	0.674109	-0.000056	0.277368
N194	N	1.174109	0.499944	0.777368
C195	C	0.725673	-0.000061	0.314141
C196	C	1.225673	0.499939	0.814141
C197	C	0.617491	-0.000031	0.662324
C198	C	1.117491	0.499969	1.162324
C199	C	0.616778	-0.000034	0.721722
C200	C	1.116778	0.499966	1.221722
C201	C	0.720623	-0.000045	0.735869
C202	C	1.220623	0.499955	1.235869
C203	C	0.721335	-0.000046	0.676470
C204	C	1.221335	0.499954	1.176470
C205	C	0.669767	-0.000036	0.639698
C206	C	1.169767	0.499964	1.139698
C207	C	0.727163	-0.000073	0.189405
C208	C	1.227163	0.499927	0.689405
C209	C	0.727869	-0.000081	0.130003
C210	C	1.227869	0.499919	0.630003
C211	C	0.624025	-0.000067	0.115860
C212	C	1.124025	0.499933	0.615860
C213	C	0.623318	-0.000062	0.175257
C214	C	1.123318	0.499938	0.675257
C215	C	0.674891	-0.000063	0.212029
C216	C	1.174891	0.499937	0.712029
O217	O	0.578070	-0.000065	0.263215
O218	O	1.078070	0.499935	0.763215
O219	O	0.770196	-0.000058	0.289433
O220	O	1.270196	0.499942	0.789433
H221	H	0.486602	-0.000024	-0.172255
H222	H	0.986602	0.499976	0.327745
Br223	Br	0.358890	-0.000039	-0.198967
Br224	Br	0.858890	0.499961	0.301033
Br225	Br	-0.047586	-0.000046	-0.194099
Br226	Br	0.452414	0.499954	0.305901
Br227	Br	0.218568	-0.000031	-0.249291
Br228	Br	0.718568	0.499969	0.250709
Br229	Br	0.126097	-0.000097	0.101018
Br230	Br	0.626097	0.499903	0.601018
Br231	Br	0.266088	-0.000113	0.099335
Br232	Br	0.766088	0.499887	0.599335
H233	H	-0.167632	-0.000059	-0.164421
H234	H	0.332368	0.499941	0.335579
Br235	Br	-0.154227	-0.000074	0.052364
Br236	Br	0.345773	0.499926	0.552364
Br237	Br	-0.014235	-0.000090	0.050690
Br238	Br	0.485765	0.499910	0.550690
Br239	Br	0.078583	-0.000041	-0.247615
Br240	Br	0.578583	0.499959	0.252385
H241	H	0.562700	-0.443901	-0.183658
H242	H	1.062700	0.056099	0.316342
Br243	Br	0.580510	-0.288222	-0.165902
Br244	Br	1.080510	0.211778	0.334098
Br245	Br	0.392228	-0.000074	0.045822
Br246	Br	0.892228	0.499926	0.545822
H247	H	0.770443	-0.000092	0.111587
H248	H	1.270443	0.499908	0.611587
Br249	Br	0.498854	-0.000005	0.332101
Br250	Br	0.998854	0.499995	0.832101
Br251	Br	0.552367	-0.000060	0.205961
Br252	Br	1.052367	0.499940	0.705961
Br253	Br	0.803080	-0.572997	0.056557
Br254	Br	1.303080	-0.072997	0.556557
H255	H	0.512280	-0.000054	0.016146
H256	H	1.012280	0.499946	0.516146
Br257	Br	0.764115	-0.142247	0.017593
Br258	Br	1.264115	0.357753	0.517593
H259	H	0.742973	-0.271379	-0.003516
H260	H	1.242973	0.228621	0.496484
H261	H	0.762610	-0.000047	0.765821
H262	H	1.262610	0.499953	1.265821
H263	H	0.817806	-0.000061	0.499645
H264	H	1.317806	0.499939	0.999645
H265	H	0.743005	-0.728706	-0.003494
H266	H	1.243005	-0.228706	0.496506
Br267	Br	0.803072	-0.427070	0.056546
Br268	Br	1.303072	0.072930	0.556546
Br269	Br	0.797156	-0.000074	0.239299
Br270	Br	1.297156	0.499926	0.739299
H271	H	0.819097	-0.000072	0.391900
H272	H	1.319097	0.499928	0.891900
H273	H	0.582043	-0.000065	0.085909
H274	H	1.082043	0.499935	0.585909
H275	H	0.743008	-0.841044	-0.003492
H276	H	1.243008	-0.341044	0.496508
H277	H	0.763906	-0.000054	0.658056
H278	H	1.263906	0.499946	1.158056
H279	H	0.601694	-0.841052	-0.144737
H280	H	1.101694	-0.341052	0.355263
Br281	Br	0.580530	-0.711929	-0.165869
Br282	Br	1.080530	-0.211929	0.334131
Br283	Br	0.541563	-0.573030	-0.204790
Br284	Br	1.041563	-0.073030	0.295210
H285	H	0.574207	-0.000035	0.740136
H286	H	1.074207	0.499965	1.240136
H287	H	0.601648	-0.159075	-0.144772
H288	H	1.101648	0.340925	0.355228
H289	H	0.575496	-0.000028	0.632386
H290	H	1.075496	0.499972	1.132386
H291	H	0.525555	-0.000009	0.459814
H292	H	1.025555	0.499991	0.959814
