data_functionalizedCrystal
_audit_creation_method	'MofGen! by Chris Wilmer'
_symmetry_space_group_name_H-M	'P1'
_symmetry_Int_Tables_number	1
_symmetry_cell_setting	triclinic
loop_
_symmetry_equiv_pos_as_xyz
  x,y,z
_cell_length_a	12.759394
_cell_length_b	18.215407
_cell_length_c	18.215399
_cell_angle_alpha	90.017777
_cell_angle_beta	89.974724
_cell_angle_gamma	89.989543
loop_
_atom_site_label
_atom_site_type_symbol
_atom_site_fract_x
_atom_site_fract_y
_atom_site_fract_z
Zn1	Zn	-0.418400	-1.125123	-0.416089
Zn2	Zn	-0.594097	-1.125053	-0.293029
Zn3	Zn	-0.418420	-1.002056	-0.293041
Zn4	Zn	-0.594024	-1.002043	-0.416058
O5	O	-0.506235	-1.063569	-0.354554
O6	O	-0.441729	-1.228098	-0.399773
O7	O	-0.570832	-1.108713	-0.190046
O8	O	-0.271396	-1.018416	-0.309382
O9	O	-0.570813	-1.228047	-0.309361
O10	O	-0.271382	-1.108833	-0.399785
O11	O	-0.441763	-1.018348	-0.190055
O12	O	-0.441691	-0.899070	-0.309351
O13	O	-0.570688	-1.018394	-0.519046
O14	O	-0.570707	-0.899061	-0.399732
O15	O	-0.441658	-1.108821	-0.519069
O16	O	-0.741109	-1.108701	-0.309330
O17	O	-0.741055	-1.018326	-0.399720
C18	C	-0.506194	-0.872363	-0.354540
C19	C	-0.506202	-0.790564	-0.354551
C20	C	-0.439118	-0.602396	-0.401702
C21	C	-0.439123	-0.525537	-0.401704
C22	C	-0.573337	-0.525494	-0.307412
C23	C	-0.573325	-0.602352	-0.307407
C24	C	-0.506217	-0.640800	-0.354556
C25	C	-0.506234	-0.487084	-0.354563
C26	C	-0.506241	-0.403751	-0.354565
C27	C	-0.506209	-0.724139	-0.354554
C28	C	-0.779203	-1.063525	-0.354536
C29	C	-0.895980	-1.063573	-0.354553
C30	C	-0.895982	-1.157751	-0.260502
C31	C	-0.950844	-1.204859	-0.213484
C32	C	-1.060566	-1.204903	-0.213504
C33	C	-1.115428	-1.157834	-0.260548
C34	C	-1.060566	-1.110726	-0.307565
C35	C	-0.950842	-1.110686	-0.307539
C36	C	-1.060563	-1.016553	-0.401620
C37	C	-0.950841	-1.016505	-0.401597
C38	C	-1.115425	-0.969484	-0.448664
C39	C	-1.060563	-0.922371	-0.495678
C40	C	-0.950835	-0.922329	-0.495656
C41	C	-0.895979	-0.969396	-0.448614
C42	C	-0.232202	-1.063633	-0.354588
C43	C	-0.115425	-1.063661	-0.354603
C44	C	-0.506163	-1.063614	-0.546507
C45	C	-0.506132	-1.063633	-0.628306
C46	C	-0.506266	-0.255522	-0.354567
C47	C	-0.506250	-0.337321	-0.354568
C48	C	-0.438883	-1.110735	-0.816513
C49	C	-0.438853	-1.110744	-0.893372
C50	C	-0.573218	-1.016583	-0.893337
C51	C	-0.573243	-1.016571	-0.816479
C52	C	-0.506077	-1.063651	-0.778070
C53	C	-0.506022	-1.063672	-0.931786
C54	C	-0.505989	-1.063681	-1.015120
C55	C	-0.506108	-1.063641	-0.694731
C56	C	-0.506232	-1.063567	-0.163348
C57	C	-0.505967	-1.063690	-0.081549
H58	H	-0.906166	-1.243184	-0.175183
O59	O	-0.373435	-1.156447	-0.930633
C60	C	-0.268727	-1.140371	-0.911873
H61	H	-0.266569	-1.112072	-0.856066
H62	H	-0.233313	-1.102551	-0.955127
C63	C	-0.207753	-1.246887	-0.976881
C64	C	-0.205102	-1.212135	-0.908334
H65	H	-0.168504	-1.291153	-0.974701
H66	H	-0.278297	-1.257717	-0.989522
H67	H	-0.178244	-1.215363	-1.012919
H68	H	-0.234623	-1.243656	-0.872300
H69	H	-0.134562	-1.201313	-0.895687
H70	H	-0.906172	-0.883971	-0.533946
H71	H	-0.627975	-0.494180	-0.269026
H72	H	-0.384483	-0.494271	-0.440093
H73	H	-0.627905	-0.978254	-0.924620
H74	H	-1.204769	-1.157880	-0.260567
H75	H	-1.105240	-0.884055	-0.533981
O76	O	-0.373829	-0.639632	-0.447521
C77	C	-0.314626	-0.589249	-0.489146
H78	H	-0.310942	-0.534453	-0.459008
H79	H	-0.353201	-0.581092	-0.544993
C80	C	-0.207347	-0.686557	-0.536900
C81	C	-0.202815	-0.619257	-0.499882
H82	H	-0.138379	-0.705067	-0.543526
H83	H	-0.247236	-0.720501	-0.508859
H84	H	-0.239498	-0.679750	-0.583436
H85	H	-0.170678	-0.626066	-0.453344
H86	H	-0.162919	-0.585314	-0.527915
O87	O	-0.638610	-0.639549	-0.261584
C88	C	-0.697832	-0.589134	-0.219962
H89	H	-0.701537	-0.534358	-0.250103
H90	H	-0.659259	-0.580941	-0.164116
C91	C	-0.805072	-0.686402	-0.172200
C92	C	-0.809630	-0.619127	-0.209223
H93	H	-0.874033	-0.704903	-0.165572
H94	H	-0.765171	-0.720368	-0.200239
H95	H	-0.772923	-0.679566	-0.125666
H96	H	-0.841766	-0.625966	-0.255760
H97	H	-0.849539	-0.585162	-0.181191
H98	H	-0.806641	-1.157711	-0.260471
H99	H	-0.806638	-0.969362	-0.448587
O100	O	-1.113702	-1.250686	-0.167764
C101	C	-1.041759	-1.292236	-0.126253
H102	H	-0.963576	-1.262069	-0.123662
H103	H	-1.030008	-1.348112	-0.153245
C104	C	-1.180684	-1.339948	-0.051129
C105	C	-1.084661	-1.302893	-0.047941
H106	H	-1.207149	-1.346525	-0.002824
H107	H	-1.229155	-1.311957	-0.079097
H108	H	-1.170879	-1.386507	-0.073626
H109	H	-1.094470	-1.256332	-0.025454
H110	H	-1.036193	-1.330876	-0.019968
O111	O	-0.638620	-0.970809	-0.779244
C112	C	-0.697886	-0.929249	-0.829625
H113	H	-0.701516	-0.959399	-0.884417
H114	H	-0.659401	-0.873366	-0.837795
C115	C	-0.805251	-0.881586	-0.732309
C116	C	-0.809717	-0.918619	-0.799604
H117	H	-0.874233	-0.875025	-0.713791
H118	H	-0.765321	-0.909583	-0.698366
H119	H	-0.773176	-0.835020	-0.739127
H120	H	-0.841779	-0.965187	-0.792784
H121	H	-0.849655	-0.890629	-0.833545
O122	O	-1.222008	-0.969594	-0.448804
C123	C	-1.258570	-0.988457	-0.519364
H124	H	-1.195273	-1.020502	-0.549799
H125	H	-1.278061	-0.936349	-0.551211
C126	C	-1.435427	-0.996809	-0.474925
C127	C	-1.357688	-1.036172	-0.512304
H128	H	-1.496570	-1.026239	-0.470571
H129	H	-1.410796	-0.984097	-0.427388
H130	H	-1.451657	-0.953387	-0.501469
H131	H	-1.341450	-1.079588	-0.485755
H132	H	-1.382319	-1.048892	-0.559836
O133	O	-0.373579	-1.156358	-0.779122
C134	C	-0.305713	-1.114461	-0.734684
H135	H	-0.342768	-1.058683	-0.723153
H136	H	-0.227847	-1.106390	-0.764318
C137	C	-0.241195	-1.223453	-0.675851
C138	C	-0.286712	-1.154948	-0.661683
H139	H	-0.229470	-1.248428	-0.630822
H140	H	-0.286915	-1.251680	-0.705791
H141	H	-0.176313	-1.216718	-0.700548
H142	H	-0.351599	-1.161685	-0.636995
H143	H	-0.241003	-1.126723	-0.631737
