data_functionalizedCrystal
_audit_creation_method	'MofGen! by Chris Wilmer'
_symmetry_space_group_name_H-M	'P1'
_symmetry_Int_Tables_number	1
_symmetry_cell_setting	triclinic
loop_
_symmetry_equiv_pos_as_xyz
  x,y,z
_cell_length_a	23.532355
_cell_length_b	14.853569
_cell_length_c	13.330367
_cell_angle_alpha	89.994190
_cell_angle_beta	89.998270
_cell_angle_gamma	83.231532
loop_
_atom_site_label
_atom_site_type_symbol
_atom_site_fract_x
_atom_site_fract_y
_atom_site_fract_z
O1	O	0.755758	0.109215	-0.083290
O2	O	1.255758	0.609215	0.416710
O3	O	0.589960	0.125098	-0.083322
O4	O	1.089960	0.625098	0.416678
O5	O	0.677288	-0.014123	-0.083295
O6	O	1.177288	0.485877	0.416705
O7	O	0.668431	0.248436	-0.083316
O8	O	1.168431	0.748436	0.416684
O9	O	0.677275	-0.014126	0.083552
O10	O	1.177275	0.485874	0.583552
O11	O	0.589947	0.125095	0.083525
O12	O	1.089947	0.625095	0.583525
O13	O	0.755746	0.109212	0.083557
O14	O	1.255746	0.609212	0.583557
Cu15	Cu	0.672845	0.117153	0.098776
Cu16	Cu	1.172845	0.617153	0.598776
Cu17	Cu	0.672860	0.117157	-0.098540
Cu18	Cu	1.172860	0.617157	0.401460
O19	O	0.668418	0.248433	0.083531
O20	O	1.168418	0.748433	0.583531
C21	C	0.568735	0.124700	0.000098
C22	C	1.068735	0.624700	0.500098
C23	C	0.505512	0.123506	0.000086
C24	C	1.005512	0.623506	0.500086
C25	C	0.676880	-0.047709	0.000128
C26	C	1.176880	0.452291	0.500128
C27	C	0.675677	-0.147779	0.000129
C28	C	1.175677	0.352221	0.500129
C29	C	0.623238	-0.183566	0.000121
C30	C	1.123238	0.316434	0.500121
C31	C	0.726985	-0.206021	0.000130
C32	C	1.226985	0.293979	0.500130
C33	C	0.725857	-0.300043	0.000125
C34	C	1.225857	0.199957	0.500125
C35	C	0.673418	-0.335830	0.000117
C36	C	1.173418	0.164170	0.500117
C37	C	0.622108	-0.277596	0.000113
C38	C	1.122108	0.222404	0.500113
C39	C	0.777166	-0.358283	0.000119
C40	C	1.277166	0.141717	0.500119
C41	C	0.776040	-0.452311	0.000114
C42	C	1.276040	0.047689	0.500114
C43	C	0.723600	-0.488100	0.000112
C44	C	1.223600	0.011900	0.500112
C45	C	0.672288	-0.429860	0.000110
C46	C	1.172288	0.070140	0.500110
C47	C	0.619849	-0.465648	0.000101
C48	C	1.119849	0.034352	0.500101
C49	C	0.568536	-0.407409	0.000105
C50	C	1.068536	0.092591	0.500105
C51	C	0.569668	-0.313385	0.000112
C52	C	1.069668	0.186615	0.500112
C53	C	0.722468	-0.582124	0.000106
C54	C	1.222468	-0.082124	0.500106
C55	C	0.618719	-0.559677	0.000094
C56	C	1.118719	-0.059677	0.500094
C57	C	0.113458	0.116004	0.091076
C58	C	0.613458	0.616004	0.591076
C59	C	0.054054	0.114868	0.091080
C60	C	0.554054	0.614868	0.591080
O61	O	0.023327	0.114249	0.168428
O62	O	0.523327	0.614249	0.668428
N63	N	0.024350	0.114307	0.000132
N64	N	0.524350	0.614307	0.500132
C65	C	0.054054	0.114872	-0.090825
C66	C	0.554054	0.614872	0.409175
O67	O	0.023334	0.114289	-0.168183
O68	O	0.523334	0.614289	0.331817
C69	C	0.113458	0.116001	-0.090828
C70	C	0.613458	0.616001	0.409172
C71	C	0.143158	0.116572	0.000126
C72	C	0.643158	0.616572	0.500126
C73	C	0.143158	0.116574	0.182023
C74	C	0.643158	0.616574	0.682023
C75	C	0.202559	0.117711	0.182019
C76	C	0.702559	0.617711	0.682019
C77	C	0.232258	0.118279	0.091068
C78	C	0.732258	0.618279	0.591068
C79	C	0.202558	0.117709	0.000121
C80	C	0.702558	0.617709	0.500121
C81	C	0.143161	0.116560	-0.181785
C82	C	0.643161	0.616560	0.318215
C83	C	0.202569	0.117688	-0.181780
C84	C	0.702569	0.617688	0.318220
C85	C	0.232269	0.118259	-0.090826
C86	C	0.732269	0.618259	0.409174
C87	C	0.291658	0.119414	-0.090834
C88	C	0.791658	0.619414	0.409166
N89	N	0.321362	0.119976	0.000114
N90	N	0.821362	0.619976	0.500114
C91	C	0.291662	0.119408	0.091065
C92	C	0.791662	0.619408	0.591065
C93	C	-0.070698	0.112499	-0.090812
C94	C	0.429302	0.612499	0.409188
C95	C	-0.130101	0.111376	-0.090811
C96	C	0.369899	0.611376	0.409189
C97	C	-0.130097	0.111371	0.091096
C98	C	0.369903	0.611371	0.591096
C99	C	-0.070693	0.112500	0.091093
C100	C	0.429307	0.612500	0.591093
C101	C	-0.040994	0.113061	0.000136
C102	C	0.459006	0.613061	0.500136
C103	C	0.416407	0.121797	0.091049
C104	C	0.916407	0.621797	0.591049
C105	C	0.475812	0.122938	0.091036
C106	C	0.975812	0.622938	0.591036
C107	C	0.475803	0.122939	-0.090869
C108	C	0.975803	0.622939	0.409131
C109	C	0.416403	0.121802	-0.090857
C110	C	0.916403	0.621802	0.409143
C111	C	0.386706	0.121229	0.000110
C112	C	0.886706	0.621229	0.500110
O113	O	0.322423	0.120031	-0.168142
O114	O	0.822423	0.620031	0.331858
O115	O	0.322391	0.119979	0.168410
O116	O	0.822391	0.619979	0.668410
C117	C	0.776970	0.109610	0.000136
C118	C	1.276970	0.609610	0.500136
C119	C	0.840194	0.110804	0.000141
C120	C	1.340194	0.610804	0.500141
C121	C	0.668826	0.282019	0.000105
C122	C	1.168826	0.782019	0.500105
C123	C	0.670029	0.382089	0.000097
C124	C	1.170029	0.882089	0.500097
N125	N	0.672839	0.117150	0.237557
N126	N	1.172839	0.617150	0.737557
N127	N	0.672871	0.117153	-0.237322
N128	N	1.172871	0.617153	0.262678
C129	C	0.634190	0.178780	0.710168
C130	C	1.134190	0.678780	1.210168
C131	C	0.711546	0.055526	0.710160
C132	C	1.211546	0.555526	1.210160
C133	C	0.711540	0.055524	0.605142
C134	C	1.211540	0.555524	1.105142
C135	C	0.672858	0.117151	0.552632
C136	C	1.172858	0.617151	1.052632
C137	C	0.634184	0.178781	0.605140
C138	C	1.134184	0.678781	1.105140
C139	C	0.750217	-0.006099	0.552625
C140	C	1.250217	0.493901	1.052625
C141	C	0.750213	-0.006104	0.447600
C142	C	1.250213	0.493896	0.947600
C143	C	0.711529	0.055520	0.395089
C144	C	1.211529	0.555520	0.895089
C145	C	0.672852	0.117152	0.447604
C146	C	1.172852	0.617152	0.947604
C147	C	0.634171	0.178779	0.395094
C148	C	1.134171	0.678779	0.895094
C149	C	0.595491	0.240407	0.447607
C150	C	1.095491	0.740407	0.947607
C151	C	0.595499	0.240404	0.552629
C152	C	1.095499	0.740404	1.052629
C153	C	0.711520	0.055523	0.290067
C154	C	1.211520	0.555523	0.790067
C155	C	0.634164	0.178780	0.290066
C156	C	1.134164	0.678780	0.790066
H157	H	0.576016	-0.588808	0.000096
H158	H	1.076016	-0.088808	0.500096
H159	H	0.602696	0.228954	0.752927
H160	H	1.102696	0.728954	1.252927
H161	H	0.743042	0.005355	0.752917
H162	H	1.243042	0.505355	1.252917
N163	N	0.555989	0.303370	0.393965
N164	N	1.055989	0.803370	0.893965
N165	N	0.574103	0.359182	0.335357
N166	N	1.074103	0.859182	0.835357
H167	H	0.546206	0.403650	0.297469
H168	H	1.046206	0.903650	0.797469
N169	N	0.517251	-0.253914	0.000111
N170	N	1.017251	0.246086	0.500111
N171	N	0.482385	-0.256904	0.070431
N172	N	0.982385	0.243096	0.570431
H173	H	0.445364	-0.214902	0.070426
H174	H	0.945364	0.285098	0.570426
H175	H	0.743015	0.005350	0.247316
H176	H	1.243015	0.505350	0.747316
H177	H	-0.046521	0.112964	-0.164885
H178	H	0.453479	0.612964	0.335115
N179	N	0.506158	0.123528	0.183938
N180	N	1.006158	0.623528	0.683938
N181	N	0.534100	0.187719	0.204224
N182	N	1.034100	0.687719	0.704224
H183	H	0.555532	0.188135	0.269833
H184	H	1.055532	0.688135	0.769833
N185	N	0.789746	-0.069003	0.606276
N186	N	1.289746	0.430997	1.106276
N187	N	0.789755	-0.068975	0.700045
N188	N	1.289755	0.431025	1.200045
H189	H	0.817680	-0.113392	0.737942
H190	H	1.317680	0.386608	1.237942
H191	H	0.781707	-0.056285	0.404851
H192	H	1.281707	0.443715	0.904851
H193	H	-0.154279	0.110926	-0.164874
H194	H	0.345721	0.610926	0.335126
N195	N	0.830732	-0.321743	0.000144
N196	N	1.330732	0.178257	0.500144
N197	N	0.876541	-0.373747	0.000147
N198	N	1.376541	0.126253	0.500147
H199	H	0.914374	-0.347939	0.000169
H200	H	1.414374	0.152061	0.500169
N201	N	0.828457	-0.511782	0.000106
N202	N	1.328457	-0.011782	0.500106
N203	N	0.875272	-0.479816	0.000110
N204	N	1.375272	0.020184	0.500110
H205	H	0.912293	-0.521818	0.000106
H206	H	1.412293	-0.021818	0.500106
N207	N	0.594660	0.241747	0.236433
N208	N	1.094660	0.741747	0.736433
N209	N	0.612769	0.297563	0.177827
N210	N	1.112769	0.797563	0.677827
H211	H	0.584870	0.342035	0.139949
H212	H	1.084870	0.842035	0.639949
H213	H	0.392234	0.121338	0.165123
H214	H	0.892234	0.621338	0.665123
N215	N	0.514978	-0.443987	0.000106
N216	N	1.014978	0.056013	0.500106
N217	N	0.502779	-0.493970	0.070428
N218	N	1.002779	0.006030	0.570428
H219	H	0.464956	-0.519810	0.070430
H220	H	0.964956	-0.019810	0.570430
N221	N	0.570831	-0.124071	0.000135
N222	N	1.070831	0.375929	0.500135
N223	N	0.571843	-0.040122	0.000150
N224	N	1.071843	0.459878	0.500150
H225	H	0.534830	0.001898	0.000162
H226	H	1.034830	0.501898	0.500162
N227	N	0.774881	-0.641599	0.000112
N228	N	1.274881	-0.141599	0.500112
N229	N	0.809739	-0.638619	0.070443
N230	N	1.309739	-0.138619	0.570443
H231	H	0.846759	-0.680623	0.070450
H232	H	1.346759	-0.180623	0.570450
N233	N	0.780541	-0.169450	0.000146
N234	N	1.280541	0.330550	0.500146
N235	N	0.792738	-0.119491	0.070479
N236	N	1.292738	0.380509	0.570479
H237	H	0.830563	-0.093658	0.070493
H238	H	1.330563	0.406342	0.570493
N239	N	0.232884	0.118280	0.274936
N240	N	0.732884	0.618280	0.774936
N241	N	0.206351	0.117762	0.356128
N242	N	0.706351	0.617762	0.856128
H243	H	0.227765	0.118156	0.421757
H244	H	0.727765	0.618156	0.921757
N245	N	0.555995	0.303344	0.606284
N246	N	1.055995	0.803344	1.106284
N247	N	0.556010	0.303334	0.700053
N248	N	1.056010	0.803334	1.200053
H249	H	0.528112	0.347786	0.737953
H250	H	1.028112	0.847786	1.237953
H251	H	0.118983	0.116110	0.256090
H252	H	0.618983	0.616110	0.756090
H253	H	-0.046515	0.112966	0.165156
H254	H	0.453485	0.612966	0.665156
H255	H	0.118990	0.116094	-0.255850
H256	H	0.618990	0.616094	0.244150
N257	N	-0.160451	0.110800	0.183994
N258	N	0.339549	0.610800	0.683994
N259	N	-0.213489	0.109793	0.183973
N260	N	0.286511	0.609793	0.683973
H261	H	-0.234929	0.109393	0.249578
H262	H	0.265071	0.609393	0.749578
N263	N	0.232897	0.118253	-0.274703
N264	N	0.732897	0.618253	0.225297
N265	N	0.206368	0.117740	-0.355897
N266	N	0.706368	0.617740	0.144103
H267	H	0.227785	0.118140	-0.421524
H268	H	0.727785	0.618140	0.078476
H269	H	0.392218	0.121352	-0.164920
H270	H	0.892218	0.621352	0.335080
N271	N	0.506155	0.123533	-0.183760
N272	N	1.006155	0.623533	0.316240
N273	N	0.559192	0.124549	-0.183739
N274	N	1.059192	0.624549	0.316261
H275	H	0.580631	0.124966	-0.249344
H276	H	1.080631	0.624966	0.250656
