data_functionalizedCrystal
_audit_creation_method	'MofGen! by Chris Wilmer'
_symmetry_space_group_name_H-M	'P1'
_symmetry_Int_Tables_number	1
_symmetry_cell_setting	triclinic
loop_
_symmetry_equiv_pos_as_xyz
  x,y,z
_cell_length_a	16.625547
_cell_length_b	25.639239
_cell_length_c	16.625539
_cell_angle_alpha	89.968745
_cell_angle_beta	89.975178
_cell_angle_gamma	90.038623
loop_
_atom_site_label
_atom_site_type_symbol
_atom_site_fract_x
_atom_site_fract_y
_atom_site_fract_z
Zn1	Zn	1.232590	-0.208151	-0.455984
Zn2	Zn	1.565923	0.125183	-0.122651
Zn3	Zn	1.899256	0.458516	0.210682
Zn4	Zn	1.232455	-0.295589	-0.321145
Zn5	Zn	1.565788	0.037745	0.012189
Zn6	Zn	1.899121	0.371078	0.345522
Zn7	Zn	1.097751	-0.208169	-0.321155
Zn8	Zn	1.431085	0.125164	0.012179
Zn9	Zn	1.764418	0.458498	0.345512
Zn10	Zn	1.097684	-0.295557	-0.455924
Zn11	Zn	1.431017	0.037776	-0.122591
Zn12	Zn	1.764350	0.371110	0.210742
O13	O	1.165120	-0.251866	-0.388552
O14	O	1.498453	0.081467	-0.055219
O15	O	1.831787	0.414800	0.278115
O16	O	1.345404	-0.219755	-0.438118
O17	O	1.678737	0.113578	-0.104785
O18	O	2.012071	0.446911	0.228548
O19	O	1.214558	-0.284013	-0.208313
O20	O	1.547891	0.049320	0.125020
O21	O	1.881225	0.382654	0.458353
O22	O	1.115723	-0.135001	-0.339070
O23	O	1.449056	0.198332	-0.005736
O24	O	1.782390	0.531665	0.327597
O25	O	1.345305	-0.283995	-0.339052
O26	O	1.678638	0.049338	-0.005719
O27	O	2.011972	0.382671	0.327615
O28	O	1.214788	-0.134988	-0.438128
O29	O	1.548121	0.198345	-0.104795
O30	O	1.881455	0.531679	0.228538
O31	O	1.115592	-0.219786	-0.208321
O32	O	1.448925	0.113547	0.125012
O33	O	1.782259	0.446880	0.458346
O34	O	0.984910	-0.219755	-0.339012
O35	O	1.318243	0.113578	-0.005678
O36	O	1.651577	0.446911	0.327655
O37	O	1.115607	-0.283941	-0.568765
O38	O	1.448941	0.049392	-0.235431
O39	O	1.782274	0.382725	0.097902
O40	O	0.984860	-0.283959	-0.438026
O41	O	1.318194	0.049374	-0.104693
O42	O	1.651527	0.382708	0.228641
O43	O	1.214722	-0.219724	-0.568809
O44	O	1.548056	0.113609	-0.235475
O45	O	1.881389	0.446942	0.097858
O46	O	1.214492	-0.368750	-0.338994
O47	O	1.547826	-0.035416	-0.005661
O48	O	1.881159	0.297917	0.327673
O49	O	1.115477	-0.368726	-0.438016
O50	O	1.448810	-0.035393	-0.104683
O51	O	1.782143	0.297940	0.228650
C52	C	0.955629	-0.251856	-0.388514
C53	C	1.288962	0.081477	-0.055181
C54	C	1.622296	0.414811	0.278153
C55	C	0.866008	-0.251864	-0.388517
C56	C	1.199341	0.081469	-0.055183
C57	C	1.532675	0.414802	0.278150
C58	C	0.793225	-0.251865	-0.388527
C59	C	1.126559	0.081468	-0.055193
C60	C	1.459892	0.414801	0.278140
C61	C	0.701917	-0.251868	-0.388547
C62	C	1.035250	0.081465	-0.055214
C63	C	1.368584	0.414799	0.278120
C64	C	0.629141	-0.251873	-0.388567
C65	C	0.962474	0.081460	-0.055234
C66	C	1.295807	0.414794	0.278099
C67	C	0.537826	-0.251877	-0.388587
C68	C	0.871160	0.081457	-0.055253
C69	C	1.204493	0.414790	0.278080
C70	C	1.164984	-0.387709	-0.388515
C71	C	1.498318	-0.054376	-0.055182
C72	C	1.831651	0.278958	0.278152
C73	C	1.165000	-0.445823	-0.388526
C74	C	1.498333	-0.112490	-0.055193
C75	C	1.831667	0.220844	0.278140
C76	C	1.216812	-0.806185	-0.337079
C77	C	1.550145	-0.472852	-0.003746
C78	C	1.883479	-0.139519	0.329588
C79	C	1.216843	-0.860790	-0.337090
C80	C	1.550176	-0.527456	-0.003757
C81	C	1.883510	-0.194123	0.329577
O82	O	1.260755	-0.889026	-0.293307
O83	O	1.594088	-0.555693	0.040026
O84	O	1.927421	-0.222359	0.373360
N85	N	1.165262	-0.888105	-0.388605
N86	N	1.498595	-0.554772	-0.055272
N87	N	1.831928	-0.221439	0.278061
C88	C	1.113651	-0.860814	-0.440119
C89	C	1.446985	-0.527480	-0.106786
C90	C	1.780318	-0.194147	0.226547
O91	O	1.069781	-0.889062	-0.483939
O92	O	1.403114	-0.555728	-0.150606
O93	O	1.736447	-0.222395	0.182728
C94	C	1.113625	-0.806210	-0.440112
C95	C	1.446958	-0.472877	-0.106779
C96	C	1.780291	-0.139544	0.226555
C97	C	1.165204	-0.778898	-0.388587
C98	C	1.498537	-0.445564	-0.055254
C99	C	1.831870	-0.112231	0.278079
C100	C	1.268387	-0.778873	-0.285559
C101	C	1.601721	-0.445539	0.047774
C102	C	1.935054	-0.112206	0.381108
C103	C	1.268355	-0.724272	-0.285547
C104	C	1.601688	-0.390939	0.047786
C105	C	1.935022	-0.057606	0.381119
C106	C	1.216747	-0.696984	-0.337056
C107	C	1.550080	-0.363651	-0.003722
C108	C	1.883413	-0.030318	0.329611
C109	C	1.165171	-0.724297	-0.388576
C110	C	1.498505	-0.390964	-0.055242
C111	C	1.831838	-0.057630	0.278091
C112	C	1.062019	-0.778920	-0.491630
C113	C	1.395352	-0.445586	-0.158296
C114	C	1.728686	-0.112253	0.175037
C115	C	1.061997	-0.724313	-0.491618
C116	C	1.395331	-0.390979	-0.158285
C117	C	1.728664	-0.057646	0.175048
C118	C	1.113576	-0.697000	-0.440093
C119	C	1.446910	-0.363667	-0.106760
C120	C	1.780243	-0.030333	0.226573
C121	C	1.113531	-0.642409	-0.440072
C122	C	1.446864	-0.309075	-0.106739
C123	C	1.780197	0.024258	0.226594
N124	N	1.165112	-0.615093	-0.388557
N125	N	1.498445	-0.281760	-0.055223
N126	N	1.831779	0.051573	0.278110
C127	C	1.216720	-0.642381	-0.337048
C128	C	1.550054	-0.309048	-0.003715
C129	C	1.883387	0.024286	0.329618
C130	C	1.113712	-0.975484	-0.440132
C131	C	1.447045	-0.642151	-0.106799
C132	C	1.780379	-0.308818	0.226535
C133	C	1.113734	-1.030087	-0.440136
C134	C	1.447067	-0.696753	-0.106802
C135	C	1.780401	-0.363420	0.226531
C136	C	1.216927	-1.030059	-0.337107
C137	C	1.550260	-0.696726	-0.003774
C138	C	1.883594	-0.363392	0.329560
C139	C	1.216900	-0.975456	-0.337100
C140	C	1.550234	-0.642122	-0.003766
C141	C	1.883567	-0.308789	0.329567
C142	C	1.165293	-0.948169	-0.388616
C143	C	1.498627	-0.614835	-0.055283
C144	C	1.831960	-0.281502	0.278050
C145	C	1.216648	-0.527716	-0.337027
C146	C	1.549981	-0.194383	-0.003694
C147	C	1.883314	0.138951	0.329639
C148	C	1.216608	-0.473111	-0.337018
C149	C	1.549941	-0.139777	-0.003685
C150	C	1.883275	0.193556	0.329649
C151	C	1.113418	-0.473143	-0.440049
C152	C	1.446752	-0.139810	-0.106716
C153	C	1.780085	0.193524	0.226617
C154	C	1.113454	-0.527744	-0.440056
C155	C	1.446788	-0.194410	-0.106723
C156	C	1.780121	0.138923	0.226611
C157	C	1.165076	-0.555029	-0.388542
C158	C	1.498409	-0.221695	-0.055209
C159	C	1.831742	0.111638	0.278124
O160	O	1.069644	-0.614138	-0.483835
O161	O	1.402977	-0.280804	-0.150502
O162	O	1.736310	0.052529	0.182832
O163	O	1.260591	-0.614126	-0.293244
O164	O	1.593924	-0.280793	0.040090
O165	O	1.927258	0.052540	0.373423
C166	C	1.375429	-0.251877	-0.388591
C167	C	1.708762	0.081457	-0.055257
C168	C	2.042095	0.414790	0.278076
C169	C	1.465050	-0.251881	-0.388607
C170	C	1.798383	0.081452	-0.055274
C171	C	2.131717	0.414785	0.278059
C172	C	1.165172	-0.251827	-0.598861
C173	C	1.498506	0.081506	-0.265528
C174	C	1.831839	0.414839	0.067806
C175	C	1.165195	-0.251811	-0.688482
C176	C	1.498528	0.081523	-0.355149
C177	C	1.831861	0.414856	-0.021816
C178	C	1.165278	-0.115493	-0.388607
C179	C	1.498611	0.217840	-0.055273
C180	C	1.831945	0.551173	0.278060
C181	C	1.165345	-0.057379	-0.388630
C182	C	1.498679	0.275954	-0.055297
C183	C	1.832012	0.609288	0.278037
C184	C	1.165232	-0.251752	-1.016658
C185	C	1.498565	0.081581	-0.683325
C186	C	1.831899	0.414915	-0.349991
C187	C	1.165219	-0.251770	-0.925350
C188	C	1.498553	0.081563	-0.592016
C189	C	1.831886	0.414897	-0.258683
C190	C	1.165214	-0.251782	-0.852573
C191	C	1.498547	0.081551	-0.519240
C192	C	1.831880	0.414885	-0.185906
C193	C	1.165200	-0.251799	-0.761259
C194	C	1.498534	0.081534	-0.427925
C195	C	1.831867	0.414868	-0.094592
C196	C	1.165114	-0.251867	-0.179061
C197	C	1.498447	0.081466	0.154272
C198	C	1.831781	0.414799	0.487605
C199	C	1.165248	-0.251737	-0.089441
C200	C	1.498581	0.081597	0.243893
C201	C	1.831915	0.414930	0.577226
H202	H	1.258610	-0.450874	-0.295057
H203	H	1.591943	-0.117541	0.038276
H204	H	1.925277	0.215792	0.371609
F205	F	1.271588	-0.556747	-0.282201
F206	F	1.604922	-0.223414	0.051133
F207	F	1.938255	0.109919	0.384466
H208	H	1.258901	-0.953221	-0.295144
H209	H	1.592234	-0.619887	0.038189
H210	H	1.925568	-0.286554	0.371522
H211	H	1.020014	-0.801148	-0.533583
H212	H	1.353347	-0.467815	-0.200249
H213	H	1.686680	-0.134482	0.133084
F214	F	1.323262	-0.695211	-0.230716
F215	F	1.656596	-0.361877	0.102617
F216	F	1.989929	-0.028544	0.435950
H217	H	1.071725	-1.052320	-0.482085
H218	H	1.405059	-0.718987	-0.148751
H219	H	1.738392	-0.385653	0.184582
H220	H	1.071681	-0.953270	-0.482080
H221	H	1.405014	-0.619937	-0.148747
H222	H	1.738347	-0.286603	0.184586
F223	F	1.323322	-0.807906	-0.230733
F224	F	1.656655	-0.474573	0.102600
F225	F	1.989989	-0.141240	0.435933
F226	F	1.007070	-0.695275	-0.546453
F227	F	1.340403	-0.361942	-0.213119
F228	F	1.673737	-0.028609	0.120214
F229	F	1.271852	-1.059110	-0.282286
F230	F	1.605186	-0.725777	0.051048
F231	F	1.938519	-0.392444	0.384381
F232	F	1.058544	-0.556813	-0.494879
F233	F	1.391877	-0.223480	-0.161546
F234	F	1.725210	0.109854	0.171787
F235	F	1.058498	-0.444092	-0.494868
F236	F	1.391832	-0.110759	-0.161534
F237	F	1.725165	0.222575	0.171799
