data_functionalizedCrystal
_audit_creation_method	'MofGen! by Chris Wilmer'
_symmetry_space_group_name_H-M	'P1'
_symmetry_Int_Tables_number	1
_symmetry_cell_setting	triclinic
loop_
_symmetry_equiv_pos_as_xyz
  x,y,z
_cell_length_a	25.639242
_cell_length_b	25.639239
_cell_length_c	16.120256
_cell_angle_alpha	92.870449
_cell_angle_beta	92.869764
_cell_angle_gamma	90.034213
loop_
_atom_site_label
_atom_site_type_symbol
_atom_site_fract_x
_atom_site_fract_y
_atom_site_fract_z
Zn1	Zn	0.784258	-0.223230	-0.471562
Zn2	Zn	1.284258	0.276770	0.028438
Zn3	Zn	0.788606	-0.306228	-0.332145
Zn4	Zn	1.288606	0.193772	0.167855
Zn5	Zn	0.701259	-0.218801	-0.332145
Zn6	Zn	1.201259	0.281199	0.167855
Zn7	Zn	0.696782	-0.310627	-0.471489
Zn8	Zn	1.196782	0.189373	0.028511
O9	O	0.742726	-0.264722	-0.401835
O10	O	1.242726	0.235278	0.098165
O11	O	0.857999	-0.234252	-0.453099
O12	O	1.357999	0.265748	0.046901
O13	O	0.780713	-0.290936	-0.215483
O14	O	1.280713	0.209064	0.284517
O15	O	0.712323	-0.146225	-0.350669
O16	O	1.212323	0.353775	0.149331
O17	O	0.861194	-0.295230	-0.350670
O18	O	1.361194	0.204770	0.149330
O19	O	0.773302	-0.149478	-0.453098
O20	O	1.273302	0.350522	0.046902
O21	O	0.716540	-0.226704	-0.215483
O22	O	1.216540	0.273296	0.284517
O23	O	0.627501	-0.230970	-0.350599
O24	O	1.127501	0.269030	0.149401
O25	O	0.704692	-0.302728	-0.588161
O26	O	1.204692	0.197272	-0.088161
O27	O	0.624211	-0.298434	-0.452974
O28	O	1.124211	0.201566	0.047026
O29	O	0.768960	-0.238518	-0.588214
O30	O	1.268960	0.261482	-0.088214
O31	O	0.776372	-0.379976	-0.350599
O32	O	1.276372	0.120024	0.149401
O33	O	0.708908	-0.383208	-0.452974
O34	O	1.208908	0.116792	0.047026
C35	C	0.606885	-0.264699	-0.401779
C36	C	1.106885	0.235301	0.098221
C37	C	0.548772	-0.264703	-0.401774
C38	C	1.048772	0.235297	0.098226
C39	C	0.186704	-0.299904	-0.455092
C40	C	0.686704	0.200096	0.044908
C41	C	0.132099	-0.299908	-0.455105
C42	C	0.632099	0.200092	0.044895
O43	O	0.102415	-0.329810	-0.500389
O44	O	0.602415	0.170190	-0.000389
N45	N	0.106485	-0.264738	-0.401890
N46	N	0.606485	0.235262	0.098110
C47	C	0.135479	-0.229558	-0.348664
C48	C	0.635479	0.270442	0.151336
O49	O	0.108678	-0.199643	-0.303402
O50	O	0.608678	0.300357	0.196598
C51	C	0.190083	-0.229552	-0.348656
C52	C	0.690083	0.270448	0.151344
C53	C	0.215694	-0.264728	-0.401868
C54	C	0.715694	0.235272	0.098132
C55	C	0.212315	-0.335077	-0.508300
C56	C	0.712315	0.164923	-0.008300
C57	C	0.266916	-0.335074	-0.508286
C58	C	0.766916	0.164926	-0.008286
C59	C	0.295906	-0.299898	-0.455063
C60	C	0.795906	0.200102	0.044937
C61	C	0.270295	-0.264725	-0.401854
C62	C	0.770295	0.235275	0.098146
C63	C	0.219075	-0.194371	-0.295435
C64	C	0.719075	0.305629	0.204565
C65	C	0.273682	-0.194368	-0.295431
C66	C	0.773682	0.305632	0.204569
C67	C	0.299293	-0.229544	-0.348644
C68	C	0.799293	0.270456	0.151356
C69	C	0.353885	-0.229546	-0.348616
C70	C	0.853885	0.270454	0.151384
N71	N	0.379499	-0.264716	-0.401831
N72	N	0.879499	0.235284	0.098169
C73	C	0.350510	-0.299892	-0.455054
C74	C	0.850510	0.200108	0.044946
C75	C	0.020808	-0.229572	-0.348687
C76	C	0.520808	0.270428	0.151313
C77	C	-0.033795	-0.229580	-0.348690
C78	C	0.466205	0.270420	0.151310
C79	C	-0.037171	-0.299929	-0.455132
C80	C	0.462829	0.200071	0.044868
C81	C	0.017433	-0.299924	-0.455124
C82	C	0.517433	0.200076	0.044876
C83	C	0.046422	-0.264742	-0.401902
C84	C	0.546422	0.235258	0.098098
C85	C	0.465176	-0.299883	-0.455019
C86	C	0.965176	0.200117	0.044981
C87	C	0.519782	-0.299879	-0.454998
C88	C	1.019782	0.200121	0.045002
C89	C	0.523153	-0.229528	-0.348559
C90	C	1.023153	0.270472	0.151441
C91	C	0.468552	-0.229534	-0.348577
C92	C	0.968552	0.270466	0.151423
C93	C	0.439564	-0.264714	-0.401814
C94	C	0.939564	0.235286	0.098186
O95	O	0.383604	-0.199658	-0.303357
O96	O	0.883604	0.300342	0.196643
O97	O	0.377317	-0.329798	-0.500316
O98	O	0.877317	0.170202	-0.000316
C99	C	0.742640	-0.400563	-0.401797
C100	C	1.242640	0.099437	0.098203
C101	C	0.742649	-0.458677	-0.401809
C102	C	1.242649	0.041323	0.098191
C103	C	0.777939	-0.817349	-0.348619
C104	C	1.277939	-0.317349	0.151381
C105	C	0.777959	-0.871953	-0.348631
C106	C	1.277959	-0.371953	0.151369
O107	O	0.807873	-0.898750	-0.303365
O108	O	1.307873	-0.398750	0.196635
N109	N	0.742816	-0.900962	-0.401891
N110	N	1.242816	-0.400962	0.098109
C111	C	0.707655	-0.875364	-0.455149
C112	C	1.207655	-0.375364	0.044851
O113	O	0.677766	-0.905053	-0.500452
O114	O	1.177766	-0.405053	-0.000452
C115	C	0.707638	-0.820761	-0.455141
C116	C	1.207638	-0.320761	0.044859
C117	C	0.742779	-0.791754	-0.401872
C118	C	1.242779	-0.291754	0.098128
C119	C	0.813077	-0.788342	-0.295355
C120	C	1.313077	-0.288342	0.204645
C121	C	0.813057	-0.733741	-0.295343
C122	C	1.313057	-0.233741	0.204657
C123	C	0.777897	-0.708147	-0.348595
C124	C	1.277897	-0.208147	0.151405
C125	C	0.742759	-0.737153	-0.401860
C126	C	1.242759	-0.237153	0.098140
C127	C	0.672480	-0.795164	-0.508403
C128	C	1.172480	-0.295164	-0.008403
C129	C	0.672467	-0.740556	-0.508391
C130	C	1.172467	-0.240556	-0.008391
C131	C	0.707608	-0.711550	-0.455122
C132	C	1.207608	-0.211550	0.044878
C133	C	0.707579	-0.656958	-0.455100
C134	C	1.207579	-0.156958	0.044900
N135	N	0.742721	-0.627949	-0.401840
N136	N	1.242721	-0.127949	0.098160
C137	C	0.777880	-0.653543	-0.348588
C138	C	1.277880	-0.153543	0.151412
C139	C	0.707694	-0.990035	-0.455162
C140	C	1.207694	-0.490035	0.044838
C141	C	0.707709	-1.044638	-0.455166
C142	C	1.207709	-0.544638	0.044834
C143	C	0.778012	-1.041223	-0.348648
C144	C	1.278012	-0.541223	0.151352
C145	C	0.777995	-0.986619	-0.348641
C146	C	1.277995	-0.486619	0.151359
C147	C	0.742837	-0.961026	-0.401902
C148	C	1.242837	-0.461026	0.098098
C149	C	0.777834	-0.538877	-0.348566
C150	C	1.277834	-0.038877	0.151434
C151	C	0.777809	-0.484272	-0.348556
C152	C	1.277809	0.015728	0.151444
C153	C	0.707507	-0.487691	-0.455076
C154	C	1.207507	0.012309	0.044924
C155	C	0.707530	-0.542292	-0.455083
C156	C	1.207530	-0.042292	0.044917
C157	C	0.742698	-0.567884	-0.401825
C158	C	1.242698	-0.067884	0.098175
O159	O	0.677681	-0.630125	-0.500345
O160	O	1.177681	-0.130125	-0.000345
O161	O	0.807769	-0.623848	-0.303300
O162	O	1.307769	-0.123848	0.196700
C163	C	0.879097	-0.264744	-0.401892
C164	C	1.379097	0.235256	0.098108
C165	C	0.937211	-0.264754	-0.401917
C166	C	1.437211	0.235246	0.098083
C167	C	0.735841	-0.271608	-0.619282
C168	C	1.235841	0.228392	-0.119282
C169	C	0.732907	-0.274542	-0.711946
C170	C	1.232907	0.225458	-0.211946
C171	C	0.742827	-0.128350	-0.401892
C172	C	1.242827	0.371650	0.098108
C173	C	0.742870	-0.070237	-0.401916
C174	C	1.242870	0.429763	0.098084
C175	C	0.758025	-0.249405	-0.922915
C176	C	1.258025	0.250595	-0.422915
C177	C	0.727533	-0.279878	-0.881597
C178	C	1.227533	0.220122	-0.381597
C179	C	0.730524	-0.276908	-0.787194
C180	C	1.230524	0.223092	-0.287194
C181	C	0.755035	-0.252375	-1.017326
C182	C	1.255035	0.247625	-0.517326
C183	C	0.749614	-0.257825	-0.185234
C184	C	1.249614	0.242175	0.314766
C185	C	0.752650	-0.254743	-0.092572
C186	C	1.252650	0.245257	0.407428
H187	H	0.188718	-0.363722	-0.551646
H188	H	0.688718	0.136278	-0.051646
Br189	Br	0.433793	-0.181805	-0.276344
Br190	Br	0.933793	0.318195	0.223656
H191	H	0.806472	-0.559708	-0.305200
H192	H	1.306472	-0.059708	0.194800
H193	H	0.679089	-1.068250	-0.498535
H194	H	1.179089	-0.568250	0.001465
H195	H	0.044407	-0.200923	-0.305341
H196	H	0.544407	0.299077	0.194659
Br197	Br	0.624791	-0.834516	-0.580711
Br198	Br	1.124791	-0.334516	-0.080711
Br199	Br	0.659826	-0.581659	-0.527358
Br200	Br	1.159826	-0.081659	-0.027358
H201	H	0.198232	-0.165728	-0.252101
H202	H	0.698232	0.334272	0.247899
H203	H	-0.054642	-0.200941	-0.305351
H204	H	0.445358	0.299059	0.194649
Br205	Br	0.825727	-1.075969	-0.276373
Br206	Br	1.325727	-0.575969	0.223627
Br207	Br	0.680279	-0.327078	-0.940802
Br208	Br	1.180279	0.172922	-0.440802
Br209	Br	0.301666	-0.382813	-0.580511
Br210	Br	0.801666	0.117187	-0.080511
H211	H	-0.060784	-0.328570	-0.498472
H212	H	0.439216	0.171430	0.001528
H213	H	0.786375	-0.221090	-0.887393
H214	H	1.286375	0.278910	-0.387393
H215	H	0.540632	-0.328525	-0.498330
H216	H	1.040632	0.171475	0.001670
Br217	Br	0.562506	-0.181792	-0.276330
Br218	Br	1.062506	0.318208	0.223670
Br219	Br	0.425844	-0.347628	-0.527270
Br220	Br	0.925844	0.152372	-0.027270
H221	H	0.038282	-0.328566	-0.498455
H222	H	0.538282	0.171434	0.001545
H223	H	0.841711	-0.809175	-0.251990
H224	H	1.341711	-0.309175	0.248010
Br225	Br	0.825688	-0.947259	-0.276344
Br226	Br	1.325688	-0.447259	0.223656
Br227	Br	0.659971	-0.955307	-0.527446
Br228	Br	1.159971	-0.455307	-0.027446
H229	H	0.678879	-0.466844	-0.498431
H230	H	1.178879	0.033156	0.001569
Br231	Br	0.313021	-0.146617	-0.223200
Br232	Br	0.813021	0.353383	0.276800
H233	H	0.806425	-0.460656	-0.305175
H234	H	1.306425	0.039344	0.194825
H235	H	0.643837	-0.719721	-0.551765
H236	H	1.143837	-0.219721	-0.051765
Br237	Br	0.860758	-0.694384	-0.223057
Br238	Br	1.360758	-0.194384	0.276943
