data_functionalizedCrystal
_audit_creation_method	'MofGen! by Chris Wilmer'
_symmetry_space_group_name_H-M	'P1'
_symmetry_Int_Tables_number	1
_symmetry_cell_setting	triclinic
loop_
_symmetry_equiv_pos_as_xyz
  x,y,z
_cell_length_a	13.635800
_cell_length_b	19.452420
_cell_length_c	17.078481
_cell_angle_alpha	83.343286
_cell_angle_beta	99.306161
_cell_angle_gamma	78.303285
loop_
_atom_site_label
_atom_site_type_symbol
_atom_site_fract_x
_atom_site_fract_y
_atom_site_fract_z
V1	V	1.985386	-0.097019	0.247749
O2	O	1.984243	0.004831	0.242634
O3	O	1.956943	-0.192534	0.246439
O4	O	1.950980	-0.095452	0.355626
O5	O	1.990247	-0.092923	0.132691
V6	V	2.229072	-0.084845	0.233940
O7	O	2.111793	-0.123723	0.278039
O8	O	2.327764	-0.058141	0.203650
O9	O	2.145912	0.010670	0.235251
O10	O	2.288913	-0.186695	0.239056
O11	O	2.282910	-0.088941	0.348999
O12	O	2.151875	-0.086411	0.126064
V13	V	2.485386	-0.097019	0.247749
O14	O	2.484243	0.004831	0.242634
O15	O	2.456943	-0.192534	0.246439
O16	O	2.450980	-0.095452	0.355626
O17	O	2.490247	-0.092923	0.132691
V18	V	2.729072	-0.084845	0.233940
O19	O	2.611793	-0.123723	0.278039
O20	O	2.827764	-0.058141	0.203650
O21	O	2.645912	0.010670	0.235251
O22	O	2.788913	-0.186695	0.239056
O23	O	2.782910	-0.088941	0.348999
O24	O	2.651875	-0.086411	0.126064
C25	C	1.878741	-0.215821	0.242630
C26	C	1.896061	-0.293906	0.242277
C27	C	1.891454	-0.320583	0.169409
C28	C	1.907766	-0.393950	0.169053
C29	C	1.928665	-0.440636	0.241570
C30	C	1.933277	-0.413952	0.314448
C31	C	1.916975	-0.340586	0.314802
N32	N	1.907232	-0.561051	0.292642
N33	N	1.922715	-0.630744	0.292301
C34	C	1.977784	-0.661683	0.240509
N35	N	2.016771	-0.620293	0.189058
N36	N	2.001282	-0.550593	0.189396
C37	C	1.946344	-0.520190	0.241195
C38	C	1.990865	-0.767912	0.167250
C39	C	2.007184	-0.841281	0.166898
C40	C	2.032685	-0.861281	0.312295
C41	C	2.016376	-0.787914	0.312645
C42	C	1.995462	-0.741233	0.240120
C43	C	1.871135	-0.091983	0.381907
C44	C	1.883619	-0.091334	0.470100
C45	C	2.055785	0.033953	0.239058
C46	C	2.028083	0.112037	0.239415
C47	C	2.063391	-0.089883	0.099778
C48	C	2.040527	-0.090529	0.011585
C49	C	2.378741	-0.215821	0.242630
C50	C	2.396061	-0.293906	0.242277
C51	C	2.371135	-0.091983	0.381907
C52	C	2.383619	-0.091334	0.470100
C53	C	1.979994	-0.094536	0.515588
C54	C	1.991717	-0.093926	0.598454
C55	C	1.907065	-0.090119	0.635830
C56	C	1.810682	-0.086915	0.590335
C57	C	1.798959	-0.087520	0.507470
C58	C	1.932421	-0.087929	0.883225
C59	C	1.944152	-0.087327	0.966096
C60	C	2.125186	-0.094336	0.974209
C61	C	2.113455	-0.094945	0.891343
C62	C	2.017073	-0.091737	0.845854
N63	N	1.919047	-0.089498	0.720533
N64	N	2.005091	-0.092354	0.761153
C65	C	2.555785	0.033953	0.239058
C66	C	2.528083	0.112037	0.239415
C67	C	2.563391	-0.089883	0.099778
C68	C	2.540527	-0.090529	0.011585
C69	C	2.494720	-0.334154	0.246090
C70	C	2.511010	-0.407525	0.245771
C71	C	2.428639	-0.440645	0.241634
C72	C	2.329973	-0.400392	0.237823
C73	C	2.313685	-0.327023	0.238148
C74	C	2.480000	-0.094529	0.515574
C75	C	2.491741	-0.093910	0.598438
C76	C	2.407101	-0.090102	0.635829
C77	C	2.310711	-0.086904	0.590348
C78	C	2.298970	-0.087518	0.507484
C79	C	2.601918	0.152285	0.235605
C80	C	2.575900	0.225656	0.235927
C81	C	2.476047	0.258776	0.240066
C82	C	2.402207	0.218523	0.243875
C83	C	2.428224	0.145155	0.243546
C84	C	2.442935	-0.094329	-0.025785
C85	C	2.421435	-0.094927	-0.108653
C86	C	2.497530	-0.091729	-0.154148
C87	C	2.595130	-0.087926	-0.116773
C88	C	2.616626	-0.087324	-0.033908
H89	H	1.904013	-0.415675	0.109713
H90	H	2.241802	-0.083804	0.620804
H91	H	2.233344	-0.294258	0.235039
N92	N	2.419797	-0.089443	0.725206
H93	H	2.398038	-0.131660	0.751471
H94	H	2.376165	-0.044154	0.735639
H95	H	2.220485	-0.084918	0.470465
N96	N	2.709619	0.116572	0.231142
H97	H	2.752433	0.153211	0.228774
H98	H	2.708914	0.093075	0.181394
N99	N	2.583580	-0.298448	0.250562
H100	H	2.589523	-0.274954	0.300311
H101	H	2.572154	-0.261414	0.201405
N102	N	2.655552	0.269060	0.231833
H103	H	2.722756	0.236939	0.229174
H104	H	2.663815	0.292865	0.281237
N105	N	2.617430	-0.450931	0.249880
H106	H	2.667132	-0.418811	0.252541
H107	H	2.619462	-0.474743	0.200481
N108	N	2.095669	-0.097391	0.647517
H109	H	2.090253	-0.096428	0.705683
H110	H	2.122217	-0.055290	0.626927
H111	H	2.203658	-0.096947	1.011254
N112	N	2.447994	0.337909	0.240425
H113	H	2.509928	0.358374	0.237386
H114	H	2.422896	0.347333	0.291507
N115	N	2.204756	-0.099046	0.851029
H116	H	2.257308	-0.144210	0.875103
H117	H	2.235344	-0.056699	0.859356
H118	H	2.548930	-0.097632	0.485142
H119	H	2.320906	0.245501	0.247244
N120	N	2.002218	-0.870050	0.088295
H121	H	1.932249	-0.850494	0.053880
H122	H	2.015770	-0.923608	0.099137
H123	H	2.368096	0.112389	0.246657
H124	H	2.049702	-0.899293	0.371339
N125	N	1.852841	-0.083200	1.006409
H126	H	1.790001	-0.081251	0.965017
H127	H	1.842852	-0.039052	1.032729
H128	H	1.853948	-0.085343	0.846202
N129	N	2.446214	-0.519779	0.241284
H130	H	2.521217	-0.540245	0.244325
H131	H	2.405876	-0.529208	0.190204
H132	H	1.920731	-0.318867	0.374142
N133	N	2.071292	-0.098634	0.475272
H134	H	2.081405	-0.142780	0.448949
H135	H	2.134069	-0.100537	0.516705
H136	H	2.657079	-0.085321	-0.153828
H137	H	1.973835	-0.729903	0.108196
H138	H	2.341960	-0.098023	-0.139071
H139	H	2.020121	-0.766194	0.371982
N140	N	2.360854	-0.097783	0.023276
H141	H	2.295772	-0.100279	-0.012983
H142	H	2.348436	-0.053945	0.049958
H143	H	1.741757	-0.083812	0.620773
N144	N	2.721894	-0.083226	0.006386
H145	H	2.773663	-0.125542	-0.001941
H146	H	2.723891	-0.083305	0.065770
H147	H	1.874432	-0.282579	0.110354
N148	N	1.695010	-0.084062	0.458403
H149	H	1.643162	-0.081559	0.494653
H150	H	1.697136	-0.127899	0.431719
H151	H	2.262911	-0.427370	0.234455
H152	H	1.950295	-0.451969	0.373492
H153	H	2.570234	-0.096516	0.635458
H154	H	2.480016	-0.092229	-0.221620
