data_functionalizedCrystal
_audit_creation_method	'MofGen! by Chris Wilmer'
_symmetry_space_group_name_H-M	'P1'
_symmetry_Int_Tables_number	1
_symmetry_cell_setting	triclinic
loop_
_symmetry_equiv_pos_as_xyz
  x,y,z
_cell_length_a	17.699083
_cell_length_b	10.489741
_cell_length_c	16.176319
_cell_angle_alpha	89.993511
_cell_angle_beta	89.998611
_cell_angle_gamma	83.911094
loop_
_atom_site_label
_atom_site_type_symbol
_atom_site_fract_x
_atom_site_fract_y
_atom_site_fract_z
O1	O	1.005134	0.161296	-0.068630
O2	O	0.784893	0.182281	-0.068657
O3	O	0.900025	-0.013903	-0.068638
O4	O	0.890002	0.357479	-0.068649
O5	O	0.900009	-0.013915	0.068855
O6	O	0.784877	0.182268	0.068836
O7	O	1.005118	0.161283	0.068863
Cu8	Cu	0.894996	0.171775	0.081404
Cu9	Cu	0.895015	0.171789	-0.081198
O10	O	0.889986	0.357467	0.068844
C11	C	0.756683	0.181523	0.000086
C12	C	0.672650	0.179267	0.000076
C13	C	0.899260	-0.061427	0.000108
C14	C	0.896995	-0.203014	0.000106
C15	C	0.624782	0.294422	0.000073
C16	C	0.545825	0.292295	0.000083
C17	C	0.514737	0.175011	0.000091
C18	C	0.562611	0.059847	0.000097
C19	C	0.641567	0.061975	0.000092
C20	C	0.244192	0.051260	0.000118
C21	C	0.165230	0.049140	0.000120
C22	C	0.148450	0.281580	0.000109
C23	C	0.227406	0.283709	0.000104
C24	C	0.275273	0.168545	0.000114
C25	C	0.360887	0.170853	0.000104
C26	C	0.429124	0.172702	0.000096
C27	C	0.823740	-0.269793	0.000091
C28	C	0.858337	-0.362565	0.067887
C29	C	0.858370	-0.362527	-0.067671
C30	C	0.931622	-0.293921	0.067958
C31	C	0.931645	-0.293874	-0.067661
C32	C	0.966296	-0.386619	0.000151
C33	C	1.033328	0.162042	0.000118
C34	C	1.117361	0.164297	0.000123
C35	C	0.890751	0.404991	0.000096
C36	C	0.893016	0.546578	0.000093
N37	N	0.894988	0.171764	0.195769
N38	N	0.895029	0.171790	-0.195563
C39	C	0.945984	0.084929	0.239042
C40	C	0.945988	0.084928	0.325589
C41	C	0.894999	0.171768	0.368862
C42	C	0.843997	0.258607	0.325583
C43	C	0.843990	0.258601	0.239037
C44	C	0.844023	0.258631	0.674611
C45	C	0.844036	0.258632	0.761163
C46	C	0.946021	0.084957	0.761162
C47	C	0.946014	0.084951	0.674617
C48	C	0.895010	0.171785	0.631346
C49	C	0.895006	0.171784	0.537502
C50	C	0.895006	0.171776	0.462704
H51	H	0.650088	0.389929	0.000065
C52	C	0.788621	0.353055	0.627788
C53	C	0.743986	0.429129	0.684211
C54	C	0.692946	0.516143	0.641105
H55	H	0.756791	0.307389	0.594034
H56	H	0.816110	0.406163	0.594034
H57	H	0.716499	0.376028	0.717951
H58	H	0.775795	0.474824	0.717967
H59	H	0.720435	0.569251	0.607351
H60	H	0.661122	0.470466	0.607352
H61	H	0.662661	0.567778	0.679381
H62	H	0.802511	0.329350	0.796394
H63	H	0.987537	0.014242	0.639387
H64	H	0.987512	0.014220	0.360821
C65	C	0.743374	-0.202326	0.000212
C66	C	0.691272	-0.293862	0.001007
C67	C	0.617236	-0.231759	0.001134
H68	H	0.735714	-0.150772	-0.047956
H69	H	0.736151	-0.149672	0.047940
H70	H	0.698492	-0.346494	-0.046717
H71	H	0.698908	-0.345420	0.049171
H72	H	0.610013	-0.179105	0.048862
H73	H	0.609583	-0.180208	-0.047034
H74	H	0.581875	-0.293857	0.001681
C75	C	0.788721	0.352836	0.372712
C76	C	0.799655	0.334284	0.457767
C77	C	0.748756	0.421081	0.501205
H78	H	0.738101	0.339174	0.358638
H79	H	0.797407	0.437971	0.358563
H80	H	0.790963	0.249169	0.471909
H81	H	0.850264	0.347956	0.471865
H82	H	0.757442	0.506215	0.487057
H83	H	0.698140	0.407412	0.487125
H84	H	0.756173	0.408513	0.558919
H85	H	0.109467	0.375352	0.000105
H86	H	0.802463	0.329309	0.203806
C87	C	0.817144	-0.403272	0.144370
C88	C	0.866556	-0.487704	0.191269
C89	C	0.828634	-0.525213	0.261731
H90	H	0.774385	-0.444909	0.128174
H91	H	0.800672	-0.329797	0.176561
H92	H	0.883017	-0.561167	0.159083
H93	H	0.909315	-0.446095	0.207486
H94	H	0.812161	-0.451738	0.293923
H95	H	0.785876	-0.566845	0.245527
H96	H	0.862156	-0.582494	0.293565
C97	C	0.817048	-0.402812	-0.144169
C98	C	0.792852	-0.294229	-0.191382
C99	C	0.754788	-0.331284	-0.261859
H100	H	0.774240	-0.444337	-0.127989
H101	H	0.850459	-0.460067	-0.176142
H102	H	0.759443	-0.236995	-0.159415
H103	H	0.835645	-0.252690	-0.207583
H104	H	0.788199	-0.388540	-0.293832
H105	H	0.711983	-0.372810	-0.245670
H106	H	0.738372	-0.257619	-0.293905
H107	H	0.537293	-0.035648	0.000115
C108	C	0.131622	-0.078335	0.000177
C109	C	0.190440	-0.178736	0.000208
C110	C	0.159508	-0.296176	0.000270
H111	H	0.101180	-0.084178	-0.047756
H112	H	0.101190	-0.084057	0.048144
H113	H	0.220859	-0.173017	-0.047754
H114	H	0.220886	-0.172935	0.048137
H115	H	0.129077	-0.301899	0.048237
H116	H	0.129067	-0.302006	-0.047664
H117	H	0.199411	-0.364312	0.000299
H118	H	0.962584	-0.263669	0.125338
H119	H	0.987549	0.014248	0.796403
H120	H	0.506854	0.386067	0.000080
C121	C	0.973078	-0.253181	-0.143977
C122	C	1.036849	-0.194076	-0.119758
C123	C	1.075033	-0.156584	-0.190045
H124	H	0.940019	-0.194569	-0.175395
H125	H	0.988794	-0.326467	-0.176661
H126	H	1.021132	-0.120800	-0.087087
H127	H	1.069926	-0.252665	-0.088350
H128	H	1.090750	-0.229870	-0.222729
H129	H	1.041968	-0.097976	-0.221458
H130	H	1.118310	-0.116488	-0.173622
H131	H	0.252713	0.379213	0.000094
H132	H	0.283156	-0.042514	0.000127
H133	H	0.680540	-0.031796	0.000094
C134	C	1.001379	-0.009501	0.192213
C135	C	1.046025	-0.085570	0.248638
C136	C	1.097055	-0.172589	0.205533
H137	H	1.033201	0.036161	0.158439
H138	H	0.973882	-0.062612	0.158479
H139	H	1.073520	-0.032466	0.282358
H140	H	1.014223	-0.131261	0.282413
H141	H	1.069558	-0.225700	0.171799
H142	H	1.128872	-0.126916	0.171761
H143	H	1.127349	-0.224220	0.243810
H144	H	1.026580	-0.437163	0.000196
