data_functionalizedCrystal
_audit_creation_method	'MofGen! by Chris Wilmer'
_symmetry_space_group_name_H-M	'P1'
_symmetry_Int_Tables_number	1
_symmetry_cell_setting	triclinic
loop_
_symmetry_equiv_pos_as_xyz
  x,y,z
_cell_length_a	13.897449
_cell_length_b	16.625546
_cell_length_c	13.897449
_cell_angle_alpha	90.013119
_cell_angle_beta	90.005980
_cell_angle_gamma	90.023748
loop_
_atom_site_label
_atom_site_type_symbol
_atom_site_fract_x
_atom_site_fract_y
_atom_site_fract_z
Zn1	Zn	1.474530	-0.321110	0.545362
Zn2	Zn	1.724530	-0.071110	0.795362
Zn3	Zn	1.974530	0.178890	1.045362
Zn4	Zn	2.224530	0.428890	1.295362
Zn5	Zn	1.474452	-0.455913	0.384055
Zn6	Zn	1.724452	-0.205913	0.634055
Zn7	Zn	1.974452	0.044087	0.884055
Zn8	Zn	2.224452	0.294087	1.134055
Zn9	Zn	1.313261	-0.321101	0.384080
Zn10	Zn	1.563261	-0.071101	0.634080
Zn11	Zn	1.813261	0.178899	0.884080
Zn12	Zn	2.063261	0.428899	1.134080
Zn13	Zn	1.313188	-0.455907	0.545308
Zn14	Zn	1.563188	-0.205907	0.795308
Zn15	Zn	1.813188	0.044093	1.045308
Zn16	Zn	2.063188	0.294093	1.295308
O17	O	1.393858	-0.388508	0.464701
O18	O	1.643858	-0.138508	0.714701
O19	O	1.893858	0.111492	0.964701
O20	O	2.143858	0.361492	1.214701
O21	O	1.609501	-0.338998	0.523976
O22	O	1.859501	-0.088998	0.773976
O23	O	2.109501	0.161002	1.023976
O24	O	2.359501	0.411002	1.273976
O25	O	1.453068	-0.438028	0.249077
O26	O	1.703068	-0.188028	0.499077
O27	O	1.953068	0.061972	0.749077
O28	O	2.203068	0.311972	0.999077
O29	O	1.334717	-0.208270	0.405508
O30	O	1.584717	0.041730	0.655508
O31	O	1.834717	0.291730	0.905508
O32	O	2.084717	0.541730	1.155508
O33	O	1.609444	-0.438037	0.405465
O34	O	1.859444	-0.188037	0.655465
O35	O	2.109444	0.061963	0.905465
O36	O	2.359444	0.311963	1.155465
O37	O	1.453201	-0.208277	0.524000
O38	O	1.703201	0.041723	0.774000
O39	O	1.953201	0.291723	1.024000
O40	O	2.203201	0.541723	1.274000
O41	O	1.334641	-0.338982	0.249095
O42	O	1.584641	-0.088982	0.499095
O43	O	1.834641	0.161018	0.749095
O44	O	2.084641	0.411018	0.999095
O45	O	1.178269	-0.338977	0.405455
O46	O	1.428269	-0.088977	0.655455
O47	O	1.678269	0.161023	0.905455
O48	O	1.928269	0.411023	1.155455
O49	O	1.334592	-0.438028	0.680296
O50	O	1.584592	-0.188028	0.930296
O51	O	1.834592	0.061972	1.180296
O52	O	2.084592	0.311972	1.430296
O53	O	1.178216	-0.438019	0.523908
O54	O	1.428216	-0.188019	0.773908
O55	O	1.678216	0.061981	1.023908
O56	O	1.928216	0.311981	1.273908
O57	O	1.453130	-0.338993	0.680336
O58	O	1.703130	-0.088993	0.930336
O59	O	1.953130	0.161007	1.180336
O60	O	2.203130	0.411007	1.430336
O61	O	1.452997	-0.568744	0.405413
O62	O	1.702997	-0.318744	0.655413
O63	O	1.952997	-0.068744	0.905413
O64	O	2.202997	0.181256	1.155413
O65	O	1.334516	-0.568741	0.523884
O66	O	1.584516	-0.318741	0.773884
O67	O	1.834516	-0.068741	1.023884
O68	O	2.084516	0.181259	1.273884
C69	C	1.143243	-0.388497	0.464679
C70	C	1.393243	-0.138497	0.714679
C71	C	1.643243	0.111503	0.964679
C72	C	1.893243	0.361503	1.214679
C73	C	1.036029	-0.388512	0.464693
C74	C	1.286029	-0.138512	0.714693
C75	C	1.536029	0.111488	0.964693
C76	C	1.786029	0.361488	1.214693
C77	C	0.839734	-0.388515	0.464718
C78	C	1.089734	-0.138515	0.714718
C79	C	1.339734	0.111485	0.964718
C80	C	1.589734	0.361485	1.214718
C81	C	0.948967	-0.388511	0.464701
C82	C	1.198967	-0.138511	0.714701
C83	C	1.448967	0.111489	0.964701
C84	C	1.698967	0.361489	1.214701
C85	C	1.393766	-0.597999	0.464661
C86	C	1.643766	-0.347999	0.714661
C87	C	1.893766	-0.097999	0.964661
C88	C	2.143766	0.152001	1.214661
C89	C	1.393816	-0.687620	0.464676
C90	C	1.643816	-0.437620	0.714676
C91	C	1.893816	-0.187620	0.964676
C92	C	2.143816	0.062380	1.214676
C93	C	1.393984	-1.015795	0.464776
C94	C	1.643984	-0.765795	0.714776
C95	C	1.893984	-0.515795	0.964776
C96	C	2.143984	-0.265795	1.214776
C97	C	1.393934	-0.924487	0.464751
C98	C	1.643934	-0.674487	0.714751
C99	C	1.893934	-0.424487	0.964751
C100	C	2.143934	-0.174487	1.214751
C101	C	1.393899	-0.851710	0.464725
C102	C	1.643899	-0.601710	0.714725
C103	C	1.893899	-0.351710	0.964725
C104	C	2.143899	-0.101710	1.214725
C105	C	1.393851	-0.760396	0.464701
C106	C	1.643851	-0.510396	0.714701
C107	C	1.893851	-0.260396	0.964701
C108	C	2.143851	-0.010396	1.214701
C109	C	1.645451	-0.388519	0.464724
C110	C	1.895451	-0.138519	0.714724
C111	C	2.145451	0.111481	0.964724
C112	C	2.395451	0.361481	1.214724
C113	C	1.752664	-0.388524	0.464733
C114	C	2.002664	-0.138524	0.714733
C115	C	2.252664	0.111476	0.964733
C116	C	2.502664	0.361476	1.214733
C117	C	1.393861	-0.388511	0.716294
C118	C	1.643861	-0.138511	0.966294
C119	C	1.893861	0.111489	1.216294
C120	C	2.143861	0.361489	1.466294
C121	C	1.393863	-0.388513	0.823508
C122	C	1.643863	-0.138513	1.073508
C123	C	1.893863	0.111487	1.323508
C124	C	2.143863	0.361487	1.573508
C125	C	1.393976	-0.178199	0.464763
C126	C	1.643976	0.071801	0.714763
C127	C	1.893976	0.321801	0.964763
C128	C	2.143976	0.571801	1.214763
C129	C	1.394026	-0.088578	0.464789
C130	C	1.644026	0.161422	0.714789
C131	C	1.894026	0.411422	0.964789
C132	C	2.144026	0.661422	1.214789
C133	C	1.393838	-0.388516	1.019803
C134	C	1.643838	-0.138516	1.269803
C135	C	1.893838	0.111484	1.519803
C136	C	2.143838	0.361484	1.769803
C137	C	1.393849	-0.388516	0.910571
C138	C	1.643849	-0.138516	1.160571
C139	C	1.893849	0.111484	1.410571
C140	C	2.143849	0.361484	1.660571
C141	C	1.393845	-0.388521	1.214087
C142	C	1.643845	-0.138521	1.464087
C143	C	1.893845	0.111479	1.714087
C144	C	2.143845	0.361479	1.964087
C145	C	1.393837	-0.388514	1.106873
C146	C	1.643837	-0.138514	1.356873
C147	C	1.893837	0.111486	1.606873
C148	C	2.143837	0.361486	1.856873
