data_functionalizedCrystal
_audit_creation_method	'MofGen! by Chris Wilmer'
_symmetry_space_group_name_H-M	'P1'
_symmetry_Int_Tables_number	1
_symmetry_cell_setting	triclinic
loop_
_symmetry_equiv_pos_as_xyz
  x,y,z
_cell_length_a	27.731994
_cell_length_b	27.732064
_cell_length_c	26.809956
_cell_angle_alpha	90.008400
_cell_angle_beta	89.997334
_cell_angle_gamma	82.634978
loop_
_atom_site_label
_atom_site_type_symbol
_atom_site_fract_x
_atom_site_fract_y
_atom_site_fract_z
O1	O	0.640952	0.057385	-0.041404
O2	O	0.500155	0.066158	-0.041420
O3	O	0.574922	-0.008626	-0.041414
O4	O	0.566185	0.132168	-0.041411
O5	O	0.574908	-0.008614	0.041545
O6	O	0.500141	0.066169	0.041539
O7	O	0.640938	0.057396	0.041555
Zn8	Zn	0.570537	0.061785	0.054718
Zn9	Zn	0.570556	0.061770	-0.054584
O10	O	0.566171	0.132180	0.041548
C11	C	0.482140	0.065983	0.000057
C12	C	0.428484	0.065441	0.000051
C13	C	0.095758	0.062032	0.045291
C14	C	-0.105900	0.059970	0.045297
O15	O	-0.131980	0.059688	0.083755
N16	N	-0.131108	0.059708	0.000076
C17	C	-0.105897	0.059958	-0.045150
O18	O	-0.131963	0.059682	-0.083613
C19	C	0.095761	0.062016	-0.045155
C20	C	0.120965	0.062283	0.000069
C21	C	0.120962	0.062298	0.090511
C22	C	0.171373	0.062816	0.090510
C23	C	0.196580	0.063068	0.045287
C24	C	0.171376	0.062801	0.000067
C25	C	0.120972	0.062262	-0.090380
C26	C	0.171389	0.062776	-0.090377
C27	C	0.196593	0.063043	-0.045153
C28	C	0.246995	0.063570	-0.045157
N29	N	0.272202	0.063833	0.000064
C30	C	0.246994	0.063581	0.045286
C31	C	-0.211770	0.058878	-0.045144
C32	C	-0.262184	0.058364	-0.045143
C33	C	-0.262185	0.058376	0.045304
C34	C	-0.211770	0.058893	0.045302
C35	C	-0.186563	0.059140	0.000077
C36	C	0.352862	0.064670	0.045279
C37	C	0.403277	0.065190	0.045273
C38	C	0.403273	0.065176	-0.045174
C39	C	0.352862	0.064658	-0.045168
C40	C	0.327657	0.064403	0.000062
O41	O	0.273105	0.063847	-0.083595
O42	O	0.273071	0.063846	0.083744
C43	C	0.045347	0.061514	0.045293
C44	C	0.020143	0.061247	0.000073
C45	C	0.045350	0.061498	-0.045150
C46	C	-0.030272	0.060733	0.000074
C47	C	-0.055479	0.060482	0.045296
C48	C	-0.030272	0.060744	0.090517
C49	C	0.020139	0.061262	0.090515
C50	C	0.020143	0.061236	-0.090371
C51	C	-0.030269	0.060719	-0.090365
C52	C	-0.055476	0.060467	-0.045143
C53	C	0.574730	-0.026627	0.000064
C54	C	0.574174	-0.080281	0.000060
C55	C	0.526206	-0.457344	0.000052
C56	C	0.528252	-0.255685	0.000052
O57	O	0.491030	-0.224425	0.000028
N58	N	0.572588	-0.236566	0.000057
C59	C	0.616415	-0.267865	0.000058
O60	O	0.654172	-0.246976	0.000058
C61	C	0.614368	-0.469524	0.000055
C62	C	0.570029	-0.488640	0.000055
C63	C	0.481871	-0.476461	0.000052
C64	C	0.481360	-0.526873	0.000054
C65	C	0.525184	-0.558168	0.000058
C66	C	0.569518	-0.539052	0.000058
C67	C	0.658194	-0.500823	0.000054
C68	C	0.657679	-0.551240	0.000051
C69	C	0.613340	-0.570356	0.000052
C70	C	0.612831	-0.620760	0.000064
N71	N	0.568495	-0.639879	0.000059
C72	C	0.524672	-0.608583	0.000056
C73	C	0.617486	-0.161991	0.000061
C74	C	0.617998	-0.111577	0.000063
C75	C	0.529835	-0.099399	0.000055
C76	C	0.529324	-0.149815	0.000057
C77	C	0.573151	-0.181110	0.000056
C78	C	0.523602	-0.714452	0.000062
C79	C	0.523095	-0.764869	0.000067
C80	C	0.611257	-0.777042	0.000072
C81	C	0.611764	-0.726630	0.000070
C82	C	0.567933	-0.695335	0.000063
O83	O	0.650033	-0.652048	0.000083
O84	O	0.486920	-0.629481	0.000046
C85	C	0.526717	-0.406932	0.000049
C86	C	0.571052	-0.387816	0.000050
C87	C	0.614875	-0.419112	0.000053
C88	C	0.571563	-0.337402	0.000051
C89	C	0.527740	-0.306106	0.000048
C90	C	0.483404	-0.325225	0.000043
C91	C	0.482893	-0.375637	0.000046
C92	C	0.659211	-0.399993	0.000058
C93	C	0.659718	-0.349580	0.000056
C94	C	0.615895	-0.318285	0.000052
C95	C	0.658952	0.057571	0.000076
C96	C	0.712608	0.058113	0.000079
C97	C	0.566362	0.150181	0.000069
C98	C	0.566918	0.203835	0.000071
N99	N	0.570528	0.061795	0.129314
N100	N	0.570569	0.061756	-0.129180
C101	C	0.603658	0.028664	0.473943
C102	C	0.603670	0.028656	0.682821
O103	O	0.631818	0.000490	0.709827
N104	N	0.570558	0.061759	0.708942
C105	C	0.537439	0.094864	0.682839
O106	O	0.509273	0.123016	0.709849
C107	C	0.537426	0.094868	0.473963
C108	C	0.570543	0.061767	0.447845
C109	C	0.636772	-0.004436	0.447826
C110	C	0.636770	-0.004432	0.395609
C111	C	0.603655	0.028671	0.369511
C112	C	0.570541	0.061771	0.395629
C113	C	0.504305	0.127971	0.447861
C114	C	0.504304	0.127968	0.395639
C115	C	0.537421	0.094866	0.369521
C116	C	0.537425	0.094878	0.317314
N117	N	0.570536	0.061775	0.291193
C118	C	0.603651	0.028672	0.317292
C119	C	0.537449	0.094859	0.792503
C120	C	0.537453	0.094859	0.844722
C121	C	0.603683	0.028651	0.844700
C122	C	0.603681	0.028654	0.792480
C123	C	0.570561	0.061757	0.766382
C124	C	0.603646	0.028683	0.207634
C125	C	0.603643	0.028691	0.155413
C126	C	0.537412	0.094898	0.155439
C127	C	0.537416	0.094891	0.207656
C128	C	0.570535	0.061780	0.233752
O129	O	0.509287	0.123026	0.290275
O130	O	0.631806	0.000517	0.290273
C131	C	0.603660	0.028660	0.526160
C132	C	0.570546	0.061759	0.552277
C133	C	0.537431	0.094862	0.526179
C134	C	0.570550	0.061758	0.604496
C135	C	0.603665	0.028655	0.630595
C136	C	0.636776	-0.004448	0.604474
C137	C	0.636775	-0.004444	0.552258
C138	C	0.504319	0.127965	0.552299
C139	C	0.504324	0.127959	0.604516
C140	C	0.537439	0.094855	0.630614
H141	H	0.191890	0.063031	0.127336
O142	O	0.476327	-0.680705	0.000064
H143	H	0.455090	-0.687471	-0.033745
O144	O	0.665821	-0.090964	0.000062
H145	H	0.686860	-0.103561	0.033872
O146	O	0.501739	0.130568	0.872886
H147	H	0.507303	0.125013	0.913583
H148	H	0.423806	0.065382	-0.081992
H149	H	-0.191252	0.059111	0.082128
H150	H	0.477332	0.154924	0.374393
O151	O	0.468607	0.163665	0.632688
H152	H	0.488783	0.187014	0.656479
H153	H	0.477352	0.154921	0.531054
H154	H	0.646937	-0.802532	0.000077
H155	H	0.663736	-0.031387	0.374347
H156	H	0.423795	0.065409	0.082102
H157	H	0.510478	0.121817	0.771257
O158	O	0.047315	0.061553	0.139296
H159	H	0.074843	0.028833	0.141467
O160	O	0.093777	0.062032	0.139291
H161	H	0.119780	0.062308	0.170730
O162	O	0.664760	-0.195743	0.000063
H163	H	0.666630	-0.219000	0.033874
H164	H	0.332346	0.064467	0.082110
H165	H	0.647868	-0.711065	0.000077
H166	H	0.446788	-0.391196	0.000046
O167	O	0.706017	-0.480212	0.000041
H168	H	0.736399	-0.510451	0.000033
O169	O	0.475271	-0.785488	0.000069
H170	H	0.454238	-0.772902	-0.033748
H171	H	0.191910	0.062977	-0.127206
O172	O	0.436135	-0.291466	0.000039
H173	H	0.443945	-0.253200	0.000033
O174	O	0.704950	-0.584996	0.000056
H175	H	0.735863	-0.563229	0.000061
H176	H	0.494152	-0.073910	0.000055
H177	H	-0.282717	0.058172	0.082126
O178	O	0.433536	-0.547485	0.000052
H179	H	0.431197	-0.570170	-0.033759
H180	H	0.477339	0.154925	0.469119
O181	O	0.672498	-0.040136	0.475971
H182	H	0.695524	-0.063144	0.449029
H183	H	0.510454	0.121850	0.228921
O184	O	0.707543	-0.328964	0.000050
H185	H	0.737928	-0.359201	0.000045
H186	H	0.630647	0.001700	0.771218
O187	O	0.706480	-0.433745	0.000070
H188	H	0.737391	-0.411976	0.000078
H189	H	-0.191251	0.059079	-0.081974
H190	H	0.630612	0.001736	0.134149
O191	O	0.639372	-0.007027	0.235772
H192	H	0.619209	-0.030388	0.259557
H193	H	0.332339	0.064449	-0.081993
H194	H	0.630647	0.001697	0.865958
H195	H	0.446182	-0.450984	0.000047
O196	O	0.501683	0.130590	0.127286
H197	H	0.507242	0.125020	0.086588
H198	H	0.663741	-0.031398	0.530997
O199	O	0.672493	-0.040155	0.632628
H200	H	0.666924	-0.034594	0.673326
O201	O	-0.289364	0.058084	-0.093922
H202	H	-0.328657	0.057689	-0.086330
O203	O	0.093798	0.061949	-0.139158
H204	H	0.119805	0.062195	-0.170599
H205	H	-0.050805	0.060542	0.127339
O206	O	0.481503	-0.170432	0.000052
H207	H	0.451118	-0.140196	0.000048
H208	H	-0.050786	0.060505	-0.127195
H209	H	0.040661	0.061439	-0.127197
