data_functionalizedCrystal
_audit_creation_method	'MofGen! by Chris Wilmer'
_symmetry_space_group_name_H-M	'P1'
_symmetry_Int_Tables_number	1
_symmetry_cell_setting	triclinic
loop_
_symmetry_equiv_pos_as_xyz
  x,y,z
_cell_length_a	16.974800
_cell_length_b	17.019294
_cell_length_c	15.455313
_cell_angle_alpha	88.788101
_cell_angle_beta	90.973911
_cell_angle_gamma	83.640951
loop_
_atom_site_label
_atom_site_type_symbol
_atom_site_fract_x
_atom_site_fract_y
_atom_site_fract_z
O1	O	1.049320	0.100201	-0.005927
O2	O	0.819917	0.112205	-0.022934
O3	O	0.940610	-0.008208	-0.005460
O4	O	0.928628	0.220613	-0.023401
O5	O	0.933708	-0.001351	0.137805
O6	O	0.813015	0.119062	0.120331
O7	O	1.042418	0.107058	0.137338
Cu8	Cu	0.927087	0.113686	0.141916
Cu9	Cu	0.935249	0.105576	-0.027512
O10	O	0.921726	0.227470	0.119864
C11	C	0.787105	0.115051	0.046680
C12	C	0.699619	0.113307	0.040666
C13	C	0.654761	0.116223	0.115936
C14	C	0.572560	0.114572	0.110289
C15	C	0.535219	0.110010	0.029370
C16	C	0.580084	0.107091	-0.045906
C17	C	0.662284	0.108736	-0.040258
C18	C	0.289781	0.104682	0.004103
C19	C	0.207575	0.103039	-0.001540
C20	C	0.200057	0.110519	0.154656
C21	C	0.282259	0.112169	0.160297
C22	C	0.327117	0.109245	0.085021
N23	N	0.451196	0.108324	0.023596
N24	N	0.411139	0.110925	0.090797
C25	C	0.936568	-0.034065	0.068317
C26	C	0.934800	-0.121328	0.074709
C27	C	0.937733	-0.166057	-0.000382
C28	C	0.936066	-0.248049	0.005626
C29	C	0.931471	-0.285311	0.086725
C30	C	0.928536	-0.240575	0.161821
C31	C	0.930197	-0.158584	0.155812
C32	C	0.926262	-0.532683	0.108774
C33	C	0.924603	-0.614680	0.114778
C34	C	0.932132	-0.622149	-0.041418
C35	C	0.933798	-0.540157	-0.047419
C36	C	0.930858	-0.495427	0.027676
C37	C	0.929770	-0.369120	0.092868
C38	C	0.932553	-0.411619	0.021532
C39	C	1.075230	0.104211	0.067722
C40	C	1.162716	0.105955	0.073730
C41	C	0.925767	0.253328	0.046084
C42	C	0.927536	0.340590	0.039687
N43	N	0.921352	0.119389	0.261082
N44	N	0.940990	0.099867	-0.146678
C45	C	0.972644	0.068253	0.313900
C46	C	0.968314	0.072573	0.404081
C47	C	0.912695	0.128035	0.441442
C48	C	0.861397	0.179173	0.388618
C49	C	0.865724	0.174849	0.298439
C50	C	0.894019	0.146681	0.710319
C51	C	0.889698	0.151003	0.800505
C52	C	0.996614	0.044402	0.815962
C53	C	1.000939	0.040085	0.725780
C54	C	0.949639	0.091221	0.672963
N55	N	0.908269	0.132454	0.533621
N56	N	0.954061	0.086798	0.580786
H57	H	0.312657	0.115880	0.226190
H58	H	0.937540	-0.509825	-0.113459
N59	N	0.695036	0.121142	0.203213
H60	H	0.722700	0.170673	0.204960
H61	H	0.654101	0.122703	0.249990
N62	N	0.838685	0.201836	0.653370
H63	H	0.847141	0.258402	0.665531
H64	H	0.849880	0.190619	0.590592
H65	H	0.938458	-0.284465	-0.055521
H66	H	0.536041	0.116934	0.171584
N67	N	0.927045	-0.110340	0.236805
H68	H	0.928794	-0.052745	0.220693
H69	H	0.876307	-0.116776	0.268065
H70	H	0.936289	-0.381277	-0.044499
H71	H	1.010080	0.030933	0.447085
N72	N	1.060929	-0.019733	0.685484
H73	H	1.092766	-0.051474	0.732629
H74	H	1.032472	-0.056361	0.648558
H75	H	1.038380	0.002768	0.858973
N76	N	0.829698	0.210826	0.840792
H77	H	0.792945	0.182484	0.878021
H78	H	0.858156	0.247497	0.877659
N79	N	0.810405	0.230009	0.241469
H80	H	0.821584	0.218852	0.178672
H81	H	0.753726	0.221527	0.254012
N82	N	0.801401	0.238988	0.428910
H83	H	0.806444	0.233971	0.494053
H84	H	0.811392	0.294021	0.409615
H85	H	0.923884	-0.496276	0.169924
N86	N	0.151675	0.113671	0.235842
H87	H	0.093805	0.113020	0.219903
H88	H	0.169955	0.066333	0.274484
N89	N	0.919661	-0.654871	0.202256
H90	H	0.919066	-0.713600	0.194665
H91	H	0.967119	-0.645163	0.239192
H92	H	0.549674	0.103370	-0.111792
H93	H	1.017938	0.023094	0.283487
N94	N	0.710673	0.105596	-0.121440
H95	H	0.751215	0.057429	-0.118497
H96	H	0.674492	0.102489	-0.173518
H97	H	0.934524	-0.658576	-0.102557
H98	H	0.177174	0.099326	-0.067438
N99	N	0.923590	-0.280761	0.249294
H100	H	0.873933	-0.308357	0.251379
H101	H	0.971578	-0.320832	0.259103
N102	N	0.338159	0.101523	-0.077083
H103	H	0.302027	0.098384	-0.129199
H104	H	0.366161	0.150721	-0.082228
H105	H	0.941478	-0.135726	-0.066421
H106	H	0.926032	-0.399467	0.158900
