data_functionalizedCrystal
_audit_creation_method	'MofGen! by Chris Wilmer'
_symmetry_space_group_name_H-M	'P1'
_symmetry_Int_Tables_number	1
_symmetry_cell_setting	triclinic
loop_
_symmetry_equiv_pos_as_xyz
  x,y,z
_cell_length_a	8.559649
_cell_length_b	10.540539
_cell_length_c	7.681481
_cell_angle_alpha	84.202085
_cell_angle_beta	94.913240
_cell_angle_gamma	77.152078
loop_
_atom_site_label
_atom_site_type_symbol
_atom_site_fract_x
_atom_site_fract_y
_atom_site_fract_z
O1	O	2.104686	-0.029542	-0.146402
O2	O	1.640228	0.035941	-0.146408
O3	O	1.883054	-0.182616	-0.146403
O4	O	1.861861	0.189016	-0.146407
O5	O	1.912941	-0.209571	0.146456
O6	O	1.670116	0.008986	0.146450
O7	O	2.134573	-0.056497	0.146457
Zn8	Zn	1.907089	-0.028035	0.192951
Zn9	Zn	1.867712	0.007479	-0.192902
O10	O	1.891748	0.162061	0.146451
C11	C	1.595699	0.027426	0.000020
C12	C	1.418487	0.042198	0.000017
C13	C	1.896408	-0.243230	0.000023
C14	C	1.891652	-0.383679	0.000014
C15	C	1.709382	-0.547970	-0.000646
C16	C	1.714270	-0.401917	0.000013
C17	C	1.994083	-0.469667	0.167252
C18	C	1.988043	-0.615591	0.167393
C19	C	1.957664	-0.585834	-0.165642
C20	C	1.959072	-0.438819	-0.167853
C21	C	2.179102	-0.047981	0.000025
C22	C	2.356313	-0.062752	0.000016
C23	C	1.878393	0.222675	0.000021
C24	C	1.883148	0.363125	0.000019
N25	N	1.933975	-0.052274	0.456286
N26	N	1.840839	0.031708	-0.456237
H27	H	1.438655	-0.163903	0.000009
N28	N	2.167477	-0.458898	0.175445
H29	H	2.172432	-0.364504	0.180759
H30	H	2.230999	-0.515024	0.283951
H31	H	2.029067	-0.137994	0.531494
N32	N	1.633050	-0.592823	0.157319
H33	H	1.625270	-0.686712	0.153204
H34	H	1.701329	-0.586530	0.268619
N35	N	1.921358	-0.659432	0.332974
H36	H	1.819542	-0.689190	0.300562
H37	H	2.003798	-0.734461	0.404043
H38	H	1.947485	-0.432314	0.291703
H39	H	1.658885	-0.364132	0.120094
H40	H	2.116388	-0.677614	0.174981
H41	H	1.887318	-0.599710	-0.292398
N42	N	1.859747	-0.360850	-0.331743
H43	H	1.903688	-0.396764	-0.439273
H44	H	1.744007	-0.367696	-0.330523
N45	N	2.129015	-0.423450	-0.181242
H46	H	2.164872	-0.380337	-0.078216
H47	H	2.203515	-0.512602	-0.179805
H48	H	1.745765	0.117429	0.468564
H49	H	1.336134	0.143358	0.000006
H50	H	1.634867	-0.341248	-0.119869
H51	H	1.627073	-0.558196	-0.120575
H52	H	2.085671	-0.646370	-0.166765
