data_functionalizedCrystal
_audit_creation_method	'MofGen! by Chris Wilmer'
_symmetry_space_group_name_H-M	'P1'
_symmetry_Int_Tables_number	1
_symmetry_cell_setting	triclinic
loop_
_symmetry_equiv_pos_as_xyz
  x,y,z
_cell_length_a	8.559649
_cell_length_b	8.597304
_cell_length_c	18.366186
_cell_angle_alpha	82.293964
_cell_angle_beta	89.991101
_cell_angle_gamma	77.624695
loop_
_atom_site_label
_atom_site_type_symbol
_atom_site_fract_x
_atom_site_fract_y
_atom_site_fract_z
O1	O	2.119307	-0.053142	-0.057204
O2	O	1.655368	0.027759	-0.062282
O3	O	1.896465	-0.242259	-0.045340
O4	O	1.878211	0.216876	-0.074147
O5	O	1.896423	-0.242266	0.075760
O6	O	1.655327	0.027752	0.058817
O7	O	2.119265	-0.053149	0.063895
Zn8	Zn	1.887289	-0.012699	0.080584
Zn9	Zn	1.887344	-0.012690	-0.078971
O10	O	1.878169	0.216870	0.046953
C11	C	1.595914	0.033886	-0.002118
C12	C	1.418819	0.052135	-0.003264
C13	C	1.894482	-0.300498	0.018862
C14	C	1.888616	-0.474019	0.029744
C15	C	2.178720	-0.059276	0.003729
C16	C	2.355815	-0.077525	0.004870
C17	C	1.880152	0.275108	-0.017250
C18	C	1.886018	0.448629	-0.028137
N19	N	1.887263	-0.012708	0.189475
N20	N	1.887383	-0.012696	-0.187861
C21	C	1.994057	-0.132224	0.235075
C22	C	1.994067	-0.132232	0.311303
C23	C	1.887299	-0.012699	0.341927
C24	C	1.780485	0.106827	0.296318
C25	C	1.780467	0.106823	0.220092
C26	C	1.868635	0.132487	0.453579
C27	C	1.868664	0.132492	0.529803
C28	C	1.887345	-0.012685	0.577034
C29	C	1.906030	-0.157877	0.548031
C30	C	1.906012	-0.157882	0.471805
C31	C	1.887306	-0.012682	0.424581
C32	C	1.994155	-0.132219	0.705290
C33	C	1.994154	-0.132228	0.781519
C34	C	1.780580	0.106844	0.766532
C35	C	1.780573	0.106840	0.690305
C36	C	1.887369	-0.012691	0.659688
H37	H	1.337267	0.177113	-0.011109
N38	N	1.888917	-0.463244	-0.104816
H39	H	1.892795	-0.347611	-0.101988
H40	H	1.986540	-0.516227	-0.130367
H41	H	2.081034	-0.229560	0.348437
N42	N	2.109229	-0.261147	0.202051
H43	H	2.222698	-0.256676	0.215024
H44	H	2.088998	-0.370058	0.222177
N45	N	1.885608	-0.562125	0.106425
H46	H	1.881699	-0.677751	0.103598
H47	H	1.985172	-0.558316	0.135026
N48	N	1.665270	0.235739	0.170910
H49	H	1.685366	0.344721	0.177331
H50	H	1.681514	0.217461	0.117996
N51	N	1.926159	-0.314465	0.440522
H52	H	1.937999	-0.406441	0.482003
H53	H	1.829124	-0.311987	0.408752
N54	N	1.926202	-0.314485	0.598957
H55	H	1.829209	-0.312189	0.630449
H56	H	1.938087	-0.406356	0.568958
N57	N	1.463813	-0.243070	0.015253
H58	H	1.579258	-0.233081	0.014627
H59	H	1.442123	-0.303438	0.063934
H60	H	1.693550	0.204151	0.321256
H61	H	2.081111	-0.229553	0.680361
H62	H	1.693641	0.204164	0.791466
N63	N	2.109371	-0.261118	0.830705
H64	H	2.177032	-0.336823	0.799738
H65	H	2.180790	-0.209553	0.859078
H66	H	1.693618	0.204167	0.653175
H67	H	1.853459	0.250714	0.553411
N68	N	1.848488	0.289080	0.402640
H69	H	1.836672	0.381052	0.432577
H70	H	1.945512	0.286594	0.371159
