data_functionalizedCrystal
_audit_creation_method	'MofGen! by Chris Wilmer'
_symmetry_space_group_name_H-M	'P1'
_symmetry_Int_Tables_number	1
_symmetry_cell_setting	triclinic
loop_
_symmetry_equiv_pos_as_xyz
  x,y,z
_cell_length_a	19.076808
_cell_length_b	16.120542
_cell_length_c	19.076919
_cell_angle_alpha	89.498748
_cell_angle_beta	90.121640
_cell_angle_gamma	90.702109
loop_
_atom_site_label
_atom_site_type_symbol
_atom_site_fract_x
_atom_site_fract_y
_atom_site_fract_z
Zn1	Zn	-0.350886	-1.237030	0.436750
Zn2	Zn	0.149114	-0.737030	0.936750
Zn3	Zn	-0.463696	-1.237379	0.314534
Zn4	Zn	0.036304	-0.737379	0.814534
Zn5	Zn	-0.340254	-1.103976	0.313806
Zn6	Zn	0.159746	-0.603976	0.813806
Zn7	Zn	-0.461933	-1.092796	0.426076
Zn8	Zn	0.038067	-0.592796	0.926076
O9	O	-0.404192	-1.167795	0.372791
O10	O	0.095808	-0.667795	0.872791
O11	O	-0.371038	-1.353268	0.425310
O12	O	0.128962	-0.853268	0.925310
O13	O	-0.443610	-1.224508	0.216304
O14	O	0.056390	-0.724508	0.716304
O15	O	-0.243530	-1.126159	0.334277
O16	O	0.256470	-0.626159	0.834277
O17	O	-0.453919	-1.353525	0.335518
O18	O	0.046081	-0.853525	0.835518
O19	O	-0.251341	-1.223912	0.424604
O20	O	0.248659	-0.723912	0.924604
O21	O	-0.352917	-1.126498	0.215769
O22	O	0.147083	-0.626498	0.715769
O23	O	-0.351207	-0.986302	0.323926
O24	O	0.148793	-0.486302	0.823926
O25	O	-0.450914	-1.107104	0.525625
O26	O	0.049086	-0.607104	1.025625
O27	O	-0.440604	-0.978088	0.406411
O28	O	0.059396	-0.478088	0.906411
O29	O	-0.369328	-1.213072	0.533467
O30	O	0.130672	-0.713072	1.033467
O31	O	-0.561597	-1.213668	0.325168
O32	O	-0.061597	-0.713668	0.825168
O33	O	-0.560301	-1.107443	0.407117
O34	O	-0.060301	-0.607443	0.907117
C35	C	-0.394561	-0.952067	0.363931
C36	C	0.105439	-0.452067	0.863931
C37	C	-0.390459	-0.859776	0.360157
C38	C	0.109541	-0.359776	0.860157
C39	C	-0.586396	-1.159402	0.365079
C40	C	-0.086396	-0.659402	0.865079
C41	C	-0.664348	-1.155886	0.361807
C42	C	-0.164348	-0.655886	0.861807
C43	C	-0.425451	-0.645635	0.392332
C44	C	0.074549	-0.145635	0.892332
C45	C	-0.382975	-0.690804	0.353265
C46	C	0.117025	-0.190804	0.853265
C47	C	-0.387140	-0.784829	0.357101
C48	C	0.112860	-0.284829	0.857101
C49	C	-0.421287	-0.551602	0.388497
C50	C	0.078713	-0.051602	0.888497
C51	C	-0.704975	-1.205088	0.407332
C52	C	-0.204975	-0.705088	0.907332
C53	C	-0.778219	-1.201781	0.404258
C54	C	-0.278219	-0.701781	0.904258
C55	C	-0.810834	-1.149276	0.355655
C56	C	-0.310834	-0.649276	0.855655
C57	C	-0.770201	-1.100069	0.310127
C58	C	-0.270201	-0.600069	0.810127
C59	C	-0.696958	-1.103372	0.313205
C60	C	-0.196958	-0.603372	0.813205
C61	C	-1.029456	-1.133940	0.341406
C62	C	-0.529456	-0.633940	0.841406
C63	C	-1.102704	-1.130642	0.338330
C64	C	-0.602704	-0.630642	0.838330
C65	C	-1.110718	-1.232353	0.432462
C66	C	-0.610718	-0.732353	0.932462
C67	C	-1.037473	-1.235656	0.435533
C68	C	-0.537473	-0.735656	0.935533
C69	C	-0.996846	-1.186445	0.390008
C70	C	-0.496846	-0.686445	0.890008
N71	N	-0.885701	-1.145896	0.352510
N72	N	-0.385701	-0.645896	0.852510
N73	N	-0.921981	-1.189821	0.393157
N74	N	-0.421981	-0.689821	0.893157
C75	C	-0.221279	-1.176244	0.380550
C76	C	0.278721	-0.676244	0.880550
C77	C	-0.143332	-1.179844	0.383856
C78	C	0.356668	-0.679844	0.883856
C79	C	-0.411110	-1.158802	0.555703
C80	C	0.088890	-0.658802	1.055703
C81	C	-0.414058	-1.154969	0.633648
C82	C	0.085942	-0.654969	1.133648
C83	C	-0.413857	-0.384367	0.381676
C84	C	0.086143	0.115633	0.881676
C85	C	-0.417965	-0.476658	0.385438
C86	C	0.082035	0.023342	0.885438
C87	C	-0.397253	-1.176804	0.190596
C88	C	0.102747	-0.676804	0.690596
C89	C	-0.394114	-1.180807	0.112665
C90	C	0.105886	-0.680807	0.612665
C91	C	-0.372968	-1.208337	0.674352
C92	C	0.127032	-0.708337	1.174352
C93	C	-0.375735	-1.204726	0.747590
C94	C	0.124265	-0.704726	1.247590
C95	C	-0.419596	-1.147750	0.780123
C96	C	0.080404	-0.647750	1.280123
C97	C	-0.460688	-1.094376	0.739415
C98	C	0.039312	-0.594376	1.239415
C99	C	-0.457917	-1.097984	0.666178
C100	C	0.042083	-0.597984	1.166178
C101	C	-0.432435	-1.131041	0.998720
C102	C	0.067565	-0.631041	1.498720
C103	C	-0.435205	-1.127439	1.071962
C104	C	0.064795	-0.627439	1.571962
C105	C	-0.350250	-1.237788	1.080132
C106	C	0.149750	-0.737788	1.580132
C107	C	-0.347486	-1.241394	1.006893
C108	C	0.152514	-0.741394	1.506893
C109	C	-0.388575	-1.188017	0.966191
C110	C	0.111425	-0.688017	1.466191
N111	N	-0.422427	-1.144059	0.854984
N112	N	0.077573	-0.644059	1.354984
N113	N	-0.385740	-1.191704	0.891331
N114	N	0.114260	-0.691704	1.391331
H115	H	-0.343482	-0.658859	0.316937
H116	H	0.156518	-0.158859	0.816937
Br117	Br	-0.287960	-1.318724	0.962746
Br118	Br	0.212040	-0.818724	1.462746
H119	H	-0.470923	-1.081039	1.098448
H120	H	0.029077	-0.581039	1.598448
H121	H	-0.337253	-1.254736	0.647869
H122	H	0.162747	-0.754736	1.147869
Br123	Br	-0.491280	-0.698876	0.452870
Br124	Br	0.008720	-0.198876	0.952870
H125	H	-0.678426	-1.247847	0.446907
H126	H	-0.178426	-0.747847	0.946907
Br127	Br	-0.520211	-1.017046	0.783566
Br128	Br	-0.020211	-0.517046	1.283566
H129	H	-0.316796	-1.281243	1.113279
H130	H	0.183204	-0.781243	1.613279
H131	H	-0.811296	-1.241853	0.441325
H132	H	-0.311296	-0.741853	0.941325
Br133	Br	-0.488198	-1.058599	0.943490
Br134	Br	0.011802	-0.558599	1.443490
Br135	Br	-0.993216	-1.306916	0.501496
Br136	Br	-0.493216	-0.806916	1.001496
Br137	Br	-0.513680	-1.025548	0.610936
Br138	Br	-0.013680	-0.525548	1.110936
H139	H	-1.143804	-1.272417	0.469527
H140	H	-0.643804	-0.772417	0.969527
Br141	Br	-0.974328	-1.067143	0.279630
Br142	Br	-0.474328	-0.567143	0.779630
Br143	Br	-1.146966	-1.059386	0.272360
Br144	Br	-0.646966	-0.559386	0.772360
Br145	Br	-0.641819	-1.036592	0.251421
Br146	Br	-0.141819	-0.536592	0.751421
Br147	Br	-0.814462	-1.028799	0.244173
Br148	Br	-0.314462	-0.528799	0.744173
H149	H	-0.342276	-1.248186	0.780728
H150	H	0.157724	-0.748186	1.280728
