data_functionalizedCrystal
_audit_creation_method	'MofGen! by Chris Wilmer'
_symmetry_space_group_name_H-M	'P1'
_symmetry_Int_Tables_number	1
_symmetry_cell_setting	triclinic
loop_
_symmetry_equiv_pos_as_xyz
  x,y,z
_cell_length_a	12.759395
_cell_length_b	12.827892
_cell_length_c	12.827885
_cell_angle_alpha	90.029976
_cell_angle_beta	89.981133
_cell_angle_gamma	89.983071
loop_
_atom_site_label
_atom_site_type_symbol
_atom_site_fract_x
_atom_site_fract_y
_atom_site_fract_z
Zn1	Zn	1.606247	0.415938	-0.590837
Zn2	Zn	1.606140	0.590716	-0.416098
Zn3	Zn	1.430550	0.415994	-0.416112
Zn4	Zn	1.430535	0.590642	-0.590799
O5	O	1.518368	0.503322	-0.503462
O6	O	1.753254	0.439130	-0.567668
O7	O	1.582809	0.567593	-0.269864
O8	O	1.453907	0.269750	-0.439312
O9	O	1.753175	0.567538	-0.439287
O10	O	1.582991	0.269709	-0.567682
O11	O	1.453804	0.439225	-0.269874
O12	O	1.283527	0.439154	-0.439275
O13	O	1.453882	0.567413	-0.737040
O14	O	1.283516	0.567467	-0.567616
O15	O	1.582976	0.439058	-0.737068
O16	O	1.582795	0.736942	-0.439250
O17	O	1.453779	0.736888	-0.567602
C18	C	1.518302	0.774832	-0.503443
C19	C	1.518370	0.890985	-0.503470
C20	C	1.245400	0.503310	-0.503444
C21	C	1.128624	0.503329	-0.503461
C22	C	1.518439	0.503221	-0.776032
C23	C	1.518470	0.503178	-0.892185
C24	C	1.128651	0.637158	-0.636887
C25	C	1.073804	0.704081	-0.703602
C26	C	0.964082	0.704093	-0.703615
C27	C	0.909205	0.637174	-0.636907
C28	C	0.964052	0.570251	-0.570191
C29	C	1.073777	0.570248	-0.570183
C30	C	0.964025	0.436419	-0.436772
C31	C	1.073747	0.436410	-0.436753
C32	C	0.909148	0.369500	-0.370064
C33	C	0.963995	0.302581	-0.303341
C34	C	1.073724	0.302572	-0.303331
C35	C	1.128594	0.369487	-0.370037
C36	C	1.792401	0.503336	-0.503480
C37	C	1.909178	0.503342	-0.503488
C38	C	1.518463	0.230752	-0.503503
C39	C	1.518503	0.114599	-0.503521
C40	C	1.582287	0.942762	-0.440028
C41	C	1.582359	1.062812	-0.440054
C42	C	1.582313	0.566672	-0.943965
C43	C	1.582346	0.566629	-1.064015
C44	C	1.518357	0.503348	-0.231952
C45	C	1.518530	0.503096	-0.115799
H46	H	1.217992	0.637162	-0.636875
H47	H	1.636951	0.621060	-0.899418
H48	H	1.463706	0.935534	-0.557809
Br49	Br	1.427278	1.040399	-0.594049
H50	H	1.637078	1.107339	-0.385736
H51	H	1.637003	0.620990	-1.108544
Br52	Br	1.427413	0.412507	-0.966421
H53	H	1.636961	0.898216	-0.385696
H54	H	1.118497	0.758563	-0.757916
H55	H	1.217935	0.369489	-0.370031
H56	H	0.919426	0.758582	-0.757946
Br57	Br	0.760296	0.637174	-0.636944
H58	H	1.463866	0.448737	-1.071277
H59	H	0.819807	0.369510	-0.370084
H60	H	0.919306	0.248096	-0.249038
H61	H	1.118374	0.248068	-0.249009
