data_functionalizedCrystal
_audit_creation_method	'MofGen! by Chris Wilmer'
_symmetry_space_group_name_H-M	'P1'
_symmetry_Int_Tables_number	1
_symmetry_cell_setting	triclinic
loop_
_symmetry_equiv_pos_as_xyz
  x,y,z
_cell_length_a	12.759401
_cell_length_b	29.839126
_cell_length_c	12.759400
_cell_angle_alpha	89.983293
_cell_angle_beta	90.013326
_cell_angle_gamma	89.983279
loop_
_atom_site_label
_atom_site_type_symbol
_atom_site_fract_x
_atom_site_fract_y
_atom_site_fract_z
Zn1	Zn	1.606248	-0.253994	-0.418342
Zn2	Zn	1.606153	-0.178873	-0.594019
Zn3	Zn	1.430556	-0.178880	-0.418355
Zn4	Zn	1.430543	-0.253979	-0.593980
O5	O	1.518375	-0.216431	-0.506174
O6	O	1.753256	-0.244032	-0.441657
O7	O	1.582824	-0.116007	-0.570738
O8	O	1.453907	-0.188853	-0.271332
O9	O	1.753186	-0.188842	-0.570726
O10	O	1.582987	-0.244039	-0.271323
O11	O	1.453814	-0.116012	-0.441679
O12	O	1.283533	-0.188839	-0.441641
O13	O	1.453886	-0.316848	-0.570660
O14	O	1.283524	-0.244013	-0.570672
O15	O	1.582975	-0.316859	-0.441619
O16	O	1.582813	-0.188827	-0.741035
O17	O	1.453793	-0.244007	-0.741006
C18	C	1.245408	-0.216425	-0.506155
C19	C	1.128631	-0.216433	-0.506172
C20	C	1.073792	-0.245115	-0.573466
C21	C	0.964068	-0.245120	-0.573479
C22	C	0.964032	-0.187757	-0.438902
C23	C	1.073754	-0.187755	-0.438884
C24	C	1.128669	-0.273793	-0.640754
C25	C	1.073830	-0.302477	-0.708054
C26	C	0.964106	-0.302482	-0.708067
C27	C	0.909221	-0.273803	-0.640780
C28	C	1.518440	-0.333610	-0.506134
C29	C	1.518468	-0.383544	-0.506117
C30	C	1.451313	-0.693193	-0.438810
C31	C	1.451343	-0.880866	-0.438737
O32	O	1.394193	-0.905136	-0.381616
N33	N	1.518517	-0.904329	-0.505920
C34	C	1.585685	-0.880871	-0.573130
O35	O	1.642814	-0.905135	-0.630278
C36	C	1.585649	-0.693199	-0.573207
C37	C	1.518477	-0.669738	-0.506013
C38	C	1.384146	-0.669732	-0.371623
C39	C	1.384143	-0.622817	-0.371637
C40	C	1.451308	-0.599362	-0.438840
C41	C	1.518475	-0.622823	-0.506028
C42	C	1.652810	-0.669742	-0.640422
C43	C	1.652793	-0.622821	-0.640437
C44	C	1.585622	-0.599360	-0.573243
C45	C	1.585636	-0.552453	-0.573245
N46	N	1.518461	-0.528990	-0.506063
C47	C	1.451297	-0.552444	-0.438861
C48	C	1.585700	-0.979402	-0.573083
C49	C	1.585711	-1.026320	-0.573062
C50	C	1.451367	-1.026312	-0.438671
C51	C	1.451363	-0.979393	-0.438687
C52	C	1.518525	-0.955939	-0.505901
C53	C	1.451297	-0.453918	-0.438896
C54	C	1.451303	-0.406999	-0.438914
C55	C	1.585643	-0.407011	-0.573309
C56	C	1.585641	-0.453927	-0.573287
C57	C	1.518459	-0.477379	-0.506078
O58	O	1.642748	-0.528154	-0.630345
O59	O	1.394160	-0.528173	-0.381737
C60	C	1.451316	-0.740109	-0.438796
C61	C	1.518483	-0.763569	-0.505983
C62	C	1.585647	-0.740115	-0.573186
C63	C	1.518493	-0.810487	-0.505963
C64	C	1.451329	-0.833942	-0.438760
C65	C	1.384154	-0.810479	-0.371578
C66	C	1.384151	-0.763563	-0.371593
C67	C	1.652822	-0.763578	-0.640368
C68	C	1.652820	-0.810493	-0.640347
C69	C	1.585656	-0.833948	-0.573144
C70	C	1.792408	-0.216438	-0.506194
C71	C	1.909185	-0.216440	-0.506203
C72	C	1.518320	-0.216424	-0.779142
C73	C	1.518392	-0.216436	-0.895918
C74	C	1.518371	-0.099709	-0.506138
C75	C	1.518546	-0.049775	-0.505860
C76	C	1.585571	-0.245195	-0.950696
C77	C	1.585620	-0.245206	-1.060420
C78	C	1.451309	-0.187696	-1.060579
C79	C	1.451255	-0.187687	-0.950857
C80	C	1.652708	-0.273944	-0.895757
C81	C	1.719893	-0.302705	-0.950534
C82	C	1.719942	-0.302715	-1.060258
C83	C	1.652806	-0.273966	-1.115205
C84	C	1.518459	-0.216448	-0.232141
C85	C	1.518495	-0.216455	-0.115364
H86	H	0.919459	-0.325841	-0.762859
C87	C	1.652653	-0.273935	-0.775064
H88	H	1.702251	-0.295177	-0.750188
H89	H	1.670839	-0.244948	-0.750262
H90	H	1.584830	-0.281683	-0.750284
C91	C	0.788527	-0.273819	-0.640773
H92	H	0.763724	-0.295010	-0.690484
H93	H	0.763740	-0.281640	-0.572997
H94	H	0.763658	-0.244817	-0.658850
H95	H	1.774547	-0.326114	-0.905791
H96	H	0.919336	-0.164408	-0.384121
C97	C	1.310252	-0.737762	-0.297688
H98	H	1.270251	-0.758456	-0.257676
H99	H	1.350442	-0.719465	-0.251915
H100	H	1.264453	-0.719455	-0.337888
C101	C	1.793839	-0.334350	-1.120511
H102	H	1.833818	-0.351467	-1.072073
H103	H	1.753651	-0.353915	-1.163321
H104	H	1.839660	-0.317181	-1.163299
H105	H	1.396681	-1.045416	-0.383950
H106	H	1.118405	-0.164403	-0.384079
C107	C	1.726675	-0.597024	-0.714373
H108	H	1.766681	-0.617719	-0.754379
H109	H	1.686470	-0.578714	-0.760152
H110	H	1.772472	-0.578730	-0.674192
C111	C	1.377404	-0.381194	-0.365005
H112	H	1.337397	-0.401886	-0.324991
H113	H	1.417598	-0.362898	-0.319233
H114	H	1.331609	-0.362886	-0.405207
H115	H	1.707512	-0.744486	-0.695098
C116	C	1.659511	-0.381207	-0.647236
H117	H	1.699523	-0.401897	-0.687251
H118	H	1.619291	-0.362899	-0.693006
H119	H	1.705304	-0.362910	-0.607056
C120	C	1.377361	-0.156053	-0.890598
H121	H	1.337394	-0.138929	-0.939030
H122	H	1.331544	-0.173221	-0.847810
H123	H	1.417560	-0.136489	-0.847788
C124	C	1.249361	-0.273792	-0.640737
H125	H	1.274192	-0.294981	-0.690441
H126	H	1.274159	-0.244786	-0.658797
H127	H	1.274191	-0.281615	-0.572957
C128	C	1.310273	-0.836283	-0.297656
H129	H	1.270266	-0.815594	-0.257634
H130	H	1.264493	-0.854579	-0.337841
H131	H	1.350488	-0.854592	-0.251875
H132	H	1.396592	-0.473008	-0.384167
H133	H	1.707529	-0.829591	-0.695063
H134	H	1.329441	-0.603719	-0.316925
H135	H	1.640420	-1.045418	-0.627767
H136	H	1.118524	-0.325829	-0.762830
H137	H	1.652839	-0.273982	-1.204549
C138	C	1.659595	-0.953608	-0.647012
H139	H	1.699606	-0.974306	-0.687006
H140	H	1.619402	-0.935299	-0.692802
H141	H	1.705387	-0.935314	-0.606825
H142	H	1.707508	-0.688836	-0.695139
C143	C	1.377475	-0.156071	-1.121018
H144	H	1.387136	-0.160192	-1.194210
H145	H	1.306865	-0.162616	-1.103083
H146	H	1.392891	-0.125889	-1.103057
H147	H	1.329447	-0.688824	-0.316897
C148	C	1.377460	-0.953590	-0.364789
H149	H	1.337459	-0.974283	-0.324773
H150	H	1.417646	-0.935290	-0.319019
H151	H	1.331660	-0.935286	-0.404996
H152	H	1.640349	-0.473030	-0.627991
