data_functionalizedCrystal
_audit_creation_method	'MofGen! by Chris Wilmer'
_symmetry_space_group_name_H-M	'P1'
_symmetry_Int_Tables_number	1
_symmetry_cell_setting	triclinic
loop_
_symmetry_equiv_pos_as_xyz
  x,y,z
_cell_length_a	18.050591
_cell_length_b	21.295417
_cell_length_c	18.050583
_cell_angle_alpha	89.959541
_cell_angle_beta	89.977979
_cell_angle_gamma	90.026512
loop_
_atom_site_label
_atom_site_type_symbol
_atom_site_fract_x
_atom_site_fract_y
_atom_site_fract_z
Zn1	Zn	1.135289	-0.250631	-0.420010
Zn2	Zn	1.135192	-0.355917	-0.295811
Zn3	Zn	1.011106	-0.250659	-0.295821
Zn4	Zn	1.011051	-0.355859	-0.419946
O5	O	1.073159	-0.303267	-0.357897
O6	O	1.239201	-0.264610	-0.403557
O7	O	1.118714	-0.341991	-0.191887
O8	O	1.027642	-0.162566	-0.312326
O9	O	1.239130	-0.341964	-0.312308
O10	O	1.118879	-0.162545	-0.403567
O11	O	1.027548	-0.264658	-0.191895
O12	O	0.907174	-0.264601	-0.312264
O13	O	1.027549	-0.341864	-0.523879
O14	O	0.907134	-0.341891	-0.403458
O15	O	1.118826	-0.264554	-0.523926
O16	O	1.118661	-0.443999	-0.312247
O17	O	1.027455	-0.443956	-0.403449
C18	C	0.880207	-0.303243	-0.357856
C19	C	0.797662	-0.303248	-0.357856
C20	C	0.598211	-0.261169	-0.308379
C21	C	0.548788	-0.318588	-0.290098
C22	C	0.646531	-0.303267	-0.357889
C23	C	0.548872	-0.245869	-0.376169
C24	C	0.500546	-0.303281	-0.357921
C25	C	0.598196	-0.360716	-0.339573
C26	C	0.598284	-0.287959	-0.425676
C27	C	0.548883	-0.345417	-0.407420
C28	C	0.730629	-0.303259	-0.357870
C29	C	0.416450	-0.303296	-0.357940
C30	C	1.073062	-0.466818	-0.357856
C31	C	1.073088	-0.536786	-0.357863
C32	C	1.120621	-0.569654	-0.310423
C33	C	1.120656	-0.635397	-0.310440
C34	C	1.073145	-0.668269	-0.357889
C35	C	1.025608	-0.635393	-0.405338
C36	C	1.025580	-0.569652	-0.405325
N37	N	1.008178	-0.771530	-0.363536
N38	N	1.008207	-0.833981	-0.363544
C39	C	1.073228	-0.866344	-0.357931
N40	N	1.138221	-0.833895	-0.352296
N41	N	1.138191	-0.771438	-0.352284
C42	C	1.073170	-0.739554	-0.357908
C43	C	1.120803	-0.970497	-0.310507
C44	C	1.120839	-1.036241	-0.310529
C45	C	1.025784	-1.036235	-0.405423
C46	C	1.025755	-0.970493	-0.405405
C47	C	1.073263	-0.937628	-0.357943
C48	C	1.266865	-0.303291	-0.357939
C49	C	1.349411	-0.303301	-0.357956
C50	C	1.073192	-0.303199	-0.551603
C51	C	1.073206	-0.303171	-0.634148
C52	C	1.073277	-0.139076	-0.357955
C53	C	1.073328	-0.069108	-0.357979
C54	C	1.122892	-0.261109	-0.833625
C55	C	1.055159	-0.245698	-0.883014
C56	C	1.073236	-0.303160	-0.785279
C57	C	1.140996	-0.318531	-0.882972
C58	C	1.073271	-0.303148	-0.931264
C59	C	1.005467	-0.287720	-0.833581
C60	C	1.091350	-0.360579	-0.833534
C61	C	1.023570	-0.345190	-0.882901
C62	C	1.073217	-0.303165	-0.701181
C63	C	1.073282	-0.303143	-1.015361
C64	C	1.073169	-0.303288	-0.164945
C65	C	1.073299	-0.303139	-0.082399
H66	H	0.619870	-0.225606	-0.266464
H67	H	1.106680	-0.409128	-0.811786
H68	H	1.159307	-0.542897	-0.271778
H69	H	0.986872	-0.542890	-0.443958
H70	H	0.527167	-0.197328	-0.391591
H71	H	0.527049	-0.331546	-0.232786
H72	H	1.159366	-0.662163	-0.271808
H73	H	1.159551	-1.063001	-0.271899
H74	H	0.981544	-0.380746	-0.904402
H75	H	0.948161	-0.274658	-0.811976
H76	H	0.987046	-0.943730	-0.444032
H77	H	1.159489	-0.943737	-0.271862
H78	H	0.987103	-1.062999	-0.444060
H79	H	1.198285	-0.331535	-0.904670
H80	H	0.620041	-0.274983	-0.482970
H81	H	0.986925	-0.662161	-0.443973
H82	H	0.619771	-0.409277	-0.324062
H83	H	1.164816	-0.225525	-0.811985
H84	H	0.527361	-0.381065	-0.449303
H85	H	1.039849	-0.197136	-0.904748
