data_functionalizedCrystal
_audit_creation_method	'MofGen! by Chris Wilmer'
_symmetry_space_group_name_H-M	'P1'
_symmetry_Int_Tables_number	1
_symmetry_cell_setting	triclinic
loop_
_symmetry_equiv_pos_as_xyz
  x,y,z
_cell_length_a	15.995350
_cell_length_b	23.532407
_cell_length_c	14.472310
_cell_angle_alpha	89.994233
_cell_angle_beta	89.990621
_cell_angle_gamma	83.170526
loop_
_atom_site_label
_atom_site_type_symbol
_atom_site_fract_x
_atom_site_fract_y
_atom_site_fract_z
O1	O	1.110386	0.073404	-0.076772
O2	O	1.360386	0.323404	0.173228
O3	O	1.610386	0.573404	0.423228
O4	O	1.860386	0.823404	0.673228
O5	O	0.866535	0.082469	-0.076793
O6	O	1.116535	0.332469	0.173207
O7	O	1.366535	0.582469	0.423207
O8	O	1.616535	0.832469	0.673207
O9	O	0.995814	-0.004967	-0.076765
O10	O	1.245814	0.245033	0.173235
O11	O	1.495814	0.495033	0.423235
O12	O	1.745814	0.745033	0.673235
O13	O	0.981107	0.160840	-0.076800
O14	O	1.231107	0.410840	0.173200
O15	O	1.481107	0.660840	0.423200
O16	O	1.731107	0.910840	0.673200
O17	O	0.995781	-0.004962	0.076917
O18	O	1.245781	0.245038	0.326917
O19	O	1.495781	0.495038	0.576917
O20	O	1.745781	0.745038	0.826917
O21	O	0.866502	0.082474	0.076889
O22	O	1.116502	0.332474	0.326889
O23	O	1.366502	0.582474	0.576889
O24	O	1.616502	0.832474	0.826889
O25	O	1.110353	0.073409	0.076910
O26	O	1.360353	0.323409	0.326910
O27	O	1.610353	0.573409	0.576910
O28	O	1.860353	0.823409	0.826910
Cu29	Cu	0.988424	0.077942	0.090932
Cu30	Cu	1.238424	0.327942	0.340932
Cu31	Cu	1.488424	0.577942	0.590932
Cu32	Cu	1.738424	0.827942	0.840932
Cu33	Cu	0.988464	0.077936	-0.090815
Cu34	Cu	1.238464	0.327936	0.159185
Cu35	Cu	1.488464	0.577936	0.409185
Cu36	Cu	1.738464	0.827936	0.659185
O37	O	0.981074	0.160845	0.076882
O38	O	1.231074	0.410845	0.326882
O39	O	1.481074	0.660845	0.576882
O40	O	1.731074	0.910845	0.826882
C41	C	0.835327	0.082096	0.000046
C42	C	1.085327	0.332096	0.250046
C43	C	1.335327	0.582096	0.500046
C44	C	1.585327	0.832096	0.750046
C45	C	0.742386	0.080973	0.000039
C46	C	0.992386	0.330973	0.250039
C47	C	1.242386	0.580973	0.500039
C48	C	1.492386	0.830973	0.750039
C49	C	0.995423	-0.026182	0.000078
C50	C	1.245423	0.223818	0.250078
C51	C	1.495423	0.473818	0.500078
C52	C	1.745423	0.723818	0.750078
C53	C	0.994297	-0.089404	0.000085
C54	C	1.244297	0.160596	0.250085
C55	C	1.494297	0.410596	0.500085
C56	C	1.744297	0.660596	0.750085
C57	C	0.404672	0.076938	0.000059
C58	C	0.654672	0.326938	0.250059
C59	C	0.904672	0.576938	0.500059
C60	C	1.154672	0.826938	0.750059
C61	C	0.452624	0.014668	0.000415
C62	C	0.702624	0.264668	0.250415
C63	C	0.952624	0.514668	0.500415
C64	C	1.202624	0.764668	0.750415
C65	C	0.549305	0.015792	0.000062
C66	C	0.799305	0.265792	0.250062
C67	C	1.049305	0.515792	0.500062
C68	C	1.299305	0.765792	0.750062
C69	C	0.572216	0.078939	0.000050
C70	C	0.822216	0.328939	0.250050
C71	C	1.072216	0.578939	0.500050
C72	C	1.322216	0.828939	0.750050
C73	C	0.530892	0.109650	-0.087713
C74	C	0.780892	0.359650	0.162287
C75	C	1.030892	0.609650	0.412287
C76	C	1.280892	0.859650	0.662287
C77	C	0.434270	0.108086	-0.087780
C78	C	0.684270	0.358086	0.162220
C79	C	0.934270	0.608086	0.412220
C80	C	1.184270	0.858086	0.662220
C81	C	0.433882	0.109378	0.086985
C82	C	0.683882	0.359378	0.336985
C83	C	0.933882	0.609378	0.586985
C84	C	1.183882	0.859378	0.836985
C85	C	0.530828	0.109364	0.088139
C86	C	0.780828	0.359364	0.338139
C87	C	1.030828	0.609364	0.588139
C88	C	1.280828	0.859364	0.838139
C89	C	0.666904	0.080074	0.000041
C90	C	0.916904	0.330074	0.250041
C91	C	1.166904	0.580074	0.500041
C92	C	1.416904	0.830074	0.750041
C93	C	0.309984	0.075805	0.000061
C94	C	0.559984	0.325805	0.250061
C95	C	0.809984	0.575805	0.500061
C96	C	1.059984	0.825805	0.750061
C97	C	1.063739	-0.488239	0.000041
C98	C	1.313739	-0.238239	0.250041
C99	C	1.563739	0.011761	0.500041
C100	C	1.813739	0.261761	0.750041
C101	C	1.062693	-0.547644	0.000033
C102	C	1.312693	-0.297644	0.250033
C103	C	1.562693	-0.047644	0.500033
C104	C	1.812693	0.202356	0.750033
O105	O	1.127067	-0.584141	0.000005
O106	O	1.377067	-0.334141	0.250005
O107	O	1.627067	-0.084141	0.500005
O108	O	1.877067	0.165859	0.750005
N109	N	0.985837	-0.570566	0.000028
N110	N	1.235837	-0.320566	0.250028
N111	N	1.485837	-0.070566	0.500028
N112	N	1.735837	0.179434	0.750028
C113	C	0.910022	-0.534080	0.000020
C114	C	1.160022	-0.284080	0.250020
C115	C	1.410022	-0.034080	0.500020
C116	C	1.660022	0.215920	0.750020
O117	O	0.844554	-0.559031	0.000013
O118	O	1.094554	-0.309031	0.250013
O119	O	1.344554	-0.059031	0.500013
O120	O	1.594554	0.190969	0.750013
C121	C	0.911069	-0.474677	0.000020
C122	C	1.161069	-0.224677	0.250020
C123	C	1.411069	0.025323	0.500020
C124	C	1.661069	0.275323	0.750020
C125	C	0.987930	-0.451758	0.000035
C126	C	1.237930	-0.201758	0.250035
C127	C	1.487930	0.048242	0.500035
C128	C	1.737930	0.298242	0.750035
C129	C	1.140594	-0.465320	0.000055
C130	C	1.390594	-0.215320	0.250055
C131	C	1.640594	0.034680	0.500055
C132	C	1.890594	0.284680	0.750055
C133	C	1.141640	-0.405920	0.000063
C134	C	1.391640	-0.155920	0.250063
C135	C	1.641640	0.094080	0.500063
C136	C	1.891640	0.344080	0.750063
C137	C	1.065830	-0.369439	0.000058
C138	C	1.315830	-0.119439	0.250058
C139	C	1.565830	0.130561	0.500058
C140	C	1.815830	0.380561	0.750058
C141	C	0.988975	-0.392358	0.000044
C142	C	1.238975	-0.142358	0.250044
C143	C	1.488975	0.107642	0.500044
C144	C	1.738975	0.357642	0.750044
C145	C	0.835255	-0.438192	0.000006
C146	C	1.085255	-0.188192	0.250006
C147	C	1.335255	0.061808	0.500006
C148	C	1.585255	0.311808	0.750006
C149	C	0.836308	-0.378785	0.000005
C150	C	1.086308	-0.128785	0.250005
C151	C	1.336308	0.121215	0.500005
C152	C	1.586308	0.371215	0.750005
C153	C	0.913169	-0.355867	0.000020
C154	C	1.163169	-0.105867	0.250020
C155	C	1.413169	0.144133	0.500020
C156	C	1.663169	0.394133	0.750020
C157	C	0.914212	-0.296477	0.000048
C158	C	1.164212	-0.046477	0.250048
C159	C	1.414212	0.203523	0.500048
C160	C	1.664212	0.453523	0.750048
N161	N	0.991068	-0.273555	0.000053
N162	N	1.241068	-0.023555	0.250053
N163	N	1.491068	0.226445	0.500053
N164	N	1.741068	0.476445	0.750053
C165	C	1.066877	-0.310036	0.000059
C166	C	1.316877	-0.060036	0.250059
C167	C	1.566877	0.189964	0.500059
C168	C	1.816877	0.439964	0.750059
C169	C	0.907829	-0.658831	0.000017
C170	C	1.157829	-0.408831	0.250017
C171	C	1.407829	-0.158831	0.500017
C172	C	1.657829	0.091169	0.750017
C173	C	0.906781	-0.718233	0.000023
C174	C	1.156781	-0.468233	0.250023
C175	C	1.406781	-0.218233	0.500023
C176	C	1.656781	0.031767	0.750023
C177	C	1.059453	-0.731793	0.000035
C178	C	1.309453	-0.481793	0.250035
C179	C	1.559453	-0.231793	0.500035
C180	C	1.809453	0.018207	0.750035
C181	C	1.060500	-0.672389	0.000036
C182	C	1.310500	-0.422389	0.250036
C183	C	1.560500	-0.172389	0.500036
C184	C	1.810500	0.077611	0.750036
C185	C	0.984685	-0.635909	0.000023
C186	C	1.234685	-0.385909	0.250023
C187	C	1.484685	-0.135909	0.500023
C188	C	1.734685	0.114091	0.750023
C189	C	1.069067	-0.185291	0.000078
C190	C	1.319067	0.064709	0.250078
C191	C	1.569067	0.314709	0.500078
C192	C	1.819067	0.564709	0.750078
C193	C	1.070106	-0.125885	0.000091
C194	C	1.320106	0.124115	0.250091
C195	C	1.570106	0.374115	0.500091
C196	C	1.820106	0.624115	0.750091
C197	C	0.917435	-0.112330	0.000074
C198	C	1.167435	0.137670	0.250074
C199	C	1.417435	0.387670	0.500074
C200	C	1.667435	0.637670	0.750074
C201	C	0.916396	-0.171731	0.000066
C202	C	1.166396	0.078269	0.250066
C203	C	1.416396	0.328269	0.500066
C204	C	1.666396	0.578269	0.750066
C205	C	0.992219	-0.208210	0.000065
C206	C	1.242219	0.041790	0.250065
C207	C	1.492219	0.291790	0.500065
C208	C	1.742219	0.541790	0.750065
O209	O	0.849872	-0.259945	0.000073
O210	O	1.099872	-0.009945	0.250073
O211	O	1.349872	0.240055	0.500073
O212	O	1.599872	0.490055	0.750073
O213	O	1.132335	-0.285076	0.000053
O214	O	1.382335	-0.035076	0.250053
O215	O	1.632335	0.214924	0.500053
O216	O	1.882335	0.464924	0.750053
C217	C	1.141561	0.073781	0.000069
C218	C	1.391561	0.323781	0.250069
C219	C	1.641561	0.573781	0.500069
C220	C	1.891561	0.823781	0.750069
C221	C	1.234502	0.074905	0.000070
C222	C	1.484502	0.324905	0.250070
C223	C	1.734502	0.574905	0.500070
C224	C	1.984502	0.824905	0.750070
C225	C	0.981465	0.182060	0.000037
C226	C	1.231465	0.432060	0.250037
C227	C	1.481465	0.682060	0.500037
C228	C	1.731465	0.932060	0.750037
C229	C	0.982591	0.245281	0.000024
C230	C	1.232591	0.495281	0.250024
C231	C	1.482591	0.745281	0.500024
C232	C	1.732591	0.995281	0.750024
N233	N	0.988403	0.077946	0.218763
N234	N	1.238403	0.327946	0.468763
N235	N	1.488403	0.577946	0.718763
N236	N	1.738403	0.827946	0.968763
N237	N	0.988492	0.077927	-0.218646
N238	N	1.238492	0.327927	0.031354
N239	N	1.488492	0.577927	0.281354
N240	N	1.738492	0.827927	0.531354
C241	C	0.988463	0.077933	0.592854
C242	C	1.238463	0.327933	0.842854
C243	C	1.488463	0.577933	1.092854
C244	C	1.738463	0.827933	1.342854
C245	C	0.919059	0.124562	0.553673
C246	C	1.169059	0.374562	0.803673
C247	C	1.419059	0.624562	1.053673
C248	C	1.669059	0.874562	1.303673
C249	C	0.919217	0.124732	0.446585
C250	C	1.169217	0.374732	0.696585
C251	C	1.419217	0.624732	0.946585
C252	C	1.669217	0.874732	1.196585
C253	C	0.988432	0.077939	0.407263
C254	C	1.238432	0.327939	0.657263
C255	C	1.488432	0.577939	0.907263
C256	C	1.738432	0.827939	1.157263
C257	C	1.075689	0.090918	0.446104
C258	C	1.325689	0.340918	0.696104
C259	C	1.575689	0.590918	0.946104
C260	C	1.825689	0.840918	1.196104
C261	C	1.075298	0.091250	0.553226
C262	C	1.325298	0.341250	0.803226
C263	C	1.575298	0.591250	1.053226
C264	C	1.825298	0.841250	1.303226
C265	C	0.971390	0.018188	0.553394
C266	C	1.221390	0.268188	0.803394
C267	C	1.471390	0.518188	1.053394
C268	C	1.721390	0.768188	1.303394
C269	C	0.969383	0.018587	0.446267
C270	C	1.219383	0.268587	0.696267
C271	C	1.469383	0.518587	0.946267
C272	C	1.719383	0.768587	1.196267
C273	C	0.988421	0.077942	0.302375
C274	C	1.238421	0.327942	0.552375
C275	C	1.488421	0.577942	0.802375
C276	C	1.738421	0.827942	1.052375
C277	C	0.988480	0.077932	0.697742
C278	C	1.238480	0.327932	0.947742
C279	C	1.488480	0.577932	1.197742
C280	C	1.738480	0.827932	1.447742
H281	H	0.577921	-0.008349	0.062975
H282	H	0.827921	0.241651	0.312975
H283	H	1.077921	0.491651	0.562975
H284	H	1.327921	0.741651	0.812975
F285	F	0.407248	0.082771	0.173935
F286	F	0.657248	0.332771	0.423935
F287	F	0.907248	0.582771	0.673935
F288	F	1.157248	0.832771	0.923935
H289	H	1.090418	0.134821	0.578193
H290	H	1.340418	0.384821	0.828193
H291	H	1.590418	0.634821	1.078193
H292	H	1.840418	0.884821	1.328193
H293	H	0.774569	-0.349085	-0.000006
H294	H	1.024569	-0.099085	0.249994
H295	H	1.274569	0.150915	0.499994
H296	H	1.524569	0.400915	0.749994
H297	H	0.544632	0.156043	-0.090985
H298	H	0.794632	0.406043	0.159015
H299	H	1.044632	0.656043	0.409015
H300	H	1.294632	0.906043	0.659015
H301	H	0.401642	0.153804	-0.091771
H302	H	0.651642	0.403804	0.158229
H303	H	0.901642	0.653804	0.408229
H304	H	1.151642	0.903804	0.658229
F305	F	0.568227	0.081765	-0.173075
F306	F	0.818227	0.331765	0.076925
F307	F	1.068227	0.581765	0.326925
F308	F	1.318227	0.831765	0.576925
F309	F	0.566675	0.080015	0.173002
F310	F	0.816675	0.330015	0.423002
F311	F	1.066675	0.580015	0.673002
F312	F	1.316675	0.830015	0.923002
F313	F	0.550403	0.169556	0.095055
F314	F	0.800403	0.419556	0.345055
F315	F	1.050403	0.669556	0.595055
F316	F	1.300403	0.919556	0.845055
H317	H	0.846088	-0.629131	0.000015
H318	H	1.096088	-0.379131	0.250015
H319	H	1.346088	-0.129131	0.500015
H320	H	1.596088	0.120869	0.750015
H321	H	1.202331	-0.495018	0.000055
H322	H	1.452331	-0.245018	0.250055
H323	H	1.702331	0.004982	0.500055
H324	H	1.952331	0.254982	0.750055
H325	H	0.401739	0.155290	0.087570
H326	H	0.651739	0.405290	0.337570
H327	H	0.901739	0.655290	0.587570
H328	H	1.151739	0.905290	0.837570
F329	F	0.834592	-0.196123	0.000067
F330	F	1.084592	0.053877	0.250067
F331	F	1.334592	0.303877	0.500067
F332	F	1.584592	0.553877	0.750067
H333	H	0.844194	-0.736887	0.000027
H334	H	1.094194	-0.486887	0.250027
H335	H	1.344194	-0.236887	0.500027
H336	H	1.594194	0.013113	0.750027
F337	F	1.151916	-0.101497	0.000106
F338	F	1.401916	0.148503	0.250106
F339	F	1.651916	0.398503	0.500106
F340	F	1.901916	0.648503	0.750106
H341	H	0.855713	-0.082617	0.000073
H342	H	1.105713	0.167383	0.250073
H343	H	1.355713	0.417383	0.500073
H344	H	1.605713	0.667383	0.750073
F345	F	0.427297	-0.017723	-0.081377
F346	F	0.677297	0.232277	0.168623
F347	F	0.927297	0.482277	0.418623
F348	F	1.177297	0.732277	0.668623
H349	H	1.130810	-0.214986	0.000074
H350	H	1.380810	0.035014	0.250074
H351	H	1.630810	0.285014	0.500074
H352	H	1.880810	0.535014	0.750074
H353	H	0.909171	0.005708	0.580460
H354	H	1.159171	0.255708	0.830460
H355	H	1.409171	0.505708	1.080460
H356	H	1.659171	0.755708	1.330460
F357	F	0.410599	0.078807	-0.173517
F358	F	0.660599	0.328807	0.076483
F359	F	0.910599	0.578807	0.326483
F360	F	1.160599	0.828807	0.576483
F361	F	0.834408	0.114654	0.412260
F362	F	1.084408	0.364654	0.662260
F363	F	1.334408	0.614654	0.912260
F364	F	1.584408	0.864654	1.162260
F365	F	1.223446	-0.381537	0.000060
F366	F	1.473446	-0.131537	0.250060
F367	F	1.723446	0.118463	0.500060
F368	F	1.973446	0.368463	0.750060
H369	H	1.123087	-0.653734	0.000047
H370	H	1.373087	-0.403734	0.250047
H371	H	1.623087	-0.153734	0.500047
H372	H	1.873087	0.096266	0.750047
H373	H	1.121181	-0.761507	0.000036
H374	H	1.371181	-0.511507	0.250036
H375	H	1.621181	-0.261507	0.500036
H376	H	1.871181	-0.011507	0.750036
F377	F	0.833981	0.114615	0.587357
F378	F	1.083981	0.364615	0.837357
F379	F	1.333981	0.614615	1.087357
F380	F	1.583981	0.864615	1.337357
F381	F	0.753447	-0.462570	-0.000014
F382	F	1.003447	-0.212570	0.249986
F383	F	1.253447	0.037430	0.499986
F384	F	1.503447	0.287430	0.749986
F385	F	0.933048	0.182188	0.588819
F386	F	1.183048	0.432188	0.838819
F387	F	1.433048	0.682188	1.088819
F388	F	1.683048	0.932188	1.338819
H389	H	0.930067	0.169068	0.420943
H390	H	1.180067	0.419068	0.670943
H391	H	1.430067	0.669068	0.920943
H392	H	1.680067	0.919068	1.170943
H393	H	1.128548	0.057860	0.420631
H394	H	1.378548	0.307860	0.670631
H395	H	1.628548	0.557860	0.920631
H396	H	1.878548	0.807860	1.170631
F397	F	1.144737	0.048503	0.587104
F398	F	1.394737	0.298503	0.837104
F399	F	1.644737	0.548503	1.087104
F400	F	1.894737	0.798503	1.337104
F401	F	1.095944	0.147220	0.411017
F402	F	1.345944	0.397220	0.661017
F403	F	1.595944	0.647220	0.911017
F404	F	1.845944	0.897220	1.161017
F405	F	0.885489	0.005711	0.413088
F406	F	1.135489	0.255711	0.663088
F407	F	1.385489	0.505711	0.913088
F408	F	1.635489	0.755711	1.163088
H409	H	1.016688	-0.017738	0.419504
H410	H	1.266688	0.232262	0.669504
H411	H	1.516688	0.482262	0.919504
H412	H	1.766688	0.732262	1.169504
H413	H	0.434295	-0.010221	0.063354
H414	H	0.684295	0.239779	0.313354
H415	H	0.934295	0.489779	0.563354
H416	H	1.184295	0.739779	0.813354
F417	F	0.585977	-0.015852	-0.082430
F418	F	0.835977	0.234148	0.167570
F419	F	1.085977	0.484148	0.417570
F420	F	1.335977	0.734148	0.667570
H421	H	1.022009	-0.016511	0.578732
H422	H	1.272009	0.233489	0.828732
H423	H	1.522009	0.483489	1.078732
H424	H	1.772009	0.733489	1.328732
