data_functionalizedCrystal
_audit_creation_method	'MofGen! by Chris Wilmer'
_symmetry_space_group_name_H-M	'P1'
_symmetry_Int_Tables_number	1
_symmetry_cell_setting	triclinic
loop_
_symmetry_equiv_pos_as_xyz
  x,y,z
_cell_length_a	15.698487
_cell_length_b	20.016444
_cell_length_c	20.016444
_cell_angle_alpha	90.003000
_cell_angle_beta	60.003646
_cell_angle_gamma	59.998798
loop_
_atom_site_label
_atom_site_type_symbol
_atom_site_fract_x
_atom_site_fract_y
_atom_site_fract_z
Zr1	Zr	0.932353	0.643610	-0.087623
O2	O	1.110064	0.536932	-0.194297
O3	O	0.754643	0.676312	-0.054924
O4	O	0.932345	0.676312	-0.194293
O5	O	0.932369	0.536933	0.055013
O6	O	0.932338	0.786257	-0.194288
O7	O	0.932362	0.536933	-0.054927
O8	O	0.614461	0.786258	0.055019
O9	O	1.250245	0.536932	-0.194295
O10	O	0.827733	0.772310	-0.040971
O11	O	0.827743	0.690260	0.041072
O12	O	1.036964	0.690259	-0.123018
O13	O	1.036974	0.608208	-0.040975
Zr14	Zr	0.932353	0.818960	0.087727
Zr15	Zr	0.932343	0.818960	-0.087614
Zr16	Zr	0.932364	0.643610	0.087719
Zr17	Zr	1.155926	0.643610	-0.087619
Zr18	Zr	0.708780	0.818960	0.087723
O19	O	1.110064	0.786258	0.055028
O20	O	1.110049	0.786257	-0.194285
O21	O	1.110079	0.536933	0.055016
O22	O	0.754643	0.925638	0.194401
O23	O	0.754627	0.925637	-0.054911
O24	O	0.754658	0.676313	0.194389
O25	O	0.932338	0.925637	-0.054908
O26	O	0.932362	0.786258	0.194398
O27	O	0.932369	0.676313	0.194392
O28	O	0.932345	0.925637	0.055032
O29	O	1.250237	0.676311	-0.194288
O30	O	0.614470	0.786259	0.194392
O31	O	0.614461	0.925638	0.194399
O32	O	0.614453	0.925638	0.055026
O33	O	1.250254	0.536932	-0.054921
O34	O	1.250245	0.676312	-0.054915
O35	O	0.827743	0.772311	0.123123
O36	O	0.827733	0.854361	0.041080
O37	O	1.036964	0.772310	-0.040967
O38	O	1.036974	0.690260	0.041076
C39	C	0.652698	0.731285	0.000047
C40	C	0.557785	0.731285	0.000046
C41	C	0.932367	0.731286	0.219378
C42	C	0.932371	0.731286	0.293815
C43	C	0.932340	0.950621	0.000063
C44	C	0.932335	1.025061	0.000066
C45	C	0.384002	0.731283	0.000060
C46	C	0.480707	0.731283	0.000054
C47	C	1.212009	0.731285	0.000057
C48	C	1.306922	0.731285	0.000059
C49	C	0.932367	0.511949	0.000042
C50	C	0.932371	0.437509	0.000038
C51	C	0.823133	1.239148	0.042881
C52	C	0.823138	1.309089	0.042875
C53	C	1.041582	1.223414	-0.042782
C54	C	1.041576	1.153475	-0.042780
C55	C	0.932348	1.161345	0.000056
C56	C	0.932359	1.301225	0.000048
C57	C	0.932365	1.377058	0.000041
C58	C	0.932341	1.085507	0.000062
C59	C	0.932340	0.731284	-0.219273
C60	C	0.932335	0.731284	-0.293710
C61	C	1.041574	0.688453	0.422254
C62	C	1.041569	0.688451	0.492199
C63	C	0.823124	0.774118	0.577849
C64	C	0.823131	0.774115	0.507904
C65	C	0.932359	0.731285	0.430107
C66	C	0.932348	0.731285	0.569997
C67	C	0.932341	0.731283	0.645835
C68	C	0.932366	0.731286	0.354264
C69	C	0.652684	0.950621	0.000058
C70	C	0.557767	1.025062	0.000060
C71	C	0.652711	0.731286	0.219373
C72	C	0.557803	0.731286	0.293808
C73	C	0.652698	0.950622	0.219383
C74	C	0.557785	1.025063	0.293822
C75	C	1.212009	0.511948	-0.219279
C76	C	1.306922	0.437507	-0.293718
C77	C	1.212022	0.511949	0.000047
C78	C	1.306940	0.437508	0.000045
C79	C	1.211996	0.731284	-0.219268
C80	C	1.306904	0.731283	-0.293703
C81	C	0.513193	1.017190	-0.042776
C82	C	0.424021	1.087128	-0.042791
C83	C	0.379418	1.164937	0.000036
C84	C	0.424001	1.172808	0.042873
C85	C	0.513178	1.102870	0.042883
C86	C	0.513233	0.774116	0.371601
C87	C	0.424069	0.774114	0.441547
C88	C	0.379471	0.731285	0.433699
C89	C	0.424050	0.688450	0.355898
C90	C	0.513218	0.688448	0.285954
C91	C	0.513208	1.102858	0.285954
C92	C	0.424040	1.172810	0.355891
C93	C	0.379444	1.164965	0.433695
C94	C	0.424030	1.087161	0.441561
C95	C	0.513203	1.017211	0.371625
C96	C	1.351510	0.359712	-0.285850
C97	C	1.440705	0.289760	-0.355786
C98	C	1.485305	0.297605	-0.433590
C99	C	1.440714	0.375408	-0.441457
C100	C	1.351526	0.445359	-0.371521
C101	C	1.351523	0.445380	0.042873
C102	C	1.440720	0.375442	0.042869
C103	C	1.485326	0.297633	0.000039
C104	C	1.440739	0.289762	-0.042795
C105	C	1.351549	0.359700	-0.042794
C106	C	1.351474	0.774120	-0.285829
C107	C	1.440638	0.774136	-0.355763
C108	C	1.485237	0.731310	-0.433569
C109	C	1.440658	0.688471	-0.441442
C110	C	1.351489	0.688461	-0.371509
H111	H	0.734192	1.245560	0.077759
C112	C	0.562229	0.641342	0.200384
H113	H	0.621727	0.647466	0.159845
H114	H	0.498191	0.662497	0.194265
H115	H	0.597026	0.584990	0.194249
H116	H	0.734204	1.372437	0.077747
C117	C	0.562250	1.111504	0.200379
H118	H	0.522930	1.167859	0.205721
H119	H	0.547631	1.086005	0.171310
H120	H	0.646451	1.085996	0.171317
C121	C	1.161723	1.214763	-0.089912
H122	H	1.146087	1.267559	-0.083780
H123	H	1.206578	1.185701	-0.146254
H124	H	1.206619	1.185701	-0.068769
H125	H	0.734194	0.808991	0.641198
C126	C	1.161718	1.067887	-0.089887
H127	H	1.226772	1.073215	-0.115389
H128	H	1.166256	1.038820	-0.130414
H129	H	1.166251	1.038828	-0.052910
H130	H	1.130515	0.653576	0.358911
H131	H	1.476984	0.653603	-0.504801
H132	H	0.549508	0.953840	-0.077661
H133	H	0.734189	0.808994	0.514305
H134	H	1.130503	0.653571	0.485797
H135	H	0.387747	1.236154	0.349471
H136	H	1.315175	0.808995	-0.222482
H137	H	0.387732	1.080704	-0.077674
H138	H	0.387784	0.808998	0.504889
H139	H	1.315223	0.508701	-0.377937
H140	H	0.306803	1.221878	0.000022
C141	C	1.302486	0.641326	-0.380181
H142	H	1.341833	0.615818	-0.436537
H143	H	1.218289	0.678280	-0.354681
H144	H	1.317130	0.600786	-0.354688
C145	C	0.374920	1.258400	0.089986
H146	H	0.315416	1.298918	0.083849
H147	H	0.438922	1.264552	0.068851
H148	H	0.340112	1.264539	0.146337
H149	H	0.549458	1.109291	0.077770
C150	C	0.562215	0.931641	0.380290
H151	H	0.522869	0.936995	0.436646
H152	H	0.646411	0.902560	0.354791
H153	H	0.547575	0.902583	0.354795
C154	C	1.489766	0.384032	-0.527041
H155	H	1.450446	0.440382	-0.521720
H156	H	1.475149	0.358515	-0.556097
H157	H	1.573966	0.358526	-0.556104
H158	H	0.549535	0.808993	0.378006
C159	C	1.302500	0.351035	-0.089897
H160	H	1.242996	0.403827	-0.083772
H161	H	1.267727	0.321967	-0.068743
H162	H	1.366526	0.321972	-0.146247
C163	C	1.489672	0.821249	-0.347088
H164	H	1.450352	0.846738	-0.290733
H165	H	1.475049	0.861790	-0.372577
H166	H	1.573873	0.784274	-0.372593
C167	C	0.281381	0.731299	0.510643
H168	H	0.261221	0.762950	0.558095
H169	H	0.310602	0.676735	0.510656
H170	H	0.211786	0.754240	0.510655
H171	H	0.387724	0.653580	0.349521
H172	H	0.306834	1.221929	0.490634
C173	C	1.583329	0.731320	-0.510487
H174	H	1.603489	0.762961	-0.494647
H175	H	1.554110	0.754251	-0.542134
H176	H	1.652923	0.676749	-0.542126
H177	H	0.387708	1.080786	0.504919
H178	H	1.315201	0.353309	-0.222504
C179	C	1.489730	0.204187	-0.347118
H180	H	1.450373	0.209540	-0.290764
H181	H	1.573922	0.175116	-0.372607
H182	H	1.475112	0.175119	-0.372626
H183	H	1.557928	0.240641	-0.490530
C184	C	1.302471	0.530961	0.089990
H185	H	1.341816	0.525620	0.115487
H186	H	1.218279	0.560027	0.130522
H187	H	1.317086	0.560027	0.053021
H188	H	1.477008	0.381866	0.077752
C189	C	1.583428	0.220709	0.000048
H190	H	1.603578	0.236548	0.031698
H191	H	1.653014	0.189062	-0.054514
H192	H	1.554199	0.189067	0.022986
C193	C	1.489805	0.204170	-0.089896
H194	H	1.549296	0.163652	-0.083749
H195	H	1.524598	0.198019	-0.146244
H196	H	1.425783	0.198031	-0.068736
