data_functionalizedCrystal
_audit_creation_method	'MofGen! by Chris Wilmer'
_symmetry_space_group_name_H-M	'P1'
_symmetry_Int_Tables_number	1
_symmetry_cell_setting	triclinic
loop_
_symmetry_equiv_pos_as_xyz
  x,y,z
_cell_length_a	10.540491
_cell_length_b	9.616153
_cell_length_c	14.519709
_cell_angle_alpha	90.003203
_cell_angle_beta	95.907094
_cell_angle_gamma	89.993553
loop_
_atom_site_label
_atom_site_type_symbol
_atom_site_fract_x
_atom_site_fract_y
_atom_site_fract_z
O1	O	-1.684603	0.115636	0.129751
O2	O	-1.315057	0.115642	0.142043
O3	O	-1.509628	0.115626	0.001710
O4	O	-1.490032	0.115651	0.270084
O5	O	-1.509601	-0.115665	0.001713
O6	O	-1.315030	-0.115650	0.142046
O7	O	-1.684577	-0.115656	0.129754
Zn8	Zn	-1.499799	-0.152375	0.135901
Zn9	Zn	-1.499834	0.152361	0.135897
O10	O	-1.490005	-0.115640	0.270087
C11	C	-1.267749	-0.000003	0.141133
C12	C	-1.126826	-0.000001	0.138403
C13	C	-0.908373	0.000542	0.235896
C14	C	-1.054940	0.000011	0.238808
C15	C	-1.082575	-0.132081	0.087011
C16	C	-0.935835	-0.132182	0.084810
C17	C	-0.936081	0.130840	0.082716
C18	C	-1.082375	0.132575	0.087471
N19	N	-1.499784	-0.360350	0.135903
C20	C	-1.395389	-0.580711	0.210720
C21	C	-1.395614	-0.419544	0.211000
C22	C	-1.632287	-0.418799	0.157777
C23	C	-1.631718	-0.580017	0.158307
C24	C	-1.473001	-0.580270	0.038966
C25	C	-1.469948	-0.419043	0.039594
C26	C	-0.731882	-0.000004	0.130677
C27	C	-0.872799	0.000013	0.133443
C28	C	-1.508701	-0.000020	-0.032653
C29	C	-1.505965	-0.000021	-0.135048
N30	N	-1.499859	0.360336	0.135888
C31	C	-1.495890	0.000016	-0.509997
C32	C	-1.498688	0.000005	-0.405674
C33	C	-1.500927	-0.000004	-0.322526
C34	C	-1.503725	-0.000012	-0.218197
C35	C	-1.490932	0.000009	0.304450
C36	C	-1.493669	0.000019	0.406846
H37	H	-1.130719	-0.137001	0.013095
F38	F	-1.091519	-0.123948	0.291676
F39	F	-1.572575	-0.630098	-0.033836
F40	F	-1.266249	-0.631412	0.193774
H41	H	-1.711896	-0.619011	0.105998
F42	F	-1.736331	-0.368684	0.088481
F43	F	-0.882781	-0.261219	0.130727
H44	H	-0.893221	0.230950	0.114379
F45	F	-0.906775	-0.140095	-0.013337
H46	H	-1.656472	-0.378402	0.227689
H47	H	-1.412327	-0.621203	0.282220
H48	H	-1.412780	-0.380958	0.282908
H49	H	-1.083887	0.094694	0.279013
F50	F	-1.122410	-0.260554	0.133663
H51	H	-1.655351	-0.617599	0.229018
H52	H	-0.866031	0.095265	0.275012
H53	H	-0.864458	-0.093636	0.274789
F54	F	-1.119341	0.260296	0.136322
F55	F	-1.349427	-0.633477	0.011762
H56	H	-1.372477	-0.380843	0.023013
H57	H	-1.132192	0.140544	0.014168
F58	F	-0.908137	0.131995	-0.015812
H59	H	-1.541072	-0.378755	-0.018766
H60	H	-1.297130	-0.380029	0.197841
