data_functionalizedCrystal
_audit_creation_method	'MofGen! by Chris Wilmer'
_symmetry_space_group_name_H-M	'P1'
_symmetry_Int_Tables_number	1
_symmetry_cell_setting	triclinic
loop_
_symmetry_equiv_pos_as_xyz
  x,y,z
_cell_length_a	16.109302
_cell_length_b	10.654551
_cell_length_c	15.186229
_cell_angle_alpha	89.998019
_cell_angle_beta	89.994701
_cell_angle_gamma	83.973605
loop_
_atom_site_label
_atom_site_type_symbol
_atom_site_fract_x
_atom_site_fract_y
_atom_site_fract_z
O1	O	1.104090	0.161423	-0.073265
O2	O	0.862148	0.181511	-0.073257
O3	O	0.988681	-0.011348	-0.073259
O4	O	0.977557	0.354281	-0.073263
O5	O	0.988673	-0.011350	0.073198
O6	O	0.862140	0.181508	0.073200
O7	O	1.104082	0.161420	0.073193
Zn8	Zn	0.983109	0.171464	0.096449
Zn9	Zn	0.983121	0.171467	-0.096514
O10	O	0.977549	0.354279	0.073194
C11	C	0.831164	0.180695	-0.000028
C12	C	0.738854	0.178255	-0.000025
C13	C	0.526475	0.172612	0.079800
C14	C	0.439741	0.170306	0.079797
C15	C	0.439761	0.170315	-0.079879
C16	C	0.526494	0.172612	-0.079875
C17	C	0.569848	0.173767	-0.000033
C18	C	0.396382	0.169164	-0.000040
C19	C	0.302341	0.166664	-0.000044
C20	C	0.663895	0.176265	-0.000029
C21	C	0.987860	-0.058136	-0.000032
C22	C	0.985416	-0.197546	-0.000036
C23	C	0.984273	-0.263033	-0.079871
C24	C	0.981969	-0.394022	-0.079871
C25	C	0.981955	-0.394027	0.079804
C26	C	0.984252	-0.263039	0.079804
C27	C	0.930213	-0.563390	-0.175786
C28	C	0.929085	-0.628884	-0.255624
C29	C	0.978469	-0.596012	-0.326113
C30	C	1.029001	-0.497652	-0.316765
C31	C	1.030137	-0.432166	-0.236925
C32	C	0.980734	-0.465033	-0.166440
C33	C	1.036015	-0.093669	0.175713
C34	C	1.037157	-0.028182	0.255554
C35	C	0.987778	-0.061053	0.326049
C36	C	0.937258	-0.159419	0.316711
C37	C	0.936117	-0.224906	0.236870
C38	C	0.985494	-0.192027	0.166374
C39	C	1.135066	0.162236	-0.000039
C40	C	1.227376	0.164676	-0.000047
C41	C	0.978370	0.401067	-0.000035
C42	C	0.980814	0.540477	-0.000036
N43	N	0.983108	0.171460	0.228142
N44	N	0.983129	0.171461	-0.228207
C45	C	1.039156	0.086092	0.453864
C46	C	1.039159	0.086089	0.546054
C47	C	0.927074	0.256834	0.546065
C48	C	0.927068	0.256829	0.453877
C49	C	0.983114	0.171460	0.407779
C50	C	0.983123	0.171461	0.592156
C51	C	0.983125	0.171458	0.692113
C52	C	0.983111	0.171461	0.307816
H53	H	0.561810	0.173550	-0.144888
H54	H	0.881428	0.326347	0.416351
N55	N	0.881625	-0.331000	0.226790
H56	H	0.917585	-0.411850	0.212477
H57	H	0.850525	-0.341779	0.283582
N58	N	1.084626	-0.326080	-0.226834
H59	H	1.125974	-0.346741	-0.177616
H60	H	1.115690	-0.315243	-0.283642
H61	H	1.084791	0.016577	0.416333
H62	H	0.881444	0.326341	0.583607
N63	N	0.392993	0.169072	-0.165986
H64	H	0.350717	0.245923	-0.169545
H65	H	0.433686	0.170102	-0.216512
H66	H	0.561772	0.173552	0.144813
H67	H	0.985218	-0.209712	-0.144882
N68	N	1.099612	-0.005976	0.595761
H69	H	1.136693	0.042044	0.634002
H70	H	1.067469	-0.061575	0.633968
N71	N	1.082281	-0.462214	-0.392788
H72	H	1.073894	-0.518624	-0.444784
H73	H	1.065644	-0.371353	-0.409638
H74	H	0.404431	0.169366	0.144805
H75	H	0.887936	-0.708968	-0.263229
N76	N	0.977246	-0.666652	-0.412223
H77	H	0.957933	-0.605908	-0.460911
H78	H	1.035255	-0.707426	-0.425925
N79	N	0.876943	-0.598840	-0.099758
H80	H	0.844770	-0.671093	-0.117795
H81	H	0.913897	-0.625284	-0.047850
H82	H	0.897032	-0.186159	0.374106
N83	N	0.980717	-0.464669	0.165914
H84	H	0.979096	-0.557588	0.153802
H85	H	1.032570	-0.451964	0.200766
H86	H	0.988719	-0.007729	0.391063
H87	H	1.078299	0.051910	0.263155
N88	N	1.089266	-0.058204	0.099669
H89	H	1.121448	0.014041	0.117703
H90	H	1.129625	-0.133276	0.082655
