data_functionalizedCrystal
_audit_creation_method	'MofGen! by Chris Wilmer'
_symmetry_space_group_name_H-M	'P1'
_symmetry_Int_Tables_number	1
_symmetry_cell_setting	triclinic
loop_
_symmetry_equiv_pos_as_xyz
  x,y,z
_cell_length_a	11.169417
_cell_length_b	11.169416
_cell_length_c	17.077383
_cell_angle_alpha	90.081675
_cell_angle_beta	89.944336
_cell_angle_gamma	89.987040
loop_
_atom_site_label
_atom_site_type_symbol
_atom_site_fract_x
_atom_site_fract_y
_atom_site_fract_z
Zn1	Zn	1.835372	0.477043	-0.443825
Zn2	Zn	2.168706	0.810376	-0.110491
Zn3	Zn	2.502039	1.143709	0.222842
Zn4	Zn	1.835130	0.677972	-0.312579
Zn5	Zn	2.168463	1.011305	0.020754
Zn6	Zn	2.501797	1.344639	0.354088
Zn7	Zn	1.634533	0.477305	-0.312580
Zn8	Zn	1.967866	0.810638	0.020754
Zn9	Zn	2.301199	1.143971	0.354087
Zn10	Zn	1.634660	0.677685	-0.443810
Zn11	Zn	1.967993	1.011019	-0.110477
Zn12	Zn	2.301326	1.344352	0.222856
O13	O	1.734924	0.577501	-0.378198
O14	O	2.068257	0.910835	-0.044865
O15	O	2.401590	1.244168	0.288468
O16	O	2.003290	0.503707	-0.426420
O17	O	2.336623	0.837040	-0.093087
O18	O	2.669957	1.170373	0.240246
O19	O	1.808366	0.651583	-0.202732
O20	O	2.141699	0.984916	0.130602
O21	O	2.475033	1.318250	0.463935
O22	O	1.661223	0.309320	-0.329996
O23	O	1.994556	0.642654	0.003337
O24	O	2.327889	0.975987	0.336671
O25	O	2.003112	0.651329	-0.329995
O26	O	2.336445	0.984662	0.003339
O27	O	2.669779	1.317995	0.336672
O28	O	1.808779	0.309128	-0.426421
O29	O	2.142112	0.642461	-0.093088
O30	O	2.475446	0.975794	0.240246
O31	O	1.660988	0.504153	-0.202732
O32	O	1.994321	0.837487	0.130601
O33	O	2.327655	1.170820	0.463934
O34	O	1.466600	0.503875	-0.329982
O35	O	1.799933	0.837209	0.003351
O36	O	2.133267	1.170542	0.336685
O37	O	1.661439	0.650840	-0.553659
O38	O	1.994773	0.984173	-0.220326
O39	O	2.328106	1.317507	0.113007
O40	O	1.466693	0.651094	-0.426397
O41	O	1.800026	0.984428	-0.093063
O42	O	2.133360	1.317761	0.240270
O43	O	1.808902	0.503428	-0.553670
O44	O	2.142235	0.836762	-0.220337
O45	O	2.475569	1.170095	0.112997
O46	O	1.808489	0.845884	-0.329981
O47	O	2.141822	1.179217	0.003353
O48	O	2.475156	1.512550	0.336686
O49	O	1.661204	0.845673	-0.426396
O50	O	1.994538	1.179006	-0.093062
O51	O	2.327871	1.512340	0.240271
C52	C	1.423099	0.577483	-0.378188
C53	C	1.756432	0.910816	-0.044855
C54	C	2.089766	1.244150	0.288478
C55	C	1.289699	0.577504	-0.378203
C56	C	1.623032	0.910837	-0.044869
C57	C	1.956366	1.244171	0.288464
C58	C	1.734867	0.889326	-0.378204
C59	C	2.068200	1.222659	-0.044870
C60	C	2.401533	1.555993	0.288463
C61	C	1.734952	1.022726	-0.378232
C62	C	2.068285	1.356059	-0.044899
C63	C	2.401619	1.689392	0.288434
C64	C	2.047966	0.577520	-0.378209
C65	C	2.381299	0.910854	-0.044876
C66	C	2.714633	1.244187	0.288458
C67	C	2.181366	0.577528	-0.378213
C68	C	2.514699	0.910862	-0.044880
C69	C	2.848033	1.244195	0.288453
C70	C	1.735212	0.577073	-0.582943
C71	C	2.068545	0.910406	-0.249610
C72	C	2.401878	1.243740	0.083724
C73	C	1.735334	0.576891	-0.670193
C74	C	2.068668	0.910224	-0.336860
C75	C	2.402001	1.243557	-0.003527
C76	C	1.735005	1.264459	-0.378221
C77	C	2.068339	1.597792	-0.044887
C78	C	2.401672	1.931125	0.288446
C79	C	1.735018	1.131059	-0.378257
C80	C	2.068352	1.464392	-0.044924
C81	C	2.401685	1.797725	0.288410
C82	C	1.734706	0.577841	-0.174250
C83	C	2.068039	0.911174	0.159083
C84	C	2.401373	1.244508	0.492417
C85	C	1.734816	0.577685	-0.087000
C86	C	2.068149	0.911019	0.246333
C87	C	2.401482	1.244352	0.579666
C88	C	1.811498	0.499663	0.288596
C89	C	2.144831	0.832996	0.621929
C90	C	2.478164	1.166329	0.955263
C91	C	1.811391	0.499813	0.206616
C92	C	2.144725	0.833147	0.539949
C93	C	2.478058	1.166480	0.873283
C94	C	1.735127	0.577198	0.165848
C95	C	2.068460	0.910532	0.499181
C96	C	2.401794	1.243865	0.832514
C97	C	1.658956	0.654429	0.207064
C98	C	1.992289	0.987763	0.540398
C99	C	2.325622	1.321096	0.873731
C100	C	1.659057	0.654272	0.289043
C101	C	1.992390	0.987605	0.622376
C102	C	2.325723	1.320939	0.955710
C103	C	1.658752	0.654754	0.036195
C104	C	1.992086	0.988087	0.369528
C105	C	2.325419	1.321421	0.702861
C106	C	1.658653	0.654913	-0.045790
C107	C	1.991986	0.988247	0.287544
C108	C	2.325319	1.321580	0.620877
C109	C	1.811087	0.500295	-0.046233
C110	C	2.144420	0.833628	0.287101
C111	C	2.477754	1.166962	0.620434
C112	C	1.811188	0.500138	0.035746
C113	C	2.144521	0.833471	0.369080
C114	C	2.477855	1.166804	0.702413
C115	C	1.735018	0.577371	0.076957
C116	C	2.068351	0.910704	0.410290
C117	C	2.401684	1.244037	0.743624
H118	H	1.873605	0.436650	0.321784
H119	H	2.206938	0.769984	0.655117
H120	H	2.540271	1.103317	0.988450
F121	F	1.892496	0.417658	0.162760
F122	F	2.225830	0.750991	0.496093
F123	F	2.559163	1.084325	0.829427
H124	H	1.597025	0.717147	0.322596
H125	H	1.930358	1.050480	0.655929
H126	H	2.263691	1.383813	0.989262
H127	H	1.596707	0.717627	0.069746
H128	H	1.930041	1.050960	0.403079
H129	H	2.263374	1.384293	0.736413
H130	H	1.873296	0.437131	0.068937
H131	H	2.206629	0.770464	0.402271
H132	H	2.539962	1.103797	0.735604
F133	F	1.577474	0.737265	-0.089177
F134	F	1.910807	1.070598	0.244157
F135	F	2.244141	1.403932	0.577490
F136	F	1.892155	0.418098	-0.090093
F137	F	2.225488	0.751431	0.243241
F138	F	2.558821	1.084765	0.576574
H139	H	1.596856	0.717433	0.173864
H140	H	1.930189	1.050767	0.507198
H141	H	2.263522	1.384100	0.840531
