data_functionalizedCrystal
_audit_creation_method	'MofGen! by Chris Wilmer'
_symmetry_space_group_name_H-M	'P1'
_symmetry_Int_Tables_number	1
_symmetry_cell_setting	triclinic
loop_
_symmetry_equiv_pos_as_xyz
  x,y,z
_cell_length_a	6.817900
_cell_length_b	19.551833
_cell_length_c	19.453103
_cell_angle_alpha	96.328251
_cell_angle_beta	101.709178
_cell_angle_gamma	101.663477
loop_
_atom_site_label
_atom_site_type_symbol
_atom_site_fract_x
_atom_site_fract_y
_atom_site_fract_z
V1	V	-3.997490	-0.218185	-0.097919
O2	O	-3.994601	-0.213698	0.003948
O3	O	-3.940512	-0.217014	-0.193428
O4	O	-3.940289	-0.313197	-0.096745
O5	O	-3.994825	-0.116850	-0.093404
V6	V	-4.483369	-0.206026	-0.085695
O7	O	-4.253578	-0.244858	-0.124732
O8	O	-4.677478	-0.179352	-0.058881
O9	O	-4.317141	-0.207196	0.009814
O10	O	-4.603655	-0.210513	-0.187561
O11	O	-4.603431	-0.307361	-0.090210
O12	O	-4.317363	-0.111014	-0.086869
C13	C	-3.783711	-0.213655	-0.216700
C14	C	-3.818353	-0.213331	-0.294782
C15	C	-3.783426	-0.336344	-0.093371
C16	C	-3.817885	-0.414019	-0.093043
C17	C	-4.015531	-0.454078	-0.096415
C18	C	-4.047910	-0.527061	-0.096107
C19	C	-3.882638	-0.559985	-0.092442
C20	C	-3.684962	-0.519917	-0.089066
C21	C	-3.652586	-0.446934	-0.089366
C22	C	-3.816405	-0.679425	-0.130633
C23	C	-3.848791	-0.752407	-0.130337
C24	C	-3.982489	-0.785089	-0.091511
C25	C	-4.083835	-0.744781	-0.052991
C26	C	-4.051459	-0.671798	-0.053291
C27	C	-3.917724	-0.639123	-0.092115
C28	C	-4.215255	-0.904285	-0.094548
C29	C	-4.247625	-0.977269	-0.094236
C30	C	-3.884675	-0.970124	-0.087201
C31	C	-3.852308	-0.897140	-0.087506
C32	C	-4.017607	-0.864226	-0.091183
C33	C	-4.016078	-0.216673	-0.335049
C34	C	-4.048632	-0.216376	-0.408416
C35	C	-3.883442	-0.212723	-0.441512
C36	C	-3.685691	-0.209384	-0.401236
C37	C	-3.653146	-0.209689	-0.327871
N38	N	-3.778662	-0.169662	-0.547631
N39	N	-3.809590	-0.169372	-0.617324
C40	C	-3.981486	-0.211807	-0.662556
N41	N	-4.121313	-0.254534	-0.635460
N42	N	-4.090387	-0.254822	-0.565760
C43	C	-3.918711	-0.212392	-0.521063
C44	C	-4.214523	-0.214827	-0.782376
C45	C	-4.247073	-0.214534	-0.855746
C46	C	-3.884122	-0.207535	-0.848563
C47	C	-3.851582	-0.207836	-0.775196
C48	C	-4.016789	-0.211478	-0.742107
C49	C	-4.137284	-0.210554	0.033083
C50	C	-4.081879	-0.210882	0.111164
C51	C	-4.137569	-0.087863	-0.090245
C52	C	-4.082348	-0.010187	-0.090569
H53	H	-4.150133	-0.427283	-0.099406
H54	H	-4.192708	-0.771389	-0.021376
N55	N	-4.160730	-0.628317	-0.011744
H56	H	-4.314489	-0.646215	-0.029845
H57	H	-4.120828	-0.632493	0.040272
H58	H	-4.349851	-0.877484	-0.097540
N59	N	-4.460348	-0.218145	-0.899181
H60	H	-4.556680	-0.263263	-0.894944
H61	H	-4.511170	-0.176154	-0.880994
H62	H	-3.749623	-0.204565	-0.875509
N63	N	-3.638308	-0.204229	-0.731766
H64	H	-3.541973	-0.159108	-0.735996
H65	H	-3.642930	-0.205007	-0.680288
H66	H	-4.208864	-0.559684	-0.098857
N67	N	-4.460804	-1.020477	-0.097859
H68	H	-4.560596	-0.988548	-0.100232
H69	H	-4.504893	-1.057848	-0.141651
H70	H	-4.349044	-0.217792	-0.755433
N71	N	-3.706388	-1.005611	-0.083279
H72	H	-3.598635	-0.984422	-0.038035
H73	H	-3.757013	-1.057924	-0.083638
N74	N	-3.639129	-0.853929	-0.083871
H75	H	-3.539338	-0.885858	-0.081501
H76	H	-3.640531	-0.830420	-0.127610
H77	H	-3.766279	-0.785222	-0.161707
H78	H	-3.707512	-0.652821	-0.162246
N79	N	-3.506697	-0.555422	-0.085107
H80	H	-3.557198	-0.607736	-0.085430
H81	H	-3.444532	-0.548033	-0.127390
H82	H	-3.491633	-0.414317	-0.086615
N83	N	-3.507512	-0.205437	-0.436926
H84	H	-3.558128	-0.205745	-0.489512
H85	H	-3.399931	-0.160420	-0.415560
H86	H	-4.150608	-0.219644	-0.308113
N87	N	-4.261905	-0.219982	-0.451859
H88	H	-4.361622	-0.222337	-0.419765
H89	H	-4.260630	-0.176466	-0.475485
H90	H	-3.492132	-0.206968	-0.295086
