data_functionalizedCrystal
_audit_creation_method	'MofGen! by Chris Wilmer'
_symmetry_space_group_name_H-M	'P1'
_symmetry_Int_Tables_number	1
_symmetry_cell_setting	triclinic
loop_
_symmetry_equiv_pos_as_xyz
  x,y,z
_cell_length_a	17.699077
_cell_length_b	10.540510
_cell_length_c	16.176319
_cell_angle_alpha	89.995706
_cell_angle_beta	89.993140
_cell_angle_gamma	83.896944
loop_
_atom_site_label
_atom_site_type_symbol
_atom_site_fract_x
_atom_site_fract_y
_atom_site_fract_z
O1	O	1.005115	0.160487	-0.068731
O2	O	1.505115	0.660487	0.431269
O3	O	0.784870	0.181379	-0.068735
O4	O	1.284870	0.681379	0.431265
O5	O	0.900029	-0.013868	-0.068732
O6	O	1.400029	0.486132	0.431268
O7	O	0.889956	0.355734	-0.068733
O8	O	1.389956	0.855734	0.431267
O9	O	0.900013	-0.013881	0.068761
O10	O	1.400013	0.486119	0.568761
O11	O	0.784854	0.181367	0.068759
O12	O	1.284854	0.681367	0.568759
O13	O	1.005099	0.160474	0.068762
O14	O	1.505099	0.660474	0.568762
Cu15	Cu	0.894975	0.170919	0.081315
Cu16	Cu	1.394975	0.670919	0.581315
Cu17	Cu	0.894994	0.170934	-0.081287
Cu18	Cu	1.394994	0.670934	0.418713
O19	O	0.889940	0.355722	0.068760
O20	O	1.389940	0.855722	0.568760
C21	C	0.756660	0.180625	0.000012
C22	C	1.256660	0.680625	0.500012
C23	C	0.672628	0.178383	0.000010
C24	C	1.172628	0.678383	0.500010
C25	C	0.633145	0.177320	0.074958
C26	C	1.133145	0.677320	0.574958
C27	C	0.554188	0.175193	0.074959
C28	C	1.054188	0.675193	0.574959
C29	C	0.514716	0.174139	0.000011
C30	C	1.014716	0.674139	0.500011
C31	C	0.554205	0.175198	-0.074943
C32	C	1.054205	0.675198	0.425057
C33	C	0.633160	0.177316	-0.074943
C34	C	1.133160	0.677316	0.425057
C35	C	0.235786	0.166656	-0.074945
C36	C	0.735786	0.666656	0.425055
C37	C	0.156825	0.164542	-0.074939
C38	C	0.656825	0.664542	0.425061
C39	C	0.156815	0.164534	0.074958
C40	C	0.656815	0.664534	0.574958
C41	C	0.235770	0.166651	0.074958
C42	C	0.735770	0.666651	0.574958
C43	C	0.275253	0.167704	0.000004
C44	C	0.775253	0.667704	0.500004
C45	C	0.360866	0.170008	0.000004
C46	C	0.860866	0.670008	0.500004
C47	C	0.429103	0.171844	0.000010
C48	C	0.929103	0.671844	0.500010
C49	C	0.899270	-0.061164	0.000012
C50	C	1.399270	0.438836	0.500012
C51	C	0.897025	-0.202073	0.000007
C52	C	1.397025	0.297927	0.500007
C53	C	0.977025	-0.420995	0.000324
C54	C	1.477025	0.079005	0.500324
C55	C	0.979421	-0.274443	0.000009
C56	C	1.479421	0.225557	0.500009
C57	C	0.854855	-0.246052	-0.078507
C58	C	1.354855	0.253948	0.421493
C59	C	0.853043	-0.392780	-0.078568
C60	C	1.353043	0.107220	0.421432
C61	C	0.851309	-0.392571	0.077787
C62	C	1.351309	0.107429	0.577787
C63	C	0.855217	-0.246301	0.078821
C64	C	1.355217	0.253699	0.578821
C65	C	1.033309	0.161228	0.000014
C66	C	1.533309	0.661228	0.500014
C67	C	1.117341	0.163470	0.000010
C68	C	1.617341	0.663470	0.500010
C69	C	0.890699	0.403018	0.000013
C70	C	1.390699	0.903018	0.500013
C71	C	0.892944	0.543926	0.000013
C72	C	1.392944	1.043926	0.500013
N73	N	0.894967	0.170908	0.195680
N74	N	1.394967	0.670908	0.695680
N75	N	0.895008	0.170935	-0.195652
N76	N	1.395008	0.670935	0.304348
C77	C	0.945975	0.084488	0.238945
C78	C	1.445975	0.584488	0.738945
C79	C	0.945979	0.084487	0.325492
C80	C	1.445979	0.584487	0.825492
C81	C	0.894978	0.170913	0.368772
C82	C	1.394978	0.670913	0.868772
C83	C	0.843964	0.257337	0.325501
C84	C	1.343964	0.757337	0.825501
C85	C	0.843958	0.257331	0.238956
C86	C	1.343958	0.757331	0.738956
C87	C	0.843991	0.257361	0.674529
C88	C	1.343991	0.757361	1.174529
C89	C	0.844003	0.257362	0.761081
C90	C	1.344003	0.757362	1.261081
C91	C	0.946012	0.084516	0.761066
C92	C	1.446012	0.584516	1.261066
C93	C	0.946005	0.084510	0.674520
C94	C	1.446005	0.584510	1.174520
C95	C	0.894989	0.170930	0.631257
C96	C	1.394989	0.670930	1.131257
C97	C	0.894985	0.170928	0.537412
C98	C	1.394985	0.670928	1.037412
C99	C	0.894986	0.170921	0.462615
C100	C	1.394986	0.670921	0.962615
H101	H	0.124689	0.163682	-0.135975
H102	H	0.624689	0.663682	0.364025
H103	H	0.124659	0.163671	0.135989
H104	H	0.624659	0.663671	0.635989
H105	H	0.987550	0.014145	0.796300
H106	H	1.487550	0.514145	1.296300
Cl107	Cl	0.779881	0.366019	0.815490
Cl108	Cl	1.279881	0.866019	1.315490
H109	H	0.267924	0.167509	-0.135977
H110	H	0.767924	0.667509	0.364023
H111	H	0.885901	-0.218257	0.136905
H112	H	1.385901	0.281743	0.636905
Cl113	Cl	0.900090	-0.199243	-0.168720
Cl114	Cl	1.400090	0.300757	0.331280
Cl115	Cl	1.026581	-0.486685	0.087258
Cl116	Cl	1.526581	0.013315	0.587258
Cl117	Cl	1.010125	-0.024139	0.620114
Cl118	Cl	1.510125	0.475861	1.120114
Cl119	Cl	0.891453	-0.458936	0.169667
Cl120	Cl	1.391453	0.041064	0.669667
Cl121	Cl	0.285388	0.167984	0.169182
Cl122	Cl	0.785388	0.667984	0.669182
Cl123	Cl	1.026314	-0.489054	-0.086116
Cl124	Cl	1.526314	0.010946	0.413884
H125	H	0.795061	-0.196133	0.083561
H126	H	1.295061	0.303867	0.583561
Cl127	Cl	0.779861	0.366004	0.620147
Cl128	Cl	1.279861	0.866004	1.120147
Cl129	Cl	1.010104	-0.024159	0.379884
Cl130	Cl	1.510104	0.475841	0.879884
H131	H	0.987509	0.014115	0.203712
H132	H	1.487509	0.514115	0.703712
H133	H	0.802435	0.327703	0.360745
H134	H	1.302435	0.827703	0.860745
Cl135	Cl	0.779827	0.365975	0.184566
Cl136	Cl	1.279827	0.865975	0.684566
H137	H	0.665277	0.178189	0.135990
H138	H	1.165277	0.678189	0.635990
H139	H	1.012621	-0.246641	-0.056369
H140	H	1.512621	0.253359	0.443631
Cl141	Cl	0.761205	-0.171166	-0.083024
Cl142	Cl	1.261205	0.328834	0.416976
Cl143	Cl	0.504554	0.173880	0.169185
Cl144	Cl	1.004554	0.673880	0.669185
H145	H	0.522061	0.174331	-0.135968
H146	H	1.022061	0.674331	0.364032
H147	H	0.665306	0.178184	-0.135974
H148	H	1.165306	0.678184	0.364026
Cl149	Cl	1.030345	-0.230070	0.086916
Cl150	Cl	1.530345	0.269930	0.586916
H151	H	0.881875	-0.433518	-0.137258
H152	H	1.381875	0.066482	0.362742
H153	H	0.791416	-0.414645	-0.082127
H154	H	1.291416	0.085355	0.417873
Cl155	Cl	0.755798	-0.425021	0.078605
Cl156	Cl	1.255798	0.074979	0.578605
