data_functionalizedCrystal
_audit_creation_method	'MofGen! by Chris Wilmer'
_symmetry_space_group_name_H-M	'P1'
_symmetry_Int_Tables_number	1
_symmetry_cell_setting	triclinic
loop_
_symmetry_equiv_pos_as_xyz
  x,y,z
_cell_length_a	12.759401
_cell_length_b	11.169416
_cell_length_c	12.759393
_cell_angle_alpha	90.027570
_cell_angle_beta	90.019596
_cell_angle_gamma	90.010617
loop_
_atom_site_label
_atom_site_type_symbol
_atom_site_fract_x
_atom_site_fract_y
_atom_site_fract_z
Zn1	Zn	1.606298	-0.477740	0.594004
Zn2	Zn	1.606203	-0.678469	0.418333
Zn3	Zn	1.430597	-0.477800	0.418343
Zn4	Zn	1.430602	-0.678381	0.593974
O5	O	1.518425	-0.578097	0.506164
O6	O	1.753307	-0.504379	0.570709
O7	O	1.582866	-0.651912	0.271313
O8	O	1.453942	-0.309842	0.441662
O9	O	1.753236	-0.651854	0.441644
O10	O	1.583029	-0.309798	0.570719
O11	O	1.453849	-0.504481	0.271321
O12	O	1.283577	-0.504395	0.441633
O13	O	1.453951	-0.651704	0.740999
O14	O	1.283580	-0.651761	0.570668
O15	O	1.583034	-0.504294	0.741021
O16	O	1.582871	-0.846407	0.441616
O17	O	1.453858	-0.846342	0.570658
C18	C	1.245458	-0.578076	0.506149
C19	C	1.128681	-0.578096	0.506168
C20	C	1.518383	-0.889922	0.506156
C21	C	1.518462	-1.023322	0.506187
C22	C	0.964117	-0.654964	0.573258
C23	C	1.073841	-0.654951	0.573247
C24	C	1.073791	-0.501258	0.439088
C25	C	0.964069	-0.501278	0.439094
C26	C	1.792458	-0.578120	0.506179
C27	C	1.909235	-0.578129	0.506185
C28	C	1.518504	-0.577982	0.780197
C29	C	1.518537	-0.577933	0.896974
C30	C	1.518495	-0.265055	0.506195
C31	C	1.518525	-0.131655	0.506208
C32	C	1.518407	-0.578126	0.233196
C33	C	1.518577	-0.577837	0.116420
C34	C	1.585756	-0.501165	0.951849
C35	C	1.585773	-0.501113	1.061573
C36	C	1.451351	-0.654609	1.061537
C37	C	1.451329	-0.654653	0.951815
H38	H	0.919475	-0.717542	0.627888
H39	H	1.640478	-0.438691	0.907200
H40	H	1.640508	-0.438598	1.106247
C41	C	1.377433	-0.739007	1.121866
C42	C	1.377458	-0.738968	1.242556
C43	C	1.303541	-0.823372	1.302881
C44	C	1.229599	-0.907814	1.242517
C45	C	1.229571	-0.907857	1.121820
C46	C	1.303489	-0.823453	1.061495
H47	H	1.432197	-0.676456	1.287247
H48	H	1.303562	-0.823340	1.392230
H49	H	1.174881	-0.970295	1.287174
H50	H	1.174833	-0.970369	1.077129
H51	H	1.303468	-0.823485	0.972147
H52	H	1.118522	-0.717519	0.627864
C53	C	1.134115	-0.416710	0.365307
C54	C	1.119031	-0.280288	0.374091
C55	C	1.179355	-0.195732	0.300315
C56	C	1.254763	-0.247598	0.217754
C57	C	1.269852	-0.384027	0.208966
C58	C	1.209527	-0.468583	0.282743
H59	H	1.063205	-0.241887	0.435210
H60	H	1.168185	-0.094738	0.306820
H61	H	1.299419	-0.185005	0.163141
H62	H	1.325677	-0.422428	0.147847
H63	H	1.220697	-0.569577	0.276237
C64	C	0.903689	-0.416758	0.365305
C65	C	0.963999	-0.332217	0.291513
C66	C	0.903619	-0.247709	0.217722
C67	C	0.782929	-0.247741	0.217724
C68	C	0.722613	-0.332285	0.291519
C69	C	0.782993	-0.416793	0.365309
H70	H	1.053347	-0.332191	0.291509
H71	H	0.948270	-0.185124	0.163095
H72	H	0.738233	-0.185182	0.163100
H73	H	0.633265	-0.332311	0.291522
H74	H	0.738341	-0.479378	0.419937
C75	C	1.377380	-0.739105	0.891449
C76	C	1.257951	-0.729288	0.906525
C77	C	1.184001	-0.813732	0.846161
C78	C	1.229480	-0.907992	0.770720
C79	C	1.348916	-0.917813	0.755640
C80	C	1.422866	-0.833370	0.816005
H81	H	1.224278	-0.659508	0.962374
H82	H	1.095586	-0.806461	0.857324
H83	H	1.174738	-0.970502	0.726034
H84	H	1.382588	-0.987594	0.699792
H85	H	1.511280	-0.840641	0.804842
