data_functionalizedCrystal
_audit_creation_method	'MofGen! by Chris Wilmer'
_symmetry_space_group_name_H-M	'P1'
_symmetry_Int_Tables_number	1
_symmetry_cell_setting	triclinic
loop_
_symmetry_equiv_pos_as_xyz
  x,y,z
_cell_length_a	29.839131
_cell_length_b	29.839135
_cell_length_c	29.839125
_cell_angle_alpha	90.015751
_cell_angle_beta	89.982291
_cell_angle_gamma	89.956753
loop_
_atom_site_label
_atom_site_type_symbol
_atom_site_fract_x
_atom_site_fract_y
_atom_site_fract_z
Zn1	Zn	-0.178894	-0.686720	-0.254050
Zn2	Zn	0.071106	-0.436720	-0.004050
Zn3	Zn	0.321106	-0.186720	0.245950
Zn4	Zn	0.571106	0.063280	0.495950
Zn5	Zn	-0.254006	-0.686652	-0.178920
Zn6	Zn	-0.004006	-0.436652	0.071080
Zn7	Zn	0.245994	-0.186652	0.321080
Zn8	Zn	0.495994	0.063348	0.571080
Zn9	Zn	-0.178894	-0.611602	-0.178928
Zn10	Zn	0.071106	-0.361602	0.071072
Zn11	Zn	0.321106	-0.111602	0.321072
Zn12	Zn	0.571106	0.138398	0.571072
Zn13	Zn	-0.254001	-0.611550	-0.254017
Zn14	Zn	-0.004001	-0.361550	-0.004017
Zn15	Zn	0.245999	-0.111550	0.245983
Zn16	Zn	0.495999	0.138450	0.495983
O17	O	-0.216449	-0.649131	-0.216479
O18	O	0.033551	-0.399131	0.033521
O19	O	0.283551	-0.149131	0.283521
O20	O	0.533551	0.100869	0.533521
O21	O	-0.188861	-0.749578	-0.244095
O22	O	0.061139	-0.499578	0.005905
O23	O	0.311139	-0.249578	0.255905
O24	O	0.561139	0.000422	0.505905
O25	O	-0.244045	-0.676690	-0.116054
O26	O	0.005955	-0.426690	0.133946
O27	O	0.255955	-0.176690	0.383946
O28	O	0.505955	0.073310	0.633946
O29	O	-0.116027	-0.621617	-0.188911
O30	O	0.133973	-0.371617	0.061089
O31	O	0.383973	-0.121617	0.311089
O32	O	0.633973	0.128383	0.561089
O33	O	-0.244045	-0.749528	-0.188897
O34	O	0.005955	-0.499528	0.061103
O35	O	0.255955	-0.249528	0.311103
O36	O	0.505955	0.000472	0.561103
O37	O	-0.116027	-0.676805	-0.244103
O38	O	0.133973	-0.426805	0.005897
O39	O	0.383973	-0.176805	0.255897
O40	O	0.633973	0.073195	0.505897
O41	O	-0.188860	-0.621551	-0.116060
O42	O	0.061140	-0.371551	0.133940
O43	O	0.311140	-0.121551	0.383940
O44	O	0.561140	0.128449	0.633940
O45	O	-0.188854	-0.548728	-0.188878
O46	O	0.061146	-0.298728	0.061122
O47	O	0.311146	-0.048728	0.311122
O48	O	0.561146	0.201272	0.561122
O49	O	-0.244035	-0.621528	-0.316888
O50	O	0.005965	-0.371528	-0.066888
O51	O	0.255965	-0.121528	0.183112
O52	O	0.505965	0.128472	0.433112
O53	O	-0.244035	-0.548690	-0.244045
O54	O	0.005965	-0.298690	0.005955
O55	O	0.255965	-0.048690	0.255955
O56	O	0.505965	0.201310	0.505955
O57	O	-0.188855	-0.676755	-0.316913
O58	O	0.061145	-0.426755	-0.066913
O59	O	0.311145	-0.176755	0.183087
O60	O	0.561145	0.073245	0.433087
O61	O	-0.316873	-0.676639	-0.188865
O62	O	-0.066873	-0.426639	0.061135
O63	O	0.183127	-0.176639	0.311135
O64	O	0.433127	0.073361	0.561135
O65	O	-0.316868	-0.621462	-0.244038
O66	O	-0.066868	-0.371462	0.005962
O67	O	0.183132	-0.121462	0.255962
O68	O	0.433132	0.128538	0.505962
C69	C	-0.216444	-0.532408	-0.216459
C70	C	0.033556	-0.282408	0.033541
C71	C	0.283556	-0.032408	0.283541
C72	C	0.533556	0.217592	0.533541
C73	C	-0.216453	-0.482474	-0.216461
C74	C	0.033547	-0.232474	0.033539
C75	C	0.283547	0.017526	0.283539
C76	C	0.533547	0.267526	0.533539
C77	C	-0.187752	-0.172854	-0.245261
C78	C	0.062248	0.077146	0.004739
C79	C	0.312248	0.327146	0.254739
C80	C	0.562248	0.577146	0.504739
C81	C	-0.187753	0.014819	-0.245272
C82	C	0.062247	0.264819	0.004728
C83	C	0.312247	0.514819	0.254728
C84	C	0.562247	0.764819	0.504728
O85	O	-0.163343	0.039065	-0.269738
O86	O	0.086657	0.289065	-0.019738
O87	O	0.336657	0.539065	0.230262
O88	O	0.586657	0.789065	0.480262
N89	N	-0.216441	0.038311	-0.216492
N90	N	0.033559	0.288311	0.033508
N91	N	0.283559	0.538311	0.283508
N92	N	0.533559	0.788311	0.533508
C93	C	-0.245129	0.014882	-0.187705
C94	C	0.004871	0.264882	0.062295
C95	C	0.254871	0.514882	0.312295
C96	C	0.504871	0.764882	0.562295
O97	O	-0.269526	0.039169	-0.163223
O98	O	-0.019526	0.289169	0.086777
O99	O	0.230474	0.539169	0.336777
O100	O	0.480474	0.789169	0.586777
C101	C	-0.245125	-0.172791	-0.187691
C102	C	0.004875	0.077209	0.062309
C103	C	0.254875	0.327209	0.312309
C104	C	0.504875	0.577209	0.562309
C105	C	-0.216439	-0.196280	-0.216476
C106	C	0.033561	0.053720	0.033524
C107	C	0.283561	0.303720	0.283524
C108	C	0.533561	0.553720	0.533524
C109	C	-0.159067	-0.196343	-0.274043
C110	C	0.090933	0.053657	-0.024043
C111	C	0.340933	0.303657	0.225957
C112	C	0.590933	0.553657	0.475957
C113	C	-0.159069	-0.243258	-0.274042
C114	C	0.090931	0.006742	-0.024042
C115	C	0.340931	0.256742	0.225958
C116	C	0.590931	0.506742	0.475958
C117	C	-0.187756	-0.266684	-0.245257
C118	C	0.062244	-0.016684	0.004743
C119	C	0.312244	0.233316	0.254743
C120	C	0.562244	0.483316	0.504743
C121	C	-0.216440	-0.243195	-0.216475
C122	C	0.033560	0.006805	0.033525
C123	C	0.283560	0.256805	0.283525
C124	C	0.533560	0.506805	0.533525
C125	C	-0.273811	-0.196219	-0.158902
C126	C	-0.023811	0.053781	0.091098
C127	C	0.226189	0.303781	0.341098
C128	C	0.476189	0.553781	0.591098
C129	C	-0.273806	-0.243140	-0.158900
C130	C	-0.023806	0.006860	0.091100
C131	C	0.226194	0.256860	0.341100
C132	C	0.476194	0.506860	0.591100
C133	C	-0.245120	-0.266630	-0.187685
C134	C	0.004880	-0.016630	0.062315
C135	C	0.254880	0.233370	0.312315
C136	C	0.504880	0.483370	0.562315
C137	C	-0.245129	-0.313537	-0.187689
C138	C	0.004871	-0.063537	0.062311
C139	C	0.254871	0.186463	0.312311
C140	C	0.504871	0.436463	0.562311
N141	N	-0.216441	-0.337029	-0.216469
N142	N	0.033559	-0.087029	0.033531
N143	N	0.283559	0.162971	0.283531
N144	N	0.533559	0.412971	0.533531
C145	C	-0.187754	-0.313602	-0.245254
C146	C	0.062246	-0.063602	0.004746
C147	C	0.312246	0.186398	0.254746
C148	C	0.562246	0.436398	0.504746
C149	C	-0.245129	0.113412	-0.187715
C150	C	0.004871	0.363412	0.062285
C151	C	0.254871	0.613412	0.312285
C152	C	0.504871	0.863412	0.562285
C153	C	-0.245131	0.160330	-0.187719
C154	C	0.004869	0.410330	0.062281
C155	C	0.254869	0.660330	0.312281
C156	C	0.504869	0.910330	0.562281
C157	C	-0.187754	0.160265	-0.245286
C158	C	0.062246	0.410265	0.004714
C159	C	0.312246	0.660265	0.254714
C160	C	0.562246	0.910265	0.504714
C161	C	-0.187755	0.113346	-0.245284
C162	C	0.062245	0.363346	0.004716
C163	C	0.312245	0.613346	0.254716
C164	C	0.562245	0.863346	0.504716
C165	C	-0.216441	0.089921	-0.216495
C166	C	0.033559	0.339921	0.033505
C167	C	0.283559	0.589921	0.283505
C168	C	0.533559	0.839921	0.533505
C169	C	-0.187760	-0.412128	-0.245248
C170	C	0.062240	-0.162128	0.004752
C171	C	0.312240	0.087872	0.254752
C172	C	0.562240	0.337872	0.504752
C173	C	-0.187766	-0.459048	-0.245246
C174	C	0.062234	-0.209048	0.004754
C175	C	0.312234	0.040952	0.254754
C176	C	0.562234	0.290952	0.504754
C177	C	-0.245141	-0.458978	-0.187677
C178	C	0.004859	-0.208978	0.062323
C179	C	0.254859	0.041022	0.312323
C180	C	0.504859	0.291022	0.562323
C181	C	-0.245137	-0.412063	-0.187681
C182	C	0.004863	-0.162063	0.062319
C183	C	0.254863	0.087937	0.312319
C184	C	0.504863	0.337937	0.562319
C185	C	-0.216443	-0.388639	-0.216468
C186	C	0.033557	-0.138639	0.033532
C187	C	0.283557	0.111361	0.283532
C188	C	0.533557	0.361361	0.533532
O189	O	-0.269522	-0.337811	-0.163233
O190	O	-0.019522	-0.087811	0.086767
O191	O	0.230478	0.162189	0.336767
O192	O	0.480478	0.412189	0.586767
O193	O	-0.163353	-0.337898	-0.269725
O194	O	0.086647	-0.087898	-0.019725
O195	O	0.336647	0.162102	0.230275
O196	O	0.586647	0.412102	0.480275
C197	C	-0.187750	-0.125938	-0.245262
C198	C	0.062250	0.124062	0.004738
C199	C	0.312250	0.374062	0.254738
C200	C	0.562250	0.624062	0.504738
C201	C	-0.216435	-0.102449	-0.216479
C202	C	0.033565	0.147551	0.033521
C203	C	0.283565	0.397551	0.283521
C204	C	0.533565	0.647551	0.533521
C205	C	-0.245121	-0.125875	-0.187695
C206	C	0.004879	0.124125	0.062305
C207	C	0.254879	0.374125	0.312305
C208	C	0.504879	0.624125	0.562305
C209	C	-0.216436	-0.055531	-0.216483
C210	C	0.033564	0.194469	0.033517
C211	C	0.283564	0.444469	0.283517
C212	C	0.533564	0.694469	0.533517
C213	C	-0.187750	-0.032105	-0.245268
C214	C	0.062250	0.217895	0.004732
C215	C	0.312250	0.467895	0.254732
C216	C	0.562250	0.717895	0.504732
C217	C	-0.159062	-0.055596	-0.274048
C218	C	0.090938	0.194404	-0.024048
C219	C	0.340938	0.444404	0.225952
C220	C	0.590938	0.694404	0.475952
C221	C	-0.159063	-0.102512	-0.274046
C222	C	0.090937	0.147488	-0.024046
C223	C	0.340937	0.397488	0.225954
C224	C	0.590937	0.647488	0.475954
C225	C	-0.273810	-0.102384	-0.158915
C226	C	-0.023810	0.147616	0.091085
C227	C	0.226190	0.397616	0.341085
C228	C	0.476190	0.647616	0.591085
C229	C	-0.273806	-0.055468	-0.158919
C230	C	-0.023806	0.194532	0.091081
C231	C	0.226194	0.444532	0.341081
C232	C	0.476194	0.694532	0.591081
C233	C	-0.245119	-0.032042	-0.187704
C234	C	0.004881	0.217958	0.062296
C235	C	0.254881	0.467958	0.312296
C236	C	0.504881	0.717958	0.562296
C237	C	-0.333171	-0.649050	-0.216457
C238	C	-0.083171	-0.399050	0.033543
C239	C	0.166829	-0.149050	0.283543
C240	C	0.416829	0.100950	0.533543
C241	C	-0.383106	-0.649056	-0.216462
C242	C	-0.133106	-0.399056	0.033538
C243	C	0.116894	-0.149056	0.283538
C244	C	0.366894	0.100944	0.533538
C245	C	-0.692739	-0.677914	-0.187792
C246	C	-0.442739	-0.427914	0.062208
C247	C	-0.192739	-0.177914	0.312208
C248	C	0.057261	0.072086	0.562208
C249	C	-0.880412	-0.677969	-0.187810
C250	C	-0.630412	-0.427969	0.062190
C251	C	-0.380412	-0.177969	0.312190
C252	C	-0.130412	0.072031	0.562190
O253	O	-0.904668	-0.702441	-0.163416
O254	O	-0.654668	-0.452441	0.086584
O255	O	-0.404668	-0.202441	0.336584
O256	O	-0.154668	0.047559	0.586584
N257	N	-0.903891	-0.649224	-0.216513
N258	N	-0.653891	-0.399224	0.033487
N259	N	-0.403891	-0.149224	0.283487
N260	N	-0.153891	0.100776	0.533487
C261	C	-0.880449	-0.620465	-0.245216
C262	C	-0.630449	-0.370465	0.004784
C263	C	-0.380449	-0.120465	0.254784
C264	C	-0.130449	0.129535	0.504784
O265	O	-0.904725	-0.596020	-0.269633
O266	O	-0.654725	-0.346020	-0.019633
O267	O	-0.404725	-0.096020	0.230367
O268	O	-0.154725	0.153980	0.480367
C269	C	-0.692776	-0.620412	-0.245200
C270	C	-0.442776	-0.370412	0.004800
C271	C	-0.192776	-0.120412	0.254800
C272	C	0.057224	0.129588	0.504800
C273	C	-0.669300	-0.649156	-0.216492
C274	C	-0.419300	-0.399156	0.033508
C275	C	-0.169300	-0.149156	0.283508
C276	C	0.080700	0.100844	0.533508
C277	C	-0.669262	-0.706656	-0.159087
C278	C	-0.419262	-0.456656	0.090913
C279	C	-0.169262	-0.206656	0.340913
C280	C	0.080738	0.043344	0.590913
C281	C	-0.622347	-0.706640	-0.159081
C282	C	-0.372347	-0.456640	0.090919
C283	C	-0.122347	-0.206640	0.340919
C284	C	0.127653	0.043360	0.590919
C285	C	-0.598908	-0.677882	-0.187781
C286	C	-0.348908	-0.427882	0.062219
C287	C	-0.098908	-0.177882	0.312219
C288	C	0.151092	0.072118	0.562219
C289	C	-0.622384	-0.649140	-0.216486
C290	C	-0.372384	-0.399140	0.033514
C291	C	-0.122384	-0.149140	0.283514
C292	C	0.127616	0.100860	0.533514
C293	C	-0.669335	-0.591656	-0.273905
C294	C	-0.419335	-0.341656	-0.023905
C295	C	-0.169335	-0.091656	0.226095
C296	C	0.080665	0.158344	0.476095
C297	C	-0.622414	-0.591646	-0.273899
C298	C	-0.372414	-0.341646	-0.023899
C299	C	-0.122414	-0.091646	0.226101
C300	C	0.127586	0.158354	0.476101
C301	C	-0.598938	-0.620390	-0.245191
C302	C	-0.348938	-0.370390	0.004809
C303	C	-0.098938	-0.120390	0.254809
C304	C	0.151062	0.129610	0.504809
C305	C	-0.552030	-0.620367	-0.245180
C306	C	-0.302030	-0.370367	0.004820
C307	C	-0.052030	-0.120367	0.254820
C308	C	0.197970	0.129633	0.504820
N309	N	-0.528551	-0.649112	-0.216477
N310	N	-0.278551	-0.399112	0.033523
N311	N	-0.028551	-0.149112	0.283523
N312	N	0.221449	0.100888	0.533523
C313	C	-0.551990	-0.677869	-0.187777
C314	C	-0.301990	-0.427869	0.062223
C315	C	-0.051990	-0.177869	0.312223
C316	C	0.198010	0.072131	0.562223
C317	C	-0.978979	-0.620494	-0.245221
C318	C	-0.728979	-0.370494	0.004779
C319	C	-0.478979	-0.120494	0.254779
C320	C	-0.228979	0.129506	0.504779
C321	C	-1.025897	-0.620507	-0.245225
C322	C	-0.775897	-0.370507	0.004775
C323	C	-0.525897	-0.120507	0.254775
C324	C	-0.275897	0.129493	0.504775
C325	C	-1.025857	-0.678012	-0.187819
C326	C	-0.775857	-0.428012	0.062181
C327	C	-0.525857	-0.178012	0.312181
C328	C	-0.275857	0.071988	0.562181
C329	C	-0.978938	-0.677997	-0.187814
C330	C	-0.728938	-0.427997	0.062186
C331	C	-0.478938	-0.177997	0.312186
C332	C	-0.228938	0.072003	0.562186
C333	C	-0.955500	-0.649239	-0.216518
C334	C	-0.705500	-0.399239	0.033482
C335	C	-0.455500	-0.149239	0.283482
C336	C	-0.205500	0.100761	0.533482
C337	C	-0.453464	-0.677834	-0.187767
C338	C	-0.203464	-0.427834	0.062233
C339	C	0.046536	-0.177834	0.312233
C340	C	0.296536	0.072166	0.562233
C341	C	-0.406545	-0.677814	-0.187762
C342	C	-0.156545	-0.427814	0.062238
C343	C	0.093455	-0.177814	0.312238
C344	C	0.343455	0.072186	0.562238
C345	C	-0.406589	-0.620311	-0.245169
C346	C	-0.156589	-0.370311	0.004831
C347	C	0.093411	-0.120311	0.254831
C348	C	0.343411	0.129689	0.504831
C349	C	-0.453504	-0.620329	-0.245173
C350	C	-0.203504	-0.370329	0.004827
C351	C	0.046496	-0.120329	0.254827
C352	C	0.296496	0.129671	0.504827
C353	C	-0.476941	-0.649094	-0.216470
C354	C	-0.226941	-0.399094	0.033530
C355	C	0.023059	-0.149094	0.283530
C356	C	0.273059	0.100906	0.533530
O357	O	-0.527745	-0.595912	-0.269564
O358	O	-0.277745	-0.345912	-0.019564
O359	O	-0.027745	-0.095912	0.230436
O360	O	0.222255	0.154088	0.480436
O361	O	-0.527705	-0.702318	-0.163371
O362	O	-0.277705	-0.452318	0.086629
O363	O	-0.027705	-0.202318	0.336629
O364	O	0.222295	0.047682	0.586629
C365	C	-0.739654	-0.677930	-0.187798
C366	C	-0.489654	-0.427930	0.062202
C367	C	-0.239654	-0.177930	0.312202
C368	C	0.010346	0.072070	0.562202
C369	C	-0.763131	-0.649188	-0.216504
C370	C	-0.513131	-0.399188	0.033496
C371	C	-0.263131	-0.149188	0.283496
C372	C	-0.013131	0.100812	0.533496
C373	C	-0.739692	-0.620430	-0.245203
C374	C	-0.489692	-0.370430	0.004797
C375	C	-0.239692	-0.120430	0.254797
C376	C	0.010308	0.129570	0.504797
C377	C	-0.810049	-0.649200	-0.216507
C378	C	-0.560049	-0.399200	0.033493
C379	C	-0.310049	-0.149200	0.283493
C380	C	-0.060049	0.100800	0.533493
C381	C	-0.833487	-0.677958	-0.187807
C382	C	-0.583487	-0.427958	0.062193
C383	C	-0.333487	-0.177958	0.312193
C384	C	-0.083487	0.072042	0.562193
C385	C	-0.810009	-0.706703	-0.159104
C386	C	-0.560009	-0.456703	0.090896
C387	C	-0.310009	-0.206703	0.340896
C388	C	-0.060009	0.043297	0.590896
C389	C	-0.763093	-0.706687	-0.159098
C390	C	-0.513093	-0.456687	0.090902
C391	C	-0.263093	-0.206687	0.340902
C392	C	-0.013093	0.043313	0.590902
C393	C	-0.763171	-0.591685	-0.273906
C394	C	-0.513171	-0.341685	-0.023906
C395	C	-0.263171	-0.091685	0.226094
C396	C	-0.013171	0.158315	0.476094
C397	C	-0.810086	-0.591703	-0.273910
C398	C	-0.560086	-0.341703	-0.023910
C399	C	-0.310086	-0.091703	0.226090
C400	C	-0.060086	0.158297	0.476090
C401	C	-0.833525	-0.620461	-0.245210
C402	C	-0.583525	-0.370461	0.004790
C403	C	-0.333525	-0.120461	0.254790
C404	C	-0.083525	0.129539	0.504790
C405	C	-0.099270	-0.649225	-0.216511
C406	C	0.150730	-0.399225	0.033489
C407	C	0.400730	-0.149225	0.283489
C408	C	0.650730	0.100775	0.533489
C409	C	-0.049336	-0.649265	-0.216525
C410	C	0.200664	-0.399265	0.033475
C411	C	0.450664	-0.149265	0.283475
C412	C	0.700664	0.100735	0.533475
C413	C	-0.216445	-0.649143	-0.333657
C414	C	0.033555	-0.399143	-0.083657
C415	C	0.283555	-0.149143	0.166343
C416	C	0.533555	0.100857	0.416343
C417	C	-0.216443	-0.649148	-0.383592
C418	C	0.033557	-0.399148	-0.133592
C419	C	0.283557	-0.149148	0.116408
C420	C	0.533557	0.100852	0.366408
C421	C	-0.216451	0.233691	-0.216498
C422	C	0.033549	0.483691	0.033502
C423	C	0.283549	0.733691	0.283502
C424	C	0.533549	0.983691	0.533502
C425	C	-0.216444	0.183756	-0.216503
C426	C	0.033556	0.433756	0.033497
C427	C	0.283556	0.683756	0.283497
C428	C	0.533556	0.933756	0.533497
C429	C	-0.187635	-0.677935	-0.693251
C430	C	0.062365	-0.427935	-0.443251
C431	C	0.312365	-0.177935	-0.193251
C432	C	0.562365	0.072065	0.056749
C433	C	-0.187597	-0.677957	-0.880924
C434	C	0.062403	-0.427957	-0.630924
C435	C	0.312403	-0.177957	-0.380924
C436	C	0.562403	0.072043	-0.130924
O437	O	-0.163147	-0.702400	-0.905203
O438	O	0.086853	-0.452400	-0.655203
O439	O	0.336853	-0.202400	-0.405203
O440	O	0.586853	0.047600	-0.155203
N441	N	-0.216323	-0.649208	-0.904377
N442	N	0.033677	-0.399208	-0.654377
N443	N	0.283677	-0.149208	-0.404377
N444	N	0.533677	0.100792	-0.154377
C445	C	-0.245058	-0.620449	-0.880909
C446	C	0.004942	-0.370449	-0.630909
C447	C	0.254942	-0.120449	-0.380909
C448	C	0.504942	0.129551	-0.130909
O449	O	-0.269486	-0.595993	-0.905163
O450	O	-0.019486	-0.345993	-0.655163
O451	O	0.230514	-0.095993	-0.405163
O452	O	0.480514	0.154007	-0.155163
C453	C	-0.245093	-0.620425	-0.693236
C454	C	0.004907	-0.370425	-0.443236
C455	C	0.254907	-0.120425	-0.193236
C456	C	0.504907	0.129575	0.056764
C457	C	-0.216369	-0.649179	-0.669786
C458	C	0.033631	-0.399179	-0.419786
C459	C	0.283631	-0.149179	-0.169786
C460	C	0.533631	0.100821	0.080214
C461	C	-0.158913	-0.706687	-0.669801
C462	C	0.091087	-0.456687	-0.419801
C463	C	0.341087	-0.206687	-0.169801
C464	C	0.591087	0.043313	0.080199
C465	C	-0.158925	-0.706683	-0.622885
C466	C	0.091075	-0.456683	-0.372885
C467	C	0.341075	-0.206683	-0.122885
C468	C	0.591075	0.043317	0.127115
C469	C	-0.187659	-0.677927	-0.599420
C470	C	0.062341	-0.427927	-0.349420
C471	C	0.312341	-0.177927	-0.099420
C472	C	0.562341	0.072073	0.150580
C473	C	-0.216381	-0.649175	-0.622871
C474	C	0.033619	-0.399175	-0.372871
C475	C	0.283619	-0.149175	-0.122871
C476	C	0.533619	0.100825	0.127129
C477	C	-0.273826	-0.591663	-0.669769
C478	C	-0.023826	-0.341663	-0.419769
C479	C	0.226174	-0.091663	-0.169769
C480	C	0.476174	0.158337	0.080231
C481	C	-0.273832	-0.591659	-0.622848
C482	C	-0.023832	-0.341659	-0.372848
C483	C	0.226168	-0.091659	-0.122848
C484	C	0.476168	0.158341	0.127152
C485	C	-0.245107	-0.620414	-0.599398
C486	C	0.004893	-0.370414	-0.349398
C487	C	0.254893	-0.120414	-0.099398
C488	C	0.504893	0.129586	0.150602
C489	C	-0.245126	-0.620415	-0.552490
C490	C	0.004874	-0.370415	-0.302490
C491	C	0.254874	-0.120415	-0.052490
C492	C	0.504874	0.129585	0.197510
N493	N	-0.216401	-0.649164	-0.529037
N494	N	0.033599	-0.399164	-0.279037
N495	N	0.283599	-0.149164	-0.029037
N496	N	0.533599	0.100836	0.220963
C497	C	-0.187667	-0.677920	-0.552502
C498	C	0.062333	-0.427920	-0.302502
C499	C	0.312333	-0.177920	-0.052502
C500	C	0.562333	0.072080	0.197498
C501	C	-0.245038	-0.620464	-0.979439
C502	C	0.004962	-0.370464	-0.729439
C503	C	0.254962	-0.120464	-0.479439
C504	C	0.504962	0.129536	-0.229439
C505	C	-0.245029	-0.620471	-1.026357
C506	C	0.004971	-0.370471	-0.776357
C507	C	0.254971	-0.120471	-0.526357
C508	C	0.504971	0.129529	-0.276357
C509	C	-0.187568	-0.677979	-1.026370
C510	C	0.062432	-0.427979	-0.776370
C511	C	0.312432	-0.177979	-0.526370
C512	C	0.562432	0.072021	-0.276370
C513	C	-0.187579	-0.677974	-0.979451
C514	C	0.062421	-0.427974	-0.729451
C515	C	0.312421	-0.177974	-0.479451
C516	C	0.562421	0.072026	-0.229451
C517	C	-0.216312	-0.649214	-0.955987
C518	C	0.033688	-0.399214	-0.705987
C519	C	0.283688	-0.149214	-0.455987
C520	C	0.533688	0.100786	-0.205987
C521	C	-0.187694	-0.677910	-0.453976
C522	C	0.062306	-0.427910	-0.203976
C523	C	0.312306	-0.177910	0.046024
C524	C	0.562306	0.072090	0.296024
C525	C	-0.187709	-0.677904	-0.407057
C526	C	0.062291	-0.427904	-0.157057
C527	C	0.312291	-0.177904	0.092943
C528	C	0.562291	0.072096	0.342943
C529	C	-0.245169	-0.620395	-0.407049
C530	C	0.004831	-0.370395	-0.157049
C531	C	0.254831	-0.120395	0.092951
C532	C	0.504831	0.129605	0.342951
C533	C	-0.245155	-0.620402	-0.453964
C534	C	0.004845	-0.370402	-0.203964
C535	C	0.254845	-0.120402	0.046036
C536	C	0.504845	0.129598	0.296036
C537	C	-0.216414	-0.649161	-0.477427
C538	C	0.033586	-0.399161	-0.227427
C539	C	0.283586	-0.149161	0.022573
C540	C	0.533586	0.100839	0.272573
O541	O	-0.269561	-0.595982	-0.528183
O542	O	-0.019561	-0.345982	-0.278183
O543	O	0.230439	-0.095982	-0.028183
O544	O	0.480439	0.154018	0.221817
O545	O	-0.163235	-0.702366	-0.528240
O546	O	0.086765	-0.452366	-0.278240
O547	O	0.336765	-0.202366	-0.028240
O548	O	0.586765	0.047634	0.221760
C549	C	-0.187624	-0.677939	-0.740167
C550	C	0.062376	-0.427939	-0.490167
C551	C	0.312376	-0.177939	-0.240167
C552	C	0.562376	0.072061	0.009833
C553	C	-0.216346	-0.649187	-0.763617
C554	C	0.033654	-0.399187	-0.513617
C555	C	0.283654	-0.149187	-0.263617
C556	C	0.533654	0.100813	-0.013617
C557	C	-0.245080	-0.620431	-0.740152
C558	C	0.004920	-0.370431	-0.490152
C559	C	0.254920	-0.120431	-0.240152
C560	C	0.504920	0.129569	0.009848
C561	C	-0.216338	-0.649194	-0.810535
C562	C	0.033662	-0.399194	-0.560535
C563	C	0.283662	-0.149194	-0.310535
C564	C	0.533662	0.100806	-0.060535
C565	C	-0.187604	-0.677950	-0.834000
C566	C	0.062396	-0.427950	-0.584000
C567	C	0.312396	-0.177950	-0.334000
C568	C	0.562396	0.072050	-0.084000
C569	C	-0.158878	-0.706699	-0.810547
C570	C	0.091122	-0.456699	-0.560547
C571	C	0.341122	-0.206699	-0.310547
C572	C	0.591122	0.043301	-0.060547
C573	C	-0.158890	-0.706695	-0.763632
C574	C	0.091110	-0.456695	-0.513632
C575	C	0.341110	-0.206695	-0.263632
C576	C	0.591110	0.043305	-0.013632
C577	C	-0.273805	-0.591682	-0.763605
C578	C	-0.023805	-0.341682	-0.513605
C579	C	0.226195	-0.091682	-0.263605
C580	C	0.476195	0.158318	-0.013605
C581	C	-0.273792	-0.591689	-0.810520
C582	C	-0.023792	-0.341689	-0.560520
C583	C	0.226208	-0.091689	-0.310520
C584	C	0.476208	0.158311	-0.060520
C585	C	-0.245058	-0.620445	-0.833985
C586	C	0.004942	-0.370445	-0.583985
C587	C	0.254942	-0.120445	-0.333985
C588	C	0.504942	0.129555	-0.083985
C589	C	-0.216420	-0.649145	-0.099756
C590	C	0.033580	-0.399145	0.150244
C591	C	0.283580	-0.149145	0.400244
C592	C	0.533580	0.100855	0.650244
C593	C	-0.216296	-0.649227	-0.049822
C594	C	0.033704	-0.399227	0.200178
C595	C	0.283704	-0.149227	0.450178
C596	C	0.533704	0.100773	0.700178
H597	H	-0.297170	-0.036347	-0.135480
H598	H	-0.047170	0.213653	0.114520
H599	H	0.202830	0.463653	0.364520
H600	H	0.452830	0.713653	0.614520
H601	H	-0.297170	-0.177102	-0.135461
H602	H	-0.047170	0.072898	0.114539
H603	H	0.202830	0.322898	0.364539
H604	H	0.452830	0.572898	0.614539
Cl605	Cl	-1.055405	-0.584365	-0.281311
Cl606	Cl	-0.805405	-0.334365	-0.031311
Cl607	Cl	-0.555405	-0.084365	0.218689
Cl608	Cl	-0.305405	0.165635	0.468689
H609	H	-0.268564	-0.596984	-0.387935
H610	H	-0.018564	-0.346984	-0.137935
H611	H	0.231436	-0.096984	0.112065
H612	H	0.481436	0.153016	0.362065
Cl613	Cl	-0.151689	0.083822	-0.281471
Cl614	Cl	0.098311	0.333822	-0.031471
Cl615	Cl	0.348311	0.583822	0.218529
Cl616	Cl	0.598311	0.833822	0.468529
Cl617	Cl	-0.377114	-0.584163	-0.281249
Cl618	Cl	-0.127114	-0.334163	-0.031249
Cl619	Cl	0.122886	-0.084163	0.218751
Cl620	Cl	0.372886	0.165837	0.468751
Cl621	Cl	-0.592840	-0.742784	-0.122995
Cl622	Cl	-0.342840	-0.492784	0.127005
Cl623	Cl	-0.092840	-0.242784	0.377005
Cl624	Cl	0.157160	0.007216	0.627005
H625	H	-0.135705	-0.177274	-0.297483
H626	H	0.114295	0.072726	-0.047483
H627	H	0.364295	0.322726	0.202517
H628	H	0.614295	0.572726	0.452517
H629	H	-0.164405	-0.478171	-0.268688
H630	H	0.085595	-0.228171	-0.018688
H631	H	0.335595	0.021829	0.231312
H632	H	0.585595	0.271829	0.481312
H633	H	-0.829101	-0.730118	-0.135735
H634	H	-0.579101	-0.480118	0.114265
H635	H	-0.329101	-0.230118	0.364265
H636	H	-0.079101	0.019882	0.614265
H637	H	-0.472620	-0.596925	-0.268550
H638	H	-0.222620	-0.346925	-0.018550
H639	H	0.027380	-0.096925	0.231450
H640	H	0.277380	0.153075	0.481450
Cl641	Cl	-0.281164	-0.584305	-0.949948
Cl642	Cl	-0.031164	-0.334305	-0.699948
Cl643	Cl	0.218836	-0.084305	-0.449948
Cl644	Cl	0.468836	0.165695	-0.199948
H645	H	-0.743982	-0.730093	-0.135722
H646	H	-0.493982	-0.480093	0.114278
H647	H	-0.243982	-0.230093	0.364278
H648	H	0.006018	0.019907	0.614278
Cl649	Cl	-0.281268	-0.584255	-0.483445
Cl650	Cl	-0.031268	-0.334255	-0.233445
Cl651	Cl	0.218732	-0.084255	0.016555
Cl652	Cl	0.468732	0.165745	0.266555
H653	H	-0.164396	0.179346	-0.268723
H654	H	0.085604	0.429346	-0.018723
H655	H	0.335604	0.679346	0.231277
H656	H	0.585604	0.929346	0.481277
H657	H	-0.268424	-0.597061	-1.045447
H658	H	-0.018424	-0.347061	-0.795447
H659	H	0.231576	-0.097061	-0.545447
H660	H	0.481576	0.152939	-0.295447
Cl661	Cl	-0.698720	-0.742813	-0.123002
Cl662	Cl	-0.448720	-0.492813	0.126998
Cl663	Cl	-0.198720	-0.242813	0.376998
Cl664	Cl	0.051280	0.007187	0.626998
H665	H	-0.135709	-0.262379	-0.297481
H666	H	0.114291	-0.012379	-0.047481
H667	H	0.364291	0.237621	0.202519
H668	H	0.614291	0.487621	0.452519
Cl669	Cl	-0.281200	0.189853	-0.151534
Cl670	Cl	-0.031200	0.439853	0.098466
Cl671	Cl	0.218800	0.689853	0.348466
Cl672	Cl	0.468800	0.939853	0.598466
H673	H	-0.164172	-0.701393	-1.045483
H674	H	0.085828	-0.451393	-0.795483
H675	H	0.335828	-0.201393	-0.545483
H676	H	0.585828	0.048607	-0.295483
H677	H	-0.164318	-0.701321	-0.387966
H678	H	0.085682	-0.451321	-0.137966
H679	H	0.335682	-0.201321	0.112034
H680	H	0.585682	0.048679	0.362034
H681	H	-0.135500	-0.730110	-0.744542
H682	H	0.114500	-0.480110	-0.494542
H683	H	0.364500	-0.230110	-0.244542
H684	H	0.614500	0.019890	0.005458
H685	H	-0.268490	0.094343	-0.164270
H686	H	-0.018490	0.344343	0.085730
H687	H	0.231510	0.594343	0.335730
H688	H	0.481510	0.844343	0.585730
Cl689	Cl	-0.698837	-0.555524	-0.310003
Cl690	Cl	-0.448837	-0.305524	-0.060003
Cl691	Cl	-0.198837	-0.055524	0.189997
Cl692	Cl	0.051163	0.194476	0.439997
Cl693	Cl	-0.839594	-0.555564	-0.310003
Cl694	Cl	-0.589594	-0.305564	-0.060003
Cl695	Cl	-0.339594	-0.055564	0.189997
Cl696	Cl	-0.089594	0.194436	0.439997
Cl697	Cl	-0.309872	-0.272586	-0.122707
Cl698	Cl	-0.059872	-0.022586	0.127293
Cl699	Cl	0.190128	0.227414	0.377293
Cl700	Cl	0.440128	0.477414	0.627293
Cl701	Cl	-0.733712	-0.555529	-0.309990
Cl702	Cl	-0.483712	-0.305529	-0.059990
Cl703	Cl	-0.233712	-0.055529	0.190010
Cl704	Cl	0.016288	0.194471	0.440010
H705	H	-0.164289	-0.701327	-0.473074
H706	H	0.085711	-0.451327	-0.223074
H707	H	0.335711	-0.201327	0.026926
H708	H	0.585711	0.048673	0.276926
H709	H	-0.135512	-0.730104	-0.688901
H710	H	0.114488	-0.480104	-0.438901
H711	H	0.364488	-0.230104	-0.188901
H712	H	0.614488	0.019896	0.061099
Cl713	Cl	-0.281214	-0.382533	-0.151507
Cl714	Cl	-0.031214	-0.132533	0.098493
Cl715	Cl	0.218786	0.117467	0.348493
Cl716	Cl	0.468786	0.367467	0.598493
H717	H	-0.268498	-0.478060	-0.164243
H718	H	-0.018498	-0.228060	0.085757
H719	H	0.231502	0.021940	0.335757
H720	H	0.481502	0.271940	0.585757
Cl721	Cl	-0.309909	-0.555539	-0.839995
Cl722	Cl	-0.059909	-0.305539	-0.589995
Cl723	Cl	0.190091	-0.055539	-0.339995
Cl724	Cl	0.440091	0.194461	-0.089995
Cl725	Cl	-0.309932	-0.555527	-0.734113
Cl726	Cl	-0.059932	-0.305527	-0.484113
Cl727	Cl	0.190068	-0.055527	-0.234113
Cl728	Cl	0.440068	0.194473	0.015887
Cl729	Cl	-0.122809	-0.742830	-0.593412
Cl730	Cl	0.127191	-0.492830	-0.343412
Cl731	Cl	0.377191	-0.242830	-0.093412
Cl732	Cl	0.627191	0.007170	0.156588
Cl733	Cl	-0.122998	-0.132034	-0.310235
Cl734	Cl	0.127002	0.117966	-0.060235
Cl735	Cl	0.377002	0.367966	0.189765
Cl736	Cl	0.627002	0.617966	0.439765
Cl737	Cl	-0.309940	-0.555514	-0.699238
Cl738	Cl	-0.059940	-0.305514	-0.449238
Cl739	Cl	0.190060	-0.055514	-0.199238
Cl740	Cl	0.440060	0.194486	0.050762
H741	H	-0.164188	-0.701388	-0.960361
H742	H	0.085812	-0.451388	-0.710361
H743	H	0.335812	-0.201388	-0.460361
H744	H	0.585812	0.048612	-0.210361
Cl745	Cl	-0.309955	-0.555500	-0.593353
Cl746	Cl	-0.059955	-0.305500	-0.343353
Cl747	Cl	0.190045	-0.055500	-0.093353
Cl748	Cl	0.440045	0.194500	0.156647
Cl749	Cl	-0.122758	-0.742851	-0.840055
Cl750	Cl	0.127242	-0.492851	-0.590055
Cl751	Cl	0.377242	-0.242851	-0.340055
Cl752	Cl	0.627242	0.007149	-0.090055
H753	H	-0.297170	-0.121452	-0.135474
H754	H	-0.047170	0.128548	0.114526
H755	H	0.202830	0.378548	0.364526
H756	H	0.452830	0.628548	0.614526
H757	H	-0.387431	-0.701220	-0.164383
H758	H	-0.137431	-0.451220	0.085617
H759	H	0.112569	-0.201220	0.335617
H760	H	0.362569	0.048780	0.585617
H761	H	-0.164394	-0.393062	-0.268688
H762	H	0.085606	-0.143062	-0.018688
H763	H	0.335606	0.106938	0.231312
H764	H	0.585606	0.356938	0.481312
H765	H	-0.959899	-0.597076	-0.268596
H766	H	-0.709899	-0.347076	-0.018596
H767	H	-0.459899	-0.097076	0.231404
H768	H	-0.209899	0.152924	0.481404
Cl769	Cl	-0.123000	-0.026137	-0.310235
Cl770	Cl	0.127000	0.223863	-0.060235
Cl771	Cl	0.377000	0.473863	0.189765
Cl772	Cl	0.627000	0.723863	0.439765
Cl773	Cl	-0.482920	-0.713995	-0.151682
Cl774	Cl	-0.232920	-0.463995	0.098318
Cl775	Cl	0.017080	-0.213995	0.348318
Cl776	Cl	0.267080	0.036005	0.598318
Cl777	Cl	-0.949430	-0.714133	-0.151723
Cl778	Cl	-0.699430	-0.464133	0.098277
Cl779	Cl	-0.449430	-0.214133	0.348277
Cl780	Cl	-0.199430	0.035867	0.598277
H781	H	-0.603333	-0.568229	-0.297275
H782	H	-0.353333	-0.318229	-0.047275
H783	H	-0.103333	-0.068229	0.202725
H784	H	0.146667	0.181771	0.452725
Cl785	Cl	-1.055332	-0.714163	-0.151739
Cl786	Cl	-0.805332	-0.464163	0.098261
Cl787	Cl	-0.555332	-0.214163	0.348261
Cl788	Cl	-0.305332	0.035837	0.598261
