data_functionalizedCrystal
_audit_creation_method	'MofGen! by Chris Wilmer'
_symmetry_space_group_name_H-M	'P1'
_symmetry_Int_Tables_number	1
_symmetry_cell_setting	triclinic
loop_
_symmetry_equiv_pos_as_xyz
  x,y,z
_cell_length_a	18.050591
_cell_length_b	18.050588
_cell_length_c	17.640968
_cell_angle_alpha	101.229504
_cell_angle_beta	101.220701
_cell_angle_gamma	90.028402
loop_
_atom_site_label
_atom_site_type_symbol
_atom_site_fract_x
_atom_site_fract_y
_atom_site_fract_z
Zn1	Zn	1.220230	-0.210797	0.446857
Zn2	Zn	1.720230	0.289203	0.946857
Zn3	Zn	1.195012	-0.360103	0.314676
Zn4	Zn	1.695012	0.139897	0.814676
Zn5	Zn	1.070927	-0.235925	0.314698
Zn6	Zn	1.570927	0.264075	0.814698
Zn7	Zn	1.095989	-0.334953	0.446826
Zn8	Zn	1.595989	0.165047	0.946826
O9	O	1.145540	-0.285444	0.380764
O10	O	1.645540	0.214556	0.880764
O11	O	1.320810	-0.230612	0.429327
O12	O	1.820810	0.269388	0.929327
O13	O	1.157509	-0.364672	0.204065
O14	O	1.657509	0.135328	0.704065
O15	O	1.090798	-0.128663	0.332251
O16	O	1.590798	0.371337	0.832251
O17	O	1.302282	-0.340307	0.332214
O18	O	1.802282	0.159693	0.832214
O19	O	1.200491	-0.110201	0.429348
O20	O	1.700491	0.389799	0.929348
O21	O	1.066344	-0.273439	0.204081
O22	O	1.566344	0.226561	0.704081
O23	O	0.970326	-0.249052	0.332222
O24	O	1.470326	0.250948	0.832222
O25	O	1.133513	-0.297441	0.557444
O26	O	1.633513	0.202559	1.057444
O27	O	0.988739	-0.321807	0.429295
O28	O	1.488739	0.178193	0.929295
O29	O	1.224792	-0.206224	0.557467
O30	O	1.724792	0.293776	1.057467
O31	O	1.181810	-0.460696	0.332184
O32	O	1.681810	0.039304	0.832184
O33	O	1.109059	-0.442218	0.429274
O34	O	1.609059	0.057782	0.929274
C35	C	0.952586	-0.285427	0.380758
C36	C	1.452586	0.214573	0.880758
C37	C	0.870043	-0.285435	0.380774
C38	C	1.370043	0.214565	0.880774
C39	C	0.631239	-0.325115	0.433491
C40	C	1.131239	0.174885	0.933491
C41	C	0.666893	-0.356899	0.361342
C42	C	1.166893	0.143101	0.861342
C43	C	0.572923	-0.285458	0.380772
C44	C	1.072923	0.214542	0.880772
C45	C	0.684349	-0.253698	0.452918
C46	C	1.184349	0.246302	0.952918
C47	C	0.718909	-0.285448	0.380777
C48	C	1.218909	0.214552	0.880777
C49	C	0.607483	-0.317285	0.308586
C50	C	1.107483	0.182715	0.808586
C51	C	0.624944	-0.214043	0.400210
C52	C	1.124944	0.285957	0.900210
C53	C	0.660567	-0.245811	0.328011
C54	C	1.160567	0.254189	0.828011
C55	C	0.488824	-0.285466	0.380771
C56	C	0.988824	0.214534	0.880771
C57	C	0.803004	-0.285441	0.380770
C58	C	1.303004	0.214559	0.880770
C59	C	1.145441	-0.478401	0.380741
C60	C	1.645441	0.021599	0.880741
C61	C	1.145472	-0.560944	0.380757
C62	C	1.645472	-0.060944	0.880757
C63	C	1.105988	-0.799748	0.433555
C64	C	1.605988	-0.299748	0.933555
C65	C	1.177390	-0.746595	0.452947
C66	C	1.677390	-0.246595	0.952947
C67	C	1.145634	-0.858056	0.380801
C68	C	1.645634	-0.358056	0.880801
C69	C	1.074162	-0.764124	0.361425
C70	C	1.574162	-0.264124	0.861425
C71	C	1.145551	-0.712074	0.380781
C72	C	1.645551	-0.212074	0.880781
C73	C	1.217080	-0.805983	0.400230
C74	C	1.717080	-0.305983	0.900230
C75	C	1.113800	-0.823523	0.308675
C76	C	1.613800	-0.323523	0.808675
C77	C	1.185244	-0.770397	0.328039
C78	C	1.685244	-0.270397	0.828039
C79	C	1.145681	-0.942151	0.380814
C80	C	1.645681	-0.442151	0.880814
C81	C	1.145511	-0.627980	0.380768
C82	C	1.645511	-0.127980	0.880768
C83	C	1.339246	-0.285462	0.380771
C84	C	1.839246	0.214538	0.880771
C85	C	1.421793	-0.285469	0.380774
C86	C	1.921793	0.214531	0.880774
C87	C	1.184761	-0.246224	0.586939
C88	C	1.684761	0.253776	1.086939
C89	C	1.201475	-0.229511	0.674798
C90	C	1.701475	0.270489	1.174798
C91	C	1.145662	-0.091731	0.380805
C92	C	1.645662	0.408269	0.880805
C93	C	1.145714	-0.009182	0.380823
C94	C	1.645714	0.490818	0.880823
C95	C	1.106513	-0.324458	0.175392
C96	C	1.606513	0.175542	0.675392
C97	C	1.089943	-0.340962	0.087534
C98	C	1.589943	0.159038	0.587534
C99	C	1.018851	-0.412009	0.963696
C100	C	1.518851	0.087991	1.463696
C101	C	1.034572	-0.396295	1.046253
C102	C	1.534572	0.103705	1.546253
C103	C	1.129613	-0.301319	1.046267
C104	C	1.629613	0.198681	1.546267
C105	C	1.113898	-0.317022	0.963708
C106	C	1.613898	0.182978	1.463708
C107	C	1.058516	-0.372369	0.922429
C108	C	1.558516	0.127631	1.422429
C109	C	1.153563	-0.277382	0.922441
C110	C	1.653563	0.222618	1.422441
C111	C	1.137852	-0.293087	0.839889
C112	C	1.637852	0.206913	1.339889
C113	C	1.082474	-0.348433	0.798605
C114	C	1.582474	0.151567	1.298605
C115	C	1.042805	-0.388074	0.839878
C116	C	1.542805	0.111926	1.339878
C117	C	1.208948	-0.222040	0.963721
C118	C	1.708948	0.277960	1.463721
C119	C	1.248614	-0.182399	0.922454
C120	C	1.748614	0.317601	1.422454
C121	C	1.232898	-0.198101	0.839901
C122	C	1.732898	0.301899	1.339901
C123	C	1.177521	-0.253446	0.798616
C124	C	1.677521	0.246554	1.298616
C125	C	1.272568	-0.158459	0.798628
C126	C	1.772568	0.341541	1.298628
C127	C	1.256856	-0.174165	0.716076
C128	C	1.756856	0.325835	1.216076
C129	C	1.161810	-0.269151	0.716065
C130	C	1.661810	0.230849	1.216065
H131	H	0.673626	-0.212279	0.283380
H132	H	1.173626	0.287721	0.783380
Cl133	Cl	0.610828	-0.376962	0.502233
Cl134	Cl	1.110828	0.123038	1.002233
Cl135	Cl	0.556195	-0.358859	0.214362
Cl136	Cl	1.056195	0.141141	0.714362
H137	H	0.997690	-0.433125	0.806266
H138	H	1.497690	0.066875	1.306266
H139	H	1.204283	-0.713259	0.513934
H140	H	1.704283	-0.213259	1.013934
H141	H	1.013754	-0.745606	0.345045
H142	H	1.513754	-0.245606	0.845045
H143	H	1.116695	-0.314202	0.682453
H144	H	1.616695	0.185798	1.182453
H145	H	1.069686	-0.361222	0.731386
H146	H	1.569686	0.138778	1.231386
H147	H	1.221740	-0.209256	1.030940
H148	H	1.721740	0.290744	1.530940
H149	H	1.072553	-0.812951	0.478209
H150	H	1.572553	-0.312951	0.978209
Cl151	Cl	1.318235	-0.112826	0.974354
Cl152	Cl	1.818235	0.387174	1.474354
Cl153	Cl	1.342195	-0.088892	0.850531
Cl154	Cl	1.842195	0.411108	1.350531
Cl155	Cl	1.310394	-0.834404	0.425629
Cl156	Cl	1.810394	-0.334404	0.925629
H157	H	1.086890	-0.856872	0.247705
H158	H	1.586890	-0.356872	0.747705
Cl159	Cl	1.237026	-0.750206	0.259149
Cl160	Cl	1.737026	-0.250206	0.759149
Cl161	Cl	0.695533	-0.450137	0.335954
Cl162	Cl	1.195533	0.049863	0.835954
Cl163	Cl	0.984697	-0.446132	1.098130
Cl164	Cl	1.484697	0.053868	1.598130
Cl165	Cl	0.596285	-0.120822	0.425631
Cl166	Cl	1.096285	0.379178	0.925631
Cl167	Cl	0.735778	-0.212233	0.547111
Cl168	Cl	1.235778	0.287767	1.047111
H169	H	0.973736	-0.457059	0.930085
H170	H	1.473736	0.042941	1.430085
H171	H	1.174707	-0.256258	1.079887
H172	H	1.674707	0.243742	1.579887
H173	H	1.289155	-0.141885	0.682476
H174	H	1.789155	0.358115	1.182476
