data_functionalizedCrystal
_audit_creation_method	'MofGen! by Chris Wilmer'
_symmetry_space_group_name_H-M	'P1'
_symmetry_Int_Tables_number	1
_symmetry_cell_setting	triclinic
loop_
_symmetry_equiv_pos_as_xyz
  x,y,z
_cell_length_a	15.297475
_cell_length_b	19.121063
_cell_length_c	15.296720
_cell_angle_alpha	101.616247
_cell_angle_beta	91.617114
_cell_angle_gamma	83.156694
loop_
_atom_site_label
_atom_site_type_symbol
_atom_site_fract_x
_atom_site_fract_y
_atom_site_fract_z
Zn1	Zn	1.219315	-0.545242	-0.750522
Zn2	Zn	1.719315	-0.045242	-0.250522
Zn3	Zn	1.238271	-0.646121	-0.608463
Zn4	Zn	1.738271	-0.146121	-0.108463
Zn5	Zn	1.100653	-0.505885	-0.577035
Zn6	Zn	1.600653	-0.005885	-0.077035
Zn7	Zn	1.066927	-0.639234	-0.729290
Zn8	Zn	1.566927	-0.139234	-0.229290
O9	O	1.156291	-0.584120	-0.666328
O10	O	1.656291	-0.084120	-0.166328
O11	O	1.343197	-0.577977	-0.753716
O12	O	1.843197	-0.077977	-0.253716
O13	O	1.242063	-0.613929	-0.481124
O14	O	1.742063	-0.113929	0.018876
O15	O	1.122575	-0.413080	-0.595782
O16	O	1.622575	0.086920	-0.095782
O17	O	1.357124	-0.652092	-0.649346
O18	O	1.857124	-0.152092	-0.149346
O19	O	1.209755	-0.441996	-0.723241
O20	O	1.709755	0.058004	-0.223241
O21	O	1.140956	-0.510898	-0.458034
O22	O	1.640956	-0.010898	0.041966
O23	O	0.974811	-0.504221	-0.575194
O24	O	1.474811	-0.004221	-0.075194
O25	O	1.065095	-0.640355	-0.855277
O26	O	1.565095	-0.140355	-0.355277
O27	O	0.950033	-0.602192	-0.687055
O28	O	1.450033	-0.102192	-0.187055
O29	O	1.177053	-0.571299	-0.870876
O30	O	1.677053	-0.071299	-0.370876
O31	O	1.209361	-0.743232	-0.628758
O32	O	1.709361	-0.243232	-0.128758
O33	O	1.083475	-0.738173	-0.717529
O34	O	1.583475	-0.238173	-0.217529
C35	C	0.930952	-0.548189	-0.625411
C36	C	1.430952	-0.048189	-0.125411
C37	C	0.834547	-0.532837	-0.607928
C38	C	1.334547	-0.032837	-0.107928
C39	C	0.511335	-0.693852	-0.791283
C40	C	1.011335	-0.193852	-0.291283
C41	C	0.601913	-0.708281	-0.807706
C42	C	1.101913	-0.208281	-0.307706
C43	C	0.660075	-0.664421	-0.757763
C44	C	1.160075	-0.164421	-0.257763
C45	C	0.627652	-0.606129	-0.691393
C46	C	1.127652	-0.106129	-0.191393
C47	C	0.537065	-0.591702	-0.674963
C48	C	1.037065	-0.091702	-0.174963
C49	C	0.685806	-0.562271	-0.641444
C50	C	1.185806	-0.062271	-0.141444
C51	C	0.653382	-0.503980	-0.575074
C52	C	1.153382	-0.003980	-0.075074
C53	C	0.562804	-0.489555	-0.558647
C54	C	1.062804	0.010445	-0.058647
C55	C	0.504642	-0.533415	-0.608590
C56	C	1.004642	-0.033415	-0.108590
C57	C	0.776392	-0.576699	-0.657874
C58	C	1.276392	-0.076699	-0.157874
C59	C	0.802123	-0.474549	-0.541555
C60	C	1.302123	0.025451	-0.041555
C61	C	0.711545	-0.460120	-0.525131
C62	C	1.211545	0.039880	-0.025131
C63	C	1.144835	-0.766125	-0.674274
C64	C	1.644835	-0.266125	-0.174274
C65	C	1.140009	-0.844004	-0.677717
C66	C	1.640009	-0.344004	-0.177717
C67	C	1.203317	-0.883214	-0.633171
C68	C	1.703317	-0.383214	-0.133171
C69	C	1.198782	-0.956391	-0.636415
C70	C	1.698782	-0.456391	-0.136415
C71	C	1.130934	-0.990354	-0.684201
C72	C	1.630934	-0.490354	-0.184201
C73	C	1.067622	-0.951139	-0.728752
C74	C	1.567622	-0.451139	-0.228752
C75	C	1.072161	-0.877965	-0.725513
C76	C	1.572161	-0.377965	-0.225513
C77	C	1.113949	-1.211161	-0.696297
C78	C	1.613949	-0.711161	-0.196297
C79	C	1.109413	-1.284340	-0.699531
C80	C	1.609413	-0.784340	-0.199531
C81	C	1.240575	-1.289587	-0.607195
C82	C	1.740575	-0.789587	-0.107195
C83	C	1.245105	-1.216411	-0.603955
C84	C	1.745105	-0.716411	-0.103955
C85	C	1.181796	-1.177203	-0.648510
C86	C	1.681796	-0.677203	-0.148510
C87	C	1.126295	-1.065151	-0.687516
C88	C	1.626295	-0.565151	-0.187516
C89	C	1.186440	-1.102408	-0.645200
C90	C	1.686440	-0.602408	-0.145200
C91	C	1.382510	-0.620193	-0.707405
C92	C	1.882510	-0.120193	-0.207405
C93	C	1.478911	-0.635564	-0.724910
C94	C	1.978911	-0.135564	-0.224910
C95	C	1.115197	-0.609449	-0.895906
C96	C	1.615197	-0.109449	-0.395906
C97	C	1.097685	-0.620243	-0.993739
C98	C	1.597685	-0.120243	-0.493739
C99	C	1.167812	-0.401410	-0.658374
C100	C	1.667812	0.098590	-0.158374
C101	C	1.172722	-0.323550	-0.654985
C102	C	1.672722	0.176450	-0.154985
C103	C	1.281492	-0.506860	-1.302001
C104	C	1.781492	-0.006860	-0.802001
C105	C	1.297950	-0.496721	-1.210084
C106	C	1.797950	0.003279	-0.710084
C107	C	1.247885	-0.527600	-1.155993
C108	C	1.747885	-0.027600	-0.655993
C109	C	1.181359	-0.568621	-1.193829
C110	C	1.681359	-0.068621	-0.693829
C111	C	1.164903	-0.578765	-1.285757
C112	C	1.664903	-0.078765	-0.785757
C113	C	1.131297	-0.599506	-1.139748
C114	C	1.631297	-0.099506	-0.639748
C115	C	1.064771	-0.640526	-1.177584
C116	C	1.564771	-0.140526	-0.677584
C117	C	1.048318	-0.650669	-1.269503
C118	C	1.548318	-0.150669	-0.769503
C119	C	1.098383	-0.619789	-1.323594
C120	C	1.598383	-0.119789	-0.823594
C121	C	1.147753	-0.589361	-1.047821
C122	C	1.647753	-0.089361	-0.547821
C123	C	1.031165	-0.661267	-1.031576
C124	C	1.531165	-0.161267	-0.531576
C125	C	1.014706	-0.671406	-1.123494
C126	C	1.514706	-0.171406	-0.623494
C127	C	1.197279	-0.558848	-0.437649
C128	C	1.697279	-0.058848	0.062351
C129	C	1.214971	-0.547884	-0.339838
C130	C	1.714971	-0.047884	0.160162
H131	H	0.849480	-0.438836	-0.500886
H132	H	1.349480	0.061164	-0.000886
H133	H	0.463972	-0.729560	-0.831934
H134	H	0.963972	-0.229560	-0.331934
H135	H	0.960539	-0.704805	-1.154313
H136	H	1.460539	-0.204805	-0.654313
C137	C	1.265986	-0.516438	-1.054879
C138	C	1.765986	-0.016438	-0.554879
N139	N	1.279618	-0.508025	-0.978716
N140	N	1.779618	-0.008025	-0.478716
C141	C	1.371120	-0.451592	-1.168469
C142	C	1.871120	0.048408	-0.668469
N143	N	1.426232	-0.417595	-1.137124
N144	N	1.926232	0.082405	-0.637124
H145	H	1.054170	-1.311994	-0.738461
H146	H	1.554170	-0.811994	-0.238461
H147	H	0.994154	-0.684077	-1.300308
H148	H	1.494154	-0.184077	-0.800308
C149	C	0.976088	-0.695235	-0.972080
C150	C	1.476088	-0.195235	-0.472080
N151	N	0.934608	-0.720818	-0.927262
N152	N	1.434608	-0.220818	-0.427262
H153	H	1.300353	-1.188759	-0.565044
H154	H	1.800353	-0.688759	-0.065044
H155	H	1.292119	-1.321518	-0.570922
H156	H	1.792119	-0.821518	-0.070922
C157	C	1.336551	-0.472893	-1.361505
C158	C	1.836551	0.027107	-0.861505
N159	N	1.378023	-0.447306	-1.406324
N160	N	1.878023	0.052694	-0.906324
C161	C	1.044343	-1.168054	-0.745362
C162	C	1.544343	-0.668054	-0.245362
N163	N	0.991925	-1.135587	-0.782341
N164	N	1.491925	-0.635587	-0.282341
H165	H	1.020610	-0.846041	-0.761788
H166	H	1.520610	-0.346041	-0.261788
C167	C	0.812048	-0.640816	-0.730884
C168	C	1.312048	-0.140816	-0.230884
N169	N	0.838901	-0.689111	-0.785881
N170	N	1.338901	-0.189111	-0.285881
C171	C	0.404997	-0.517537	-0.590540
C172	C	0.904997	-0.017537	-0.090540
N173	N	0.329942	-0.505576	-0.576951
N174	N	0.829942	-0.005576	-0.076951
H175	H	0.536410	-0.442096	-0.504596
H176	H	1.036410	0.057904	-0.004596
H177	H	0.733828	-0.676173	-0.771140
H178	H	1.233828	-0.176173	-0.271140
C179	C	0.637573	-0.772401	-0.880709
C180	C	1.137573	-0.272401	-0.380709
N181	N	0.664432	-0.820700	-0.935699
N182	N	1.164432	-0.320700	-0.435699
H183	H	0.685132	-0.412659	-0.471092
H184	H	1.185132	0.087341	0.028908
H185	H	1.012381	-0.978799	-0.767665
H186	H	1.512381	-0.478799	-0.267665
H187	H	1.250334	-0.988313	-0.600140
H188	H	1.750334	-0.488313	-0.100140
C189	C	1.261069	-1.065045	-0.592635
C190	C	1.761069	-0.565045	-0.092635
N191	N	1.317278	-1.036897	-0.553039
N192	N	1.817278	-0.536897	-0.053039
H193	H	1.084986	-0.628042	-1.398442
H194	H	1.584986	-0.128042	-0.898442
H195	H	1.201919	-0.555961	-1.017024
H196	H	1.701919	-0.055961	-0.517024
C197	C	1.277955	-0.845861	-0.580600
C198	C	1.777955	-0.345861	-0.080600
N199	N	1.334176	-0.817729	-0.541004
N200	N	1.834176	-0.317729	-0.041004
H201	H	1.071051	-1.092812	-0.726421
H202	H	1.571051	-0.592812	-0.226421
