data_functionalizedCrystal
_audit_creation_method	'MofGen! by Chris Wilmer'
_symmetry_space_group_name_H-M	'P1'
_symmetry_Int_Tables_number	1
_symmetry_cell_setting	triclinic
loop_
_symmetry_equiv_pos_as_xyz
  x,y,z
_cell_length_a	19.805407
_cell_length_b	21.295417
_cell_length_c	19.805399
_cell_angle_alpha	89.969157
_cell_angle_beta	89.980427
_cell_angle_gamma	90.030507
loop_
_atom_site_label
_atom_site_type_symbol
_atom_site_fract_x
_atom_site_fract_y
_atom_site_fract_z
Zn1	Zn	1.034716	-0.250624	-0.382704
Zn2	Zn	1.368050	0.082710	-0.049371
Zn3	Zn	1.701383	0.416043	0.283962
Zn4	Zn	1.034623	-0.355893	-0.269510
Zn5	Zn	1.367956	-0.022559	0.063824
Zn6	Zn	1.701290	0.310774	0.397157
Zn7	Zn	0.921531	-0.250641	-0.269529
Zn8	Zn	1.254864	0.082692	0.063804
Zn9	Zn	1.588198	0.416026	0.397138
Zn10	Zn	0.921486	-0.355859	-0.382656
Zn11	Zn	1.254820	-0.022526	-0.049323
Zn12	Zn	1.588153	0.310808	0.284010
O13	O	0.978089	-0.303254	-0.326100
O14	O	1.311423	0.030079	0.007234
O15	O	1.644756	0.363413	0.340567
O16	O	1.129421	-0.264595	-0.367701
O17	O	1.462754	0.068739	-0.034367
O18	O	1.796087	0.402072	0.298966
O19	O	1.019601	-0.341952	-0.174796
O20	O	1.352934	-0.008619	0.158538
O21	O	1.686268	0.324715	0.491871
O22	O	0.936603	-0.162549	-0.284570
O23	O	1.269936	0.170784	0.048763
O24	O	1.603270	0.504117	0.382097
O25	O	1.129352	-0.341935	-0.284537
O26	O	1.462685	-0.008602	0.048796
O27	O	1.796019	0.324732	0.382130
O28	O	1.019760	-0.162537	-0.367719
O29	O	1.353093	0.170797	-0.034386
O30	O	1.686426	0.504130	0.298947
O31	O	0.936513	-0.264624	-0.174810
O32	O	1.269846	0.068709	0.158524
O33	O	1.603179	0.402042	0.491857
O34	O	0.826809	-0.264592	-0.284523
O35	O	1.160142	0.068742	0.048810
O36	O	1.493475	0.402075	0.382143
O37	O	0.936527	-0.341878	-0.477379
O38	O	1.269860	-0.008545	-0.144046
O39	O	1.603194	0.324789	0.189287
O40	O	0.826776	-0.341895	-0.367638
O41	O	1.160109	-0.008562	-0.034304
O42	O	1.493442	0.324772	0.299029
O43	O	1.019717	-0.264562	-0.477415
O44	O	1.353050	0.068771	-0.144081
O45	O	1.686383	0.402104	0.189252
O46	O	1.019558	-0.443977	-0.284491
O47	O	1.352891	-0.110644	0.048843
O48	O	1.686224	0.222689	0.382176
O49	O	0.936437	-0.443953	-0.367619
O50	O	1.269770	-0.110620	-0.034286
O51	O	1.603103	0.222714	0.299048
C52	C	0.802233	-0.303242	-0.326078
C53	C	1.135567	0.030091	0.007255
C54	C	1.468900	0.363425	0.340589
C55	C	0.727001	-0.303252	-0.326085
C56	C	1.060335	0.030081	0.007249
C57	C	1.393668	0.363415	0.340582
C58	C	0.691658	-0.343564	-0.369292
C59	C	1.024991	-0.010231	-0.035959
C60	C	1.358324	0.323102	0.297375
C61	C	0.620969	-0.343566	-0.369302
C62	C	0.954303	-0.010232	-0.035968
C63	C	1.287636	0.323101	0.297365
C64	C	0.585626	-0.303257	-0.326100
C65	C	0.918959	0.030076	0.007234
C66	C	1.252292	0.363410	0.340567
C67	C	0.620974	-0.262940	-0.282890
C68	C	0.954307	0.070393	0.050443
C69	C	1.287641	0.403726	0.383776
C70	C	0.691661	-0.262936	-0.282885
C71	C	1.024995	0.070397	0.050449
C72	C	1.358328	0.403730	0.383782
C73	C	0.335901	-0.262954	-0.282913
C74	C	0.669234	0.070379	0.050421
C75	C	1.002568	0.403713	0.383754
C76	C	0.265209	-0.262962	-0.282920
C77	C	0.598542	0.070371	0.050413
C78	C	0.931875	0.403704	0.383746
C79	C	0.265209	-0.343583	-0.369330
C80	C	0.598542	-0.010250	-0.035996
C81	C	0.931876	0.323083	0.297337
C82	C	0.335896	-0.343579	-0.369324
C83	C	0.669229	-0.010246	-0.035991
C84	C	1.002563	0.323087	0.297343
C85	C	0.371238	-0.303261	-0.326117
C86	C	0.704572	0.030073	0.007216
C87	C	1.037905	0.363406	0.340549
C88	C	0.447887	-0.303259	-0.326109
C89	C	0.781220	0.030074	0.007225
C90	C	1.114553	0.363408	0.340558
C91	C	0.508979	-0.303261	-0.326105
C92	C	0.842312	0.030072	0.007229
C93	C	1.175645	0.363405	0.340562
C94	C	0.978001	-0.466806	-0.326062
C95	C	1.311334	-0.133472	0.007271
C96	C	1.644667	0.199861	0.340604
C97	C	0.978024	-0.536774	-0.326069
C98	C	1.311358	-0.203441	0.007264
C99	C	1.644691	0.129893	0.340598
C100	C	1.021344	-0.569632	-0.282828
C101	C	1.354677	-0.236299	0.050505
C102	C	1.688011	0.097034	0.383838
C103	C	1.021376	-0.635375	-0.282844
C104	C	1.354709	-0.302042	0.050490
C105	C	1.688042	0.031292	0.383823
C106	C	0.978076	-0.668256	-0.326092
C107	C	1.311409	-0.334923	0.007241
C108	C	1.644743	-0.001590	0.340574
C109	C	0.934753	-0.635390	-0.369341
C110	C	1.268087	-0.302057	-0.036008
C111	C	1.601420	0.031277	0.297325
C112	C	0.934728	-0.569649	-0.369330
C113	C	1.268061	-0.236315	-0.035996
C114	C	1.601394	0.097018	0.297337
N115	N	0.918865	-0.771522	-0.331245
N116	N	1.252199	-0.438189	0.002089
N117	N	1.585532	-0.104856	0.335422
N118	N	0.918892	-0.833974	-0.331252
N119	N	1.252225	-0.500640	0.002081
N120	N	1.585558	-0.167307	0.335415
C121	C	0.978152	-0.866331	-0.326131
C122	C	1.311485	-0.532998	0.007202
C123	C	1.644818	-0.199664	0.340536
N124	N	1.037386	-0.833878	-0.320989
N125	N	1.370719	-0.500544	0.012344
N126	N	1.704052	-0.167211	0.345677
N127	N	1.037358	-0.771421	-0.320979
N128	N	1.370692	-0.438087	0.012354
N129	N	1.704025	-0.104754	0.345688
C130	C	0.978099	-0.739542	-0.326110
C131	C	1.311433	-0.406208	0.007223
C132	C	1.644766	-0.072875	0.340557
C133	C	1.021509	-0.970475	-0.282905
C134	C	1.354843	-0.637142	0.050429
C135	C	1.688176	-0.303808	0.383762
C136	C	1.021542	-1.036219	-0.282925
C137	C	1.354875	-0.702885	0.050409
C138	C	1.688209	-0.369552	0.383742
C139	C	0.934914	-1.036233	-0.369419
C140	C	1.268247	-0.702899	-0.036085
C141	C	1.601580	-0.369566	0.297248
C142	C	0.934887	-0.970490	-0.369402
C143	C	1.268220	-0.637157	-0.036069
C144	C	1.601553	-0.303823	0.297264
C145	C	0.978184	-0.937615	-0.326142
C146	C	1.311517	-0.604282	0.007192
C147	C	1.644850	-0.270949	0.340525
C148	C	1.154632	-0.303267	-0.326122
C149	C	1.487965	0.030067	0.007211
C150	C	1.821299	0.363400	0.340545
C151	C	1.229864	-0.303272	-0.326132
C152	C	1.563197	0.030061	0.007202
C153	C	1.896531	0.363395	0.340535
C154	C	0.978127	-0.303214	-0.502643
C155	C	1.311461	0.030119	-0.169309
C156	C	1.644794	0.363452	0.164024
C157	C	0.978143	-0.303198	-0.577875
C158	C	1.311477	0.030136	-0.244541
C159	C	1.644810	0.363469	0.088792
C160	C	0.978197	-0.139064	-0.326152
C161	C	1.311530	0.194269	0.007181
C162	C	1.644863	0.527603	0.340514
C163	C	0.978243	-0.069096	-0.326175
C164	C	1.311576	0.264238	0.007159
C165	C	1.644909	0.597571	0.340492
C166	C	1.021461	-0.262937	-0.613238
C167	C	1.354795	0.070396	-0.279905
C168	C	1.688128	0.403729	0.053428
C169	C	1.021468	-0.262919	-0.683927
C170	C	1.354801	0.070414	-0.350593
C171	C	1.688135	0.403748	-0.017260
C172	C	0.978160	-0.303165	-0.719250
C173	C	1.311494	0.030169	-0.385917
C174	C	1.644827	0.363502	-0.052584
C175	C	0.934838	-0.343427	-0.683882
C176	C	1.268171	-0.010094	-0.350548
C177	C	1.601504	0.323240	-0.017215
C178	C	0.934828	-0.343442	-0.613195
C179	C	1.268161	-0.010108	-0.279861
C180	C	1.601494	0.323225	0.053472
C181	C	0.934876	-0.343368	-0.968955
C182	C	1.268209	-0.010035	-0.635622
C183	C	1.601543	0.323298	-0.302289
C184	C	0.934891	-0.343352	-1.039647
C185	C	1.268224	-0.010018	-0.706314
C186	C	1.601557	0.323315	-0.372981
C187	C	1.021516	-0.262846	-1.039687
C188	C	1.354850	0.070488	-0.706354
C189	C	1.688183	0.403821	-0.373021
C190	C	1.021506	-0.262860	-0.969000
C191	C	1.354840	0.070473	-0.635667
C192	C	1.688173	0.403806	-0.302333
C193	C	0.978182	-0.303120	-0.933638
C194	C	1.311515	0.030214	-0.600304
C195	C	1.644848	0.363547	-0.266971
C196	C	0.978174	-0.303138	-0.856989
C197	C	1.311507	0.030195	-0.523656
C198	C	1.644840	0.363528	-0.190323
C199	C	0.978171	-0.303150	-0.795897
C200	C	1.311504	0.030183	-0.462564
C201	C	1.644838	0.363517	-0.129231
C202	C	0.978090	-0.303248	-0.150244
C203	C	1.311424	0.030085	0.183090
C204	C	1.644757	0.363418	0.516423
C205	C	0.978205	-0.303088	-0.075012
C206	C	1.311539	0.030246	0.258321
C207	C	1.644872	0.363579	0.591654
H208	H	0.364668	-0.230129	-0.247726
H209	H	0.698001	0.103205	0.085607
H210	H	1.031335	0.436538	0.418941
H211	H	0.364669	-0.376405	-0.404501
H212	H	0.698003	-0.043072	-0.071168
H213	H	1.031336	0.290262	0.262165
H214	H	0.899608	-0.376159	-0.940172
H215	H	1.232941	-0.042826	-0.606838
H216	H	1.566275	0.290507	-0.273505
H217	H	1.056774	-0.230090	-0.940243
H218	H	1.390108	0.103243	-0.606910
H219	H	1.723441	0.436577	-0.273576
C220	C	0.684550	-0.423252	-0.454714
C221	C	1.017884	-0.089918	-0.121380
C222	C	1.351217	0.243415	0.211953
C223	C	0.730504	-0.387872	-0.416784
C224	C	1.063837	-0.054538	-0.083451
C225	C	1.397171	0.278795	0.249882
H226	H	0.708533	-0.450601	-0.484038
H227	H	1.041866	-0.117268	-0.150705
H228	H	1.375199	0.216066	0.182629
H229	H	0.656958	-0.447297	-0.425179
H230	H	0.990291	-0.113963	-0.091845
H231	H	1.323624	0.219370	0.241488
H232	H	0.657002	-0.395850	-0.480656
H233	H	0.990336	-0.062516	-0.147323
H234	H	1.323669	0.270817	0.186010
H235	H	0.758049	-0.415274	-0.390837
H236	H	1.091382	-0.081940	-0.057504
H237	H	1.424715	0.251393	0.275829
H238	H	0.758108	-0.363825	-0.446323
H239	H	1.091442	-0.030492	-0.112989
H240	H	1.424775	0.302842	0.220344
C241	C	0.541521	-0.352439	-0.460344
C242	C	0.874855	-0.019106	-0.127010
C243	C	1.208188	0.314227	0.206323
C244	C	0.582125	-0.387883	-0.416796
C245	C	0.915458	-0.054549	-0.083463
C246	C	1.248791	0.278784	0.249870
H247	H	0.517546	-0.379802	-0.489669
H248	H	0.850879	-0.046468	-0.156336
H249	H	1.184213	0.286865	0.176998
H250	H	0.510355	-0.328440	-0.434620
H251	H	0.843688	0.004893	-0.101287
H252	H	1.177022	0.338226	0.232046
H253	H	0.569130	-0.325045	-0.486284
H254	H	0.902464	0.008288	-0.152951
H255	H	1.235797	0.341621	0.180383
H256	H	0.554515	-0.415273	-0.390852
H257	H	0.887849	-0.081940	-0.057519
H258	H	1.221182	0.251393	0.275814
H259	H	0.613295	-0.411892	-0.442522
H260	H	0.946628	-0.078559	-0.109189
H261	H	1.279961	0.254774	0.224144
C262	C	0.896390	-0.379155	-0.792221
C263	C	1.229724	-0.045822	-0.458888
C264	C	1.563057	0.287511	-0.125554
C265	C	0.887232	-0.387666	-0.722708
C266	C	1.220565	-0.054333	-0.389375
C267	C	1.553899	0.279000	-0.056041
H268	H	0.867003	-0.406472	-0.816188
H269	H	1.200336	-0.073138	-0.482855
H270	H	1.533670	0.260195	-0.149521
H271	H	0.886513	-0.336862	-0.803815
H272	H	1.219846	-0.003529	-0.470482
H273	H	1.553180	0.329804	-0.137148
H274	H	0.941865	-0.388371	-0.803803
H275	H	1.275198	-0.055038	-0.470470
H276	H	1.608532	0.278296	-0.137137
H277	H	0.841758	-0.378446	-0.711125
H278	H	1.175092	-0.045113	-0.377791
H279	H	1.508425	0.288220	-0.044458
H280	H	0.897105	-0.429969	-0.711109
H281	H	1.230438	-0.096636	-0.377776
H282	H	1.563771	0.236697	-0.044443
H283	H	0.899661	-1.063004	-0.404636
H284	H	1.232994	-0.729671	-0.071302
H285	H	1.566328	-0.396337	0.262031
H286	H	0.592192	-0.230118	-0.247718
H287	H	0.925525	0.103216	0.085616
H288	H	1.258858	0.436549	0.418949
H289	H	1.056601	-0.542868	-0.247605
H290	H	1.389934	-0.209534	0.085729
H291	H	1.723267	0.123799	0.419062
H292	H	0.236425	-0.376411	-0.404513
H293	H	0.569758	-0.043077	-0.071180
H294	H	0.903091	0.290256	0.262154
H295	H	1.056791	-0.230062	-1.068488
H296	H	1.390124	0.103271	-0.735155
H297	H	1.723458	0.436605	-0.401821
C298	C	0.272305	-0.183253	-0.197512
C299	C	0.605638	0.150080	0.135821
C300	C	0.938972	0.483413	0.469155
C301	C	0.226357	-0.218647	-0.235434
C302	C	0.559691	0.114687	0.097899
C303	C	0.893024	0.448020	0.431232
H304	H	0.248318	-0.155894	-0.168202
H305	H	0.581651	0.177439	0.165132
H306	H	0.914985	0.510772	0.498465
H307	H	0.299850	-0.210641	-0.171561
H308	H	0.633183	0.122692	0.161772
H309	H	0.966517	0.456025	0.495105
H310	H	0.299901	-0.159212	-0.227057
H311	H	0.633234	0.174122	0.106276
H312	H	0.966568	0.507455	0.439609
H313	H	0.198764	-0.242692	-0.205889
H314	H	0.532098	0.090641	0.127444
H315	H	0.865431	0.423975	0.460777
H316	H	0.198801	-0.191255	-0.261387
H317	H	0.532134	0.142078	0.071946
H318	H	0.865467	0.475412	0.405279
C319	C	0.684566	-0.183253	-0.197460
C320	C	1.017899	0.150080	0.135873
C321	C	1.351232	0.483413	0.469206
C322	C	0.730514	-0.218629	-0.235383
C323	C	1.063847	0.114704	0.097950
C324	C	1.397180	0.448037	0.431283
H325	H	0.708552	-0.155902	-0.168132
H326	H	1.041886	0.177431	0.165201
H327	H	1.375219	0.510765	0.498534
H328	H	0.657023	-0.159210	-0.226999
H329	H	0.990356	0.174123	0.106334
H330	H	1.323689	0.507456	0.439668
H331	H	0.656968	-0.210658	-0.171522
H332	H	0.990301	0.122676	0.161812
H333	H	1.323634	0.456009	0.495145
H334	H	0.758109	-0.191225	-0.261326
H335	H	1.091442	0.142108	0.072007
H336	H	1.424775	0.475442	0.405341
H337	H	0.758068	-0.242674	-0.205841
H338	H	1.091401	0.090659	0.127492
H339	H	1.424735	0.423993	0.460826
H340	H	1.056654	-0.662134	-0.247632
H341	H	1.389988	-0.328800	0.085701
H342	H	1.723321	0.004533	0.419035
C343	C	1.112517	-0.254157	-0.763457
C344	C	1.445850	0.079176	-0.430124
C345	C	1.779184	0.412510	-0.096790
C346	C	1.069076	-0.218661	-0.722806
C347	C	1.402409	0.114672	-0.389473
C348	C	1.735743	0.448005	-0.056140
H349	H	1.141902	-0.226830	-0.787464
H350	H	1.475236	0.106504	-0.454130
H351	H	1.808569	0.439837	-0.120797
H352	H	1.138392	-0.281583	-0.735882
H353	H	1.471725	0.051751	-0.402548
H354	H	1.805059	0.385084	-0.069215
H355	H	1.086715	-0.278123	-0.794603
H356	H	1.420049	0.055210	-0.461269
H357	H	1.753382	0.388543	-0.127936
H358	H	1.094877	-0.194698	-0.691657
H359	H	1.428211	0.138635	-0.358324
H360	H	1.761544	0.471968	-0.024991
H361	H	1.043198	-0.191225	-0.750384
H362	H	1.376532	0.142109	-0.417051
H363	H	1.709865	0.475442	-0.083717
H364	H	0.899451	-0.542895	-0.404542
H365	H	1.232784	-0.209561	-0.071209
H366	H	1.566118	0.123772	0.262125
C367	C	0.849219	-0.423037	-0.620250
C368	C	1.182552	-0.089703	-0.286917
C369	C	1.515885	0.243630	0.046416
C370	C	0.887223	-0.387708	-0.574320
C371	C	1.220557	-0.054375	-0.240987
C372	C	1.553890	0.278959	0.092347
H373	H	0.819833	-0.450369	-0.596250
H374	H	1.153167	-0.117035	-0.262917
H375	H	1.486500	0.216298	0.070417
H376	H	0.823343	-0.395605	-0.647819
H377	H	1.156676	-0.062272	-0.314486
H378	H	1.490010	0.271061	0.018848
H379	H	0.878707	-0.447103	-0.647824
H380	H	1.212040	-0.113770	-0.314491
H381	H	1.545374	0.219564	0.018842
H382	H	0.857735	-0.363638	-0.546749
H383	H	1.191068	-0.030304	-0.213416
H384	H	1.524402	0.303029	0.119917
H385	H	0.913101	-0.415143	-0.546740
H386	H	1.246434	-0.081809	-0.213407
H387	H	1.579767	0.251524	0.119927
H388	H	0.899621	-0.376126	-1.068406
H389	H	1.232954	-0.042793	-0.735073
H390	H	1.566288	0.290541	-0.401739
C391	C	1.030907	-0.178280	-0.533776
C392	C	1.364240	0.155053	-0.200442
C393	C	1.697574	0.488386	0.132891
C394	C	1.069065	-0.218695	-0.574413
C395	C	1.402398	0.114638	-0.241080
C396	C	1.735732	0.447972	0.092253
H397	H	1.060296	-0.150968	-0.509806
H398	H	1.393630	0.182366	-0.176473
H399	H	1.726963	0.515699	0.156860
H400	H	1.001441	-0.154198	-0.561355
H401	H	1.334775	0.179135	-0.228022
H402	H	1.668108	0.512469	0.105312
H403	H	1.005113	-0.202268	-0.502597
H404	H	1.338446	0.131066	-0.169264
H405	H	1.671779	0.464399	0.164069
H406	H	1.094856	-0.194708	-0.605595
H407	H	1.428189	0.138626	-0.272262
H408	H	1.761522	0.471959	0.061072
H409	H	1.098543	-0.242779	-0.546831
H410	H	1.431876	0.090554	-0.213498
H411	H	1.765209	0.423887	0.119835
H412	H	0.899499	-0.662166	-0.404556
H413	H	1.232833	-0.328833	-0.071223
H414	H	1.566166	0.004501	0.262111
H415	H	1.056767	-0.943707	-0.247681
H416	H	1.390100	-0.610374	0.085652
H417	H	1.723433	-0.277041	0.418986
H418	H	1.056822	-1.062971	-0.247714
H419	H	1.390156	-0.729638	0.085619
H420	H	1.723489	-0.396304	0.418952
H421	H	0.899609	-0.943735	-0.404610
H422	H	1.232942	-0.610402	-0.071277
H423	H	1.566276	-0.277068	0.262057
