data_functionalizedCrystal
_audit_creation_method	'MofGen! by Chris Wilmer'
_symmetry_space_group_name_H-M	'P1'
_symmetry_Int_Tables_number	1
_symmetry_cell_setting	triclinic
loop_
_symmetry_equiv_pos_as_xyz
  x,y,z
_cell_length_a	10.723023
_cell_length_b	17.699083
_cell_length_c	16.176319
_cell_angle_alpha	90.001389
_cell_angle_beta	89.994558
_cell_angle_gamma	96.124719
loop_
_atom_site_label
_atom_site_type_symbol
_atom_site_fract_x
_atom_site_fract_y
_atom_site_fract_z
O1	O	0.157797	-1.005074	-0.068628
O2	O	0.178327	-0.784825	-0.068655
O3	O	-0.013601	-0.900030	-0.068638
O4	O	0.349726	-0.889869	-0.068645
O5	O	-0.013613	-0.900014	0.068855
O6	O	0.178315	-0.784809	0.068838
O7	O	0.157785	-1.005058	0.068865
Cu8	Cu	0.168049	-0.894932	0.081406
Cu9	Cu	0.168063	-0.894951	-0.081196
O10	O	0.349713	-0.889853	0.068848
C11	C	0.177585	-0.756615	0.000088
C12	C	0.175379	-0.672583	0.000078
C13	C	-0.060094	-0.899283	0.000107
C14	C	-0.198611	-0.897071	0.000104
C15	C	0.158527	-1.033267	0.000120
C16	C	0.160734	-1.117299	0.000125
C17	C	-0.260378	-0.896076	0.071328
C18	C	-0.403542	-0.893790	0.071326
C19	C	0.396206	-0.890600	0.000101
C20	C	0.534723	-0.892812	0.000099
N21	N	0.168038	-0.894924	0.195771
C22	C	0.288036	-0.624673	0.000076
C23	C	0.285955	-0.545716	0.000087
C24	C	0.171215	-0.514672	0.000094
C25	C	0.058549	-0.562589	0.000098
C26	C	0.060631	-0.641544	0.000093
C27	C	0.050148	-0.244173	0.000118
C28	C	0.048075	-0.165212	0.000121
C29	C	0.275473	-0.148345	0.000112
C30	C	0.277555	-0.227300	0.000107
C31	C	0.164889	-0.275210	0.000116
C32	C	0.167147	-0.360823	0.000106
C33	C	0.168956	-0.429060	0.000098
N34	N	0.168064	-0.894965	-0.195561
C35	C	0.083087	-0.945953	0.239043
C36	C	0.083086	-0.945956	0.325590
C37	C	0.168042	-0.894935	0.368864
C38	C	0.252998	-0.843901	0.325586
C39	C	0.252992	-0.843894	0.239040
C40	C	0.253021	-0.843927	0.674614
C41	C	0.253022	-0.843939	0.761166
C42	C	0.083115	-0.945989	0.761164
C43	C	0.083109	-0.945982	0.674618
C44	C	0.168059	-0.894946	0.631348
C45	C	0.168058	-0.894942	0.537504
C46	C	0.168050	-0.894942	0.462706
H47	H	-0.456659	-0.892930	0.132303
H48	H	0.322207	-0.802388	0.796398
O49	O	0.000461	-0.995572	0.632711
C50	C	-0.074503	-1.040625	0.689463
H51	H	-0.075844	-1.009596	0.751161
H52	H	-0.174181	-1.051653	0.664465
H53	H	-0.034104	-1.097057	0.698654
O54	O	0.399576	-0.654736	-0.000042
C55	C	0.468230	-0.630320	-0.071261
H56	H	0.434385	-0.575393	-0.094997
H57	H	0.572173	-0.619899	-0.055247
H58	H	0.453648	-0.675925	-0.121127
H59	H	-0.034875	-0.537306	0.000115
O60	O	-0.261987	-0.895929	-0.072624
C61	C	-0.322974	-0.829302	-0.077036
H62	H	-0.273655	-0.784193	-0.034542
H63	H	-0.319768	-0.807317	-0.143325
H64	H	-0.424812	-0.842520	-0.056809
H65	H	0.377693	-0.506710	0.000084
O66	O	-0.048920	-0.687978	0.000054
C67	C	-0.150641	-0.643649	0.000079
H68	H	-0.118791	-0.584893	-0.025949
H69	H	-0.229558	-0.672361	-0.039838
H70	H	-0.185829	-0.637848	0.066043
H71	H	0.322166	-0.802340	0.203810
H72	H	0.013910	-0.987503	0.203815
O73	O	0.335665	-0.794328	0.632717
C74	C	0.410630	-0.749289	0.689474
H75	H	0.411976	-0.780335	0.751159
H76	H	0.510306	-0.738253	0.664462
H77	H	0.370229	-0.692861	0.698693
H78	H	0.370988	-0.252572	0.000098
H79	H	-0.207272	-0.896921	0.132307
O80	O	-0.402065	-0.893924	-0.072700
C81	C	-0.448052	-0.958863	-0.118321
H82	H	-0.547377	-0.979174	-0.097109
H83	H	-0.449113	-0.944079	-0.186891
H84	H	-0.384854	-1.005847	-0.107855
O85	O	0.000531	-0.995607	0.367495
C86	C	-0.074464	-1.040632	0.310742
H87	H	-0.023310	-1.041735	0.249044
H88	H	-0.093599	-1.100978	0.335739
H89	H	-0.167123	-1.015594	0.301554
O90	O	0.384805	-0.101696	0.000148
C91	C	0.358373	-0.025350	0.000137
H92	H	0.260373	-0.021814	0.026174
H93	H	0.430201	0.010040	0.040052
H94	H	0.363173	-0.002541	-0.065824
H95	H	-0.045366	-0.139939	0.000127
O96	O	-0.059327	-0.290671	-0.000025
C97	C	-0.129010	-0.276490	-0.071222
H98	H	-0.063045	-0.249856	-0.120994
H99	H	-0.179227	-0.332237	-0.095123
H100	H	-0.201105	-0.235913	-0.055120
H101	H	0.013939	-0.987544	0.796403
H102	H	0.322167	-0.802354	0.360825
