data_functionalizedCrystal
_audit_creation_method	'MofGen! by Chris Wilmer'
_symmetry_space_group_name_H-M	'P1'
_symmetry_Int_Tables_number	1
_symmetry_cell_setting	triclinic
loop_
_symmetry_equiv_pos_as_xyz
  x,y,z
_cell_length_a	12.759401
_cell_length_b	12.594516
_cell_length_c	12.594510
_cell_angle_alpha	89.968094
_cell_angle_beta	89.979331
_cell_angle_gamma	90.017577
loop_
_atom_site_label
_atom_site_type_symbol
_atom_site_fract_x
_atom_site_fract_y
_atom_site_fract_z
Zn1	Zn	1.606254	-0.423607	-0.601815
Zn2	Zn	1.606141	-0.601635	-0.423843
Zn3	Zn	1.430553	-0.423675	-0.423850
Zn4	Zn	1.430540	-0.601548	-0.601779
O5	O	1.518372	-0.512616	-0.512822
O6	O	1.753260	-0.447230	-0.578218
O7	O	1.582808	-0.578093	-0.274898
O8	O	1.453913	-0.274721	-0.447476
O9	O	1.753177	-0.578026	-0.447463
O10	O	1.582999	-0.274670	-0.578226
O11	O	1.453804	-0.447347	-0.274903
O12	O	1.283531	-0.447263	-0.447441
O13	O	1.453890	-0.577879	-0.750730
O14	O	1.283521	-0.577946	-0.578165
O15	O	1.582986	-0.447146	-0.750756
O16	O	1.582795	-0.750569	-0.447428
O17	O	1.453782	-0.750506	-0.578158
C18	C	1.245405	-0.512603	-0.512801
C19	C	1.128628	-0.512623	-0.512817
C20	C	1.073789	-0.580773	-0.580778
C21	C	0.964065	-0.580777	-0.580799
C22	C	0.964029	-0.444479	-0.444889
C23	C	1.073751	-0.444470	-0.444874
C24	C	0.814167	-0.618961	-0.706282
C25	C	0.759324	-0.687128	-0.774234
C26	C	0.794919	-0.791000	-0.790395
C27	C	0.885356	-0.826726	-0.738589
C28	C	0.940193	-0.758565	-0.670630
C29	C	0.904600	-0.654679	-0.654489
C30	C	1.223651	-0.406297	-0.319389
C31	C	1.278490	-0.338141	-0.251424
C32	C	1.242897	-0.234267	-0.235252
C33	C	1.152457	-0.198544	-0.287039
C34	C	1.097617	-0.266701	-0.355004
C35	C	1.133218	-0.370573	-0.371178
C36	C	1.518303	-0.789157	-0.512811
C37	C	1.518370	-0.907463	-0.512843
C38	C	1.448193	-0.976720	-0.583896
C39	C	1.422592	-1.047596	-0.486774
C40	C	1.544066	-1.047386	-0.609981
C41	C	1.492719	-0.976780	-0.415669
C42	C	1.614238	-0.976564	-0.538942
C43	C	1.588673	-1.047408	-0.441753
C44	C	1.792405	-0.512630	-0.512844
C45	C	1.909182	-0.512636	-0.512853
C46	C	1.518450	-0.512495	-0.790443
C47	C	1.518482	-0.512444	-0.908748
C48	C	1.518470	-0.234995	-0.512856
C49	C	1.518512	-0.116690	-0.512870
C50	C	1.588723	-0.441317	-1.048779
C51	C	1.614374	-0.538437	-0.977961
C52	C	1.492877	-0.415335	-0.977995
C53	C	1.544228	-0.609583	-1.048716
C54	C	1.422686	-0.486415	-1.048756
C55	C	1.448301	-0.583602	-0.977970
C56	C	1.518356	-0.512660	-0.236281
C57	C	1.518526	-0.512412	-0.117976
H58	H	0.914324	-0.911314	-0.751744
N59	N	1.465375	-0.938052	-0.312602
N60	N	1.378747	-0.961621	-0.272636
H61	H	1.359428	-0.934270	-0.199847
N62	N	1.465666	-0.312341	-0.939008
N63	N	1.460536	-0.296074	-0.841248
H64	H	1.441324	-0.223333	-0.813715
H65	H	1.341585	-1.078819	-0.464721
H66	H	0.750259	-0.846501	-0.845724
N67	N	1.716012	-0.566057	-0.938919
N68	N	1.727420	-0.646646	-0.882121
H69	H	1.799203	-0.666147	-0.854547
H70	H	1.648081	-1.078250	-0.381607
H71	H	1.118466	-0.636266	-0.636104
H72	H	0.785184	-0.534377	-0.693141
H73	H	1.341679	-0.464377	-1.079878
H74	H	1.695227	-0.945344	-0.561041
H75	H	1.566020	-0.691710	-1.079651
H76	H	1.013825	-0.787654	-0.628450
H77	H	1.648150	-0.381256	-1.079869
N78	N	0.666949	-0.650621	-0.827140
N79	N	0.635182	-0.557867	-0.812715
H80	H	0.569940	-0.532089	-0.850077
H81	H	1.352131	-0.367236	-0.209255
H82	H	1.287553	-0.178779	-0.179899
H83	H	1.388920	-0.643808	-0.947076
N84	N	1.571246	-1.086298	-0.713024
N85	N	1.515433	-1.063628	-0.791363
H86	H	1.534619	-1.091107	-0.864139
H87	H	1.023981	-0.237603	-0.397180
N88	N	0.907955	-0.374872	-0.375498
N89	N	0.809990	-0.374888	-0.375519
H90	H	0.770388	-0.325728	-0.326509
H91	H	1.123464	-0.113968	-0.273855
N92	N	1.373601	-0.937771	-0.659149
N93	N	1.299850	-0.879849	-0.628991
H94	H	1.247166	-0.852340	-0.682132
N95	N	1.260023	-0.512405	-0.335895
N96	N	1.340762	-0.544291	-0.289635
H97	H	1.366449	-0.619232	-0.301284
