data_functionalizedCrystal
_audit_creation_method	'MofGen! by Chris Wilmer'
_symmetry_space_group_name_H-M	'P1'
_symmetry_Int_Tables_number	1
_symmetry_cell_setting	triclinic
loop_
_symmetry_equiv_pos_as_xyz
  x,y,z
_cell_length_a	17.699083
_cell_length_b	11.792241
_cell_length_c	16.176319
_cell_angle_alpha	89.993071
_cell_angle_beta	89.998611
_cell_angle_gamma	83.738215
loop_
_atom_site_label
_atom_site_type_symbol
_atom_site_fract_x
_atom_site_fract_y
_atom_site_fract_z
O1	O	1.004844	0.143527	-0.068631
O2	O	1.504844	0.643527	0.431369
O3	O	0.784565	0.162200	-0.068658
O4	O	1.284565	0.662200	0.431342
O5	O	0.900050	-0.012371	-0.068638
O6	O	1.400050	0.487629	0.431362
O7	O	0.889359	0.318098	-0.068651
O8	O	1.389359	0.818098	0.431349
O9	O	0.900034	-0.012382	0.068855
O10	O	1.400034	0.487618	0.568855
O11	O	0.784549	0.162189	0.068835
O12	O	1.284549	0.662189	0.568835
O13	O	1.004828	0.143516	0.068862
O14	O	1.504828	0.643516	0.568862
Cu15	Cu	0.894687	0.152851	0.081403
Cu16	Cu	1.394687	0.652851	0.581403
Cu17	Cu	0.894706	0.152865	-0.081199
Cu18	Cu	1.394706	0.652865	0.418801
O19	O	0.889343	0.318087	0.068842
O20	O	1.389343	0.818087	0.568842
C21	C	0.756356	0.161525	0.000085
C22	C	1.256356	0.661525	0.500085
C23	C	0.672328	0.159518	0.000075
C24	C	1.172328	0.659518	0.500075
C25	C	0.899370	-0.054660	0.000108
C26	C	1.399370	0.445340	0.500108
C27	C	0.897360	-0.180649	0.000107
C28	C	1.397360	0.319351	0.500107
C29	C	0.624253	0.261988	0.000071
C30	C	1.124253	0.761988	0.500071
C31	C	0.545299	0.260095	0.000082
C32	C	1.045299	0.760095	0.500082
C33	C	0.514422	0.155731	0.000091
C34	C	1.014422	0.655731	0.500091
C35	C	0.562503	0.053254	0.000097
C36	C	1.062503	0.553254	0.500097
C37	C	0.641455	0.055148	0.000092
C38	C	1.141455	0.555148	0.500092
C39	C	0.244099	0.045613	0.000118
C40	C	0.744099	0.545613	0.500118
C41	C	0.165141	0.043727	0.000120
C42	C	0.665141	0.543727	0.500120
C43	C	0.147944	0.250560	0.000108
C44	C	0.647944	0.750560	0.500108
C45	C	0.226896	0.252454	0.000103
C46	C	0.726896	0.752454	0.500103
C47	C	0.274970	0.149977	0.000113
C48	C	0.774970	0.649977	0.500113
C49	C	0.360580	0.152031	0.000103
C50	C	0.860580	0.652031	0.500103
C51	C	0.428814	0.153676	0.000095
C52	C	0.928814	0.653676	0.500095
C53	C	0.893664	-0.411317	0.000093
C54	C	1.393664	0.088683	0.500093
C55	C	0.895718	-0.282956	0.000101
C56	C	1.395718	0.217044	0.500101
C57	C	1.033036	0.144190	0.000117
C58	C	1.533036	0.644190	0.500117
C59	C	1.117065	0.146198	0.000122
C60	C	1.617065	0.646198	0.500122
C61	C	0.890022	0.360375	0.000094
C62	C	1.390022	0.860375	0.500094
C63	C	0.892032	0.486365	0.000090
C64	C	1.392032	0.986365	0.500090
N65	N	0.894679	0.152841	0.195768
N66	N	1.394679	0.652841	0.695768
N67	N	0.894720	0.152865	-0.195564
N68	N	1.394720	0.652865	0.304436
C69	C	0.945831	0.075573	0.239041
C70	C	1.445831	0.575573	0.739041
C71	C	0.945835	0.075572	0.325588
C72	C	1.445835	0.575572	0.825588
C73	C	0.894690	0.152845	0.368861
C74	C	1.394690	0.652845	0.868861
C75	C	0.843532	0.230118	0.325582
C76	C	1.343532	0.730118	0.825582
C77	C	0.843525	0.230113	0.239036
C78	C	1.343525	0.730113	0.739036
C79	C	0.843558	0.230139	0.674610
C80	C	1.343558	0.730139	1.174610
C81	C	0.843570	0.230140	0.761161
C82	C	1.343570	0.730140	1.261161
C83	C	0.945868	0.075598	0.761162
C84	C	1.445868	0.575598	1.261162
C85	C	0.945861	0.075593	0.674617
C86	C	1.445861	0.575593	1.174617
C87	C	0.894701	0.152861	0.631345
C88	C	1.394701	0.652861	1.131345
C89	C	0.894697	0.152860	0.537501
C90	C	1.394697	0.652860	1.037501
C91	C	0.894697	0.152853	0.462703
C92	C	1.394697	0.652853	0.962703
H93	H	0.649386	0.346973	0.000064
H94	H	1.149386	0.846973	0.500064
N95	N	0.096092	0.361094	0.000099
N96	N	0.596092	0.861094	0.500099
H97	H	0.041391	0.344064	0.000106
H98	H	0.541391	0.844064	0.500106
H99	H	0.106141	0.406587	0.051063
H100	H	0.606141	0.906587	0.551063
H101	H	0.680598	-0.028294	0.000095
H102	H	1.180598	0.471706	0.500095
H103	H	0.801919	0.293068	0.796392
H104	H	1.301919	0.793068	1.296392
N105	N	0.131836	-0.068841	0.000130
N106	N	0.631836	0.431159	0.500130
H107	H	0.174270	-0.133474	0.000139
H108	H	0.674270	0.366526	0.500139
H109	H	0.099451	-0.074125	0.051102
H110	H	0.599451	0.425875	0.551102
H111	H	0.801903	0.293055	0.639385
H112	H	1.301903	0.793055	1.139385
H113	H	0.987483	0.012653	0.203814
H114	H	1.487483	0.512653	0.703814
N115	N	0.493446	0.370615	0.000171
N116	N	0.993446	0.870615	0.500171
H117	H	0.524987	0.437015	0.000190
H118	H	1.024987	0.937015	0.500190
H119	H	0.460269	0.374423	-0.050765
H120	H	0.960269	0.874423	0.449235
N121	N	0.788368	0.313472	0.372246
N122	N	1.288368	0.813472	0.872246
H123	H	0.734600	0.300499	0.357194
H124	H	1.234600	0.800499	0.857194
H125	H	0.796199	0.301717	0.433624
H126	H	1.296199	0.801717	0.933624
H127	H	0.801871	0.293031	0.203804
H128	H	1.301871	0.793031	0.703804
N129	N	0.260191	0.365023	0.000086
N130	N	0.760191	0.865023	0.500086
H131	H	0.242693	0.409904	0.051053
H132	H	0.742693	0.909904	0.551053
H133	H	0.317496	0.350586	0.000049
H134	H	0.817496	0.850586	0.500049
N135	N	0.295945	-0.064910	0.000134
N136	N	0.795945	0.435090	0.500134
H137	H	0.264401	-0.131308	0.000139
H138	H	0.764401	0.368692	0.500139
H139	H	0.329080	-0.068636	-0.050834
H140	H	0.829080	0.431364	0.449166
H141	H	0.537357	-0.031721	0.000116
H142	H	1.037357	0.468279	0.500116
N143	N	1.001033	-0.007729	0.372262
N144	N	1.501033	0.492271	0.872262
H145	H	1.033444	-0.056663	0.331717
H146	H	1.533444	0.443337	0.831717
H147	H	1.034655	0.035710	0.408145
H148	H	1.534655	0.535710	0.908145
H149	H	0.987511	0.012673	0.639387
H150	H	1.487511	0.512673	1.139387
H151	H	0.987523	0.012679	0.796403
H152	H	1.487523	0.512679	1.296403
