data_functionalizedCrystal
_audit_creation_method	'MofGen! by Chris Wilmer'
_symmetry_space_group_name_H-M	'P1'
_symmetry_Int_Tables_number	1
_symmetry_cell_setting	triclinic
loop_
_symmetry_equiv_pos_as_xyz
  x,y,z
_cell_length_a	8.597187
_cell_length_b	8.559649
_cell_length_c	9.730223
_cell_angle_alpha	89.997407
_cell_angle_beta	82.294925
_cell_angle_gamma	77.625088
loop_
_atom_site_label
_atom_site_type_symbol
_atom_site_fract_x
_atom_site_fract_y
_atom_site_fract_z
O1	O	2.053775	0.238058	-0.357474
O2	O	1.594633	0.256315	-0.303109
O3	O	1.864655	0.015217	-0.335080
O4	O	1.783754	0.479156	-0.325503
O5	O	1.864640	0.015210	-0.106498
O6	O	1.594619	0.256308	-0.074527
O7	O	2.053761	0.238051	-0.128893
Zn8	Zn	1.824187	0.247179	-0.065418
Zn9	Zn	1.824207	0.247188	-0.366584
O10	O	1.783739	0.479150	-0.096922
C11	C	1.536390	0.254350	-0.181922
C12	C	1.362867	0.248486	-0.161376
C13	C	1.870779	-0.044221	-0.221517
C14	C	1.889028	-0.221315	-0.223686
C15	C	2.112004	0.240016	-0.250082
C16	C	2.285527	0.245880	-0.270637
C17	C	1.777615	0.538587	-0.210487
C18	C	1.759366	0.715682	-0.208327
N19	N	1.824186	0.247172	0.140119
N20	N	1.824222	0.247182	-0.572122
C21	C	1.943782	0.140459	0.197884
C22	C	1.943797	0.140460	0.341766
C23	C	1.704614	0.353900	0.370104
C24	C	1.704593	0.353890	0.226226
H25	H	1.352070	0.248137	-0.379898
C26	C	1.590536	-0.174169	-0.188350
H27	H	1.600005	-0.065599	-0.189489
H28	H	1.533712	-0.194459	-0.101913
H29	H	1.533742	-0.194472	-0.261348
C30	C	1.573086	0.471294	0.464823
H31	H	1.590235	0.456030	0.558784
H32	H	1.470633	0.452280	0.453399
H33	H	1.577270	0.578014	0.440730
H34	H	2.014008	-0.302868	-0.238473
H35	H	2.041159	0.053561	0.127779
H36	H	1.607196	0.440788	0.179192
C37	C	2.075349	0.023080	0.405309
H38	H	2.058228	0.038352	0.503331
H39	H	2.177793	0.042097	0.369583
H40	H	2.071163	-0.083644	0.382231
C41	C	1.272932	0.245682	-0.013774
H42	H	1.164168	0.242074	-0.018867
H43	H	1.276498	0.339408	0.036907
H44	H	1.322614	0.153875	0.031697
