data_functionalizedCrystal
_audit_creation_method	'MofGen! by Chris Wilmer'
_symmetry_space_group_name_H-M	'P1'
_symmetry_Int_Tables_number	1
_symmetry_cell_setting	triclinic
loop_
_symmetry_equiv_pos_as_xyz
  x,y,z
_cell_length_a	15.072220
_cell_length_b	15.995350
_cell_length_c	15.995343
_cell_angle_alpha	83.490780
_cell_angle_beta	89.994632
_cell_angle_gamma	89.989989
loop_
_atom_site_label
_atom_site_type_symbol
_atom_site_fract_x
_atom_site_fract_y
_atom_site_fract_z
O1	O	-0.073717	1.110994	0.107921
O2	O	0.426283	1.610994	0.607921
O3	O	-0.073736	0.867219	0.121248
O4	O	0.426264	1.367219	0.621248
O5	O	-0.073709	0.995774	-0.007304
O6	O	0.426291	1.495774	0.492696
O7	O	-0.073743	0.982439	0.236473
O8	O	0.426257	1.482439	0.736473
O9	O	0.073856	0.995739	-0.007295
O10	O	0.573856	1.495739	0.492705
O11	O	0.073829	0.867184	0.121257
O12	O	0.573829	1.367184	0.621257
O13	O	0.073848	1.110960	0.107929
O14	O	0.573848	1.610960	0.607929
Zn15	Zn	0.097268	0.989066	0.114594
Zn16	Zn	0.597268	1.489066	0.614594
Zn17	Zn	-0.097156	0.989112	0.114583
Zn18	Zn	0.402844	1.489112	0.614583
O19	O	0.073822	0.982405	0.236481
O20	O	0.573822	1.482405	0.736481
C21	C	0.000044	0.836007	0.120702
C22	C	0.500044	1.336007	0.620702
C23	C	0.000037	0.743056	0.119050
C24	C	0.500037	1.243056	0.619050
N25	N	0.229957	0.989041	0.114602
N26	N	0.729957	1.489041	0.614602
C27	C	0.000057	0.405309	0.113118
C28	C	0.500057	0.905309	0.613118
C29	C	0.000399	0.452745	0.021565
C30	C	0.500399	0.952745	0.521565
C31	C	0.000060	0.549436	0.023217
C32	C	0.500060	1.049436	0.523217
C33	C	0.000048	0.572869	0.116060
C34	C	0.500048	1.072869	0.616060
C35	C	-0.084222	0.531801	0.161212
C36	C	0.415778	1.031801	0.661212
C37	C	-0.084286	0.435165	0.158912
C38	C	0.415714	0.935165	0.658912
C39	C	0.083523	0.434787	0.160813
C40	C	0.583523	0.934787	0.660813
C41	C	0.084630	0.531732	0.160792
C42	C	0.584630	1.031732	0.660792
C43	C	0.000040	0.667567	0.117728
C44	C	0.500040	1.167567	0.617728
C45	C	0.000059	0.310611	0.111452
C46	C	0.500059	0.810611	0.611452
C47	C	0.589158	0.989096	0.114587
C48	C	1.089158	1.489096	0.614587
C49	C	0.551537	0.920079	0.183141
C50	C	1.051537	1.420079	0.683141
C51	C	0.448711	0.920239	0.183391
C52	C	0.948711	1.420239	0.683391
C53	C	0.410954	0.989068	0.114594
C54	C	0.910954	1.489068	0.614594
C55	C	0.448249	1.076432	0.133676
C56	C	0.948249	1.576432	0.633676
C57	C	0.551107	1.076043	0.134165
C58	C	1.051107	1.576043	0.634165
C59	C	0.551269	0.971530	0.026747
C60	C	1.051269	1.471530	0.526747
C61	C	0.448405	0.969528	0.027331
C62	C	0.948405	1.469528	0.527331
C63	C	0.310241	0.989058	0.114597
C64	C	0.810241	1.489058	0.614597
C65	C	0.689871	0.989113	0.114586
C66	C	1.189871	1.489113	0.614586
N67	N	0.770156	0.989124	0.114579
N68	N	1.270156	1.489124	0.614579
C69	C	0.000075	0.995206	-0.038494
C70	C	0.500075	1.495206	0.461506
C71	C	0.000082	0.993557	-0.131445
C72	C	0.500082	1.493557	0.368555
C73	C	0.000066	1.142172	0.108476
C74	C	0.500066	1.642172	0.608476
C75	C	0.000067	1.235122	0.110128
C76	C	0.500067	1.735122	0.610128
C77	C	0.000062	0.990563	-0.301631
C78	C	0.500062	1.490563	0.198369
C79	C	0.000052	0.897766	-0.324977
C80	C	0.500052	1.397766	0.175023
C81	C	-0.000293	0.896021	-0.421655
C82	C	0.499707	1.396021	0.078345
C83	C	0.000043	0.987615	-0.469191
C84	C	0.500043	1.487615	0.030809
C85	C	-0.084051	1.034295	-0.440097
C86	C	0.415949	1.534295	0.059903
C87	C	-0.084112	1.035395	-0.343305
C88	C	0.415888	1.535395	0.156695
C89	C	0.083703	1.036714	-0.343399
C90	C	0.583703	1.536714	0.156601
C91	C	0.084799	1.033288	-0.439894
C92	C	0.584799	1.533288	0.060106
C93	C	0.000029	0.985953	-0.563889
C94	C	0.500029	1.485953	-0.063889
C95	C	0.000070	0.992228	-0.206933
C96	C	0.500070	1.492228	0.293067
C97	C	0.000035	0.982972	0.267672
C98	C	0.500035	1.482972	0.767672
C99	C	0.000022	0.984621	0.360622
C100	C	0.500022	1.484621	0.860622
H101	H	0.060468	0.577851	-0.012275
H102	H	0.560468	1.077851	0.487725
H103	H	-0.147271	0.416873	0.125978
H104	H	0.352729	0.916873	0.625978
O105	O	0.080448	0.428195	-0.026912
O106	O	0.580448	0.928195	0.473088
H107	H	0.120844	0.381916	0.013722
H108	H	0.620844	0.881916	0.513722
O109	O	-0.088863	1.125530	-0.323983
O110	O	0.411137	1.625530	0.176017
H111	H	-0.150641	1.155009	-0.351177
H112	H	0.349359	1.655009	0.148823
O113	O	0.414376	1.031784	-0.043422
O114	O	0.914376	1.531784	0.456578
H115	H	0.471263	1.065400	-0.075974
H116	H	0.971263	1.565400	0.424026
O117	O	-0.088401	0.550502	0.251564
O118	O	0.411599	1.050502	0.751564
H119	H	-0.091364	0.619609	0.253374
H120	H	0.408636	1.119609	0.753374
H121	H	0.575598	1.021861	-0.024269
H122	H	1.075598	1.521861	0.475731
H123	H	0.084526	1.105016	-0.329379
H124	H	0.584526	1.605016	0.170621
O125	O	0.084277	0.392703	0.250221
O126	O	0.584277	0.892703	0.750221
H127	H	0.023171	0.410003	0.282973
H128	H	0.523171	0.910003	0.782973
H129	H	-0.060168	0.862398	-0.295991
H130	H	0.439832	1.362398	0.204009
O131	O	0.091362	0.552082	0.250474
O132	O	0.591362	1.052082	0.750474
H133	H	0.090534	0.492800	0.293875
H134	H	0.590534	0.992800	0.793875
H135	H	-0.086938	1.101706	-0.471943
H136	H	0.413062	1.601706	0.028057
O137	O	-0.080616	0.847883	-0.446087
O138	O	0.419384	1.347883	0.053913
H139	H	-0.119371	0.825771	-0.388816
H140	H	0.380629	1.325771	0.111184
O141	O	0.582867	1.096547	0.219020
O142	O	1.082867	1.596547	0.719020
H143	H	0.656498	1.096478	0.220209
H144	H	1.156498	1.596478	0.720209
O145	O	-0.080088	0.586361	-0.024117
O146	O	0.419912	1.086361	0.475883
H147	H	-0.080605	0.655630	-0.023109
H148	H	0.419395	1.155630	0.476891
O149	O	0.168171	0.997919	-0.305961
O150	O	0.668171	1.497919	0.194039
H151	H	0.170895	0.930592	-0.316606
H152	H	0.670895	1.430592	0.183394
H153	H	-0.059692	0.433167	-0.014865
H154	H	0.440308	0.933167	0.485135
H155	H	-0.147218	1.003474	-0.316517
H156	H	0.352782	1.503474	0.183483
O157	O	0.416091	0.935098	0.269734
O158	O	0.916091	1.435098	0.769734
H159	H	0.342452	0.935255	0.270217
H160	H	0.842452	1.435255	0.770217
H161	H	0.147397	0.414237	0.130887
H162	H	0.647397	0.914237	0.630887
H163	H	-0.088119	0.402916	0.226128
H164	H	0.411881	0.902916	0.726128
O165	O	0.415304	0.834218	0.168346
O166	O	0.915304	1.334218	0.668346
H167	H	0.440007	0.786728	0.218976
H168	H	0.940007	1.286728	0.718976
H169	H	-0.146929	0.560191	0.129844
H170	H	0.353071	1.060191	0.629844
H171	H	0.575992	1.129005	0.086202
H172	H	1.075992	1.629005	0.586202
H173	H	0.146973	0.559035	0.127831
H174	H	0.646973	1.059035	0.627831
H175	H	-0.146879	1.002294	-0.460186
H176	H	0.353121	1.502294	0.039814
O177	O	0.091866	1.121824	-0.483530
O178	O	0.591866	1.621824	0.016470
H179	H	0.152361	1.152223	-0.461428
H180	H	0.652361	1.652223	0.038572
H181	H	0.423790	1.129018	0.085073
H182	H	0.923790	1.629018	0.585073
O183	O	0.585653	0.888958	0.002452
O184	O	1.085653	1.388958	0.502452
H185	H	0.630137	0.859516	0.052721
H186	H	1.130137	1.359516	0.552721
O187	O	0.079536	0.847618	-0.446861
O188	O	0.579536	1.347618	0.053139
H189	H	0.118734	0.825246	-0.389949
H190	H	0.618734	1.325246	0.110051
H191	H	0.147013	0.999295	-0.458456
H192	H	0.647013	1.499295	0.041544
H193	H	0.576295	0.854929	0.171960
H194	H	1.076295	1.354929	0.671960
O195	O	0.585738	0.934727	0.269006
O196	O	1.085738	1.434727	0.769006
H197	H	0.629414	0.990951	0.263069
H198	H	1.129414	1.490951	0.763069
H199	H	0.424030	0.905262	0.012850
H200	H	0.924030	1.405262	0.512850
O201	O	0.414123	1.097432	0.217570
O202	O	0.914123	1.597432	0.717570
H203	H	0.370611	1.045788	0.245802
H204	H	0.870611	1.545788	0.745802
H205	H	0.060349	0.861783	-0.296971
H206	H	0.560349	1.361783	0.203029
