data_functionalizedCrystal
_audit_creation_method	'MofGen! by Chris Wilmer'
_symmetry_space_group_name_H-M	'P1'
_symmetry_Int_Tables_number	1
_symmetry_cell_setting	triclinic
loop_
_symmetry_equiv_pos_as_xyz
  x,y,z
_cell_length_a	16.959455
_cell_length_b	13.897448
_cell_length_c	16.959447
_cell_angle_alpha	89.973219
_cell_angle_beta	90.014701
_cell_angle_gamma	89.981003
loop_
_atom_site_label
_atom_site_type_symbol
_atom_site_fract_x
_atom_site_fract_y
_atom_site_fract_z
Zn1	Zn	1.208387	0.384011	0.446936
Zn2	Zn	1.208310	0.545329	0.314766
Zn3	Zn	1.076215	0.384048	0.314773
Zn4	Zn	1.076181	0.545264	0.446903
O5	O	1.142273	0.464663	0.380845
O6	O	1.318987	0.405421	0.429414
O7	O	1.190770	0.523977	0.204156
O8	O	1.093794	0.249061	0.332321
O9	O	1.318931	0.523941	0.332309
O10	O	1.190900	0.249034	0.429421
O11	O	1.093720	0.405485	0.204161
O12	O	0.965600	0.405422	0.332289
O13	O	1.093736	0.523830	0.557519
O14	O	0.965575	0.523866	0.429365
O15	O	1.190867	0.405358	0.557543
O16	O	1.190737	0.680302	0.332277
O17	O	1.093662	0.680254	0.429358
C18	C	0.936907	0.464642	0.380825
C19	C	0.849050	0.464656	0.380835
C20	C	0.807745	0.526276	0.330205
C21	C	0.807802	0.403044	0.431472
C22	C	0.725256	0.403051	0.431481
C23	C	0.683951	0.464671	0.380851
C24	C	0.725192	0.526283	0.330212
C25	C	0.684009	0.341433	0.482114
C26	C	0.601458	0.341438	0.482125
C27	C	0.560151	0.403063	0.431498
C28	C	0.601397	0.464679	0.380857
C29	C	0.560092	0.526299	0.330227
C30	C	0.601337	0.587920	0.279590
C31	C	0.683885	0.587909	0.279585
C32	C	0.477603	0.403074	0.431503
C33	C	0.477539	0.526306	0.330234
C34	C	1.142209	0.715277	0.380831
C35	C	1.142254	0.822491	0.380852
C36	C	1.142331	1.018786	0.380908
C37	C	1.142286	0.909554	0.380879
C38	C	1.348441	0.464684	0.380865
C39	C	1.436298	0.464694	0.380873
C40	C	1.142306	0.464583	0.587013
C41	C	1.142320	0.464549	0.674869
C42	C	1.142353	1.213070	0.380885
C43	C	1.142369	1.105856	0.380926
C44	C	1.142286	0.464673	0.175478
C45	C	1.142425	0.464435	0.087622
C46	C	1.091843	0.526130	1.046335
C47	C	1.192986	0.402764	1.046355
C48	C	1.192965	0.402785	0.963809
C49	C	1.142383	0.464480	0.922523
C50	C	1.091822	0.526154	0.963782
C51	C	1.243531	0.341118	0.922544
C52	C	1.243513	0.341137	0.839993
C53	C	1.192926	0.402828	0.798705
C54	C	1.142362	0.464504	0.839969
C55	C	1.091780	0.526199	0.798682
C56	C	1.041212	0.587871	0.839945
C57	C	1.041235	0.587845	0.922493
C58	C	1.192902	0.402854	0.716156
C59	C	1.091759	0.526224	0.716129
H60	H	0.443914	0.576489	0.289007
H61	H	1.000068	0.638059	0.956097
H62	H	1.050669	0.576339	1.079935
O63	O	0.986646	0.654407	0.795416
H64	H	1.021993	0.703499	0.757794
H65	H	1.234172	0.352540	1.079976
H66	H	1.284717	0.290895	0.956166
O67	O	1.298051	0.274618	0.795496
H68	H	1.289543	0.285000	0.731158
O69	O	0.852225	0.592728	0.275585
H70	H	0.889840	0.641849	0.310891
H71	H	1.234076	0.352644	0.682564
H72	H	0.567695	0.638087	0.238364
H73	H	0.717474	0.638075	0.238357
H74	H	0.841437	0.352871	0.472689
O75	O	0.728561	0.274974	0.536715
H76	H	0.686016	0.232120	0.571920
H77	H	0.444025	0.352896	0.472726
O78	O	0.556974	0.274981	0.536739
H79	H	0.572833	0.291615	0.598751
O80	O	1.037184	0.592745	0.671597
H81	H	1.002025	0.635617	0.714160
