data_functionalizedCrystal
_audit_creation_method	'MofGen! by Chris Wilmer'
_symmetry_space_group_name_H-M	'P1'
_symmetry_Int_Tables_number	1
_symmetry_cell_setting	triclinic
loop_
_symmetry_equiv_pos_as_xyz
  x,y,z
_cell_length_a	12.594517
_cell_length_b	12.594516
_cell_length_c	13.033109
_cell_angle_alpha	97.157122
_cell_angle_beta	82.803562
_cell_angle_gamma	90.016010
loop_
_atom_site_label
_atom_site_type_symbol
_atom_site_fract_x
_atom_site_fract_y
_atom_site_fract_z
Zn1	Zn	1.703672	-0.500126	-0.590718
Zn2	Zn	1.680963	-0.655533	-0.415987
Zn3	Zn	1.503079	-0.477572	-0.416009
Zn4	Zn	1.525656	-0.678060	-0.590698
O5	O	1.603343	-0.577823	-0.503353
O6	O	1.849606	-0.520753	-0.567538
O7	O	1.638414	-0.613060	-0.269757
O8	O	1.529743	-0.331620	-0.439203
O9	O	1.832921	-0.634930	-0.439164
O10	O	1.677119	-0.348191	-0.567560
O11	O	1.507723	-0.482312	-0.269773
O12	O	1.357128	-0.504156	-0.439183
O13	O	1.568223	-0.673323	-0.736934
O14	O	1.373715	-0.651454	-0.567526
O15	O	1.699011	-0.542596	-0.736948
O16	O	1.660306	-0.807465	-0.439145
O17	O	1.546202	-0.824015	-0.567504
C18	C	1.326802	-0.577803	-0.503356
C19	C	1.208500	-0.577823	-0.503381
C20	C	1.077519	-0.658050	-0.573058
C21	C	1.135954	-0.671621	-0.477686
C22	C	1.151635	-0.564298	-0.598742
C23	C	1.056139	-0.591467	-0.407928
C24	C	1.071822	-0.484108	-0.529049
C25	C	1.130216	-0.497633	-0.433611
C26	C	1.603271	-0.854363	-0.503343
C27	C	1.603343	-0.972672	-0.503373
C28	C	1.541269	-1.050959	-0.573139
C29	C	1.503002	-1.109490	-0.477788
C30	C	1.641709	-1.124942	-0.598741
C31	C	1.565019	-1.029638	-0.407972
C32	C	1.703778	-1.045092	-0.528989
C33	C	1.665540	-1.103583	-0.433572
C34	C	1.880963	-0.577844	-0.503351
C35	C	1.999268	-0.577853	-0.503350
C36	C	1.638668	-0.612988	-0.775918
C37	C	1.653722	-0.627974	-0.892069
C38	C	1.603446	-0.300206	-0.503386
C39	C	1.603490	-0.181903	-0.503400
C40	C	1.595770	-0.569964	-0.943861
C41	C	1.611328	-0.585450	-1.063909
C42	C	1.568215	-0.542717	-0.231848
C43	C	1.553368	-0.527432	-0.115698
H44	H	1.153446	-0.429791	-0.374607
H45	H	1.164231	-0.750885	-0.455956
H46	H	1.014727	-0.603018	-0.327247
F47	F	1.691233	-0.665363	-1.122109
F48	F	1.473435	-0.447545	-1.057500
F49	F	1.046872	-0.746757	-0.649995
H50	H	1.674097	-1.166398	-0.679381
F51	F	1.814690	-1.007955	-0.557338
H52	H	1.714853	-0.689105	-0.936603
H53	H	1.534634	-0.508838	-0.899327
H54	H	1.193174	-0.552845	-0.679401
F55	F	1.034831	-0.380540	-0.557487
F56	F	1.734228	-1.133906	-0.356386
H57	H	1.418135	-1.137909	-0.456144
H58	H	1.488656	-1.027545	-0.632052
F59	F	1.522559	-0.975621	-0.302538
