data_functionalizedCrystal
_audit_creation_method	'MofGen! by Chris Wilmer'
_symmetry_space_group_name_H-M	'P1'
_symmetry_Int_Tables_number	1
_symmetry_cell_setting	triclinic
loop_
_symmetry_equiv_pos_as_xyz
  x,y,z
_cell_length_a	15.538191
_cell_length_b	23.532407
_cell_length_c	14.185569
_cell_angle_alpha	76.924933
_cell_angle_beta	97.875798
_cell_angle_gamma	65.060386
loop_
_atom_site_label
_atom_site_type_symbol
_atom_site_fract_x
_atom_site_fract_y
_atom_site_fract_z
O1	O	1.230119	-0.167965	-0.083405
O2	O	0.955241	-0.102078	-0.083414
O3	O	1.100973	-0.219642	-0.083391
O4	O	1.084386	-0.050401	-0.083428
O5	O	1.144024	-0.254369	0.083451
O6	O	0.998292	-0.136805	0.083427
O7	O	1.273169	-0.202692	0.083436
Cu8	Cu	1.139661	-0.172919	0.098666
Cu9	Cu	1.088749	-0.131851	-0.098643
O10	O	1.127437	-0.085128	0.083413
C11	C	0.941606	-0.112548	0.000006
C12	C	0.836839	-0.092014	0.000003
C13	C	0.550965	-0.296010	0.000032
C14	C	0.452518	-0.276701	0.000027
C15	C	0.429052	-0.168092	0.000004
C16	C	0.527501	-0.187393	0.000014
C17	C	0.588450	-0.251353	0.000027
C18	C	0.564986	-0.142735	0.000008
C19	C	0.663425	-0.162034	0.000013
C20	C	0.724379	-0.225991	0.000023
C21	C	0.686889	-0.270652	0.000031
C22	C	0.504034	-0.078774	-0.000012
C23	C	0.541519	-0.034116	-0.000018
C24	C	0.639961	-0.053416	-0.000006
C25	C	0.700915	-0.117373	0.000004
C26	C	0.677451	-0.008755	-0.000015
C27	C	0.775890	-0.028054	-0.000010
C28	C	0.799355	-0.136672	0.000009
C29	C	1.122077	-0.258136	0.000032
C30	C	1.120810	-0.321097	0.000040
C31	C	1.199074	-0.736103	-0.000012
C32	C	1.197893	-0.795262	-0.000020
O33	O	1.270447	-0.846751	-0.000055
N34	N	1.111258	-0.800275	-0.000022
C35	C	1.025796	-0.746122	-0.000027
O36	O	0.951997	-0.755818	-0.000030
C37	C	1.026976	-0.686963	-0.000026
C38	C	1.113619	-0.681957	-0.000014
C39	C	1.285710	-0.731095	-0.000001
C40	C	1.286891	-0.671940	0.000008
C41	C	1.201436	-0.617794	0.000007
C42	C	1.114800	-0.622802	-0.000004
C43	C	0.941513	-0.632810	-0.000038
C44	C	0.942700	-0.573649	-0.000038
C45	C	1.029343	-0.568643	-0.000026
C46	C	1.030526	-0.509502	0.000003
N47	N	1.117161	-0.504489	0.000006
C48	C	1.202616	-0.558635	0.000007
C49	C	1.023323	-0.870361	-0.000030
C50	C	1.022144	-0.929521	-0.000023
C51	C	1.194241	-0.978656	-0.000018
C52	C	1.195421	-0.919497	-0.000017
C53	C	1.109958	-0.865349	-0.000027
C54	C	1.205090	-0.434404	0.000028
C55	C	1.206265	-0.375243	0.000042
C56	C	1.034167	-0.326112	0.000032
C57	C	1.032993	-0.385269	0.000023
C58	C	1.118462	-0.439415	0.000018
O59	O	0.958009	-0.457984	0.000034
O60	O	1.276399	-0.548925	-0.000003
C61	C	1.286804	-0.192222	0.000014
C62	C	1.391568	-0.212754	0.000010
C63	C	1.106332	-0.046633	-0.000012
C64	C	1.107598	0.016329	-0.000026
N65	N	1.175477	-0.201806	0.237443
N66	N	1.052941	-0.102970	-0.237420
C67	C	0.947714	-0.018124	0.605056
C68	C	0.974850	-0.040003	0.710082
C69	C	1.103922	-0.144083	0.710064
C70	C	1.076793	-0.122214	0.605036
C71	C	0.998689	-0.059234	0.552540
C72	C	1.127769	-0.163323	0.552520
C73	C	1.100645	-0.141454	0.447501
C74	C	1.022546	-0.078476	0.394998
C75	C	0.971565	-0.037365	0.447521
C76	C	1.205877	-0.226302	0.605017
C77	C	1.256852	-0.267411	0.552501
C78	C	1.229724	-0.245544	0.447480
C79	C	1.151625	-0.182566	0.394977
C80	C	1.280705	-0.286655	0.394957
C81	C	1.253581	-0.264786	0.289938
C82	C	1.124502	-0.160697	0.289959
H83	H	0.736520	-0.322736	0.000048
H84	H	0.848985	-0.188756	0.000025
O85	O	0.812458	0.015249	-0.000049
C86	C	0.912420	-0.015507	-0.000015
H87	H	0.927792	-0.058238	-0.031600
H88	H	0.929848	0.021923	-0.048450
H89	H	0.960450	-0.035077	0.080030
O90	O	1.290505	-0.370484	0.000005
C91	C	1.365678	-0.430968	0.000026
H92	H	1.331454	-0.459355	-0.031567
H93	H	1.413702	-0.420974	-0.048409
H94	H	1.412664	-0.461485	0.080068
H95	H	0.884107	0.033158	0.562313
O96	O	0.940206	-0.817782	-0.000158
C97	C	0.865281	-0.799293	-0.086579
H98	H	0.881466	-0.843233	-0.115391
H99	H	0.791540	-0.782896	-0.067144
H100	H	0.862249	-0.756799	-0.147084
H101	H	1.344304	-0.337932	0.437712
O102	O	0.610098	-0.358112	-0.000130
C103	C	0.570878	-0.368460	-0.086519
H104	H	0.521361	-0.318809	-0.146921
H105	H	0.633456	-0.399744	-0.115517
H106	H	0.526104	-0.395194	-0.066975
H107	H	0.423878	-0.063062	-0.000019
H108	H	0.491880	0.017961	-0.000033
H109	H	1.295092	-0.298262	0.247179
O110	O	0.416013	-0.320025	-0.000139
C111	C	0.337461	-0.294117	-0.086536
H112	H	0.344887	-0.256544	-0.146936
H113	H	0.339234	-0.335893	-0.115532
H114	H	0.264746	-0.268965	-0.067005
H115	H	0.907959	0.013917	0.404778
H116	H	0.379414	-0.116014	-0.000011
O117	O	1.179715	-0.205309	0.760956
C118	C	1.158253	-0.253283	0.735323
H119	H	1.102186	-0.229826	0.659078
H120	H	1.228523	-0.295281	0.731724
H121	H	1.126698	-0.273535	0.794439
O122	O	0.618109	0.053383	-0.000167
C123	C	0.538190	0.085785	-0.086597
H124	H	0.526203	0.047518	-0.115397
H125	H	0.469011	0.118296	-0.067179
H126	H	0.554731	0.117741	-0.147104
O127	O	1.277322	-1.031278	0.000151
C128	C	1.352272	-1.049762	0.086547
H129	H	1.317844	-1.031700	0.146947
H130	H	1.398000	-1.105852	0.115543
H131	H	1.401576	-1.026681	0.067013
H132	H	1.357443	-0.667871	0.000014
O133	O	0.819953	-0.244637	-0.000107
C134	C	0.824115	-0.203323	-0.086532
H135	H	0.753106	-0.154492	-0.115350
H136	H	0.889222	-0.193584	-0.067101
H137	H	0.833382	-0.228483	-0.147031
O138	O	1.288087	-0.487070	0.000161
C139	C	1.314869	-0.540750	0.086580
H140	H	1.247415	-0.534287	0.115378
H141	H	1.345456	-0.588702	0.067146
H142	H	1.373389	-0.542668	0.147094
O143	O	1.332598	-0.328627	0.603548
C144	C	1.298075	-0.366041	0.664331
H145	H	1.215484	-0.345053	0.632697
H146	H	1.337309	-0.419591	0.665526
H147	H	1.313515	-0.363732	0.743920
O148	O	1.368827	-0.783635	0.000048
C149	C	1.445527	-0.766508	0.000031
H150	H	1.429272	-0.723707	0.031611
H151	H	1.517870	-0.810863	0.048480
H152	H	1.451462	-0.751106	-0.080007
H153	H	1.265973	-0.915427	-0.000008
H154	H	0.951595	-0.933593	-0.000015
O155	O	0.948737	-0.390015	-0.000030
C156	C	0.873574	-0.329542	0.000000
H157	H	0.891500	-0.287999	-0.031566
H158	H	0.800554	-0.319357	-0.048453
H159	H	0.867889	-0.332370	0.080041
O160	O	1.048731	-0.099468	0.238998
C161	C	1.070144	-0.051485	0.264663
H162	H	1.153154	-0.072803	0.293522
H163	H	1.041183	-0.006228	0.195592
H164	H	1.033412	-0.036621	0.325624
H165	H	0.870957	-0.636872	-0.000054
O166	O	0.859603	-0.521122	-0.000003
C167	C	0.782879	-0.538228	-0.000042
H168	H	0.815417	-0.594179	0.031543
H169	H	0.735531	-0.514039	0.048390
H170	H	0.735649	-0.520299	-0.080089
O171	O	0.996093	-0.057116	0.292982
C172	C	0.916211	0.007279	0.257913
H173	H	0.915063	0.032064	0.318435
H174	H	0.924450	0.037217	0.187645
H175	H	0.844526	0.004628	0.239301
O176	O	0.925188	0.000004	0.760941
C177	C	0.850452	0.060284	0.692083
H178	H	0.830280	0.052698	0.617223
H179	H	0.782837	0.078218	0.722439
H180	H	0.877804	0.098681	0.680907
H181	H	0.964593	-0.282017	0.000034
H182	H	1.227961	-0.244104	0.690530
