data_functionalizedCrystal
_audit_creation_method	'MofGen! by Chris Wilmer'
_symmetry_space_group_name_H-M	'P1'
_symmetry_Int_Tables_number	1
_symmetry_cell_setting	triclinic
loop_
_symmetry_equiv_pos_as_xyz
  x,y,z
_cell_length_a	19.121321
_cell_length_b	19.120786
_cell_length_c	18.101390
_cell_angle_alpha	87.524889
_cell_angle_beta	92.421694
_cell_angle_gamma	90.133760
loop_
_atom_site_label
_atom_site_type_symbol
_atom_site_fract_x
_atom_site_fract_y
_atom_site_fract_z
Zn1	Zn	1.059822	-0.324751	-0.356401
Zn2	Zn	1.393155	0.008582	-0.023068
Zn3	Zn	1.726488	0.341916	0.310265
Zn4	Zn	1.054732	-0.442006	-0.227509
Zn5	Zn	1.388065	-0.108673	0.105824
Zn6	Zn	1.721399	0.224660	0.439157
Zn7	Zn	0.942588	-0.319789	-0.238075
Zn8	Zn	1.275921	0.013544	0.095259
Zn9	Zn	1.609255	0.346878	0.428592
Zn10	Zn	0.937555	-0.436965	-0.356811
Zn11	Zn	1.270889	-0.103631	-0.023478
Zn12	Zn	1.604222	0.229702	0.309855
O13	O	0.998674	-0.380878	-0.294699
O14	O	1.332008	-0.047544	0.038634
O15	O	1.665341	0.285789	0.371968
O16	O	1.157248	-0.344491	-0.334710
O17	O	1.490581	-0.011158	-0.001377
O18	O	1.823915	0.322175	0.331956
O19	O	1.039832	-0.425827	-0.125277
O20	O	1.373165	-0.092494	0.208056
O21	O	1.706499	0.240839	0.541389
O22	O	0.962376	-0.222337	-0.258021
O23	O	1.295709	0.110996	0.075312
O24	O	1.629042	0.444330	0.408645
O25	O	1.153509	-0.430639	-0.240014
O26	O	1.486842	-0.097305	0.093320
O27	O	1.820175	0.236028	0.426653
O28	O	1.048507	-0.225982	-0.344955
O29	O	1.381840	0.107351	-0.011622
O30	O	1.715173	0.440684	0.321711
O31	O	0.957440	-0.336035	-0.133040
O32	O	1.290774	-0.002701	0.200293
O33	O	1.624107	0.330632	0.533627
O34	O	0.843819	-0.331146	-0.258419
O35	O	1.177152	0.002187	0.074915
O36	O	1.510486	0.335520	0.408248
O37	O	0.953798	-0.422046	-0.460390
O38	O	1.287131	-0.088713	-0.127057
O39	O	1.620465	0.244621	0.206276
O40	O	0.840122	-0.417235	-0.345654
O41	O	1.173455	-0.083901	-0.012321
O42	O	1.506788	0.249432	0.321013
O43	O	1.043627	-0.339603	-0.460089
O44	O	1.376960	-0.006270	-0.126756
O45	O	1.710293	0.327064	0.206578
O46	O	1.034952	-0.539448	-0.240411
O47	O	1.368285	-0.206114	0.092922
O48	O	1.701619	0.127219	0.426255
O49	O	0.948863	-0.535744	-0.335409
O50	O	1.282196	-0.202410	-0.002076
O51	O	1.615530	0.130923	0.331258
C52	C	0.816534	-0.373105	-0.303228
C53	C	1.149867	-0.039772	0.030106
C54	C	1.483200	0.293561	0.363439
C55	C	0.738612	-0.369797	-0.306893
C56	C	1.071946	-0.036464	0.026440
C57	C	1.405279	0.296869	0.359774
C58	C	0.298006	-0.348785	-0.330138
C59	C	0.631339	-0.015452	0.003196
C60	C	0.964672	0.317881	0.336529
C61	C	0.371220	-0.351907	-0.326689
C62	C	0.704554	-0.018573	0.006644
C63	C	1.037887	0.314760	0.339978
C64	C	0.405875	-0.398246	-0.275588
C65	C	0.739208	-0.064912	0.057746
C66	C	1.072542	0.268421	0.391079
C67	C	0.367311	-0.441471	-0.227937
C68	C	0.700644	-0.108138	0.105396
C69	C	1.033977	0.225195	0.438730
C70	C	0.294097	-0.438353	-0.231390
C71	C	0.627430	-0.105020	0.101943
C72	C	0.960764	0.228314	0.435277
C73	C	0.626835	-0.409905	-0.262695
C74	C	0.960168	-0.076571	0.070638
C75	C	1.293501	0.256762	0.403971
C76	C	0.700054	-0.413018	-0.259245
C77	C	1.033387	-0.079685	0.074089
C78	C	1.366720	0.253649	0.407422
C79	C	0.703958	-0.323454	-0.357998
C80	C	1.037291	0.009879	-0.024665
C81	C	1.370625	0.343213	0.308669
C82	C	0.630743	-0.320337	-0.361443
C83	C	0.964076	0.012996	-0.028110
C84	C	1.297410	0.346330	0.305224
C85	C	0.592185	-0.363565	-0.313795
C86	C	0.925518	-0.030232	0.019538
C87	C	1.258852	0.303102	0.352871
C88	C	0.480712	-0.401436	-0.272060
C89	C	0.814045	-0.068103	0.061274
C90	C	1.147379	0.265231	0.394607
C91	C	0.517349	-0.360378	-0.317327
C92	C	0.850682	-0.027045	0.016006
C93	C	1.184016	0.306289	0.349339
C94	C	0.990828	-0.563035	-0.286823
C95	C	1.324161	-0.229702	0.046510
C96	C	1.657495	0.103631	0.379843
C97	C	0.987536	-0.640966	-0.283476
C98	C	1.320869	-0.307633	0.049858
C99	C	1.654202	0.025701	0.383191
C100	C	1.030799	-0.679414	-0.327205
C101	C	1.364132	-0.346081	0.006128
C102	C	1.697466	-0.012747	0.339462
C103	C	1.027703	-0.752638	-0.324061
C104	C	1.361036	-0.419305	0.009272
C105	C	1.694369	-0.085971	0.342606
C106	C	0.981346	-0.787413	-0.277183
C107	C	1.314679	-0.454079	0.056150
C108	C	1.648012	-0.120746	0.389483
C109	C	0.938077	-0.748959	-0.233453
C110	C	1.271411	-0.415626	0.099881
C111	C	1.604744	-0.082293	0.433214
C112	C	0.941171	-0.675736	-0.236601
C113	C	1.274504	-0.342403	0.096732
C114	C	1.607837	-0.009070	0.430066
C115	C	0.969760	-1.008406	-0.265414
C116	C	1.303094	-0.675073	0.067919
C117	C	1.636427	-0.341739	0.401252
C118	C	0.966672	-1.081634	-0.262268
C119	C	1.300005	-0.748301	0.071066
C120	C	1.633338	-0.414967	0.404399
C121	C	1.056296	-1.085308	-0.352878
C122	C	1.389630	-0.751974	-0.019544
C123	C	1.722963	-0.418641	0.313789
C124	C	1.059389	-1.012083	-0.356018
C125	C	1.392722	-0.678750	-0.022685
C126	C	1.726055	-0.345417	0.310648
C127	C	1.016118	-0.973636	-0.312291
C128	C	1.349451	-0.640303	0.021043
C129	C	1.682784	-0.306970	0.354376
C130	C	0.978181	-0.862259	-0.273967
C131	C	1.311514	-0.528926	0.059366
C132	C	1.644848	-0.195593	0.392700
C133	C	1.019279	-0.898791	-0.315511
C134	C	1.352613	-0.565458	0.017822
C135	C	1.685946	-0.232124	0.351155
C136	C	1.181526	-0.388681	-0.286138
C137	C	1.514859	-0.055348	0.047196
C138	C	1.848193	0.277986	0.380529
C139	C	1.259447	-0.392006	-0.282489
C140	C	1.592780	-0.058673	0.050844
C141	C	1.926113	0.274661	0.384177
C142	C	0.998719	-0.380815	-0.487862
C143	C	1.332052	-0.047482	-0.154529
C144	C	1.665385	0.285851	0.178805
C145	C	0.998738	-0.380789	-0.570176
C146	C	1.332071	-0.047456	-0.236843
C147	C	1.665404	0.285878	0.096490
C148	C	1.006570	-0.198010	-0.302621
C149	C	1.339904	0.135324	0.030712
C150	C	1.673237	0.468657	0.364046
C151	C	1.009935	-0.120082	-0.305997
C152	C	1.343268	0.213251	0.027336
C153	C	1.676602	0.546585	0.360670
C154	C	0.998777	-0.380747	-0.869268
C155	C	1.332111	-0.047414	-0.535934
C156	C	1.665444	0.285920	-0.202601
C157	C	1.055465	-0.329074	-0.837736
C158	C	1.388799	0.004259	-0.504403
C159	C	1.722132	0.337592	-0.171070
C160	C	1.055304	-0.328867	-0.752135
C161	C	1.388638	0.004467	-0.418801
C162	C	1.721971	0.337800	-0.085468
C163	C	0.998758	-0.380768	-0.720885
C164	C	1.332092	-0.047434	-0.387552
C165	C	1.665425	0.285899	-0.054218
C166	C	0.925760	-0.357548	-0.756290
C167	C	1.259093	-0.024215	-0.422957
C168	C	1.592426	0.309119	-0.089624
C169	C	0.926103	-0.357157	-0.841938
C170	C	1.259436	-0.023824	-0.508605
C171	C	1.592769	0.309510	-0.175271
C172	C	1.014431	-0.455751	-0.833598
C173	C	1.347765	-0.122417	-0.500265
C174	C	1.681098	0.210916	-0.166931
C175	C	1.016068	-0.455441	-0.747888
C176	C	1.349402	-0.122108	-0.414555
C177	C	1.682735	0.211226	-0.081221
C178	C	0.998743	-0.380781	-0.637026
C179	C	1.332076	-0.047447	-0.303692
C180	C	1.665410	0.285886	0.029641
C181	C	0.998788	-0.380732	-0.953127
C182	C	1.332121	-0.047399	-0.619794
C183	C	1.665454	0.285935	-0.286461
C184	C	0.998673	-0.380891	-0.102288
C185	C	1.332006	-0.047558	0.231045
C186	C	1.665339	0.285776	0.564379
C187	C	0.998798	-0.380726	-0.019976
C188	C	1.332131	-0.047392	0.313357
C189	C	1.665465	0.285941	0.646690
H190	H	0.262703	-0.473549	-0.192591
H191	H	0.596036	-0.140216	0.140742
H192	H	0.929370	0.193117	0.474076
Cl193	Cl	1.039690	-0.243177	-0.725082
Cl194	Cl	1.373023	0.090156	-0.391749
Cl195	Cl	1.706356	0.423489	-0.058416
H196	H	1.091524	-1.116619	-0.388479
H197	H	1.424857	-0.783286	-0.055146
H198	H	1.758191	-0.449952	0.278187
Cl199	Cl	0.743618	-0.471291	-0.195012
Cl200	Cl	1.076951	-0.137958	0.138321
Cl201	Cl	1.410284	0.195375	0.471654
Cl202	Cl	0.905012	-0.272373	-0.877573
Cl203	Cl	1.238345	0.060961	-0.544240
Cl204	Cl	1.571679	0.394294	-0.210906
Cl205	Cl	1.077551	-0.855073	-0.374445
Cl206	Cl	1.410884	-0.521740	-0.041112
Cl207	Cl	1.744218	-0.188406	0.292222
Cl208	Cl	0.904214	-0.273662	-0.727948
Cl209	Cl	1.237548	0.059671	-0.394615
Cl210	Cl	1.570881	0.393004	-0.061281
H211	H	0.900330	-0.777278	-0.195287
H212	H	1.233663	-0.443945	0.138046
H213	H	1.566996	-0.110612	0.471380
Cl214	Cl	0.410876	-0.499730	-0.163698
Cl215	Cl	0.744210	-0.166396	0.169635
Cl216	Cl	1.077543	0.166937	0.502968
Cl217	Cl	0.915356	-0.960082	-0.210449
Cl218	Cl	1.248689	-0.626748	0.122885
Cl219	Cl	1.582022	-0.293415	0.456218
Cl220	Cl	0.858928	-0.412459	-0.874447
Cl221	Cl	1.192261	-0.079126	-0.541113
Cl222	Cl	1.525595	0.254208	-0.207780
Cl223	Cl	0.524284	-0.459687	-0.207818
Cl224	Cl	0.857618	-0.126354	0.125516
Cl225	Cl	1.190951	0.206980	0.458849
Cl226	Cl	1.089083	-0.635705	-0.386136
Cl227	Cl	1.422416	-0.302372	-0.052803
Cl228	Cl	1.755750	0.030962	0.280531
H229	H	1.097136	-0.983772	-0.394190
H230	H	1.430469	-0.650438	-0.060857
H231	H	1.763803	-0.317105	0.272477
Cl232	Cl	0.908392	-1.125350	-0.203329
Cl233	Cl	1.241726	-0.792016	0.130005
Cl234	Cl	1.575059	-0.458683	0.463338
Cl235	Cl	0.578372	-0.464228	-0.202774
Cl236	Cl	0.911706	-0.130895	0.130560
Cl237	Cl	1.245039	0.202438	0.463893
Cl238	Cl	0.858988	-0.413656	-0.725317
Cl239	Cl	1.192321	-0.080323	-0.391983
Cl240	Cl	1.525654	0.253011	-0.058650
H241	H	1.062938	-0.783940	-0.359664
H242	H	1.396271	-0.450606	-0.026331
H243	H	1.729604	-0.117273	0.307003
Cl244	Cl	1.094952	-0.487422	-0.861902
Cl245	Cl	1.428286	-0.154088	-0.528569
Cl246	Cl	1.761619	0.179245	-0.195236
Cl247	Cl	1.098987	-0.482387	-0.711592
Cl248	Cl	1.432321	-0.149053	-0.378258
Cl249	Cl	1.765654	0.184280	-0.044925
Cl250	Cl	0.919901	-0.905982	-0.215041
Cl251	Cl	1.253235	-0.572649	0.118292
Cl252	Cl	1.586568	-0.239315	0.451626
H253	H	1.109533	-0.343770	-0.728014
H254	H	1.442866	-0.010437	-0.394681
H255	H	1.776199	0.322896	-0.061347
Cl256	Cl	0.254447	-0.290524	-0.394379
Cl257	Cl	0.587781	0.042810	-0.061046
Cl258	Cl	0.921114	0.376143	0.272288
Cl259	Cl	0.419691	-0.297573	-0.386597
Cl260	Cl	0.753025	0.035761	-0.053263
Cl261	Cl	1.086358	0.369094	0.280070
Cl262	Cl	0.587183	-0.262082	-0.425690
Cl263	Cl	0.920516	0.071251	-0.092357
Cl264	Cl	1.253849	0.404584	0.240976
H265	H	0.905940	-0.644432	-0.200993
H266	H	1.239273	-0.311099	0.132340
H267	H	1.572607	0.022234	0.465674
Cl268	Cl	0.752435	-0.269118	-0.417898
Cl269	Cl	1.085768	0.064216	-0.084564
Cl270	Cl	1.419101	0.397549	0.248769
H271	H	0.489130	-0.322651	-0.358936
H272	H	0.822463	0.010682	-0.025603
H273	H	1.155797	0.344015	0.307730
Cl274	Cl	0.956563	-0.518471	-0.714672
Cl275	Cl	1.289896	-0.185137	-0.381338
Cl276	Cl	1.623229	0.148196	-0.048005
H277	H	1.109879	-0.343830	-0.855224
H278	H	1.443213	-0.010497	-0.521891
H279	H	1.776546	0.322836	-0.188558
Cl280	Cl	0.950624	-0.515252	-0.865044
Cl281	Cl	1.283958	-0.181919	-0.531710
Cl282	Cl	1.617291	0.151415	-0.198377
Cl283	Cl	1.040079	-0.243867	-0.875516
Cl284	Cl	1.373412	0.089466	-0.542183
Cl285	Cl	1.706746	0.422799	-0.208850
