data_functionalizedCrystal
_audit_creation_method	'MofGen! by Chris Wilmer'
_symmetry_space_group_name_H-M	'P1'
_symmetry_Int_Tables_number	1
_symmetry_cell_setting	triclinic
loop_
_symmetry_equiv_pos_as_xyz
  x,y,z
_cell_length_a	16.793024
_cell_length_b	16.793047
_cell_length_c	33.586455
_cell_angle_alpha	113.253857
_cell_angle_beta	66.219990
_cell_angle_gamma	112.758327
loop_
_atom_site_label
_atom_site_type_symbol
_atom_site_fract_x
_atom_site_fract_y
_atom_site_fract_z
O1	O	0.005016	-0.570216	-0.583573
O2	O	-0.034529	-0.474528	-0.453458
O3	O	0.114723	-0.474535	-0.528082
O4	O	-0.144235	-0.570209	-0.508949
O5	O	0.108729	-0.346329	-0.530229
O6	O	-0.040523	-0.346322	-0.455605
O7	O	-0.000977	-0.442010	-0.585721
Cu8	Cu	-0.021297	-0.382459	-0.520859
Cu9	Cu	-0.014209	-0.534079	-0.518320
O10	O	-0.150229	-0.442003	-0.511097
C11	C	0.005100	-0.790970	-0.238461
C12	C	0.009223	-0.693065	-0.217557
C13	C	0.003804	-0.645758	-0.241627
C14	C	-0.075059	-0.538459	-0.266316
C15	C	0.049838	-0.422849	-0.250165
C16	C	-0.040584	-0.395375	-0.435637
C17	C	-0.044693	-0.353446	-0.386631
C18	C	-0.039275	-0.401741	-0.363054
C19	C	-0.040566	-0.125547	-0.300731
C20	C	-0.044689	-0.223451	-0.321635
C21	C	-0.039266	-0.270752	-0.297563
C22	C	0.039597	-0.378051	-0.272874
C23	C	-0.085304	-0.493667	-0.289026
C24	C	0.005118	-0.521142	-0.103554
C25	C	0.009231	-0.563064	-0.152559
C26	C	0.003809	-0.514775	-0.176138
C27	C	0.010758	-0.652581	-0.172822
C28	C	0.001010	-0.556371	-0.220792
C29	C	-0.008251	-0.506059	-0.245823
C30	C	-0.046224	-0.263935	-0.366370
C31	C	-0.036476	-0.360146	-0.318399
C32	C	-0.027211	-0.410451	-0.293367
C33	C	0.815184	-0.521162	-0.508596
C34	C	0.717729	-0.563083	-0.506815
C35	C	0.669923	-0.514793	-0.509201
C36	C	0.564072	-0.463272	-0.548285
C37	C	0.445555	-0.498966	-0.486078
C38	C	0.415541	-0.125553	-0.528781
C39	C	0.375032	-0.223457	-0.531493
C40	C	0.423813	-0.270761	-0.529101
C41	C	0.149318	-0.395376	-0.530584
C42	C	0.246774	-0.353455	-0.532364
C43	C	0.294574	-0.401748	-0.529976
C44	C	0.400424	-0.453269	-0.490892
C45	C	0.518948	-0.417572	-0.553101
C46	C	0.548961	-0.790984	-0.510398
C47	C	0.589464	-0.693083	-0.507684
C48	C	0.540690	-0.645776	-0.510078
C49	C	0.678399	-0.652598	-0.506649
C50	C	0.581167	-0.556389	-0.510877
C51	C	0.530434	-0.506073	-0.515170
C52	C	0.286104	-0.263940	-0.532530
C53	C	0.383336	-0.360149	-0.528302
C54	C	0.434062	-0.410467	-0.524008
C55	C	-0.040530	-0.395407	-0.935652
C56	C	-0.044651	-0.353482	-0.886645
C57	C	-0.039242	-0.401770	-0.863061
C58	C	0.039602	-0.453292	-0.810474
C59	C	-0.085288	-0.417587	-0.750981
C60	C	0.005063	-0.791004	-0.738448
C61	C	0.009186	-0.693099	-0.717543
C62	C	0.003779	-0.645796	-0.741620
C63	C	0.005077	-0.521171	-0.603544
C64	C	0.009198	-0.563096	-0.652550
C65	C	0.003786	-0.514804	-0.676131
C66	C	-0.075058	-0.463283	-0.728717
C67	C	0.049835	-0.498991	-0.788214
C68	C	-0.040516	-0.125574	-0.800747
C69	C	-0.044642	-0.223476	-0.821649
C70	C	-0.039232	-0.270782	-0.797575
C71	C	-0.046172	-0.263965	-0.866386
C72	C	-0.036447	-0.360171	-0.818406
C73	C	-0.027197	-0.410486	-0.793373
C74	C	0.010719	-0.652613	-0.672809
C75	C	0.000994	-0.556406	-0.720789
C76	C	-0.008259	-0.506089	-0.745819
O77	O	-0.000965	0.173549	-0.277957
O78	O	-0.040516	-0.085616	-0.325254
O79	O	0.108737	0.059592	-0.327284
O80	O	-0.150219	0.028341	-0.275927
O81	O	0.114753	0.055151	-0.263265
O82	O	-0.034500	-0.090057	-0.261234
O83	O	0.005051	0.169108	-0.213937
Cu84	Cu	-0.014175	0.039120	-0.231740
Cu85	Cu	-0.021290	0.044372	-0.307451
O86	O	-0.144202	0.023900	-0.211907
O87	O	-0.034458	-0.474571	0.046517
O88	O	0.005076	-0.570190	-0.083599
O89	O	-0.144170	-0.570237	-0.008972
O90	O	0.114787	-0.474523	-0.028110
O91	O	-0.150200	-0.442024	-0.011093
O92	O	-0.000954	-0.441976	-0.085720
O93	O	-0.040488	-0.346357	0.044396
Cu94	Cu	-0.021272	-0.382460	-0.020856
Cu95	Cu	-0.014141	-0.534087	-0.018347
O96	O	0.108757	-0.346309	-0.030231
C97	C	-0.850734	0.086244	-0.289716
C98	C	-0.753280	0.087165	-0.312001
C99	C	-0.705462	0.081107	-0.288506
C100	C	-0.599592	0.000085	-0.264184
C101	C	-0.481080	0.121287	-0.283645
C102	C	-0.450996	0.035117	-0.097351
C103	C	-0.410501	0.028587	-0.146852
C104	C	-0.459292	0.034683	-0.169840
C105	C	-0.184802	0.024283	-0.235878
C106	C	-0.282257	0.023363	-0.213592
C107	C	-0.330068	0.029423	-0.237088
C108	C	-0.435938	0.110445	-0.261411
C109	C	-0.554456	-0.010759	-0.241948
C110	C	-0.584541	0.075410	-0.428242
C111	C	-0.625029	0.081943	-0.378743
C112	C	-0.576244	0.075844	-0.355753
C113	C	-0.713963	0.086424	-0.357292
C114	C	-0.616708	0.075351	-0.310510
C115	C	-0.565963	0.065400	-0.286043
C116	C	-0.321573	0.024104	-0.168302
C117	C	-0.418828	0.035176	-0.215083
C118	C	-0.469568	0.045131	-0.239552
O119	O	0.585213	0.169090	-0.504004
O120	O	0.494056	-0.090076	-0.525516
O121	O	0.488081	0.055124	-0.449918
O122	O	0.591189	0.023889	-0.579602
O123	O	0.359978	0.059584	-0.452885
O124	O	0.365953	-0.085616	-0.528483
O125	O	0.457110	0.173550	-0.506971
Cu126	Cu	0.399835	0.044374	-0.517998
Cu127	Cu	0.551332	0.039099	-0.514489
O128	O	0.463086	0.028349	-0.582569
C129	C	0.815354	-0.521094	-0.008709
C130	C	0.717898	-0.563028	-0.006927
C131	C	0.670072	-0.514739	-0.009298
C132	C	0.564182	-0.463204	-0.048354
C133	C	0.445681	-0.498945	0.013847
C134	C	0.415547	-0.125494	-0.028771
C135	C	0.375059	-0.223405	-0.031498
C136	C	0.423859	-0.270708	-0.029121
C137	C	0.149365	-0.395355	-0.030599
C138	C	0.246820	-0.353421	-0.032381
C139	C	0.294640	-0.401713	-0.030008
C140	C	0.400530	-0.453248	0.009048
C141	C	0.519038	-0.417504	-0.053155
C142	C	0.549171	-0.790955	-0.010537
C143	C	0.589653	-0.693047	-0.007809
C144	C	0.540859	-0.645741	-0.010187
C145	C	0.678588	-0.652551	-0.006775
C146	C	0.581317	-0.556344	-0.010973
C147	C	0.530562	-0.506029	-0.015250
C148	C	0.286131	-0.263897	-0.032533
C149	C	0.383402	-0.360104	-0.028335
C150	C	0.434150	-0.410423	-0.024057
O151	O	-0.620614	0.089309	0.052274
O152	O	-0.529507	0.043784	-0.078544
O153	O	-0.523494	0.194833	-0.006033
O154	O	-0.626628	-0.061740	-0.020236
O155	O	-0.395386	0.185419	-0.005549
O156	O	-0.401400	0.034370	-0.078059
O157	O	-0.492507	0.079895	0.052758
Cu158	Cu	-0.435256	0.056273	-0.012607
Cu159	Cu	-0.586758	0.067406	-0.013179
O160	O	-0.498521	-0.071154	-0.019752
C161	C	-0.437537	0.048335	0.402491
C162	C	-0.397043	0.041789	0.352989
C163	C	-0.445822	0.047883	0.329994
C164	C	-0.496646	0.126653	0.277022
C165	C	-0.465894	-0.000633	0.218811
C166	C	-0.837226	0.099430	0.210091
C167	C	-0.739773	0.100339	0.187806
C168	C	-0.691967	0.094287	0.211308
C169	C	-0.571027	0.088563	0.071568
C170	C	-0.611521	0.095108	0.121070
C171	C	-0.562739	0.089011	0.144061
C172	C	-0.511915	0.010241	0.197033
C173	C	-0.542670	0.137531	0.255247
C174	C	-0.171338	0.037467	0.263967
C175	C	-0.268788	0.036555	0.286249
C176	C	-0.316597	0.042611	0.262750
C177	C	-0.308112	0.037305	0.331542
C178	C	-0.405351	0.048369	0.284750
C179	C	-0.456092	0.058317	0.260279
C180	C	-0.700452	0.099593	0.142516
C181	C	-0.603213	0.088528	0.189308
C182	C	-0.552469	0.078578	0.213776
O183	O	-0.040608	-1.085661	-0.825229
O184	O	-0.001018	-0.826491	-0.777938
O185	O	-0.150287	-0.971682	-0.775894
O186	O	0.108661	-0.940470	-0.827272
O187	O	-0.144253	-0.976123	-0.711878
O188	O	0.005016	-0.830932	-0.713922
O189	O	-0.034575	-1.090102	-0.761213
Cu190	Cu	-0.014228	-0.960923	-0.731722
Cu191	Cu	-0.021364	-0.955670	-0.807428
O192	O	0.114695	-0.944911	-0.763256
O193	O	-0.036862	-0.230384	-0.253947
C194	C	-0.115987	-0.202041	-0.227222
H195	H	-0.171766	-0.243574	-0.244184
H196	H	-0.101653	-0.127812	-0.223676
C197	C	-0.077925	-0.164236	-0.159072
C198	C	-0.146436	-0.215253	-0.179904
H199	H	-0.096706	-0.172381	-0.129884
H200	H	-0.024615	-0.183328	-0.177078
H201	H	-0.065986	-0.102383	-0.156122
H202	H	-0.158365	-0.277105	-0.182860
H203	H	-0.199749	-0.196172	-0.161898
H204	H	-0.531920	0.039247	-0.151930
H205	H	0.634089	-0.467700	-0.572564
O206	O	-0.277450	0.042975	0.218594
C207	C	-0.339574	0.049620	0.202464
H208	H	-0.392462	0.081095	0.232299
H209	H	-0.374262	-0.020416	0.183729
C210	C	-0.224175	0.070311	0.133204
C211	C	-0.289129	0.108976	0.169848
H212	H	-0.193059	0.106921	0.113083
H213	H	-0.182322	0.065831	0.144070
H214	H	-0.253093	0.011949	0.117597
H215	H	-0.260210	0.167332	0.185457
H216	H	-0.330977	0.113468	0.158983
O217	O	-0.153781	-0.377495	-0.731642
C218	C	-0.204411	-0.392864	-0.688911
H219	H	-0.160813	-0.407949	-0.675553
H220	H	-0.266292	-0.452646	-0.692406
C221	C	-0.288563	-0.289990	-0.671962
C222	C	-0.235014	-0.308510	-0.655554
H223	H	-0.307445	-0.237959	-0.651386
H224	H	-0.254456	-0.279638	-0.700751
H225	H	-0.340124	-0.339815	-0.674874
H226	H	-0.183449	-0.258691	-0.652648
H227	H	-0.269114	-0.318852	-0.626763
O228	O	-0.036811	-0.489055	-0.883311
C229	C	-0.115958	-0.540367	-0.896390
H230	H	-0.145815	-0.494268	-0.900252
H231	H	-0.167300	-0.574859	-0.869378
C232	C	-0.056057	-0.668718	-0.937207
C233	C	-0.092724	-0.612099	-0.941954
H234	H	-0.041727	-0.712968	-0.965312
H235	H	-0.002735	-0.634149	-0.928394
H236	H	-0.098848	-0.697452	-0.914695
H237	H	-0.049930	-0.583358	-0.964461
H238	H	-0.146038	-0.646664	-0.950772
H239	H	0.330510	-0.448858	0.033327
O240	O	0.255159	-0.488956	-0.529215
C241	C	0.178029	-0.493723	-0.491070
H242	H	0.152467	-0.432117	-0.479678
H243	H	0.196354	-0.495615	-0.462318
C244	C	0.134951	-0.655261	-0.517624
C245	C	0.103550	-0.579598	-0.503634
H246	H	0.089010	-0.708234	-0.525373
H247	H	0.186917	-0.652050	-0.543322
H248	H	0.150221	-0.656825	-0.493661
H249	H	0.088292	-0.578029	-0.527599
H250	H	0.051580	-0.582811	-0.477941
O251	O	0.647726	-0.468341	-0.077346
C252	C	0.672445	-0.421340	-0.109113
H253	H	0.632638	-0.369310	-0.094464
H254	H	0.656812	-0.470806	-0.141661
C255	C	0.823227	-0.437364	-0.137625
C256	C	0.774341	-0.373454	-0.119631
H257	H	0.886082	-0.407829	-0.144116
H258	H	0.806573	-0.469033	-0.116225
H259	H	0.810190	-0.478581	-0.164747
H260	H	0.787370	-0.332246	-0.092508
H261	H	0.791000	-0.341777	-0.141028
O262	O	0.454259	-0.686250	-0.011792
C263	C	0.452553	-0.761368	-0.050473
H264	H	0.515085	-0.785509	-0.061628
H265	H	0.451928	-0.741504	-0.079097
C266	C	0.290259	-0.807997	-0.025290
C267	C	0.367058	-0.837651	-0.038988
H268	H	0.237521	-0.855051	-0.018207
H269	H	0.291408	-0.757387	0.000770
H270	H	0.289751	-0.791443	-0.049145
H271	H	0.367571	-0.854193	-0.015131
H272	H	0.365908	-0.888266	-0.065044
O273	O	-0.036599	-0.230523	-0.753991
C274	C	-0.031169	-0.292332	-0.737093
H275	H	-0.001941	-0.346812	-0.766609
H276	H	-0.101621	-0.324572	-0.716914
C277	C	-0.005447	-0.175793	-0.669767
C278	C	0.030458	-0.242701	-0.706020
H279	H	0.032564	-0.145179	-0.650598
H280	H	-0.009109	-0.134151	-0.681150
H281	H	-0.064157	-0.202669	-0.652956
H282	H	0.089162	-0.215823	-0.722833
H283	H	0.034131	-0.284338	-0.694638
O284	O	0.097382	-0.448175	-0.852238
C285	C	0.092610	-0.535638	-0.882350
H286	H	0.024851	-0.583318	-0.869221
H287	H	0.149764	-0.559711	-0.884863
C288	C	0.184941	-0.475689	-0.945710
C289	C	0.101716	-0.534250	-0.929586
H290	H	0.190563	-0.474834	-0.974849
H291	H	0.188160	-0.416764	-0.925423
H292	H	0.232561	-0.495757	-0.947800
H293	H	0.054099	-0.514175	-0.927491
H294	H	0.098490	-0.593173	-0.949874
O295	O	0.510404	-0.230313	-0.527475
C296	C	0.512131	-0.155151	-0.488814
H297	H	0.442856	-0.163942	-0.462427
H298	H	0.529864	-0.091508	-0.498800
C299	C	0.668728	-0.136350	-0.501148
C300	C	0.583645	-0.147150	-0.468737
H301	H	0.712843	-0.131411	-0.488764
H302	H	0.667566	-0.186985	-0.527195
H303	H	0.683493	-0.083314	-0.509467
H304	H	0.568877	-0.200191	-0.460423
H305	H	0.584806	-0.096523	-0.442688
H306	H	0.013390	-0.692483	-0.152899
O307	O	0.118194	-0.539250	-0.807496
C308	C	0.081834	-0.632604	-0.812869
H309	H	0.009238	-0.653761	-0.813772
H310	H	0.082813	-0.648941	-0.783218
C311	C	0.228023	-0.657941	-0.856463
C312	C	0.138862	-0.683929	-0.857575
H313	H	0.263202	-0.689602	-0.884039
H314	H	0.252521	-0.595047	-0.852842
H315	H	0.228826	-0.671557	-0.831752
H316	H	0.138059	-0.670303	-0.882282
H317	H	0.114365	-0.746822	-0.861202
H318	H	-0.267732	0.034117	0.350946
H319	H	0.330406	-0.448859	-0.466617
O320	O	0.001098	-0.686117	-0.785195
C321	C	-0.079805	-0.685597	-0.788458
H322	H	-0.106635	-0.629158	-0.759386
H323	H	-0.132077	-0.752980	-0.786438
C324	C	-0.028370	-0.739563	-0.869730
C325	C	-0.061319	-0.670239	-0.834025
H326	H	-0.016969	-0.730094	-0.897838
H327	H	0.026135	-0.739917	-0.867532
H328	H	-0.071936	-0.795709	-0.868040
H329	H	-0.017749	-0.614096	-0.835712
H330	H	-0.115816	-0.669875	-0.836225
H331	H	-0.574318	0.196197	0.271049
O332	O	0.013689	-0.700230	-0.648998
C333	C	-0.062996	-0.702885	-0.610548
H334	H	-0.119244	-0.691395	-0.616645
H335	H	-0.044748	-0.647958	-0.579723
C336	C	-0.026342	-0.809614	-0.594466
C337	C	-0.095431	-0.795510	-0.601955
H338	H	-0.046348	-0.866748	-0.589163
H339	H	0.025324	-0.807823	-0.620369
H340	H	-0.011143	-0.763836	-0.568778
H341	H	-0.110621	-0.841282	-0.627644
H342	H	-0.147100	-0.797311	-0.576055
H343	H	0.107243	-0.392097	-0.234140
H344	H	-0.449229	0.177371	-0.300885
H345	H	0.413839	-0.532573	0.042316
H346	H	0.001660	-0.441639	-0.159184
O347	O	-0.273345	0.020181	-0.145217
C348	C	-0.246160	-0.060075	-0.166555
H349	H	-0.245245	-0.085233	-0.203576
H350	H	-0.295675	-0.113277	-0.148597
C351	C	-0.151939	-0.010990	-0.118645
C352	C	-0.150807	-0.041885	-0.164115
H353	H	-0.093123	0.000228	-0.117138
H354	H	-0.170257	0.043079	-0.104267
H355	H	-0.193206	-0.055330	-0.103685
H356	H	-0.109550	0.002460	-0.179073
H357	H	-0.132481	-0.095946	-0.178495
H358	H	-0.297145	0.029698	-0.274103
O359	O	0.255370	-0.488928	-0.029240
C360	C	0.253889	-0.497653	0.011136
H361	H	0.257910	-0.429575	0.037968
H362	H	0.314075	-0.522029	0.004264
C363	C	0.160599	-0.649835	-0.004679
C364	C	0.165530	-0.566221	0.028278
H365	H	0.106098	-0.692134	0.005895
H366	H	0.161599	-0.643959	-0.031882
H367	H	0.210759	-0.670136	-0.010403
H368	H	0.115378	-0.545917	0.033997
H369	H	0.164520	-0.572096	0.055483
O370	O	-0.532399	0.053523	0.351399
C371	C	-0.534069	0.130920	0.388987
H372	H	-0.464774	0.181784	0.383635
H373	H	-0.551799	0.111456	0.421057
C374	C	-0.690658	0.110576	0.400531
C375	C	-0.605550	0.173051	0.393955
H376	H	-0.734753	0.136563	0.403597
H377	H	-0.689535	0.058430	0.375208
H378	H	-0.705420	0.094362	0.427255
H379	H	-0.590784	0.189256	0.367229
H380	H	-0.606672	0.225201	0.419274
H381	H	0.718963	-0.692464	-0.005731
O382	O	0.097545	-0.296181	-0.276264
C383	C	0.161696	-0.272536	-0.253620
H384	H	0.167349	-0.336059	-0.251394
H385	H	0.139381	-0.226738	-0.217968
C386	C	0.247339	-0.144746	-0.282788
C387	C	0.254287	-0.222767	-0.280057
H388	H	0.304452	-0.114043	-0.299093
H389	H	0.204117	-0.160674	-0.298041
H390	H	0.228739	-0.106592	-0.253076
H391	H	0.272875	-0.260925	-0.309768
H392	H	0.297514	-0.206845	-0.264809
O393	O	0.407408	-0.539052	-0.452098
C394	C	0.321740	-0.523677	-0.426683
H395	H	0.294828	-0.508594	-0.448382
H396	H	0.327935	-0.463892	-0.395345
C397	C	0.289204	-0.626544	-0.385287
C398	C	0.256146	-0.608026	-0.411941
H399	H	0.248742	-0.678572	-0.376192
H400	H	0.346921	-0.636900	-0.402408
H401	H	0.294365	-0.576717	-0.359176
H402	H	0.250996	-0.657849	-0.438054
H403	H	0.198426	-0.597681	-0.394823
O404	O	0.510564	-0.230411	-0.027660
C405	C	0.568449	-0.277781	-0.065270
H406	H	0.534901	-0.316880	-0.093485
H407	H	0.582417	-0.326672	-0.054733
C408	C	0.699334	-0.162641	-0.047817
C409	C	0.658133	-0.210658	-0.082473
H410	H	0.754657	-0.121238	-0.058428
H411	H	0.660336	-0.130728	-0.022478
H412	H	0.710965	-0.203393	-0.039040
H413	H	0.646492	-0.169908	-0.091246
H414	H	0.697131	-0.242563	-0.107814
H415	H	-0.489994	0.175891	0.311254
O416	O	0.709377	-0.427441	-0.009911
C417	C	0.734837	-0.376156	0.030011
H418	H	0.743205	-0.422269	0.044612
H419	H	0.680328	-0.341704	0.055921
C420	C	0.814698	-0.247747	0.000960
C421	C	0.824983	-0.304383	0.018892
H422	H	0.870302	-0.203471	-0.005897
H423	H	0.797543	-0.282296	-0.025935
H424	H	0.769271	-0.219046	0.022555
H425	H	0.870401	-0.333091	-0.002704
H426	H	0.842148	-0.269836	0.045784
H427	H	0.001650	-0.679613	-0.278166
H428	H	0.550886	-0.383867	-0.081621
H429	H	-0.724884	0.094041	0.248327
H430	H	0.245727	-0.224039	-0.533582
O431	O	0.237853	-0.216284	-0.033688
C432	C	0.160920	-0.213656	0.004674
H433	H	0.173282	-0.225156	0.032713
H434	H	0.100006	-0.268589	-0.004818
C435	C	0.127287	-0.106922	-0.012916
C436	C	0.142473	-0.121038	0.021524
H437	H	0.115905	-0.049793	-0.002523
H438	H	0.179117	-0.108695	-0.038763
H439	H	0.076527	-0.152706	-0.020823
H440	H	0.193239	-0.075262	0.029426
H441	H	0.090652	-0.119256	0.047372
O442	O	-0.132972	-0.620359	-0.262946
C443	C	-0.197165	-0.643984	-0.285561
H444	H	-0.168586	-0.605669	-0.311971
H445	H	-0.261589	-0.625933	-0.259947
C446	C	-0.253965	-0.792993	-0.276754
C447	C	-0.218861	-0.745939	-0.309194
H448	H	-0.267352	-0.855884	-0.291330
H449	H	-0.210719	-0.777076	-0.261516
H450	H	-0.307648	-0.777940	-0.255411
H451	H	-0.165173	-0.760984	-0.330533
H452	H	-0.262098	-0.761862	-0.324436
H453	H	-0.048809	-0.224052	-0.886301
H454	H	-0.740818	0.102779	0.123104
O455	O	-0.049204	-0.216238	-0.390138
C456	C	0.027481	-0.141415	-0.392510
H457	H	0.083735	-0.155127	-0.387530
H458	H	0.009238	-0.079266	-0.364801
C459	C	-0.009195	-0.108271	-0.445375
C460	C	0.059901	-0.125116	-0.439263
H461	H	0.010802	-0.098213	-0.474214
H462	H	-0.060861	-0.158679	-0.443776
H463	H	-0.024390	-0.056483	-0.422281
H464	H	0.075087	-0.176910	-0.462353
H465	H	0.111570	-0.074716	-0.440867
H466	H	-0.490116	0.084434	0.126151
O467	O	-0.036871	-0.489044	-0.383227
C468	C	-0.111427	-0.544280	-0.358521
H469	H	-0.167353	-0.508720	-0.338214
H470	H	-0.089665	-0.558142	-0.334369
C471	C	-0.078025	-0.677602	-0.416531
C472	C	-0.146719	-0.633930	-0.391592
H473	H	-0.099793	-0.732904	-0.436930
H474	H	-0.027794	-0.640389	-0.433175
H475	H	-0.059897	-0.689145	-0.396400
H476	H	-0.164837	-0.622378	-0.411723
H477	H	-0.196954	-0.671144	-0.374952
O478	O	-0.153818	-0.530207	-0.308117
C479	C	-0.210224	-0.472209	-0.289035
H480	H	-0.170661	-0.400768	-0.274600
H481	H	-0.270791	-0.495672	-0.260725
C482	C	-0.292057	-0.561410	-0.343662
C483	C	-0.243463	-0.473664	-0.325936
H484	H	-0.312565	-0.562310	-0.366423
H485	H	-0.254058	-0.600487	-0.356517
H486	H	-0.342524	-0.580953	-0.320066
H487	H	-0.192992	-0.454127	-0.349531
H488	H	-0.281455	-0.434584	-0.313086
O489	O	-0.519748	-0.048385	0.156161
C490	C	-0.480667	-0.001266	0.123180
H491	H	-0.429285	0.064006	0.134762
H492	H	-0.535743	0.014928	0.118499
C493	C	-0.496096	-0.140010	0.063606
C494	C	-0.432982	-0.059845	0.077829
H495	H	-0.466685	-0.176145	0.035631
H496	H	-0.522429	-0.171756	0.085826
H497	H	-0.541988	-0.126503	0.059709
H498	H	-0.387098	-0.073352	0.081732
H499	H	-0.406640	-0.028102	0.055609
H500	H	-0.503619	0.071273	-0.373665
O501	O	0.454046	-0.686020	-0.511644
C502	C	0.419424	-0.624204	-0.513940
H503	H	0.477729	-0.569747	-0.528210
H504	H	0.378678	-0.591935	-0.478494
C505	C	0.286274	-0.740716	-0.527527
C506	C	0.357886	-0.673836	-0.545057
H507	H	0.248311	-0.771330	-0.546720
H508	H	0.309597	-0.782363	-0.525978
H509	H	0.252329	-0.713815	-0.497989
H510	H	0.391835	-0.700738	-0.574592
H511	H	0.334567	-0.632194	-0.546611
H512	H	-0.434254	-0.059305	0.203012
O513	O	-0.762008	0.090359	-0.380466
C514	C	-0.718322	0.167741	-0.395996
H515	H	-0.643678	0.189804	-0.398303
H516	H	-0.750734	0.224284	-0.371302
C517	C	-0.819330	0.118986	-0.440367
C518	C	-0.727649	0.146080	-0.443205
H519	H	-0.825086	0.105626	-0.469487
H520	H	-0.848765	0.066854	-0.429903
H521	H	-0.846330	0.166109	-0.419787
H522	H	-0.700654	0.098953	-0.463780
H523	H	-0.698210	0.198204	-0.453673
H524	H	-0.365918	0.157102	-0.260160
H525	H	0.718758	-0.692512	-0.505593
H526	H	0.550810	-0.383955	-0.581575
O527	O	0.709247	-0.427503	-0.509827
C528	C	0.734704	-0.376202	-0.469906
H529	H	0.743054	-0.422306	-0.455292
H530	H	0.680203	-0.341733	-0.444004
C531	C	0.814600	-0.247823	-0.498979
C532	C	0.824863	-0.304447	-0.481031
H533	H	0.870212	-0.203558	-0.505840
H534	H	0.797447	-0.282384	-0.525873
H535	H	0.769179	-0.219107	-0.477391
H536	H	0.870274	-0.333170	-0.502621
H537	H	0.842026	-0.269890	-0.454140
O538	O	0.001399	-0.427502	-0.655920
C539	C	0.080528	-0.376202	-0.642823
H540	H	0.136296	-0.411652	-0.664341
H541	H	0.066193	-0.368710	-0.605514
C542	C	0.042500	-0.238859	-0.623420
C543	C	0.110998	-0.282395	-0.649851
H544	H	0.061294	-0.180992	-0.627752
H545	H	-0.010813	-0.273420	-0.632242
H546	H	0.030561	-0.232624	-0.592331
H547	H	0.122928	-0.288639	-0.680939
H548	H	0.164314	-0.247833	-0.641034
H549	H	-0.123559	-0.467696	-0.693740
O550	O	-0.744826	0.080623	-0.244372
C551	C	-0.821987	0.006453	-0.240933
H552	H	-0.815525	-0.047521	-0.275000
H553	H	-0.884827	0.029211	-0.231080
C554	C	-0.838053	0.033894	-0.162627
C555	C	-0.830112	-0.032401	-0.204468
H556	H	-0.843068	0.009929	-0.140132
H557	H	-0.786070	0.083866	-0.164943
H558	H	-0.890419	0.052853	-0.154422
H559	H	-0.777741	-0.051350	-0.212675
H560	H	-0.882086	-0.082377	-0.202153
O561	O	-0.592553	-0.077748	-0.221430
C562	C	-0.678239	-0.126240	-0.227938
H563	H	-0.681213	-0.117277	-0.259187
H564	H	-0.732745	-0.099946	-0.196886
C565	C	-0.690537	-0.237846	-0.196398
C566	C	-0.694187	-0.226843	-0.234782
H567	H	-0.700377	-0.299902	-0.200618
H568	H	-0.632810	-0.205174	-0.192012
H569	H	-0.735959	-0.215928	-0.170526
H570	H	-0.648758	-0.248750	-0.260652
H571	H	-0.751907	-0.259520	-0.239172
H572	H	-0.669612	-0.046576	-0.265443
