data_functionalizedCrystal
_audit_creation_method	'MofGen! by Chris Wilmer'
_symmetry_space_group_name_H-M	'P1'
_symmetry_Int_Tables_number	1
_symmetry_cell_setting	triclinic
loop_
_symmetry_equiv_pos_as_xyz
  x,y,z
_cell_length_a	16.109301
_cell_length_b	17.019234
_cell_length_c	14.586319
_cell_angle_alpha	86.114909
_cell_angle_beta	89.999213
_cell_angle_gamma	83.423909
loop_
_atom_site_label
_atom_site_type_symbol
_atom_site_fract_x
_atom_site_fract_y
_atom_site_fract_z
O1	O	1.103032	0.101396	-0.084191
O2	O	0.860957	0.114015	-0.085202
O3	O	0.988756	-0.007131	-0.075620
O4	O	0.975233	0.222542	-0.093772
O5	O	0.988748	-0.007132	0.076861
O6	O	0.860949	0.114013	0.067279
O7	O	1.103023	0.101394	0.068290
Cu8	Cu	0.981985	0.107704	0.081707
Cu9	Cu	0.981995	0.107706	-0.098619
O10	O	0.975224	0.222540	0.058709
C11	C	0.829979	0.113503	-0.008923
C12	C	0.737685	0.111970	-0.008807
C13	C	0.988242	-0.036521	0.002941
C14	C	0.986712	-0.124092	0.009856
C15	C	0.515346	0.180292	-0.014196
C16	C	0.428627	0.178846	-0.014076
C17	C	0.448641	0.035111	-0.002720
C18	C	0.535359	0.036558	-0.002834
C19	C	0.568708	0.109151	-0.008577
C20	C	0.395272	0.106258	-0.008343
C21	C	0.301248	0.104690	-0.008213
C22	C	0.662739	0.110720	-0.008705
C23	C	0.977985	-0.619369	0.053096
C24	C	0.979431	-0.537087	0.046603
C25	C	0.980165	-0.495938	-0.039763
C26	C	0.979445	-0.537073	-0.119641
C27	C	0.977993	-0.619352	-0.113147
C28	C	0.984541	-0.247507	-0.063528
C29	C	0.985995	-0.165222	-0.070016
C30	C	0.985979	-0.165242	0.096229
C31	C	0.984533	-0.247523	0.102715
C32	C	0.983809	-0.288651	0.022837
C33	C	0.981644	-0.411833	-0.046402
C34	C	0.982323	-0.372753	0.029477
C35	C	1.134002	0.101906	-0.007991
C36	C	1.226296	0.103439	-0.008112
C37	C	0.975738	0.251930	-0.019855
C38	C	0.977268	0.339501	-0.026776
N39	N	0.981984	0.107702	0.208539
N40	N	0.982003	0.107701	-0.225450
C41	C	1.038592	0.054076	0.447787
C42	C	1.038594	0.054074	0.543769
C43	C	0.925389	0.161329	0.535295
C44	C	0.925384	0.161327	0.439316
C45	C	0.981989	0.107701	0.395564
C46	C	0.981998	0.107702	0.587525
C47	C	0.982000	0.107700	0.691592
C48	C	0.981986	0.107702	0.291490
H49	H	0.385182	0.236777	-0.018651
H50	H	0.977391	-0.652867	0.123425
H51	H	0.879287	0.204995	0.396792
H52	H	0.986568	-0.131747	0.161261
H53	H	1.084683	0.010410	0.412167
H54	H	0.879303	0.204991	0.570927
H55	H	0.982247	-0.378321	-0.116721
H56	H	0.542496	0.239402	-0.018866
O57	O	0.587167	-0.032574	0.002463
C58	C	0.572055	-0.076655	-0.073014
H59	H	0.542361	-0.035003	-0.131502
H60	H	0.527961	-0.122309	-0.051554
C61	C	0.691695	-0.170560	-0.033606
C62	C	0.655230	-0.119401	-0.105445
H63	H	0.742999	-0.196931	-0.053610
H64	H	0.701874	-0.140864	0.017247
H65	H	0.654942	-0.208598	-0.015729
H66	H	0.691978	-0.081359	-0.123313
H67	H	0.645059	-0.149092	-0.156302
H68	H	0.983940	-0.281022	0.173044
H69	H	0.986592	-0.131720	-0.140349
H70	H	1.084684	0.010407	0.586286
O71	O	0.416105	-0.035333	0.002805
C72	C	0.328123	-0.021357	0.001721
H73	H	0.307680	0.040210	-0.032010
H74	H	0.303986	-0.025178	0.075175
C75	C	0.317346	-0.159713	-0.011693
C76	C	0.292237	-0.084098	-0.053129
H77	H	0.295208	-0.198416	-0.045523
H78	H	0.376621	-0.169130	-0.010959
H79	H	0.297230	-0.162886	0.049517
H80	H	0.312362	-0.080923	-0.114334
H81	H	0.232964	-0.074682	-0.053875
H82	H	0.980027	-0.503605	0.111644
H83	H	0.983959	-0.280983	-0.128571
O84	O	0.977173	-0.659214	-0.190795
C85	C	0.905543	-0.630149	-0.243638
H86	H	0.882616	-0.567417	-0.224963
H87	H	0.854322	-0.670171	-0.228938
C88	C	0.955616	-0.706126	-0.369381
C89	C	0.927462	-0.629075	-0.346449
H90	H	0.969135	-0.705466	-0.432800
H91	H	1.003874	-0.725710	-0.333779
H92	H	0.912928	-0.739469	-0.357124
H93	H	0.970154	-0.595736	-0.358695
H94	H	0.879212	-0.609485	-0.382055
H95	H	0.981721	-0.406260	0.099795
H96	H	0.980038	-0.503562	-0.189962
