data_functionalizedCrystal
_audit_creation_method	'MofGen! by Chris Wilmer'
_symmetry_space_group_name_H-M	'P1'
_symmetry_Int_Tables_number	1
_symmetry_cell_setting	triclinic
loop_
_symmetry_equiv_pos_as_xyz
  x,y,z
_cell_length_a	18.101395
_cell_length_b	13.033409
_cell_length_c	13.032268
_cell_angle_alpha	74.837427
_cell_angle_beta	82.853748
_cell_angle_gamma	82.861786
loop_
_atom_site_label
_atom_site_type_symbol
_atom_site_fract_x
_atom_site_fract_y
_atom_site_fract_z
Zn1	Zn	-0.469367	1.547287	0.393936
Zn2	Zn	-0.579256	1.569703	0.216343
Zn3	Zn	-0.441512	1.392249	0.238943
Zn4	Zn	-0.579228	1.369621	0.416494
O5	O	-0.517341	1.469715	0.316429
O6	O	-0.495613	1.698880	0.351480
O7	O	-0.549338	1.565015	0.070712
O8	O	-0.341584	1.412903	0.259521
O9	O	-0.576348	1.715349	0.221003
O10	O	-0.362049	1.526809	0.373394
O11	O	-0.448139	1.434640	0.087316
O12	O	-0.448112	1.240628	0.281394
O13	O	-0.576301	1.374337	0.562131
O14	O	-0.549291	1.224003	0.411841
O15	O	-0.495586	1.504868	0.545558
O16	O	-0.682876	1.543074	0.242876
O17	O	-0.682855	1.396074	0.389926
C18	C	-0.495677	1.193780	0.351518
C19	C	-0.486428	1.075731	0.366555
C20	C	-0.512616	0.909248	0.324143
C21	C	-0.522176	1.031259	0.308597
C22	C	-0.709738	1.469577	0.316416
C23	C	-0.792057	1.469610	0.316434
C24	C	-1.091170	1.469836	0.316461
C25	C	-1.059894	1.377512	0.409161
C26	C	-0.974225	1.377156	0.408953
C27	C	-0.942777	1.469724	0.316449
C28	C	-0.962760	1.453645	0.208364
C29	C	-1.048402	1.453054	0.208924
C30	C	-1.070580	1.578544	0.330838
C31	C	-0.985070	1.577571	0.333377
C32	C	-0.858910	1.469663	0.316434
C33	C	-1.175036	1.469895	0.316468
C34	C	-0.324197	1.469880	0.316462
C35	C	-0.241890	1.469950	0.316476
C36	C	-0.539047	1.434578	0.593460
C37	C	-0.548297	1.419605	0.711514
C38	C	-0.539091	1.746727	0.281204
C39	C	-0.548359	1.864773	0.266193
C40	C	-0.495670	1.504776	0.040469
C41	C	-0.486228	1.519955	-0.077611
C42	C	-0.512485	1.477513	0.755946
C43	C	-0.522045	1.462039	0.877961
H44	H	-0.448748	1.023484	0.427685
C45	C	-1.097843	1.670017	0.240687
C46	C	-1.175571	1.673266	0.242247
C47	C	-1.200717	1.757517	0.159227
H48	H	-1.074740	1.659471	0.174206
H49	H	-1.085288	1.735518	0.249807
H50	H	-1.188119	1.607780	0.233119
H51	H	-1.198694	1.683826	0.308709
H52	H	-1.188162	1.823019	0.168347
H53	H	-1.177609	1.746964	0.092752
H54	H	-1.253459	1.759739	0.160280
C55	C	-1.078200	1.270408	0.398164
C56	C	-1.155882	1.269891	0.403348
C57	C	-1.172773	1.171253	0.393202
H58	H	-1.059179	1.214975	0.454445
H59	H	-1.055992	1.259289	0.331467
H60	H	-1.178081	1.280997	0.470037
H61	H	-1.174920	1.325301	0.347070
H62	H	-1.150565	1.160134	0.326505
H63	H	-1.153748	1.115828	0.449485
H64	H	-1.225481	1.170892	0.396708
H65	H	-0.586043	0.917024	0.205077
C66	C	-0.936260	1.269281	0.397971
C67	C	-0.897044	1.221207	0.487127
C68	C	-0.862070	1.121822	0.477050
H69	H	-0.902418	1.278845	0.335127
H70	H	-0.972985	1.224899	0.393520
H71	H	-0.860323	1.265578	0.491567
H72	H	-0.930869	1.211615	0.549983
H73	H	-0.898796	1.077440	0.472599
H74	H	-0.828233	1.131397	0.414204
H75	H	-0.835464	1.089187	0.537544
H76	H	-0.961167	1.385568	0.489543
C77	C	-0.462101	1.558746	0.686116
C78	C	-0.404974	1.506678	0.630068
C79	C	-0.358552	1.581480	0.565721
H80	H	-0.440795	1.593114	0.729686
H81	H	-0.490672	1.610432	0.636898
H82	H	-0.376407	1.455011	0.679280
H83	H	-0.426259	1.472315	0.586477
H84	H	-0.387123	1.633167	0.516503
H85	H	-0.337251	1.615844	0.609300
H86	H	-0.319790	1.546165	0.527678
C87	C	-0.598734	1.338299	0.781082
C88	C	-0.671718	1.364738	0.751205
C89	C	-0.718199	1.289855	0.815254
H90	H	-0.598568	1.338643	0.853849
H91	H	-0.580926	1.269218	0.772010
H92	H	-0.689521	1.433801	0.760287
H93	H	-0.671906	1.364386	0.678448
H94	H	-0.700391	1.220773	0.806182
H95	H	-0.718028	1.290205	0.888018
H96	H	-0.767723	1.307778	0.794985
H97	H	-0.559863	1.083506	0.247476
C98	C	-0.923305	1.349428	0.189126
C99	C	-0.976596	1.283021	0.181978
C100	C	-0.940280	1.187011	0.164249
H101	H	-0.894363	1.314908	0.246689
H102	H	-0.891469	1.363867	0.124368
H103	H	-1.008418	1.268579	0.246729
H104	H	-1.005540	1.317506	0.124415
H105	H	-0.908445	1.201450	0.099491
H106	H	-0.911339	1.152501	0.221815
H107	H	-0.976432	1.141946	0.159387
C108	C	-1.097860	1.388270	0.517121
C109	C	-1.068747	1.304955	0.597782
C110	C	-1.103701	1.314840	0.697251
H111	H	-1.150149	1.384974	0.518926
H112	H	-1.089017	1.454788	0.528082
H113	H	-1.077596	1.238454	0.586824
H114	H	-1.016463	1.308235	0.596011
H115	H	-1.094858	1.381359	0.708213
H116	H	-1.155988	1.311546	0.699045
H117	H	-1.083948	1.258320	0.751992
C118	C	-1.075209	1.539861	0.114616
C119	C	-1.014293	1.592610	0.057387
C120	C	-1.038951	1.672565	-0.029506
H121	H	-1.111038	1.589585	0.139809
H122	H	-1.097419	1.508583	0.069286
H123	H	-0.992094	1.623888	0.102709
H124	H	-0.978458	1.542915	0.032169
H125	H	-1.061162	1.641287	-0.074837
H126	H	-1.074781	1.722282	-0.004304
H127	H	-0.997623	1.708359	-0.068352
H128	H	-1.060095	1.374013	0.195085
C129	C	-0.462484	0.839619	0.405818
C130	C	-0.489061	0.853197	0.507461
C131	C	-0.442905	0.789063	0.582731
H132	H	-0.412894	0.859659	0.388251
H133	H	-0.462749	0.766854	0.405507
H134	H	-0.488788	0.925946	0.507770
H135	H	-0.538646	0.833150	0.525062
H136	H	-0.443170	0.716298	0.582420
H137	H	-0.393316	0.809109	0.565154
H138	H	-0.460934	0.798259	0.651705
H139	H	-0.941975	1.519400	0.138037
H140	H	-1.100596	1.595976	0.407558
C141	C	-0.969096	1.593996	0.439458
C142	C	-1.036312	1.600637	0.504413
C143	C	-1.021627	1.615727	0.602161
H144	H	-0.945970	1.658225	0.427298
H145	H	-0.936671	1.535481	0.473874
H146	H	-1.068724	1.659148	0.470005
H147	H	-1.059447	1.536418	0.516603
H148	H	-0.989202	1.557211	0.636577
H149	H	-0.998500	1.679955	0.589991
H150	H	-1.067229	1.620225	0.646249
C151	C	-0.957349	1.672485	0.248274
C152	C	-0.901343	1.636227	0.178245
C153	C	-0.875795	1.723628	0.099818
H154	H	-0.937621	1.718716	0.281245
H155	H	-0.997740	1.710130	0.209590
H156	H	-0.860959	1.598599	0.216923
H157	H	-0.921053	1.590008	0.145247
H158	H	-0.916186	1.761273	0.061135
H159	H	-0.856071	1.769853	0.132799
H160	H	-0.837797	1.699038	0.052289
H161	H	-0.559779	1.400994	0.930249
H162	H	-0.448483	1.580987	0.870104
