data_functionalizedCrystal
_audit_creation_method	'MofGen! by Chris Wilmer'
_symmetry_space_group_name_H-M	'P1'
_symmetry_Int_Tables_number	1
_symmetry_cell_setting	triclinic
loop_
_symmetry_equiv_pos_as_xyz
  x,y,z
_cell_length_a	12.827893
_cell_length_b	12.827892
_cell_length_c	17.077396
_cell_angle_alpha	89.975123
_cell_angle_beta	89.982577
_cell_angle_gamma	90.015363
loop_
_atom_site_label
_atom_site_type_symbol
_atom_site_fract_x
_atom_site_fract_y
_atom_site_fract_z
Zn1	Zn	1.597652	-0.416034	-0.443819
Zn2	Zn	1.597552	-0.590796	-0.312561
Zn3	Zn	1.422899	-0.416070	-0.312572
Zn4	Zn	1.422879	-0.590733	-0.443789
O5	O	1.510246	-0.503408	-0.378185
O6	O	1.743875	-0.439228	-0.426415
O7	O	1.574350	-0.567660	-0.202716
O8	O	1.446131	-0.269829	-0.329998
O9	O	1.743801	-0.567625	-0.329981
O10	O	1.574522	-0.269803	-0.426425
O11	O	1.446033	-0.439289	-0.202723
O12	O	1.276660	-0.439228	-0.329970
O13	O	1.446097	-0.567518	-0.553640
O14	O	1.276646	-0.567553	-0.426375
O15	O	1.574502	-0.439167	-0.553662
O16	O	1.574330	-0.737024	-0.329952
O17	O	1.445999	-0.736978	-0.426365
C18	C	1.238736	-0.503388	-0.378171
C19	C	1.122583	-0.503405	-0.378183
C20	C	0.950790	-0.440001	-0.425989
C21	C	1.070840	-0.439982	-0.425977
C22	C	1.510180	-0.774918	-0.378171
C23	C	1.510248	-0.891071	-0.378192
C24	C	1.573826	-0.942844	-0.330537
C25	C	1.573897	-1.062895	-0.330556
C26	C	1.782816	-0.503429	-0.378200
C27	C	1.898969	-0.503438	-0.378206
C28	C	1.510309	-0.503331	-0.582930
C29	C	1.510336	-0.503299	-0.670179
C30	C	1.510340	-0.230838	-0.378216
C31	C	1.510380	-0.114685	-0.378230
C32	C	1.577199	-0.436461	-0.711182
C33	C	1.577211	-0.436426	-0.793163
C34	C	1.510365	-0.503235	-0.834139
C35	C	1.443495	-0.570076	-0.793131
C36	C	1.443478	-0.570105	-0.711152
C37	C	1.443537	-0.570013	-0.964001
C38	C	1.443555	-0.569986	-1.045985
C39	C	1.577270	-0.436334	-1.046012
C40	C	1.577253	-0.436363	-0.964033
C41	C	1.510384	-0.503206	-0.923030
C42	C	1.510243	-0.503410	-0.174237
C43	C	1.510418	-0.503148	-0.086988
H44	H	1.115405	-0.385667	-0.466881
H45	H	1.631691	-0.381967	-0.930672
C46	C	1.436839	-1.054553	-0.433353
C47	C	1.318041	-1.069567	-0.426881
C48	C	1.244500	-1.009426	-0.482004
C49	C	1.289757	-0.934272	-0.543599
C50	C	1.408561	-0.919255	-0.550074
C51	C	1.482102	-0.979395	-0.494951
H52	H	1.284533	-1.125204	-0.381282
H53	H	1.156553	-1.020543	-0.477211
H54	H	1.235317	-0.889752	-0.584405
H55	H	1.442069	-0.863618	-0.595673
H56	H	1.570049	-0.968278	-0.499744
C57	C	1.647294	-0.882666	-0.275399
C58	C	1.601951	-0.807694	-0.213780
C59	C	1.675423	-0.747517	-0.158642
C60	C	1.794239	-0.762314	-0.165122
C61	C	1.839588	-0.837290	-0.226744
C62	C	1.766116	-0.897466	-0.281882
H63	H	1.513991	-0.796737	-0.208980
H64	H	1.641852	-0.692015	-0.113026
H65	H	1.848627	-0.717768	-0.124306
H66	H	1.927548	-0.848246	-0.231543
H67	H	1.799687	-0.952968	-0.327498
H68	H	0.906279	-0.385708	-0.466908
C69	C	1.369971	-0.643584	-0.838195
C70	C	1.251171	-0.635068	-0.826915
C71	C	1.177653	-0.708588	-0.871975
C72	C	1.222933	-0.790623	-0.928315
C73	C	1.341739	-0.799142	-0.939597
C74	C	1.415258	-0.725622	-0.894538
H75	H	1.217647	-0.574338	-0.785207
H76	H	1.089704	-0.702281	-0.863623
H77	H	1.168510	-0.845047	-0.961671
H78	H	1.375264	-0.859873	-0.981306
H79	H	1.503206	-0.731929	-0.902890
H80	H	1.389021	-0.624520	-0.677768
H81	H	1.078024	-0.557716	-0.337272
C82	C	1.650731	-0.362968	-0.666111
C83	C	1.642243	-0.244165	-0.677397
C84	C	1.715775	-0.170668	-0.632328
C85	C	1.797795	-0.215973	-0.575975
C86	C	1.806287	-0.334782	-0.564687
C87	C	1.732755	-0.408279	-0.609755
H88	H	1.581524	-0.210622	-0.719115
H89	H	1.709488	-0.082717	-0.640685
H90	H	1.852228	-0.161566	-0.542613
H91	H	1.867006	-0.368325	-0.522969
H92	H	1.739042	-0.496230	-0.601399
H93	H	0.943480	-0.557741	-0.337294
H94	H	1.455874	-0.935623	-0.419009
C95	C	1.650764	-0.362900	-0.838262
C96	C	1.769557	-0.371447	-0.827003
C97	C	1.843111	-0.297914	-0.872100
C98	C	1.797872	-0.215835	-0.928456
C99	C	1.679073	-0.207285	-0.939717
C100	C	1.605519	-0.280818	-0.894620
H101	H	1.803050	-0.432209	-0.785283
H102	H	1.931054	-0.304243	-0.863763
H103	H	1.852321	-0.161402	-0.961839
H104	H	1.645580	-0.146523	-0.981438
H105	H	1.517576	-0.274489	-0.902957
H106	H	1.628325	-1.107418	-0.289755
C107	C	1.650826	-0.362800	-1.091108
C108	C	1.732863	-0.408067	-1.147473
C109	C	1.806421	-0.334540	-1.192572
C110	C	1.797942	-0.215746	-1.181306
C111	C	1.715901	-0.170473	-1.124939
C112	C	1.642343	-0.244000	-1.079840
H113	H	1.739143	-0.496012	-1.155815
H114	H	1.867153	-0.368055	-1.234299
H115	H	1.852393	-0.161317	-1.214691
H116	H	1.709621	-0.082529	-1.116597
H117	H	1.581612	-0.210485	-1.038113
C118	C	1.370062	-0.643512	-1.091062
C119	C	1.296530	-0.717058	-1.045964
C120	C	1.223056	-0.790604	-1.091041
C121	C	1.223114	-0.790605	-1.181214
C122	C	1.296648	-0.717056	-1.226317
C123	C	1.370122	-0.643510	-1.181240
H124	H	1.296484	-0.717060	-0.979208
H125	H	1.168620	-0.845050	-1.057653
H126	H	1.168724	-0.845048	-1.214583
H127	H	1.296694	-0.717054	-1.293073
H128	H	1.424558	-0.589064	-1.214628
H129	H	1.389069	-0.624427	-0.930619
