data_functionalizedCrystal
_audit_creation_method	'MofGen! by Chris Wilmer'
_symmetry_space_group_name_H-M	'P1'
_symmetry_Int_Tables_number	1
_symmetry_cell_setting	triclinic
loop_
_symmetry_equiv_pos_as_xyz
  x,y,z
_cell_length_a	27.732048
_cell_length_b	10.654554
_cell_length_c	9.130313
_cell_angle_alpha	90.001106
_cell_angle_beta	89.993449
_cell_angle_gamma	96.435301
loop_
_atom_site_label
_atom_site_type_symbol
_atom_site_fract_x
_atom_site_fract_y
_atom_site_fract_z
O1	O	-0.067894	1.664977	-0.121726
O2	O	-0.074359	1.299227	-0.121736
O3	O	-0.000801	1.493461	-0.121750
O4	O	-0.141453	1.470742	-0.121712
O5	O	-0.000803	1.493459	0.121849
O6	O	-0.074361	1.299225	0.121863
O7	O	-0.067896	1.664974	0.121873
Cu8	Cu	-0.071129	1.482099	0.144110
Cu9	Cu	-0.071127	1.482102	-0.143974
O10	O	-0.141455	1.470740	0.121887
C11	C	-0.073885	1.252448	0.000061
C12	C	-0.072464	1.113065	0.000056
C13	C	-0.114440	0.900792	0.000081
C14	C	-0.115776	1.031757	0.000070
C15	C	-0.027812	1.063402	0.000039
C16	C	-0.026477	0.932439	0.000039
C17	C	-0.157755	0.819490	0.000109
C18	C	-0.202406	0.869144	0.000124
C19	C	-0.203742	1.000109	0.000113
C20	C	-0.160427	1.081420	0.000087
C21	C	-0.159464	1.471218	0.000092
C22	C	-0.213127	1.472654	0.000107
C23	C	-0.551283	1.366915	0.000033
C24	C	-0.752976	1.372243	0.000016
O25	O	-0.783629	1.275552	-0.000051
N26	N	-0.772818	1.487416	0.000021
C27	C	-0.742233	1.601265	0.000021
O28	O	-0.763737	1.699349	0.000010
C29	C	-0.540541	1.595935	0.000028
C30	C	-0.520702	1.480755	0.000038
C31	C	-0.531444	1.251744	0.000041
C32	C	-0.481024	1.250413	0.000053
C33	C	-0.450443	1.364253	0.000058
C34	C	-0.470282	1.479424	0.000050
C35	C	-0.509957	1.709783	0.000018
C36	C	-0.459531	1.708440	0.000016
C37	C	-0.439693	1.593260	0.000025
C38	C	-0.389281	1.591934	0.000067
N39	N	-0.369439	1.476761	0.000061
C40	C	-0.400020	1.362921	0.000057
C41	C	-0.848124	1.604055	0.000021
C42	C	-0.898547	1.605387	0.000022
C43	C	-0.909287	1.376365	0.000013
C44	C	-0.858863	1.375034	0.000023
C45	C	-0.828283	1.488882	0.000015
C46	C	-0.294134	1.360135	0.000084
C47	C	-0.243708	1.358814	0.000102
C48	C	-0.232973	1.587836	0.000103
C49	C	-0.283394	1.589157	0.000092
C50	C	-0.313973	1.475296	0.000078
O51	O	-0.358599	1.688573	0.000117
O52	O	-0.378506	1.264851	0.000035
C53	C	-0.601704	1.368246	0.000021
C54	C	-0.621543	1.483417	0.000013
C55	C	-0.590962	1.597257	0.000017
C56	C	-0.671966	1.484749	0.000014
C57	C	-0.702547	1.370909	0.000009
C58	C	-0.682705	1.255736	0.000004
C59	C	-0.632285	1.254406	0.000016
C60	C	-0.610803	1.712430	0.000023
C61	C	-0.661224	1.713751	0.000012
C62	C	-0.691805	1.599911	0.000008
C63	C	0.017208	1.492983	0.000041
C64	C	0.070872	1.491547	0.000017
C65	C	-0.068370	1.711753	0.000072
C66	C	-0.069792	1.851137	0.000068
N67	N	-0.071130	1.482106	0.346733
N68	N	-0.071121	1.482105	-0.346596
C69	C	-0.038570	1.568135	0.423379
C70	C	-0.038564	1.568131	0.576716
C71	C	-0.103684	1.396067	0.576747
C72	C	-0.103687	1.396066	0.423413
C73	C	-0.006013	1.654175	0.346698
C74	C	0.026550	1.740212	0.423344
C75	C	0.026555	1.740208	0.576681
C76	C	-0.006002	1.654169	0.653372
H77	H	-0.240099	1.040533	0.000112
Cl78	Cl	0.029653	0.870009	0.000037
Cl79	Cl	-0.162108	1.246063	0.000056
H80	H	-0.464876	1.156622	0.000048
Cl81	Cl	-0.218772	1.214005	0.000117
H82	H	-0.934195	1.283672	0.000016
H83	H	-0.005991	1.654165	0.778229
H84	H	-0.842714	1.281244	0.000037
Cl85	Cl	-0.144611	1.287915	0.673158
H86	H	-0.914695	1.699179	0.000037
Cl87	Cl	0.026637	1.165621	0.000016
H88	H	-0.526101	1.803575	0.000009
H89	H	-0.823229	1.696769	0.000017
H90	H	-0.130200	1.326012	0.361008
Cl91	Cl	-0.421090	1.851574	0.000001
H92	H	-0.299547	1.682946	0.000105
H93	H	-0.556339	1.159036	0.000032
H94	H	-0.156672	0.712849	0.000124
Cl95	Cl	-0.332569	1.216993	0.000071
Cl96	Cl	-0.194519	1.730941	0.000118
Cl97	Cl	-0.006021	1.654188	0.153933
H98	H	-0.616137	1.160614	0.000025
Cl99	Cl	-0.256856	0.766928	0.000136
H100	H	-0.707613	1.163044	0.000010
H101	H	-0.677372	1.807552	0.000016
Cl102	Cl	-0.572366	1.855559	0.000034
Cl103	Cl	0.067480	1.848359	0.326937
H104	H	0.053072	1.810254	0.639085
