data_functionalizedCrystal
_audit_creation_method	'MofGen! by Chris Wilmer'
_symmetry_space_group_name_H-M	'P1'
_symmetry_Int_Tables_number	1
_symmetry_cell_setting	triclinic
loop_
_symmetry_equiv_pos_as_xyz
  x,y,z
_cell_length_a	10.968094
_cell_length_b	10.066323
_cell_length_c	10.967829
_cell_angle_alpha	110.819284
_cell_angle_beta	92.752454
_cell_angle_gamma	110.761672
loop_
_atom_site_label
_atom_site_type_symbol
_atom_site_fract_x
_atom_site_fract_y
_atom_site_fract_z
O1	O	-1.697661	-0.254146	0.134270
O2	O	-1.319116	-0.157546	0.166509
O3	O	-1.524468	-0.254155	-0.038929
O4	O	-1.492309	-0.157536	0.339708
O5	O	-1.563599	-0.499580	-0.078254
O6	O	-1.358247	-0.402971	0.127184
O7	O	-1.736793	-0.499571	0.094945
Zn8	Zn	-1.553733	-0.490237	0.104821
Zn9	Zn	-1.502175	-0.166879	0.156633
O10	O	-1.531440	-0.402961	0.300383
C11	C	-1.290347	-0.268745	0.147473
C12	C	-1.146327	-0.234442	0.149325
C13	C	-1.544650	-0.388381	-0.106936
C14	C	-1.546472	-0.422682	-0.250988
C15	C	-1.765561	-0.388368	0.113981
C16	C	-1.909579	-0.422662	0.112131
C17	C	-0.953529	-0.310827	0.131680
C18	C	-1.102383	-0.346293	0.129773
N19	N	-1.588929	-0.710923	0.069459
C20	C	-1.514404	-0.743596	0.144331
C21	C	-1.541526	-0.913535	0.117101
N22	N	-1.466990	0.053801	0.191984
C23	C	-1.527013	-0.310835	-0.294833
C24	C	-1.528896	-0.346284	-0.443717
C25	C	-1.511257	-0.268733	0.368391
C26	C	-1.509434	-0.234422	0.512444
H27	H	-1.174953	-0.468305	0.111618
H28	H	-1.430525	-0.645760	0.228597
H29	H	-0.982154	-0.544665	0.093977
H30	H	-1.491364	-0.112409	-0.414872
H31	H	-1.564517	-0.544679	-0.323673
C32	C	-1.653292	-1.043825	0.004562
C33	C	-1.629827	-1.032059	-0.116304
C34	C	-1.732761	-1.152043	-0.220000
H35	H	-1.656755	-1.140794	0.001005
H36	H	-1.735577	-1.036207	0.019757
H37	H	-1.547564	-1.039690	-0.131496
H38	H	-1.626378	-0.935116	-0.112792
H39	H	-1.815047	-1.144426	-0.204805
H40	H	-1.736216	-1.249004	-0.223544
H41	H	-1.716861	-1.144068	-0.302018
H42	H	-0.880957	-0.188827	0.149820
C43	C	-1.049357	-0.071830	0.173573
C44	C	-0.920987	-0.068962	0.170691
C45	C	-0.831622	0.080811	0.193042
H46	H	-1.074734	-0.042679	0.106178
H47	H	-1.050423	-0.001325	0.258106
H48	H	-0.919925	-0.139443	0.086170
H49	H	-0.895568	-0.098083	0.238085
H50	H	-0.832688	0.151315	0.277574
H51	H	-0.857012	0.109948	0.125643
H52	H	-0.744511	0.082780	0.191101
C53	C	-1.700970	-0.841302	-0.042747
C54	C	-1.822037	-0.829743	-0.019902
C55	C	-1.925281	-0.949828	-0.123232
H56	H	-1.685440	-0.833696	-0.124949
H57	H	-1.704424	-0.938219	-0.046117
H58	H	-1.818582	-0.732850	-0.016546
H59	H	-1.837610	-0.837367	0.062280
H60	H	-1.928736	-1.046745	-0.126603
H61	H	-1.909738	-0.942213	-0.205428
H62	H	-2.007438	-0.942010	-0.107740
H63	H	-1.383106	-0.848364	0.276255
C64	C	-1.552926	-0.509053	-0.540401
C65	C	-1.570482	-0.605361	-0.471092
C66	C	-1.592603	-0.755304	-0.560110
H67	H	-1.630428	-0.548049	-0.606340
H68	H	-1.478500	-0.506442	-0.581847
H69	H	-1.644901	-0.607977	-0.429668
H70	H	-1.492993	-0.566415	-0.405160
H71	H	-1.518178	-0.752693	-0.601556
H72	H	-1.670104	-0.794284	-0.626045
H73	H	-1.604506	-0.820663	-0.513096
H74	H	-1.508954	-0.188834	-0.222146
