data_functionalizedCrystal
_audit_creation_method	'MofGen! by Chris Wilmer'
_symmetry_space_group_name_H-M	'P1'
_symmetry_Int_Tables_number	1
_symmetry_cell_setting	triclinic
loop_
_symmetry_equiv_pos_as_xyz
  x,y,z
_cell_length_a	11.026607
_cell_length_b	9.730223
_cell_length_c	11.026607
_cell_angle_alpha	90.000053
_cell_angle_beta	108.586017
_cell_angle_gamma	90.000202
loop_
_atom_site_label
_atom_site_type_symbol
_atom_site_fract_x
_atom_site_fract_y
_atom_site_fract_z
O1	O	1.726725	0.114287	0.533617
O2	O	1.360145	0.114289	0.472853
O3	O	1.513053	0.114283	0.319945
O4	O	1.573817	0.114292	0.686525
O5	O	1.513052	-0.114297	0.319949
O6	O	1.360144	-0.114291	0.472857
O7	O	1.726724	-0.114293	0.533621
Zn8	Zn	1.543433	-0.150584	0.503240
Zn9	Zn	1.543435	0.150580	0.503234
O10	O	1.573815	-0.114288	0.686529
C11	C	1.312485	-0.000001	0.461645
C12	C	1.170471	-0.000000	0.428228
N13	N	1.543442	-0.356121	0.503245
C14	C	1.116821	0.000003	0.520498
C15	C	0.970043	0.000004	0.485962
C16	C	1.611178	-0.428049	0.435571
C17	C	1.611171	-0.571932	0.435555
C18	C	1.475690	-0.571945	0.570897
C19	C	1.475690	-0.428065	0.570905
C20	C	1.678929	-0.356105	0.367912
C21	C	1.746672	-0.428034	0.300233
C22	C	1.746665	-0.571917	0.300217
C23	C	1.678916	-0.643871	0.367879
C24	C	1.774384	-0.000001	0.544828
C25	C	1.916398	0.000007	0.578245
C26	C	1.501843	-0.000005	0.272287
C27	C	1.468426	-0.000000	0.130273
N28	N	1.543435	0.356116	0.503221
C29	C	1.560695	0.000001	0.076624
C30	C	1.526160	0.000006	-0.070155
C31	C	1.585026	0.000004	0.734187
C32	C	1.618443	0.000008	0.876200
H33	H	1.179555	-0.000002	0.625061
H34	H	1.723013	0.000110	-0.061072
F35	F	1.697370	0.000008	0.158615
H36	H	1.801813	-0.630480	0.245101
F37	F	1.403595	-0.648527	0.642905
F38	F	1.403593	-0.351512	0.642928
H39	H	1.363863	0.000009	0.067540
F40	F	1.088480	-0.000013	0.291554
H41	H	0.907314	0.000037	0.381393
H42	H	1.678905	-0.761030	0.367850
H43	H	0.979125	0.000001	0.682816
H44	H	1.421590	0.000016	-0.132884
F45	F	1.678945	-0.202973	0.367929
H46	H	1.801823	-0.369441	0.245137
