data_functionalizedCrystal
_audit_creation_method	'MofGen! by Chris Wilmer'
_symmetry_space_group_name_H-M	'P1'
_symmetry_Int_Tables_number	1
_symmetry_cell_setting	triclinic
loop_
_symmetry_equiv_pos_as_xyz
  x,y,z
_cell_length_a	12.970454
_cell_length_b	17.052862
_cell_length_c	12.970454
_cell_angle_alpha	89.999706
_cell_angle_beta	59.999776
_cell_angle_gamma	50.259530
loop_
_atom_site_label
_atom_site_type_symbol
_atom_site_fract_x
_atom_site_fract_y
_atom_site_fract_z
Zr1	Zr	0.765897	0.914391	0.046006
O2	O	1.041091	0.762834	-0.148671
O3	O	0.532382	0.960852	0.105685
O4	O	0.747471	0.960853	-0.109405
O5	O	0.826003	0.762831	0.236086
O6	O	0.685526	1.117054	-0.078433
O7	O	0.826002	0.762833	0.066420
O8	O	0.300770	1.117052	0.306325
O9	O	1.210758	0.762834	-0.148672
O10	O	0.566765	1.097238	0.154251
O11	O	0.612995	0.980666	0.257757
O12	O	0.866234	0.980668	0.004516
O13	O	0.912464	0.864096	0.108021
Zr14	Zr	0.667104	1.163512	0.366002
Zr15	Zr	0.667102	1.163514	0.095403
Zr16	Zr	0.765899	0.914390	0.316604
Zr17	Zr	1.036497	0.914391	0.046004
Zr18	Zr	0.396504	1.163512	0.366003
O19	O	0.900620	1.117052	0.306322
O20	O	0.900616	1.117054	-0.078434
O21	O	1.041094	0.762831	0.236085
O22	O	0.391910	1.315070	0.560678
O23	O	0.391907	1.315072	0.175922
O24	O	0.532385	0.960849	0.490441
O25	O	0.606998	1.315072	0.175921
O26	O	0.685530	1.117051	0.521413
O27	O	0.747476	0.960849	0.490440
O28	O	0.607000	1.315071	0.345587
O29	O	1.132229	0.960853	-0.109407
O30	O	0.300772	1.117050	0.521414
O31	O	0.222243	1.315070	0.560679
O32	O	0.222241	1.315071	0.345589
O33	O	1.210760	0.762833	0.066418
O34	O	1.132231	0.960852	0.105682
O35	O	0.566767	1.097236	0.407492
O36	O	0.520537	1.213808	0.303986
O37	O	0.820006	1.097238	0.154250
O38	O	0.866236	0.980666	0.257756
C39	C	0.378021	1.038952	0.206005
C40	C	0.263145	1.038952	0.206006
C41	C	0.840079	0.727337	0.144215
C42	C	0.882020	0.621578	0.123244
C43	C	0.374949	0.566860	0.376776
C44	C	0.335538	0.666229	0.396474
C45	C	0.472155	0.655072	0.328169
C46	C	0.648190	0.544535	0.240161
C47	C	0.687606	0.445157	0.220453
C48	C	0.784811	0.533369	0.171846
C49	C	0.960847	0.422832	0.083839
C50	C	1.000254	0.323466	0.064135
C51	C	0.863638	0.334623	0.132440
C52	C	0.745395	0.632746	0.191554
C53	C	1.058052	0.511043	0.035231
C54	C	1.097463	0.411675	0.015534
C55	C	1.054980	1.038952	0.206002
C56	C	1.169857	1.038952	0.206001
C57	C	0.716498	1.038954	-0.132473
C58	C	0.716497	1.038955	-0.247349
C59	C	0.592923	1.350566	0.267792
C60	C	0.550981	1.456326	0.288763
C61	C	0.716503	1.038950	0.544481
C62	C	0.716504	1.038949	0.659357
C63	C	0.254443	1.350566	0.267794
C64	C	0.097625	1.456326	0.288765
C65	C	0.378024	1.038950	0.544482
C66	C	0.263148	1.038949	0.659359
C67	C	0.254446	1.350564	0.606271
C68	C	0.097629	1.456323	0.742118
C69	C	1.178555	0.727340	-0.194264
C70	C	1.335372	0.621581	-0.330111
C71	C	1.178558	0.727337	0.144213
C72	C	1.335376	0.621578	0.123242
C73	C	1.054977	1.038954	-0.132475
C74	C	1.169853	1.038955	-0.247352
C75	C	0.048113	1.445143	0.220442
C76	C	-0.099216	1.544505	0.240120
C77	C	-0.197036	1.655049	0.328128
C78	C	-0.147512	1.666230	0.396452
C79	C	-0.000179	1.566869	0.376767
C80	C	-0.000150	1.566848	0.751887
C81	C	-0.147485	1.666228	0.879521
C82	C	-0.197045	1.655082	0.997385
C83	C	-0.099252	1.544545	0.987612
C84	C	0.048088	1.445167	0.859979
C85	C	1.433164	0.511056	-0.339879
C86	C	1.580533	0.411675	-0.467514
C87	C	1.630099	0.422822	-0.585378
C88	C	1.532298	0.533359	-0.575605
C89	C	1.384940	0.632737	-0.447972
C90	C	1.384900	0.632761	0.191554
C91	C	1.532258	0.533399	0.171847
C92	C	1.630082	0.422855	0.083834
C93	C	1.580553	0.411674	0.015515
C94	C	1.433204	0.511035	0.035215
H95	H	0.602065	0.722738	0.263220
H96	H	1.572675	0.542421	-0.671585
H97	H	-0.227178	1.756248	0.468109
O98	O	1.773240	0.326160	-0.709250
C99	C	1.848935	0.226223	-0.692580
H100	H	1.745203	0.249053	-0.588419
H101	H	1.899193	0.156035	-0.774676
H102	H	1.963614	0.192768	-0.701167
O103	O	-0.340336	1.751648	0.347500
C104	C	-0.491627	1.818209	0.485756
H105	H	-0.450435	1.796500	0.549663
H106	H	-0.582116	1.914604	0.517382
H107	H	-0.564670	1.797347	0.502020
O108	O	1.773412	0.326309	0.064480
C109	C	1.924690	0.259715	-0.073788
H110	H	1.901417	0.318044	-0.123140
H111	H	2.042656	0.219486	-0.083087
H112	H	1.952326	0.187767	-0.126943
O113	O	1.385336	0.500005	-0.225533
C114	C	1.503256	0.381133	-0.261553
H115	H	1.633666	0.328147	-0.368384
H116	H	1.527363	0.367288	-0.186894
H117	H	1.444094	0.351840	-0.258505
O118	O	-0.242325	1.773507	0.888754
C119	C	-0.166963	1.762022	0.757350
H120	H	-0.087330	1.673342	0.682229
H121	H	-0.276187	1.833281	0.756426
H122	H	-0.076434	1.770157	0.727139
H123	H	1.660223	0.321656	-0.056145
O124	O	0.433568	0.751715	0.347508
C125	C	0.248903	0.851669	0.439807
H126	H	0.183089	0.828859	0.505169
H127	H	0.213031	0.921846	0.507532
H128	H	0.201263	0.885127	0.381360
H129	H	0.263735	0.575929	0.432375
H130	H	1.392891	0.501914	-0.020412
H131	H	-0.317023	1.736011	1.101304
O132	O	0.143292	1.337717	0.850258
C133	C	0.283943	1.252379	0.712341
H134	H	0.315836	1.291075	0.648445
H135	H	0.405117	1.175750	0.698359
H136	H	0.244613	1.221307	0.678694
O137	O	0.164456	0.773508	0.482051
C138	C	0.052326	0.762050	0.538088
H139	H	0.126244	0.673379	0.533599
H140	H	-0.068401	0.833324	0.648230
H141	H	0.008463	0.770184	0.477752
H142	H	0.040178	1.575946	0.655930
H143	H	1.660142	0.321681	-0.475445
H144	H	1.305318	0.722729	-0.440034
H145	H	1.305261	0.722763	0.263229
H146	H	0.895717	0.253714	0.116413
H147	H	1.143595	0.233464	-0.007538
H148	H	1.572558	0.542525	0.227489
H149	H	1.240793	0.321664	-0.056124
O150	O	1.190562	0.500398	-0.030969
C151	C	1.118027	0.611808	0.005276
H152	H	0.978294	0.677672	0.107603
H153	H	1.202878	0.610717	0.012639
H154	H	1.114257	0.637125	-0.075104
H155	H	0.127756	1.355141	0.148763
H156	H	-0.139516	1.535379	0.184478
H157	H	0.040114	1.575990	0.432414
H158	H	-0.139627	1.535486	1.083595
