data_functionalizedCrystal
_audit_creation_method	'MofGen! by Chris Wilmer'
_symmetry_space_group_name_H-M	'P1'
_symmetry_Int_Tables_number	1
_symmetry_cell_setting	triclinic
loop_
_symmetry_equiv_pos_as_xyz
  x,y,z
_cell_length_a	10.654550
_cell_length_b	22.610064
_cell_length_c	10.654550
_cell_angle_alpha	89.995731
_cell_angle_beta	84.484931
_cell_angle_gamma	90.005063
loop_
_atom_site_label
_atom_site_type_symbol
_atom_site_fract_x
_atom_site_fract_y
_atom_site_fract_z
O1	O	1.667850	0.049140	0.176382
O2	O	1.302371	0.049151	0.193188
O3	O	1.493514	0.049142	0.002046
O4	O	1.476708	0.049150	0.367524
O5	O	1.493480	-0.049227	0.002074
O6	O	1.302337	-0.049218	0.193216
O7	O	1.667816	-0.049229	0.176410
Zn8	Zn	1.485071	-0.064842	0.184817
Zn9	Zn	1.485116	0.064764	0.184781
O10	O	1.476674	-0.049220	0.367552
C11	C	1.255556	-0.000032	0.191968
C12	C	1.116113	-0.000028	0.188276
N13	N	1.485050	-0.153294	0.184842
C14	C	1.036628	-0.000027	0.300818
C15	C	0.905607	-0.000038	0.297341
C16	C	0.933570	-0.000047	0.068772
C17	C	1.064588	-0.000041	0.072250
C18	C	1.569758	-0.561940	0.100156
C19	C	1.569764	-0.623860	0.100147
O20	O	1.641732	-0.655882	0.028162
N21	N	1.485115	-0.654831	0.184755
C22	C	1.400445	-0.623880	0.269368
O23	O	1.328444	-0.655909	0.341332
C24	C	1.400433	-0.561961	0.269370
C25	C	1.485097	-0.530993	0.184766
C26	C	1.654413	-0.530971	0.015557
C27	C	1.654408	-0.469056	0.015568
C28	C	1.569748	-0.438108	0.100178
C29	C	1.485092	-0.469077	0.184777
C30	C	1.315759	-0.531011	0.353977
C31	C	1.315754	-0.469088	0.353971
C32	C	1.400417	-0.438119	0.269366
C33	C	1.400426	-0.376214	0.269397
N34	N	1.485075	-0.345243	0.184790
C35	C	1.569736	-0.376190	0.100180
C36	C	1.400474	-0.753914	0.269356
C37	C	1.400490	-0.815831	0.269361
C38	C	1.569808	-0.815807	0.100138
C39	C	1.569797	-0.753888	0.100140
C40	C	1.485123	-0.722942	0.184748
C41	C	1.569720	-0.246162	0.100210
C42	C	1.569711	-0.184241	0.100232
C43	C	1.400389	-0.184271	0.269450
C44	C	1.400402	-0.246187	0.269433
C45	C	1.485072	-0.277131	0.184803
O46	O	1.328491	-0.344153	0.341342
O47	O	1.641714	-0.344153	0.028217
C48	C	1.714631	-0.000044	0.177630
C49	C	1.854074	-0.000045	0.181322
C50	C	1.492263	-0.000043	-0.044738
C51	C	1.488571	-0.000042	-0.184181
N52	N	1.485147	0.153216	0.184747
C53	C	1.601112	-0.000045	-0.263667
C54	C	1.597636	-0.000037	-0.394688
C55	C	1.369066	-0.000026	-0.366725
C56	C	1.372544	-0.000029	-0.235706
C57	C	1.477925	-0.000034	0.414336
C58	C	1.481616	-0.000031	0.553779
H59	H	1.078574	-0.000021	0.395294
Cl60	Cl	1.746974	-0.000058	-0.198897
Cl61	Cl	1.209317	-0.569930	0.460339
H62	H	0.891602	-0.000061	-0.025693
H63	H	0.840894	-0.000038	0.388984
Cl64	Cl	1.676154	-0.145313	-0.006134
Cl65	Cl	1.676166	-0.285053	-0.006182
Cl66	Cl	1.739124	-0.000040	-0.494608
H67	H	1.638742	-0.841015	0.031242
H68	H	1.274601	-0.000017	-0.408693
Cl69	Cl	1.231051	-0.000020	-0.135774
Cl70	Cl	1.760838	-0.430131	-0.090804
Cl71	Cl	1.294026	-0.715016	0.375742
H72	H	1.331463	-0.159064	0.338342
H73	H	1.723354	-0.556163	-0.053348
Cl74	Cl	1.676232	-0.714963	-0.006227
H75	H	1.129309	-0.000043	-0.019401
Cl76	Cl	1.294069	-0.854756	0.375742
H77	H	1.246798	-0.443895	0.422868
H78	H	1.331474	-0.271402	0.338338
