data_functionalizedCrystal
_audit_creation_method	'MofGen! by Chris Wilmer'
_symmetry_space_group_name_H-M	'P1'
_symmetry_Int_Tables_number	1
_symmetry_cell_setting	triclinic
loop_
_symmetry_equiv_pos_as_xyz
  x,y,z
_cell_length_a	15.995350
_cell_length_b	8.597304
_cell_length_c	7.681481
_cell_angle_alpha	76.508647
_cell_angle_beta	95.727196
_cell_angle_gamma	84.418488
loop_
_atom_site_label
_atom_site_type_symbol
_atom_site_fract_x
_atom_site_fract_y
_atom_site_fract_z
O1	O	1.103074	0.220537	-0.179732
O2	O	0.859297	0.245912	-0.183617
O3	O	0.987852	0.001185	-0.146467
O4	O	0.974518	0.465264	-0.216882
O5	O	1.003676	-0.029006	0.150974
O6	O	0.875120	0.215722	0.113824
O7	O	1.118897	0.190347	0.117709
Zn8	Zn	0.999521	0.198241	0.162992
Zn9	Zn	0.978673	0.238018	-0.228899
O10	O	0.990341	0.435074	0.080559
C11	C	0.836013	0.229769	-0.034742
C12	C	0.743062	0.226626	-0.034279
C13	C	0.995214	-0.073296	0.011260
C14	C	0.993564	-0.250246	0.038097
C15	C	0.405317	0.215329	-0.032528
C16	C	0.452789	0.040972	-0.005420
C17	C	0.549442	0.044186	-0.006580
C18	C	0.572876	0.220932	-0.033395
C19	C	0.522752	0.324137	-0.216285
C20	C	0.426110	0.319771	-0.215750
C21	C	0.443765	0.289041	0.121949
C22	C	0.540829	0.288773	0.124187
C23	C	0.667573	0.224109	-0.033893
C24	C	0.310619	0.212158	-0.032043
C25	C	1.142180	0.206491	-0.031170
C26	C	1.235131	0.209635	-0.031645
C27	C	0.982980	0.509555	-0.077172
C28	C	0.984629	0.686507	-0.104020
N29	N	1.013755	0.171094	0.430447
N30	N	0.964446	0.265153	-0.496353
H31	H	0.978239	-0.232267	-0.246234
C32	C	1.002187	-0.359971	0.230229
H33	H	0.999911	-0.468500	0.223684
H34	H	0.957192	-0.327399	0.290914
H35	H	1.054791	-0.351727	0.294613
H36	H	0.584349	-0.035745	0.125426
H37	H	0.440747	-0.041059	0.126954
C38	C	0.417616	-0.036114	-0.154827
H39	H	0.374128	0.037500	-0.233659
H40	H	0.395152	-0.131833	-0.101846
H41	H	0.461870	-0.061538	-0.221179
C42	C	0.578317	-0.030972	-0.157410
H43	H	0.530951	-0.063575	-0.218225
H44	H	0.619305	-0.122046	-0.106310
H45	H	0.602495	0.046362	-0.240781
C46	C	0.392250	0.252480	-0.374405
H47	H	0.437572	0.228056	-0.438570
H48	H	0.350663	0.330586	-0.453115
H49	H	0.367642	0.157254	-0.329395
C50	C	0.381982	0.493685	-0.252435
H51	H	0.423143	0.566689	-0.267612
H52	H	0.352914	0.505293	-0.153360
H53	H	0.342674	0.516371	-0.359014
H54	H	0.536540	0.454628	-0.242301
C55	C	1.081762	0.041394	0.551711
H56	H	1.111276	-0.014895	0.479067
H57	H	1.055454	-0.032255	0.634817
H58	H	1.120523	0.091330	0.616039
H59	H	0.544403	0.277259	-0.333630
C60	C	0.425279	0.194420	0.307545
H61	H	0.393938	0.109063	0.292553
H62	H	0.393334	0.264605	0.362188
H63	H	0.477165	0.151181	0.382381
C64	C	0.586754	0.186769	0.306799
H65	H	0.625303	0.103188	0.287107
H66	H	0.546410	0.140844	0.379446
H67	H	0.616904	0.253351	0.366490
C68	C	0.562316	0.461484	0.111637
H69	H	0.591236	0.494632	0.009664
H70	H	0.597435	0.463970	0.217996
H71	H	0.511526	0.532416	0.099465
H72	H	0.412063	0.417426	0.103601
C73	C	0.896445	0.394848	0.382384
H74	H	0.897988	0.391879	0.259874
H75	H	0.907230	0.498120	0.396842
H76	H	0.842159	0.374537	0.415601
