data_functionalizedCrystal
_audit_creation_method	'MofGen! by Chris Wilmer'
_symmetry_space_group_name_H-M	'P1'
_symmetry_Int_Tables_number	1
_symmetry_cell_setting	triclinic
loop_
_symmetry_equiv_pos_as_xyz
  x,y,z
_cell_length_a	19.188905
_cell_length_b	19.188930
_cell_length_c	18.266242
_cell_angle_alpha	89.988525
_cell_angle_beta	89.983837
_cell_angle_gamma	83.139668
loop_
_atom_site_label
_atom_site_type_symbol
_atom_site_fract_x
_atom_site_fract_y
_atom_site_fract_z
O1	O	0.926160	0.087085	-0.061010
O2	O	0.722847	0.098838	-0.060986
O3	O	0.830371	-0.008694	-0.060984
O4	O	0.818636	0.194618	-0.061011
O5	O	0.830353	-0.008700	0.060778
O6	O	0.722828	0.098833	0.060776
O7	O	0.926142	0.087080	0.060752
Zn8	Zn	0.824482	0.092955	0.080097
Zn9	Zn	0.824506	0.092963	-0.080330
O10	O	0.818618	0.194612	0.060751
C11	C	0.696826	0.098458	-0.000102
C12	C	0.619321	0.097324	-0.000092
C13	C	0.582939	0.096782	-0.066466
C14	C	0.510115	0.095709	-0.066475
C15	C	0.473678	0.095164	-0.000106
C16	C	0.510068	0.095709	0.066277
C17	C	0.582890	0.096789	0.066284
N18	N	0.364651	0.053733	0.049292
N19	N	0.295474	0.052705	0.049280
C20	C	0.254272	0.091911	-0.000123
N21	N	0.284861	0.132174	-0.049526
N22	N	0.354045	0.133199	-0.049517
C23	C	0.394716	0.093993	-0.000106
C24	C	0.138926	0.090207	-0.066512
C25	C	0.066100	0.089138	-0.066518
C26	C	0.066056	0.089132	0.066236
C27	C	0.138879	0.090207	0.066240
C28	C	0.175310	0.090742	-0.000136
C29	C	0.829982	-0.034708	-0.000101
C30	C	0.828841	-0.112213	-0.000095
C31	C	0.891933	-0.157142	-0.000099
C32	C	0.890861	-0.229966	-0.000110
C33	C	0.826694	-0.257857	-0.000103
C34	C	0.763594	-0.212917	-0.000103
C35	C	0.764668	-0.140095	-0.000099
N36	N	0.777640	-0.365859	0.041341
N37	N	0.776624	-0.435038	0.041338
C38	C	0.823456	-0.477265	-0.000118
N39	N	0.871352	-0.447702	-0.041561
N40	N	0.872369	-0.378517	-0.041556
C41	C	0.825523	-0.336819	-0.000108
C42	C	0.885390	-0.601159	-0.000135
C43	C	0.884315	-0.673984	-0.000151
C44	C	0.757047	-0.656933	-0.000137
C45	C	0.758123	-0.584110	-0.000128
C46	C	0.822296	-0.556228	-0.000124
C47	C	0.952163	0.087460	-0.000134
C48	C	1.029668	0.088594	-0.000148
C49	C	0.819007	0.220626	-0.000134
C50	C	0.820148	0.298131	-0.000145
N51	N	0.824471	0.092950	0.189583
N52	N	0.824523	0.092962	-0.189817
C53	C	0.872098	0.045358	0.227893
C54	C	0.872103	0.045355	0.304538
C55	C	0.824487	0.092956	0.342870
C56	C	0.776851	0.140551	0.304552
C57	C	0.776843	0.140549	0.227908
N58	N	0.815411	0.154764	0.463195
N59	N	0.815423	0.154764	0.536003
C60	C	0.824506	0.092966	0.573793
N61	N	0.833592	0.031165	0.536024
N62	N	0.833584	0.031165	0.463209
C63	C	0.824490	0.092963	0.425977
C64	C	0.872141	0.045366	0.695210
C65	C	0.872141	0.045362	0.771856
C66	C	0.776892	0.140565	0.771868
C67	C	0.776889	0.140563	0.695223
C68	C	0.824517	0.092964	0.656898
H69	H	0.944187	-0.134445	-0.000097
H70	H	0.738058	0.179304	0.196716
O71	O	0.030658	0.088474	0.130691
C72	C	-0.003376	0.027401	0.134657
H73	H	0.024244	-0.014524	0.096994
H74	H	-0.060393	0.040252	0.116823
C75	C	-0.034765	0.051456	0.260216
C76	C	-0.000838	-0.000039	0.213962
H77	H	-0.033203	0.034531	0.309135
H78	H	-0.011838	0.092603	0.257543
H79	H	-0.082276	0.062161	0.245345
H80	H	0.046674	-0.010737	0.228828
H81	H	-0.023757	-0.041189	0.216639
O82	O	0.701245	-0.239974	-0.000225
C83	C	0.662801	-0.216968	-0.063275
H84	H	0.700335	-0.201927	-0.107353
H85	H	0.623744	-0.169386	-0.049014
C86	C	0.576761	-0.294903	-0.037730
C87	C	0.622863	-0.276435	-0.091871
H88	H	0.552123	-0.331584	-0.055368
H89	H	0.602660	-0.310401	0.004749
H90	H	0.544220	-0.255246	-0.025851
H91	H	0.655408	-0.316089	-0.103742
H92	H	0.596968	-0.260945	-0.134353
O93	O	0.918402	-0.000783	0.341840
C94	C	0.961371	0.036506	0.386130
H95	H	0.933390	0.091212	0.397610
H96	H	1.012951	0.041122	0.356568
C97	C	1.010795	-0.070084	0.444838
C98	C	0.976426	-0.002896	0.458943
H99	H	1.020084	-0.094390	0.489751
H100	H	0.981848	-0.095207	0.414997
H101	H	1.053774	-0.066228	0.420201
H102	H	0.933443	-0.006753	0.483571
H103	H	1.005366	0.022226	0.488790
H104	H	0.713289	-0.103513	-0.000096
H105	H	0.704801	-0.679641	-0.000135
H106	H	0.168589	0.090650	-0.120559
O107	O	0.952215	-0.273521	-0.000079
C108	C	1.009085	-0.233296	-0.000096
H109	H	0.991194	-0.178890	0.022958
H110	H	1.028780	-0.228162	-0.058511
C111	C	1.090745	-0.336604	0.019339
C112	C	1.068772	-0.269784	0.047660
H113	H	1.127564	-0.359113	0.048794
H114	H	1.052431	-0.363706	0.019347
H115	H	1.107152	-0.332317	-0.029340
H116	H	1.052357	-0.274073	0.096334
H117	H	1.107084	-0.242684	0.047660
H118	H	0.612511	0.097231	0.120336
H119	H	0.168502	0.090644	0.120290
O120	O	0.947785	-0.574185	-0.000176
C121	C	1.003244	-0.629461	-0.000174
H122	H	0.983826	-0.678867	-0.023226
H123	H	1.022693	-0.639841	0.058236
C124	C	1.087634	-0.548400	-0.019625
C125	C	1.063785	-0.609080	-0.047943
H126	H	1.124979	-0.535828	-0.049088
H127	H	1.050271	-0.511159	-0.019624
H128	H	1.103836	-0.557059	0.029049
H129	H	1.047574	-0.600418	-0.096613
H130	H	1.101146	-0.646320	-0.047954
H131	H	0.935694	-0.710565	-0.000158
H132	H	0.706747	-0.547527	-0.000121
O133	O	0.474876	0.095154	-0.131019
C134	C	0.522644	0.095880	-0.189602
H135	H	0.577510	0.074550	-0.170138
H136	H	0.522888	0.151996	-0.210020
C137	C	0.432990	0.075878	-0.276209
C138	C	0.500377	0.049675	-0.252305
H139	H	0.419254	0.047380	-0.314890
H140	H	0.400807	0.075392	-0.236742
H141	H	0.433202	0.122642	-0.293220
H142	H	0.500161	0.002916	-0.235287
H143	H	0.532559	0.050152	-0.291772
O144	O	0.918288	-0.001071	0.190810
C145	C	0.907044	-0.070085	0.209738
H146	H	0.851109	-0.070155	0.230760
H147	H	0.945724	-0.090628	0.254318
C148	C	0.986768	-0.117544	0.115978
C149	C	0.918067	-0.117630	0.141791
H150	H	0.993570	-0.146873	0.074067
H151	H	0.994346	-0.071048	0.103227
H152	H	1.018994	-0.134661	0.153134
H153	H	0.885843	-0.100505	0.104639
H154	H	0.910484	-0.164124	0.154534
O155	O	0.730602	0.186867	0.658118
C156	C	0.688563	0.228870	0.708383
H157	H	0.717189	0.229587	0.763006
H158	H	0.636769	0.206332	0.716561
C159	C	0.638776	0.303347	0.611369
C160	C	0.673939	0.304232	0.678456
H161	H	0.629752	0.349833	0.592908
H162	H	0.667097	0.275048	0.577504
H163	H	0.595619	0.284562	0.618193
H164	H	0.717099	0.323009	0.671630
H165	H	0.645625	0.332537	0.712319
H166	H	0.738080	0.179308	0.335766
O167	O	0.918426	-0.000941	0.658089
C168	C	0.960472	-0.042943	0.708342
H169	H	0.931853	-0.043658	0.762987
H170	H	1.012268	-0.020406	0.716469
C171	C	1.010242	-0.117424	0.611325
C172	C	0.975089	-0.118307	0.678439
H173	H	1.019262	-0.163911	0.592879
H174	H	0.981917	-0.089125	0.577468
H175	H	1.053401	-0.098640	0.618107
H176	H	0.931928	-0.137082	0.671655
H177	H	1.003408	-0.146610	0.712294
O178	O	0.918313	-0.000942	0.809104
C179	C	0.881066	-0.043915	0.853474
H180	H	0.826008	-0.044959	0.830399
H181	H	0.877342	-0.022055	0.911558
C182	C	0.987407	-0.117695	0.882993
C183	C	0.919786	-0.118982	0.854648
H184	H	1.011293	-0.163998	0.883721
H185	H	1.012502	-0.088741	0.853102
H186	H	0.984294	-0.099475	0.931394
H187	H	0.922900	-0.137193	0.806246
H188	H	0.894693	-0.147940	0.884531
H189	H	0.738119	0.179319	0.803078
O190	O	0.474663	0.095052	0.130729
C191	C	0.440631	0.033978	0.134698
H192	H	0.468256	-0.007949	0.097040
H193	H	0.383615	0.046826	0.116858
C194	C	0.409232	0.058042	0.260252
C195	C	0.443164	0.006544	0.214005
H196	H	0.410791	0.041120	0.309173
H197	H	0.432157	0.099190	0.257579
H198	H	0.361721	0.068743	0.245378
H199	H	0.490676	-0.004151	0.228874
H200	H	0.420247	-0.034607	0.216683
O201	O	0.618375	0.097186	-0.130921
C202	C	0.668618	0.037367	-0.134875
H203	H	0.652325	-0.005217	-0.097207
H204	H	0.721968	0.051855	-0.117038
C205	C	0.693452	0.062279	-0.260435
C206	C	0.673438	0.009974	-0.214175
H207	H	0.696429	0.045383	-0.309351
H208	H	0.659605	0.102582	-0.257771
H209	H	0.737909	0.074348	-0.245562
H210	H	0.628979	-0.002088	-0.229043
H211	H	0.707278	-0.030332	-0.216843
H212	H	0.036479	0.088702	-0.120570
