data_functionalizedCrystal
_audit_creation_method	'MofGen! by Chris Wilmer'
_symmetry_space_group_name_H-M	'P1'
_symmetry_Int_Tables_number	1
_symmetry_cell_setting	triclinic
loop_
_symmetry_equiv_pos_as_xyz
  x,y,z
_cell_length_a	11.792241
_cell_length_b	12.811439
_cell_length_c	11.892095
_cell_angle_alpha	99.337459
_cell_angle_beta	93.917705
_cell_angle_gamma	95.882697
loop_
_atom_site_label
_atom_site_type_symbol
_atom_site_fract_x
_atom_site_fract_y
_atom_site_fract_z
O1	O	0.149065	-1.397031	-0.049198
O2	O	0.168116	-1.089300	-0.017652
O3	O	-0.006654	-1.250634	-0.034198
O4	O	0.323835	-1.235697	-0.032651
O5	O	-0.021193	-1.264096	-0.223586
O6	O	0.153577	-1.102762	-0.207040
O7	O	0.134526	-1.410493	-0.238586
Zn8	Zn	0.141743	-1.258765	-0.252882
Zn9	Zn	0.160899	-1.241028	-0.003355
O10	O	0.309296	-1.249159	-0.222039
C11	C	0.160226	-1.056635	-0.108307
C12	C	0.158363	-0.939246	-0.096274
C13	C	0.138989	-0.733338	-0.280155
C14	C	0.137238	-0.623041	-0.268854
C15	C	0.153101	-0.608354	-0.062372
C16	C	0.154853	-0.718651	-0.073673
C17	C	0.147798	-0.781139	-0.182568
C18	C	0.149557	-0.891437	-0.193868
C19	C	0.165413	-0.876749	0.012613
C20	C	0.163661	-0.766452	0.023914
C21	C	-0.056205	-1.256427	-0.128796
C22	C	-0.182191	-1.253619	-0.128507
C23	C	-0.412851	-1.248454	-0.127959
C24	C	-0.284495	-1.251323	-0.128263
C25	C	0.358847	-1.243366	-0.127439
C26	C	0.484834	-1.246174	-0.127721
C27	C	0.142420	-0.443158	-0.147931
C28	C	0.144295	-0.560546	-0.159966
N29	N	0.173964	-1.228925	0.166940
N30	N	0.128669	-1.270877	-0.423179
C31	C	0.037754	-1.355161	0.390641
C32	C	0.046879	-1.346693	0.509851
C33	C	0.201342	-1.203526	0.524573
C34	C	0.192218	-1.211994	0.405362
C35	C	0.110420	-1.287813	0.338401
C36	C	0.101291	-1.296275	0.219189
C37	C	0.255759	-1.153114	0.233912
C38	C	0.264884	-1.144646	0.353122
H39	H	0.143819	-0.942313	-0.282536
C40	C	0.011320	-1.379670	0.145527
H41	H	0.016283	-1.375063	0.067047
H42	H	0.025112	-1.448877	0.157828
H43	H	-0.062948	-1.366505	0.166253
C44	C	0.131207	-0.802080	-0.399931
H45	H	0.125698	-0.757815	-0.456434
H46	H	0.197718	-0.837742	-0.407859
H47	H	0.065375	-0.853084	-0.409401
C48	C	0.127732	-0.570437	-0.376194
H49	H	0.127745	-0.495793	-0.353870
H50	H	0.190991	-0.583895	-0.419570
H51	H	0.058627	-0.599154	-0.421357
H52	H	-0.028856	-1.416889	0.336120
C53	C	0.335696	-1.079029	0.176445
H54	H	0.318553	-1.094932	0.095857
H55	H	0.324897	-1.007047	0.203221
H56	H	0.412956	-1.089420	0.194792
C57	C	-0.033041	-1.420783	0.567317
H58	H	-0.015884	-1.404892	0.647904
H59	H	-0.110302	-1.410414	0.548972
H60	H	-0.022219	-1.492764	0.540538
H61	H	0.158826	-0.557460	0.026285
H62	H	0.172592	-0.915679	0.092076
C63	C	0.171427	-0.697710	0.143689
H64	H	0.169130	-0.625174	0.136445
H65	H	0.108811	-0.720452	0.183477
H66	H	0.241154	-0.705085	0.185034
H67	H	0.267948	-1.141803	0.579108
C68	C	0.354848	-1.061247	0.426786
H69	H	0.349871	-1.065843	0.505266
H70	H	0.429116	-1.074396	0.406064
H71	H	0.341040	-0.992039	0.414483
