data_functionalizedCrystal
_audit_creation_method	'MofGen! by Chris Wilmer'
_symmetry_space_group_name_H-M	'P1'
_symmetry_Int_Tables_number	1
_symmetry_cell_setting	triclinic
loop_
_symmetry_equiv_pos_as_xyz
  x,y,z
_cell_length_a	16.625546
_cell_length_b	19.805407
_cell_length_c	19.805399
_cell_angle_alpha	90.026078
_cell_angle_beta	89.972133
_cell_angle_gamma	89.978916
loop_
_atom_site_label
_atom_site_type_symbol
_atom_site_fract_x
_atom_site_fract_y
_atom_site_fract_z
Zn1	Zn	-0.321050	-1.034754	-0.382836
Zn2	Zn	0.178950	-0.534754	0.117164
Zn3	Zn	-0.455887	-1.034677	-0.269647
Zn4	Zn	0.044113	-0.534677	0.230353
Zn5	Zn	-0.321069	-0.921569	-0.269648
Zn6	Zn	0.178931	-0.421569	0.230352
Zn7	Zn	-0.455841	-0.921540	-0.382781
Zn8	Zn	0.044159	-0.421540	0.117219
O9	O	-0.388462	-0.978135	-0.326228
O10	O	0.111538	-0.478135	0.173772
O11	O	-0.338948	-1.129461	-0.367844
O12	O	0.161052	-0.629461	0.132156
O13	O	-0.438031	-1.019653	-0.174930
O14	O	0.061969	-0.519653	0.325070
O15	O	-0.208234	-0.936628	-0.284685
O16	O	0.291766	-0.436628	0.215315
O17	O	-0.438012	-1.129404	-0.284684
O18	O	0.061988	-0.629404	0.215316
O19	O	-0.208220	-1.019784	-0.367844
O20	O	0.291780	-0.519784	0.132156
O21	O	-0.338980	-0.936553	-0.174931
O22	O	0.161020	-0.436553	0.325069
O23	O	-0.338935	-0.826849	-0.284632
O24	O	0.161065	-0.326849	0.215368
O25	O	-0.437934	-0.936579	-0.477505
O26	O	0.062066	-0.436579	0.022495
O27	O	-0.437952	-0.826827	-0.367751
O28	O	0.062048	-0.326827	0.132249
O29	O	-0.338903	-1.019757	-0.477545
O30	O	0.161097	-0.519757	0.022455
O31	O	-0.568713	-1.019625	-0.284631
O32	O	-0.068713	-0.519625	0.215369
O33	O	-0.568680	-0.936504	-0.367750
O34	O	-0.068680	-0.436504	0.132250
C35	C	-0.388441	-0.802279	-0.326186
C36	C	0.111559	-0.302279	0.173814
C37	C	-0.388452	-0.727047	-0.326184
C38	C	0.111548	-0.227047	0.173816
C39	C	-0.440107	-0.265263	-0.369460
C40	C	0.059893	0.234737	0.130540
C41	C	-0.440107	-0.335951	-0.369448
C42	C	0.059893	0.164049	0.130552
C43	C	-0.388473	-0.371285	-0.326234
C44	C	0.111527	0.128715	0.173766
C45	C	-0.336843	-0.335927	-0.283025
C46	C	0.163157	0.164073	0.216975
C47	C	-0.336848	-0.265240	-0.283035
C48	C	0.163152	0.234760	0.216965
C49	C	-0.336822	-0.621001	-0.282987
C50	C	0.163178	-0.121001	0.217013
C51	C	-0.336819	-0.691693	-0.282983
C52	C	0.163181	-0.191693	0.217017
C53	C	-0.440081	-0.691712	-0.369400
C54	C	0.059919	-0.191712	0.130600
C55	C	-0.440086	-0.621025	-0.369409
C56	C	0.059914	-0.121025	0.130591
C57	C	-0.388459	-0.585673	-0.326198
C58	C	0.111541	-0.085673	0.173802
C59	C	-0.388461	-0.509024	-0.326211
C60	C	0.111539	-0.009024	0.173789
C61	C	-0.388467	-0.447932	-0.326225
C62	C	0.111533	0.052068	0.173775
C63	C	-0.597953	-0.978071	-0.326199
C64	C	-0.097953	-0.478071	0.173801
C65	C	-0.687574	-0.978106	-0.326210
C66	C	-0.187574	-0.478106	0.173790
C67	C	-1.015749	-0.978224	-0.326280
C68	C	-0.515749	-0.478224	0.173720
C69	C	-0.924441	-0.978189	-0.326263
C70	C	-0.424441	-0.478189	0.173737
C71	C	-0.851664	-0.978164	-0.326245
C72	C	-0.351664	-0.478164	0.173755
C73	C	-0.760350	-0.978130	-0.326228
C74	C	-0.260350	-0.478130	0.173772
C75	C	-0.178153	-0.978218	-0.326271
C76	C	0.321847	-0.478218	0.173729
C77	C	-0.088532	-0.978253	-0.326289
C78	C	0.411468	-0.478253	0.173711
C79	C	-0.388411	-0.978173	-0.502771
C80	C	0.111589	-0.478173	-0.002771
C81	C	-0.388389	-0.978189	-0.578003
C82	C	0.111611	-0.478189	-0.078003
C83	C	-0.388480	-0.154678	-0.326262
C84	C	0.111520	0.345322	0.173738
C85	C	-0.388479	-0.229910	-0.326255
C86	C	0.111521	0.270090	0.173745
C87	C	-0.336822	-1.021501	-0.613369
C88	C	0.163178	-0.521501	-0.113369
C89	C	-0.336798	-1.021508	-0.684057
C90	C	0.163202	-0.521508	-0.184057
C91	C	-0.388347	-0.978206	-0.719378
C92	C	0.111653	-0.478206	-0.219378
C93	C	-0.439917	-0.934890	-0.684007
C94	C	0.060083	-0.434890	-0.184007
C95	C	-0.439936	-0.934880	-0.613320
C96	C	0.060064	-0.434880	-0.113320
C97	C	-0.439842	-0.934928	-0.969081
C98	C	0.060158	-0.434928	-0.469081
C99	C	-0.439821	-0.934942	-1.039773
C100	C	0.060179	-0.434942	-0.539773
C101	C	-0.336704	-1.021556	-1.039818
C102	C	0.163296	-0.521556	-0.539818
C103	C	-0.336723	-1.021546	-0.969131
C104	C	0.163277	-0.521546	-0.469131
C105	C	-0.388290	-0.978227	-0.933766
C106	C	0.111710	-0.478227	-0.433766
C107	C	-0.388313	-0.978219	-0.857117
C108	C	0.111687	-0.478219	-0.357117
C109	C	-0.388328	-0.978217	-0.796025
C110	C	0.111672	-0.478217	-0.296025
C111	C	-0.388454	-0.978136	-0.150372
C112	C	0.111546	-0.478136	0.349628
C113	C	-0.388249	-0.978251	-0.075140
C114	C	0.111751	-0.478251	0.424860
H115	H	-0.294769	-0.720460	-0.247792
H116	H	0.205231	-0.220460	0.252208
H117	H	-0.294809	-1.056778	-0.712849
H118	H	0.205191	-0.556778	-0.212849
F119	F	-0.495033	-0.729341	-0.415386
F120	F	0.004967	-0.229341	0.084614
H121	H	-0.294749	-1.056809	-0.940376
H122	H	0.205251	-0.556809	-0.440376
F123	F	-0.495059	-0.373573	-0.415430
F124	F	0.004941	0.126427	0.084570
F125	F	-0.494724	-0.888824	-0.931451
F126	F	0.005276	-0.388824	-0.431451
F127	F	-0.494819	-0.888780	-0.575681
F128	F	0.005181	-0.388780	-0.075681
F129	F	-0.281893	-0.373534	-0.237032
F130	F	0.218107	0.126466	0.262968
H131	H	-0.481886	-0.899630	-0.712771
H132	H	0.018114	-0.399630	-0.212771
H133	H	-0.294804	-0.236457	-0.247855
H134	H	0.205196	0.263543	0.252145
F135	F	-0.495060	-0.227664	-0.415457
F136	F	0.004940	0.272336	0.084543
F137	F	-0.281869	-0.583386	-0.237003
F138	F	0.218131	-0.083386	0.262997
H139	H	-0.482128	-0.592259	-0.404600
H140	H	0.017872	-0.092259	0.095400
F141	F	-0.281959	-1.067593	-0.575784
F142	F	0.218041	-0.567593	-0.075784
F143	F	-0.281819	-1.067658	-1.077462
F144	F	0.218181	-0.567658	-0.577462
H145	H	-0.481800	-0.899678	-1.068529
H146	H	0.018200	-0.399678	-0.568529
