data_functionalizedCrystal
_audit_creation_method	'MofGen! by Chris Wilmer'
_symmetry_space_group_name_H-M	'P1'
_symmetry_Int_Tables_number	1
_symmetry_cell_setting	triclinic
loop_
_symmetry_equiv_pos_as_xyz
  x,y,z
_cell_length_a	21.295417
_cell_length_b	17.639617
_cell_length_c	21.295411
_cell_angle_alpha	78.751768
_cell_angle_beta	89.978356
_cell_angle_gamma	101.214475
loop_
_atom_site_label
_atom_site_type_symbol
_atom_site_fract_x
_atom_site_fract_y
_atom_site_fract_z
Zn1	Zn	-0.056424	1.208573	-0.550846
Zn2	Zn	0.276909	1.541907	-0.217513
Zn3	Zn	0.610242	1.875240	0.115820
Zn4	Zn	-0.161696	1.208451	-0.445552
Zn5	Zn	0.171638	1.541784	-0.112219
Zn6	Zn	0.504971	1.875117	0.221115
Zn7	Zn	-0.077675	1.076362	-0.424266
Zn8	Zn	0.255658	1.409695	-0.090933
Zn9	Zn	0.588991	1.743028	0.242400
Zn10	Zn	-0.182916	1.076323	-0.529472
Zn11	Zn	0.150417	1.409656	-0.196139
Zn12	Zn	0.483750	1.742990	0.137194
O13	O	-0.119678	1.142427	-0.487534
O14	O	0.213655	1.475761	-0.154201
O15	O	0.546989	1.809094	0.179132
O16	O	-0.052614	1.319184	-0.554732
O17	O	0.280719	1.652517	-0.221399
O18	O	0.614053	1.985851	0.111935
O19	O	-0.150563	1.190894	-0.354633
O20	O	0.182770	1.524227	-0.021300
O21	O	0.516104	1.857560	0.312033
O22	O	0.013244	1.093967	-0.441095
O23	O	0.346577	1.427300	-0.107761
O24	O	0.679911	1.760634	0.225572
O25	O	-0.129957	1.319094	-0.477373
O26	O	0.203377	1.652427	-0.144039
O27	O	0.536710	1.985761	0.189294
O28	O	0.028857	1.191103	-0.534092
O29	O	0.362190	1.524436	-0.200759
O30	O	0.695524	1.857769	0.132574
O31	O	-0.088834	1.093848	-0.338995
O32	O	0.244500	1.427182	-0.005662
O33	O	0.577833	1.760515	0.327672
O34	O	-0.109410	0.965729	-0.420369
O35	O	0.223923	1.299063	-0.087036
O36	O	0.557256	1.632396	0.246298
O37	O	-0.166124	1.093902	-0.620403
O38	O	0.167209	1.427235	-0.287069
O39	O	0.500543	1.760568	0.046264
O40	O	-0.186731	0.965701	-0.497663
O41	O	0.146603	1.299035	-0.164330
O42	O	0.479936	1.632368	0.169003
O43	O	-0.073191	1.191065	-0.636106
O44	O	0.260142	1.524399	-0.302773
O45	O	0.593476	1.857732	0.030561
O46	O	-0.252611	1.190856	-0.456647
O47	O	0.080722	1.524190	-0.123314
O48	O	0.414056	1.857523	0.210020
O49	O	-0.268202	1.093783	-0.518303
O50	O	0.065132	1.427116	-0.184970
O51	O	0.398465	1.760449	0.148364
C52	C	-0.152680	0.937031	-0.454388
C53	C	0.180654	1.270364	-0.121054
C54	C	0.513987	1.603698	0.212279
C55	C	-0.166813	0.849162	-0.440222
C56	C	0.166520	1.182495	-0.106889
C57	C	0.499854	1.515828	0.226445
C58	C	-0.012294	0.560376	-0.595303
C59	C	0.321039	0.893709	-0.261970
C60	C	0.654372	1.227043	0.071364
C61	C	-0.025591	0.477809	-0.581980
C62	C	0.307743	0.811143	-0.248646
C63	C	0.641076	1.144476	0.084687
C64	C	-0.105994	0.477737	-0.501310
C65	C	0.227340	0.811071	-0.167976
C66	C	0.560673	1.144404	0.165357
C67	C	-0.092706	0.560306	-0.514628
C68	C	0.240627	0.893639	-0.181295
C69	C	0.573960	1.226972	0.152038
C70	C	-0.045855	0.601619	-0.561625
C71	C	0.287478	0.934952	-0.228292
C72	C	0.620811	1.268285	0.105041
C73	C	-0.126268	0.601548	-0.480950
C74	C	0.207066	0.934882	-0.147617
C75	C	0.540399	1.268215	0.185716
C76	C	-0.112979	0.684110	-0.494266
C77	C	0.220355	1.017443	-0.160933
C78	C	0.553688	1.350776	0.172401
C79	C	-0.066129	0.725428	-0.541259
C80	C	0.267205	1.058761	-0.207926
C81	C	0.600538	1.392095	0.125407
C82	C	-0.032567	0.684180	-0.574941
C83	C	0.300767	1.017513	-0.241607
C84	C	0.634100	1.350846	0.091726
C85	C	-0.173115	0.560234	-0.433951
C86	C	0.160218	0.893567	-0.100617
C87	C	0.493552	1.226901	0.232716
C88	C	-0.206676	0.601477	-0.400273
C89	C	0.126657	0.934810	-0.066939
C90	C	0.459990	1.268143	0.266394
C91	C	-0.193391	0.684039	-0.413591
C92	C	0.139943	1.017373	-0.080258
C93	C	0.473276	1.350706	0.253076
C94	C	-0.146541	0.725358	-0.460585
C95	C	0.186793	1.058691	-0.127251
C96	C	0.520126	1.392025	0.206082
C97	C	-0.226953	0.725288	-0.379910
C98	C	0.106380	1.058621	-0.046576
C99	C	0.439714	1.391954	0.286757
C100	C	-0.213664	0.807849	-0.393225
C101	C	0.119669	1.141182	-0.059892
C102	C	0.453003	1.474516	0.273441
C103	C	-0.133252	0.807919	-0.473900
C104	C	0.200081	1.141252	-0.140567
C105	C	0.533415	1.474586	0.192767
C106	C	-0.283246	1.142324	-0.487483
C107	C	0.050087	1.475657	-0.154149
C108	C	0.383420	1.808990	0.179184
C109	C	-0.353210	1.142352	-0.487493
C110	C	-0.019877	1.475685	-0.154160
C111	C	0.313457	1.809018	0.179173
C112	C	-0.377930	1.192943	-0.455438
C113	C	-0.044597	1.526276	-0.122104
C114	C	0.288736	1.859609	0.211229
C115	C	-0.443667	1.192980	-0.455458
C116	C	-0.110334	1.526313	-0.122124
C117	C	0.223000	1.859646	0.211209
C118	C	-0.484683	1.142412	-0.487525
C119	C	-0.151349	1.475745	-0.154191
C120	C	0.181984	1.809078	0.179142
C121	C	-0.459955	1.091817	-0.519588
C122	C	-0.126622	1.425150	-0.186254
C123	C	0.206712	1.758484	0.147079
C124	C	-0.394218	1.091787	-0.519572
C125	C	-0.060885	1.425120	-0.186239
C126	C	0.272448	1.758454	0.147095
N127	N	-0.599065	1.073256	-0.481163
N128	N	-0.265732	1.406589	-0.147830
N129	N	0.067602	1.739922	0.185503
N130	N	-0.661511	1.073286	-0.481175
N131	N	-0.328178	1.406620	-0.147842
N132	N	0.005155	1.739953	0.185492
C133	C	-0.682743	1.142500	-0.487575
C134	C	-0.349410	1.475833	-0.154242
C135	C	-0.016076	1.809167	0.179092
N136	N	-0.639169	1.211683	-0.493951
N137	N	-0.305836	1.545017	-0.160618
N138	N	0.027498	1.878350	0.172715
N139	N	-0.576717	1.211652	-0.493936
N140	N	-0.243384	1.544985	-0.160603
N141	N	0.089950	1.878318	0.172730
C142	C	-0.555964	1.142439	-0.487546
C143	C	-0.222630	1.475772	-0.154212
C144	C	0.110703	1.809105	0.179121
C145	C	-0.778742	1.193136	-0.455540
C146	C	-0.445409	1.526469	-0.122206
C147	C	-0.112075	1.859802	0.211127
C148	C	-0.844480	1.193174	-0.455564
C149	C	-0.511146	1.526507	-0.122231
C150	C	-0.177813	1.859841	0.211102
C151	C	-0.860767	1.092004	-0.519690
C152	C	-0.527434	1.425337	-0.186357
C153	C	-0.194101	1.758671	0.146977
C154	C	-0.795030	1.091973	-0.519670
C155	C	-0.461697	1.425306	-0.186336
C156	C	-0.128363	1.758639	0.146997
C157	C	-0.754021	1.142538	-0.487591
C158	C	-0.420688	1.475871	-0.154258
C159	C	-0.087355	1.809204	0.179076
C160	C	0.044533	1.142553	-0.487603
C161	C	0.377866	1.475886	-0.154270
C162	C	0.711199	1.809219	0.179063
C163	C	0.114509	1.142606	-0.487633
C164	C	0.447843	1.475940	-0.154299
C165	C	0.781176	1.809273	0.179034
C166	C	-0.119654	1.142493	-0.651735
C167	C	0.213679	1.475826	-0.318402
C168	C	0.547013	1.809159	0.014932
C169	C	-0.119644	1.142521	-0.721708
C170	C	0.213689	1.475854	-0.388374
C171	C	0.547023	1.809187	-0.055041
C172	C	-0.086548	1.348625	-0.520811
C173	C	0.246786	1.681959	-0.187477
C174	C	0.580119	2.015292	0.145856
C175	C	-0.072430	1.436495	-0.534991
C176	C	0.260904	1.769828	-0.201658
C177	C	0.594237	2.103161	0.131675
C178	C	-0.071252	1.193112	-0.762752
C179	C	0.262081	1.526445	-0.429419
C180	C	0.595415	1.859778	-0.096085
C181	C	-0.071225	1.193111	-0.828494
C182	C	0.262108	1.526444	-0.495161
C183	C	0.595442	1.859777	-0.161828
C184	C	-0.119600	1.142527	-0.853191
C185	C	0.213734	1.475860	-0.519858
C186	C	0.547067	1.809194	-0.186525
C187	C	-0.167996	1.091926	-0.812138
C188	C	0.165338	1.425259	-0.478804
C189	C	0.498671	1.758593	-0.145471
C190	C	-0.168018	1.091923	-0.746396
C191	C	0.165315	1.425256	-0.413063
C192	C	0.498649	1.758590	-0.079729
N193	N	-0.175648	1.136428	-0.955423
N194	N	0.157686	1.469761	-0.622090
N195	N	0.491019	1.803094	-0.288756
N196	N	-0.175624	1.136435	-1.017876
N197	N	0.157709	1.469769	-0.684542
N198	N	0.491043	1.803102	-0.351209
C199	C	-0.119535	1.142532	-1.051267
C200	C	0.213798	1.475865	-0.717934
C201	C	0.547132	1.809199	-0.384600
N202	N	-0.063467	1.148636	-1.019849
N203	N	0.269867	1.481970	-0.686516
N204	N	0.603200	1.815303	-0.353182
N205	N	-0.063490	1.148633	-0.957391
N206	N	0.269843	1.481966	-0.624058
N207	N	0.603176	1.815300	-0.290724
C208	C	-0.119581	1.142524	-0.924476
C209	C	0.213753	1.475858	-0.591143
C210	C	0.547086	1.809191	-0.257810
C211	C	-0.071110	1.193124	-1.163597
C212	C	0.262223	1.526458	-0.830264
C213	C	0.595557	1.859791	-0.496930
C214	C	-0.071083	1.193118	-1.229340
C215	C	0.262251	1.526451	-0.896006
C216	C	0.595584	1.859784	-0.562673
C217	C	-0.167858	1.091937	-1.212983
C218	C	0.165475	1.425271	-0.879649
C219	C	0.498808	1.758604	-0.546316
C220	C	-0.167881	1.091940	-1.147240
C221	C	0.165453	1.425273	-0.813907
C222	C	0.498786	1.758607	-0.480574
C223	C	-0.119507	1.142538	-1.122552
C224	C	0.213827	1.475871	-0.789219
C225	C	0.547160	1.809204	-0.455886
C226	C	-0.119649	1.142407	-0.323979
C227	C	0.213684	1.475741	0.009354
C228	C	0.547018	1.809074	0.342687
C229	C	-0.119457	1.142533	-0.254032
C230	C	0.213876	1.475866	0.079301
C231	C	0.547210	1.809199	0.412635
H232	H	0.001746	0.444233	-0.609405
H233	H	0.335079	0.777566	-0.276071
H234	H	0.668413	1.110899	0.057262
O235	O	-0.019078	1.247679	-0.736121
O236	O	0.314255	1.581013	-0.402788
O237	O	0.647588	1.914346	-0.069455
H238	H	0.014579	1.282855	-0.775711
H239	H	0.347912	1.616188	-0.442377
H240	H	0.681245	1.949522	-0.109044
O241	O	-0.734497	1.247683	-0.420961
O242	O	-0.401164	1.581016	-0.087627
O243	O	-0.067830	1.914350	0.245706
H244	H	-0.749320	1.234178	-0.369366
H245	H	-0.415987	1.567512	-0.036033
H246	H	-0.082653	1.900845	0.297301
H247	H	-0.031673	1.234314	-1.262757
H248	H	0.301661	1.567647	-0.929424
H249	H	0.634994	1.900980	-0.596091
O250	O	-0.905001	1.037461	-0.554275
O251	O	-0.571668	1.370794	-0.220941
O252	O	-0.238335	1.704128	0.112392
H253	H	-0.890177	1.050986	-0.605870
H254	H	-0.556844	1.384319	-0.272536
H255	H	-0.223511	1.717653	0.060797
H256	H	-0.207290	1.050748	-1.113822
H257	H	0.126044	1.384081	-0.780489
H258	H	0.459377	1.717415	-0.447155
H259	H	-0.031815	1.234306	-0.861918
H260	H	0.301518	1.567639	-0.528585
H261	H	0.634851	1.900973	-0.195252
H262	H	-0.240993	0.841429	-0.365801
H263	H	0.092340	1.174763	-0.032468
H264	H	0.425674	1.508096	0.300865
O265	O	-0.082720	0.852483	-0.524592
O266	O	0.250613	1.185816	-0.191259
O267	O	0.583947	1.519149	0.142074
H268	H	-0.079122	0.916821	-0.528193
H269	H	0.254211	1.250154	-0.194860
H270	H	0.587544	1.583488	0.138474
O271	O	-0.768364	1.037386	-0.554225
O272	O	-0.435030	1.370719	-0.220891
O273	O	-0.101697	1.704053	0.112442
H274	H	-0.807928	1.002219	-0.576518
H275	H	-0.474594	1.335552	-0.243185
H276	H	-0.141261	1.668885	0.090148
H277	H	-0.244820	0.567829	-0.362006
H278	H	0.088513	0.901162	-0.028672
H279	H	0.421846	1.234495	0.304661
H280	H	0.005582	0.717819	-0.613213
H281	H	0.338915	1.051152	-0.279879
H282	H	0.672249	1.384486	0.053454
H283	H	-0.374092	1.050589	-0.545676
H284	H	-0.040758	1.383922	-0.212343
H285	H	0.292575	1.717255	0.120990
O286	O	-0.871139	1.247749	-0.420989
O287	O	-0.537805	1.581083	-0.087655
O288	O	-0.204472	1.914416	0.245678
H289	H	-0.894572	1.287977	-0.455686
H290	H	-0.561238	1.621310	-0.122353
H291	H	-0.227905	1.954643	0.210980
O292	O	-0.220172	1.037364	-0.838769
O293	O	0.113161	1.370697	-0.505436
O294	O	0.446495	1.704031	-0.172102
H295	H	-0.212030	1.045870	-0.891380
H296	H	0.121303	1.379203	-0.558047
H297	H	0.454636	1.712536	-0.224713
H298	H	-0.344542	1.234117	-0.429319
H299	H	-0.011209	1.567451	-0.095986
H300	H	0.322124	1.900784	0.237348
H301	H	-0.207241	1.050743	-1.233089
H302	H	0.126092	1.384076	-0.899756
H303	H	0.459426	1.717410	-0.566422
O304	O	-0.220217	1.037354	-0.702125
O305	O	0.113116	1.370687	-0.368792
O306	O	0.446450	1.704021	-0.035459
H307	H	-0.212104	1.045848	-0.652262
H308	H	0.121230	1.379181	-0.318929
H309	H	0.454563	1.712515	0.014404
O310	O	-0.470343	1.247541	-0.420876
O311	O	-0.137010	1.580874	-0.087543
O312	O	0.196324	1.914207	0.245791
H313	H	-0.430784	1.282691	-0.398563
H314	H	-0.097451	1.616025	-0.065230
H315	H	0.235883	1.949358	0.268103
H316	H	-0.055308	0.792655	-0.552098
H317	H	0.278026	1.125988	-0.218764
H318	H	0.611359	1.459321	0.114569
O319	O	-0.187447	0.471185	-0.419580
O320	O	0.145886	0.804518	-0.086247
O321	O	0.479220	1.137852	0.247086
H322	H	-0.238453	0.449406	-0.428692
H323	H	0.094881	0.782739	-0.095358
H324	H	0.428214	1.116073	0.237975
H325	H	-0.144138	0.444089	-0.463043
H326	H	0.189196	0.777423	-0.129709
H327	H	0.522529	1.110756	0.203624
O328	O	0.038238	0.604946	-0.645993
O329	O	0.371571	0.938280	-0.312660
O330	O	0.704904	1.271613	0.020673
H331	H	0.059346	0.562399	-0.667176
H332	H	0.392680	0.895732	-0.333843
H333	H	0.726013	1.229066	-0.000509
O334	O	-0.277479	0.680727	-0.329217
O335	O	0.055855	1.014060	0.004116
O336	O	0.389188	1.347394	0.337450
H337	H	-0.281080	0.616388	-0.325616
H338	H	0.052253	0.949721	0.007717
H339	H	0.385586	1.283055	0.341051
O340	O	-0.504189	1.037265	-0.554167
O341	O	-0.170856	1.370598	-0.220834
O342	O	0.162477	1.703931	0.112499
H343	H	-0.554055	1.045776	-0.548785
H344	H	-0.220722	1.379109	-0.215451
H345	H	0.112611	1.712442	0.117882
H346	H	-0.031718	1.234320	-1.143494
H347	H	0.301615	1.567653	-0.810161
H348	H	0.634949	1.900986	-0.476827
