data_functionalizedCrystal
_audit_creation_method	'MofGen! by Chris Wilmer'
_symmetry_space_group_name_H-M	'P1'
_symmetry_Int_Tables_number	1
_symmetry_cell_setting	triclinic
loop_
_symmetry_equiv_pos_as_xyz
  x,y,z
_cell_length_a	9.065218
_cell_length_b	15.944551
_cell_length_c	8.140239
_cell_angle_alpha	89.995530
_cell_angle_beta	89.997198
_cell_angle_gamma	84.257312
loop_
_atom_site_label
_atom_site_type_symbol
_atom_site_fract_x
_atom_site_fract_y
_atom_site_fract_z
O1	O	1.957519	0.123161	-0.136622
O2	O	1.527998	0.133263	-0.136625
O3	O	1.754488	0.006026	-0.136608
O4	O	1.731029	0.250398	-0.136638
O5	O	1.754475	0.006024	0.136619
O6	O	1.527986	0.133261	0.136603
O7	O	1.957507	0.123159	0.136605
Zn8	Zn	1.742744	0.128210	0.179985
Zn9	Zn	1.742761	0.128212	-0.180004
O10	O	1.731017	0.250396	0.136589
C11	C	1.473028	0.132291	-0.000011
C12	C	1.309253	0.129388	-0.000012
C13	C	1.753508	-0.025276	0.000005
C14	C	1.750588	-0.118544	0.000006
C15	C	1.603221	-0.334518	-0.000017
C16	C	1.671647	-0.395017	0.134701
C17	C	1.745306	-0.289310	-0.000006
C18	C	1.671693	-0.394999	-0.134680
C19	C	1.740194	-0.454262	-0.000026
C20	C	1.813772	-0.348581	0.134823
C21	C	1.813798	-0.348557	-0.134679
C22	C	1.882327	-0.409038	0.000072
C23	C	1.748247	-0.194286	0.000006
C24	C	1.737264	-0.549285	-0.000026
C25	C	2.012477	0.124131	-0.000012
C26	C	2.176252	0.127034	-0.000022
C27	C	1.731997	0.281698	-0.000028
C28	C	1.734917	0.374966	-0.000040
N29	N	1.742744	0.128208	0.425667
N30	N	1.742773	0.128207	-0.425687
H31	H	1.611545	-0.415581	0.248593
C32	C	1.687457	-0.477519	-0.381936
C33	C	1.590550	-0.422733	-0.288429
H34	H	1.637350	-0.494642	-0.476841
H35	H	1.770357	-0.449429	-0.414317
H36	H	1.720367	-0.525651	-0.318067
H37	H	1.557648	-0.374598	-0.352294
H38	H	1.507623	-0.450823	-0.256050
H39	H	1.873848	-0.327971	-0.248577
C40	C	1.369959	-0.314053	0.141410
C41	C	1.444017	-0.290751	0.000156
H42	H	1.271680	-0.287028	0.141524
H43	H	1.367015	-0.373431	0.142375
H44	H	1.420948	-0.297490	0.236130
H45	H	1.393034	-0.307320	-0.094564
H46	H	1.446953	-0.231361	-0.000824
C47	C	1.896751	-0.233290	0.287404
C48	C	1.894818	-0.320989	0.288753
H49	H	1.946773	-0.216255	0.382440
H50	H	1.946889	-0.217020	0.191871
H51	H	1.797895	-0.207117	0.287013
H52	H	1.993674	-0.347162	0.289131
H53	H	1.844682	-0.337267	0.384311
H54	H	2.000369	-0.441303	0.000149
