data_functionalizedCrystal
_audit_creation_method	'MofGen! by Chris Wilmer'
_symmetry_space_group_name_H-M	'P1'
_symmetry_Int_Tables_number	1
_symmetry_cell_setting	triclinic
loop_
_symmetry_equiv_pos_as_xyz
  x,y,z
_cell_length_a	11.026607
_cell_length_b	15.995292
_cell_length_c	10.065918
_cell_angle_alpha	99.815100
_cell_angle_beta	97.708363
_cell_angle_gamma	96.027316
loop_
_atom_site_label
_atom_site_type_symbol
_atom_site_fract_x
_atom_site_fract_y
_atom_site_fract_z
O1	O	1.625974	0.363938	0.113471
O2	O	1.272681	0.324014	0.113475
O3	O	1.459022	0.223546	0.113475
O4	O	1.439633	0.464405	0.113471
O5	O	1.427166	0.196888	-0.113513
O6	O	1.240825	0.297356	-0.113512
O7	O	1.594118	0.337280	-0.113517
Zn8	Zn	1.412414	0.313085	-0.149554
Zn9	Zn	1.454385	0.348208	0.149512
O10	O	1.407777	0.437747	-0.113517
C11	C	1.211544	0.303320	-0.000018
C12	C	1.076837	0.281363	-0.000016
C13	C	1.442305	0.178903	-0.000015
C14	C	1.439941	0.085595	-0.000005
C15	C	1.003013	0.341989	-0.000016
C16	C	0.863786	0.319297	-0.000014
C17	C	1.431242	-0.253456	-0.000018
C18	C	1.565667	-0.209931	-0.000526
C19	C	1.568296	-0.112809	-0.000010
C20	C	1.435558	-0.085249	-0.000012
C21	C	1.386507	-0.109263	0.129605
C22	C	1.384903	-0.206285	0.129709
C23	C	1.345930	-0.236871	-0.128418
C24	C	1.350675	-0.139828	-0.130126
C25	C	1.437991	0.009815	-0.000005
C26	C	1.428806	-0.348519	-0.000016
C27	C	1.655255	0.357974	-0.000021
C28	C	1.789963	0.379932	-0.000014
C29	C	1.424494	0.482391	-0.000023
C30	C	1.426859	0.575700	-0.000025
N31	N	1.383778	0.289116	-0.353658
C32	C	1.444414	0.339868	-0.421439
C33	C	1.422386	0.321413	-0.578606
N34	N	1.483030	0.372173	0.353617
H35	H	1.042883	0.410690	-0.000025
H36	H	1.252691	-0.122382	-0.137956
F37	F	0.811684	0.229491	-0.000021
F38	F	1.294614	0.214460	-0.429886
H39	H	1.551258	0.429288	-0.588065
F40	F	0.842059	0.469736	-0.000032
H41	H	1.630192	-0.220322	0.091905
H42	H	1.607918	-0.096758	-0.092923
F43	F	1.024729	0.191561	-0.000023
H44	H	1.374498	-0.270114	-0.226668
H45	H	1.604463	-0.241031	-0.093481
H46	H	1.354164	0.264295	-0.636926
F47	F	1.654605	-0.064025	0.121650
H48	H	1.386180	-0.125144	-0.226016
H49	H	1.445070	-0.214703	0.226602
H50	H	1.289507	-0.091552	0.134423
F51	F	1.257091	-0.243831	0.137403
F52	F	1.465236	-0.059039	0.255691
H53	H	1.512639	0.396977	-0.363114
F54	F	1.216371	-0.274798	-0.129565
