data_functionalizedCrystal
_audit_creation_method	'MofGen! by Chris Wilmer'
_symmetry_space_group_name_H-M	'P1'
_symmetry_Int_Tables_number	1
_symmetry_cell_setting	triclinic
loop_
_symmetry_equiv_pos_as_xyz
  x,y,z
_cell_length_a	10.489741
_cell_length_b	14.044220
_cell_length_c	13.101039
_cell_angle_alpha	93.659868
_cell_angle_beta	93.396862
_cell_angle_gamma	91.135974
loop_
_atom_site_label
_atom_site_type_symbol
_atom_site_fract_x
_atom_site_fract_y
_atom_site_fract_z
O1	O	0.301301	-1.264971	-0.085104
O2	O	0.801301	-0.764971	0.414896
O3	O	0.290194	-0.988928	-0.085130
O4	O	0.790194	-0.488928	0.414870
O5	O	0.110787	-1.133230	-0.085110
O6	O	0.610787	-0.633230	0.414890
O7	O	0.480707	-1.120668	-0.085124
O8	O	0.980707	-0.620668	0.414876
O9	O	0.123682	-1.122877	0.085318
O10	O	0.623682	-0.622877	0.585318
O11	O	0.303089	-0.978574	0.085298
O12	O	0.803089	-0.478574	0.585298
O13	O	0.314196	-1.254618	0.085324
O14	O	0.814196	-0.754618	0.585324
Zn15	Zn	0.310690	-1.114952	0.112370
Zn16	Zn	0.810690	-0.614952	0.612370
Zn17	Zn	0.293700	-1.128593	-0.112176
Zn18	Zn	0.793700	-0.628593	0.387824
O19	O	0.493603	-1.110315	0.085305
O20	O	0.993603	-0.610315	0.585305
C21	C	0.291780	-0.948404	0.000081
C22	C	0.791780	-0.448404	0.500081
C23	C	0.277280	-0.843079	0.000071
C24	C	0.777280	-0.343079	0.500071
C25	C	0.069607	-1.127105	0.000103
C26	C	0.569607	-0.627105	0.500103
C27	C	-0.072311	-1.124266	0.000101
C28	C	0.427689	-0.624266	0.500101
C29	C	0.312609	-1.295142	0.000111
C30	C	0.812609	-0.795142	0.500111
C31	C	0.327109	-1.400466	0.000114
C32	C	0.827109	-0.900466	0.500114
C33	C	-0.149765	-1.032451	0.000085
C34	C	0.350235	-0.532451	0.500085
C35	C	-0.231130	-1.070719	0.084119
C36	C	0.268870	-0.570719	0.584119
C37	C	-0.243816	-1.080948	-0.083910
C38	C	0.256184	-0.580948	0.416090
C39	C	-0.151801	-1.162568	0.084204
C40	C	0.348199	-0.662568	0.584204
C41	C	-0.164485	-1.172789	-0.083900
C42	C	0.335515	-0.672789	0.416100
C43	C	-0.245814	-1.211123	0.000155
C44	C	0.254186	-0.711123	0.500155
C45	C	0.534783	-1.116441	0.000089
C46	C	1.034783	-0.616441	0.500089
C47	C	0.676700	-1.119280	0.000084
C48	C	1.176700	-0.619280	0.500084
N49	N	0.322285	-1.105649	0.265618
N50	N	0.822285	-0.605649	0.765618
C51	C	0.250773	-0.650236	0.000092
C52	C	0.750773	-0.150236	0.500092
C53	C	0.353611	-0.593304	0.000093
C54	C	0.853611	-0.093304	0.500093
C55	C	0.338862	-0.486000	0.000105
C56	C	0.838862	0.014000	0.500105
C57	C	0.265520	-0.757551	0.000080
C58	C	0.765520	-0.257551	0.500080
N59	N	0.282095	-1.137903	-0.265424
N60	N	0.782095	-0.637903	0.234576
C61	C	0.338073	-1.092993	0.474659
C62	C	0.838073	-0.592993	0.974659
C63	C	0.266311	-1.150557	0.525542
C64	C	0.766311	-0.650557	1.025542
C65	C	0.275096	-1.143515	0.641860
C66	C	0.775096	-0.643515	1.141860
C67	C	0.329290	-1.100034	0.358331
C68	C	0.829290	-0.600034	0.858331
H69	H	-0.107764	-0.956955	0.000162
H70	H	0.392236	-0.456955	0.500162
C71	C	-0.302239	-1.313185	0.000226
C72	C	0.197761	-0.813185	0.500226
H73	H	-0.270472	-1.342011	0.059975
H74	H	0.229528	-0.842011	0.559975
H75	H	-0.278340	-1.349638	-0.058896
H76	H	0.221660	-0.849638	0.441104
H77	H	-0.392726	-1.310864	-0.000333
H78	H	0.107274	-0.810864	0.499667
C79	C	0.429951	-1.019256	0.533809
C80	C	0.929951	-0.519256	1.033809
H81	H	0.473811	-0.984051	0.486590
H82	H	0.973811	-0.484051	0.986590
H83	H	0.490030	-1.051301	0.575676
H84	H	0.990030	-0.551301	1.075676
H85	H	0.382673	-0.976905	0.575651
H86	H	0.882673	-0.476905	1.075651
H87	H	-0.111651	-1.197063	0.155329
H88	H	0.388349	-0.697063	0.655329
H89	H	-0.134879	-1.215921	-0.154942
H90	H	0.365121	-0.715921	0.345058
C91	C	0.174407	-1.224285	0.466392
C92	C	0.674407	-0.724285	0.966392
H93	H	0.130533	-1.259474	0.513615
H94	H	0.630533	-0.759474	1.013615
H95	H	0.221651	-1.266639	0.424535
H96	H	0.721651	-0.766639	0.924535
H97	H	0.114322	-1.192220	0.424539
H98	H	0.614322	-0.692220	0.924539
H99	H	-0.260706	-1.027554	0.155157
H100	H	0.239294	-0.527554	0.655157
H101	H	-0.284097	-1.046404	-0.154961
H102	H	0.215903	-0.546404	0.345039
H103	H	0.452730	-0.625153	0.000084
H104	H	0.952730	-0.125153	0.500084
H105	H	0.151662	-0.618389	0.000101
H106	H	0.651662	-0.118389	0.500101
