data_functionalizedCrystal
_audit_creation_method	'MofGen! by Chris Wilmer'
_symmetry_space_group_name_H-M	'P1'
_symmetry_Int_Tables_number	1
_symmetry_cell_setting	triclinic
loop_
_symmetry_equiv_pos_as_xyz
  x,y,z
_cell_length_a	27.732064
_cell_length_b	14.853567
_cell_length_c	13.930277
_cell_angle_alpha	90.000757
_cell_angle_beta	90.000423
_cell_angle_gamma	96.857823
loop_
_atom_site_label
_atom_site_type_symbol
_atom_site_fract_x
_atom_site_fract_y
_atom_site_fract_z
O1	O	0.641426	-0.107341	-0.079652
O2	O	0.500710	-0.123635	-0.079691
O3	O	0.574826	0.015803	-0.079673
O4	O	0.567309	-0.246778	-0.079670
O5	O	0.574816	0.015805	0.079989
O6	O	0.500699	-0.123633	0.079971
O7	O	0.641415	-0.107338	0.080010
Zn8	Zn	0.571056	-0.115485	0.105340
Zn9	Zn	0.571069	-0.115488	-0.105021
O10	O	0.567299	-0.246776	0.079992
C11	C	0.482696	-0.123290	0.000135
C12	C	0.429037	-0.122253	0.000120
C13	C	0.051546	-0.032793	0.000174
C14	C	0.253224	-0.036609	0.000149
O15	O	0.284152	0.032808	0.000184
N16	N	0.272738	-0.119294	0.000146
C17	C	0.241829	-0.201029	0.000155
O18	O	0.263055	-0.271445	0.000162
C19	C	0.040152	-0.197212	0.000187
C20	C	0.020641	-0.114523	0.000180
C21	C	0.032034	0.049890	0.000168
C22	C	-0.018382	0.050843	0.000169
C23	C	-0.049287	-0.030887	0.000176
C24	C	-0.029776	-0.113570	0.000181
C25	C	0.009244	-0.278947	0.000203
C26	C	-0.041178	-0.277985	0.000214
C27	C	-0.060689	-0.195296	0.000207
C28	C	-0.111097	-0.194346	0.000189
N29	N	-0.130611	-0.111662	0.000192
C30	C	-0.099706	-0.029932	0.000185
C31	C	0.347713	-0.203028	0.000137
C32	C	0.398132	-0.203982	0.000127
C33	C	0.409523	-0.039562	0.000122
C34	C	0.359103	-0.038608	0.000125
C35	C	0.328199	-0.120344	0.000140
C36	C	-0.205585	-0.027937	0.000187
C37	C	-0.256007	-0.026991	0.000184
C38	C	-0.267394	-0.191411	0.000193
C39	C	-0.216977	-0.192357	0.000191
C40	C	-0.186073	-0.110613	0.000191
O41	O	-0.142054	-0.263727	0.000165
O42	O	-0.120941	0.040473	0.000200
C43	C	0.101962	-0.033746	0.000173
C44	C	0.121474	-0.116429	0.000178
C45	C	0.090569	-0.198159	0.000185
C46	C	0.171893	-0.117384	0.000169
C47	C	0.202798	-0.035654	0.000162
C48	C	0.183284	0.047030	0.000165
C49	C	0.132867	0.047983	0.000166
C50	C	0.110083	-0.280843	0.000182
C51	C	0.160500	-0.281789	0.000180
C52	C	0.191405	-0.200060	0.000173
C53	C	0.574481	0.049387	0.000155
C54	C	0.573460	0.149454	0.000146
C55	C	0.659429	-0.107683	0.000182
C56	C	0.713088	-0.108720	0.000190
C57	C	0.567644	-0.280360	0.000162
C58	C	0.568665	-0.380427	0.000164
N59	N	0.571050	-0.115482	0.248906
C60	C	0.525118	0.561207	0.000151
C61	C	0.613171	0.583911	0.000175
C62	C	0.614130	0.489893	0.000170
C63	C	0.570583	0.431527	0.000157
C64	C	0.526077	0.467180	0.000149
C65	C	0.658636	0.454232	0.000187
C66	C	0.659598	0.360209	0.000183
C67	C	0.616050	0.301842	0.000163
C68	C	0.571542	0.337500	0.000154
C69	C	0.527995	0.279134	0.000141
C70	C	0.483486	0.314791	0.000125
C71	C	0.482529	0.408813	0.000129
C72	C	0.617007	0.207820	0.000159
C73	C	0.528953	0.185107	0.000138
N74	N	0.571079	-0.115484	-0.248587
C75	C	0.538249	-0.177207	0.701168
C76	C	0.603903	-0.053762	0.701153
C77	C	0.603897	-0.053759	0.600657
C78	C	0.571067	-0.115482	0.550412
C79	C	0.538243	-0.177208	0.600663
C80	C	0.636724	0.007959	0.550398
C81	C	0.636720	0.007964	0.449897
C82	C	0.603887	-0.053756	0.399650
C83	C	0.571062	-0.115483	0.449907
C84	C	0.538232	-0.177207	0.399662
C85	C	0.505403	-0.238931	0.449917
C86	C	0.505411	-0.238928	0.550416
C87	C	0.603880	-0.053758	0.299151
C88	C	0.538226	-0.177207	0.299157
H89	H	0.057192	0.116447	0.000166
H90	H	0.446292	0.437853	0.000117
H91	H	0.478675	-0.289190	0.408996
H92	H	0.493491	0.137591	0.000123
H93	H	0.448030	0.267257	0.000121
O94	O	0.502847	-0.243783	0.755370
H95	H	0.509052	-0.313983	0.736071
H96	H	0.630610	-0.003508	0.258238
O97	O	0.639310	0.012804	0.755346
H98	H	0.676995	0.001792	0.736053
H99	H	0.116986	0.115317	0.000161
O100	O	0.338064	0.050581	0.000134
H101	H	0.315364	0.054958	-0.064938
H102	H	0.663450	0.058223	0.408985
H103	H	0.025121	-0.346282	0.000204
O104	O	-0.277052	0.062198	0.000189
H105	H	-0.247088	0.118867	0.000198
O106	O	0.216625	0.135180	0.000167
H107	H	0.209688	0.174787	-0.064910
O108	O	0.707603	0.321759	0.000177
H109	H	0.728532	0.345250	0.065252
H110	H	0.648625	0.631437	0.000194
H111	H	0.488880	0.590243	0.000135
H112	H	-0.034263	0.118177	0.000168
O113	O	0.672133	0.074528	0.604586
H114	H	0.666617	0.064165	0.682911
H115	H	0.434695	0.026985	0.000113
O116	O	-0.172257	0.060227	0.000180
H117	H	-0.194302	0.117875	0.000167
O118	O	0.419175	-0.293168	0.000135
H119	H	0.389210	-0.349834	0.000154
H120	H	0.176381	-0.349130	0.000178
H121	H	0.478684	-0.289182	0.591340
H122	H	0.694090	0.501760	0.000207
H123	H	0.322554	-0.269590	0.000147
O124	O	-0.300734	-0.279557	0.000216
H125	H	-0.323986	-0.283060	-0.064848
O126	O	0.076752	-0.368998	0.000185
H127	H	0.098797	-0.426646	0.000176
H128	H	-0.066338	-0.344546	0.000230
H129	H	0.653246	0.178792	0.000178
O130	O	0.502818	-0.243783	0.244964
H131	H	0.479996	-0.286704	0.296795
H132	H	-0.201090	-0.259690	0.000196
