data_functionalizedCrystal
_audit_creation_method	'MofGen! by Chris Wilmer'
_symmetry_space_group_name_H-M	'P1'
_symmetry_Int_Tables_number	1
_symmetry_cell_setting	triclinic
loop_
_symmetry_equiv_pos_as_xyz
  x,y,z
_cell_length_a	10.654550
_cell_length_b	10.654556
_cell_length_c	9.130313
_cell_angle_alpha	89.999332
_cell_angle_beta	90.001532
_cell_angle_gamma	95.513844
loop_
_atom_site_label
_atom_site_type_symbol
_atom_site_fract_x
_atom_site_fract_y
_atom_site_fract_z
O1	O	-0.176430	1.667830	-0.121815
O2	O	-0.193228	1.302352	-0.121815
O3	O	-0.002090	1.493494	-0.121804
O4	O	-0.367568	1.476688	-0.121826
O5	O	-0.002095	1.493491	0.121794
O6	O	-0.193233	1.302350	0.121784
O7	O	-0.176435	1.667827	0.121784
Cu8	Cu	-0.184834	1.485088	0.144026
Cu9	Cu	-0.184828	1.485091	-0.144058
O10	O	-0.367573	1.476685	0.121773
C11	C	-0.191995	1.255553	-0.000015
C12	C	-0.188300	1.116110	-0.000015
C13	C	-0.183098	0.919581	-0.132813
C14	C	-0.186562	1.050604	-0.132806
C15	C	-0.186561	1.050589	0.132779
C16	C	-0.183087	0.919570	0.132771
C17	C	-0.183104	0.919590	-0.286146
C18	C	-0.186569	1.050612	-0.286140
C19	C	-0.414368	1.477921	-0.000029
C20	C	-0.553812	1.481612	-0.000038
C21	C	-0.633295	1.369071	-0.000024
C22	C	-0.764316	1.372548	-0.000013
C23	C	-0.736357	1.601117	-0.000025
C24	C	-0.605339	1.597639	-0.000046
C25	C	-0.649438	1.237109	-0.000011
C26	C	-0.780459	1.240585	-0.000000
C27	C	0.044706	1.492259	-0.000005
C28	C	0.184149	1.488567	-0.000006
C29	C	-0.177667	1.714626	-0.000019
C30	C	-0.181362	1.854069	-0.000029
N31	N	-0.184838	1.485095	0.346649
N32	N	-0.184815	1.485094	-0.346680
C33	C	-0.100231	1.569755	0.423305
C34	C	-0.100216	1.569752	0.576642
C35	C	-0.269426	1.400425	0.576652
C36	C	-0.269434	1.400423	0.423318
C37	C	-0.002543	1.667518	0.423301
C38	C	-0.002527	1.667515	0.576638
H39	H	-0.275251	1.075446	-0.345003
H40	H	-0.778327	1.695582	-0.000057
H41	H	-0.338316	1.331476	0.360906
H42	H	-0.097121	1.102319	-0.333714
N43	N	-0.610557	1.168715	-0.135020
H44	H	-0.687707	1.140712	-0.195263
H45	H	-0.550692	1.227151	-0.195195
N46	N	-0.602205	1.181456	0.139301
H47	H	-0.675751	1.157121	0.206628
H48	H	-0.558254	1.104212	0.114975
H49	H	-0.540627	1.689281	-0.000074
H50	H	-0.826117	1.200711	-0.105176
N51	N	-0.031044	1.795342	0.631782
H52	H	0.041741	1.833381	0.693239
H53	H	-0.043812	1.852291	0.545717
H54	H	-0.822200	1.190871	0.101954
H55	H	-0.033133	1.758702	0.375741
H56	H	-0.338301	1.331487	0.639093
H57	H	-0.272547	0.867885	-0.333729
N58	N	0.118319	1.627133	0.639632
H59	H	0.130154	1.538874	0.605501
H60	H	0.191764	1.686948	0.605461
H61	H	0.093990	1.646075	0.381687
H62	H	-0.181649	0.866239	0.240896
N63	N	-0.188430	1.121230	0.276011
H64	H	-0.112154	1.185091	0.281940
H65	H	-0.267636	1.166009	0.281845
H66	H	-0.094429	0.894766	-0.345020
