data_functionalizedCrystal
_audit_creation_method	'MofGen! by Chris Wilmer'
_symmetry_space_group_name_H-M	'P1'
_symmetry_Int_Tables_number	1
_symmetry_cell_setting	triclinic
loop_
_symmetry_equiv_pos_as_xyz
  x,y,z
_cell_length_a	11.792241
_cell_length_b	17.699083
_cell_length_c	16.176319
_cell_angle_alpha	89.999648
_cell_angle_beta	89.996803
_cell_angle_gamma	83.738215
loop_
_atom_site_label
_atom_site_type_symbol
_atom_site_fract_x
_atom_site_fract_y
_atom_site_fract_z
O1	O	1.505670	0.103738	-0.068654
O2	O	1.175201	0.114429	-0.068671
O3	O	1.349772	-0.001056	-0.068670
O4	O	1.331099	0.219223	-0.068655
O5	O	1.349748	-0.001063	0.068823
O6	O	1.175177	0.114422	0.068822
O7	O	1.505646	0.103731	0.068840
Cu8	Cu	1.340409	0.109075	0.081385
Cu9	Cu	1.340437	0.109084	-0.081217
O10	O	1.331075	0.219216	0.068838
C11	C	1.132906	0.113754	0.000073
C12	C	1.006916	0.111744	0.000065
N13	N	1.340397	0.109069	0.195750
C14	C	1.349091	-0.029260	0.000073
C15	C	1.347083	-0.113289	0.000061
C16	C	0.776248	0.108048	0.000089
C17	C	0.904609	0.110101	0.000076
C18	C	1.547941	0.104406	0.000094
C19	C	1.673930	0.106416	0.000096
C20	C	1.331756	0.247420	0.000094
C21	C	1.333763	0.331449	0.000100
C22	C	1.231293	0.379523	0.000094
C23	C	1.233186	0.458477	0.000085
C24	C	1.337550	0.489354	0.000087
C25	C	1.440027	0.441273	0.000090
C26	C	1.438133	0.362321	0.000093
C27	C	1.447668	0.759677	0.000074
C28	C	1.449554	0.838635	0.000073
C29	C	1.242721	0.855832	0.000065
C30	C	1.240827	0.776881	0.000069
C31	C	1.343304	0.728807	0.000067
C32	C	1.341250	0.643196	0.000076
C33	C	1.339605	0.574962	0.000084
N34	N	1.340458	0.109085	-0.195582
C35	C	1.417721	0.057953	0.239015
C36	C	1.417727	0.057952	0.325562
C37	C	1.340413	0.109071	0.368843
C38	C	1.263082	0.160189	0.325572
C39	C	1.263072	0.160186	0.239026
C40	C	1.263121	0.160204	0.674600
C41	C	1.263139	0.160205	0.761152
C42	C	1.417776	0.057970	0.761136
C43	C	1.417765	0.057967	0.674590
C44	C	1.340430	0.109082	0.631327
C45	C	1.340424	0.109081	0.537483
C46	C	1.340425	0.109076	0.462685
H47	H	1.149745	0.497617	0.000078
N48	N	1.496749	0.005737	0.805328
N49	N	1.495389	-0.064227	0.795660
H50	H	1.551163	-0.101116	0.826869
H51	H	1.480724	0.016343	0.639354
H52	H	1.159279	0.894984	0.000063
H53	H	1.155844	0.751745	0.000072
N54	N	1.184107	0.212396	0.369792
N55	N	1.184125	0.212394	0.447064
H56	H	1.128348	0.249266	0.478294
N57	N	1.124698	0.347973	0.000101
N58	N	1.100559	0.305838	0.058060
H59	H	1.025274	0.283556	0.058064
H60	H	1.200177	0.201834	0.796389
N61	N	1.542804	0.313211	0.000120
N62	N	1.564812	0.267240	0.058081
H63	H	1.638739	0.232556	0.058099
N64	N	1.496672	0.005706	0.369747
N65	N	1.460762	-0.041444	0.418015
H66	H	1.516508	-0.078360	0.449214
N67	N	1.184075	0.212401	0.194842
N68	N	1.115050	0.258040	0.233493
H69	H	1.059252	0.294917	0.202290
N70	N	1.546632	0.472812	0.000111
N71	N	1.615651	0.458237	0.058075
H72	H	1.690943	0.480511	0.058095
N73	N	1.184117	0.212417	0.630428
N74	N	1.115095	0.258053	0.669085
H75	H	1.059292	0.294931	0.637886
H76	H	1.534545	0.863771	0.000073
H77	H	1.531111	0.720544	0.000078
N78	N	1.496643	0.005690	0.194822
N79	N	1.565629	-0.039977	0.233465
H80	H	1.621344	-0.076908	0.202257
