data_functionalizedCrystal
_audit_creation_method	'MofGen! by Chris Wilmer'
_symmetry_space_group_name_H-M	'P1'
_symmetry_Int_Tables_number	1
_symmetry_cell_setting	triclinic
loop_
_symmetry_equiv_pos_as_xyz
  x,y,z
_cell_length_a	18.215407
_cell_length_b	11.169416
_cell_length_c	11.169409
_cell_angle_alpha	90.030816
_cell_angle_beta	89.975944
_cell_angle_gamma	89.989212
loop_
_atom_site_label
_atom_site_type_symbol
_atom_site_fract_x
_atom_site_fract_y
_atom_site_fract_z
Zn1	Zn	1.125177	0.477696	-0.678667
Zn2	Zn	1.625177	0.977696	-0.178667
Zn3	Zn	1.125108	0.678437	-0.477989
Zn4	Zn	1.625108	1.178437	0.022011
Zn5	Zn	1.002101	0.477768	-0.477989
Zn6	Zn	1.502101	0.977768	0.022011
Zn7	Zn	1.002107	0.678338	-0.678621
Zn8	Zn	1.502107	1.178338	-0.178621
O9	O	1.063623	0.578059	-0.578316
O10	O	1.563623	1.078059	-0.078316
O11	O	1.228152	0.504336	-0.652065
O12	O	1.728152	1.004336	-0.152065
O13	O	1.108759	0.651889	-0.310039
O14	O	1.608759	1.151889	0.189961
O15	O	1.018453	0.309808	-0.504628
O16	O	1.518453	0.809808	-0.004628
O17	O	1.228101	0.651819	-0.504628
O18	O	1.728101	1.151819	-0.004628
O19	O	1.108877	0.309756	-0.652065
O20	O	1.608877	0.809756	-0.152065
O21	O	1.018386	0.504458	-0.310039
O22	O	1.518386	1.004458	0.189961
O23	O	0.899117	0.504362	-0.504584
O24	O	1.399117	1.004362	-0.004584
O25	O	1.018464	0.651651	-0.846577
O26	O	1.518464	1.151651	-0.346577
O27	O	0.899122	0.651720	-0.651988
O28	O	1.399122	1.151720	-0.151988
O29	O	1.108883	0.504240	-0.846611
O30	O	1.608883	1.004240	-0.346611
O31	O	1.108765	0.846373	-0.504584
O32	O	1.608765	1.346373	-0.004584
O33	O	1.018397	0.846300	-0.651988
O34	O	1.518397	1.346300	-0.151988
C35	C	0.872417	0.578039	-0.578282
C36	C	1.372417	1.078039	-0.078282
C37	C	0.790618	0.578059	-0.578296
C38	C	1.290618	1.078059	-0.078296
C39	C	1.063682	0.577927	-0.891359
C40	C	1.563682	1.077927	-0.391359
C41	C	1.063707	0.577870	-1.024759
C42	C	1.563707	1.077870	-0.524759
C43	C	1.063594	0.889884	-0.578307
C44	C	1.563594	1.389884	-0.078307
C45	C	1.063649	1.023284	-0.578344
C46	C	1.563649	1.523284	-0.078344
C47	C	0.602446	0.654909	-0.654953
C48	C	1.102446	1.154909	-0.154953
C49	C	0.525587	0.654913	-0.654968
C50	C	1.025587	1.154913	-0.154968
C51	C	0.525552	0.501232	-0.501707
C52	C	1.025552	1.001232	-0.001707
C53	C	0.602410	0.501223	-0.501698
C54	C	1.102410	1.001223	-0.001698
C55	C	0.640854	0.578068	-0.578320
C56	C	1.140854	1.078068	-0.078320
C57	C	0.487138	0.578081	-0.578343
C58	C	0.987138	1.078081	-0.078343
C59	C	0.403805	0.578084	-0.578358
C60	C	0.903805	1.078084	-0.078358
C61	C	0.724193	0.578064	-0.578306
C62	C	1.224193	1.078064	-0.078306
C63	C	1.255576	0.578081	-0.578352
C64	C	1.755576	1.078081	-0.078352
C65	C	1.337375	0.578090	-0.578367
C66	C	1.837375	1.078090	-0.078367
C67	C	1.063672	0.265017	-0.578352
C68	C	1.563672	0.765017	-0.078352
C69	C	1.063693	0.131617	-0.578367
C70	C	1.563693	0.631617	-0.078367
C71	C	1.063607	0.578105	-0.266492
C72	C	1.563607	1.078105	0.233508
C73	C	1.063724	0.577824	-0.133092
C74	C	1.563724	1.077824	0.366908
H75	H	0.633745	0.717478	-0.717346
H76	H	1.133745	1.217478	-0.217346
Br77	Br	0.654541	0.396920	-0.397701
Br78	Br	1.154541	0.896920	0.102299
H79	H	0.494318	0.717482	-0.717372
H80	H	0.994318	1.217482	-0.217372
H81	H	0.494242	0.438669	-0.439322
H82	H	0.994242	0.938669	0.060678
