data_functionalizedCrystal
_audit_creation_method	'MofGen! by Chris Wilmer'
_symmetry_space_group_name_H-M	'P1'
_symmetry_Int_Tables_number	1
_symmetry_cell_setting	triclinic
loop_
_symmetry_equiv_pos_as_xyz
  x,y,z
_cell_length_a	21.395362
_cell_length_b	21.395364
_cell_length_c	21.395355
_cell_angle_alpha	89.974702
_cell_angle_beta	89.979451
_cell_angle_gamma	90.046492
loop_
_atom_site_label
_atom_site_type_symbol
_atom_site_fract_x
_atom_site_fract_y
_atom_site_fract_z
Zn1	Zn	0.249232	-0.957863	0.354265
Zn2	Zn	0.749232	-0.457863	0.854265
Zn3	Zn	0.353992	-0.957767	0.249484
Zn4	Zn	0.853992	-0.457767	0.749484
Zn5	Zn	0.249263	-0.853078	0.249500
Zn6	Zn	0.749263	-0.353078	0.749500
Zn7	Zn	0.354006	-0.853049	0.354223
Zn8	Zn	0.854006	-0.353049	0.854223
O9	O	0.301623	-0.905439	0.301868
O10	O	0.801623	-0.405439	0.801868
O11	O	0.263110	-1.045528	0.340376
O12	O	0.763110	-0.545528	0.840376
O13	O	0.340106	-0.943852	0.161808
O14	O	0.840106	-0.443852	0.661808
O15	O	0.161581	-0.867030	0.263422
O16	O	0.661581	-0.367030	0.763422
O17	O	0.340076	-1.045458	0.263394
O18	O	0.840076	-0.545458	0.763394
O19	O	0.161558	-0.944016	0.340393
O20	O	0.661558	-0.444016	0.840393
O21	O	0.263162	-0.866938	0.161820
O22	O	0.763162	-0.366938	0.661820
O23	O	0.263176	-0.765396	0.263381
O24	O	0.763176	-0.265396	0.763381
O25	O	0.340101	-0.866981	0.441906
O26	O	0.840101	-0.366981	0.941906
O27	O	0.340131	-0.765375	0.340320
O28	O	0.840131	-0.265375	0.840320
O29	O	0.263124	-0.943987	0.441937
O30	O	0.763124	-0.443987	0.941937
O31	O	0.441672	-0.943824	0.263353
O32	O	0.941672	-0.443824	0.763353
O33	O	0.441682	-0.866888	0.340304
O34	O	0.941682	-0.366888	0.840304
C35	C	0.301659	-0.742652	0.301848
C36	C	0.801659	-0.242652	0.801848
C37	C	0.301689	-0.673011	0.301855
C38	C	0.801689	-0.173011	0.801855
C39	C	0.261679	-0.640356	0.342001
C40	C	0.761679	-0.140356	0.842001
C41	C	0.261664	-0.574921	0.342003
C42	C	0.761664	-0.074921	0.842003
C43	C	0.301671	-0.542142	0.301864
C44	C	0.801671	-0.042142	0.801864
C45	C	0.341683	-0.574804	0.261710
C46	C	0.841683	-0.074804	0.761710
C47	C	0.341692	-0.640238	0.261706
C48	C	0.841692	-0.140238	0.761706
C49	C	0.358098	-0.438419	0.296824
C50	C	0.858098	0.061581	0.796824
C51	C	0.358090	-0.372986	0.296833
C52	C	0.858090	0.127014	0.796833
C53	C	0.301642	-0.340322	0.301876
C54	C	0.801642	0.159678	0.801876
C55	C	0.245200	-0.373098	0.306923
C56	C	0.745200	0.126902	0.806923
C57	C	0.245210	-0.438532	0.306918
C58	C	0.745210	0.061468	0.806918
C59	C	0.301665	-0.471190	0.301865
C60	C	0.801665	0.028810	0.801865
C61	C	0.261613	-0.236715	0.342026
C62	C	0.761613	0.263285	0.842026
C63	C	0.261597	-0.171278	0.342023
C64	C	0.761597	0.328722	0.842023
C65	C	0.341622	-0.171163	0.261734
C66	C	0.841622	0.328837	0.761734
C67	C	0.341632	-0.236598	0.261734
C68	C	0.841632	0.263402	0.761734
C69	C	0.301629	-0.269370	0.301883
C70	C	0.801629	0.230630	0.801883
C71	C	0.464411	-0.905359	0.301836
C72	C	0.964411	-0.405359	0.801836
C73	C	0.534052	-0.905382	0.301843
C74	C	1.034052	-0.405382	0.801843
C75	C	0.138200	-0.905537	0.301914
C76	C	0.638200	-0.405537	0.801914
C77	C	0.068558	-0.905579	0.301934
C78	C	0.568558	-0.405579	0.801934
C79	C	0.566696	-0.945446	0.341950
C80	C	1.066696	-0.445446	0.841950
C81	C	0.632132	-0.945468	0.341965
C82	C	1.132132	-0.445468	0.841965
C83	C	0.664920	-0.905433	0.301863
C84	C	1.164920	-0.405433	0.801863
C85	C	0.632268	-0.865362	0.261753
C86	C	1.132268	-0.365362	0.761753
C87	C	0.566834	-0.865337	0.261743
C88	C	1.066834	-0.365337	0.761743
C89	C	0.768622	-0.900556	0.245424
C90	C	1.268622	-0.400556	0.745424
C91	C	0.834055	-0.900586	0.245432
C92	C	1.334055	-0.400586	0.745432
C93	C	0.866741	-0.905507	0.301893
C94	C	1.366741	-0.405507	0.801893
C95	C	0.833986	-0.910413	0.358346
C96	C	1.333986	-0.410413	0.858346
C97	C	0.768552	-0.910387	0.358337
C98	C	1.268552	-0.410387	0.858337
C99	C	0.735873	-0.905456	0.301869
C100	C	1.235873	-0.405456	0.801869
C101	C	0.970338	-0.945597	0.342020
C102	C	1.470338	-0.445597	0.842020
C103	C	1.035775	-0.945614	0.342036
C104	C	1.535775	-0.445614	0.842036
C105	C	1.035909	-0.865512	0.261818
C106	C	1.535909	-0.365512	0.761818
C107	C	0.970474	-0.865491	0.261807
C108	C	1.470474	-0.365491	0.761807
C109	C	0.937692	-0.905537	0.301907
C110	C	1.437692	-0.405537	0.801907
C111	C	0.301610	-0.905491	0.465291
C112	C	0.801610	-0.405491	0.965291
C113	C	0.301605	-0.905514	0.534933
C114	C	0.801605	-0.405514	1.034933
C115	C	0.301596	-0.068863	0.301885
C116	C	0.801596	0.431137	0.801885
C117	C	0.301604	-0.138504	0.301884
C118	C	0.801604	0.361496	0.801884
C119	C	0.301591	-0.905424	0.139080
C120	C	0.801591	-0.405424	0.639080
C121	C	0.301419	-0.905523	0.069440
C122	C	0.801419	-0.405523	0.569440
C123	C	0.261521	-0.945609	0.567663
C124	C	0.761521	-0.445609	1.067663
C125	C	0.261494	-0.945608	0.633098
C126	C	0.761494	-0.445608	1.133098
C127	C	0.301562	-0.905519	0.665801
C128	C	0.801562	-0.405519	1.165801
C129	C	0.341649	-0.865415	0.633063
C130	C	0.841649	-0.365415	1.133063
C131	C	0.341670	-0.865413	0.567629
C132	C	0.841670	-0.365413	1.067629
C133	C	0.357979	-0.900543	0.769465
C134	C	0.857979	-0.400543	1.269465
C135	C	0.357959	-0.900550	0.834898
C136	C	0.857959	-0.400550	1.334898
C137	C	0.301496	-0.905522	0.867622
C138	C	0.801496	-0.405522	1.367622
C139	C	0.245052	-0.910501	0.834905
C140	C	0.745052	-0.410501	1.334905
C141	C	0.245073	-0.910498	0.769471
C142	C	0.745073	-0.410498	1.269471
C143	C	0.301543	-0.905516	0.736753
C144	C	0.801543	-0.405516	1.236753
C145	C	0.261380	-0.945619	0.971305
C146	C	0.761380	-0.445619	1.471305
C147	C	0.261352	-0.945614	1.036742
C148	C	0.761352	-0.445614	1.536742
C149	C	0.341512	-0.865424	1.036705
C150	C	0.841512	-0.365424	1.536705
C151	C	0.341534	-0.865426	0.971269
C152	C	0.841534	-0.365426	1.471269
C153	C	0.301469	-0.905527	0.938573
C154	C	0.801469	-0.405527	1.438573
H155	H	0.229036	-0.263399	0.374714
H156	H	0.729036	0.236601	0.874714
C157	C	0.668051	-0.989539	0.386081
C158	C	1.168051	-0.489539	0.886081
H159	H	0.711717	-0.983816	0.380345
H160	H	1.211717	-0.483816	0.880345
H161	H	0.657283	-1.031637	0.376947
H162	H	1.157283	-0.531637	0.876947
H163	H	0.657320	-0.980345	0.428173
H164	H	1.157320	-0.480345	0.928173
H165	H	0.199115	-0.914550	0.742836
H166	H	0.699115	-0.414550	1.242836
C167	C	0.420196	-0.474343	0.291281
C168	C	0.920196	0.025657	0.791281
H169	H	0.453808	-0.445453	0.288287
H170	H	0.953808	0.054547	0.788287
H171	H	0.419337	-0.499854	0.254964
H172	H	0.919337	0.000146	0.754964
H173	H	0.425755	-0.499879	0.327184
H174	H	0.925755	0.000121	0.827184
C175	C	0.870082	-0.895183	0.183340
C176	C	1.370082	-0.395183	0.683340
H177	H	0.913733	-0.895908	0.191430
H178	H	1.413733	-0.395908	0.691430
H179	H	0.859413	-0.857042	0.163277
H180	H	1.359413	-0.357042	0.663277
H181	H	0.859333	-0.929274	0.157007
H182	H	1.359333	-0.429274	0.657007
C183	C	0.385766	-0.821310	0.531621
C184	C	0.885766	-0.321310	1.031621
H185	H	0.380038	-0.827049	0.487968
H186	H	0.880038	-0.327049	0.987968
H187	H	0.427858	-0.830451	0.542348
H188	H	0.927858	-0.330451	1.042348
H189	H	0.376596	-0.779215	0.542325
H190	H	0.876596	-0.279215	1.042325
H191	H	0.228850	-0.978258	0.659753
H192	H	0.728850	-0.478258	1.159753
H193	H	0.229104	-0.667036	0.374693
H194	H	0.729104	-0.167036	0.874693
H195	H	0.658968	-0.832764	0.229102
H196	H	1.158968	-0.332764	0.729102
C197	C	0.217659	-0.538994	0.386172
C198	C	0.717659	-0.038994	0.886172
H199	H	0.193840	-0.567884	0.410086
H200	H	0.693840	-0.067884	0.910086
H201	H	0.190318	-0.513477	0.362264
H202	H	0.690318	-0.013477	0.862264
H203	H	0.241677	-0.513464	0.413427
H204	H	0.741677	-0.013464	0.913427
C205	C	0.385650	-0.272519	0.217579
C206	C	0.885650	0.227481	0.717579
H207	H	0.409479	-0.243628	0.193677
H208	H	0.909479	0.256372	0.693677
H209	H	0.361648	-0.298056	0.190322
H210	H	0.861648	0.201944	0.690322
H211	H	0.412991	-0.298029	0.241500
H212	H	0.912991	0.201971	0.741500
H213	H	0.199235	-0.346504	0.311029
H214	H	0.699235	0.153496	0.811029
C215	C	0.869931	-0.915829	0.420456
C216	C	1.369931	-0.415829	0.920456
H217	H	0.913593	-0.915135	0.412380
H218	H	1.413593	-0.415135	0.912380
H219	H	0.859153	-0.953959	0.440523
H220	H	1.359153	-0.453959	0.940523
H221	H	0.859233	-0.881725	0.446779
H222	H	1.359233	-0.381725	0.946779
H223	H	1.062353	-0.978238	0.374699
H224	H	1.562353	-0.478238	0.874699
H225	H	0.199253	-0.465216	0.311025
H226	H	0.699253	0.034784	0.811025
H227	H	0.229013	-0.144692	0.374714
H228	H	0.729013	0.355308	0.874714
C229	C	0.385632	-0.821325	0.935264
C230	C	0.885632	-0.321325	1.435264
H231	H	0.409495	-0.797451	0.964110
H232	H	0.909495	-0.297451	1.464110
H233	H	0.361678	-0.794040	0.909727
H234	H	0.861678	-0.294040	1.409727
H235	H	0.412937	-0.845279	0.909748
H236	H	0.912937	-0.345279	1.409748
C237	C	0.385692	-0.538751	0.217562
C238	C	0.885692	-0.038751	0.717562
H239	H	0.379961	-0.495103	0.223320
H240	H	0.879961	0.004897	0.723320
H241	H	0.376464	-0.549459	0.175480
H242	H	0.876464	-0.049459	0.675480
H243	H	0.427806	-0.549441	0.226659
H244	H	0.927806	-0.049441	0.726659
C245	C	0.182977	-0.916378	0.870892
C246	C	0.682977	-0.416378	1.370892
H247	H	0.191056	-0.915783	0.914548
H248	H	0.691056	-0.415783	1.414548
H249	H	0.163212	-0.954632	0.860034
H250	H	0.663212	-0.454632	1.360034
H251	H	0.156381	-0.882454	0.860305
H252	H	0.656381	-0.382454	1.360305
H253	H	1.062605	-0.832911	0.229169
H254	H	1.562605	-0.332911	0.729169
C255	C	0.385711	-0.676159	0.217548
C256	C	0.885711	-0.176159	0.717548
H257	H	0.409539	-0.647268	0.193645
H258	H	0.909539	-0.147268	0.693645
H259	H	0.361710	-0.701698	0.190292
H260	H	0.861710	-0.201698	0.690292
H261	H	0.413052	-0.701667	0.241472
H262	H	0.913052	-0.201667	0.741472
H263	H	0.540254	-0.832712	0.229083
H264	H	1.040254	-0.332712	0.729083
C265	C	0.217446	-0.989713	0.531701
C266	C	0.717446	-0.489713	1.031701
H267	H	0.193566	-1.013589	0.560570
H268	H	0.693566	-0.513589	1.060570
H269	H	0.241415	-1.016997	0.506183
H270	H	0.741415	-0.516997	1.006183
H271	H	0.190156	-0.965757	0.506169
H272	H	0.690156	-0.465757	1.006169
C273	C	0.217307	-0.989721	0.935334
C274	C	0.717307	-0.489721	1.435334
H275	H	0.223067	-0.983984	0.891675
H276	H	0.723067	-0.483984	1.391675
H277	H	0.175208	-0.980578	0.946052
H278	H	0.675208	-0.480578	1.446052
H279	H	0.226468	-1.031816	0.946077
H280	H	0.726468	-0.531816	1.446077
H281	H	0.741884	-0.914380	0.404302
H282	H	1.241884	-0.414380	0.904302
H283	H	0.540007	-0.978051	0.374603
H284	H	1.040007	-0.478051	0.874603
C285	C	0.934275	-0.989625	0.386146
C286	C	1.434275	-0.489625	0.886146
H287	H	0.963092	-1.013478	0.410046
H288	H	1.463092	-0.513478	0.910046
H289	H	0.908723	-1.016932	0.362214
H290	H	1.408723	-0.516932	0.862214
H291	H	0.908771	-0.965617	0.413415
H292	H	1.408771	-0.465617	0.913415
H293	H	0.374196	-0.144475	0.229053
H294	H	0.874196	0.355525	0.729053
C295	C	0.420080	-0.894937	0.733474
C296	C	0.920080	-0.394937	1.233474
H297	H	0.453688	-0.891941	0.762329
H298	H	0.953688	-0.391941	1.262329
H299	H	0.419192	-0.858585	0.707984
H300	H	0.919192	-0.358585	1.207984
H301	H	0.425671	-0.930797	0.707913
H302	H	0.925671	-0.430797	1.207913
C303	C	0.385725	-0.821321	0.669033
C304	C	0.885725	-0.321321	1.169033
H305	H	0.379977	-0.827069	0.712691
H306	H	0.879977	-0.327069	1.212691
H307	H	0.376570	-0.779227	0.658295
H308	H	0.876570	-0.279227	1.158295
H309	H	0.427826	-0.830470	0.658309
H310	H	0.927826	-0.330470	1.158309
C311	C	0.217258	-0.989722	1.072745
C312	C	0.717258	-0.489722	1.572745
H313	H	0.193406	-1.013606	1.043898
H314	H	0.693406	-0.513606	1.543898
H315	H	0.189952	-0.965775	1.098261
H316	H	0.689952	-0.465775	1.598261
H317	H	0.241218	-1.017007	1.098282
H318	H	0.741218	-0.517007	1.598282
C319	C	0.420171	-0.336935	0.291286
C320	C	0.920171	0.163065	0.791286
H321	H	0.412083	-0.293287	0.292020
H322	H	0.912083	0.206713	0.792020
H323	H	0.440150	-0.347617	0.253105
H324	H	0.940150	0.152383	0.753105
H325	H	0.446578	-0.347654	0.325324
H326	H	0.946578	0.152346	0.825324
H327	H	0.943893	-0.832871	0.229146
H328	H	1.443893	-0.332871	0.729146
C329	C	0.385590	-0.821330	1.072669
C330	C	0.885590	-0.321330	1.572669
H331	H	0.379841	-0.827077	1.116328
H332	H	0.879841	-0.327077	1.616328
H333	H	0.376439	-0.779236	1.061930
H334	H	0.876439	-0.279236	1.561930
H335	H	0.427690	-0.830483	1.061947
H336	H	0.927690	-0.330483	1.561947
H337	H	0.403919	-0.896500	0.861530
H338	H	0.903919	-0.396500	1.361530
H339	H	0.742014	-0.896546	0.199444
H340	H	1.242014	-0.396546	0.699444
