data_functionalizedCrystal
_audit_creation_method	'MofGen! by Chris Wilmer'
_symmetry_space_group_name_H-M	'P1'
_symmetry_Int_Tables_number	1
_symmetry_cell_setting	triclinic
loop_
_symmetry_equiv_pos_as_xyz
  x,y,z
_cell_length_a	10.540539
_cell_length_b	18.266242
_cell_length_c	19.188925
_cell_angle_alpha	89.993996
_cell_angle_beta	96.165980
_cell_angle_gamma	90.006962
loop_
_atom_site_label
_atom_site_type_symbol
_atom_site_fract_x
_atom_site_fract_y
_atom_site_fract_z
O1	O	1.683724	0.060846	-0.098393
O2	O	2.183724	0.560846	0.401607
O3	O	1.314106	0.060855	-0.107663
O4	O	1.814106	0.560855	0.392337
O5	O	1.509585	0.060846	-0.001443
O6	O	2.009585	0.560846	0.498557
O7	O	1.488245	0.060855	-0.204613
O8	O	1.988245	0.560855	0.295387
O9	O	1.509552	-0.060916	-0.001437
O10	O	2.009552	0.439084	0.498563
O11	O	1.314073	-0.060907	-0.107657
O12	O	1.814073	0.439093	0.392343
O13	O	1.683691	-0.060916	-0.098387
O14	O	2.183691	0.439084	0.401613
Zn15	Zn	1.498877	-0.080244	-0.103021
Zn16	Zn	1.998877	0.419756	0.396979
Zn17	Zn	1.498920	0.080183	-0.103029
Zn18	Zn	1.998920	0.580183	0.396971
O19	O	1.488212	-0.060907	-0.204607
O20	O	1.988212	0.439093	0.295393
C21	C	1.266802	-0.000025	-0.106965
C22	C	1.766802	0.499975	0.393035
C23	C	1.125900	-0.000022	-0.104885
C24	C	1.625900	0.499978	0.395115
N25	N	1.498856	-0.189731	-0.103016
N26	N	1.998856	0.310269	0.396984
C27	C	0.944232	-0.000309	-0.025184
C28	C	1.444232	0.499691	0.474816
C29	C	1.090804	-0.000027	-0.027292
C30	C	1.590804	0.499973	0.472708
C31	C	1.063422	0.069509	-0.142229
C32	C	1.563422	0.569509	0.357771
C33	C	0.916936	0.069560	-0.139581
C34	C	1.416936	0.569560	0.360419
C35	C	0.916375	-0.068906	-0.141153
C36	C	1.416375	0.431094	0.358847
C37	C	1.063341	-0.069818	-0.141868
C38	C	1.563341	0.430182	0.358132
C39	C	1.585443	-0.228044	-0.056005
C40	C	2.085443	0.271956	0.443995
C41	C	1.585451	-0.304689	-0.056002
C42	C	2.085451	0.195311	0.443998
C43	C	1.498885	-0.343018	-0.103021
C44	C	1.998885	0.156982	0.396979
C45	C	1.412282	-0.304696	-0.150036
C46	C	1.912282	0.195304	0.349964
C47	C	1.412268	-0.228052	-0.150033
C48	C	1.912268	0.271948	0.349967
N49	N	1.482383	-0.463347	-0.164719
N50	N	1.982383	0.036653	0.335281
N51	N	1.482404	-0.536155	-0.164720
N52	N	1.982404	-0.036155	0.335280
C53	C	1.498920	-0.573940	-0.103032
C54	C	1.998920	-0.073940	0.396968
N55	N	1.515439	-0.536166	-0.041341
N56	N	2.015439	-0.036166	0.458659
N57	N	1.515425	-0.463352	-0.041342
N58	N	2.015425	0.036648	0.458658
C59	C	1.498890	-0.426125	-0.103029
C60	C	1.998890	0.073875	0.396971
C61	C	1.585520	-0.695360	-0.056014
C62	C	2.085520	-0.195360	0.443986
C63	C	1.585519	-0.772006	-0.056009
C64	C	2.085519	-0.272006	0.443991
C65	C	1.412357	-0.772012	-0.150050
C66	C	1.912357	-0.272012	0.349950
C67	C	1.412351	-0.695367	-0.150048
C68	C	1.912351	-0.195367	0.349952
C69	C	1.498940	-0.657046	-0.103031
C70	C	1.998940	-0.157046	0.396969
C71	C	1.730995	-0.000035	-0.099085
C72	C	2.230995	0.499965	0.400915
C73	C	1.871897	-0.000033	-0.101165
C74	C	2.371897	0.499967	0.398835
C75	C	1.508879	-0.000035	0.024575
C76	C	2.008879	0.499965	0.524575
C77	C	1.506808	-0.000033	0.102094
C78	C	2.006808	0.499967	0.602094
N79	N	1.498951	0.189670	-0.103029
N80	N	1.998951	0.689670	0.396971
C81	C	1.488918	-0.000025	-0.230626
C82	C	1.988918	0.499975	0.269374
C83	C	1.490989	-0.000022	-0.308144
C84	C	1.990989	0.499978	0.191856
C85	C	1.607640	-0.000017	0.663192
C86	C	2.107640	0.499983	1.163192
C87	C	1.609597	-0.000024	0.590356
C88	C	2.109597	0.499976	1.090356
C89	C	1.494897	-0.000021	0.546186
C90	C	1.994897	0.499979	1.046186
C91	C	1.378230	-0.000030	0.574858
C92	C	1.878230	0.499970	1.074858
C93	C	1.376277	-0.000030	0.647693
C94	C	1.876277	0.499970	1.147693
N95	N	1.411869	0.041426	0.426057
N96	N	1.911869	0.541426	0.926057
N97	N	1.413733	0.041428	0.356867
N98	N	1.913733	0.541428	0.856867
C99	C	1.500776	-0.000020	0.326738
C100	C	2.000776	0.499980	0.826738
N101	N	1.585904	-0.041462	0.368413
N102	N	2.085904	0.458538	0.868413
N103	N	1.584044	-0.041461	0.437609
N104	N	2.084044	0.458539	0.937609
C105	C	1.497002	-0.000020	0.467208
C106	C	1.997002	0.499980	0.967208
C107	C	1.619557	-0.000024	0.219097
C108	C	2.119557	0.499976	0.719097
C109	C	1.621509	-0.000035	0.146259
C110	C	2.121509	0.499965	0.646259
C111	C	1.390139	-0.000034	0.130762
C112	C	1.890139	0.499966	0.630762
C113	C	1.388190	-0.000030	0.203599
C114	C	1.888190	0.499970	0.703599
C115	C	1.502903	-0.000021	0.247762
C116	C	2.002903	0.499979	0.747762
H117	H	1.134053	-0.049870	0.002092
H118	H	1.634053	0.450130	0.502092
H119	H	1.341797	-0.335907	-0.188319
H120	H	1.841797	0.164093	0.311681
C121	C	1.259863	-0.000026	0.235130
C122	C	1.759863	0.499974	0.735130
N123	N	1.163201	-0.000024	0.258879
N124	N	1.663201	0.499976	0.758879
H125	H	0.914712	0.049275	0.005338
H126	H	1.414712	0.549275	0.505338
H127	H	0.867736	0.072718	-0.195385
H128	H	1.367736	0.572718	0.304615
H129	H	1.655962	-0.335889	-0.017719
H130	H	2.155962	0.164111	0.482281
C131	C	1.317067	-0.185907	-0.201781
C132	C	1.817067	0.314093	0.298219
N133	N	1.245381	-0.154162	-0.240771
N134	N	1.745381	0.345838	0.259229
C135	C	1.247946	-0.000031	0.679223
C136	C	1.747946	0.499969	1.179223
N137	N	1.151285	-0.000028	0.702973
N138	N	1.651285	0.499972	1.202973
H139	H	1.704592	-0.000020	0.567013
H140	H	2.204592	0.499980	1.067013
H141	H	1.086318	-0.074013	-0.198438
H142	H	1.586318	0.425987	0.301562
H143	H	1.656022	-0.664158	-0.017727
H144	H	2.156022	-0.164158	0.482273
C145	C	0.874500	-0.140107	-0.107221
C146	C	1.374500	0.359893	0.392779
N147	N	0.842963	-0.193733	-0.081655
N148	N	1.342963	0.306267	0.418345
C149	C	1.148105	0.067424	0.012674
C150	C	1.648105	0.567424	0.512674
N151	N	1.191264	0.118232	0.042778
N152	N	1.691264	0.618232	0.542778
C153	C	1.733828	-0.000024	0.711768
C154	C	2.233828	0.499976	1.211768
N155	N	1.828874	-0.000034	0.748356
N156	N	2.328874	0.499966	1.248356
H157	H	1.655945	-0.196845	-0.017719
H158	H	2.155945	0.303155	0.482281
H159	H	1.084518	0.072099	-0.199212
H160	H	1.584518	0.572099	0.300788
C161	C	1.680755	-0.814150	-0.004279
C162	C	2.180755	-0.314150	0.495721
N163	N	1.752482	-0.845894	0.034688
N164	N	2.252482	-0.345894	0.534688
C165	C	1.317133	-0.814170	-0.201773
C166	C	1.817133	-0.314170	0.298227
N167	N	1.245408	-0.845927	-0.240731
N168	N	1.745408	-0.345927	0.259269
C169	C	1.263966	-0.000032	0.082179
C170	C	1.763966	0.499968	0.582179
N171	N	1.168929	-0.000032	0.045583
N172	N	1.668929	0.499968	0.545583
H173	H	1.341850	-0.664171	-0.188331
H174	H	1.841850	-0.164171	0.311669
H175	H	1.284841	-0.000029	0.538890
H176	H	1.784841	0.499971	1.038890
C177	C	1.745742	-0.000023	0.267679
C178	C	2.245742	0.499977	0.767679
N179	N	1.840786	-0.000024	0.304269
N180	N	2.340786	0.499976	0.804269
C181	C	0.879666	0.139769	-0.102293
C182	C	1.379666	0.639769	0.397707
N183	N	0.851601	0.192650	-0.074203
N184	N	1.351601	0.692650	0.425797
C185	C	1.749842	-0.000032	0.114730
C186	C	2.249842	0.499968	0.614730
N187	N	1.846504	-0.000030	0.090981
N188	N	2.346504	0.499970	0.590981
C189	C	1.119426	-0.139310	-0.104991
C190	C	1.619426	0.360690	0.395009
N191	N	1.161666	-0.191651	-0.077209
N192	N	1.661666	0.308349	0.422791
C193	C	0.906497	-0.067673	0.016233
C194	C	1.406497	0.432327	0.516233
N195	N	0.878064	-0.118413	0.047428
N196	N	1.378064	0.381587	0.547428
H197	H	0.867911	-0.069374	-0.197198
H198	H	1.367911	0.430626	0.302802
H199	H	1.106597	0.121254	-0.116292
H200	H	1.606597	0.621254	0.383708
