data_functionalizedCrystal
_audit_creation_method	'MofGen! by Chris Wilmer'
_symmetry_space_group_name_H-M	'P1'
_symmetry_Int_Tables_number	1
_symmetry_cell_setting	triclinic
loop_
_symmetry_equiv_pos_as_xyz
  x,y,z
_cell_length_a	16.109302
_cell_length_b	10.967953
_cell_length_c	15.186229
_cell_angle_alpha	102.126486
_cell_angle_beta	89.994701
_cell_angle_gamma	84.099760
loop_
_atom_site_label
_atom_site_type_symbol
_atom_site_fract_x
_atom_site_fract_y
_atom_site_fract_z
O1	O	1.104071	0.160393	-0.048926
O2	O	0.862127	0.180352	-0.045890
O3	O	0.988683	-0.011275	-0.074970
O4	O	0.977515	0.352019	-0.019846
O5	O	0.988674	-0.011278	0.071487
O6	O	0.862118	0.180349	0.100567
O7	O	1.104063	0.160390	0.097531
Zn8	Zn	0.983089	0.170369	0.122302
Zn9	Zn	0.983100	0.170373	-0.070661
O10	O	0.977507	0.352017	0.126611
C11	C	0.831143	0.179542	0.027216
C12	C	0.738833	0.177117	0.026851
C13	C	0.526455	0.171510	0.105826
C14	C	0.439721	0.169219	0.105475
C15	C	0.439741	0.169228	-0.054199
C16	C	0.526474	0.171510	-0.053849
C17	C	0.569828	0.172658	0.026167
C18	C	0.396362	0.168084	0.025466
C19	C	0.302321	0.165599	0.025085
C20	C	0.663874	0.175140	0.026548
C21	C	0.987867	-0.057765	-0.008797
C22	C	0.985439	-0.196285	-0.029821
C23	C	0.981839	-0.401211	0.014958
C24	C	0.984351	-0.258044	0.036684
C25	C	1.135047	0.161200	0.024422
C26	C	1.227356	0.163624	0.024782
C27	C	0.978323	0.398506	0.060436
C28	C	0.980751	0.537026	0.081454
N29	N	0.983088	0.170366	0.253994
N30	N	0.983109	0.170366	-0.202355
C31	C	1.039146	0.085542	0.466845
C32	C	1.039149	0.085539	0.559034
C33	C	0.927044	0.255194	0.584789
C34	C	0.927038	0.255190	0.492600
C35	C	0.983094	0.170365	0.433631
C36	C	0.983102	0.170366	0.618008
C37	C	0.983105	0.170364	0.717964
C38	C	0.983091	0.170366	0.333668
H39	H	0.561789	0.172442	-0.118721
H40	H	0.561751	0.172444	0.170980
Cl41	Cl	0.856563	0.361827	0.450840
H42	H	0.980915	-0.454325	-0.058056
H43	H	1.084789	0.016471	0.418833
H44	H	0.985283	-0.204936	0.109703
Cl45	Cl	0.984007	-0.278269	-0.142558
H46	H	0.981683	-0.409861	0.154468
Cl47	Cl	1.109615	-0.021103	0.600785
Cl48	Cl	0.385235	0.167755	-0.154790
H49	H	0.404411	0.168284	0.170341
Cl50	Cl	0.856581	0.361830	0.658926
