data_functionalizedCrystal
_audit_creation_method	'MofGen! by Chris Wilmer'
_symmetry_space_group_name_H-M	'P1'
_symmetry_Int_Tables_number	1
_symmetry_cell_setting	triclinic
loop_
_symmetry_equiv_pos_as_xyz
  x,y,z
_cell_length_a	15.944545
_cell_length_b	23.532407
_cell_length_c	14.421503
_cell_angle_alpha	89.999621
_cell_angle_beta	89.995153
_cell_angle_gamma	83.172425
loop_
_atom_site_label
_atom_site_type_symbol
_atom_site_fract_x
_atom_site_fract_y
_atom_site_fract_z
O1	O	1.113914	0.073425	-0.077061
O2	O	1.613914	0.573425	0.422939
O3	O	0.869287	0.082484	-0.077078
O4	O	1.369287	0.582484	0.422922
O5	O	0.998977	-0.004949	-0.077052
O6	O	1.498977	0.495051	0.422948
O7	O	0.984224	0.160858	-0.077087
O8	O	1.484224	0.660858	0.422913
O9	O	0.998956	-0.004936	0.077171
O10	O	1.498956	0.495064	0.577171
O11	O	0.869266	0.082497	0.077146
O12	O	1.369266	0.582497	0.577146
O13	O	1.113892	0.073438	0.077162
O14	O	1.613892	0.573438	0.577162
Cu15	Cu	0.991577	0.077969	0.091236
Cu16	Cu	1.491577	0.577969	0.591236
Cu17	Cu	0.991602	0.077953	-0.091151
Cu18	Cu	1.491602	0.577953	0.408849
O19	O	0.984202	0.160871	0.077136
O20	O	1.484202	0.660871	0.577136
C21	C	0.837986	0.082115	0.000032
C22	C	1.337986	0.582115	0.500032
C23	C	0.744749	0.080990	0.000027
C24	C	1.244749	0.580990	0.500027
C25	C	0.998591	-0.026160	0.000062
C26	C	1.498591	0.473840	0.500062
C27	C	0.997461	-0.089381	0.000069
C28	C	1.497461	0.410619	0.500069
C29	C	0.474601	0.023431	0.000049
C30	C	0.974601	0.523431	0.500049
C31	C	0.524938	0.051188	0.076085
C32	C	1.024938	0.551188	0.576085
C33	C	0.409139	0.076975	0.000044
C34	C	0.909139	0.576975	0.500044
C35	C	0.524940	0.051189	-0.075967
C36	C	1.024940	0.551189	0.424033
C37	C	0.574036	0.078945	0.000034
C38	C	1.074036	0.578945	0.500034
C39	C	0.458248	0.104718	0.076143
C40	C	0.958248	0.604718	0.576143
C41	C	0.458246	0.104711	-0.075978
C42	C	0.958246	0.604711	0.424022
C43	C	0.508550	0.132507	0.000078
C44	C	1.008550	0.632507	0.500078
C45	C	0.314146	0.075839	0.000050
C46	C	0.814146	0.575839	0.500050
C47	C	0.669025	0.080085	0.000034
C48	C	1.169025	0.580085	0.500034
C49	C	1.067124	-0.488215	0.000023
C50	C	1.567124	0.011785	0.500023
C51	C	1.066075	-0.547620	0.000016
C52	C	1.566075	-0.047620	0.500016
O53	O	1.130653	-0.584115	-0.000014
O54	O	1.630653	-0.084115	0.499986
N55	N	0.988974	-0.570543	0.000011
N56	N	1.488974	-0.070543	0.500011
C57	C	0.912918	-0.534059	0.000005
C58	C	1.412918	-0.034059	0.500005
O59	O	0.847241	-0.559012	-0.000001
O60	O	1.347241	-0.059012	0.499999
C61	C	0.913968	-0.474656	0.000005
C62	C	1.413968	0.025344	0.500005
C63	C	0.991074	-0.451736	0.000019
C64	C	1.491074	0.048264	0.500019
C65	C	1.144224	-0.465295	0.000036
C66	C	1.644224	0.034705	0.500036
C67	C	1.145273	-0.405894	0.000045
C68	C	1.645273	0.094106	0.500045
C69	C	1.069222	-0.369415	0.000041
C70	C	1.569222	0.130585	0.500041
C71	C	0.992123	-0.392336	0.000028
C72	C	1.492123	0.107664	0.500028
C73	C	0.837913	-0.438173	-0.000008
C74	C	1.337913	0.061827	0.499992
C75	C	0.838970	-0.378766	-0.000009
C76	C	1.338970	0.121234	0.499991
C77	C	0.916075	-0.355846	0.000005
C78	C	1.416075	0.144154	0.500005
C79	C	0.917121	-0.296456	0.000033
C80	C	1.417121	0.203544	0.500033
N81	N	0.994222	-0.273532	0.000037
N82	N	1.494222	0.226468	0.500037
C83	C	1.070272	-0.310012	0.000041
C84	C	1.570272	0.189988	0.500041
C85	C	0.910718	-0.658810	0.000002
C86	C	1.410718	-0.158810	0.500002
C87	C	0.909667	-0.718212	0.000008
C88	C	1.409667	-0.218212	0.500008
C89	C	1.062825	-0.731768	0.000018
C90	C	1.562825	-0.231768	0.500018
C91	C	1.063875	-0.672365	0.000018
C92	C	1.563875	-0.172365	0.500018
C93	C	0.987819	-0.635886	0.000006
C94	C	1.487819	-0.135886	0.500006
C95	C	1.072470	-0.185267	0.000060
C96	C	1.572470	0.314733	0.500060
C97	C	1.073512	-0.125860	0.000073
C98	C	1.573512	0.374140	0.500073
C99	C	0.920355	-0.112309	0.000059
C100	C	1.420355	0.387691	0.500059
C101	C	0.919312	-0.171710	0.000051
C102	C	1.419312	0.328290	0.500051
C103	C	0.995376	-0.208188	0.000049
C104	C	1.495376	0.291812	0.500049
O105	O	0.852577	-0.259926	0.000059
O106	O	1.352577	0.240074	0.500059
O107	O	1.135938	-0.285050	0.000034
O108	O	1.635938	0.214950	0.500034
C109	C	1.145194	0.073807	0.000050
C110	C	1.645194	0.573807	0.500050
C111	C	1.238431	0.074933	0.000049
C112	C	1.738431	0.574933	0.500049
C113	C	0.984589	0.182082	0.000020
C114	C	1.484589	0.682082	0.500020
C115	C	0.985718	0.245303	0.000007
C116	C	1.485718	0.745303	0.500007
N117	N	0.991565	0.077979	0.219517
N118	N	1.491565	0.577979	0.719517
N119	N	0.991621	0.077938	-0.219433
N120	N	1.491621	0.577938	0.280567
C121	C	0.931586	0.118390	0.469159
C122	C	1.431586	0.618390	0.969159
C123	C	1.007393	0.129445	0.530964
C124	C	1.507393	0.629445	1.030964
C125	C	0.991586	0.077966	0.408678
C126	C	1.491586	0.577966	0.908678
C127	C	0.915798	0.066924	0.530967
C128	C	1.415798	0.566924	1.030967
C129	C	0.991599	0.077954	0.591400
C130	C	1.491599	0.577954	1.091400
C131	C	1.067431	0.089047	0.469123
C132	C	1.567431	0.589047	0.969123
C133	C	0.975786	0.026503	0.469121
C134	C	1.475786	0.526503	0.969121
C135	C	1.051648	0.037536	0.530898
C136	C	1.551648	0.537536	1.030898
C137	C	0.991577	0.077974	0.303417
C138	C	1.491577	0.577974	0.803417
C139	C	0.991616	0.077945	0.696659
C140	C	1.491616	0.577945	1.196659
H141	H	0.459336	-0.022681	0.000132
H142	H	0.959336	0.477319	0.500132
H143	H	0.554057	0.028562	-0.140246
H144	H	1.054057	0.528562	0.359754
H145	H	0.554051	0.028580	0.140378
H146	H	1.054051	0.528580	0.640378
H147	H	0.962387	-0.017000	0.441935
H148	H	1.462387	0.483000	0.941935
H149	H	0.880898	0.152603	0.442051
H150	H	1.380898	0.652603	0.942051
H151	H	1.020769	0.172961	0.558128
H152	H	1.520769	0.672961	1.058128
H153	H	0.856526	-0.190372	0.000065
H154	H	1.356526	0.309628	0.500065
H155	H	0.429239	0.127319	0.140495
H156	H	0.929239	0.627319	0.640495
H157	H	0.523653	0.178656	0.000112
H158	H	1.023653	0.678656	0.500112
H159	H	1.136303	-0.107203	0.000087
H160	H	1.636303	0.392797	0.500087
H161	H	1.124749	-0.761481	0.000017
H162	H	1.624749	-0.261481	0.500017
H163	H	1.134408	-0.214960	0.000055
H164	H	1.634408	0.285040	0.500055
H165	H	0.851701	0.057590	0.558136
H166	H	1.351701	0.557590	1.058136
H167	H	1.131542	0.098433	0.442071
H168	H	1.631542	0.598433	0.942071
H169	H	0.846880	-0.736868	0.000013
H170	H	1.346880	-0.236868	0.500013
H171	H	1.208060	-0.387239	0.000052
H172	H	1.708060	0.112761	0.500052
H173	H	0.429118	0.127299	-0.140272
H174	H	0.929118	0.627299	0.359728
H175	H	0.848781	-0.629111	0.000000
H176	H	1.348781	-0.129111	0.500000
H177	H	1.102449	0.003343	0.557836
H178	H	1.602449	0.503343	1.057836
H179	H	1.126661	-0.653708	0.000029
H180	H	1.626661	-0.153708	0.500029
H181	H	0.777034	-0.349067	-0.000019
H182	H	1.277034	0.150933	0.499981
H183	H	1.206157	-0.494991	0.000036
H184	H	1.706157	0.005009	0.500036
H185	H	0.858437	-0.082597	0.000059
H186	H	1.358437	0.417403	0.500059
H187	H	0.775125	-0.456824	-0.000025
H188	H	1.275125	0.043176	0.499975
