data_functionalizedCrystal
_audit_creation_method	'MofGen! by Chris Wilmer'
_symmetry_space_group_name_H-M	'P1'
_symmetry_Int_Tables_number	1
_symmetry_cell_setting	triclinic
loop_
_symmetry_equiv_pos_as_xyz
  x,y,z
_cell_length_a	14.044220
_cell_length_b	27.731996
_cell_length_c	13.101039
_cell_angle_alpha	93.327690
_cell_angle_beta	86.340132
_cell_angle_gamma	87.905133
loop_
_atom_site_label
_atom_site_type_symbol
_atom_site_fract_x
_atom_site_fract_y
_atom_site_fract_z
O1	O	1.261204	0.114021	-0.085131
O2	O	0.985299	0.109818	-0.085156
O3	O	1.131845	0.041925	-0.085120
O4	O	1.114658	0.181914	-0.085166
O5	O	1.121330	0.046805	0.085307
O6	O	0.974785	0.114698	0.085272
O7	O	1.250689	0.118901	0.085297
Zn8	Zn	1.111068	0.117574	0.112343
Zn9	Zn	1.124921	0.111145	-0.112202
O10	O	1.104144	0.186794	0.085261
C11	C	0.944756	0.110418	0.000055
C12	C	0.839613	0.104931	0.000047
C13	C	1.126234	0.026341	0.000097
C14	C	1.125170	-0.027365	0.000107
C15	C	0.647100	0.094900	0.000070
C16	C	0.588883	0.133817	0.000062
C17	C	0.481763	0.128236	0.000075
C18	C	0.754231	0.100481	0.000057
C19	C	1.124213	-0.363057	-0.092843
C20	C	1.120176	-0.564905	-0.092862
O21	O	1.124487	-0.593264	-0.171870
N22	N	1.113942	-0.587485	0.000037
C23	C	1.108712	-0.559600	0.092948
O24	O	1.103308	-0.583438	0.171963
C25	C	1.112743	-0.357753	0.092965
C26	C	1.118986	-0.335175	0.000060
C27	C	1.130455	-0.340479	-0.185741
C28	C	1.131469	-0.290020	-0.185735
C29	C	1.126242	-0.262139	-0.092832
C30	C	1.120001	-0.284716	0.000065
C31	C	1.107506	-0.329869	0.185874
C32	C	1.108512	-0.279404	0.185870
C33	C	1.114755	-0.256826	0.092965
C34	C	1.115788	-0.206376	0.092974
N35	N	1.122021	-0.183796	0.000075
C36	C	1.127248	-0.211677	-0.092828
C37	C	1.106598	-0.665574	0.092932
C38	C	1.105592	-0.716035	0.092928
C39	C	1.117054	-0.721336	-0.092882
C40	C	1.118067	-0.670874	-0.092877
C41	C	1.112831	-0.642993	0.000033
C42	C	1.129379	-0.105709	-0.092810
C43	C	1.130397	-0.055246	-0.092796
C44	C	1.118931	-0.049949	0.093013
C45	C	1.117918	-0.100408	0.093000
C46	C	1.123139	-0.128287	0.000080
O47	O	1.111469	-0.177987	0.171941
O48	O	1.132631	-0.187830	-0.171832
C49	C	1.123199	-0.413515	-0.092849
C50	C	1.116957	-0.436093	0.000049
C51	C	1.111730	-0.408212	0.092952
C52	C	1.115951	-0.486555	0.000045
C53	C	1.121178	-0.514436	-0.092858
C54	C	1.127411	-0.491856	-0.185757
C55	C	1.128426	-0.441397	-0.185752
C56	C	1.105497	-0.430793	0.185851
C57	C	1.104484	-0.481252	0.185838
C58	C	1.109711	-0.509133	0.092935
C59	C	1.291233	0.118301	0.000084
C60	C	1.396377	0.123788	0.000085
C61	C	1.109755	0.202378	0.000042
C62	C	1.110819	0.256084	0.000025
N63	N	1.101620	0.121963	0.265589
N64	N	1.134376	0.106753	-0.265448
C65	C	1.088766	0.127937	0.474629
C66	C	1.147227	0.100780	0.525519
C67	C	1.140075	0.104104	0.641835
C68	C	1.095917	0.124613	0.358302
H69	H	0.619492	0.171327	0.000045
H70	H	1.134708	-0.363174	-0.261398
N71	N	1.216790	0.068506	0.470577
N72	N	1.303626	0.073251	0.482460
H73	H	1.352762	0.050465	0.443647
N74	N	1.111531	-0.123468	0.187905
N75	N	1.041005	-0.114471	0.250095
H76	H	1.036484	-0.130754	0.317123
N77	N	1.019257	0.160243	0.529549
N78	N	1.020759	0.204612	0.517655
H79	H	0.971671	0.227430	0.556452
H80	H	1.131672	-0.514565	-0.261403
H81	H	1.133509	-0.423019	-0.261405
H82	H	1.135483	-0.036866	-0.168454
N83	N	0.608694	0.047850	0.000093
N84	N	0.520466	0.043327	0.000102
H85	H	0.493331	0.010098	0.000116
N86	N	1.134710	-0.134175	-0.187732
N87	N	1.140282	-0.114001	-0.270662
H88	H	1.144051	-0.134105	-0.337703
H89	H	1.123149	-0.652494	-0.168528
N90	N	1.137843	-0.266969	-0.280646
N91	N	1.142506	-0.291877	-0.363580
H92	H	1.147004	-0.275600	-0.430617
H93	H	1.121311	-0.744046	-0.168527
N94	N	1.098118	-0.504304	0.280755
N95	N	1.093451	-0.479398	0.363692
H96	H	1.088949	-0.495676	0.430727
N97	N	1.099236	-0.739087	0.187837
N98	N	1.094569	-0.714182	0.270775
H99	H	1.090076	-0.730460	0.337809
H100	H	1.102339	-0.642877	0.168594
H101	H	1.102424	-0.348243	0.261527
N102	N	1.103154	-0.250932	0.280787
N103	N	1.097576	-0.271101	0.363723
H104	H	1.093792	-0.250995	0.430759
N105	N	1.113580	-0.021455	0.187896
N106	N	1.046065	0.008874	0.208598
H107	H	1.042279	0.029000	0.275609
N108	N	1.100153	-0.402324	0.280764
N109	N	1.094586	-0.422497	0.363695
H110	H	1.090816	-0.402393	0.430734
