data_functionalizedCrystal
_audit_creation_method	'MofGen! by Chris Wilmer'
_symmetry_space_group_name_H-M	'P1'
_symmetry_Int_Tables_number	1
_symmetry_cell_setting	triclinic
loop_
_symmetry_equiv_pos_as_xyz
  x,y,z
_cell_length_a	10.489741
_cell_length_b	15.944551
_cell_length_c	14.421503
_cell_angle_alpha	90.001526
_cell_angle_beta	89.995142
_cell_angle_gamma	84.018956
loop_
_atom_site_label
_atom_site_type_symbol
_atom_site_fract_x
_atom_site_fract_y
_atom_site_fract_z
O1	O	1.692418	0.118497	-0.077057
O2	O	1.321068	0.129621	-0.077071
O3	O	1.516884	0.001845	-0.077055
O4	O	1.496602	0.246273	-0.077073
O5	O	1.516853	0.001860	0.077168
O6	O	1.321037	0.129636	0.077152
O7	O	1.692387	0.118512	0.077167
Cu8	Cu	1.506709	0.124075	0.091241
Cu9	Cu	1.506746	0.124058	-0.091146
O10	O	1.496571	0.246288	0.077151
C11	C	1.273532	0.128788	0.000039
C12	C	1.131938	0.126275	0.000033
C13	C	1.064925	0.044975	0.000048
C14	C	0.972281	0.083373	-0.075993
C15	C	0.972284	0.083406	0.076059
C16	C	1.041159	0.164706	-0.076070
C17	C	1.041171	0.164729	0.076050
C18	C	0.948554	0.203186	-0.000009
C19	C	1.516026	-0.029446	0.000057
C20	C	1.513502	-0.122708	0.000057
C21	C	1.386093	-0.338330	0.000039
C22	C	1.445242	-0.398985	0.076083
C23	C	1.508935	-0.293461	0.000050
C24	C	1.445302	-0.398982	-0.075969
C25	C	1.504515	-0.458400	0.000039
C26	C	1.568118	-0.352887	0.076156
C27	C	1.568161	-0.352878	-0.075964
C28	C	1.627399	-0.413515	0.000098
C29	C	1.511478	-0.198443	0.000057
C30	C	1.501982	-0.553417	0.000038
C31	C	1.739922	0.119345	0.000055
C32	C	1.881517	0.121858	0.000054
C33	C	1.497429	0.277579	0.000037
C34	C	1.499953	0.370841	0.000030
N35	N	1.506692	0.124087	0.219523
N36	N	1.506773	0.124040	-0.219427
C37	C	1.416895	0.183642	0.530969
C38	C	1.391086	0.107817	0.469145
C39	C	1.506745	0.124054	0.591412
C40	C	1.532467	0.199892	0.469142
C41	C	1.506716	0.124074	0.408690
C42	C	1.480879	0.048191	0.530948
C43	C	1.622311	0.140315	0.530951
C44	C	1.596551	0.064436	0.469155
C45	C	1.506759	0.124043	0.696673
C46	C	1.506703	0.124076	0.303431
H47	H	0.941756	0.048967	-0.140277
N48	N	0.885397	0.287118	-0.000072
N49	N	0.903192	0.336061	-0.065424
H50	H	0.858587	0.395338	-0.065473
H51	H	1.554253	0.264021	0.442010
N52	N	1.079496	0.207866	0.156693
N53	N	0.997434	0.236183	0.214655
H54	H	1.024502	0.266645	0.271616
N55	N	0.934006	0.040234	0.156701
N56	N	0.976179	-0.035007	0.170232
H57	H	0.949149	-0.065505	0.227180
N58	N	1.258176	-0.297322	0.000132
N59	N	1.183818	-0.309620	0.065321
H60	H	1.093478	-0.280658	0.065390
H61	H	1.729454	-0.446060	0.000145
N62	N	1.744880	0.157612	0.565044
N63	N	1.753900	0.220292	0.615764
H64	H	1.840464	0.232518	0.639845
H65	H	1.393271	-0.419399	0.140368
N66	N	1.633328	-0.327240	-0.156601
N67	N	1.747389	-0.355280	-0.170900
H68	H	1.793409	-0.337172	-0.227857
H69	H	1.115541	-0.021859	-0.000042
N70	N	1.380144	-0.424584	-0.156628
N71	N	1.437814	-0.474034	-0.213569
H72	H	1.391791	-0.492113	-0.270533
H73	H	1.340872	0.233966	0.558110
H74	H	1.293343	0.094069	0.441989
H75	H	1.620019	-0.332578	0.140516
H76	H	1.672526	0.013999	0.442186
N77	N	1.079256	0.207836	-0.156794
N78	N	1.194889	0.216712	-0.169840
H79	H	1.221799	0.247177	-0.226847
N80	N	1.453423	-0.032269	0.564871
N81	N	1.448958	-0.045253	0.650229
H82	H	1.429561	-0.102075	0.674190
