data_functionalizedCrystal
_audit_creation_method	'MofGen! by Chris Wilmer'
_symmetry_space_group_name_H-M	'P1'
_symmetry_Int_Tables_number	1
_symmetry_cell_setting	triclinic
loop_
_symmetry_equiv_pos_as_xyz
  x,y,z
_cell_length_a	12.827892
_cell_length_b	10.685972
_cell_length_c	10.685910
_cell_angle_alpha	81.605763
_cell_angle_beta	94.377708
_cell_angle_gamma	85.619715
loop_
_atom_site_label
_atom_site_type_symbol
_atom_site_fract_x
_atom_site_fract_y
_atom_site_fract_z
Zn1	Zn	-0.234646	-1.995513	0.866733
Zn2	Zn	0.098687	-1.662180	1.200066
Zn3	Zn	0.432020	-1.328846	1.533399
Zn4	Zn	-0.423870	-1.979157	0.654477
Zn5	Zn	-0.090537	-1.645823	0.987811
Zn6	Zn	0.242797	-1.312490	1.321144
Zn7	Zn	-0.263629	-1.767012	0.638198
Zn8	Zn	0.069704	-1.433679	0.971531
Zn9	Zn	0.403038	-1.100346	1.304865
Zn10	Zn	-0.423846	-1.783217	0.850378
Zn11	Zn	-0.090513	-1.449884	1.183711
Zn12	Zn	0.242821	-1.116551	1.517045
O13	O	-0.336498	-1.881225	0.752447
O14	O	-0.003164	-1.547891	1.085780
O15	O	0.330169	-1.214558	1.419113
O16	O	-0.247628	-2.170973	0.852234
O17	O	0.085705	-1.837639	1.185567
O18	O	0.419039	-1.504306	1.518901
O19	O	-0.414753	-1.937388	0.474690
O20	O	-0.081420	-1.604055	0.808023
O21	O	0.251914	-1.270721	1.141357
O22	O	-0.113542	-1.797387	0.668545
O23	O	0.219791	-1.464053	1.001879
O24	O	0.553124	-1.130720	1.335212
O25	O	-0.386650	-2.158956	0.696291
O26	O	-0.053316	-1.825622	1.029624
O27	O	0.280017	-1.492289	1.362958
O28	O	-0.092249	-1.965265	0.836449
O29	O	0.241084	-1.631932	1.169782
O30	O	0.574418	-1.298599	1.503116
O31	O	-0.297025	-1.781527	0.462730
O32	O	0.036309	-1.448193	0.796063
O33	O	0.369642	-1.114860	1.129397
O34	O	-0.297001	-1.591532	0.652687
O35	O	0.036332	-1.258199	0.986020
O36	O	0.369665	-0.924866	1.319353
O37	O	-0.386609	-1.825006	1.030175
O38	O	-0.053276	-1.491672	1.363508
O39	O	0.280058	-1.158339	1.696842
O40	O	-0.414712	-1.603438	0.808574
O41	O	-0.081379	-1.270105	1.141908
O42	O	0.251955	-0.936771	1.475241
O43	O	-0.247605	-1.980979	1.042191
O44	O	0.085729	-1.647645	1.375524
O45	O	0.419062	-1.314312	1.708858
O46	O	-0.570109	-1.953101	0.680432
O47	O	-0.236775	-1.619768	1.013766
O48	O	0.096558	-1.286435	1.347099
O49	O	-0.570091	-1.809146	0.824360
O50	O	-0.236758	-1.475812	1.157693
O51	O	0.096576	-1.142479	1.491026
C52	C	-0.359000	-1.551428	0.727090
C53	C	-0.025666	-1.218095	1.060423
C54	C	0.307667	-0.884761	1.393757
C55	C	-0.368649	-1.410342	0.716273
C56	C	-0.035316	-1.077008	1.049606
C57	C	0.298017	-0.743675	1.382939
C58	C	-0.608015	-1.881144	0.752418
C59	C	-0.274681	-1.547810	1.085751
C60	C	0.058652	-1.214477	1.419085
C61	C	-0.724160	-1.881228	0.752457
C62	C	-0.390827	-1.547895	1.085791
C63	C	-0.057493	-1.214562	1.419124
C64	C	-0.775907	-1.952560	0.681330
C65	C	-0.442573	-1.619227	1.014663
C66	C	-0.109240	-1.285894	1.347997
C67	C	-0.895949	-1.952649	0.681369
C68	C	-0.562615	-1.619316	1.014702
C69	C	-0.229282	-1.285983	1.348036
C70	C	-0.063916	-1.881343	0.752506
C71	C	0.269417	-1.548010	1.085839
C72	C	0.602750	-1.214676	1.419172
C73	C	0.052242	-1.881393	0.752531
C74	C	0.385575	-1.548060	1.085864
C75	C	0.718908	-1.214727	1.419197
C76	C	-0.313871	-1.906624	1.083528
C77	C	0.019462	-1.573291	1.416861
C78	C	0.352795	-1.239958	1.750194
C79	C	-0.304229	-1.917448	1.224615
C80	C	0.029104	-1.584115	1.557948
C81	C	0.362438	-1.250781	1.891281
C82	C	-0.313902	-1.212309	0.777897
C83	C	0.019431	-0.878976	1.111230
C84	C	0.352765	-0.545642	1.444563
C85	C	-0.304256	-1.353396	0.788727
C86	C	0.029077	-1.020063	1.122060
C87	C	0.362411	-0.686730	1.455394
C88	C	-0.359062	-1.855917	1.422653
C89	C	-0.025729	-1.522583	1.755986
C90	C	0.307605	-1.189250	2.089319
C91	C	-0.368709	-1.845100	1.281566
C92	C	-0.035376	-1.511767	1.614899
C93	C	0.297957	-1.178433	1.948233
H94	H	-0.431166	-1.351153	0.645955
H95	H	-0.097832	-1.017819	0.979288
H96	H	0.235501	-0.684486	1.312622
O97	O	-0.716883	-2.033403	0.600651
O98	O	-0.383549	-1.700070	0.933985
O99	O	-0.050216	-1.366736	1.267318
H100	H	-0.631858	-2.020656	0.613291
H101	H	-0.298525	-1.687322	0.946624
H102	H	0.034809	-1.353989	1.279957
O103	O	-0.954879	-2.033575	0.600724
O104	O	-0.621545	-1.700242	0.934057
O105	O	-0.288212	-1.366908	1.267390
H106	H	-1.039914	-2.020965	0.613428
H107	H	-0.706580	-1.687631	0.946761
H108	H	-0.373247	-1.354298	1.280094
H109	H	-0.431293	-1.774882	1.222389
H110	H	-0.097960	-1.441549	1.555722
H111	H	0.235374	-1.108216	1.889056
H112	H	-0.241648	-1.987679	1.283799
H113	H	0.091685	-1.654346	1.617133
H114	H	0.425019	-1.321012	1.950466
O115	O	-0.888839	-1.800480	0.833200
O116	O	-0.555505	-1.467147	1.166534
O117	O	-0.222172	-1.133813	1.499867
H118	H	-0.830765	-1.862206	0.902136
H119	H	-0.497432	-1.528873	1.235469
H120	H	-0.164098	-1.195539	1.568802
O121	O	-0.221444	-1.431775	0.881868
O122	O	0.111890	-1.098442	1.215201
O123	O	0.445223	-0.765109	1.548535
H124	H	-0.226607	-1.534007	0.876044
H125	H	0.106727	-1.200674	1.209378
H126	H	0.440060	-0.867341	1.542711
O127	O	-0.783193	-1.800415	0.833154
O128	O	-0.449860	-1.467081	1.166487
O129	O	-0.116526	-1.133748	1.499820
H130	H	-0.753979	-1.829713	0.934479
H131	H	-0.420645	-1.496380	1.267812
H132	H	-0.087312	-1.163047	1.601146
