data_functionalizedCrystal
_audit_creation_method	'MofGen! by Chris Wilmer'
_symmetry_space_group_name_H-M	'P1'
_symmetry_Int_Tables_number	1
_symmetry_cell_setting	triclinic
loop_
_symmetry_equiv_pos_as_xyz
  x,y,z
_cell_length_a	10.489711
_cell_length_b	11.026607
_cell_length_c	10.065875
_cell_angle_alpha	79.268236
_cell_angle_beta	81.162019
_cell_angle_gamma	83.443487
loop_
_atom_site_label
_atom_site_type_symbol
_atom_site_fract_x
_atom_site_fract_y
_atom_site_fract_z
O1	O	1.746376	-0.153658	-0.113541
O2	O	1.378725	-0.169799	-0.113532
O3	O	1.532079	0.015187	-0.113531
O4	O	1.593022	-0.338644	-0.113542
O5	O	1.502869	-0.020230	0.113458
O6	O	1.349515	-0.205217	0.113456
O7	O	1.717166	-0.189075	0.113448
Zn8	Zn	1.528703	-0.202769	0.149491
Zn9	Zn	1.567188	-0.156105	-0.149576
O10	O	1.563812	-0.374061	0.113446
C11	C	1.316321	-0.186297	-0.000037
C12	C	1.173892	-0.182673	-0.000034
C13	C	1.015979	-0.293915	-0.000053
C14	C	1.110302	-0.220885	-0.111966
C15	C	1.081470	-0.255774	0.111827
C16	C	1.014460	-0.103106	-0.112068
C17	C	0.985609	-0.138026	0.111825
C18	C	1.079889	-0.064906	-0.000116
C19	C	1.506232	0.042786	-0.000038
C20	C	1.472718	0.177790	-0.000042
C21	C	1.779570	-0.172577	-0.000050
C22	C	1.922000	-0.176199	-0.000063
C23	C	1.589659	-0.401660	-0.000049
C24	C	1.623174	-0.536663	-0.000054
N25	N	1.502447	-0.234615	0.353597
C26	C	1.565257	0.250797	-0.000046
C27	C	1.530621	0.390332	-0.000050
N28	N	1.593452	-0.124250	-0.353681
C29	C	1.558043	-0.167178	0.421376
C30	C	1.537848	-0.191697	0.578543
H31	H	1.164430	-0.255933	-0.206580
O32	O	1.668149	-0.033759	0.576767
C33	C	1.794874	-0.059585	0.611326
H34	H	1.792532	-0.122454	0.715150
H35	H	1.835891	0.030722	0.615866
H36	H	1.858672	-0.107903	0.530908
H37	H	1.439892	-0.310499	0.411922
H38	H	1.670125	0.209999	-0.000040
H39	H	1.425747	0.431124	-0.000057
O40	O	1.748270	0.414574	-0.000238
C41	C	1.788301	0.360355	-0.117814
H42	H	1.699810	0.335871	-0.157006
H43	H	1.854810	0.272668	-0.091376
H44	H	1.842652	0.428680	-0.200135
H45	H	1.475289	-0.267585	0.636863
H46	H	0.984894	-0.038565	-0.206793
O47	O	1.117178	-0.332816	0.224606
C48	C	1.251891	-0.334338	0.223710
H49	H	1.300271	-0.305592	0.114626
H50	H	1.292593	-0.431795	0.266104
H51	H	1.271741	-0.266861	0.289675
H52	H	1.367851	0.218589	-0.000049
H53	H	0.987586	-0.390650	-0.000167
O54	O	1.113475	0.050687	-0.000419
C55	C	1.079440	0.130716	-0.118554
H56	H	1.072674	0.074017	-0.200661
H57	H	1.156347	0.198783	-0.157607
H58	H	0.981781	0.184062	-0.092923
O59	O	1.632538	-0.076609	0.351626
C60	C	1.557275	0.011682	0.268974
H61	H	1.471221	-0.032743	0.247759
H62	H	1.619007	0.046092	0.168410
H63	H	1.520739	0.093090	0.323914
H64	H	0.931462	-0.103024	0.206448
