data_functionalizedCrystal
_audit_creation_method	'MofGen! by Chris Wilmer'
_symmetry_space_group_name_H-M	'P1'
_symmetry_Int_Tables_number	1
_symmetry_cell_setting	triclinic
loop_
_symmetry_equiv_pos_as_xyz
  x,y,z
_cell_length_a	16.109301
_cell_length_b	16.109298
_cell_length_c	15.186229
_cell_angle_alpha	89.993420
_cell_angle_beta	89.994804
_cell_angle_gamma	83.460834
loop_
_atom_site_label
_atom_site_type_symbol
_atom_site_fract_x
_atom_site_fract_y
_atom_site_fract_z
O1	O	1.103134	0.106876	-0.073162
O2	O	1.353134	0.356876	0.176838
O3	O	1.603134	0.606876	0.426838
O4	O	1.853134	0.856876	0.676838
O5	O	0.861072	0.120175	-0.073175
O6	O	1.111072	0.370175	0.176825
O7	O	1.361072	0.620175	0.426825
O8	O	1.611072	0.870175	0.676825
O9	O	0.988754	-0.007506	-0.073174
O10	O	1.238754	0.242494	0.176826
O11	O	1.488754	0.492494	0.426826
O12	O	1.738754	0.742494	0.676826
O13	O	0.975452	0.234556	-0.073163
O14	O	1.225452	0.484556	0.176837
O15	O	1.475452	0.734556	0.426837
O16	O	1.725452	0.984556	0.676837
O17	O	0.988736	-0.007527	0.073283
O18	O	1.238736	0.242473	0.323283
O19	O	1.488736	0.492473	0.573283
O20	O	1.738736	0.742473	0.823283
O21	O	0.861054	0.120154	0.073282
O22	O	1.111054	0.370154	0.323282
O23	O	1.361054	0.620154	0.573282
O24	O	1.611054	0.870154	0.823282
O25	O	1.103116	0.106855	0.073295
O26	O	1.353116	0.356855	0.323295
O27	O	1.603116	0.606855	0.573295
O28	O	1.853116	0.856855	0.823295
Zn29	Zn	0.982083	0.113501	0.096542
Zn30	Zn	1.232083	0.363501	0.346542
Zn31	Zn	1.482083	0.613501	0.596542
Zn32	Zn	1.732083	0.863501	0.846542
Zn33	Zn	0.982106	0.113529	-0.096422
Zn34	Zn	1.232106	0.363529	0.153578
Zn35	Zn	1.482106	0.613529	0.403578
Zn36	Zn	1.732106	0.863529	0.653578
O37	O	0.975434	0.234536	0.073295
O38	O	1.225434	0.484536	0.323295
O39	O	1.475434	0.734536	0.573295
O40	O	1.725434	0.984536	0.823295
C41	C	0.830088	0.119626	0.000052
C42	C	1.080088	0.369626	0.250052
C43	C	1.330088	0.619626	0.500052
C44	C	1.580088	0.869626	0.750052
C45	C	0.737793	0.118011	0.000047
C46	C	0.987793	0.368011	0.250047
C47	C	1.237793	0.618011	0.500047
C48	C	1.487793	0.868011	0.750047
C49	C	0.988207	-0.038491	0.000051
C50	C	1.238207	0.211509	0.250051
C51	C	1.488207	0.461509	0.500051
C52	C	1.738207	0.711509	0.750051
C53	C	0.986593	-0.130787	0.000040
C54	C	1.236593	0.119213	0.250040
C55	C	1.486593	0.369213	0.500040
C56	C	1.736593	0.619213	0.750040
C57	C	0.981335	-0.429844	-0.079775
C58	C	1.231335	-0.179844	0.170225
C59	C	1.481335	0.070156	0.420225
C60	C	1.731335	0.320156	0.670225
C61	C	0.982863	-0.343124	-0.079782
C62	C	1.232863	-0.093124	0.170218
C63	C	1.482863	0.156876	0.420218
C64	C	1.732863	0.406876	0.670218
C65	C	0.982856	-0.343132	0.079894
C66	C	1.232856	-0.093132	0.329894
C67	C	1.482856	0.156868	0.579894
C68	C	1.732856	0.406868	0.829894
C69	C	0.981334	-0.429851	0.079899
C70	C	1.231334	-0.179851	0.329899
C71	C	1.481334	0.070149	0.579899
C72	C	1.731334	0.320149	0.829899
C73	C	0.980569	-0.473205	0.000062
C74	C	1.230569	-0.223205	0.250062
C75	C	1.480569	0.026795	0.500062
C76	C	1.730569	0.276795	0.750062
C77	C	0.983619	-0.299766	0.000051
C78	C	1.233619	-0.049766	0.250051
C79	C	1.483619	0.200234	0.500051
C80	C	1.733619	0.450234	0.750051
C81	C	0.985276	-0.205740	0.000044
C82	C	1.235276	0.044260	0.250044
C83	C	1.485276	0.294260	0.500044
C84	C	1.735276	0.544260	0.750044
C85	C	0.978914	-0.567236	0.000068
C86	C	1.228914	-0.317236	0.250068
C87	C	1.478914	-0.067236	0.500068
C88	C	1.728914	0.182764	0.750068
C89	C	0.515520	0.190019	0.000060
C90	C	0.765520	0.440019	0.250060
C91	C	1.015520	0.690019	0.500060
C92	C	1.265520	0.940019	0.750060
C93	C	0.428799	0.188495	0.000066
C94	C	0.678799	0.438495	0.250066
C95	C	0.928799	0.688495	0.500066
C96	C	1.178799	0.938495	0.750066
C97	C	0.448675	0.037006	0.000055
C98	C	0.698675	0.287006	0.250055
C99	C	0.948675	0.537006	0.500055
C100	C	1.198675	0.787006	0.750055
C101	C	0.535394	0.038531	0.000056
C102	C	0.785394	0.288531	0.250056
C103	C	1.035394	0.538531	0.500056
C104	C	1.285394	0.788531	0.750056
C105	C	0.568814	0.115039	0.000054
C106	C	0.818814	0.365039	0.250054
C107	C	1.068814	0.615039	0.500054
C108	C	1.318814	0.865039	0.750054
C109	C	0.395375	0.111990	0.000059
C110	C	0.645375	0.361990	0.250059
C111	C	0.895375	0.611990	0.500059
C112	C	1.145375	0.861990	0.750059
C113	C	0.301349	0.110337	0.000065
C114	C	0.551349	0.360337	0.250065
C115	C	0.801349	0.610337	0.500065
C116	C	1.051349	0.860337	0.750065
C117	C	0.662846	0.116693	0.000049
C118	C	0.912846	0.366693	0.250049
C119	C	1.162846	0.616693	0.500049
C120	C	1.412846	0.866693	0.750049
C121	C	1.134100	0.107404	0.000066
C122	C	1.384100	0.357404	0.250066
C123	C	1.634100	0.607404	0.500066
C124	C	1.884100	0.857404	0.750066
C125	C	1.226395	0.109019	0.000066
C126	C	1.476395	0.359019	0.250066
C127	C	1.726395	0.609019	0.500066
C128	C	1.976395	0.859019	0.750066
C129	C	0.975981	0.265521	0.000068
C130	C	1.225981	0.515521	0.250068
C131	C	1.475981	0.765521	0.500068
C132	C	1.725981	1.015521	0.750068
C133	C	0.977595	0.357817	0.000072
C134	C	1.227595	0.607817	0.250072
C135	C	1.477595	0.857817	0.500072
C136	C	1.727595	1.107817	0.750072
N137	N	0.982073	0.113482	0.228235
N138	N	1.232073	0.363482	0.478235
N139	N	1.482073	0.613482	0.728235
N140	N	1.732073	0.863482	0.978235
N141	N	0.982122	0.113541	-0.228114
N142	N	1.232122	0.363541	0.021886
N143	N	1.482122	0.613541	0.271886
N144	N	1.732122	0.863541	0.521886
C145	C	0.931693	0.063079	0.546181
C146	C	1.181693	0.313079	0.796181
C147	C	1.431693	0.563079	1.046181
C148	C	1.681693	0.813079	1.296181
C149	C	0.931686	0.063067	0.453992
C150	C	1.181686	0.313067	0.703992
C151	C	1.431686	0.563067	0.953992
C152	C	1.681686	0.813067	1.203992
C153	C	1.032508	0.163946	0.453945
C154	C	1.282508	0.413946	0.703945
C155	C	1.532508	0.663946	0.953945
C156	C	1.782508	0.913946	1.203945
C157	C	1.032519	0.163953	0.546133
C158	C	1.282519	0.413953	0.796133
C159	C	1.532519	0.663953	1.046133
C160	C	1.782519	0.913953	1.296133
C161	C	0.982106	0.113521	0.592249
C162	C	1.232106	0.363521	0.842249
C163	C	1.482106	0.613521	1.092249
C164	C	1.732106	0.863521	1.342249
C165	C	0.982088	0.113502	0.407871
C166	C	1.232088	0.363502	0.657871
C167	C	1.482088	0.613502	0.907871
C168	C	1.732088	0.863502	1.157871
C169	C	0.982081	0.113489	0.307915
C170	C	1.232081	0.363489	0.557915
C171	C	1.482081	0.613489	0.807915
C172	C	1.732081	0.863489	1.057915
C173	C	0.982115	0.113533	0.692211
C174	C	1.232115	0.363533	0.942211
C175	C	1.482115	0.613533	1.192211
C176	C	1.732115	0.863533	1.442211
H177	H	0.983487	-0.307824	-0.144793
H178	H	1.233487	-0.057824	0.105207
H179	H	1.483487	0.192176	0.355207
H180	H	1.733487	0.442176	0.605207
H181	H	0.983477	-0.307823	0.144895
H182	H	1.233477	-0.057823	0.394895
H183	H	1.483477	0.192177	0.644895
H184	H	1.733477	0.442177	0.894895
H185	H	0.542727	0.252317	0.000066
H186	H	0.792727	0.502317	0.250066
H187	H	1.042727	0.752317	0.500066
H188	H	1.292727	1.002317	0.750066
C189	C	0.980488	-0.477551	0.167725
C190	C	1.230488	-0.227551	0.417725
C191	C	1.480488	0.022449	0.667725
C192	C	1.730488	0.272449	0.917725
H193	H	0.981149	-0.439311	0.215272
H194	H	1.231149	-0.189311	0.465272
H195	H	1.481149	0.060689	0.715272
H196	H	1.731149	0.310689	0.965272
H197	H	1.028348	-0.517737	0.171044
H198	H	1.278348	-0.267737	0.421044
H199	H	1.528348	-0.017737	0.671044
H200	H	1.778348	0.232263	0.921044
H201	H	0.931434	-0.505022	0.171043
H202	H	1.181434	-0.255022	0.421043
H203	H	1.431434	-0.005022	0.671043
H204	H	1.681434	0.244978	0.921043
C205	C	1.087973	0.219443	0.596815
C206	C	1.337973	0.469443	0.846815
C207	C	1.587973	0.719443	1.096815
C208	C	1.837973	0.969443	1.346815
H209	H	1.080764	0.212216	0.658323
H210	H	1.330764	0.462216	0.908323
H211	H	1.580764	0.712216	1.158323
H212	H	1.830764	0.962216	1.408323
H213	H	1.072510	0.276325	0.581700
H214	H	1.322510	0.526325	0.831700
H215	H	1.572510	0.776325	1.081700
H216	H	1.822510	1.026325	1.331700
H217	H	1.144862	0.204003	0.581698
H218	H	1.394862	0.454003	0.831698
H219	H	1.644862	0.704003	1.081698
H220	H	1.894862	0.954003	1.331698
C221	C	0.594025	-0.043948	0.000047
C222	C	0.844025	0.206052	0.250047
C223	C	1.094025	0.456052	0.500047
C224	C	1.344025	0.706052	0.750047
H225	H	0.650457	-0.032081	0.000057
H226	H	0.900457	0.217919	0.250057
H227	H	1.150457	0.467919	0.500057
H228	H	1.400457	0.717919	0.750057
H229	H	0.583904	-0.075314	-0.051027
H230	H	0.833904	0.174686	0.198973
H231	H	1.083904	0.424686	0.448973
H232	H	1.333904	0.674686	0.698973
H233	H	0.583893	-0.075327	0.051125
H234	H	0.833893	0.174673	0.301125
H235	H	1.083893	0.424673	0.551125
H236	H	1.333893	0.674673	0.801125
C237	C	0.876242	0.007607	0.596906
C238	C	1.126242	0.257607	0.846906
C239	C	1.376242	0.507607	1.096906
C240	C	1.626242	0.757607	1.346906
H241	H	0.846221	-0.022439	0.556263
H242	H	1.096221	0.227561	0.806263
H243	H	1.346221	0.477561	1.056263
H244	H	1.596221	0.727561	1.306263
H245	H	0.837976	0.041674	0.632867
H246	H	1.087976	0.291674	0.882867
H247	H	1.337976	0.541674	1.132867
H248	H	1.587976	0.791674	1.382867
H249	H	0.910326	-0.030650	0.632871
H250	H	1.160326	0.219350	0.882871
H251	H	1.410326	0.469350	1.132871
H252	H	1.660326	0.719350	1.382871
C253	C	0.370179	0.270972	0.000067
C254	C	0.620179	0.520972	0.250067
C255	C	0.870179	0.770972	0.500067
C256	C	1.120179	1.020972	0.750067
H257	H	0.402506	0.316752	0.000059
H258	H	0.652506	0.566752	0.250059
H259	H	0.902506	0.816752	0.500059
H260	H	1.152506	1.066752	0.750059
H261	H	0.335933	0.273522	0.051139
H262	H	0.585933	0.523522	0.301139
H263	H	0.835933	0.773522	0.551139
H264	H	1.085933	1.023522	0.801139
H265	H	0.335942	0.273531	-0.051013
H266	H	0.585942	0.523531	0.198987
H267	H	0.835942	0.773531	0.448987
H268	H	1.085942	1.023531	0.698987
H269	H	0.890635	0.021992	0.416488
H270	H	1.140635	0.271992	0.666488
H271	H	1.390635	0.521992	0.916488
H272	H	1.640635	0.771992	1.166488
C273	C	0.411910	-0.047147	0.000045
C274	C	0.661910	0.202853	0.250045
C275	C	0.911910	0.452853	0.500045
C276	C	1.161910	0.702853	0.750045
H277	H	0.352631	-0.037318	0.000036
H278	H	0.602631	0.212682	0.250036
H279	H	0.852631	0.462682	0.500036
H280	H	1.102631	0.712682	0.750036
H281	H	0.430200	-0.078031	0.051114
H282	H	0.680200	0.171969	0.301114
H283	H	0.930200	0.421969	0.551114
H284	H	1.180200	0.671969	0.801114
H285	H	0.430211	-0.078006	-0.051038
H286	H	0.680211	0.171994	0.198962
H287	H	0.930211	0.421994	0.448962
H288	H	1.180211	0.671994	0.698962
C289	C	0.980519	-0.477533	-0.167592
C290	C	1.230519	-0.227533	0.082408
C291	C	1.480519	0.022467	0.332408
C292	C	1.730519	0.272467	0.582408
H293	H	0.981207	-0.439288	-0.215141
H294	H	1.231207	-0.189288	0.034859
H295	H	1.481207	0.060712	0.284859
H296	H	1.731207	0.310712	0.534859
H297	H	0.931477	-0.505014	-0.170923
H298	H	1.181477	-0.255014	0.079077
H299	H	1.431477	-0.005014	0.329077
H300	H	1.681477	0.244986	0.579077
H301	H	1.028392	-0.517712	-0.170897
H302	H	1.278392	-0.267712	0.079103
H303	H	1.528392	-0.017712	0.329103
H304	H	1.778392	0.232288	0.579103
H305	H	1.073551	0.205007	0.416387
H306	H	1.323551	0.455007	0.666387
H307	H	1.573551	0.705007	0.916387
H308	H	1.823551	0.955007	1.166387
