data_functionalizedCrystal
_audit_creation_method	'MofGen! by Chris Wilmer'
_symmetry_space_group_name_H-M	'P1'
_symmetry_Int_Tables_number	1
_symmetry_cell_setting	triclinic
loop_
_symmetry_equiv_pos_as_xyz
  x,y,z
_cell_length_a	14.971486
_cell_length_b	13.448316
_cell_length_c	14.971506
_cell_angle_alpha	90.005023
_cell_angle_beta	83.618258
_cell_angle_gamma	90.001801
loop_
_atom_site_label
_atom_site_type_symbol
_atom_site_fract_x
_atom_site_fract_y
_atom_site_fract_z
O1	O	1.186956	0.082574	0.116564
O2	O	1.686956	0.582574	0.616564
O3	O	0.926557	0.082601	0.130522
O4	O	1.426557	0.582601	0.630522
O5	O	1.063726	0.082584	-0.006656
O6	O	1.563726	0.582584	0.493344
O7	O	1.049786	0.082591	0.253742
O8	O	1.549786	0.582591	0.753742
O9	O	1.063709	-0.082800	-0.006664
O10	O	1.563709	0.417200	0.493336
O11	O	0.926539	-0.082783	0.130514
O12	O	1.426539	0.417217	0.630514
O13	O	1.186939	-0.082810	0.116555
O14	O	1.686939	0.417190	0.616555
Cu15	Cu	1.056737	-0.097897	0.123534
Cu16	Cu	1.556737	0.402103	0.623534
Cu17	Cu	1.056758	0.097688	0.123544
Cu18	Cu	1.556758	0.597688	0.623544
O19	O	1.049769	-0.082793	0.253733
O20	O	1.549769	0.417207	0.753733
C21	C	0.893223	-0.000088	0.129894
C22	C	1.393223	0.499912	0.629894
C23	C	0.793926	-0.000078	0.128023
C24	C	1.293926	0.499922	0.628023
C25	C	0.736707	-0.000077	0.208612
C26	C	1.236707	0.499923	0.708612
C27	C	0.643407	-0.000092	0.206849
C28	C	1.143407	0.499908	0.706849
C29	C	0.607329	-0.000100	0.124496
C30	C	1.107329	0.499900	0.624496
C31	C	0.664556	-0.000104	0.043901
C32	C	1.164556	0.499896	0.543901
C33	C	0.757853	-0.000096	0.045665
C34	C	1.257853	0.499904	0.545665
C35	C	0.470093	-0.000118	0.040230
C36	C	0.970093	0.499882	0.540230
C37	C	0.376789	-0.000124	0.038466
C38	C	0.876789	0.499876	0.538466
C39	C	0.355647	-0.000113	0.201414
C40	C	0.855647	0.499887	0.701414
C41	C	0.448944	-0.000106	0.203178
C42	C	0.948944	0.499894	0.703178
C43	C	0.506165	-0.000107	0.122582
C44	C	1.006165	0.499893	0.622582
N45	N	1.056730	-0.235462	0.123526
N46	N	1.556730	0.264538	0.623526
C47	C	1.117487	-0.287509	0.062809
C48	C	1.617487	0.212491	0.562809
C49	C	1.117493	-0.391613	0.062808
C50	C	1.617493	0.108387	0.562808
C51	C	1.056744	-0.443666	0.123530
C52	C	1.556744	0.056334	0.623530
C53	C	0.995980	-0.391611	0.184250
C54	C	1.495980	0.108389	0.684250
C55	C	0.995971	-0.287510	0.184246
C56	C	1.495971	0.212490	0.684246
C57	C	0.996005	-0.608591	0.184256
C58	C	1.496005	-0.108591	0.684256
C59	C	0.996015	-0.712700	0.184262
C60	C	1.496015	-0.212700	0.684262
C61	C	1.117527	-0.712694	0.062818
C62	C	1.617527	-0.212694	0.562818
C63	C	1.117518	-0.608593	0.062814
C64	C	1.617518	-0.108593	0.562814
C65	C	1.056754	-0.556545	0.123536
C66	C	1.556754	-0.056545	0.623536
C67	C	1.220272	-0.000119	0.117184
C68	C	1.720272	0.499881	0.617184
C69	C	1.319569	-0.000123	0.119054
C70	C	1.819569	0.499877	0.619054
C71	C	1.063091	-0.000106	-0.039984
C72	C	1.563091	0.499894	0.460016
C73	C	1.061213	-0.000102	-0.139281
C74	C	1.561213	0.499898	0.360719
N75	N	1.056773	0.235252	0.123544
N76	N	1.556773	0.735252	0.623544
C77	C	1.134631	-0.000110	-0.577563
C78	C	1.634631	0.499890	-0.077563
C79	C	1.136389	-0.000117	-0.484263
C80	C	1.636389	0.499883	0.015737
C81	C	1.055796	-0.000105	-0.427043
C82	C	1.555796	0.499895	0.072957
C83	C	0.973441	-0.000097	-0.463127
C84	C	1.473441	0.499903	0.036873
C85	C	0.971685	-0.000097	-0.556426
C86	C	1.471685	0.499903	-0.056426
C87	C	0.977108	-0.000093	-0.268664
C88	C	1.477108	0.499907	0.231336
C89	C	0.978864	-0.000091	-0.175359
C90	C	1.478864	0.499909	0.324641
C91	C	1.141812	-0.000113	-0.196501
C92	C	1.641812	0.499887	0.303499
C93	C	1.140055	-0.000113	-0.289800
C94	C	1.640055	0.499887	0.210200
C95	C	1.057700	-0.000103	-0.325878
C96	C	1.557700	0.499897	0.174122
C97	C	1.050404	-0.000101	0.287062
C98	C	1.550404	0.499899	0.787062
C99	C	1.052282	-0.000099	0.386358
C100	C	1.552282	0.499901	0.886358
H101	H	0.309053	-0.000116	0.267037
H102	H	0.809053	0.499884	0.767037
H103	H	1.200259	-0.000111	-0.624146
H104	H	1.700259	0.499889	-0.124146
C105	C	0.533034	-0.000116	-0.048429
C106	C	1.033034	0.499884	0.451571
N107	N	0.580441	-0.000108	-0.115206
N108	N	1.080441	0.499892	0.384794
H109	H	0.347417	-0.000132	-0.028593
H110	H	0.847417	0.499868	0.471407
C111	C	0.488628	-0.000100	0.293769
C112	C	0.988628	0.499900	0.793769
N113	N	0.518518	-0.000102	0.362005
N114	N	1.018518	0.499898	0.862005
C115	C	1.226979	-0.000129	-0.444581
C116	C	1.726979	0.499871	0.055419
N117	N	1.295215	-0.000139	-0.414694
N118	N	1.795215	0.499861	0.085306
C119	C	0.929153	-0.551341	0.251044
C120	C	1.429153	-0.051341	0.751044
N121	N	0.878800	-0.508220	0.301348
N122	N	1.378800	-0.008220	0.801348
H123	H	0.635173	-0.000125	-0.023152
H124	H	1.135173	0.499875	0.476848
H125	H	0.904628	-0.000096	-0.585799
H126	H	1.404628	0.499904	-0.085799
H127	H	1.166988	-0.566211	0.013374
H128	H	1.666988	-0.066211	0.513374
C129	C	1.184364	-0.769949	-0.003980
C130	C	1.684364	-0.269949	0.496020
N131	N	1.234705	-0.813077	-0.054289
N132	N	1.734705	-0.313077	0.445711
H133	H	1.208869	-0.000029	-0.167123
H134	H	1.708869	0.499971	0.332877
H135	H	0.946513	-0.433999	0.233688
H136	H	1.446513	0.066001	0.733688
H137	H	0.804441	-0.000096	-0.019958
H138	H	1.304441	0.499904	0.480042
H139	H	0.946547	-0.755077	0.233707
H140	H	1.446547	-0.255077	0.733707
C141	C	1.184316	-0.230260	-0.003992
C142	C	1.684316	0.269740	0.496008
N143	N	1.234651	-0.187143	-0.054311
N144	N	1.734651	0.312857	0.445689
C145	C	0.929140	-0.230258	0.251047
C146	C	1.429140	0.269742	0.751047
N147	N	0.878801	-0.187137	0.301364
N148	N	1.378801	0.312863	0.801364
H149	H	1.166965	-0.433989	0.013367
H150	H	1.666965	0.066011	0.513367
H151	H	1.205681	-0.000116	-0.336387
H152	H	1.705681	0.499884	0.163613
C153	C	0.886512	-0.000078	-0.308347
C154	C	1.386512	0.499922	0.191653
N155	N	0.818277	-0.000061	-0.338237
N156	N	1.318277	0.499939	0.161763
H157	H	0.766074	-0.000069	0.275673
H158	H	1.266074	0.499931	0.775673
H159	H	0.907821	-0.000093	-0.416531
H160	H	1.407821	0.499907	0.083469
H161	H	0.596822	-0.000090	0.272472
H162	H	1.096822	0.499910	0.772472
H163	H	0.913239	-0.000087	-0.128772
H164	H	1.413239	0.499913	0.371228
