data_functionalizedCrystal
_audit_creation_method	'MofGen! by Chris Wilmer'
_symmetry_space_group_name_H-M	'P1'
_symmetry_Int_Tables_number	1
_symmetry_cell_setting	triclinic
loop_
_symmetry_equiv_pos_as_xyz
  x,y,z
_cell_length_a	8.559649
_cell_length_b	8.559649
_cell_length_c	7.681481
_cell_angle_alpha	85.086760
_cell_angle_beta	94.930900
_cell_angle_gamma	69.778664
loop_
_atom_site_label
_atom_site_type_symbol
_atom_site_fract_x
_atom_site_fract_y
_atom_site_fract_z
O1	O	-0.037797	2.109661	0.146402
O2	O	0.045985	1.634175	0.146408
O3	O	-0.233649	1.913809	0.146402
O4	O	0.241837	1.830027	0.146407
O5	O	-0.268136	1.948236	-0.146456
O6	O	0.011497	1.668602	-0.146450
O7	O	-0.072285	2.144088	-0.146457
Zn8	Zn	-0.035869	1.911811	-0.192951
Zn9	Zn	0.009570	1.866452	0.192902
O10	O	0.207349	1.864454	-0.146451
C11	C	0.035090	1.591080	-0.000020
C12	C	0.053990	1.411380	-0.000017
C13	C	-0.311201	1.937371	-0.000024
C14	C	-0.490899	1.956269	-0.000014
C15	C	0.284902	1.840891	-0.000021
C16	C	0.464601	1.821992	-0.000019
C17	C	-0.061390	2.187183	-0.000025
C18	C	-0.080288	2.366881	-0.000016
N19	N	-0.066883	1.942779	-0.456286
N20	N	0.040569	1.835499	0.456237
H21	H	-0.209706	1.466259	-0.000009
H22	H	-0.436021	1.692573	-0.000023
C23	C	0.188733	1.687544	-0.442184
C24	C	0.212759	1.664205	-0.239418
C25	C	0.360926	1.516248	-0.137827
C26	C	0.485068	1.391629	-0.239002
C27	C	0.461047	1.414964	-0.441780
C28	C	0.312879	1.562921	-0.543371
H29	H	0.120858	1.756459	-0.164512
H30	H	0.378708	1.498975	0.012283
H31	H	0.594751	1.282102	-0.163798
H32	H	0.552948	1.322710	-0.516686
H33	H	0.295098	1.580194	-0.693481
H34	H	0.183419	1.311991	-0.000006
H35	H	-0.590289	2.085699	-0.000030
C36	C	-0.215055	2.090742	-0.557872
C37	C	-0.346065	2.057201	-0.684674
C38	C	-0.494235	2.205160	-0.786259
C39	C	-0.511394	2.386660	-0.761043
C40	C	-0.380380	2.420209	-0.634235
C41	C	-0.232210	2.272250	-0.532649
H42	H	-0.333367	1.922836	-0.703346
H43	H	-0.591220	2.180324	-0.880131
H44	H	-0.621078	2.496189	-0.836242
H45	H	-0.393078	2.554573	-0.615562
H46	H	-0.135225	2.297086	-0.438777
