data_functionalizedCrystal
_audit_creation_method	'MofGen! by Chris Wilmer'
_symmetry_space_group_name_H-M	'P1'
_symmetry_Int_Tables_number	1
_symmetry_cell_setting	triclinic
loop_
_symmetry_equiv_pos_as_xyz
  x,y,z
_cell_length_a	6.817900
_cell_length_b	11.102289
_cell_length_c	10.773894
_cell_angle_alpha	95.422719
_cell_angle_beta	96.645922
_cell_angle_gamma	108.605707
loop_
_atom_site_label
_atom_site_type_symbol
_atom_site_fract_x
_atom_site_fract_y
_atom_site_fract_z
V1	V	-3.974360	-0.171169	-0.388944
O2	O	-3.936004	0.013031	-0.381540
O3	O	-3.952076	-0.344021	-0.386284
O4	O	-3.891317	-0.166427	-0.558576
O5	O	-3.997183	-0.165792	-0.208055
V6	V	-4.459093	-0.149386	-0.367308
O7	O	-4.232965	-0.218952	-0.436404
O8	O	-4.650687	-0.101602	-0.319849
O9	O	-4.258172	0.023467	-0.369969
O10	O	-4.614847	-0.333586	-0.374712
O11	O	-4.553667	-0.154762	-0.548197
O12	O	-4.318930	-0.154127	-0.197676
C13	C	-3.804550	-0.386225	-0.380148
C14	C	-3.867386	-0.527520	-0.379103
C15	C	-3.727046	-0.159684	-0.599922
C16	C	-3.740605	-0.156951	-0.738597
C17	C	-4.078719	-0.600299	-0.384836
C18	C	-4.137749	-0.733062	-0.383865
C19	C	-3.774092	-0.720254	-0.371425
C20	C	-3.715066	-0.587494	-0.372404
C21	C	-4.288673	-0.607695	-0.392013
C22	C	-4.347704	-0.740458	-0.391042
C23	C	-3.919395	-0.161688	-0.806459
C24	C	-3.933414	-0.158863	-0.949787
C25	C	-4.069041	0.065663	-0.376101
C26	C	-3.985442	0.206958	-0.377153
C27	C	-4.146546	-0.160874	-0.156323
C28	C	-4.112224	-0.163601	-0.017647
H29	H	-3.542986	-0.528244	-0.367751
Br30	Br	-3.695548	-0.148603	-1.029787
H31	H	-4.368544	-0.587385	-0.482736
Br32	Br	-4.350071	-0.173813	-0.937644
Br33	Br	-3.502753	-0.146691	-0.818602
H34	H	-4.446919	-0.797215	-0.483459
H35	H	-4.319761	-0.555524	-0.304058
H36	H	-4.429063	-0.766450	-0.305829
Br37	Br	-4.157241	-0.171935	-0.726453
H38	H	-3.650087	-0.769102	-0.365972
