data_functionalizedCrystal
_audit_creation_method	'MofGen! by Chris Wilmer'
_symmetry_space_group_name_H-M	'P1'
_symmetry_Int_Tables_number	1
_symmetry_cell_setting	triclinic
loop_
_symmetry_equiv_pos_as_xyz
  x,y,z
_cell_length_a	27.731993
_cell_length_b	27.732025
_cell_length_c	22.010155
_cell_angle_alpha	90.018755
_cell_angle_beta	90.003150
_cell_angle_gamma	82.626929
loop_
_atom_site_label
_atom_site_type_symbol
_atom_site_fract_x
_atom_site_fract_y
_atom_site_fract_z
O1	O	0.640943	0.057385	-0.050344
O2	O	0.974277	0.390719	0.282990
O3	O	1.307610	0.724052	0.616323
O4	O	0.500145	0.066159	-0.050378
O5	O	0.833479	0.399492	0.282956
O6	O	1.166812	0.732825	0.616289
O7	O	0.574923	-0.008626	-0.050378
O8	O	0.908256	0.324707	0.282955
O9	O	1.241590	0.658040	0.616289
O10	O	0.566166	0.132170	-0.050343
O11	O	0.899499	0.465504	0.282990
O12	O	1.232833	0.798837	0.616323
O13	O	0.574909	-0.008615	0.050672
O14	O	0.908243	0.324718	0.384006
O15	O	1.241576	0.658051	0.717339
O16	O	0.500132	0.066170	0.050673
O17	O	0.833465	0.399503	0.384006
O18	O	1.166799	0.732836	0.717339
O19	O	0.640930	0.057397	0.050707
O20	O	0.974263	0.390730	0.384040
O21	O	1.307597	0.724063	0.717373
Cu22	Cu	0.570530	0.061784	0.059916
Cu23	Cu	0.903863	0.395118	0.393250
Cu24	Cu	1.237196	0.728451	0.726583
Cu25	Cu	0.570546	0.061771	-0.059587
Cu26	Cu	0.903879	0.395104	0.273746
Cu27	Cu	1.237212	0.728438	0.607079
O28	O	0.566152	0.132182	0.050707
O29	O	0.899486	0.465515	0.384040
O30	O	1.232819	0.798848	0.717374
C31	C	0.482131	0.065984	0.000143
C32	C	0.815465	0.399317	0.333476
C33	C	1.148798	0.732651	0.666809
C34	C	0.428475	0.065442	0.000128
C35	C	0.761808	0.398775	0.333462
C36	C	1.095142	0.732108	0.666795
C37	C	0.045323	0.061505	-0.054926
C38	C	0.378656	0.394838	0.278408
C39	C	0.711989	0.728172	0.611741
C40	C	0.246980	0.063572	-0.054942
C41	C	0.580313	0.396905	0.278392
C42	C	0.913646	0.730239	0.611725
O43	O	0.273059	0.063815	-0.101788
O44	O	0.606392	0.397148	0.231545
O45	O	0.939726	0.730481	0.564878
N46	N	0.272193	0.063837	0.000140
N47	N	0.605526	0.397170	0.333473
N48	N	0.938859	0.730503	0.666806
C49	C	0.246989	0.063582	0.055229
C50	C	0.580322	0.396915	0.388562
C51	C	0.913655	0.730248	0.721896
O52	O	0.273061	0.063849	0.102079
O53	O	0.606395	0.397182	0.435412
O54	O	0.939728	0.730516	0.768745
C55	C	0.045333	0.061511	0.055244
C56	C	0.378666	0.394844	0.388578
C57	C	0.711999	0.728178	0.721911
C58	C	0.020122	0.061251	0.000159
C59	C	0.353455	0.394585	0.333493
C60	C	0.686788	0.727918	0.666826
C61	C	0.020112	0.061245	-0.110006
C62	C	0.353445	0.394578	0.223327
C63	C	0.686778	0.727911	0.556661
C64	C	-0.030300	0.060731	-0.110002
C65	C	0.303033	0.394064	0.223332
C66	C	0.636367	0.727397	0.556665
C67	C	-0.055501	0.060477	-0.054917
C68	C	0.277833	0.393810	0.278417
C69	C	0.611166	0.727143	0.611750
C70	C	-0.030290	0.060737	0.000164
C71	C	0.303043	0.394070	0.333497
C72	C	0.636377	0.727404	0.666831
C73	C	0.020130	0.061252	0.110333
C74	C	0.353463	0.394586	0.443666
C75	C	0.686797	0.727919	0.777000
C76	C	-0.030287	0.060733	0.110332
C77	C	0.303046	0.394067	0.443665
C78	C	0.636380	0.727400	0.776999
C79	C	-0.055498	0.060474	0.055247
C80	C	0.277835	0.393807	0.388580
C81	C	0.611169	0.727140	0.721914
C82	C	-0.105902	0.059969	0.055253
C83	C	0.227431	0.393303	0.388587
C84	C	0.560764	0.726636	0.721920
N85	N	-0.131115	0.059705	0.000172
N86	N	0.202218	0.393038	0.333505
N87	N	0.535552	0.726371	0.666839
C88	C	-0.105914	0.059958	-0.054913
C89	C	0.227419	0.393292	0.278420
C90	C	0.560752	0.726625	0.611754
C91	C	0.352861	0.064670	0.055217
C92	C	0.686194	0.398003	0.388550
C93	C	1.019527	0.731336	0.721884
C94	C	0.403274	0.065188	0.055213
C95	C	0.736608	0.398521	0.388547
C96	C	1.069941	0.731855	0.721880
C97	C	0.403262	0.065178	-0.054957
C98	C	0.736595	0.398511	0.278376
C99	C	1.069929	0.731844	0.611709
C100	C	0.352847	0.064663	-0.054953
C101	C	0.686180	0.397996	0.278380
C102	C	1.019514	0.731329	0.611713
C103	C	0.327648	0.064405	0.000136
C104	C	0.660981	0.397738	0.333469
C105	C	0.994314	0.731071	0.666802
C106	C	-0.211783	0.058879	-0.054899
C107	C	0.121551	0.392212	0.278434
C108	C	0.454884	0.725546	0.611767
C109	C	-0.262199	0.058367	-0.054890
C110	C	0.071134	0.391700	0.278444
C111	C	0.404468	0.725034	0.611777
C112	C	-0.262182	0.058375	0.055281
C113	C	0.071151	0.391708	0.388614
C114	C	0.404485	0.725042	0.721947
C115	C	-0.211770	0.058890	0.055272
C116	C	0.121563	0.392223	0.388605
C117	C	0.454896	0.725556	0.721938
C118	C	-0.186572	0.059140	0.000177
C119	C	0.146762	0.392473	0.333510
C120	C	0.480095	0.725807	0.666843
O121	O	-0.132012	0.059721	0.102076
O122	O	0.201321	0.393054	0.435409
O123	O	0.534655	0.726388	0.768742
O124	O	-0.131994	0.059680	-0.101756
O125	O	0.201339	0.393013	0.231578
O126	O	0.534672	0.726346	0.564911
C127	C	0.095734	0.062019	-0.054930
C128	C	0.429068	0.395352	0.278403
C129	C	0.762401	0.728686	0.611736
C130	C	0.120945	0.062279	0.000150
C131	C	0.454278	0.395613	0.333484
C132	C	0.787612	0.728946	0.666817
C133	C	0.095744	0.062026	0.055235
C134	C	0.429078	0.395359	0.388569
C135	C	0.762411	0.728692	0.721902
C136	C	0.171359	0.062798	0.000147
C137	C	0.504692	0.396131	0.333480
C138	C	0.838025	0.729465	0.666813
C139	C	0.196559	0.063052	-0.054938
C140	C	0.529893	0.396385	0.278395
C141	C	0.863226	0.729718	0.611728
C142	C	0.171347	0.062787	-0.110020
C143	C	0.504680	0.396120	0.223314
C144	C	0.838013	0.729454	0.556647
C145	C	0.120935	0.062273	-0.110015
C146	C	0.454268	0.395606	0.223318
C147	C	0.787602	0.728939	0.556651
C148	C	0.120957	0.062290	0.110317
C149	C	0.454291	0.395624	0.443650
C150	C	0.787624	0.728957	0.776983
C151	C	0.171369	0.062805	0.110308
C152	C	0.504702	0.396138	0.443641
C153	C	0.838035	0.729472	0.776974
C154	C	0.196570	0.063059	0.055223
C155	C	0.529903	0.396392	0.388556
C156	C	0.863236	0.729725	0.721889
C157	C	0.574734	-0.026628	0.000141
C158	C	0.908067	0.306705	0.333474
C159	C	1.241401	0.640039	0.666808
C160	C	0.574186	-0.080283	0.000123
C161	C	0.907519	0.253050	0.333456
C162	C	1.240852	0.586383	0.666790
C163	C	0.570296	-0.463454	-0.054925
C164	C	0.903630	-0.130121	0.278408
C165	C	1.236963	0.203213	0.611741
C166	C	0.572349	-0.261795	-0.054944
C167	C	0.905682	0.071538	0.278389
C168	C	1.239015	0.404872	0.611722
O169	O	0.572640	-0.235733	-0.101791
O170	O	0.905973	0.097600	0.231542
O171	O	1.239306	0.430934	0.564875
N172	N	0.572598	-0.236568	0.000137
N173	N	0.905931	0.096765	0.333470
N174	N	1.239265	0.430099	0.666803
C175	C	0.572337	-0.261759	0.055226
C176	C	0.905671	0.071574	0.388560
C177	C	1.239004	0.404908	0.721893
O178	O	0.572601	-0.235675	0.102076
O179	O	0.905935	0.097658	0.435409
O180	O	1.239268	0.430992	0.768742
C181	C	0.570288	-0.463417	0.055245
C182	C	0.903621	-0.130084	0.388578
C183	C	1.236955	0.203249	0.721911
C184	C	0.570034	-0.488641	0.000160
C185	C	0.903367	-0.155308	0.333493
C186	C	1.236701	0.178025	0.666827
C187	C	0.570043	-0.488678	-0.110005
C188	C	0.903376	-0.155345	0.223328
C189	C	1.236709	0.177988	0.556661
C190	C	0.569527	-0.539090	-0.110000
C191	C	0.902860	-0.205756	0.223333
C192	C	1.236194	0.127577	0.556667
C193	C	0.569265	-0.564277	-0.054915
C194	C	0.902598	-0.230944	0.278419
C195	C	1.235931	0.102390	0.611752
C196	C	0.569518	-0.539053	0.000165
C197	C	0.902852	-0.205719	0.333499
C198	C	1.236185	0.127614	0.666832
C199	C	0.570031	-0.488608	0.110334
C200	C	0.903364	-0.155275	0.443667
C201	C	1.236697	0.178059	0.777000
C202	C	0.569520	-0.539026	0.110333
C203	C	0.902853	-0.205693	0.443667
C204	C	1.236186	0.127641	0.777000
C205	C	0.569266	-0.564250	0.055249
C206	C	0.902599	-0.230917	0.388582
C207	C	1.235932	0.102417	0.721916
C208	C	0.568740	-0.614651	0.055256
C209	C	0.902074	-0.281318	0.388590
C210	C	1.235407	0.052015	0.721923
N211	N	0.568491	-0.639879	0.000175
N212	N	0.901824	-0.306545	0.333509
N213	N	1.235158	0.026788	0.666842
C214	C	0.568753	-0.614691	-0.054910
C215	C	0.902087	-0.281358	0.278423
C216	C	1.235420	0.051975	0.611756
C217	C	0.573412	-0.155885	0.055213
C218	C	0.906745	0.177448	0.388546
C219	C	1.240079	0.510782	0.721879
C220	C	0.573923	-0.105471	0.055208
C221	C	0.907257	0.227863	0.388542
C222	C	1.240590	0.561196	0.721875
C223	C	0.573936	-0.105510	-0.054963
C224	C	0.907269	0.227823	0.278371
C225	C	1.240603	0.561156	0.611704
C226	C	0.573421	-0.155925	-0.054958
C227	C	0.906754	0.177408	0.278376
C228	C	1.240088	0.510741	0.611709
C229	C	0.573163	-0.181112	0.000132
C230	C	0.906496	0.152221	0.333465
C231	C	1.239829	0.485554	0.666798
C232	C	0.567670	-0.720559	-0.054895
C233	C	0.901003	-0.387226	0.278438
C234	C	1.234336	-0.053892	0.611772
C235	C	0.567152	-0.770974	-0.054885
C236	C	0.900485	-0.437641	0.278449
C237	C	1.233819	-0.104308	0.611782
C238	C	0.567142	-0.770930	0.055286
C239	C	0.900475	-0.437597	0.388619
C240	C	1.233809	-0.104264	0.721952
C241	C	0.567657	-0.720519	0.055276
C242	C	0.900991	-0.387186	0.388609
C243	C	1.234324	-0.053852	0.721943
C244	C	0.567923	-0.695335	0.000181
C245	C	0.901256	-0.362001	0.333514
C246	C	1.234589	-0.028668	0.666847
O247	O	0.568454	-0.640745	0.102079
O248	O	0.901788	-0.307412	0.435412
O249	O	1.235121	0.025921	0.768745
O250	O	0.568500	-0.640785	-0.101753
O251	O	0.901833	-0.307452	0.231581
O252	O	1.235167	0.025881	0.564914
C253	C	0.570812	-0.413043	-0.054931
C254	C	0.904145	-0.079709	0.278403
C255	C	1.237479	0.253624	0.611736
C256	C	0.571066	-0.387819	0.000149
C257	C	0.904399	-0.054485	0.333483
C258	C	1.237732	0.278848	0.666816
C259	C	0.570803	-0.413006	0.055235
C260	C	0.904137	-0.079673	0.388568
C261	C	1.237470	0.253661	0.721902
C262	C	0.571577	-0.337404	0.000145
C263	C	0.904910	-0.004071	0.333478
C264	C	1.238244	0.329263	0.666812
C265	C	0.571839	-0.312217	-0.054940
C266	C	0.905172	0.021116	0.278393
C267	C	1.238506	0.354450	0.611726
C268	C	0.571590	-0.337444	-0.110021
C269	C	0.904923	-0.004111	0.223312
C270	C	1.238257	0.329223	0.556645
C271	C	0.571074	-0.387856	-0.110016
C272	C	0.904407	-0.054522	0.223317
C273	C	1.237741	0.278811	0.556651
C274	C	0.571053	-0.387779	0.110316
C275	C	0.904386	-0.054445	0.443649
C276	C	1.237719	0.278888	0.776983
C277	C	0.571568	-0.337367	0.110306
C278	C	0.904901	-0.004034	0.443639
C279	C	1.238234	0.329300	0.776973
C280	C	0.571830	-0.312180	0.055221
C281	C	0.905163	0.021153	0.388554
C282	C	1.238497	0.354487	0.721887
C283	C	0.658944	0.057571	0.000185
C284	C	0.992277	0.390904	0.333518
C285	C	1.325611	0.724238	0.666852
C286	C	0.712600	0.058113	0.000195
C287	C	1.045934	0.391447	0.333529
C288	C	1.379267	0.724780	0.666862
C289	C	0.566341	0.150183	0.000187
C290	C	0.899675	0.483516	0.333520
C291	C	1.233008	0.816850	0.666853
C292	C	0.566890	0.203838	0.000201
C293	C	0.900223	0.537172	0.333534
C294	C	1.233556	0.870505	0.666867
N295	N	0.570522	0.061793	0.143969
N296	N	0.903855	0.395127	0.477302
N297	N	1.237189	0.728460	0.810636
N298	N	0.570557	0.061758	-0.143640
N299	N	0.903891	0.395091	0.189693
N300	N	1.237224	0.728425	0.523027
C301	C	0.603659	0.028661	0.563748
C302	C	0.936992	0.361994	0.897081
C303	C	1.270326	0.695327	1.230415
C304	C	0.603661	0.028657	0.627356
C305	C	0.936995	0.361991	0.960689
C306	C	1.270328	0.695324	1.294022
O307	O	0.631816	0.000493	0.660247
O308	O	0.965150	0.333827	0.993580
O309	O	1.298483	0.667160	1.326914
N310	N	0.570545	0.061761	0.659176
N311	N	0.903879	0.395094	0.992509
N312	N	1.237212	0.728427	1.325843
C313	C	0.537422	0.094866	0.627385
C314	C	0.870755	0.428200	0.960719
C315	C	1.204089	0.761533	1.294052
O316	O	0.509254	0.123023	0.660292
O317	O	0.842588	0.456356	0.993625
O318	O	1.175921	0.789689	1.326958
C319	C	0.537418	0.094867	0.563779
C320	C	0.870751	0.428200	0.897112
C321	C	1.204084	0.761534	1.230445
C322	C	0.570539	0.061765	0.531962
C323	C	0.903872	0.395098	0.865295
C324	C	1.237206	0.728431	1.198629
C325	C	0.636777	-0.004439	0.531931
C326	C	0.970111	0.328894	0.865264
C327	C	1.303444	0.662228	1.198598
C328	C	0.636775	-0.004435	0.468328
C329	C	0.970109	0.328898	0.801661
C330	C	1.303442	0.662232	1.134995
C331	C	0.603655	0.028669	0.436542
C332	C	0.936989	0.362002	0.769875
C333	C	1.270322	0.695336	1.103208
C334	C	0.570537	0.061769	0.468359
C335	C	0.903871	0.395102	0.801692
C336	C	1.237204	0.728435	1.135025
C337	C	0.504292	0.127970	0.531989
C338	C	0.837626	0.461303	0.865323
C339	C	1.170959	0.794637	1.198656
C340	C	0.504291	0.127967	0.468379
C341	C	0.837624	0.461301	0.801712
C342	C	1.170957	0.794634	1.135045
C343	C	0.537412	0.094865	0.436562
C344	C	0.870745	0.428199	0.769895
C345	C	1.204079	0.761532	1.103228
C346	C	0.537415	0.094877	0.372969
C347	C	0.870749	0.428210	0.706303
C348	C	1.204082	0.761544	1.039636
N349	N	0.570531	0.061774	0.341149
N350	N	0.903865	0.395107	0.674482
N351	N	1.237198	0.728440	1.007816
C352	C	0.603651	0.028670	0.372935
C353	C	0.936985	0.362003	0.706269
C354	C	1.270318	0.695336	1.039602
C355	C	0.537433	0.094862	0.760963
C356	C	0.870766	0.428195	1.094296
C357	C	1.204099	0.761529	1.427630
C358	C	0.537439	0.094864	0.824568
C359	C	0.870772	0.428197	1.157902
C360	C	1.204105	0.761531	1.491235
C361	C	0.603678	0.028654	0.824534
C362	C	0.937011	0.361988	1.157868
C363	C	1.270344	0.695321	1.491201
C364	C	0.603673	0.028655	0.760928
C365	C	0.937007	0.361988	1.094261
C366	C	1.270340	0.695322	1.427595
C367	C	0.570548	0.061759	0.729143
C368	C	0.903882	0.395092	1.062476
C369	C	1.237215	0.728425	1.395810
C370	C	0.603645	0.028681	0.239364
C371	C	0.936979	0.362014	0.572697
C372	C	1.270312	0.695348	0.906031
C373	C	0.603642	0.028689	0.175755
C374	C	0.936975	0.362023	0.509088
C375	C	1.270309	0.695356	0.842422
C376	C	0.537402	0.094897	0.175795
C377	C	0.870735	0.428230	0.509128
C378	C	1.204068	0.761564	0.842461
C379	C	0.537406	0.094891	0.239398
C380	C	0.870740	0.428224	0.572731
C381	C	1.204073	0.761557	0.906065
C382	C	0.570530	0.061778	0.271181
C383	C	0.903863	0.395112	0.604514
C384	C	1.237197	0.728445	0.937848
O385	O	0.509274	0.123025	0.340038
O386	O	0.842607	0.456359	0.673371
O387	O	1.175940	0.789692	1.006704
O388	O	0.631810	0.000514	0.340021
O389	O	0.965143	0.333847	0.673355
O390	O	1.298477	0.667180	1.006688
H391	H	0.423796	0.065407	0.100069
H392	H	0.757129	0.398741	0.433402
H393	H	1.090462	0.732074	0.766736
F394	F	0.638925	-0.006577	0.727072
F395	F	0.972258	0.326756	1.060405
F396	F	1.305591	0.660089	1.393739
H397	H	0.663748	-0.031399	0.557806
H398	H	0.997081	0.301935	0.891139
H399	H	1.330414	0.635268	1.224472
H400	H	0.566927	-0.791447	0.100135
H401	H	0.900260	-0.458113	0.433468
H402	H	1.233593	-0.124780	0.766802
H403	H	0.663744	-0.031391	0.442426
H404	H	0.997078	0.301942	0.775760
H405	H	1.330411	0.635276	1.109093
H406	H	0.630645	0.001699	0.850426
H407	H	0.963979	0.335032	1.183760
H408	H	1.297312	0.668365	1.517093
F409	F	0.046951	0.061529	0.168963
F410	F	0.380284	0.394862	0.502296
F411	F	0.713617	0.728196	0.835630
H412	H	0.510473	0.121824	0.850469
H413	H	0.843807	0.455157	1.183803
H414	H	1.177140	0.788490	1.517136
H415	H	0.570867	-0.408388	-0.154872
H416	H	0.904200	-0.075055	0.178462
H417	H	1.237534	0.258278	0.511795
H418	H	0.040625	0.061450	-0.154865
H419	H	0.373958	0.394783	0.178468
H420	H	0.707292	0.728116	0.511801
F421	F	-0.184939	0.059173	0.113899
F422	F	0.148394	0.392506	0.447232
F423	F	0.481728	0.725839	0.780565
F424	F	-0.057125	0.060451	-0.168631
F425	F	0.276209	0.393784	0.164702
F426	F	0.609542	0.727117	0.498036
F427	F	0.571868	-0.310629	-0.168647
F428	F	0.905202	0.022704	0.164686
F429	F	1.238535	0.356038	0.498019
H430	H	0.100413	0.062061	-0.154871
H431	H	0.433746	0.395395	0.178462
H432	H	0.767079	0.728728	0.511796
F433	F	0.502177	0.130101	0.727140
F434	F	0.835511	0.463434	1.060473
F435	F	1.168844	0.796767	1.393807
F436	F	0.570323	-0.461880	-0.168640
F437	F	0.903656	-0.128546	0.164693
F438	F	1.236989	0.204787	0.498027
F439	F	0.326020	0.064385	-0.113581
F440	F	0.659354	0.397719	0.219752
F441	F	0.992687	0.731052	0.553085
F442	F	0.573151	-0.182766	-0.113585
F443	F	0.906485	0.150567	0.219748
F444	F	1.239818	0.483900	0.553081
F445	F	0.569247	-0.565829	0.168969
F446	F	0.902580	-0.232496	0.502302
F447	F	1.235914	0.100838	0.835635
F448	F	0.430091	0.065449	-0.113583
F449	F	0.763424	0.398782	0.219750
F450	F	1.096758	0.732116	0.553083
F451	F	0.326047	0.064400	0.113854
F452	F	0.659380	0.397734	0.447188
F453	F	0.992714	0.731067	0.780521
H454	H	0.477322	0.154924	0.557886
H455	H	0.810655	0.488258	0.891219
H456	H	1.143988	0.821591	1.224553
F457	F	0.469032	0.163201	0.434555
F458	F	0.802366	0.496534	0.767888
F459	F	1.135699	0.829868	1.101221
H460	H	0.570840	-0.408281	0.155174
H461	H	0.904174	-0.074948	0.488507
H462	H	1.237507	0.258386	0.821841
H463	H	-0.050802	0.060528	0.155193
H464	H	0.282531	0.393861	0.488526
H465	H	0.615864	0.727194	0.821860
H466	H	0.510441	0.121850	0.265304
H467	H	0.843774	0.455183	0.598637
H468	H	1.177107	0.788517	0.931970
H469	H	-0.282724	0.058157	-0.099749
H470	H	0.050610	0.391490	0.233585
H471	H	0.383943	0.724824	0.566918
H472	H	0.574146	-0.084994	-0.099815
H473	H	0.907479	0.248339	0.233518
H474	H	1.240813	0.581673	0.566851
H475	H	-0.191272	0.059084	-0.099763
H476	H	0.142062	0.392417	0.233571
H477	H	0.475395	0.725750	0.566904
F478	F	-0.289012	0.058107	0.113903
F479	F	0.044322	0.391440	0.447236
F480	F	0.377655	0.724773	0.780570
F481	F	0.198176	0.063059	-0.168645
F482	F	0.531509	0.396392	0.164688
F483	F	0.864842	0.729726	0.498021
H484	H	0.510437	0.121851	0.149904
H485	H	0.843770	0.455185	0.483238
H486	H	1.177104	0.788518	0.816571
H487	H	0.191891	0.063021	0.155168
H488	H	0.525224	0.396354	0.488501
H489	H	0.858557	0.729687	0.821834
H490	H	0.570243	-0.468080	0.155190
H491	H	0.903576	-0.134747	0.488523
H492	H	1.236909	0.198587	0.821856
H493	H	0.100444	0.062081	0.155174
H494	H	0.433778	0.395415	0.488508
H495	H	0.767111	0.728748	0.821841
H496	H	0.630617	0.001717	0.265235
H497	H	0.963950	0.335051	0.598568
H498	H	1.297284	0.668384	0.931901
F499	F	0.566880	-0.797817	-0.113516
F500	F	0.900214	-0.464483	0.219818
F501	F	1.233547	-0.131150	0.553151
H502	H	0.567886	-0.700060	-0.099759
H503	H	0.901220	-0.366726	0.233575
H504	H	1.234553	-0.033393	0.566908
H505	H	0.569323	-0.559623	-0.154856
H506	H	0.902657	-0.226290	0.178478
H507	H	1.235990	0.107044	0.511811
H508	H	0.574121	-0.084936	0.100064
H509	H	0.907454	0.248397	0.433397
H510	H	1.240788	0.581731	0.766730
H511	H	0.573202	-0.176388	0.100076
H512	H	0.906535	0.156946	0.433409
H513	H	1.239869	0.490279	0.766742
H514	H	0.567845	-0.699978	0.100130
H515	H	0.901178	-0.366645	0.433464
H516	H	1.234512	-0.033311	0.766797
F517	F	0.638896	-0.006543	0.141896
F518	F	0.972230	0.326790	0.475230
F519	F	1.305563	0.660123	0.808563
F520	F	0.571833	-0.310527	0.168939
F521	F	0.905166	0.022807	0.502272
F522	F	1.238499	0.356140	0.835606
