data_functionalizedCrystal
_audit_creation_method	'MofGen! by Chris Wilmer'
_symmetry_space_group_name_H-M	'P1'
_symmetry_Int_Tables_number	1
_symmetry_cell_setting	triclinic
loop_
_symmetry_equiv_pos_as_xyz
  x,y,z
_cell_length_a	19.077105
_cell_length_b	13.897448
_cell_length_c	19.077174
_cell_angle_alpha	92.273651
_cell_angle_beta	85.483752
_cell_angle_gamma	87.714101
loop_
_atom_site_label
_atom_site_type_symbol
_atom_site_fract_x
_atom_site_fract_y
_atom_site_fract_z
Zn1	Zn	1.093747	-0.468678	-0.441851
Zn2	Zn	1.593747	0.031322	0.058149
Zn3	Zn	1.088946	-0.623231	-0.323966
Zn4	Zn	1.588946	-0.123231	0.176034
Zn5	Zn	0.971131	-0.455194	-0.319249
Zn6	Zn	1.471131	0.044806	0.180751
Zn7	Zn	0.975840	-0.623167	-0.437084
Zn8	Zn	1.475840	-0.123167	0.062916
O9	O	1.032416	-0.542567	-0.380538
O10	O	1.532416	-0.042567	0.119462
O11	O	1.191761	-0.494849	-0.430183
O12	O	1.691761	0.005151	0.069817
O13	O	1.069338	-0.595324	-0.224691
O14	O	1.569338	-0.095324	0.275309
O15	O	0.987435	-0.322004	-0.335533
O16	O	1.487435	0.177996	0.164467
O17	O	1.188233	-0.608398	-0.343573
O18	O	1.688233	-0.108398	0.156427
O19	O	1.077521	-0.331911	-0.425609
O20	O	1.577521	0.168089	0.074391
O21	O	0.982780	-0.471868	-0.221225
O22	O	1.482780	0.028132	0.278775
O23	O	0.873105	-0.471807	-0.330910
O24	O	1.373105	0.028193	0.169090
O25	O	0.995460	-0.608291	-0.536366
O26	O	1.495460	-0.108291	-0.036366
O27	O	0.876565	-0.595216	-0.417484
O28	O	1.376565	-0.095216	0.082516
O29	O	1.082087	-0.494788	-0.539869
O30	O	1.582087	0.005212	-0.039869
O31	O	1.073903	-0.758200	-0.338951
O32	O	1.573903	-0.258200	0.161049
O33	O	0.990805	-0.758154	-0.422058
O34	O	1.490805	-0.258154	0.077942
C35	C	0.849256	-0.532042	-0.373168
C36	C	1.349256	-0.032042	0.126832
C37	C	0.770900	-0.527563	-0.370032
C38	C	1.270900	-0.027563	0.129968
C39	C	0.735905	-0.589801	-0.413562
C40	C	1.235905	-0.089801	0.086438
C41	C	0.662281	-0.585580	-0.410619
C42	C	1.162281	-0.085580	0.089381
C43	C	0.623654	-0.519126	-0.364142
C44	C	1.123654	-0.019126	0.135858
C45	C	0.658654	-0.456882	-0.320610
C46	C	1.158654	0.043118	0.179390
C47	C	0.732276	-0.461098	-0.323557
C48	C	1.232276	0.038902	0.176443
C49	C	0.403271	-0.499610	-0.350505
C50	C	0.903271	0.000390	0.149495
C51	C	0.329643	-0.495400	-0.347559
C52	C	0.829643	0.004600	0.152441
C53	C	0.333276	-0.624098	-0.437569
C54	C	0.833276	-0.124098	0.062431
C55	C	0.406899	-0.628313	-0.440509
C56	C	0.906899	-0.128313	0.059491
C57	C	0.441893	-0.566065	-0.396980
C58	C	0.941893	-0.066065	0.103020
N59	N	0.548398	-0.514812	-0.361131
N60	N	1.048398	-0.014812	0.138869
N61	N	0.517147	-0.570375	-0.399996
N62	N	1.017147	-0.070375	0.100004
C63	C	1.032364	-0.793178	-0.380515
C64	C	1.532364	-0.293178	0.119485
C65	C	1.032407	-0.900395	-0.380532
C66	C	1.532407	-0.400395	0.119468
C67	C	1.032483	-1.096697	-0.380579
C68	C	1.532483	-0.596697	0.119421
C69	C	1.032439	-0.987460	-0.380555
C70	C	1.532439	-0.487460	0.119445
C71	C	1.216291	-0.553135	-0.387936
C72	C	1.716291	-0.053135	0.112064
C73	C	1.294648	-0.557638	-0.391089
C74	C	1.794648	-0.057638	0.108911
C75	C	1.039834	-0.553036	-0.564412
C76	C	1.539834	-0.053036	-0.064412
C77	C	1.042996	-0.557497	-0.642768
C78	C	1.542996	-0.057497	-0.142768
C79	C	1.032488	-0.290981	-0.380576
C80	C	1.532488	0.209019	0.119424
C81	C	1.032519	-0.183769	-0.380593
C82	C	1.532519	0.316231	0.119407
C83	C	0.999417	-0.495318	-0.677775
C84	C	1.499417	0.004682	-0.177775
C85	C	1.002384	-0.499517	-0.751398
C86	C	1.502384	0.000483	-0.251398
C87	C	1.048935	-0.565893	-0.790014
C88	C	1.548935	-0.065893	-0.290014
C89	C	1.092516	-0.628079	-0.755002
C90	C	1.592516	-0.128079	-0.255002
C91	C	1.089544	-0.623883	-0.681380
C92	C	1.589544	-0.123883	-0.181380
C93	C	1.062652	-0.585338	-1.010396
C94	C	1.562652	-0.085338	-0.510396
C95	C	1.065621	-0.589527	-1.084023
C96	C	1.565621	-0.089527	-0.584023
C97	C	0.975489	-0.460966	-1.080415
C98	C	1.475489	0.039034	-0.580415
C99	C	0.972524	-0.456772	-1.006791
C100	C	1.472524	0.043228	-0.506791
C101	C	1.016102	-0.518962	-0.971785
C102	C	1.516102	-0.018962	-0.471785
N103	N	1.051971	-0.570185	-0.865270
N104	N	1.551971	-0.070185	-0.365270
N105	N	1.013062	-0.514673	-0.896531
N106	N	1.513062	-0.014673	-0.396531
C107	C	1.025067	-0.532072	-0.197381
C108	C	1.525067	-0.032072	0.302619
C109	C	1.022043	-0.527347	-0.119030
C110	C	1.522043	-0.027347	0.380970
H111	H	0.438345	-0.682429	-0.478354
H112	H	0.938345	-0.182429	0.021646
H113	H	1.098128	-0.635987	-0.981903
H114	H	1.598128	-0.135987	-0.481903
H115	H	1.130415	-0.682128	-0.786449
H116	H	1.630415	-0.182128	-0.286449
H117	H	0.767350	-0.643918	-0.451406
H118	H	1.267350	-0.143918	0.048594
H119	H	0.934616	-0.402725	-0.975355
H120	H	1.434616	0.097275	-0.475355
H121	H	0.627198	-0.402769	-0.282770
H122	H	1.127198	0.097231	0.217230
H123	H	0.633791	-0.636261	-0.446065
H124	H	1.133791	-0.136261	0.053935
H125	H	0.961514	-0.441263	-0.646339
H126	H	1.461514	0.058737	-0.146339
H127	H	0.304776	-0.674775	-0.473009
H128	H	0.804776	-0.174775	0.026991
H129	H	1.125036	-0.674510	-0.652878
H130	H	1.625036	-0.174510	-0.152878
H131	H	0.940009	-0.410335	-1.108924
H132	H	1.440009	0.089665	-0.608924
H133	H	0.298195	-0.441274	-0.309716
H134	H	0.798195	0.058726	0.190284
H135	H	0.760768	-0.410413	-0.288114
H136	H	1.260768	0.089587	0.211886
H137	H	0.431754	-0.448931	-0.315055
H138	H	0.931754	0.051069	0.184945
H139	H	0.966895	-0.448888	-0.779897
H140	H	1.466895	0.051112	-0.279897
H141	H	1.103532	-0.643579	-1.115463
H142	H	1.603532	-0.143579	-0.615463
