data_functionalizedCrystal
_audit_creation_method	'MofGen! by Chris Wilmer'
_symmetry_space_group_name_H-M	'P1'
_symmetry_Int_Tables_number	1
_symmetry_cell_setting	triclinic
loop_
_symmetry_equiv_pos_as_xyz
  x,y,z
_cell_length_a	6.817900
_cell_length_b	16.417825
_cell_length_c	11.102228
_cell_angle_alpha	93.887652
_cell_angle_beta	108.604565
_cell_angle_gamma	103.385495
loop_
_atom_site_label
_atom_site_type_symbol
_atom_site_fract_x
_atom_site_fract_y
_atom_site_fract_z
V1	V	-4.084993	-0.115887	-0.396702
O2	O	-4.071824	0.005567	-0.388692
O3	O	-4.035703	-0.229783	-0.394429
O4	O	-4.062176	-0.114105	-0.569516
O5	O	-4.045167	-0.110911	-0.212393
V6	V	-4.565422	-0.101360	-0.374603
O7	O	-4.353040	-0.147754	-0.445176
O8	O	-4.747572	-0.069493	-0.326129
O9	O	-4.391506	0.012536	-0.376876
O10	O	-4.695988	-0.222814	-0.382613
O11	O	-4.722645	-0.106335	-0.558912
O12	O	-4.365032	-0.103142	-0.201789
C13	C	-3.879659	-0.257548	-0.388285
C14	C	-3.920815	-0.350660	-0.387579
C15	C	-3.958127	-0.552923	-0.269549
C16	C	-3.996822	-0.640413	-0.268895
C17	C	-4.111669	-0.664324	-0.501771
C18	C	-4.072989	-0.576836	-0.502423
C19	C	-3.996207	-0.521138	-0.386308
C20	C	-4.073582	-0.696115	-0.385002
C21	C	-4.115537	-0.790975	-0.384294
C22	C	-3.954253	-0.426272	-0.387015
C23	C	-3.913427	-0.109989	-0.611624
C24	C	-3.976049	-0.109286	-0.752903
C25	C	-4.048079	-0.185658	-0.837721
C26	C	-4.106931	-0.184996	-0.970468
C27	C	-4.021708	-0.031582	-0.933566
C28	C	-3.962871	-0.032245	-0.800822
C29	C	-4.356191	-0.278930	-1.178218
C30	C	-4.428190	-0.355305	-1.263040
C31	C	-4.329040	-0.420556	-1.232077
C32	C	-4.157845	-0.409433	-1.116292
C33	C	-4.085830	-0.333056	-1.031476
C34	C	-4.185028	-0.267809	-1.062440
C35	C	-3.713596	0.061684	-0.593070
C36	C	-3.641566	0.138062	-0.508251
C37	C	-3.740698	0.203321	-0.539209
C38	C	-3.911860	0.192207	-0.654995
C39	C	-3.983891	0.115829	-0.739814
C40	C	-3.884758	0.050570	-0.708847
C41	C	-4.210891	0.040297	-0.383017
C42	C	-4.148974	0.133408	-0.383731
C43	C	-4.177122	-0.107261	-0.159675
C44	C	-4.093738	-0.107960	-0.018394
H45	H	-3.965814	-0.666287	-0.173818
F46	F	-3.876418	-0.493647	-0.145969
F47	F	-4.062112	-0.267651	-0.786728
H48	H	-3.502170	0.147112	-0.413980
F49	F	-4.193378	-0.723609	-0.625341
H50	H	-4.123266	0.106783	-0.834094
F51	F	-4.113532	-0.543007	-0.626701
F52	F	-3.903643	-0.321216	-0.908258
H53	H	-4.077102	-0.462566	-1.091100
F54	F	-4.405672	-0.501840	-1.322355
H55	H	-4.567587	-0.364356	-1.357312
H56	H	-4.436960	-0.225806	-1.203433
H57	H	-4.010982	0.031142	-0.972598
H58	H	-3.632864	0.008547	-0.567851
H59	H	-3.992580	0.245346	-0.680203
H60	H	-3.681982	0.265523	-0.470156
