data_functionalizedCrystal
_audit_creation_method	'MofGen! by Chris Wilmer'
_symmetry_space_group_name_H-M	'P1'
_symmetry_Int_Tables_number	1
_symmetry_cell_setting	triclinic
loop_
_symmetry_equiv_pos_as_xyz
  x,y,z
_cell_length_a	12.827893
_cell_length_b	11.169416
_cell_length_c	11.169409
_cell_angle_alpha	90.028030
_cell_angle_beta	89.978812
_cell_angle_gamma	89.986941
loop_
_atom_site_label
_atom_site_type_symbol
_atom_site_fract_x
_atom_site_fract_y
_atom_site_fract_z
Zn1	Zn	1.597706	0.477711	-0.678622
Zn2	Zn	2.097706	0.977711	-0.178622
Zn3	Zn	1.597601	0.678451	-0.477954
Zn4	Zn	2.097601	1.178451	0.022046
Zn5	Zn	1.422942	0.477781	-0.477952
Zn6	Zn	1.922942	0.977781	0.022048
Zn7	Zn	1.422940	0.678351	-0.678594
Zn8	Zn	1.922940	1.178351	-0.178594
O9	O	1.510297	0.578073	-0.578281
O10	O	2.010297	1.078073	-0.078281
O11	O	1.743928	0.504352	-0.652016
O12	O	2.243928	1.004352	-0.152016
O13	O	1.574389	0.651904	-0.310004
O14	O	2.074389	1.151904	0.189996
O15	O	1.446169	0.309822	-0.504582
O16	O	1.946169	0.809822	-0.004582
O17	O	1.743851	0.651836	-0.504586
O18	O	2.243851	1.151836	-0.004586
O19	O	1.574568	0.309770	-0.652014
O20	O	2.074568	0.809770	-0.152014
O21	O	1.446068	0.504472	-0.310002
O22	O	1.946068	1.004472	0.189998
O23	O	1.276705	0.504374	-0.504555
O24	O	1.776705	1.004374	-0.004555
O25	O	1.446166	0.651664	-0.846548
O26	O	1.946166	1.151664	-0.346548
O27	O	1.276704	0.651732	-0.651966
O28	O	1.776704	1.151732	-0.151966
O29	O	1.574566	0.504255	-0.846568
O30	O	2.074566	1.004255	-0.346568
O31	O	1.574388	0.846388	-0.504559
O32	O	2.074388	1.346388	-0.004559
O33	O	1.446064	0.846314	-0.651968
O34	O	1.946064	1.346314	-0.151968
C35	C	1.238787	0.578050	-0.578258
C36	C	1.738787	1.078050	-0.078258
C37	C	1.122634	0.578069	-0.578277
C38	C	1.622634	1.078069	-0.078277
C39	C	1.510243	0.889898	-0.578287
C40	C	2.010243	1.389898	-0.078287
C41	C	1.510315	1.023298	-0.578330
C42	C	2.010315	1.523298	-0.078330
C43	C	0.950778	0.505077	-0.505483
C44	C	1.450778	1.005077	-0.005483
C45	C	1.070829	0.505055	-0.505462
C46	C	1.570829	1.005055	-0.005462
C47	C	1.782867	0.578097	-0.578304
C48	C	2.282867	1.078097	-0.078304
C49	C	1.899020	0.578108	-0.578314
C50	C	2.399020	1.078108	-0.078314
C51	C	1.510377	0.577940	-0.891323
C52	C	2.010377	1.077940	-0.391323
C53	C	1.510412	0.577883	-1.024723
C54	C	2.010412	1.077883	-0.524723
C55	C	1.510370	1.265031	-0.578313
C56	C	2.010370	1.765031	-0.078313
C57	C	1.510374	1.131631	-0.578359
C58	C	2.010374	1.631631	-0.078359
C59	C	1.510277	0.578120	-0.266456
C60	C	2.010277	1.078120	0.233544
C61	C	1.510446	0.577838	-0.133057
C62	C	2.010446	1.077838	0.366943
H63	H	0.906213	0.442563	-0.443150
H64	H	1.406213	0.942563	0.056850
H65	H	1.115339	0.442535	-0.443104
H66	H	1.615339	0.942535	0.056896
H67	H	1.078130	0.640601	-0.640630
H68	H	1.578130	1.140601	-0.140630
C69	C	0.959221	0.662559	-0.662532
C70	C	1.459221	1.162559	-0.162532
N71	N	1.004562	0.726172	-0.725966
N72	N	1.504562	1.226172	-0.225966
