data_functionalizedCrystal
_audit_creation_method	'MofGen! by Chris Wilmer'
_symmetry_space_group_name_H-M	'P1'
_symmetry_Int_Tables_number	1
_symmetry_cell_setting	triclinic
loop_
_symmetry_equiv_pos_as_xyz
  x,y,z
_cell_length_a	10.654554
_cell_length_b	15.186229
_cell_length_c	10.654550
_cell_angle_alpha	90.002580
_cell_angle_beta	84.485873
_cell_angle_gamma	90.004105
loop_
_atom_site_label
_atom_site_type_symbol
_atom_site_fract_x
_atom_site_fract_y
_atom_site_fract_z
O1	O	1.667836	0.073242	0.176425
O2	O	1.302358	0.073240	0.193225
O3	O	1.493500	0.073238	0.002086
O4	O	1.476694	0.073244	0.367564
O5	O	1.493487	-0.073220	0.002083
O6	O	1.302345	-0.073217	0.193222
O7	O	1.667823	-0.073215	0.176423
Zn8	Zn	1.485082	-0.096470	0.184822
Zn9	Zn	1.485099	0.096494	0.184826
O10	O	1.476681	-0.073213	0.367562
C11	C	1.255554	0.000011	0.191989
C12	C	1.116111	0.000010	0.188295
N13	N	1.485080	-0.228162	0.184819
C14	C	0.933549	0.000020	0.068808
C15	C	1.064571	0.000011	0.072279
C16	C	1.036622	0.000010	0.300848
C17	C	0.905603	0.000013	0.297376
C18	C	0.949686	0.000024	-0.063154
C19	C	1.080708	0.000015	-0.059684
C20	C	1.569747	-0.453886	0.100211
C21	C	1.569750	-0.546076	0.100208
C22	C	1.400435	-0.546083	0.269431
C23	C	1.400426	-0.453895	0.269426
C24	C	1.485089	-0.407799	0.184818
C25	C	1.485102	-0.592177	0.184820
C26	C	1.485106	-0.692133	0.184817
C27	C	1.485084	-0.307836	0.184819
C28	C	1.714627	0.000015	0.177659
C29	C	1.854070	0.000022	0.181353
C30	C	1.492260	0.000010	-0.044713
C31	C	1.488568	0.000013	-0.184156
N32	N	1.485111	0.228187	0.184819
C33	C	1.601109	0.000011	-0.263640
C34	C	1.597632	0.000017	-0.394661
C35	C	1.369063	0.000024	-0.366702
C36	C	1.372541	0.000024	-0.235683
C37	C	1.733072	0.000003	-0.279784
C38	C	1.729595	0.000010	-0.410805
C39	C	1.477921	0.000016	0.414361
C40	C	1.481613	0.000019	0.553804
H41	H	0.840895	0.000004	0.389021
H42	H	1.280899	0.000038	-0.170971
H43	H	1.638682	-0.416357	0.031317
H44	H	0.920318	-0.061265	-0.114768
H45	H	1.331482	-0.416368	0.338324
H46	H	1.274598	0.000033	-0.408671
H47	H	1.331506	-0.583623	0.338318
H48	H	1.122470	0.061308	-0.109398
H49	H	1.775088	-0.063234	-0.244157
H50	H	1.078596	0.000001	0.395311
H51	H	1.638685	-0.583598	0.031312
H52	H	0.914063	0.063261	-0.105174
H53	H	1.784692	0.061292	-0.250424
H54	H	1.769482	0.063246	-0.456446
H55	H	1.779311	-0.061281	-0.452565
H56	H	1.126341	-0.063225	-0.099562
