data_functionalizedCrystal
_audit_creation_method	'MofGen! by Chris Wilmer'
_symmetry_space_group_name_H-M	'P1'
_symmetry_Int_Tables_number	1
_symmetry_cell_setting	triclinic
loop_
_symmetry_equiv_pos_as_xyz
  x,y,z
_cell_length_a	10.723022
_cell_length_b	9.798715
_cell_length_c	16.992695
_cell_angle_alpha	89.996314
_cell_angle_beta	92.432276
_cell_angle_gamma	90.003403
loop_
_atom_site_label
_atom_site_type_symbol
_atom_site_fract_x
_atom_site_fract_y
_atom_site_fract_z
O1	O	1.666662	0.113484	-0.110026
O2	O	1.304417	0.113489	-0.120560
O3	O	1.484087	0.113475	-0.001142
O4	O	1.486992	0.113497	-0.229443
O5	O	1.484073	-0.113507	-0.001141
O6	O	1.304402	-0.113493	-0.120559
O7	O	1.666648	-0.113498	-0.110025
Zn8	Zn	1.485523	-0.149534	-0.115292
Zn9	Zn	1.485542	0.149525	-0.115293
O10	O	1.486977	-0.113485	-0.229442
C11	C	1.257844	-0.000002	-0.119793
C12	C	1.119092	-0.000000	-0.117500
C13	C	1.064602	-0.000006	-0.048636
C14	C	0.921194	-0.000005	-0.046265
N15	N	1.485519	-0.353634	-0.115290
C16	C	1.562201	-0.421408	-0.160781
C17	C	1.562221	-0.578571	-0.160780
C18	C	1.713221	-0.000005	-0.110792
C19	C	1.851972	0.000003	-0.113085
C20	C	1.480344	-0.000015	0.028091
C21	C	1.469196	-0.000015	0.115195
N22	N	1.485555	0.353624	-0.115288
C23	C	1.490721	0.000009	-0.258675
C24	C	1.501868	0.000017	-0.345779
C25	C	1.576756	-0.000018	0.164857
C26	C	1.566274	-0.000005	0.246700
C27	C	1.448231	0.000001	0.278879
C28	C	1.340663	0.000008	0.229210
C29	C	1.351146	0.000005	0.147369
C30	C	1.404783	0.000021	0.522710
C31	C	1.394308	0.000020	0.604558
C32	C	1.619921	0.000010	0.622042
C33	C	1.630393	-0.000002	0.540198
C34	C	1.522825	0.000012	0.490537
N35	N	1.437514	0.000011	0.362536
N36	N	1.533543	0.000013	0.406882
H37	H	0.874306	0.000025	0.012696
O38	O	1.048286	0.000068	-0.185819
C39	C	1.126794	0.000036	-0.250309
H40	H	1.222038	0.043003	-0.230994
H41	H	1.083609	0.065941	-0.299583
H42	H	1.138219	-0.108857	-0.272499
O43	O	0.907745	0.000193	-0.183480
C44	C	0.871284	0.117773	-0.226400
H45	H	0.778788	0.156965	-0.204608
H46	H	0.859853	0.091345	-0.291640
H47	H	0.945726	0.200088	-0.217658
H48	H	1.627842	-0.363080	-0.199725
O49	O	1.640720	-0.647941	-0.207201
C50	C	1.765224	-0.613127	-0.185977
H51	H	1.767492	-0.509349	-0.155631
H52	H	1.822085	-0.608365	-0.241095
H53	H	1.806775	-0.693514	-0.144044
H54	H	1.672880	-0.000031	0.138664
O55	O	1.407160	-0.576717	-0.068935
C56	C	1.326973	-0.494110	-0.116465
H57	H	1.371909	-0.472824	-0.174822
H58	H	1.309842	-0.393581	-0.084933
H59	H	1.234329	-0.549122	-0.128074
H60	H	1.419887	-0.411962	-0.076342
O61	O	1.300329	0.000267	0.474447
C62	C	1.299654	0.117808	0.426567
H63	H	1.360521	0.199971	0.456185
H64	H	1.200006	0.157270	0.417913
H65	H	1.337889	0.091232	0.366887
H66	H	1.653862	-0.000010	0.287132
O67	O	1.745157	0.000048	0.509072
C68	C	1.837848	0.000008	0.570456
H69	H	1.797317	0.042995	0.626230
H70	H	1.919783	0.065891	0.552919
H71	H	1.871399	-0.108891	0.581857
H72	H	1.707496	0.000001	0.662485
O73	O	1.279538	0.000101	0.635688
C74	C	1.186842	0.000085	0.574307
H75	H	1.227385	0.043050	0.518527
H76	H	1.104935	0.066000	0.591840
H77	H	1.153247	-0.108803	0.562920
H78	H	1.244549	0.000022	0.255417
H79	H	1.263559	0.000008	0.106934
H80	H	1.124119	-0.000005	0.008565
