data_functionalizedCrystal
_audit_creation_method	'MofGen! by Chris Wilmer'
_symmetry_space_group_name_H-M	'P1'
_symmetry_Int_Tables_number	1
_symmetry_cell_setting	triclinic
loop_
_symmetry_equiv_pos_as_xyz
  x,y,z
_cell_length_a	14.971486
_cell_length_b	11.792241
_cell_length_c	14.048226
_cell_angle_alpha	89.993434
_cell_angle_beta	89.998499
_cell_angle_gamma	83.903772
loop_
_atom_site_label
_atom_site_type_symbol
_atom_site_fract_x
_atom_site_fract_y
_atom_site_fract_z
O1	O	1.187540	0.147909	-0.079051
O2	O	0.927210	0.165622	-0.079077
O3	O	1.063692	-0.008446	-0.079057
O4	O	1.051058	0.321977	-0.079072
O5	O	1.063676	-0.008456	0.079264
O6	O	0.927194	0.165611	0.079244
O7	O	1.187523	0.147899	0.079270
Zn8	Zn	1.057356	0.156753	0.104394
Zn9	Zn	1.057378	0.156767	-0.104201
O10	O	1.051041	0.321966	0.079250
C11	C	0.893874	0.164824	0.000080
C12	C	0.794568	0.162451	0.000070
C13	C	0.737752	0.264710	0.000067
C14	C	0.644444	0.262473	0.000081
C15	C	0.607953	0.157975	0.000092
C16	C	0.664776	0.055707	0.000098
C17	C	0.758082	0.057946	0.000091
C18	C	0.470294	0.051049	0.000111
C19	C	0.376981	0.048810	0.000117
C20	C	0.356656	0.255577	0.000102
C21	C	0.449963	0.257815	0.000095
C22	C	0.506779	0.155547	0.000099
C23	C	1.062891	-0.050737	0.000103
C24	C	1.060515	-0.176735	0.000102
C25	C	1.056147	-0.407419	0.000086
C26	C	1.058574	-0.279050	0.000095
C27	C	1.220859	0.148696	0.000110
C28	C	1.320166	0.151070	0.000114
C29	C	1.051843	0.364257	0.000087
C30	C	1.054218	0.490256	0.000082
N31	N	1.057347	0.156744	0.246754
N32	N	1.057393	0.156768	-0.246562
C33	C	1.117801	0.079698	0.296582
C34	C	1.117807	0.079698	0.396239
C35	C	1.057363	0.156749	0.446068
C36	C	0.996903	0.233797	0.396234
C37	C	0.996894	0.233792	0.296578
C38	C	0.996929	0.233806	0.603948
C39	C	0.996940	0.233813	0.703611
C40	C	1.117843	0.079712	0.703609
C41	C	1.117833	0.079706	0.603953
C42	C	1.057374	0.156757	0.554126
H43	H	0.479670	0.342907	0.000077
H44	H	0.804341	-0.025325	0.000093
H45	H	1.167025	0.016959	0.256017
C46	C	1.237335	-0.072592	0.386228
C47	C	1.184274	-0.004976	0.451009
H48	H	1.278376	-0.124859	0.420042
H49	H	1.199912	-0.113513	0.347376
H50	H	1.269716	-0.025258	0.347341
H51	H	1.151888	-0.052310	0.489891
H52	H	1.221702	0.035948	0.489877
C53	C	0.365570	-0.128121	-0.081242
C54	C	0.336865	-0.066053	0.000135
H55	H	0.340806	-0.199035	-0.081226
H56	H	0.346101	-0.086013	-0.136447
H57	H	0.429271	-0.141426	-0.081231
H58	H	0.273163	-0.052741	0.000121
H59	H	0.356329	-0.108171	0.055355
C60	C	0.708280	0.468863	0.000064
C61	C	0.777858	0.379580	0.000058
H62	H	0.733039	0.539780	0.000066
H63	H	0.672309	0.463695	-0.055140
H64	H	0.672311	0.463674	0.055280
H65	H	0.813823	0.384764	-0.055163
H66	H	0.813843	0.384751	0.055267
H67	H	1.167055	0.016971	0.563383
H68	H	0.310391	0.338847	0.000103
H69	H	1.167070	0.016974	0.744184
H70	H	0.516553	-0.032229	0.000116
C71	C	0.571641	-0.066757	-0.081279
C72	C	0.624668	-0.059161	0.000107
H73	H	0.546887	-0.137678	-0.081276
H74	H	0.524453	-0.006183	-0.081272
H75	H	0.607627	-0.061582	-0.136483
H76	H	0.588679	-0.064328	0.055313
H77	H	0.671862	-0.119753	0.000110
C78	C	0.877401	0.386099	0.693608
C79	C	0.930483	0.318486	0.758385
H80	H	0.836366	0.438363	0.727426
H81	H	0.914811	0.427024	0.654735
H82	H	0.845013	0.338762	0.654743
H83	H	0.962876	0.365823	0.797246
H84	H	0.893067	0.277559	0.797275
H85	H	0.947694	0.296545	0.563382
C86	C	0.875314	0.258173	0.508330
C87	C	0.930463	0.318491	0.451008
H88	H	0.834302	0.310464	0.542148
H89	H	0.842910	0.210870	0.469466
H90	H	0.911332	0.212291	0.552263
H91	H	0.894445	0.364367	0.407070
H92	H	0.962869	0.365814	0.489876
C93	C	0.877397	0.386124	0.306583
C94	C	0.930445	0.318488	0.241804
H95	H	0.836376	0.438415	0.272767
H96	H	0.845002	0.338814	0.345462
H97	H	0.914837	0.427029	0.345443
H98	H	0.893005	0.277576	0.202949
H99	H	0.962842	0.365804	0.202909
H100	H	0.598187	0.345744	0.000078
