data_functionalizedCrystal
_audit_creation_method	'MofGen! by Chris Wilmer'
_symmetry_space_group_name_H-M	'P1'
_symmetry_Int_Tables_number	1
_symmetry_cell_setting	triclinic
loop_
_symmetry_equiv_pos_as_xyz
  x,y,z
_cell_length_a	12.759401
_cell_length_b	25.639240
_cell_length_c	12.759393
_cell_angle_alpha	90.044235
_cell_angle_beta	90.018567
_cell_angle_gamma	90.031802
loop_
_atom_site_label
_atom_site_type_symbol
_atom_site_fract_x
_atom_site_fract_y
_atom_site_fract_z
Zn1	Zn	1.606124	-0.208133	0.593891
Zn2	Zn	1.605962	-0.295580	0.418172
Zn3	Zn	1.430425	-0.208159	0.418230
Zn4	Zn	1.430359	-0.295538	0.593813
O5	O	1.518218	-0.251853	0.506027
O6	O	1.753123	-0.219740	0.570590
O7	O	1.582638	-0.284012	0.271159
O8	O	1.453828	-0.134990	0.441588
O9	O	1.753005	-0.283987	0.441490
O10	O	1.582912	-0.134971	0.570646
O11	O	1.453671	-0.219784	0.271201
O12	O	1.283396	-0.219743	0.441513
O13	O	1.453714	-0.283915	0.740845
O14	O	1.283347	-0.283940	0.570514
O15	O	1.582847	-0.219699	0.740902
O16	O	1.582573	-0.368740	0.441415
O17	O	1.453558	-0.368709	0.570457
C18	C	1.245250	-0.251840	0.506012
C19	C	1.128474	-0.251848	0.506031
C20	C	1.073666	-0.218458	0.573357
C21	C	0.963942	-0.218468	0.573364
C22	C	0.963843	-0.285262	0.438714
C23	C	1.073565	-0.285249	0.438703
C24	C	1.128575	-0.185056	0.640684
C25	C	1.073768	-0.151663	0.708017
C26	C	0.964044	-0.151673	0.708023
C27	C	0.909127	-0.185076	0.640697
C28	C	1.518069	-0.387695	0.505944
C29	C	1.518102	-0.445809	0.505944
C30	C	1.585465	-0.806124	0.573348
C31	C	1.585496	-0.860728	0.573369
O32	O	1.642595	-0.888924	0.630594
N33	N	1.518363	-0.888092	0.506128
C34	C	1.451188	-0.860848	0.438869
O35	O	1.394088	-0.889137	0.381678
C36	C	1.451152	-0.806245	0.438853
C37	C	1.518297	-0.778884	0.506091
C38	C	1.652604	-0.778763	0.640581
C39	C	1.652574	-0.724163	0.640558
C40	C	1.585406	-0.696923	0.573302
C41	C	1.518267	-0.724283	0.506068
C42	C	1.383972	-0.779002	0.371600
C43	C	1.383941	-0.724395	0.371591
C44	C	1.451086	-0.697034	0.438829
C45	C	1.451069	-0.642443	0.438789
N46	N	1.518202	-0.615080	0.506030
C47	C	1.585370	-0.642320	0.573287
C48	C	1.451266	-0.975518	0.438907
C49	C	1.451306	-1.030121	0.438916
C50	C	1.585614	-1.029997	0.573419
C51	C	1.585578	-0.975394	0.573403
C52	C	1.518399	-0.948155	0.506148
C53	C	1.585303	-0.527655	0.573233
C54	C	1.585270	-0.473049	0.573201
C55	C	1.450959	-0.473177	0.438703
C56	C	1.450995	-0.527778	0.438730
C57	C	1.518171	-0.555015	0.506004
O58	O	1.393996	-0.614213	0.381597
O59	O	1.642450	-0.614024	0.630478
C60	C	1.792251	-0.251865	0.506042
C61	C	1.909027	-0.251871	0.506048
C62	C	1.518291	-0.251800	0.780060
C63	C	1.518323	-0.251777	0.896837
C64	C	1.518395	-0.115480	0.506132
C65	C	1.518471	-0.057365	0.506177
C66	C	1.518205	-0.251867	0.233059
C67	C	1.518377	-0.251743	0.116283
C68	C	1.585572	-0.218337	0.951730
C69	C	1.585597	-0.218318	1.061454
C70	C	1.451120	-0.285185	1.061382
C71	C	1.451091	-0.285200	0.951660
C72	C	1.652803	-0.184914	0.896907
C73	C	1.720059	-0.151471	0.951801
C74	C	1.720084	-0.151452	1.061525
C75	C	1.652853	-0.184876	1.116355
H76	H	0.919422	-0.124480	0.762841
H77	H	1.329295	-0.801269	0.316847
O78	O	1.246920	-0.185047	0.640673
H79	H	1.275822	-0.174433	0.561467
H80	H	1.396384	-0.312396	1.106034
O81	O	1.311492	-0.695014	0.299041
H82	H	1.264821	-0.723217	0.252287
O83	O	1.378580	-0.557294	0.366210
H84	H	1.331866	-0.529176	0.319443
O85	O	1.792614	-0.115377	1.120722
H86	H	1.745637	-0.088760	1.170718
O87	O	1.132682	-0.321262	0.366082
H88	H	1.218203	-0.315635	0.377377
H89	H	1.396274	-0.450990	0.383940
H90	H	0.819782	-0.185070	0.640686
H91	H	1.652793	-0.184927	0.807564
O92	O	0.904619	-0.321291	0.366107
H93	H	0.819114	-0.315693	0.377433
O94	O	1.657705	-0.443537	0.645712
H95	H	1.704412	-0.471656	0.692484
O96	O	1.378825	-0.946139	0.366343
H97	H	1.332165	-0.974345	0.319584
O98	O	1.657761	-0.557029	0.645782
H99	H	1.704443	-0.528822	0.692516
H100	H	1.707246	-0.701889	0.695312
H101	H	1.707300	-0.800936	0.695356
O102	O	1.658001	-0.945884	0.645919
H103	H	1.704709	-0.974005	0.692684
O104	O	1.378559	-0.321266	0.892441
H105	H	1.331823	-0.344510	0.948994
O106	O	1.658051	-1.059382	0.645977
H107	H	1.646779	-1.101947	0.634696
H108	H	1.774789	-0.124256	0.907150
O109	O	1.378900	-1.059631	0.366385
H110	H	1.296427	-1.049179	0.384333
O111	O	1.132989	-0.115636	0.780628
H112	H	1.218494	-0.121240	0.769321
H113	H	1.652867	-0.184852	1.205700
