data_functionalizedCrystal
_audit_creation_method	'MofGen! by Chris Wilmer'
_symmetry_space_group_name_H-M	'P1'
_symmetry_Int_Tables_number	1
_symmetry_cell_setting	triclinic
loop_
_symmetry_equiv_pos_as_xyz
  x,y,z
_cell_length_a	12.759401
_cell_length_b	10.685194
_cell_length_c	12.759393
_cell_angle_alpha	94.403421
_cell_angle_beta	90.019613
_cell_angle_gamma	94.377386
loop_
_atom_site_label
_atom_site_type_symbol
_atom_site_fract_x
_atom_site_fract_y
_atom_site_fract_z
Zn1	Zn	1.574245	-0.502332	0.561934
Zn2	Zn	1.560690	-0.713402	0.372775
Zn3	Zn	1.398543	-0.502398	0.386265
Zn4	Zn	1.385092	-0.713305	0.548419
O5	O	1.479643	-0.607859	0.467348
O6	O	1.719467	-0.530343	0.536851
O7	O	1.539137	-0.685480	0.227539
O8	O	1.433153	-0.325790	0.420870
O9	O	1.709508	-0.685416	0.397877
O10	O	1.562241	-0.325741	0.549933
O11	O	1.420008	-0.530456	0.237450
O12	O	1.249739	-0.530362	0.407765
O13	O	1.410228	-0.685251	0.697237
O14	O	1.239856	-0.685315	0.526899
O15	O	1.549198	-0.530249	0.707166
O16	O	1.526094	-0.889988	0.384772
O17	O	1.397083	-0.889917	0.513817
C18	C	1.206677	-0.607836	0.467330
C19	C	1.089899	-0.607857	0.467345
C20	C	1.029863	-0.688474	0.394898
C21	C	0.920137	-0.688495	0.394915
C22	C	0.930494	-0.527273	0.539830
C23	C	1.040217	-0.527258	0.539817
C24	C	1.023883	-0.781551	0.311229
C25	C	0.914157	-0.781572	0.311246
C26	C	1.458687	-0.935743	0.446387
C27	C	1.449818	-1.076012	0.437455
C28	C	1.753674	-0.607883	0.467367
C29	C	1.870450	-0.607893	0.467375
C30	C	1.479724	-0.607732	0.741390
C31	C	1.479759	-0.607678	0.858170
C32	C	1.500709	-0.278695	0.488414
C33	C	1.509686	-0.138425	0.497391
C34	C	1.479628	-0.607895	0.194378
C35	C	1.479819	-0.607594	0.077622
C36	C	1.552131	-0.526961	0.918204
C37	C	1.552159	-0.526915	1.027931
C38	C	1.407440	-0.688314	1.017579
C39	C	1.407408	-0.688352	0.907855
C40	C	1.635686	-0.433782	0.924182
C41	C	1.635714	-0.433736	1.033909
H42	H	1.089094	-0.461625	0.598821
H43	H	1.612518	-0.340874	1.073886
H44	H	1.567729	-1.084550	0.555542
F45	F	1.373935	-1.146436	0.361452
F46	F	1.330367	-0.774244	0.843966
F47	F	1.615373	-0.306041	0.893440
F48	F	1.733768	-0.479572	0.876766
H49	H	1.715416	-0.459913	1.062017
H50	H	0.890030	-0.461653	0.598834
H51	H	1.060122	-0.746425	0.236226
F52	F	1.054662	-0.909337	0.331360
H53	H	0.874210	-0.874469	0.334325
H54	H	0.886018	-0.755280	0.231597
F55	F	1.330443	-0.774169	1.070467
