data_functionalizedCrystal
_audit_creation_method	'MofGen! by Chris Wilmer'
_symmetry_space_group_name_H-M	'P1'
_symmetry_Int_Tables_number	1
_symmetry_cell_setting	triclinic
loop_
_symmetry_equiv_pos_as_xyz
  x,y,z
_cell_length_a	18.426585
_cell_length_b	14.560438
_cell_length_c	14.560438
_cell_angle_alpha	60.000905
_cell_angle_beta	90.000730
_cell_angle_gamma	60.001046
loop_
_atom_site_label
_atom_site_type_symbol
_atom_site_fract_x
_atom_site_fract_y
_atom_site_fract_z
Zr1	Zr	0.699110	1.005314	-0.120530
O2	O	0.583231	1.196911	-0.267171
O3	O	0.734633	0.813715	-0.075579
O4	O	0.734629	1.005319	-0.267179
O5	O	0.583237	1.005305	0.075571
O6	O	0.854055	1.005325	-0.267183
O7	O	0.583234	1.005307	-0.075570
O8	O	0.854061	0.662581	0.075555
O9	O	0.583231	1.348049	-0.267168
O10	O	0.838909	0.892528	-0.056408
O11	O	0.749785	0.892521	0.056390
O12	O	0.749781	1.118110	-0.169195
O13	O	0.660657	1.118104	-0.056398
Zr14	Zr	0.889585	1.005320	0.120516
Zr15	Zr	0.889580	1.005324	-0.120536
Zr16	Zr	0.699115	1.005310	0.120522
Zr17	Zr	0.699110	1.246362	-0.120525
Zr18	Zr	0.889585	0.764273	0.120512
O19	O	0.854062	1.196920	0.075565
O20	O	0.854055	1.196926	-0.267180
O21	O	0.583238	1.196905	0.075574
O22	O	1.005464	0.813723	0.267158
O23	O	1.005457	0.813729	-0.075587
O24	O	0.734640	0.813709	0.267166
O25	O	1.005458	1.005330	-0.075584
O26	O	0.854066	1.005316	0.267166
O27	O	0.734640	1.005310	0.267170
O28	O	1.005461	1.005327	0.075557
O29	O	0.734630	1.348057	-0.267173
O30	O	0.854065	0.662577	0.267160
O31	O	1.005464	0.662586	0.267155
O32	O	1.005460	0.662589	0.075550
O33	O	0.583235	1.348046	-0.075564
O34	O	0.734634	1.348054	-0.075569
O35	O	0.838914	0.892524	0.169182
O36	O	0.928038	0.892531	0.056384
O37	O	0.838910	1.118113	-0.056403
O38	O	0.749786	1.118107	0.056394
C39	C	0.794347	0.703804	-0.000012
C40	C	0.794347	0.601473	-0.000014
C41	C	0.840867	0.553400	-0.058894
C42	C	0.840870	0.457241	-0.058883
C43	C	0.747827	0.457239	0.058888
C44	C	0.747829	0.553390	0.058883
C45	C	0.556098	1.005305	0.000001
C46	C	0.475238	1.005300	0.000004
C47	C	0.179123	1.005339	-0.000016
C48	C	0.261509	1.005334	-0.000014
C49	C	0.327178	1.005320	-0.000007
C50	C	0.409570	1.005314	-0.000003
C51	C	1.032597	1.005330	-0.000014
C52	C	1.113457	1.005334	-0.000017
C53	C	0.794341	1.005322	-0.301526
C54	C	0.794339	1.005324	-0.403859
C55	C	0.794348	1.306831	-0.000001
C56	C	0.794348	1.409162	0.000001
C57	C	0.747816	1.123074	-0.510809
C58	C	0.747827	1.123067	-0.606958
C59	C	0.840884	0.887552	-0.489193
C60	C	0.840879	0.887559	-0.393046
C61	C	0.794354	1.005312	0.301513
C62	C	0.794356	1.005311	0.403846
C63	C	1.032597	0.703816	-0.000020
C64	C	1.113456	0.601490	-0.000025
C65	C	0.794353	0.703798	0.301507
C66	C	0.794355	0.601466	0.403838
C67	C	1.032603	0.703811	0.301499
C68	C	1.113464	0.601483	0.403828
C69	C	0.556092	1.306823	-0.301513
C70	C	0.475231	1.409152	-0.403841
C71	C	0.556098	1.306818	0.000007
C72	C	0.475239	1.409145	0.000011
C73	C	0.794342	1.306836	-0.301520
C74	C	0.794340	1.409169	-0.403852
C75	C	1.104905	0.553434	-0.058913
C76	C	1.180873	0.457301	-0.058940
C77	C	1.265393	0.409218	-0.000071
C78	C	1.273943	0.457283	0.058819
C79	C	1.197975	0.553421	0.058839
C80	C	1.197967	0.553432	0.393003
C81	C	1.273953	0.457297	0.489142
C82	C	1.265433	0.409208	0.596105
C83	C	1.180921	0.457268	0.606928
C84	C	1.104937	0.553408	0.510790
C85	C	0.390728	1.457215	-0.393017
C86	C	0.314742	1.553379	-0.489156
C87	C	0.323262	1.601473	-0.596119
C88	C	0.407774	1.553407	-0.606941
C89	C	0.483758	1.457250	-0.510803
C90	C	0.483790	1.457210	0.058890
C91	C	0.407822	1.553370	0.058890
C92	C	0.323302	1.601457	0.000017
C93	C	0.314752	1.553388	-0.058868
C94	C	0.390720	1.457236	-0.058874
C95	C	0.840879	0.553389	0.510790
C96	C	0.840871	0.457246	0.606937
C97	C	0.747813	0.457260	0.489167
C98	C	0.747817	0.553408	0.393022
H99	H	0.878746	0.592545	-0.106849
H100	H	0.709921	1.218965	-0.519620
H101	H	0.878768	0.791668	-0.305957
H102	H	1.327244	0.330935	-0.000095
H103	H	1.342769	0.418119	0.106748
H104	H	0.709946	0.592529	0.106835
H105	H	0.383773	1.418062	-0.305931
H106	H	0.245936	1.592499	-0.480322
H107	H	0.709944	1.218951	-0.694039
H108	H	1.204950	0.592535	0.106799
H109	H	0.261451	1.679750	0.000032
H110	H	0.878774	0.791672	-0.480403
H111	H	0.414800	1.592492	0.106846
H112	H	1.036091	0.592583	-0.106865
H113	H	1.173895	0.418178	-0.106895
H114	H	0.878752	0.418101	-0.106826
H115	H	0.878754	0.418108	0.694018
H116	H	1.204921	0.592572	0.305917
H117	H	1.342759	0.418176	0.480311
H118	H	0.414701	1.592577	-0.694042
H119	H	0.552562	1.418118	-0.519630
H120	H	0.709953	0.418079	0.106838
H121	H	0.261384	1.679770	-0.674391
H122	H	1.327311	0.330925	0.674378
H123	H	0.552604	1.418066	0.106838
H124	H	0.709924	0.418118	0.480375
H125	H	0.709927	0.592556	0.305931
H126	H	1.173997	0.418100	0.694030
H127	H	0.245926	1.592554	-0.106800
H128	H	1.036134	0.592519	0.519619
H129	H	0.383745	1.418104	-0.106817
H130	H	0.878770	0.592519	0.519602
