data_functionalizedCrystal
_audit_creation_method	'MofGen! by Chris Wilmer'
_symmetry_space_group_name_H-M	'P1'
_symmetry_Int_Tables_number	1
_symmetry_cell_setting	triclinic
loop_
_symmetry_equiv_pos_as_xyz
  x,y,z
_cell_length_a	17.077404
_cell_length_b	12.645330
_cell_length_c	17.077396
_cell_angle_alpha	89.973796
_cell_angle_beta	89.980499
_cell_angle_gamma	90.012871
loop_
_atom_site_label
_atom_site_type_symbol
_atom_site_fract_x
_atom_site_fract_y
_atom_site_fract_z
Zn1	Zn	1.200110	-0.422033	-0.443855
Zn2	Zn	1.533444	-0.088700	-0.110522
Zn3	Zn	1.866777	0.244634	0.222812
Zn4	Zn	1.200041	-0.599318	-0.312594
Zn5	Zn	1.533374	-0.265985	0.020739
Zn6	Zn	1.866708	0.067348	0.354072
Zn7	Zn	1.068842	-0.422070	-0.312603
Zn8	Zn	1.402176	-0.088737	0.020730
Zn9	Zn	1.735509	0.244596	0.354064
Zn10	Zn	1.068834	-0.599256	-0.443818
Zn11	Zn	1.402167	-0.265922	-0.110485
Zn12	Zn	1.735500	0.067411	0.222849
O13	O	1.134457	-0.510669	-0.378218
O14	O	1.467790	-0.177336	-0.044884
O15	O	1.801124	0.155997	0.288449
O16	O	1.309948	-0.445561	-0.426455
O17	O	1.643282	-0.112228	-0.093122
O18	O	1.976615	0.221106	0.240212
O19	O	1.182612	-0.575848	-0.202749
O20	O	1.515945	-0.242515	0.130585
O21	O	1.849278	0.090819	0.463918
O22	O	1.086288	-0.273718	-0.330033
O23	O	1.419621	0.059615	0.003300
O24	O	1.752955	0.392949	0.336633
O25	O	1.309897	-0.575812	-0.330018
O26	O	1.643230	-0.242479	0.003315
O27	O	1.976564	0.090855	0.336648
O28	O	1.182730	-0.273691	-0.426464
O29	O	1.516063	0.059643	-0.093130
O30	O	1.849397	0.392976	0.240203
O31	O	1.086221	-0.445624	-0.202755
O32	O	1.419554	-0.112291	0.130578
O33	O	1.752887	0.221042	0.463912
O34	O	0.958994	-0.445563	-0.329997
O35	O	1.292328	-0.112230	0.003336
O36	O	1.625661	0.221103	0.336670
O37	O	1.086273	-0.575705	-0.553670
O38	O	1.419607	-0.242371	-0.220337
O39	O	1.752940	0.090962	0.112997
O40	O	0.958988	-0.575741	-0.426400
O41	O	1.292321	-0.242407	-0.093067
O42	O	1.625655	0.090926	0.240267
O43	O	1.182722	-0.445500	-0.553697
O44	O	1.516055	-0.112167	-0.220364
O45	O	1.849388	0.221167	0.112969
O46	O	1.182603	-0.747657	-0.329982
O47	O	1.515937	-0.414324	0.003351
O48	O	1.849270	-0.080991	0.336684
O49	O	1.086206	-0.747611	-0.426392
O50	O	1.419539	-0.414278	-0.093058
O51	O	1.752873	-0.080944	0.240275
C52	C	0.930509	-0.510650	-0.378196
C53	C	1.263842	-0.177317	-0.044863
C54	C	1.597176	0.156017	0.288471
C55	C	0.843259	-0.510667	-0.378205
C56	C	1.176593	-0.177334	-0.044872
C57	C	1.509926	0.155999	0.288461
C58	C	0.802286	-0.578553	-0.428322
C59	C	1.135620	-0.245220	-0.094989
C60	C	1.468953	0.088114	0.238345
C61	C	0.720306	-0.578555	-0.428334
C62	C	1.053639	-0.245222	-0.095001
C63	C	1.386973	0.088111	0.238332
C64	C	0.679300	-0.510677	-0.378226
C65	C	1.012633	-0.177343	-0.044893
C66	C	1.345966	0.155990	0.288441
C67	C	0.720278	-0.442783	-0.328107
C68	C	1.053612	-0.109450	0.005226
C69	C	1.386945	0.223883	0.338560
C70	C	0.802257	-0.442777	-0.328099
C71	C	1.135591	-0.109443	0.005234
C72	C	1.468924	0.223890	0.338568
C73	C	0.549408	-0.442804	-0.328126
C74	C	0.882742	-0.109471	0.005207
C75	C	1.216075	0.223862	0.338541
C76	C	0.467424	-0.442812	-0.328133
C77	C	0.800757	-0.109479	0.005201
C78	C	1.134090	0.223854	0.338534
C79	C	0.467457	-0.578583	-0.428361
C80	C	0.800790	-0.245250	-0.095028
C81	C	1.134124	0.088084	0.238305
C82	C	0.549436	-0.578576	-0.428353
C83	C	0.882769	-0.245243	-0.095020
C84	C	1.216103	0.088091	0.238313
C85	C	0.590409	-0.510684	-0.378233
C86	C	0.923742	-0.177351	-0.044900
C87	C	1.257075	0.155982	0.288433
C88	C	1.134418	-0.786099	-0.378199
C89	C	1.467751	-0.452766	-0.044866
C90	C	1.801084	-0.119432	0.288468
C91	C	1.134473	-0.903929	-0.378217
C92	C	1.467806	-0.570596	-0.044884
C93	C	1.801139	-0.237262	0.288449
C94	C	1.195019	-1.071478	-0.317443
C95	C	1.528352	-0.738145	0.015890
C96	C	1.861686	-0.404811	0.349224
C97	C	1.195216	-0.948918	-0.317592
C98	C	1.528549	-0.615584	0.015741
C99	C	1.861883	-0.282251	0.349075
C100	C	1.156905	-0.948313	-0.460961
C101	C	1.490238	-0.614979	-0.127628
C102	C	1.823571	-0.281646	0.205705
C103	C	1.157385	-1.070911	-0.460639
C104	C	1.490719	-0.737577	-0.127305
C105	C	1.824052	-0.404244	0.206028
C106	C	1.051470	-1.071256	-0.357063
C107	C	1.384804	-0.737923	-0.023730
C108	C	1.718137	-0.404590	0.309603
C109	C	1.051868	-0.948652	-0.355208
C110	C	1.385201	-0.615319	-0.021874
C111	C	1.718535	-0.281985	0.311459
C112	C	1.339201	-0.510689	-0.378240
C113	C	1.672534	-0.177356	-0.044907
C114	C	2.005868	0.155977	0.288427
C115	C	1.426451	-0.510698	-0.378249
C116	C	1.759784	-0.177365	-0.044916
C117	C	2.093118	0.155969	0.288417
C118	C	1.134504	-0.510591	-0.582962
C119	C	1.467838	-0.177258	-0.249629
C120	C	1.801171	0.156075	0.083705
C121	C	1.134525	-0.510558	-0.670212
C122	C	1.467858	-0.177225	-0.336879
C123	C	1.801191	0.156109	-0.003545
C124	C	1.134518	-0.234164	-0.378253
C125	C	1.467851	0.099169	-0.044920
C126	C	1.801184	0.432503	0.288413
C127	C	1.134544	-0.116334	-0.378269
C128	C	1.467877	0.216999	-0.044935
C129	C	1.801210	0.550333	0.288398
C130	C	1.184747	-0.442755	-0.711218
C131	C	1.518080	-0.109421	-0.377884
C132	C	1.851414	0.223912	-0.044551
C133	C	1.184757	-0.442719	-0.793198
C134	C	1.518090	-0.109386	-0.459865
C135	C	1.851423	0.223947	-0.126531
C136	C	1.134547	-0.510493	-0.834171
C137	C	1.467880	-0.177160	-0.500838
C138	C	1.801214	0.156173	-0.167505
C139	C	1.084319	-0.578300	-0.793160
C140	C	1.417652	-0.244966	-0.459827
C141	C	1.750985	0.088367	-0.126493
C142	C	1.084306	-0.578329	-0.711181
C143	C	1.417639	-0.244995	-0.377848
C144	C	1.750973	0.088338	-0.044514
C145	C	1.084350	-0.578236	-0.964030
C146	C	1.417684	-0.244903	-0.630697
C147	C	1.751017	0.088431	-0.297363
C148	C	1.084364	-0.578208	-1.046015
C149	C	1.417697	-0.244875	-0.712681
C150	C	1.751031	0.088458	-0.379348
C151	C	1.184801	-0.442626	-1.046047
C152	C	1.518134	-0.109293	-0.712714
C153	C	1.851468	0.224040	-0.379380
C154	C	1.184788	-0.442656	-0.964068
C155	C	1.518122	-0.109322	-0.630735
C156	C	1.851455	0.224011	-0.297401
C157	C	1.134561	-0.510464	-0.923062
C158	C	1.467894	-0.177130	-0.589729
C159	C	1.801228	0.156203	-0.256396
C160	C	1.134455	-0.510671	-0.174270
C161	C	1.467788	-0.177337	0.159064
C162	C	1.801121	0.155996	0.492397
C163	C	1.134587	-0.510405	-0.087020
C164	C	1.467920	-0.177072	0.246313
C165	C	1.801253	0.156261	0.579646
H166	H	0.686949	-0.633836	-0.469144
H167	H	1.020283	-0.300502	-0.135810
H168	H	1.353616	0.032831	0.197523
Br169	Br	1.252899	-0.350778	-0.655619
Br170	Br	1.586232	-0.017445	-0.322285
Br171	Br	1.919566	0.315888	0.011048
Br172	Br	1.252970	-0.350606	-1.101696
Br173	Br	1.586303	-0.017272	-0.768363
Br174	Br	1.919637	0.316061	-0.435030
Br175	Br	1.087149	-1.120367	-0.538739
Br176	Br	1.420483	-0.787034	-0.205406
Br177	Br	1.753816	-0.453701	0.127927
Br178	Br	0.857865	-0.350637	-0.260086
Br179	Br	1.191198	-0.017303	0.073248
Br180	Br	1.524531	0.316030	0.406581
Br181	Br	1.256970	-0.897001	-0.491403
Br182	Br	1.590303	-0.563668	-0.158070
Br183	Br	1.923636	-0.230335	0.175264
H184	H	1.043477	-0.633394	-1.079373
H185	H	1.376810	-0.300060	-0.746040
H186	H	1.710144	0.033273	-0.412706
Br187	Br	1.297025	-1.122691	-0.340555
Br188	Br	1.630358	-0.789358	-0.007222
Br189	Br	1.963692	-0.456024	0.326112
H190	H	0.434093	-0.633860	-0.469173
H191	H	0.767426	-0.300527	-0.135840
H192	H	1.100759	0.032807	0.197494
Br193	Br	1.297769	-0.899892	-0.340973
Br194	Br	1.631103	-0.566559	-0.007640
Br195	Br	1.964436	-0.233226	0.325694
H196	H	1.043402	-0.633530	-0.677795
H197	H	1.376735	-0.300197	-0.344462
H198	H	1.710068	0.033136	-0.011129
Br199	Br	1.017467	-1.122940	-0.258251
Br200	Br	1.350800	-0.789607	0.075083
Br201	Br	1.684134	-0.456273	0.408416
Br202	Br	1.023669	-0.900316	-0.253718
Br203	Br	1.357003	-0.566983	0.079615
Br204	Br	1.690336	-0.233650	0.412949
H205	H	1.043434	-0.633479	-0.826527
H206	H	1.376768	-0.300145	-0.493194
H207	H	1.710101	0.033188	-0.159860
H208	H	1.114198	-0.919168	-0.507495
H209	H	1.447532	-0.585835	-0.174162
H210	H	1.780865	-0.252501	0.159172
Br211	Br	1.016181	-0.670258	-0.908380
Br212	Br	1.349515	-0.336925	-0.575046
Br213	Br	1.682848	-0.003591	-0.241713
H214	H	0.835668	-0.633831	-0.469124
H215	H	1.169001	-0.300498	-0.135790
H216	H	1.502334	0.032835	0.197543
Br217	Br	0.976368	-1.119606	-0.430900
Br218	Br	1.309701	-0.786272	-0.097567
Br219	Br	1.643035	-0.452939	0.235767
Br220	Br	0.972711	-0.897630	-0.423632
Br221	Br	1.306045	-0.564297	-0.090299
Br222	Br	1.639378	-0.230963	0.243034
Br223	Br	0.605087	-0.670708	-0.496351
Br224	Br	0.938420	-0.337375	-0.163017
Br225	Br	1.271754	-0.004042	0.170316
H226	H	1.225655	-0.387510	-0.826581
H227	H	1.558988	-0.054176	-0.493248
H228	H	1.892321	0.279157	-0.159915
Br229	Br	0.605014	-0.350662	-0.260107
Br230	Br	0.938348	-0.017329	0.073226
Br231	Br	1.271681	0.316005	0.406560
Br232	Br	0.411773	-0.350698	-0.260122
Br233	Br	0.745106	-0.017365	0.073212
Br234	Br	1.078439	0.315968	0.406545
Br235	Br	0.664628	-0.350651	-0.260109
Br236	Br	0.997962	-0.017317	0.073224
Br237	Br	1.331295	0.316016	0.406558
Br238	Br	1.171765	-0.898902	-0.215346
Br239	Br	1.505099	-0.565569	0.117987
Br240	Br	1.838432	-0.232236	0.451321
H241	H	1.181160	-1.101030	-0.255910
H242	H	1.514493	-0.767696	0.077423
H243	H	1.847826	-0.434363	0.410756
H244	H	1.218108	-1.099423	-0.478601
H245	H	1.551441	-0.766090	-0.145267
H246	H	1.884774	-0.432757	0.188066
H247	H	1.225678	-0.387474	-0.930710
H248	H	1.559011	-0.054141	-0.597377
H249	H	1.892344	0.279193	-0.264043
