data_functionalizedCrystal
_audit_creation_method	'MofGen! by Chris Wilmer'
_symmetry_space_group_name_H-M	'P1'
_symmetry_Int_Tables_number	1
_symmetry_cell_setting	triclinic
loop_
_symmetry_equiv_pos_as_xyz
  x,y,z
_cell_length_a	16.974885
_cell_length_b	15.995292
_cell_length_c	16.053802
_cell_angle_alpha	92.568169
_cell_angle_beta	91.069328
_cell_angle_gamma	83.430476
loop_
_atom_site_label
_atom_site_type_symbol
_atom_site_fract_x
_atom_site_fract_y
_atom_site_fract_z
O1	O	1.049046	0.106761	0.001393
O2	O	0.819584	0.119573	-0.014098
O3	O	0.940612	-0.008710	-0.005929
O4	O	0.928019	0.235044	-0.006777
O5	O	0.933950	-0.001678	0.132480
O6	O	0.812923	0.126605	0.124311
O7	O	1.042385	0.113793	0.139802
Zn8	Zn	0.926596	0.121315	0.154032
Zn9	Zn	0.935373	0.112050	-0.028328
O10	O	0.921357	0.242076	0.131633
C11	C	0.786891	0.122472	0.053124
C12	C	0.699399	0.120624	0.047217
C13	C	0.207311	0.109777	0.005813
C14	C	0.289518	0.111514	0.011374
C15	C	0.326982	0.116222	0.089602
C16	C	0.282235	0.119185	0.162274
C17	C	0.200030	0.117441	0.156712
C18	C	0.572448	0.121842	0.114327
C19	C	0.654658	0.123588	0.119884
C20	C	0.661936	0.115916	-0.031017
C21	C	0.579729	0.114178	-0.036572
C22	C	0.534990	0.117136	0.036100
N23	N	0.411010	0.118001	0.095289
N24	N	0.450964	0.115351	0.030413
C25	C	0.936769	-0.036391	0.063239
C26	C	0.935232	-0.129348	0.063129
C27	C	0.929583	-0.467098	0.062755
C28	C	1.016923	-0.443574	0.068962
C29	C	1.018598	-0.346911	0.068759
C30	C	0.932386	-0.299536	0.062941
C31	C	0.892517	-0.332751	-0.019043
C32	C	0.891469	-0.429547	-0.019177
C33	C	0.882109	-0.421412	0.138100
C34	C	0.885296	-0.324859	0.139360
C35	C	0.933966	-0.204837	0.063043
C36	C	0.928001	-0.561798	0.062648
C37	C	1.075078	0.110893	0.072578
C38	C	1.162570	0.112742	0.078479
C39	C	0.925201	0.269756	0.062463
C40	C	0.926737	0.362713	0.062568
N41	N	0.920612	0.127638	0.278488
N42	N	0.941364	0.105721	-0.152784
C43	C	0.972128	0.073073	0.325660
C44	C	0.967949	0.077503	0.412784
C45	C	0.912257	0.136504	0.452736
C46	C	0.860736	0.191071	0.405559
C47	C	0.864911	0.186636	0.318435
C48	C	0.894018	0.155854	0.712915
C49	C	0.889848	0.160286	0.800045
C50	C	0.997060	0.046717	0.807264
C51	C	1.001234	0.042290	0.720139
C52	C	0.949710	0.096855	0.672969
N53	N	0.907986	0.141036	0.541792
N54	N	0.953978	0.092318	0.583915
H55	H	0.536032	0.124239	0.173502
C56	C	0.660871	0.108165	-0.180731
C57	C	0.711115	0.112663	-0.110895
H58	H	0.691232	0.106161	-0.230046
H59	H	0.634683	0.058862	-0.179354
H60	H	0.622630	0.156431	-0.180162
H61	H	0.749352	0.064394	-0.111461
H62	H	0.737316	0.161971	-0.112273
C63	C	0.884848	-0.513511	-0.146355
C64	C	0.936142	-0.469715	-0.096175
H65	H	0.912429	-0.538301	-0.193893
H66	H	0.866227	-0.556363	-0.115429
H67	H	0.841105	-0.475564	-0.163786
H68	H	0.979882	-0.507663	-0.078740
H69	H	0.954775	-0.426857	-0.127107
C70	C	0.070783	0.118168	0.215188
C71	C	0.150846	0.120699	0.236588
H72	H	0.040422	0.120171	0.264503
H73	H	0.052787	0.165088	0.182876
H74	H	0.064840	0.067520	0.183682
H75	H	0.156789	0.171351	0.268089
H76	H	0.168847	0.073775	0.268914
C77	C	0.993906	-0.045853	0.228890
C78	C	1.033326	0.008178	0.281767
H79	H	1.031682	-0.085926	0.201798
H80	H	0.959464	-0.074292	0.260690
H81	H	0.963847	-0.013984	0.188312
H82	H	1.063380	-0.023690	0.322349
H83	H	1.067781	0.036619	0.249965
C84	C	0.639214	0.130972	0.268492
C85	C	0.695841	0.128751	0.205879
H86	H	0.664642	0.134154	0.321577
H87	H	0.601282	0.178915	0.262787
H88	H	0.613324	0.081345	0.263581
H89	H	0.721727	0.178382	0.210786
H90	H	0.733787	0.080804	0.211587
C91	C	0.405014	0.125274	0.237804
C92	C	0.323413	0.124363	0.248265
H93	H	0.430432	0.128478	0.290893
H94	H	0.426002	0.075202	0.208131
H95	H	0.413950	0.172770	0.207303
H96	H	0.314477	0.076864	0.278761
H97	H	0.302418	0.174440	0.277950
H98	H	0.844494	0.208335	0.832569
C99	C	0.777176	-0.480746	0.204696
C100	C	0.795274	-0.440457	0.132967
H101	H	0.723569	-0.492502	0.201521
H102	H	0.811145	-0.531925	0.208723
H103	H	0.784529	-0.445125	0.252488
H104	H	0.787926	-0.476081	0.085175
H105	H	0.761294	-0.389271	0.128931
H106	H	0.852066	0.200284	0.674516
H107	H	0.815386	0.239108	0.438092
H108	H	1.046583	-0.005753	0.687612
H109	H	1.055735	-0.331312	0.014327
C110	C	1.085207	-0.386557	0.196690
C111	C	1.061051	-0.317225	0.148379
H112	H	1.111409	-0.368230	0.245849
H113	H	1.040125	-0.412497	0.211450
H114	H	1.120480	-0.425957	0.165538
H115	H	1.025773	-0.277827	0.179529
H116	H	1.106139	-0.291272	0.133621
C117	C	0.084531	0.103704	-0.069719
C118	C	0.166134	0.104604	-0.080179
H119	H	0.059113	0.100515	-0.122809
H120	H	0.075588	0.056215	-0.039228
H121	H	0.063548	0.153783	-0.040038
H122	H	0.187118	0.054522	-0.109855
H123	H	0.175083	0.152099	-0.110683
C124	C	0.758525	0.299347	0.320045
C125	C	0.808287	0.246620	0.266582
H126	H	0.723569	0.336380	0.288032
H127	H	0.728558	0.266141	0.352122
H128	H	0.789703	0.331288	0.356231
H129	H	0.777109	0.214673	0.230399
H130	H	0.838257	0.279829	0.234490
C131	C	1.094188	-0.425022	-0.051210
C132	C	1.065789	-0.486499	-0.004077
H133	H	1.124357	-0.451524	-0.096299
H134	H	1.050719	-0.389039	-0.072374
H135	H	1.126759	-0.392818	-0.016923
H136	H	1.033214	-0.518699	-0.038363
H137	H	1.109265	-0.522496	0.017087
C138	C	1.009488	-0.062204	0.906400
C139	C	1.053685	-0.013266	0.859116
H140	H	1.044447	-0.099241	0.938407
H141	H	0.975733	-0.026429	0.942658
H142	H	0.978321	-0.094142	0.870198
H143	H	1.084847	0.018677	0.895318
H144	H	1.087454	-0.049046	0.822855
C145	C	1.074363	-0.035176	0.411171
C146	C	1.024590	0.017536	0.464636
H147	H	1.109337	-0.072192	0.443184
H148	H	1.043200	-0.067129	0.374993
H149	H	1.104318	-0.001953	0.379086
H150	H	0.994631	-0.015687	0.496717
H151	H	1.055756	0.049492	0.500828
H152	H	0.829218	-0.301175	-0.026263
H153	H	0.325944	0.109095	-0.047799
H154	H	1.047865	-0.468616	0.127915
C155	C	0.754758	-0.374508	-0.036140
C156	C	0.805244	-0.449638	-0.029877
H157	H	0.701530	-0.386912	-0.042758
H158	H	0.759467	-0.340100	0.013070
H159	H	0.769032	-0.345566	-0.082991
H160	H	0.790974	-0.478577	0.016978
H161	H	0.800532	-0.484059	-0.079094
C162	C	0.882039	-0.318547	0.288985
C163	C	0.924424	-0.295696	0.221195
H164	H	0.906201	-0.300546	0.339505
H165	H	0.828928	-0.292588	0.285907
H166	H	0.882255	-0.378010	0.287523
H167	H	0.924203	-0.236232	0.222654
H168	H	0.977548	-0.321652	0.224275
C169	C	0.482640	0.179680	-0.130978
C170	C	0.538558	0.109001	-0.122566
H171	H	0.457228	0.176487	-0.184071
H172	H	0.444229	0.181190	-0.088505
H173	H	0.508545	0.229297	-0.126076
H174	H	0.512651	0.059384	-0.127462
H175	H	0.576974	0.107483	-0.165051
C176	C	0.935363	-0.221941	-0.097013
C177	C	0.937282	-0.309622	-0.095686
H178	H	0.963006	-0.207666	-0.144325
H179	H	0.881863	-0.197115	-0.099918
H180	H	0.959931	-0.201580	-0.047699
H181	H	0.912708	-0.329982	-0.144998
H182	H	0.990791	-0.334457	-0.092789
C183	C	0.978636	-0.517816	0.206217
C184	C	0.915154	-0.455364	0.221467
H185	H	0.999043	-0.538774	0.257683
H186	H	0.960775	-0.562497	0.172644
H187	H	1.019148	-0.494525	0.177993
H188	H	0.874639	-0.478656	0.249686
H189	H	0.933014	-0.410675	0.255054
C190	C	0.788170	-0.228877	0.071533
C191	C	0.800037	-0.280216	0.140078
H192	H	0.735531	-0.201320	0.071972
H193	H	0.824657	-0.188002	0.074665
H194	H	0.796261	-0.262498	0.021473
H195	H	0.791951	-0.246594	0.190138
H196	H	0.763539	-0.321096	0.136953
