data_functionalizedCrystal
_audit_creation_method	'MofGen! by Chris Wilmer'
_symmetry_space_group_name_H-M	'P1'
_symmetry_Int_Tables_number	1
_symmetry_cell_setting	triclinic
loop_
_symmetry_equiv_pos_as_xyz
  x,y,z
_cell_length_a	15.995350
_cell_length_b	11.026607
_cell_length_c	9.482900
_cell_angle_alpha	78.599815
_cell_angle_beta	99.286009
_cell_angle_gamma	96.039196
loop_
_atom_site_label
_atom_site_type_symbol
_atom_site_fract_x
_atom_site_fract_y
_atom_site_fract_z
O1	O	-1.144737	-0.137439	-0.120765
O2	O	-0.903876	-0.156750	-0.120794
O3	O	-1.004344	0.029558	-0.120776
O4	O	-1.044269	-0.323747	-0.120782
O5	O	-0.983959	-0.008437	0.121013
O6	O	-0.883492	-0.194745	0.120995
O7	O	-1.124353	-0.175434	0.121024
Cu8	Cu	-1.002061	-0.188559	0.143087
Cu9	Cu	-1.026168	-0.143625	-0.142856
O10	O	-1.023885	-0.361743	0.121007
C11	C	-0.862369	-0.174949	0.000097
C12	C	-0.769059	-0.172553	0.000086
C13	C	-1.165860	-0.157235	0.000130
C14	C	-1.259171	-0.159630	0.000132
C15	C	-0.430013	-0.163960	0.000116
C16	C	-0.457402	-0.031358	0.000658
C17	C	-0.554500	-0.033665	0.000103
C18	C	-0.598217	-0.168222	0.000102
C19	C	-0.578635	-0.211972	-0.137967
C20	C	-0.481505	-0.208622	-0.138072
C21	C	-0.458399	-0.254571	0.136887
C22	C	-0.555187	-0.254825	0.138702
C23	C	-0.693280	-0.170638	0.000089
C24	C	-0.334951	-0.161547	0.000119
C25	C	-0.986786	0.055772	0.000116
C26	C	-0.964830	0.190487	0.000108
C27	C	-1.041443	-0.387956	0.000112
C28	C	-1.063400	-0.522669	0.000110
N29	N	-0.985111	-0.220162	0.344204
C30	C	-1.025456	0.264292	0.000113
C31	C	-1.002765	0.403527	0.000105
N32	N	-1.043123	-0.112012	-0.343974
C33	C	-1.021162	-0.152941	0.416410
C34	C	-1.007067	-0.179244	0.583825
H35	H	-0.566830	0.002226	0.099076
C36	C	-0.866239	0.335774	-0.124206
C37	C	-0.872081	0.244330	0.000092
H38	H	-0.808978	0.369016	-0.124208
H39	H	-0.884428	0.300221	-0.208502
H40	H	-0.901339	0.400112	-0.124189
H41	H	-0.836985	0.179987	0.000070
H42	H	-0.853881	0.279882	0.084410
C43	C	-0.426773	-0.097339	0.284359
C44	C	-0.410077	-0.218183	0.278242
H45	H	-0.396982	-0.074862	0.371645
H46	H	-0.408628	-0.041519	0.203236
H47	H	-0.486032	-0.093690	0.282370
H48	H	-0.350818	-0.221830	0.280220
H49	H	-0.428217	-0.274018	0.359387
H50	H	-0.934058	0.443416	0.000087
C51	C	-0.706605	-0.346754	-0.151034
C52	C	-0.618405	-0.344329	-0.144921
H53	H	-0.731157	-0.428465	-0.155334
H54	H	-0.719207	-0.322155	-0.066754
H55	H	-0.729267	-0.291299	-0.235177
H56	H	-0.595742	-0.399778	-0.060772
H57	H	-0.605797	-0.368945	-0.229210
C58	C	-1.042244	0.064607	0.369161
C59	C	-1.076922	-0.048977	0.332520
H60	H	-1.076670	0.128783	0.317353
H61	H	-1.040104	0.060596	0.470646
H62	H	-0.986444	0.081480	0.344307
H63	H	-1.132719	-0.065855	0.357383
H64	H	-1.079071	-0.044967	0.231011
H65	H	-1.132117	0.437462	0.000009
H66	H	-0.965762	-0.256270	0.645942
C67	C	-0.375771	0.156412	-0.085421
C68	C	-0.431413	0.060815	-0.132257
H69	H	-0.359724	0.213309	-0.167480
H70	H	-0.403252	0.198342	-0.029571
H71	H	-0.326594	0.122418	-0.027465
H72	H	-0.480594	0.094808	-0.190204
H73	H	-0.403933	0.018880	-0.188131
H74	H	-1.084420	-0.034978	0.593909
C75	C	-0.926189	-0.330079	0.577672
C76	C	-0.929359	-0.324148	0.428055
H77	H	-0.891773	-0.394283	0.629432
H78	H	-0.902656	-0.253041	0.602538
H79	H	-0.981991	-0.346959	0.602518
H80	H	-0.873558	-0.307260	0.403208
H81	H	-0.952890	-0.401204	0.403179
H82	H	-0.422538	0.006121	0.099672
H83	H	-0.582910	0.033706	-0.099042
H84	H	-0.464705	-0.144677	-0.241281
H85	H	-0.464468	-0.305054	-0.144339
C86	C	-0.681689	-0.391322	0.158470
C87	C	-0.594939	-0.389062	0.149952
H88	H	-0.706230	-0.474196	0.165395
H89	H	-0.688792	-0.360202	0.241962
H90	H	-0.708878	-0.341114	0.073814
H91	H	-0.567748	-0.439263	0.234613
H92	H	-0.587829	-0.420198	0.066452
C93	C	-0.601394	-0.168950	-0.398975
C94	C	-0.619389	-0.128826	-0.276688
H95	H	-0.626561	-0.117622	-0.484611
H96	H	-0.541632	-0.164064	-0.397550
H97	H	-0.623801	-0.252373	-0.397707
H98	H	-0.596976	-0.045406	-0.277951
H99	H	-0.679163	-0.133700	-0.278115
H100	H	-0.566691	-0.223101	0.240844
H101	H	-0.441304	-0.352547	0.137820
H102	H	-1.094158	0.224397	0.000130
