data_functionalizedCrystal
_audit_creation_method	'MofGen! by Chris Wilmer'
_symmetry_space_group_name_H-M	'P1'
_symmetry_Int_Tables_number	1
_symmetry_cell_setting	triclinic
loop_
_symmetry_equiv_pos_as_xyz
  x,y,z
_cell_length_a	18.050591
_cell_length_b	18.050589
_cell_length_c	18.050582
_cell_angle_alpha	90.018205
_cell_angle_beta	90.020922
_cell_angle_gamma	90.024227
loop_
_atom_site_label
_atom_site_type_symbol
_atom_site_fract_x
_atom_site_fract_y
_atom_site_fract_z
Zn1	Zn	1.135293	-0.295786	0.420054
Zn2	Zn	1.135203	-0.419969	0.295873
Zn3	Zn	1.011112	-0.295789	0.295865
Zn4	Zn	1.011060	-0.419930	0.420009
O5	O	1.073167	-0.357868	0.357950
O6	O	1.239205	-0.312274	0.403603
O7	O	1.118727	-0.403514	0.191948
O8	O	1.027644	-0.191864	0.312354
O9	O	1.239140	-0.403511	0.312369
O10	O	1.118879	-0.191862	0.403595
O11	O	1.027557	-0.312279	0.191942
O12	O	0.907180	-0.312241	0.312311
O13	O	1.027555	-0.403444	0.523940
O14	O	0.907142	-0.403447	0.403519
O15	O	1.118828	-0.312236	0.523973
O16	O	1.118676	-0.523888	0.312325
O17	O	1.027468	-0.523860	0.403527
C18	C	0.880215	-0.357841	0.357909
C19	C	0.797669	-0.357847	0.357909
C20	C	1.073077	-0.550820	0.357938
C21	C	1.073107	-0.633366	0.357958
C22	C	0.598217	-0.308191	0.308425
C23	C	0.548798	-0.375927	0.290154
C24	C	0.646539	-0.357869	0.357943
C25	C	0.548877	-0.290157	0.376212
C26	C	0.500553	-0.357885	0.357974
C27	C	0.598206	-0.425641	0.339637
C28	C	0.598289	-0.339825	0.425726
C29	C	0.548892	-0.407607	0.407481
C30	C	0.730637	-0.357859	0.357923
C31	C	0.416457	-0.357903	0.357994
C32	C	1.023557	-0.832828	0.407536
C33	C	1.005459	-0.882261	0.339767
C34	C	1.073180	-0.784497	0.357967
C35	C	1.091314	-0.882146	0.425744
C36	C	1.073249	-0.930482	0.357983
C37	C	1.055046	-0.832842	0.290162
C38	C	1.140933	-0.832722	0.376186
C39	C	1.122861	-0.882133	0.308370
C40	C	1.073138	-0.700398	0.357959
C41	C	1.073291	-1.014578	0.357983
C42	C	1.266872	-0.357897	0.357992
C43	C	1.349418	-0.357909	0.358010
C44	C	1.073196	-0.357835	0.551656
C45	C	1.073208	-0.357821	0.634202
C46	C	1.073277	-0.164163	0.357979
C47	C	1.073324	-0.081617	0.357991
C48	C	1.073181	-0.357848	0.164998
C49	C	1.073312	-0.357652	0.082453
C50	C	1.023612	-0.407353	0.833635
C51	C	1.091367	-0.425511	0.883034
C52	C	1.073245	-0.357765	0.785332
C53	C	1.005527	-0.339586	0.883014
C54	C	1.073274	-0.357711	0.931317
C55	C	1.141036	-0.375958	0.833645
C56	C	1.055150	-0.290002	0.833620
C57	C	1.122952	-0.308134	0.882998
C58	C	1.073227	-0.357797	0.701234
C59	C	1.073300	-0.357679	1.015414
H60	H	0.619875	-0.266226	0.266503
H61	H	1.164855	-0.903645	0.266409
C62	C	1.237063	-0.828160	0.468038
C63	C	1.218218	-0.803318	0.397011
H64	H	1.284774	-0.810001	0.480901
H65	H	1.237542	-0.880774	0.468638
H66	H	1.201659	-0.810540	0.502746
H67	H	1.253619	-0.820943	0.362303
H68	H	1.217745	-0.750693	0.396406
H69	H	0.527060	-0.391202	0.232844
C70	C	0.908709	-0.885678	0.248503
C71	C	0.928153	-0.911640	0.318965
H72	H	0.860982	-0.903811	0.235667
H73	H	0.943935	-0.902557	0.213259
H74	H	0.908014	-0.833057	0.248800
H75	H	0.928854	-0.964262	0.318666
H76	H	0.892918	-0.894765	0.354217
C77	C	0.929212	-0.318397	0.989857
C78	C	0.928203	-0.318854	0.912291
H79	H	0.881473	-0.305606	1.007928
H80	H	0.964417	-0.283100	1.006752
H81	H	0.942419	-0.366179	1.007494
H82	H	0.915001	-0.271069	0.894654
H83	H	0.892986	-0.354152	0.895389
C84	C	1.176650	-0.497854	0.955034
C85	C	1.112051	-0.502835	0.912349
H86	H	1.189416	-0.545592	0.973127
H87	H	1.168439	-0.465335	0.995585
H88	H	1.215911	-0.479266	0.925334
H89	H	1.072789	-0.521418	0.942051
H90	H	1.120258	-0.535366	0.871792
H91	H	1.039669	-0.811275	0.232834
C92	C	1.217658	-0.396657	0.726929
C93	C	1.218384	-0.396784	0.804499
H94	H	1.265407	-0.409520	0.708937
H95	H	1.204721	-0.348694	0.709604
H96	H	1.182360	-0.431680	0.709641
H97	H	1.253678	-0.361756	0.821787
H98	H	1.231330	-0.444754	0.821831
C99	C	1.059910	-0.886487	0.554913
C100	C	1.111989	-0.911380	0.503112
H101	H	1.072674	-0.904530	0.602677
H102	H	1.012151	-0.904181	0.541637
H103	H	1.059594	-0.833865	0.555562
H104	H	1.112301	-0.964002	0.502458
H105	H	1.159760	-0.893690	0.516391
C106	C	0.670586	-0.530862	0.376740
C107	C	0.627330	-0.502976	0.318700
H108	H	0.688570	-0.578601	0.363810
H109	H	0.641313	-0.534351	0.420315
H110	H	0.711220	-0.498547	0.385447
H111	H	0.586692	-0.535287	0.309997
H112	H	0.656604	-0.499491	0.275112
C113	C	0.545930	-0.446080	0.534768
C114	C	0.519834	-0.464392	0.464030
H115	H	0.527993	-0.481142	0.569675
H116	H	0.528943	-0.398029	0.547844
H117	H	0.598553	-0.446664	0.534761
H118	H	0.467210	-0.463802	0.464036
H119	H	0.536817	-0.512455	0.450952
H120	H	0.527169	-0.232894	0.391625
C121	C	0.967841	-0.726027	0.463923
C122	C	0.966830	-0.803594	0.464046
H123	H	0.932823	-0.707980	0.498811
H124	H	0.955451	-0.708426	0.415910
H125	H	1.015935	-0.709071	0.476976
H126	H	0.918738	-0.820550	0.450988
H127	H	0.979216	-0.821202	0.512070
C128	C	0.986153	-0.534931	0.829314
C129	C	0.967004	-0.464032	0.804367
H130	H	0.951209	-0.569922	0.811240
H131	H	0.986085	-0.535610	0.881929
H132	H	1.034147	-0.547347	0.811679
H133	H	0.919011	-0.451614	0.822006
H134	H	0.967064	-0.463352	0.751741
H135	H	1.164986	-0.266177	0.904535
C136	C	0.963449	-0.193798	0.829160
C137	C	1.034438	-0.212698	0.804285
H138	H	0.950655	-0.146076	0.811044
H139	H	0.962865	-0.193323	0.881775
H140	H	0.928679	-0.229174	0.811521
H141	H	1.069208	-0.177325	0.821929
H142	H	1.035027	-0.213168	0.751660
H143	H	0.620045	-0.324530	0.483019
