data_functionalizedCrystal
_audit_creation_method	'MofGen! by Chris Wilmer'
_symmetry_space_group_name_H-M	'P1'
_symmetry_Int_Tables_number	1
_symmetry_cell_setting	triclinic
loop_
_symmetry_equiv_pos_as_xyz
  x,y,z
_cell_length_a	16.120484
_cell_length_b	16.959455
_cell_length_c	16.959447
_cell_angle_alpha	90.023646
_cell_angle_beta	92.866538
_cell_angle_gamma	87.079026
loop_
_atom_site_label
_atom_site_type_symbol
_atom_site_fract_x
_atom_site_fract_y
_atom_site_fract_z
Zn1	Zn	-0.332000	-1.192392	-0.463047
Zn2	Zn	0.168000	-0.692392	0.036953
Zn3	Zn	-0.471428	-1.185598	-0.337564
Zn4	Zn	0.028572	-0.685598	0.162436
Zn5	Zn	-0.332022	-1.060219	-0.330864
Zn6	Zn	0.167978	-0.560219	0.169136
Zn7	Zn	-0.471361	-1.053472	-0.469677
Zn8	Zn	0.028639	-0.553472	0.030323
O9	O	-0.401703	-1.122920	-0.400288
O10	O	0.098297	-0.622920	0.099712
O11	O	-0.350515	-1.302101	-0.446430
O12	O	0.149485	-0.802101	0.053570
O13	O	-0.452973	-1.168947	-0.226066
O14	O	0.047027	-0.668947	0.273934
O15	O	-0.215354	-1.083419	-0.342820
O16	O	0.284646	-0.583419	0.157180
O17	O	-0.452952	-1.297109	-0.354238
O18	O	0.047048	-0.797109	0.145762
O19	O	-0.215338	-1.180526	-0.439934
O20	O	0.284662	-0.680526	0.060066
O21	O	-0.350551	-1.076832	-0.221144
O22	O	0.149449	-0.576832	0.278856
O23	O	-0.350486	-0.948714	-0.349249
O24	O	0.149514	-0.448714	0.150751
O25	O	-0.452838	-1.071920	-0.579407
O26	O	0.047162	-0.571920	-0.079407
O27	O	-0.452858	-0.943757	-0.451235
O28	O	0.047142	-0.443757	0.048765
O29	O	-0.350450	-1.173983	-0.574536
O30	O	0.149550	-0.673983	-0.074536
O31	O	-0.588084	-1.162405	-0.360667
O32	O	-0.088084	-0.662405	0.139333
O33	O	-0.588035	-1.065332	-0.457731
O34	O	-0.088035	-0.565332	0.042269
C35	C	-0.401668	-0.917556	-0.400235
C36	C	0.098332	-0.417556	0.099765
C37	C	-0.401673	-0.829699	-0.400232
C38	C	0.098327	-0.329699	0.099768
C39	C	-0.454964	-0.455616	-0.352216
C40	C	0.045036	0.044384	0.147784
C41	C	-0.348461	-0.460827	-0.448381
C42	C	0.151539	0.039173	0.051619
C43	C	-0.348450	-0.543373	-0.448366
C44	C	0.151550	-0.043373	0.051634
C45	C	-0.401698	-0.582045	-0.400276
C46	C	0.098302	-0.082045	0.099724
C47	C	-0.454957	-0.538170	-0.352201
C48	C	0.045043	-0.038170	0.147799
C49	C	-0.295199	-0.587254	-0.496446
C50	C	0.204801	-0.087254	0.003554
C51	C	-0.295187	-0.669805	-0.496434
C52	C	0.204813	-0.169805	0.003566
C53	C	-0.348431	-0.708479	-0.448339
C54	C	0.151569	-0.208479	0.051661
C55	C	-0.401691	-0.664599	-0.400262
C56	C	0.098309	-0.164599	0.099738
C57	C	-0.454939	-0.703270	-0.352172
C58	C	0.045061	-0.203270	0.147828
C59	C	-0.508195	-0.659392	-0.304089
C60	C	-0.008195	-0.159392	0.195911
C61	C	-0.508201	-0.576843	-0.304107
C62	C	-0.008201	-0.076843	0.195893
C63	C	-0.348425	-0.791027	-0.448322
C64	C	0.151575	-0.291027	0.051678
C65	C	-0.454932	-0.785824	-0.352157
C66	C	0.045068	-0.285824	0.147843
C67	C	-0.618310	-1.112421	-0.410663
C68	C	-0.118310	-0.612421	0.089337
C69	C	-0.710975	-1.108001	-0.415127
C70	C	-0.210975	-0.608001	0.084873
C71	C	-0.880636	-1.099937	-0.423295
C72	C	-0.380636	-0.599937	0.076705
C73	C	-0.921929	-1.146046	-0.377294
C74	C	-0.421929	-0.646046	0.122706
C75	C	-1.016334	-1.141559	-0.381839
C76	C	-0.516334	-0.641559	0.118161
C77	C	-0.786222	-1.104423	-0.418752
C78	C	-0.286222	-0.604423	0.081248
C79	C	-0.184250	-1.133483	-0.389890
C80	C	0.315750	-0.633483	0.110110
C81	C	-0.091585	-1.137984	-0.385459
C82	C	0.408415	-0.637984	0.114541
C83	C	-0.401634	-1.122957	-0.606453
C84	C	0.098366	-0.622957	-0.106453
C85	C	-0.401604	-1.122972	-0.694308
C86	C	0.098396	-0.622972	-0.194308
C87	C	-0.401729	-0.329087	-0.400327
C88	C	0.098271	0.170913	0.099673
C89	C	-0.401716	-0.416945	-0.400306
C90	C	0.098284	0.083055	0.099694
C91	C	-0.454825	-1.069931	-1.068319
C92	C	0.045175	-0.569931	-0.568319
C93	C	-0.348208	-1.176211	-1.063241
C94	C	0.151792	-0.676211	-0.563241
C95	C	-0.348225	-1.176189	-0.980696
C96	C	0.151775	-0.676189	-0.480696
C97	C	-0.401545	-1.123038	-0.941959
C98	C	0.098455	-0.623038	-0.441959
C99	C	-0.454846	-1.069909	-0.985766
C100	C	0.045154	-0.569909	-0.485766
C101	C	-0.294931	-1.229322	-0.936883
C102	C	0.205069	-0.729322	-0.436883
C103	C	-0.294947	-1.229303	-0.854333
C104	C	0.205053	-0.729303	-0.354333
C105	C	-0.348263	-1.176148	-0.815593
C106	C	0.151737	-0.676148	-0.315593
C107	C	-0.401566	-1.123016	-0.859406
C108	C	0.098434	-0.623016	-0.359406
C109	C	-0.454885	-1.069865	-0.820668
C110	C	0.045115	-0.569865	-0.320668
C111	C	-0.508184	-1.016729	-0.864479
C112	C	-0.008184	-0.516729	-0.364479
C113	C	-0.508162	-1.016754	-0.947027
C114	C	-0.008162	-0.516754	-0.447027
C115	C	-0.348285	-1.176123	-0.733046
C116	C	0.151715	-0.676123	-0.233046
C117	C	-0.454906	-1.069843	-0.738116
C118	C	0.045094	-0.569843	-0.238116
C119	C	-0.401711	-1.122933	-0.194922
C120	C	0.098289	-0.622933	0.305078
C121	C	-0.401506	-1.123082	-0.107056
C122	C	0.098494	-0.623082	0.392944
H123	H	-0.251853	-0.555761	-0.535604
H124	H	0.248147	-0.055761	-0.035604
H125	H	-0.498290	-0.817305	-0.312993
H126	H	0.001710	-0.317305	0.187007
Cl127	Cl	-0.521935	-1.003016	-0.689424
Cl128	Cl	-0.021935	-0.503016	-0.189424
H129	H	-0.551600	-0.973457	-0.832929
H130	H	-0.051600	-0.473457	-0.332929
H131	H	-0.551554	-0.690889	-0.264939
H132	H	-0.051554	-0.190889	0.235061
H133	H	-0.551558	-0.973495	-0.982705
H134	H	-0.051558	-0.473495	-0.482705
Cl135	Cl	-0.575148	-0.521678	-0.243669
Cl136	Cl	-0.075148	-0.021678	0.256331
H137	H	-0.251527	-1.272599	-0.968429
H138	H	0.248473	-0.772599	-0.468429
H139	H	-0.916181	-1.057094	-0.466087
H140	H	-0.416181	-0.557094	0.033913
H141	H	-0.498218	-1.026667	-1.103993
H142	H	0.001782	-0.526667	-0.603993
H143	H	-0.304802	-1.219488	-1.094787
H144	H	0.195198	-0.719488	-0.594787
H145	H	-0.251547	-1.272569	-0.818668
H146	H	0.248453	-0.772569	-0.318668
Cl147	Cl	-0.281292	-1.242922	-0.677973
Cl148	Cl	0.218708	-0.742922	-0.177973
Cl149	Cl	-0.521908	-0.400458	-0.291770
Cl150	Cl	-0.021908	0.099542	0.208230
H151	H	-0.305066	-0.826749	-0.487471
H152	H	0.194934	-0.326749	0.012529
Cl153	Cl	-0.281534	-0.412210	-0.508843
Cl154	Cl	0.218466	0.087790	-0.008843
H155	H	-0.251822	-0.705524	-0.535585
H156	H	0.248178	-0.205524	-0.035585
Cl157	Cl	-0.867050	-1.212193	-0.311216
Cl158	Cl	-0.367050	-0.712193	0.188784
