data_functionalizedCrystal
_audit_creation_method	'MofGen! by Chris Wilmer'
_symmetry_space_group_name_H-M	'P1'
_symmetry_Int_Tables_number	1
_symmetry_cell_setting	triclinic
loop_
_symmetry_equiv_pos_as_xyz
  x,y,z
_cell_length_a	11.026607
_cell_length_b	11.026607
_cell_length_c	9.798715
_cell_angle_alpha	89.998891
_cell_angle_beta	89.996711
_cell_angle_gamma	108.586017
loop_
_atom_site_label
_atom_site_type_symbol
_atom_site_fract_x
_atom_site_fract_y
_atom_site_fract_z
O1	O	1.726732	0.533621	-0.113488
O2	O	1.360152	0.472857	-0.113490
O3	O	1.513060	0.319949	-0.113484
O4	O	1.573823	0.686529	-0.113494
O5	O	1.513045	0.319945	0.113498
O6	O	1.360137	0.472853	0.113492
O7	O	1.726717	0.533617	0.113495
Zn8	Zn	1.543425	0.503235	0.149532
Zn9	Zn	1.543444	0.503239	-0.149527
O10	O	1.573809	0.686525	0.113489
C11	C	1.312485	0.461645	0.000001
C12	C	1.170471	0.428228	0.000000
C13	C	1.116821	0.520498	-0.000003
C14	C	0.970043	0.485962	-0.000004
C15	C	1.501843	0.272287	0.000005
C16	C	1.468426	0.130273	0.000000
C17	C	1.560695	0.076624	-0.000001
C18	C	1.526160	-0.070155	-0.000006
C19	C	1.774384	0.544828	0.000001
C20	C	1.916398	0.578245	-0.000007
C21	C	1.585026	0.734187	-0.000004
C22	C	1.618443	0.876200	-0.000008
N23	N	1.543421	0.503233	0.353631
N24	N	1.543456	0.503233	-0.353627
C25	C	1.607547	0.438672	0.421411
C26	C	1.607567	0.438672	0.578574
H27	H	1.665258	0.139357	0.000008
O28	O	0.895406	0.361144	0.000056
C29	C	0.889015	0.140658	-0.000028
C30	C	0.973691	0.281956	-0.000064
H31	H	0.952273	0.076595	-0.000154
H32	H	0.826056	0.120315	0.094986
H33	H	0.826012	0.120462	-0.094998
H34	H	1.036770	0.302252	0.094842
H35	H	1.036564	0.302228	-0.095140
H36	H	1.421590	-0.132884	-0.000016
H37	H	1.107738	0.323666	-0.000032
H38	H	1.723013	-0.061072	-0.000110
O39	O	1.673267	0.372888	0.648036
C40	C	1.878242	0.346083	0.691909
C41	C	1.803998	0.420710	0.613181
H42	H	1.983947	0.384700	0.663735
H43	H	1.866700	0.357851	0.806288
H44	H	1.839016	0.240373	0.663913
H45	H	1.843175	0.526445	0.641061
H46	H	1.815538	0.408835	0.498820
H47	H	1.363863	0.067540	-0.000009
H48	H	1.662429	0.383394	0.363090
H49	H	1.488557	0.558515	0.588095
O50	O	1.191462	0.645310	0.000053
C51	C	1.197854	0.865795	-0.000043
C52	C	1.113177	0.724497	-0.000073
H53	H	1.134595	0.929858	-0.000173
H54	H	1.260799	0.886134	0.094972
H55	H	1.260869	0.885995	-0.095011
H56	H	1.050085	0.704198	0.094831
H57	H	1.050317	0.704229	-0.095151
O58	O	1.477732	0.569009	0.423138
C59	C	1.272760	0.595795	0.467107
C60	C	1.346994	0.521180	0.388336
H61	H	1.167050	0.557172	0.438977
H62	H	1.284331	0.584021	0.581480
H63	H	1.311973	0.701507	0.439108
H64	H	1.307831	0.415443	0.416220
H65	H	1.335425	0.533061	0.273982
O66	O	0.991079	0.703048	-0.000198
C67	C	1.049576	0.905412	-0.117851
C68	C	0.964910	0.764110	-0.117786
H69	H	1.028468	0.954815	-0.212926
H70	H	1.028402	0.954980	-0.022930
H71	H	1.154615	0.911024	-0.117785
H72	H	0.859843	0.758381	-0.117901
H73	H	0.986194	0.714605	-0.212700
