data_functionalizedCrystal
_audit_creation_method	'MofGen! by Chris Wilmer'
_symmetry_space_group_name_H-M	'P1'
_symmetry_Int_Tables_number	1
_symmetry_cell_setting	triclinic
loop_
_symmetry_equiv_pos_as_xyz
  x,y,z
_cell_length_a	16.120484
_cell_length_b	19.077105
_cell_length_c	19.076919
_cell_angle_alpha	90.076224
_cell_angle_beta	84.953390
_cell_angle_gamma	89.261477
loop_
_atom_site_label
_atom_site_type_symbol
_atom_site_fract_x
_atom_site_fract_y
_atom_site_fract_z
Zn1	Zn	-0.403262	-1.040337	0.456942
Zn2	Zn	-0.069928	-0.707004	0.790275
Zn3	Zn	0.263405	-0.373670	1.123609
Zn4	Zn	-0.537287	-1.039017	0.344927
Zn5	Zn	-0.203953	-0.705683	0.678260
Zn6	Zn	0.129380	-0.372350	1.011594
Zn7	Zn	-0.392095	-0.928051	0.334278
Zn8	Zn	-0.058762	-0.594718	0.667611
Zn9	Zn	0.274572	-0.261385	1.000944
Zn10	Zn	-0.536784	-0.916861	0.457659
Zn11	Zn	-0.203451	-0.583527	0.790992
Zn12	Zn	0.129883	-0.250194	1.124326
O13	O	-0.467357	-0.981066	0.398451
O14	O	-0.134024	-0.647733	0.731785
O15	O	0.199310	-0.314400	1.065118
O16	O	-0.425924	-1.138276	0.446240
O17	O	-0.092591	-0.804943	0.779573
O18	O	0.240743	-0.471610	1.112906
O19	O	-0.513564	-1.028428	0.245000
O20	O	-0.180231	-0.695094	0.578334
O21	O	0.153103	-0.361761	0.911667
O22	O	-0.276934	-0.948182	0.345793
O23	O	0.056400	-0.614849	0.679126
O24	O	0.389733	-0.281515	1.012459
O25	O	-0.524392	-1.137306	0.363943
O26	O	-0.191058	-0.803973	0.697276
O27	O	0.142275	-0.470640	1.030609
O28	O	-0.285138	-1.030678	0.435913
O29	O	0.048196	-0.697344	0.769247
O30	O	0.381529	-0.364011	1.102580
O31	O	-0.406892	-0.946902	0.237176
O32	O	-0.073559	-0.613568	0.570510
O33	O	0.259774	-0.280235	0.903843
O34	O	-0.406405	-0.828452	0.346488
O35	O	-0.073072	-0.495119	0.679821
O36	O	0.260262	-0.161786	1.013155
O37	O	-0.523535	-0.929109	0.556078
O38	O	-0.190202	-0.595776	0.889411
O39	O	0.143132	-0.262443	1.222745
O40	O	-0.512707	-0.820230	0.437136
O41	O	-0.179374	-0.486897	0.770469
O42	O	0.153959	-0.153564	1.103802
O43	O	-0.425436	-1.019827	0.555551
O44	O	-0.092103	-0.686493	0.888885
O45	O	0.241230	-0.353160	1.222218
O46	O	-0.653863	-1.017576	0.364638
O47	O	-0.320530	-0.684243	0.697971
O48	O	0.012804	-0.350910	1.031305
O49	O	-0.653494	-0.927829	0.447462
O50	O	-0.320160	-0.594496	0.780795
O51	O	0.013173	-0.261162	1.114128
C52	C	-0.683924	-0.971363	0.407299
C53	C	-0.350591	-0.638030	0.740633
C54	C	-0.017257	-0.304697	1.073966
C55	C	-0.776577	-0.967276	0.411111
C56	C	-0.443243	-0.633942	0.744444
C57	C	-0.109910	-0.300609	1.077778
C58	C	-0.458290	-0.798901	0.390734
C59	C	-0.124957	-0.465568	0.724068
C60	C	0.208376	-0.132235	1.057401
C61	C	-0.454433	-0.720969	0.387451
C62	C	-0.121099	-0.387635	0.720784
C63	C	0.212234	-0.054302	1.054117
C64	C	-0.475675	-0.973367	0.582072
C65	C	-0.142342	-0.640034	0.915406
C66	C	0.190991	-0.306700	1.248739
C67	C	-0.479220	-0.970086	0.660321
C68	C	-0.145887	-0.636753	0.993654
C69	C	0.187447	-0.303419	1.326988
C70	C	-0.946215	-0.959816	0.418084
C71	C	-0.612882	-0.626483	0.751418
C72	C	-0.279548	-0.293149	1.084751
C73	C	-0.987665	-1.002442	0.378836
C74	C	-0.654332	-0.669109	0.712169
C75	C	-0.320998	-0.335775	1.045502
C76	C	-1.082058	-0.998291	0.382716
C77	C	-0.748724	-0.664958	0.716049
C78	C	-0.415391	-0.331625	1.049382
C79	C	-0.851814	-0.963966	0.414205
C80	C	-0.518481	-0.630632	0.747538
C81	C	-0.185147	-0.297299	1.080872
C82	C	-0.249946	-0.990826	0.389585
C83	C	0.083388	-0.657492	0.722918
C84	C	0.416721	-0.324159	1.056252
C85	C	-0.157298	-0.994984	0.385807
C86	C	0.176035	-0.661651	0.719140
C87	C	0.509369	-0.328318	1.052474
C88	C	-0.476459	-1.163943	0.406199
C89	C	-0.143126	-0.830609	0.739532
C90	C	0.190207	-0.497276	1.072866
C91	C	-0.480338	-1.241874	0.409501
C92	C	-0.147005	-0.908540	0.742834
C93	C	0.186328	-0.575207	1.076167
C94	C	-0.508043	-0.680093	0.433036
C95	C	-0.174710	-0.346760	0.766369
C96	C	0.158623	-0.013426	1.099702
C97	C	-0.504408	-0.606867	0.429953
C98	C	-0.171074	-0.273534	0.763286
C99	C	0.162259	0.059799	1.096620
C100	C	-0.447165	-0.574519	0.381281
C101	C	-0.113831	-0.241185	0.714615
C102	C	0.219502	0.092148	1.047948
C103	C	-0.393548	-0.615400	0.335694
C104	C	-0.060215	-0.282067	0.669028
C105	C	0.273118	0.051267	1.002361
C106	C	-0.397180	-0.688624	0.338781
C107	C	-0.063847	-0.355291	0.672114
C108	C	0.269486	-0.021958	1.005447
C109	C	-0.430354	-0.355979	0.367000
C110	C	-0.097021	-0.022646	0.700333
C111	C	0.236312	0.310688	1.033667
C112	C	-0.426728	-0.282749	0.363916
C113	C	-0.093394	0.050584	0.697249
C114	C	0.239939	0.383917	1.030582
C115	C	-0.537586	-0.274222	0.458176
C116	C	-0.204253	0.059112	0.791509
C117	C	0.129080	0.392445	1.124842
C118	C	-0.541217	-0.347448	0.461255
C119	C	-0.207884	-0.014114	0.794588
C120	C	0.125450	0.319219	1.127922
C121	C	-0.487598	-0.388323	0.415670
C122	C	-0.154264	-0.054989	0.749004
C123	C	0.179069	0.278344	1.082337
N124	N	-0.443449	-0.499670	0.378128
N125	N	-0.110115	-0.166337	0.711461
N126	N	0.223218	0.166996	1.044795
N127	N	-0.491310	-0.463169	0.418828
N128	N	-0.157977	-0.129836	0.752161
N129	N	0.175357	0.203497	1.085494
C130	C	-0.459013	-0.988779	0.215544
C131	C	-0.125680	-0.655445	0.548877
C132	C	0.207654	-0.322112	0.882211
C133	C	-0.455240	-0.992206	0.137292
C134	C	-0.121907	-0.658873	0.470626
C135	C	0.211427	-0.325539	0.803959
C136	C	-0.429813	-1.015774	0.696809
C137	C	-0.096480	-0.682440	1.030142
C138	C	0.236854	-0.349107	1.363476
C139	C	-0.433140	-1.012683	0.770331
C140	C	-0.099807	-0.679349	1.103664
C141	C	0.233527	-0.346016	1.436998
C142	C	-0.485879	-0.963906	0.807364
C143	C	-0.152546	-0.630573	1.140697
C144	C	0.180788	-0.297240	1.474031
C145	C	-0.535288	-0.918214	0.770871
C146	C	-0.201955	-0.584880	1.104204
C147	C	0.131379	-0.251547	1.437537
C148	C	-0.531956	-0.921302	0.697350
C149	C	-0.198623	-0.587969	1.030683
C150	C	0.134711	-0.254635	1.364016
C151	C	-0.501317	-0.949602	1.027278
C152	C	-0.167984	-0.616268	1.360611
C153	C	0.165350	-0.282935	1.693944
C154	C	-0.504647	-0.946518	1.100804
C155	C	-0.171314	-0.613185	1.434137
C156	C	0.162020	-0.279851	1.767471
C157	C	-0.402498	-1.040987	1.100259
C158	C	-0.069164	-0.707653	1.433593
C159	C	0.264169	-0.374320	1.766926
C160	C	-0.399174	-1.044074	1.026737
C161	C	-0.065841	-0.710740	1.360070
C162	C	0.267493	-0.377407	1.693404
C163	C	-0.448580	-0.998378	0.990250
C164	C	-0.115246	-0.665045	1.323583
C165	C	0.218087	-0.331712	1.656917
N166	N	-0.489283	-0.960747	0.882516
N167	N	-0.155950	-0.627413	1.215849
N168	N	0.177384	-0.294080	1.549182
N169	N	-0.445171	-1.001535	0.915099
N170	N	-0.111837	-0.668202	1.248433
N171	N	0.221496	-0.334868	1.581766
H172	H	-0.952260	-1.042052	0.342319
H173	H	-0.618927	-0.708718	0.675653
H174	H	-0.285594	-0.375385	1.008986
F175	F	-0.992488	-0.908044	0.465809
F176	F	-0.659155	-0.574711	0.799142
F177	F	-0.325821	-0.241378	1.132476
F178	F	-0.568974	-0.714514	0.484836
F179	F	-0.235640	-0.381181	0.818169
F180	F	0.097693	-0.047847	1.151503
F181	F	-0.561467	-0.563367	0.478472
F182	F	-0.228134	-0.230034	0.811805
F183	F	0.105199	0.103299	1.145138
H184	H	-0.356231	-1.083794	0.996590
H185	H	-0.022897	-0.750461	1.329923
H186	H	0.310436	-0.417128	1.663257
H187	H	-0.386870	-1.055495	0.666662
H188	H	-0.053537	-0.722162	0.999995
H189	H	0.279797	-0.388828	1.333329
H190	H	-0.587832	-0.373781	0.500887
H191	H	-0.254499	-0.040447	0.834220
H192	H	0.078835	0.292886	1.167554
H193	H	-0.547595	-0.906796	1.130954
H194	H	-0.214262	-0.573463	1.464288
H195	H	0.119071	-0.240130	1.797621
H196	H	-0.581239	-0.240934	0.495289
H197	H	-0.247906	0.092400	0.828622
H198	H	0.085428	0.425733	1.161956
H199	H	-0.380104	-0.256414	0.324285
H200	H	-0.046771	0.076919	0.657618
H201	H	0.286562	0.410253	0.990952
H202	H	-0.578226	-0.878496	0.801029
H203	H	-0.244893	-0.545163	1.134362
H204	H	0.088441	-0.211830	1.467695
F205	F	-0.373285	-0.399472	0.318486
F206	F	-0.039952	-0.066139	0.651819
F207	F	0.293381	0.267195	0.985153
F208	F	-0.332621	-0.580970	0.283898
F209	F	0.000713	-0.247637	0.617232
F210	F	0.334046	0.085696	0.950565
F211	F	-0.340119	-0.732127	0.290264
F212	F	-0.006786	-0.398794	0.623597
F213	F	0.326548	-0.065460	0.956931
H214	H	-0.392910	-1.049888	0.800037
H215	H	-0.059576	-0.716555	1.133370
H216	H	0.273757	-0.383221	1.466703
F217	F	-0.349919	-1.089614	1.139097
F218	F	-0.016585	-0.756280	1.472430
F219	F	0.316748	-0.422947	1.805763
F220	F	-0.553899	-0.900968	0.988455
F221	F	-0.220566	-0.567635	1.321788
F222	F	0.112768	-0.234302	1.655121
F223	F	-0.584539	-0.872673	0.658517
F224	F	-0.251206	-0.539339	0.991850
F225	F	0.082127	-0.206006	1.325183
