data_functionalizedCrystal
_audit_creation_method	'MofGen! by Chris Wilmer'
_symmetry_space_group_name_H-M	'P1'
_symmetry_Int_Tables_number	1
_symmetry_cell_setting	triclinic
loop_
_symmetry_equiv_pos_as_xyz
  x,y,z
_cell_length_a	10.489711
_cell_length_b	11.792241
_cell_length_c	10.268362
_cell_angle_alpha	90.000297
_cell_angle_beta	89.993890
_cell_angle_gamma	95.639788
loop_
_atom_site_label
_atom_site_type_symbol
_atom_site_fract_x
_atom_site_fract_y
_atom_site_fract_z
O1	O	-1.693531	0.159977	0.108332
O2	O	-1.322279	0.175043	0.108322
O3	O	-1.516914	0.002363	0.108335
O4	O	-1.498895	0.332657	0.108319
O5	O	-1.516897	0.002356	-0.108266
O6	O	-1.322262	0.175036	-0.108278
O7	O	-1.693514	0.159970	-0.108269
Cu8	Cu	-1.507886	0.167502	-0.128051
Cu9	Cu	-1.507906	0.167511	0.128104
O10	O	-1.498878	0.332650	-0.108282
C11	C	-1.274742	0.173909	0.000021
C12	C	-1.133122	0.170526	0.000018
C13	C	-1.515774	-0.039934	0.000039
C14	C	-1.512386	-0.165957	0.000054
C15	C	-1.741051	0.161104	0.000035
C16	C	-1.882670	0.164487	0.000046
C17	C	-0.950382	0.274371	0.000028
C18	C	-1.042712	0.222502	0.106824
C19	C	-1.042669	0.222467	-0.106727
C20	C	-0.973136	0.112573	0.106931
C21	C	-0.973083	0.112553	-0.106717
C22	C	-1.065386	0.060605	0.000105
C23	C	-1.500019	0.374947	0.000017
C24	C	-1.503407	0.500970	0.000011
N25	N	-1.507881	0.167496	-0.308217
C26	C	-1.509636	0.731698	0.000044
C27	C	-1.506175	0.603304	0.000026
C28	C	-1.507900	0.167508	-0.573888
C29	C	-1.507885	0.167505	-0.426050
N30	N	-1.507921	0.167509	0.308270
H31	H	-1.073556	0.269003	0.197104
H32	H	-0.942493	0.066125	0.197324
N33	N	-1.131302	-0.059139	0.000162
H34	H	-1.106025	-0.100481	0.080861
H35	H	-1.227184	-0.056097	-0.000663
H36	H	-0.900384	0.364687	0.000130
H37	H	-0.942211	0.066094	-0.197005
N38	N	-1.083467	0.284067	-0.226323
H39	H	-1.041213	0.364810	-0.226225
H40	H	-1.056910	0.243286	-0.306918
