data_functionalizedCrystal
_audit_creation_method	'MofGen! by Chris Wilmer'
_symmetry_space_group_name_H-M	'P1'
_symmetry_Int_Tables_number	1
_symmetry_cell_setting	triclinic
loop_
_symmetry_equiv_pos_as_xyz
  x,y,z
_cell_length_a	17.699077
_cell_length_b	14.044220
_cell_length_c	16.176319
_cell_angle_alpha	90.004229
_cell_angle_beta	90.005422
_cell_angle_gamma	88.234727
loop_
_atom_site_label
_atom_site_type_symbol
_atom_site_fract_x
_atom_site_fract_y
_atom_site_fract_z
O1	O	1.012346	0.119819	0.068738
O2	O	0.793043	0.135417	0.068742
O3	O	0.899403	-0.010359	0.068732
O4	O	0.905986	0.265595	0.068748
O5	O	0.899389	-0.010359	-0.068761
O6	O	0.793029	0.135417	-0.068751
O7	O	1.012332	0.119818	-0.068755
Cu8	Cu	0.902679	0.127618	-0.081307
Cu9	Cu	0.902696	0.127618	0.081294
O10	O	0.905972	0.265595	-0.068745
C11	C	0.764800	0.134859	-0.000004
C12	C	0.680667	0.133185	-0.000003
C13	C	0.641137	0.132396	-0.074951
C14	C	0.562085	0.130808	-0.074952
C15	C	0.522564	0.130016	-0.000004
C16	C	0.562099	0.130802	0.074951
C17	C	0.641149	0.132384	0.074951
C18	C	0.243295	0.124425	0.074952
C19	C	0.164239	0.122846	0.074946
C20	C	0.164231	0.122849	-0.074951
C21	C	0.243282	0.124431	-0.074951
C22	C	0.282810	0.125212	0.000003
C23	C	0.368528	0.126932	0.000003
C24	C	0.436848	0.128303	-0.000003
C25	C	0.896514	-0.045667	-0.000015
C26	C	0.887918	-0.150873	-0.000016
C27	C	0.872203	-0.343497	-0.000004
C28	C	0.933169	-0.401273	-0.000002
C29	C	0.924425	-0.508456	0.000004
C30	C	0.880946	-0.236304	-0.000010
C31	C	1.040575	0.120376	-0.000007
C32	C	1.124708	0.122050	-0.000003
C33	C	0.908861	0.300903	0.000004
C34	C	0.917457	0.406108	0.000010
N35	N	0.902674	0.127617	-0.195673
C36	C	0.952449	0.185026	-0.238931
C37	C	0.952457	0.185023	-0.325478
C38	C	0.902685	0.127614	-0.368765
C39	C	0.852907	0.070198	-0.325501
C40	C	0.852904	0.070197	-0.238956
C41	C	0.852922	0.070199	-0.674529
C42	C	0.852927	0.070206	-0.761081
C43	C	0.952474	0.185025	-0.761051
C44	C	0.952471	0.185024	-0.674506
C45	C	0.902696	0.127604	-0.631249
C46	C	0.902689	0.127608	-0.537405
C47	C	0.902688	0.127615	-0.462608
N48	N	0.902707	0.127611	0.195659
H49	H	0.132038	0.122209	-0.135982
H50	H	0.673310	0.133049	-0.135983
H51	H	0.529905	0.130150	-0.135983
H52	H	0.813446	-0.374530	-0.000000
C53	C	1.050855	0.298516	-0.247604
C54	C	1.007161	0.248132	-0.191353
H55	H	1.084636	0.337469	-0.218231
H56	H	1.018651	0.337407	-0.281359
H57	H	1.078919	0.254840	-0.281360
H58	H	0.979093	0.291809	-0.157600
H59	H	1.039369	0.209238	-0.157583
H60	H	0.991931	-0.370238	0.000052
H61	H	0.275457	0.125080	-0.135982
C62	C	0.172183	0.122981	0.223126
C63	C	0.120795	0.121967	0.157336
H64	H	0.145361	0.122433	0.273985
H65	H	0.200971	0.178838	0.220020
H66	H	0.205061	0.068347	0.219996
H67	H	0.087921	0.176604	0.160462
H68	H	0.091995	0.066104	0.160443
H69	H	0.993005	0.231776	-0.796281
H70	H	0.812395	0.023454	-0.796323
H71	H	0.275470	0.125058	0.135984
C72	C	0.440924	0.128387	0.141511
C73	C	0.518658	0.129934	0.157336
H74	H	0.414108	0.127859	0.192375
H75	H	0.430014	0.072886	0.110719
H76	H	0.425931	0.183377	0.110717
H77	H	0.533652	0.074940	0.188125
H78	H	0.529573	0.185440	0.188142
H79	H	0.812392	0.023444	-0.639320
H80	H	0.812386	0.023450	-0.360753
H81	H	0.673333	0.133028	0.135982
C82	C	1.054651	0.190785	-0.422772
C83	C	1.007175	0.248129	-0.373022
H84	H	1.088437	0.229747	-0.452118
H85	H	1.025013	0.156606	-0.460938
H86	H	1.082709	0.147123	-0.388996
H87	H	0.979112	0.291787	-0.406799
H88	H	1.036816	0.282325	-0.334851
C89	C	1.050879	0.298512	-0.683172
C90	C	1.007184	0.248126	-0.626925
H91	H	1.084662	0.337462	-0.653797
H92	H	1.018677	0.337406	-0.716926
H93	H	1.078943	0.254837	-0.716930
H94	H	0.979115	0.291801	-0.593171
H95	H	1.039390	0.209229	-0.593157
H96	H	0.812372	0.023448	-0.203736
