data_functionalizedCrystal
_audit_creation_method	'MofGen! by Chris Wilmer'
_symmetry_space_group_name_H-M	'P1'
_symmetry_Int_Tables_number	1
_symmetry_cell_setting	triclinic
loop_
_symmetry_equiv_pos_as_xyz
  x,y,z
_cell_length_a	12.759401
_cell_length_b	12.759400
_cell_length_c	12.759393
_cell_angle_alpha	89.969485
_cell_angle_beta	89.981287
_cell_angle_gamma	90.016209
loop_
_atom_site_label
_atom_site_type_symbol
_atom_site_fract_x
_atom_site_fract_y
_atom_site_fract_z
Zn1	Zn	1.606243	-0.418172	-0.594020
Zn2	Zn	1.606141	-0.593888	-0.418340
Zn3	Zn	1.430549	-0.418228	-0.418355
Zn4	Zn	1.430534	-0.593815	-0.593978
O5	O	1.518367	-0.506026	-0.506173
O6	O	1.753251	-0.441489	-0.570727
O7	O	1.582812	-0.570641	-0.271321
O8	O	1.453904	-0.271200	-0.441682
O9	O	1.753176	-0.570586	-0.441656
O10	O	1.582986	-0.271159	-0.570742
O11	O	1.453805	-0.441584	-0.271332
O12	O	1.283526	-0.441513	-0.441640
O13	O	1.453879	-0.570461	-0.741004
O14	O	1.283515	-0.570515	-0.570669
O15	O	1.582972	-0.441418	-0.741036
O16	O	1.582798	-0.740899	-0.441615
O17	O	1.453780	-0.740845	-0.570655
C18	C	1.245400	-0.506013	-0.506152
C19	C	1.128623	-0.506033	-0.506168
C20	C	1.073783	-0.573307	-0.573248
C21	C	0.964059	-0.573311	-0.573269
C22	C	0.964025	-0.438764	-0.439122
C23	C	1.073747	-0.438756	-0.439107
C24	C	0.814158	-0.611009	-0.697129
C25	C	0.759314	-0.678299	-0.764200
C26	C	0.794911	-0.780830	-0.780148
C27	C	0.885350	-0.816092	-0.729010
C28	C	0.940189	-0.748807	-0.661932
C29	C	0.904593	-0.646262	-0.646004
C30	C	1.223649	-0.401068	-0.315245
C31	C	1.278490	-0.333788	-0.248161
C32	C	1.242895	-0.231255	-0.232202
C33	C	1.152452	-0.195998	-0.283321
C34	C	1.097612	-0.263278	-0.350406
C35	C	1.133214	-0.365809	-0.366366
C36	C	1.518305	-0.778993	-0.506151
C37	C	1.518374	-0.895770	-0.506177
C38	C	1.585628	-0.950625	-0.439060
C39	C	1.585693	-1.060349	-0.439093
C40	C	1.451240	-1.060353	-0.573362
C41	C	1.451181	-0.950631	-0.573334
C42	C	1.652821	-0.895764	-0.371904
C43	C	1.720080	-0.950619	-0.304781
C44	C	1.720144	-1.060343	-0.304813
C45	C	1.652950	-1.115212	-0.371969
C46	C	1.792400	-0.506040	-0.506195
C47	C	1.909177	-0.506045	-0.506204
C48	C	1.518435	-0.505925	-0.780207
C49	C	1.518464	-0.505882	-0.896984
C50	C	1.518458	-0.231993	-0.506218
C51	C	1.518497	-0.115216	-0.506237
C52	C	1.451268	-0.573043	-0.951831
C53	C	1.451305	-0.573004	-1.061555
C54	C	1.585738	-0.438633	-1.061575
C55	C	1.585705	-0.438678	-0.951853
C56	C	1.413769	-0.696846	-1.211489
C57	C	1.346556	-0.763998	-1.266340
C58	C	1.244026	-0.780136	-1.230725
C59	C	1.208686	-0.729106	-1.140260
C60	C	1.275893	-0.661946	-1.085414
C61	C	1.378439	-0.645828	-1.121028
C62	C	1.623231	-0.314836	-0.801916
C63	C	1.690433	-0.247669	-0.747069
C64	C	1.792965	-0.231521	-0.782682
C65	C	1.828301	-0.282532	-0.873151
C66	C	1.761098	-0.349698	-0.927998
C67	C	1.658567	-0.365849	-0.892377
C68	C	1.518360	-0.506051	-0.233206
C69	C	1.518534	-0.505798	-0.116430
H70	H	1.118460	-0.628085	-0.627857
Br71	Br	1.653061	-0.746854	-0.372180
H72	H	1.774917	-1.105004	-0.250166
Br73	Br	1.811280	-0.876159	-0.213659
Br74	Br	1.884166	-0.140356	-0.708251
H75	H	0.919331	-0.383991	-0.384521
H76	H	1.375339	-0.805546	-1.339997
Br77	Br	1.069521	-0.750992	-1.091942
Br78	Br	1.062917	-0.796652	-0.592529
Br79	Br	1.359912	-0.876178	-0.664427
H80	H	0.914320	-0.899587	-0.741991
H81	H	1.911789	-0.269377	-0.902153
Br82	Br	0.636581	-0.630446	-0.833601
Br83	Br	1.652559	-1.264123	-0.371530
Br84	Br	0.720482	-0.872148	-0.871177
H85	H	1.396510	-0.627759	-0.907160
Br86	Br	1.360053	-1.134817	-0.664494
H87	H	1.247120	-0.620396	-1.011762
H88	H	1.023973	-0.234559	-0.392037
Br89	Br	1.401222	-0.381646	-0.178763
Br90	Br	0.765855	-0.471845	-0.675511
H91	H	1.189300	-0.834813	-1.275393
H92	H	1.497261	-0.683723	-1.240489
H93	H	1.640481	-0.383917	-1.106263
H94	H	1.252646	-0.484556	-0.328242
Br95	Br	1.642476	-0.178434	-0.624291
Br96	Br	1.809049	-0.418921	-1.050786
Br97	Br	1.104129	-0.056847	-0.261654
Br98	Br	1.317310	-0.139953	-0.141139
Br99	Br	1.484080	-0.336768	-0.753564
