data_functionalizedCrystal
_audit_creation_method	'MofGen! by Chris Wilmer'
_symmetry_space_group_name_H-M	'P1'
_symmetry_Int_Tables_number	1
_symmetry_cell_setting	triclinic
loop_
_symmetry_equiv_pos_as_xyz
  x,y,z
_cell_length_a	27.732048
_cell_length_b	27.731994
_cell_length_c	10.268362
_cell_angle_alpha	90.001501
_cell_angle_beta	89.989776
_cell_angle_gamma	82.631595
loop_
_atom_site_label
_atom_site_type_symbol
_atom_site_fract_x
_atom_site_fract_y
_atom_site_fract_z
O1	O	0.057393	0.640944	-0.108128
O2	O	0.066165	0.500147	-0.108174
O3	O	-0.008619	0.574919	-0.108125
O4	O	0.132177	0.566173	-0.108177
O5	O	-0.008622	0.574912	0.108476
O6	O	0.066162	0.500141	0.108427
O7	O	0.057390	0.640938	0.108472
Cu8	Cu	0.061776	0.570539	0.128227
Cu9	Cu	0.061779	0.570546	-0.127928
O10	O	0.132174	0.566166	0.108423
C11	C	0.065984	0.482137	0.000121
C12	C	0.065442	0.428480	0.000105
C13	C	0.062024	0.095758	0.118226
C14	C	0.059963	-0.105900	0.118241
O15	O	0.059674	-0.131975	0.218654
N16	N	0.059708	-0.131111	0.000172
C17	C	0.059966	-0.105904	-0.117909
O18	O	0.059697	-0.131975	-0.218333
C19	C	0.062024	0.095753	-0.117923
C20	C	0.062283	0.120961	0.000154
C21	C	0.062283	0.120966	0.236292
C22	C	0.062801	0.171378	0.236287
C23	C	0.063060	0.196581	0.118215
C24	C	0.062801	0.171372	0.000148
C25	C	0.062279	0.120960	-0.236003
C26	C	0.062792	0.171377	-0.235996
C27	C	0.063051	0.196585	-0.117919
C28	C	0.063579	0.246987	-0.117929
N29	N	0.063833	0.272198	0.000140
C30	C	0.063574	0.246995	0.118212
C31	C	0.058886	-0.211778	-0.117893
C32	C	0.058373	-0.262192	-0.117890
C33	C	0.058368	-0.262184	0.118261
C34	C	0.058886	-0.211769	0.118256
C35	C	0.059141	-0.186566	0.000176
C36	C	0.064662	0.352862	0.118193
C37	C	0.065182	0.403277	0.118177
C38	C	0.065184	0.403265	-0.117973
C39	C	0.064667	0.352854	-0.117958
C40	C	0.064404	0.327654	0.000135
O41	O	0.063862	0.273094	-0.218289
O42	O	0.063832	0.273075	0.218622
C43	C	0.061506	0.045347	0.118231
C44	C	0.061247	0.020139	0.000164
C45	C	0.061507	0.045342	-0.117908
C46	C	0.060734	-0.030275	0.000167
C47	C	0.060474	-0.055478	0.118239
C48	C	0.060729	-0.030267	0.236308
C49	C	0.061247	0.020144	0.236303
C50	C	0.061252	0.020131	-0.235977
C51	C	0.060735	-0.030281	-0.235962
C52	C	0.060476	-0.055484	-0.117890
C53	C	-0.026627	0.574732	0.000179
C54	C	-0.080282	0.574179	0.000190
C55	C	-0.419105	0.614884	0.000136
C56	C	-0.620764	0.612833	0.000117
O57	O	-0.652027	0.650055	0.000072
N58	N	-0.639879	0.568496	0.000104
C59	C	-0.608576	0.524670	0.000087
O60	O	-0.629462	0.486912	0.000062
C61	C	-0.406918	0.526721	0.000097
C62	C	-0.387805	0.571061	0.000123
C63	C	-0.399992	0.659220	0.000161
C64	C	-0.349580	0.659732	0.000172
C65	C	-0.318281	0.615908	0.000159
C66	C	-0.337394	0.571573	0.000135
C67	C	-0.375615	0.482895	0.000070
C68	C	-0.325198	0.483412	0.000069
C69	C	-0.306086	0.527751	0.000096
C70	C	-0.255683	0.528262	0.000133
N71	N	-0.236567	0.572598	0.000146
C72	C	-0.267867	0.616421	0.000159
C73	C	-0.714450	0.523596	0.000085
C74	C	-0.764864	0.523083	0.000085
C75	C	-0.777049	0.611246	0.000112
C76	C	-0.726633	0.611759	0.000121
C77	C	-0.695335	0.567932	0.000098
C78	C	-0.161998	0.617494	0.000185
C79	C	-0.111581	0.618002	0.000203
C80	C	-0.099401	0.529839	0.000168
C81	C	-0.149813	0.529331	0.000158
C82	C	-0.181111	0.573162	0.000162
O83	O	-0.224391	0.491060	0.000164
O84	O	-0.246971	0.654174	0.000155
C85	C	-0.469517	0.614372	0.000124
C86	C	-0.488629	0.570036	0.000099
C87	C	-0.457330	0.526213	0.000086
C88	C	-0.539043	0.569523	0.000099
C89	C	-0.570343	0.613346	0.000112
C90	C	-0.551228	0.657683	0.000125
C91	C	-0.500816	0.658195	0.000137
C92	C	-0.476445	0.481876	0.000073
C93	C	-0.526857	0.481367	0.000063
C94	C	-0.558157	0.525191	0.000076
C95	C	0.150182	0.566353	0.000117
C96	C	0.203837	0.566906	0.000098
C97	C	0.057571	0.658949	0.000175
C98	C	0.058114	0.712605	0.000182
N99	N	0.061773	0.570537	0.308393
N100	N	0.061778	0.570552	-0.308094
C101	C	0.061778	0.570544	0.574063
C102	C	0.061777	0.570538	0.426225
H103	H	0.061462	0.040646	-0.332128
H104	H	-0.542413	0.445258	0.000053
N105	N	0.059154	-0.186035	-0.238512
N106	N	0.093525	-0.162615	-0.264887
H107	H	0.093714	-0.144435	-0.350073
N108	N	-0.431952	0.703993	0.000165
N109	N	-0.414870	0.743571	0.000183
H110	H	-0.437439	0.775195	0.000193
H111	H	0.058169	-0.282713	-0.214040
H112	H	-0.165375	0.493226	0.000173
H113	H	0.062067	0.100444	-0.332154
N114	N	-0.707104	0.657045	0.000151
N115	N	-0.680338	0.667165	0.091456
H116	H	-0.666546	0.699150	0.091476
H117	H	-0.096023	0.654110	0.000227
H118	H	-0.450966	0.446189	0.000060
H119	H	-0.802541	0.646929	0.000123
N120	N	-0.193956	0.662270	0.000186
N121	N	-0.176876	0.701849	0.000209
H122	H	-0.199446	0.733473	0.000216
H123	H	-0.576720	0.693365	0.000141
H124	H	0.065395	0.423799	0.214333
N125	N	-0.330070	0.705028	0.000194
N126	N	-0.358029	0.744149	0.000200
H127	H	-0.344253	0.776142	0.000211
H128	H	-0.073908	0.494160	0.000162
H129	H	-0.780420	0.486977	0.000086
H130	H	0.060528	-0.050801	-0.332122
N131	N	0.063048	0.197113	-0.356628
N132	N	0.062815	0.174596	-0.462033
H133	H	0.062997	0.192771	-0.547231
N134	N	-0.682489	0.478820	0.000061
N135	N	-0.699569	0.439241	0.000052
H136	H	-0.676999	0.407618	0.000040
N137	N	0.059160	-0.186021	0.238864
N138	N	0.093193	-0.196365	0.317895
H139	H	0.093389	-0.178182	0.403078
H140	H	-0.391167	0.446789	0.000041
H141	H	0.064453	0.332349	0.214355
H142	H	-0.299716	0.447722	0.000048
N143	N	-0.481305	0.703491	0.000169
N144	N	-0.509264	0.742612	0.000182
H145	H	-0.495489	0.774606	0.000204
H146	H	0.060520	-0.050796	0.332446
N147	N	0.062015	0.095235	0.356923
N148	N	0.062244	0.117758	0.462320
H149	H	0.062058	0.099589	0.547524
H150	H	0.058158	-0.282713	0.214400
H151	H	0.063009	0.191898	0.332438
H152	H	0.065397	0.423794	-0.214104
N153	N	0.064408	0.327108	-0.238578
N154	N	0.064641	0.349619	-0.343990
H155	H	0.064454	0.331440	-0.429182
N156	N	0.061514	0.045882	0.356928
N157	N	0.061283	0.023365	0.462331
H158	H	0.061471	0.041539	0.547530
