data_functionalizedCrystal
_audit_creation_method	'MofGen! by Chris Wilmer'
_symmetry_space_group_name_H-M	'P1'
_symmetry_Int_Tables_number	1
_symmetry_cell_setting	triclinic
loop_
_symmetry_equiv_pos_as_xyz
  x,y,z
_cell_length_a	16.109301
_cell_length_b	10.654550
_cell_length_c	9.130313
_cell_angle_alpha	90.004369
_cell_angle_beta	90.000804
_cell_angle_gamma	83.973206
loop_
_atom_site_label
_atom_site_type_symbol
_atom_site_fract_x
_atom_site_fract_y
_atom_site_fract_z
O1	O	-1.104090	-0.161420	-0.121706
O2	O	-0.604090	0.338580	0.378294
O3	O	-0.862148	-0.181509	-0.121729
O4	O	-0.362148	0.318491	0.378271
O5	O	-0.988682	0.011350	-0.121708
O6	O	-0.488682	0.511350	0.378292
O7	O	-0.977556	-0.354279	-0.121728
O8	O	-0.477556	0.145721	0.378272
O9	O	-0.988673	0.011356	0.121891
O10	O	-0.488673	0.511356	0.621891
O11	O	-0.862139	-0.181503	0.121869
O12	O	-0.362139	0.318497	0.621869
O13	O	-1.104082	-0.161415	0.121893
O14	O	-0.604082	0.338585	0.621893
Cu15	Cu	-0.983110	-0.171458	0.144123
Cu16	Cu	-0.483110	0.328542	0.644123
Cu17	Cu	-0.983120	-0.171465	-0.143960
Cu18	Cu	-0.483120	0.328535	0.356040
O19	O	-0.977548	-0.354274	0.121871
O20	O	-0.477548	0.145726	0.621871
C21	C	-0.987861	0.058140	0.000090
C22	C	-0.487861	0.558140	0.500090
C23	C	-0.985417	0.197550	0.000088
C24	C	-0.485417	0.697550	0.500088
C25	C	-0.831164	-0.180692	0.000067
C26	C	-0.331164	0.319308	0.500067
C27	C	-0.738854	-0.178253	0.000058
C28	C	-0.238854	0.321747	0.500058
C29	C	-1.135066	-0.162231	0.000093
C30	C	-0.635066	0.337769	0.500093
C31	C	-1.227376	-0.164671	0.000092
C32	C	-0.727376	0.335329	0.500092
C33	C	-0.517228	-0.287019	0.000070
C34	C	-0.017228	0.212981	0.500070
C35	C	-0.430494	-0.284717	0.000079
C36	C	0.069506	0.215283	0.500079
C37	C	-0.449008	-0.055896	0.000085
C38	C	0.050992	0.444104	0.500085
C39	C	-0.535741	-0.058199	0.000086
C40	C	-0.035741	0.441801	0.500086
C41	C	-0.569848	-0.173764	0.000071
C42	C	-0.069848	0.326236	0.500071
C43	C	-0.396382	-0.169159	0.000079
C44	C	0.103618	0.330841	0.500079
C45	C	-0.302341	-0.166662	0.000090
C46	C	0.197659	0.333338	0.500090
C47	C	-0.663895	-0.176262	0.000063
C48	C	-0.163895	0.323738	0.500063
C49	C	-0.978369	-0.401063	0.000069
C50	C	-0.478369	0.098937	0.500069
C51	C	-0.980813	-0.540473	0.000062
C52	C	-0.480813	-0.040473	0.500062
N53	N	-0.983108	-0.171453	0.346746
N54	N	-0.483108	0.328547	0.846746
C55	C	-1.059918	0.278046	0.000095
C56	C	-0.559918	0.778046	0.500095
C57	C	-1.057616	0.409036	0.000076
C58	C	-0.557616	0.909036	0.500076
C59	C	-0.906306	0.379020	0.000051
C60	C	-0.406306	0.879020	0.500051
C61	C	-0.908608	0.248033	0.000059
C62	C	-0.408608	0.748033	0.500059
N63	N	-0.983128	-0.171460	-0.346583
N64	N	-0.483128	0.328540	0.153417
C65	C	-1.039157	-0.086091	0.423407
C66	C	-0.539157	0.413909	0.923407
C67	C	-1.039165	-0.086091	0.576744
C68	C	-0.539165	0.413909	1.076744
C69	C	-0.927073	-0.256827	0.576745
C70	C	-0.427073	0.243173	1.076745
C71	C	-0.927062	-0.256820	0.423411
C72	C	-0.427062	0.243180	0.923411
H73	H	-0.544996	-0.381119	0.000068
H74	H	-0.044996	0.118881	0.500068
F75	F	-1.136911	0.494701	0.000080
F76	F	-0.636911	0.994701	0.500080
F77	F	-0.824566	0.432759	0.000020
F78	F	-0.324566	0.932759	0.500020
H79	H	-0.881443	-0.326332	0.639181
H80	H	-0.381443	0.173668	1.139181
H81	H	-1.084792	-0.016578	0.360991
H82	H	-0.584792	0.483422	0.860991
H83	H	-0.881417	-0.326332	0.360989
H84	H	-0.381417	0.173668	0.860989
H85	H	-1.084803	-0.016580	0.639158
H86	H	-0.584803	0.483420	1.139158
F87	F	-0.412701	0.067090	0.000095
F88	F	0.087299	0.567090	0.500095
H89	H	-0.847937	0.182489	0.000049
H90	H	-0.347937	0.682489	0.500049
H91	H	-0.387654	-0.376940	0.000081
H92	H	0.112346	0.123060	0.500081
H93	H	-0.578586	0.034032	0.000091
H94	H	-0.078586	0.534032	0.500091
H95	H	-1.122460	0.236948	0.000115
H96	H	-0.622460	0.736948	0.500115
