data_functionalizedCrystal
_audit_creation_method	'MofGen! by Chris Wilmer'
_symmetry_space_group_name_H-M	'P1'
_symmetry_Int_Tables_number	1
_symmetry_cell_setting	triclinic
loop_
_symmetry_equiv_pos_as_xyz
  x,y,z
_cell_length_a	17.917603
_cell_length_b	23.196401
_cell_length_c	23.196402
_cell_angle_alpha	60.008734
_cell_angle_beta	90.005509
_cell_angle_gamma	57.015267
loop_
_atom_site_label
_atom_site_type_symbol
_atom_site_fract_x
_atom_site_fract_y
_atom_site_fract_z
Zr1	Zr	0.755005	0.577856	-0.049025
O2	O	0.629893	0.706902	-0.145454
O3	O	0.793344	0.454909	-0.019477
O4	O	0.793351	0.575159	-0.139728
O5	O	0.629896	0.586653	0.069666
O6	O	0.922307	0.566094	-0.135195
O7	O	0.629885	0.586652	-0.025204
O8	O	0.922293	0.350989	0.079911
O9	O	0.629910	0.801758	-0.145440
O10	O	0.905951	0.496455	-0.003477
O11	O	0.809721	0.503221	0.063941
O12	O	0.809730	0.644800	-0.077638
O13	O	0.713500	0.651566	-0.010220
Zr14	Zr	0.960693	0.563400	0.109510
Zr15	Zr	0.960675	0.563399	-0.041797
Zr16	Zr	0.755022	0.577857	0.102282
Zr17	Zr	0.755032	0.729141	-0.049002
Zr18	Zr	0.960665	0.412115	0.109487
O19	O	0.922354	0.686347	0.079963
O20	O	0.922329	0.686345	-0.135177
O21	O	0.629918	0.706904	0.069685
O22	O	1.085805	0.434354	0.205940
O23	O	1.085780	0.434352	-0.009199
O24	O	0.793368	0.454911	0.195662
O25	O	1.085802	0.554603	-0.009181
O26	O	0.922346	0.566097	0.200213
O27	O	0.793390	0.575162	0.195681
O28	O	1.085813	0.554604	0.085689
O29	O	0.793390	0.790266	-0.139694
O30	O	0.922307	0.350990	0.200180
O31	O	1.085787	0.339498	0.205925
O32	O	1.085774	0.339497	0.085656
O33	O	0.629924	0.801759	-0.025171
O34	O	0.793404	0.790267	-0.019425
O35	O	0.905967	0.496456	0.138124
O36	O	1.002198	0.489690	0.070706
O37	O	0.905977	0.638035	-0.003456
O38	O	0.809746	0.644801	0.063963
C39	C	0.600587	0.588712	0.021201
C40	C	0.513275	0.594850	0.018133
C41	C	0.857871	0.570629	0.219505
C42	C	0.857878	0.570630	0.283739
C43	C	0.857883	0.759862	0.030272
C44	C	0.857895	0.824086	0.030282
C45	C	0.353432	0.606061	0.012529
C46	C	0.362259	0.535198	0.047955
C47	C	0.273317	0.541436	0.044837
C48	C	0.442380	0.599825	0.015646
C49	C	1.115111	0.552543	0.039284
C50	C	1.202423	0.546406	0.042353
C51	C	0.857815	0.381394	0.030213
C52	C	0.857803	0.317170	0.030203
C53	C	0.807652	0.857802	0.065463
C54	C	0.807645	0.918162	0.065459
C55	C	0.857867	0.944816	0.030259
C56	C	0.908121	0.911089	-0.004923
C57	C	0.908134	0.850724	-0.004912
C58	C	0.850671	1.074531	-0.031911
C59	C	0.850651	1.134899	-0.031925
C60	C	0.857831	1.130999	0.030225
C61	C	0.865013	1.066733	0.092387
C62	C	0.865026	1.006368	0.092399
C63	C	0.857859	1.010271	0.030243
C64	C	0.807579	1.230163	0.065404
C65	C	0.807579	1.290521	0.065402
C66	C	0.908048	1.283453	-0.004986
C67	C	0.908055	1.223091	-0.004977
C68	C	0.857815	1.196453	0.030216
C69	C	0.857827	0.570627	-0.159020
C70	C	0.857820	0.570626	-0.223253
C71	C	0.807656	0.648062	0.275203
C72	C	0.807642	0.648064	0.335557
C73	C	0.857868	0.570628	0.404447
C74	C	0.908093	0.493187	0.412980
C75	C	0.908098	0.493187	0.352626
C76	C	0.942001	0.508093	0.531332
C77	C	0.941999	0.508095	0.591684
C78	C	0.857852	0.570623	0.590600
C79	C	0.773709	0.633163	0.529151
C80	C	0.773714	0.633164	0.468797
C81	C	0.857868	0.570619	0.469895
C82	C	0.807610	0.648063	0.647504
C83	C	0.807594	0.648062	0.707860
C84	C	0.908054	0.493182	0.785284
C85	C	0.908062	0.493186	0.724928
C86	C	0.857842	0.570628	0.656040
C87	C	1.115076	0.363310	0.039255
C88	C	1.202377	0.292948	0.042314
C89	C	0.857836	0.381395	0.219476
C90	C	0.857832	0.317172	0.283700
C91	C	1.115098	0.363311	0.228517
C92	C	1.202406	0.292950	0.295810
C93	C	0.600599	0.777945	-0.168032
C94	C	0.513291	0.848306	-0.235324
C95	C	0.600621	0.777946	0.021231
C96	C	0.513320	0.848308	0.018172
C97	C	0.857861	0.759860	-0.158990
C98	C	0.857865	0.824084	-0.223214
C99	C	1.193135	0.263436	0.005021
C100	C	1.275155	0.197332	0.007880
C101	C	1.366417	0.160737	0.048037
C102	C	1.375658	0.190255	0.085331
C103	C	1.293638	0.256362	0.082467
C104	C	0.908070	0.283480	0.352589
C105	C	0.908062	0.223144	0.412940
C106	C	0.857822	0.196496	0.404400
C107	C	0.807578	0.230193	0.335503
C108	C	0.807581	0.290533	0.275154
C109	C	1.293647	0.256375	0.292220
C110	C	1.375690	0.190271	0.355442
C111	C	1.366490	0.160738	0.422255
C112	C	1.275240	0.197320	0.425843
C113	C	1.193199	0.263427	0.362621
C114	C	0.422051	0.884888	-0.231734
C115	C	0.340007	0.951011	-0.294957
C116	C	0.349207	0.980547	-0.361769
C117	C	0.440457	0.943962	-0.365358
C118	C	0.522498	0.877844	-0.302136
C119	C	0.522563	0.877826	0.055458
C120	C	0.440542	0.943947	0.052582
C121	C	0.349280	0.980544	0.012423
C122	C	0.340040	0.951023	-0.024868
C123	C	0.422059	0.884908	-0.021995
C124	C	0.908115	0.850713	-0.214651
C125	C	0.908138	0.911049	-0.274990
C126	C	0.857905	0.944759	-0.343891
C127	C	0.807653	0.918125	-0.352453
C128	C	0.807636	0.857785	-0.292114
H129	H	0.436613	0.469845	0.080626
H130	H	0.948944	1.305151	-0.033643
H131	H	0.282396	1.034384	-0.413244
H132	H	1.267764	0.173264	0.480250
H133	H	0.279083	0.671409	-0.020141
H134	H	0.948980	0.195714	0.469033
H135	H	0.447937	0.968018	-0.419764
H136	H	0.766747	0.836114	0.094123
H137	H	0.766725	0.945623	0.094103
H138	H	0.414521	0.860877	-0.052357
H139	H	0.766674	0.317957	0.219063
H140	H	0.596865	0.848034	0.088165
H141	H	1.449974	0.160450	0.118025
H142	H	0.948982	0.305171	0.359556
H143	H	0.844833	1.077713	-0.082523
H144	H	0.857828	0.147363	0.453546
H145	H	0.948963	0.430132	0.731882
H146	H	0.948962	1.195642	-0.033629
H147	H	0.948944	0.430133	0.841375
H148	H	0.766673	1.208472	0.094063
H149	H	0.870876	0.954042	0.143014
H150	H	0.870856	1.063555	0.142995
H151	H	0.766741	0.711120	0.328606
H152	H	0.766713	0.836112	-0.299097
H153	H	0.949022	0.823275	-0.158554
H154	H	1.010515	0.457176	0.641711
H155	H	0.949058	0.932728	-0.268005
H156	H	0.857926	0.993891	-0.393017
H157	H	0.766754	0.945581	-0.408560
H158	H	1.449983	0.160492	0.352508
H159	H	0.282503	1.034378	0.010090
H160	H	0.766670	1.317966	0.094057
H161	H	0.448085	0.967971	0.082952
H162	H	0.844800	1.187224	-0.082542
H163	H	0.766674	0.208487	0.328561
H164	H	0.265723	0.980830	-0.057564
H165	H	0.414542	0.860845	-0.177338
H166	H	1.301156	0.280410	0.237824
H167	H	0.949014	0.932793	-0.033582
H168	H	0.949048	0.823272	-0.033561
H169	H	0.766761	0.711122	0.219115
H170	H	1.010526	0.457167	0.532228
H171	H	0.948986	0.430138	0.469075
H172	H	1.433301	0.106909	0.473729
H173	H	0.705200	0.684084	0.418767
H174	H	0.705189	0.684079	0.528264
H175	H	1.118910	0.293198	0.365554
H176	H	0.766714	0.711122	0.591412
H177	H	0.766691	0.711119	0.700903
H178	H	0.948995	0.430131	0.359582
H179	H	0.265716	0.980789	-0.292021
H180	H	0.596788	0.848059	-0.305067
H181	H	1.118832	0.293231	-0.027688
H182	H	1.433195	0.106909	0.050364
H183	H	1.267613	0.173308	-0.022489
H184	H	1.301177	0.280381	0.112840
