data_functionalizedCrystal
_audit_creation_method	'MofGen! by Chris Wilmer'
_symmetry_space_group_name_H-M	'P1'
_symmetry_Int_Tables_number	1
_symmetry_cell_setting	triclinic
loop_
_symmetry_equiv_pos_as_xyz
  x,y,z
_cell_length_a	10.723023
_cell_length_b	15.944551
_cell_length_c	9.198806
_cell_angle_alpha	89.995864
_cell_angle_beta	89.996513
_cell_angle_gamma	83.983143
loop_
_atom_site_label
_atom_site_type_symbol
_atom_site_fract_x
_atom_site_fract_y
_atom_site_fract_z
O1	O	1.655700	0.117805	-0.120881
O2	O	1.292405	0.129082	-0.120888
O3	O	1.483973	0.001226	-0.120871
O4	O	1.464132	0.245662	-0.120898
O5	O	1.483958	0.001225	0.120914
O6	O	1.292390	0.129082	0.120897
O7	O	1.655685	0.117805	0.120904
Cu8	Cu	1.474036	0.123443	0.142978
Cu9	Cu	1.474054	0.123444	-0.142961
O10	O	1.464117	0.245661	0.120887
C11	C	1.245908	0.128262	0.000004
C12	C	1.107385	0.125807	0.000002
C13	C	1.045619	0.124712	0.125253
C14	C	0.902448	0.122174	0.125254
C15	C	1.483142	-0.030073	0.000022
C16	C	1.480673	-0.123333	0.000022
C17	C	1.356027	-0.338903	0.000000
C18	C	1.413901	-0.399590	0.119216
C19	C	1.476205	-0.294085	0.000011
C20	C	1.413944	-0.399573	-0.119165
C21	C	1.471881	-0.459022	-0.000006
C22	C	1.534112	-0.353543	0.119325
C23	C	1.534138	-0.353519	-0.119163
C24	C	1.592100	-0.414188	0.000082
C25	C	1.478693	-0.199068	0.000022
C26	C	1.469403	-0.554038	-0.000007
C27	C	1.702182	0.118625	0.000009
C28	C	1.840705	0.121080	0.000001
C29	C	1.464948	0.276960	-0.000009
C30	C	1.467417	0.370220	-0.000019
N31	N	1.474032	0.123442	0.344092
N32	N	1.474067	0.123438	-0.344075
C33	C	1.554469	0.069522	0.416296
C34	C	1.554489	0.069519	0.583708
H35	H	0.849330	0.121238	0.232486
H36	H	1.363104	-0.419940	-0.219960
C37	C	1.647466	0.007145	0.332376
N38	N	1.717508	-0.039844	0.269170
H39	H	0.893813	0.122027	-0.107236
C40	C	1.035637	0.124534	-0.144868
N41	N	0.981598	0.123577	-0.253989
H42	H	1.363064	-0.419989	0.220001
H43	H	1.256274	-0.306167	0.000117
C44	C	1.602711	-0.326147	0.255639
N45	N	1.654373	-0.305509	0.358312
C46	C	1.117360	0.126019	0.270123
N47	N	1.171390	0.127019	0.379244
C48	C	1.647526	0.007152	0.667589
N49	N	1.717602	-0.039825	0.730773
C50	C	1.381026	0.185807	0.572053
N51	N	1.310946	0.232782	0.508870
H52	H	1.584932	-0.333098	-0.219954
H53	H	1.691940	-0.446775	0.000151
H54	H	1.405177	0.169600	0.406214
