data_functionalizedCrystal
_audit_creation_method	'MofGen! by Chris Wilmer'
_symmetry_space_group_name_H-M	'P1'
_symmetry_Int_Tables_number	1
_symmetry_cell_setting	triclinic
loop_
_symmetry_equiv_pos_as_xyz
  x,y,z
_cell_length_a	12.759399
_cell_length_b	12.759401
_cell_length_c	12.759393
_cell_angle_alpha	90.018776
_cell_angle_beta	90.027038
_cell_angle_gamma	90.015808
loop_
_atom_site_label
_atom_site_type_symbol
_atom_site_fract_x
_atom_site_fract_y
_atom_site_fract_z
Zn1	Zn	0.418210	-1.606252	-0.594006
Zn2	Zn	0.918210	-1.106252	-0.094006
Zn3	Zn	0.593925	-1.606143	-0.418336
Zn4	Zn	1.093925	-1.106143	0.081664
Zn5	Zn	0.418262	-1.430553	-0.418345
Zn6	Zn	0.918262	-0.930553	0.081655
Zn7	Zn	0.593849	-1.430540	-0.593977
Zn8	Zn	1.093849	-0.930540	-0.093977
O9	O	0.506061	-1.518372	-0.506166
O10	O	1.006061	-1.018372	-0.006166
O11	O	0.441530	-1.753258	-0.570711
O12	O	0.941530	-1.253258	-0.070711
O13	O	0.570676	-1.582810	-0.271316
O14	O	1.070676	-1.082810	0.228684
O15	O	0.271234	-1.453911	-0.441663
O16	O	0.771234	-0.953911	0.058337
O17	O	0.570627	-1.753178	-0.441647
O18	O	1.070627	-1.253178	0.058353
O19	O	0.271196	-1.582996	-0.570720
O20	O	0.771196	-1.082996	-0.070720
O21	O	0.441617	-1.453805	-0.271323
O22	O	0.941617	-0.953805	0.228677
O23	O	0.441543	-1.283530	-0.441635
O24	O	0.941543	-0.783530	0.058365
O25	O	0.570496	-1.453888	-0.741002
O26	O	1.070496	-0.953888	-0.241002
O27	O	0.570546	-1.283521	-0.570671
O28	O	1.070546	-0.783521	-0.070671
O29	O	0.441456	-1.582983	-0.741023
O30	O	0.941456	-1.082983	-0.241023
O31	O	0.740936	-1.582798	-0.441619
O32	O	1.240936	-1.082798	0.058381
O33	O	0.740880	-1.453783	-0.570662
O34	O	1.240880	-0.953783	-0.070662
C35	C	0.779029	-1.518306	-0.506159
C36	C	1.279029	-1.018306	-0.006159
C37	C	0.895805	-1.518373	-0.506192
C38	C	1.395805	-1.018373	-0.006192
C39	C	0.506043	-1.245405	-0.506152
C40	C	1.006043	-0.745405	-0.006152
C41	C	0.506060	-1.128628	-0.506170
C42	C	1.006060	-0.628628	-0.006170
C43	C	0.505962	-1.518447	-0.780199
C44	C	1.005962	-1.018447	-0.280199
C45	C	0.505919	-1.518478	-0.896976
C46	C	1.005919	-1.018478	-0.396976
C47	C	0.950662	-1.585625	-0.439076
C48	C	1.450662	-1.085625	0.060924
C49	C	1.060386	-1.585688	-0.439115
C50	C	1.560386	-1.085688	0.060885
C51	C	1.060387	-1.451238	-0.573387
C52	C	1.560387	-0.951238	-0.073387
C53	C	0.950665	-1.451181	-0.573353
C54	C	1.450665	-0.951181	-0.073353
C55	C	0.895802	-1.652817	-0.371915
C56	C	1.395802	-1.152817	0.128085
C57	C	0.950658	-1.720073	-0.304793
C58	C	1.450658	-1.220073	0.195207
C59	C	1.060382	-1.720136	-0.304832
C60	C	1.560382	-1.220136	0.195168
C61	C	1.115250	-1.652942	-0.371992
C62	C	1.615250	-1.152942	0.128008
C63	C	1.232028	-1.518463	-0.506210
C64	C	1.732028	-1.018463	-0.006210
C65	C	1.115251	-1.518493	-0.506264
C66	C	1.615251	-1.018493	-0.006264
C67	C	0.506081	-1.792405	-0.506181
C68	C	1.006081	-1.292405	-0.006181
C69	C	0.506089	-1.909182	-0.506188
C70	C	1.006089	-1.409182	-0.006188
C71	C	0.573350	-0.964057	-0.573261
C72	C	1.073350	-0.464057	-0.073261
C73	C	0.573338	-1.073781	-0.573250
C74	C	1.073338	-0.573781	-0.073250
C75	C	0.438796	-1.073745	-0.439090
C76	C	0.938796	-0.573745	0.060910
C77	C	0.438814	-0.964023	-0.439096
C78	C	0.938814	-0.464023	0.060904
C79	C	0.438667	-1.585727	-1.061576
C80	C	0.938667	-1.085727	-0.561576
C81	C	0.438714	-1.585704	-0.951852
C82	C	0.938714	-1.085704	-0.451852
C83	C	0.573091	-1.451279	-0.951831
C84	C	1.073091	-0.951279	-0.451831
C85	C	0.573049	-1.451307	-1.061553
C86	C	1.073049	-0.951307	-0.561553
C87	C	0.371450	-1.652949	-1.116446
C88	C	0.871450	-1.152949	-0.616446
C89	C	0.304279	-1.720151	-1.061599
C90	C	0.804279	-1.220151	-0.561599
C91	C	0.304325	-1.720128	-0.951875
C92	C	0.804325	-1.220128	-0.451875
C93	C	0.371542	-1.652904	-0.896997
C94	C	0.871542	-1.152904	-0.396997
C95	C	0.506085	-1.518358	-0.233199
C96	C	1.006085	-1.018358	0.266801
C97	C	0.505831	-1.518530	-0.116423
C98	C	1.005831	-1.018530	0.383577
H99	H	0.905979	-1.774786	-0.250120
H100	H	1.405979	-1.274786	0.249880
H101	H	1.105043	-1.774907	-0.250186
H102	H	1.605043	-1.274907	0.249814
H103	H	1.204595	-1.653007	-0.372026
H104	H	1.704595	-1.153007	0.127974
O105	O	0.366279	-0.904820	-0.366739
O106	O	0.866279	-0.404820	0.133261
H107	H	0.312898	-0.854840	-0.413847
H108	H	0.812898	-0.354840	0.086153
O109	O	0.231888	-1.792616	-0.892721
O110	O	0.731888	-1.292616	-0.392721
H111	H	0.243216	-1.781316	-0.807206
H112	H	0.743216	-1.281316	-0.307206
H113	H	1.105069	-1.396532	-0.628065
H114	H	1.605069	-0.896532	-0.128065
H115	H	0.906001	-1.396420	-0.628005
H116	H	1.406001	-0.896420	-0.128005
O117	O	0.371404	-1.652972	-1.234790
O118	O	0.871404	-1.152972	-0.734790
H119	H	0.313387	-1.711008	-1.263733
H120	H	0.813387	-1.211008	-0.763733
O121	O	0.645990	-0.904945	-0.645571
O122	O	1.145990	-0.404945	-0.145571
H123	H	0.628128	-0.926038	-0.728071
H124	H	1.128128	-0.426038	-0.228071
H125	H	0.249560	-1.774888	-1.106287
H126	H	0.749560	-1.274888	-0.606287
O127	O	0.645875	-1.132973	-0.645600
O128	O	1.145875	-0.632973	-0.145600
H129	H	0.692649	-1.076401	-0.692257
H130	H	1.192649	-0.576401	-0.192257
O131	O	0.366231	-1.132890	-0.366731
O132	O	0.866231	-0.632890	0.133269
H133	H	0.312817	-1.182894	-0.413840
H134	H	0.812817	-0.682894	0.086160
O135	O	0.371597	-1.652875	-0.778651
O136	O	0.871597	-1.152875	-0.278651
H137	H	0.313598	-1.710893	-0.749728
H138	H	0.813598	-1.210893	-0.249728
O139	O	0.645574	-1.378763	-0.892649
O140	O	1.145574	-0.878763	-0.392649
H141	H	0.634310	-1.390024	-0.807138
H142	H	1.134310	-0.890024	-0.307138
H143	H	0.627740	-1.396590	-1.106210
H144	H	1.127740	-0.896590	-0.606210
O145	O	0.777457	-1.652751	-0.371881
O146	O	1.277457	-1.152751	0.128119
H147	H	0.748523	-1.710776	-0.313912
H148	H	1.248523	-1.210776	0.186088
