data_functionalizedCrystal
_audit_creation_method	'MofGen! by Chris Wilmer'
_symmetry_space_group_name_H-M	'P1'
_symmetry_Int_Tables_number	1
_symmetry_cell_setting	triclinic
loop_
_symmetry_equiv_pos_as_xyz
  x,y,z
_cell_length_a	12.759401
_cell_length_b	12.759400
_cell_length_c	12.759401
_cell_angle_alpha	90.006511
_cell_angle_beta	90.001294
_cell_angle_gamma	90.013592
loop_
_atom_site_label
_atom_site_type_symbol
_atom_site_fract_x
_atom_site_fract_y
_atom_site_fract_z
Zn1	Zn	1.606087	-0.418441	0.593992
Zn2	Zn	2.106087	0.081559	1.093992
Zn3	Zn	1.606039	-0.594086	0.418316
Zn4	Zn	2.106039	-0.094086	0.918316
Zn5	Zn	1.430442	-0.418423	0.418332
Zn6	Zn	1.930442	0.081577	0.918332
Zn7	Zn	1.430382	-0.594079	0.593957
Zn8	Zn	1.930382	-0.094079	1.093957
O9	O	1.518238	-0.506257	0.506149
O10	O	2.018238	-0.006257	1.006149
O11	O	1.753102	-0.441750	0.570697
O12	O	2.253102	0.058250	1.070697
O13	O	1.582751	-0.570779	0.271297
O14	O	2.082751	-0.070779	0.771297
O15	O	1.453787	-0.271404	0.441655
O16	O	1.953787	0.228596	0.941655
O17	O	1.753066	-0.570796	0.441628
O18	O	2.253066	-0.070796	0.941628
O19	O	1.582832	-0.271417	0.570712
O20	O	2.082832	0.228583	1.070712
O21	O	1.453740	-0.441721	0.271309
O22	O	1.953740	0.058279	0.771309
O23	O	1.283413	-0.441714	0.441620
O24	O	1.783413	0.058286	0.941620
O25	O	1.453685	-0.570785	0.740983
O26	O	1.953685	-0.070785	1.240983
O27	O	1.283369	-0.570768	0.570652
O28	O	1.783369	-0.070768	1.070652
O29	O	1.582774	-0.441744	0.741009
O30	O	2.082774	0.058256	1.241009
O31	O	1.582693	-0.741106	0.441594
O32	O	2.082693	-0.241106	0.941594
O33	O	1.453638	-0.741101	0.570637
O34	O	1.953638	-0.241101	1.070637
C35	C	1.245270	-0.506239	0.506134
C36	C	1.745270	-0.006239	1.006134
C37	C	1.128494	-0.506257	0.506153
C38	C	1.628494	-0.006257	1.006153
C39	C	1.073651	-0.439184	0.573463
C40	C	1.573651	0.060816	1.073463
C41	C	0.963926	-0.439195	0.573470
C42	C	1.463926	0.060805	1.073470
C43	C	0.963898	-0.573360	0.438854
C44	C	1.463898	-0.073360	0.938854
C45	C	1.073620	-0.573343	0.438843
C46	C	1.573620	-0.073343	0.938843
C47	C	1.518182	-0.779225	0.506133
C48	C	2.018182	-0.279225	1.006133
C49	C	1.518255	-0.896001	0.506161
C50	C	2.018255	-0.396001	1.006161
C51	C	1.585415	-0.950790	0.573416
C52	C	2.085415	-0.450790	1.073416
C53	C	1.585464	-1.060514	0.573441
C54	C	2.085464	-0.560514	1.073441
C55	C	1.451189	-1.060651	0.438948
C56	C	1.951189	-0.560651	0.938948
C57	C	1.451136	-0.950929	0.438928
C58	C	1.951136	-0.450929	0.938928
C59	C	1.652534	-0.895863	0.640648
C60	C	2.152534	-0.395863	1.140648
C61	C	1.719701	-0.950652	0.707908
C62	C	2.219701	-0.450652	1.207908
C63	C	1.719750	-1.060376	0.707934
C64	C	2.219750	-0.560376	1.207934
C65	C	1.652632	-1.115311	0.640700
C66	C	2.152632	-0.615311	1.140700
C67	C	1.792271	-0.506276	0.506165
C68	C	2.292271	-0.006276	1.006165
C69	C	1.909047	-0.506284	0.506171
C70	C	2.409047	-0.006284	1.006171
C71	C	1.518228	-0.506266	0.780183
C72	C	2.018228	-0.006266	1.280183
C73	C	1.518224	-0.506269	0.896959
C74	C	2.018224	-0.006269	1.396959
C75	C	1.518322	-0.232224	0.506189
C76	C	2.018322	0.267776	1.006189
C77	C	1.518357	-0.115447	0.506206
C78	C	2.018357	0.384553	1.006206
C79	C	1.451015	-0.573451	0.951809
C80	C	1.951015	-0.073451	1.451809
C81	C	1.451022	-0.573457	1.061533
C82	C	1.951022	-0.073457	1.561533
C83	C	1.585453	-0.439090	1.061547
C84	C	2.085453	0.060910	1.561547
C85	C	1.585449	-0.439090	0.951825
C86	C	2.085449	0.060910	1.451825
C87	C	1.383790	-0.640631	0.896943
C88	C	1.883790	-0.140631	1.396943
C89	C	1.316573	-0.707817	0.951793
C90	C	1.816573	-0.207817	1.451793
C91	C	1.316581	-0.707823	1.061518
C92	C	1.816581	-0.207823	1.561518
C93	C	1.383805	-0.640643	1.116391
C94	C	1.883805	-0.140643	1.616391
C95	C	1.518237	-0.506274	1.233182
C96	C	2.018237	-0.006274	1.733182
C97	C	1.518235	-0.506275	1.116405
C98	C	2.018235	-0.006275	1.616405
H99	H	0.919207	-0.627980	0.384054
H100	H	1.419207	-0.127980	0.884054
C101	C	1.377413	-1.121083	0.364948
C102	C	1.877413	-0.621083	0.864948
N103	N	1.321862	-1.166601	0.309191
N104	N	1.821862	-0.666601	0.809191
C105	C	1.652684	-1.236011	0.640738
C106	C	2.152684	-0.736011	1.140738
N107	N	1.652727	-1.326922	0.640764
N108	N	2.152727	-0.826922	1.140764
H109	H	1.640182	-0.384394	1.106234
H110	H	2.140182	0.115606	1.606234
H111	H	1.261858	-0.762537	1.106174
H112	H	1.761858	-0.262537	1.606174
H113	H	1.383813	-0.640659	1.205736
H114	H	1.883813	-0.140659	1.705736
C115	C	1.377266	-0.890657	0.364934
C116	C	1.877266	-0.390657	0.864934
N117	N	1.321626	-0.845261	0.309199
N118	N	1.821626	-0.345261	0.809199
H119	H	1.383774	-0.640632	0.807600
H120	H	1.883774	-0.140632	1.307600
C121	C	1.133951	-0.647132	0.364793
C122	C	1.633951	-0.147132	0.864793
N123	N	1.179392	-0.702705	0.309019
N124	N	1.679392	-0.202705	0.809019
C125	C	1.659382	-0.365184	0.891487
C126	C	2.159382	0.134816	1.391487
N127	N	1.715071	-0.309519	0.846040
N128	N	2.215071	0.190481	1.346040
C129	C	0.903604	-0.365412	0.647519
C130	C	1.403604	0.134588	1.147519
N131	N	0.858170	-0.309836	0.703296
N132	N	1.358170	0.190164	1.203296
C133	C	1.652483	-0.775164	0.640630
C134	C	2.152483	-0.275164	1.140630
N135	N	1.652443	-0.684254	0.640616
N136	N	2.152443	-0.184254	1.140616
C137	C	1.134007	-0.365378	0.647496
C138	C	1.634007	0.134622	1.147496
N139	N	1.179465	-0.309781	0.703258
N140	N	1.679465	0.190219	1.203258
C141	C	1.793524	-0.890222	0.781864
C142	C	2.293524	-0.390222	1.281864
N143	N	1.849130	-0.844707	0.837568
N144	N	2.349130	-0.344707	1.337568
C145	C	1.242634	-0.781714	0.891430
C146	C	1.742634	-0.281714	1.391430
N147	N	1.186939	-0.837374	0.845966
N148	N	1.686939	-0.337374	1.345966
C149	C	1.793634	-1.120641	0.781919
C150	C	2.293634	-0.620641	1.281919
N151	N	1.849293	-1.166031	0.837641
N152	N	2.349293	-0.666031	1.337641
