data_functionalizedCrystal
_audit_creation_method	'MofGen! by Chris Wilmer'
_symmetry_space_group_name_H-M	'P1'
_symmetry_Int_Tables_number	1
_symmetry_cell_setting	triclinic
loop_
_symmetry_equiv_pos_as_xyz
  x,y,z
_cell_length_a	29.839131
_cell_length_b	13.897449
_cell_length_c	29.839125
_cell_angle_alpha	90.011097
_cell_angle_beta	89.982291
_cell_angle_gamma	89.957300
loop_
_atom_site_label
_atom_site_type_symbol
_atom_site_fract_x
_atom_site_fract_y
_atom_site_fract_z
Zn1	Zn	-0.178901	-1.474452	-0.253995
Zn2	Zn	-0.254013	-1.474306	-0.178865
Zn3	Zn	-0.178900	-1.313168	-0.178878
Zn4	Zn	-0.254006	-1.313056	-0.253967
O5	O	-0.216455	-1.393745	-0.216426
O6	O	-0.188868	-1.609414	-0.244034
O7	O	-0.244051	-1.452917	-0.115999
O8	O	-0.116033	-1.334671	-0.188860
O9	O	-0.244053	-1.609307	-0.188836
O10	O	-0.116034	-1.453165	-0.244048
O11	O	-0.188866	-1.334529	-0.116009
O12	O	-0.188859	-1.178172	-0.188833
O13	O	-0.244041	-1.334479	-0.316838
O14	O	-0.244040	-1.178089	-0.244001
O15	O	-0.188862	-1.453056	-0.316858
O16	O	-0.316879	-1.452808	-0.188810
O17	O	-0.316874	-1.334338	-0.243987
C18	C	-0.216449	-1.143131	-0.216416
C19	C	-0.216457	-1.035917	-0.216422
C20	C	-0.333178	-1.393571	-0.216404
C21	C	-0.383112	-1.393585	-0.216409
C22	C	-0.216451	-1.393772	-0.333605
C23	C	-0.216449	-1.393783	-0.383539
C24	C	-0.692745	-1.455545	-0.187737
C25	C	-0.880418	-1.455664	-0.187755
O26	O	-0.904675	-1.508206	-0.163359
N27	N	-0.903897	-1.393945	-0.216460
C28	C	-0.880455	-1.332197	-0.245165
O29	O	-0.904731	-1.279712	-0.269585
C30	C	-0.692782	-1.332084	-0.245150
C31	C	-0.669306	-1.393799	-0.216439
C32	C	-0.669269	-1.517256	-0.159029
C33	C	-0.622353	-1.517222	-0.159024
C34	C	-0.598914	-1.455477	-0.187726
C35	C	-0.622391	-1.393765	-0.216433
C36	C	-0.669341	-1.270341	-0.273857
C37	C	-0.622420	-1.270320	-0.273851
C38	C	-0.598944	-1.332036	-0.245141
C39	C	-0.552036	-1.331986	-0.245130
N40	N	-0.528557	-1.393704	-0.216424
C41	C	-0.551997	-1.455450	-0.187722
C42	C	-0.978985	-1.332260	-0.245171
C43	C	-1.025903	-1.332287	-0.245174
C44	C	-1.025863	-1.455755	-0.187764
C45	C	-0.978945	-1.455722	-0.187759
C46	C	-0.955506	-1.393978	-0.216465
C47	C	-0.453471	-1.455373	-0.187712
C48	C	-0.406551	-1.455330	-0.187707
C49	C	-0.406595	-1.331866	-0.245119
C50	C	-0.453510	-1.331905	-0.245122
C51	C	-0.476947	-1.393666	-0.216417
O52	O	-0.527751	-1.279479	-0.269516
O53	O	-0.527712	-1.507943	-0.163313
C54	C	-0.739661	-1.455579	-0.187743
C55	C	-0.763137	-1.393868	-0.216451
C56	C	-0.739698	-1.332122	-0.245153
C57	C	-0.810055	-1.393895	-0.216454
C58	C	-0.833494	-1.455640	-0.187752
C59	C	-0.810015	-1.517358	-0.159047
C60	C	-0.763100	-1.517324	-0.159041
C61	C	-0.763177	-1.270404	-0.273858
C62	C	-0.810092	-1.270442	-0.273861
C63	C	-0.833531	-1.332187	-0.245159
C64	C	-0.099277	-1.393947	-0.216458
C65	C	-0.049342	-1.394032	-0.216472
C66	C	-0.216461	-1.645338	-0.216437
C67	C	-0.216464	-1.752552	-0.216441
C68	C	-0.216459	-0.839622	-0.216434
C69	C	-0.216457	-0.948855	-0.216426
C70	C	-0.187642	-1.455591	-0.693196
C71	C	-0.187604	-1.455638	-0.880869
O72	O	-0.163153	-1.508118	-0.905145
N73	N	-0.216329	-1.393911	-0.904324
C74	C	-0.245064	-1.332162	-0.880858
O75	O	-0.269492	-1.279653	-0.905115
C76	C	-0.245099	-1.332110	-0.693186
C77	C	-0.216375	-1.393849	-0.669733
C78	C	-0.158920	-1.517324	-0.669743
C79	C	-0.158932	-1.517315	-0.622828
C80	C	-0.187665	-1.455573	-0.599365
C81	C	-0.216387	-1.393840	-0.622818
C82	C	-0.273832	-1.270357	-0.669721
C83	C	-0.273837	-1.270348	-0.622800
C84	C	-0.245113	-1.332087	-0.599347
C85	C	-0.245132	-1.332089	-0.552440
N86	N	-0.216407	-1.393817	-0.528985
C87	C	-0.187673	-1.455559	-0.552447
C88	C	-0.245044	-1.332195	-0.979389
C89	C	-0.245035	-1.332209	-1.026307
C90	C	-0.187575	-1.455684	-1.026314
C91	C	-0.187585	-1.455675	-0.979396
C92	C	-0.216318	-1.393923	-0.955934
C93	C	-0.187700	-1.455536	-0.453921
C94	C	-0.187716	-1.455525	-0.407002
C95	C	-0.245175	-1.332046	-0.406998
C96	C	-0.245161	-1.332061	-0.453914
C97	C	-0.216420	-1.393809	-0.477374
O98	O	-0.269566	-1.279629	-0.528134
O99	O	-0.163242	-1.508045	-0.528183
C100	C	-0.187630	-1.455599	-0.740111
C101	C	-0.216352	-1.393866	-0.763564
C102	C	-0.245086	-1.332125	-0.740102
C103	C	-0.216344	-1.393880	-0.810482
C104	C	-0.187611	-1.455622	-0.833945
C105	C	-0.158885	-1.517350	-0.810490
C106	C	-0.158897	-1.517341	-0.763574
C107	C	-0.273811	-1.270397	-0.763557
C108	C	-0.273797	-1.270411	-0.810472
C109	C	-0.245064	-1.332153	-0.833935
C110	C	-0.216427	-1.393775	-0.099704
C111	C	-0.216302	-1.393951	-0.049770
H112	H	-0.472547	-1.505667	-0.164339
O113	O	-1.051152	-1.522367	-0.156815
H114	H	-1.072564	-1.479254	-0.133944
H115	H	-0.164325	-1.505803	-0.387909
H116	H	-0.387438	-1.505587	-0.164326
O117	O	-0.276018	-1.265620	-1.051597
H118	H	-0.298878	-1.308749	-1.072970
O119	O	-0.276032	-1.265590	-0.954080
H120	H	-0.255922	-1.216543	-0.932711
H121	H	-0.959833	-1.505977	-0.164380
H122	H	-0.268570	-1.281780	-0.387886
H123	H	-0.135491	-1.567626	-0.829601
H124	H	-0.135519	-1.567601	-0.688842
O125	O	-0.597035	-1.583801	-0.128064
H126	H	-0.621222	-1.626745	-0.108114
O127	O	-1.051223	-1.265717	-0.276137
H128	H	-1.027037	-1.222787	-0.296096
O129	O	-0.953707	-1.265638	-0.276124
H130	H	-0.977920	-1.222719	-0.296076
H131	H	-0.297222	-1.220082	-0.688808
O132	O	-0.694655	-1.203782	-0.304826
H133	H	-0.670467	-1.160859	-0.324785
O134	O	-0.597139	-1.203711	-0.304808
H135	H	-0.621349	-1.160799	-0.324767
H136	H	-0.297231	-1.220051	-0.603700
H137	H	-0.688348	-1.567542	-0.135657
O138	O	-0.276141	-1.265476	-0.479214
H139	H	-0.296122	-1.222539	-0.455014
H140	H	-0.472626	-1.281654	-0.268502
O141	O	-0.835413	-1.203870	-0.304828
H142	H	-0.826384	-1.220366	-0.340091
O143	O	-0.835306	-1.583970	-0.128099
H144	H	-0.856720	-1.540855	-0.105230
O145	O	-0.304789	-1.203769	-0.738253
H146	H	-0.324755	-1.160844	-0.762449
O147	O	-0.156602	-1.522262	-0.954105
H148	H	-0.176713	-1.571304	-0.932730
O149	O	-0.156698	-1.522120	-0.479225
H150	H	-0.176796	-1.571163	-0.500607
O151	O	-0.127915	-1.583927	-0.738281
H152	H	-0.107933	-1.626851	-0.762485
O153	O	-0.381310	-1.265275	-0.276078
H154	H	-0.344742	-1.275635	-0.271252
O155	O	-0.737781	-1.583899	-0.128079
H156	H	-0.761968	-1.626841	-0.108128
H157	H	-0.297192	-1.220138	-0.829564
O158	O	-0.737898	-1.203783	-0.304807
H159	H	-0.762111	-1.160867	-0.324761
O160	O	-0.127949	-1.583899	-0.597534
H161	H	-0.107967	-1.626822	-0.621738
O162	O	-0.156574	-1.522263	-1.051624
H163	H	-0.161392	-1.511884	-1.088188
