data_functionalizedCrystal
_audit_creation_method	'MofGen! by Chris Wilmer'
_symmetry_space_group_name_H-M	'P1'
_symmetry_Int_Tables_number	1
_symmetry_cell_setting	triclinic
loop_
_symmetry_equiv_pos_as_xyz
  x,y,z
_cell_length_a	19.805407
_cell_length_b	12.759399
_cell_length_c	19.805399
_cell_angle_alpha	89.976347
_cell_angle_beta	89.980427
_cell_angle_gamma	90.015116
loop_
_atom_site_label
_atom_site_type_symbol
_atom_site_fract_x
_atom_site_fract_y
_atom_site_fract_z
Zn1	Zn	1.034789	-0.418291	-0.382738
Zn2	Zn	1.034726	-0.593984	-0.269558
Zn3	Zn	0.921603	-0.418320	-0.269563
Zn4	Zn	0.921589	-0.593928	-0.382704
O5	O	0.978177	-0.506131	-0.326141
O6	O	1.129497	-0.441608	-0.367736
O7	O	1.019700	-0.570717	-0.174842
O8	O	0.936650	-0.271295	-0.284592
O9	O	1.129451	-0.570689	-0.284583
O10	O	1.019807	-0.271273	-0.367741
O11	O	0.936589	-0.441657	-0.174845
O12	O	0.826885	-0.441603	-0.284559
O13	O	0.936626	-0.570594	-0.477425
O14	O	0.826875	-0.570622	-0.367684
O15	O	1.019793	-0.441554	-0.477450
O16	O	1.019686	-0.740998	-0.284551
O17	O	0.936565	-0.740957	-0.367679
C18	C	0.802321	-0.506110	-0.326119
C19	C	0.727089	-0.506127	-0.326126
C20	C	0.978135	-0.779098	-0.326125
C21	C	0.978180	-0.895875	-0.326141
C22	C	0.691757	-0.573408	-0.369339
C23	C	0.621069	-0.573410	-0.369348
C24	C	0.585713	-0.506135	-0.326141
C25	C	0.621050	-0.438847	-0.282926
C26	C	0.691737	-0.438840	-0.282920
C27	C	0.335977	-0.438870	-0.282948
C28	C	0.265285	-0.438884	-0.282956
C29	C	0.265308	-0.573440	-0.369376
C30	C	0.335995	-0.573433	-0.369370
C31	C	0.371326	-0.506141	-0.326158
C32	C	0.447974	-0.506139	-0.326149
C33	C	0.509066	-0.506143	-0.326146
C34	C	1.021510	-0.950723	-0.282906
C35	C	1.021554	-1.060447	-0.282928
C36	C	0.934930	-1.060465	-0.369424
C37	C	0.934891	-0.950743	-0.369405
C38	C	1.101446	-1.210321	-0.258846
C39	C	1.144771	-1.265173	-0.215599
C40	C	1.155188	-1.229620	-0.149559
C41	C	1.122271	-1.139217	-0.126751
C42	C	1.078942	-1.084370	-0.169994
C43	C	1.068537	-1.119922	-0.236044
C44	C	0.854997	-0.800867	-0.393480
C45	C	0.811663	-0.746018	-0.436720
C46	C	0.801239	-0.781569	-0.502762
C47	C	0.834144	-0.871976	-0.525567
C48	C	0.877478	-0.926825	-0.482327
C49	C	0.887903	-0.891266	-0.416286
C50	C	1.154720	-0.506152	-0.326163
C51	C	1.229952	-0.506160	-0.326173
C52	C	0.978215	-0.506064	-0.502684
C53	C	0.978231	-0.506036	-0.577916
C54	C	0.978237	-0.232097	-0.326171
C55	C	0.978263	-0.115321	-0.326184
C56	C	1.021537	-0.438842	-0.613274
C57	C	1.021544	-0.438811	-0.683962
C58	C	0.978248	-0.505981	-0.719291
C59	C	0.934937	-0.573179	-0.683928
C60	C	0.934927	-0.573203	-0.613241
C61	C	0.934975	-0.573081	-0.969002
C62	C	0.934990	-0.573054	-1.039694
C63	C	1.021592	-0.438689	-1.039723
C64	C	1.021582	-0.438713	-0.969036
C65	C	0.978269	-0.505906	-0.933679
C66	C	0.978261	-0.505937	-0.857030
C67	C	0.978259	-0.505957	-0.795938
C68	C	0.978178	-0.506121	-0.150285
C69	C	0.978293	-0.505853	-0.075053
H70	H	0.720538	-0.628195	-0.404521
H71	H	0.592304	-0.628198	-0.404536
H72	H	1.056796	-0.384147	-0.584514
H73	H	1.190465	-1.274288	-0.114348
O74	O	1.180280	-1.362671	-0.240196
H75	H	1.165770	-1.378170	-0.293390
H76	H	0.236500	-0.384094	-0.247771
H77	H	1.092975	-1.239270	-0.312623
H78	H	0.364735	-0.384085	-0.247757
O79	O	0.888227	-0.645496	-0.930870
H80	H	0.858115	-0.692184	-0.967314
O81	O	1.068256	-0.366344	-0.722101
H82	H	1.098368	-0.319652	-0.685659
O83	O	0.888228	-1.119642	-0.416073
H84	H	0.895526	-1.205154	-0.408816
H85	H	0.904274	-1.000436	-0.500902
O86	O	0.374125	-0.645987	-0.415980
H87	H	0.429214	-0.634681	-0.408715
O88	O	0.227203	-0.646012	-0.415994
H89	H	0.172110	-0.634709	-0.408749
O90	O	0.822909	-0.910329	-0.596799
H91	H	0.787255	-0.856996	-0.623038
H92	H	0.720504	-0.384048	-0.247735
H93	H	0.592258	-0.384066	-0.247749
H94	H	1.056841	-0.384020	-0.940274
H95	H	1.056760	-0.906052	-0.247679
O96	O	1.043443	-0.986863	-0.145408
H97	H	1.057966	-0.971350	-0.092219
O98	O	1.068292	-0.366181	-1.077856
H99	H	1.061018	-0.377428	-1.132945
O100	O	1.133504	-1.100869	-0.055518
H101	H	1.169169	-1.154188	-0.029283
O102	O	0.754501	-0.722414	-0.549403
H103	H	0.733368	-0.653574	-0.522454
O104	O	0.776171	-0.648503	-0.412128
H105	H	0.790707	-0.632983	-0.358943
O106	O	0.866240	-0.762527	-0.322244
H107	H	0.836069	-0.690458	-0.313647
H108	H	0.899730	-0.627754	-1.068457
O109	O	0.888232	-0.645624	-0.722028
H110	H	0.895517	-0.634325	-0.777122
O111	O	0.888210	-0.645662	-0.575099
H112	H	0.858105	-0.692367	-0.611540
