data_functionalizedCrystal
_audit_creation_method	'MofGen! by Chris Wilmer'
_symmetry_space_group_name_H-M	'P1'
_symmetry_Int_Tables_number	1
_symmetry_cell_setting	triclinic
loop_
_symmetry_equiv_pos_as_xyz
  x,y,z
_cell_length_a	19.851628
_cell_length_b	17.917603
_cell_length_c	17.917603
_cell_angle_alpha	60.138055
_cell_angle_beta	90.002297
_cell_angle_gamma	63.038273
loop_
_atom_site_label
_atom_site_type_symbol
_atom_site_fract_x
_atom_site_fract_y
_atom_site_fract_z
Zr1	Zr	0.687340	0.806943	-0.129104
O2	O	0.590688	0.951964	-0.249634
O3	O	0.712350	0.654718	-0.087454
O4	O	0.724553	0.796572	-0.242864
O5	O	0.574113	0.820803	0.023017
O6	O	0.835403	0.796586	-0.242871
O7	O	0.578485	0.810110	-0.094225
O8	O	0.813574	0.542835	0.035128
O9	O	0.595942	1.074553	-0.254982
O10	O	0.811323	0.720009	-0.075376
O11	O	0.725334	0.727978	0.012125
O12	O	0.739702	0.894993	-0.170849
O13	O	0.653714	0.902963	-0.083347
Zr14	Zr	0.857160	0.824019	0.057872
Zr15	Zr	0.864132	0.806965	-0.129116
Zr16	Zr	0.680367	0.823997	0.057883
Zr17	Zr	0.695720	1.002459	-0.137633
Zr18	Zr	0.848780	0.628503	0.066401
O19	O	0.832149	0.976244	0.016222
O20	O	0.842064	0.951995	-0.249650
O21	O	0.580773	0.976212	0.016238
O22	O	0.953812	0.678998	0.178401
O23	O	0.963726	0.654749	-0.087471
O24	O	0.702436	0.678967	0.178418
O25	O	0.970387	0.810159	-0.094250
O26	O	0.819946	0.834390	0.171631
O27	O	0.709097	0.834376	0.171638
O28	O	0.966015	0.820852	0.022992
O29	O	0.736468	1.074571	-0.254991
O30	O	0.808031	0.556391	0.183758
O31	O	0.948558	0.556408	0.183749
O32	O	0.954100	0.542853	0.035119
O33	O	0.590400	1.088109	-0.106351
O34	O	0.730926	1.088126	-0.106360
O35	O	0.804797	0.735969	0.099616
O36	O	0.890786	0.727999	0.012115
O37	O	0.819165	0.902983	-0.083358
O38	O	0.733177	0.910953	0.004144
C39	C	0.761768	0.570920	-0.024948
C40	C	0.758210	0.487918	-0.021327
C41	C	0.751711	0.335951	-0.014716
C42	C	0.792787	0.295006	-0.056515
C43	C	0.789170	0.210447	-0.052836
C44	C	0.755326	0.420518	-0.018393
C45	C	0.551109	0.815453	-0.035602
C46	C	0.476056	0.815444	-0.035597
C47	C	0.333742	0.720058	0.016447
C48	C	0.267142	0.773078	0.048852
C49	C	0.338627	0.815470	-0.035609
C50	C	0.271491	0.762446	-0.067985
C51	C	0.205879	0.815488	-0.035621
C52	C	0.273012	0.868496	-0.003156
C53	C	0.277374	0.857845	-0.120038
C54	C	0.210764	0.910936	-0.087656
C55	C	0.415100	0.815457	-0.035601
C56	C	0.129403	0.815509	-0.035628
C57	C	0.993390	0.815508	-0.035631
C58	C	1.068443	0.815518	-0.035635
C59	C	0.780972	0.794149	-0.269509
C60	C	0.783932	0.786909	-0.348890
C61	C	0.782732	1.060042	-0.046284
C62	C	0.786289	1.143044	-0.049905
C63	C	0.789356	0.773684	-0.494246
C64	C	0.755146	0.857273	-0.576989
C65	C	0.758164	0.849915	-0.657870
C66	C	0.786339	0.781041	-0.413356
C67	C	0.763528	0.836813	0.198277
C68	C	0.760568	0.844053	0.277658
C69	C	0.982908	0.570947	-0.024962
C70	C	1.054404	0.487955	-0.021346
C71	C	0.753046	0.592252	0.208945
C72	C	0.746528	0.516490	0.291946
C73	C	0.974186	0.592279	0.208930
C74	C	1.042722	0.516527	0.291927
C75	C	0.570313	1.038682	-0.280163
C76	C	0.501778	1.114435	-0.363160
C77	C	0.561591	1.060014	-0.046270
C78	C	0.490096	1.143007	-0.049886
C79	C	0.791453	1.038710	-0.280177
C80	C	0.797971	1.114472	-0.363179
C81	C	1.046500	0.444809	-0.065326
C82	C	1.113672	0.366838	-0.061946
C83	C	1.188746	0.332009	-0.014582
C84	C	1.196649	0.375163	0.029399
C85	C	1.129478	0.453137	0.026013
C86	C	0.784946	0.485083	0.376602
C87	C	0.778820	0.413908	0.454598
C88	C	0.734279	0.374136	0.447936
C89	C	0.695856	0.405550	0.363271
C90	C	0.701979	0.476729	0.285277
C91	C	1.119799	0.476793	0.285229
C92	C	1.184203	0.405625	0.363205
C93	C	1.171527	0.374188	0.447880
C94	C	1.094442	0.413930	0.454577
C95	C	1.030040	0.485101	0.376601
C96	C	0.424701	1.154179	-0.356462
C97	C	0.360298	1.225370	-0.434439
C98	C	0.372974	1.256811	-0.519114
C99	C	0.450059	1.217064	-0.525811
C100	C	0.514460	1.145880	-0.447834
C101	C	0.498000	1.186160	-0.005915
C102	C	0.430830	1.264151	-0.009316
C103	C	0.355756	1.298982	-0.056683
C104	C	0.347853	1.255825	-0.100660
C105	C	0.415023	1.177841	-0.097264
C106	C	0.842518	1.154221	-0.356488
C107	C	0.848657	1.225398	-0.434469
C108	C	0.810245	1.256829	-0.519141
C109	C	0.765696	1.217072	-0.525830
C110	C	0.759562	1.145891	-0.447849
H111	H	0.386454	0.639387	0.060520
H112	H	0.659592	0.373157	0.357860
N113	N	0.713346	0.959387	-0.590368
H114	H	0.669020	0.966204	-0.561604
H115	H	0.690985	1.014087	-0.656874
N116	N	1.080784	0.380005	0.545911
H117	H	1.047993	0.348270	0.554319
H118	H	1.051950	0.440168	0.550266
H119	H	0.830668	0.323461	-0.095064
N120	N	0.283312	1.383079	-0.060324
H121	H	0.234549	1.398599	-0.096999
H122	H	0.287099	1.445364	-0.089110
N123	N	0.260416	0.725641	0.143420
H124	H	0.306228	0.653563	0.182703
H125	H	0.209126	0.726666	0.142562
N126	N	0.660554	0.510580	0.193974
H127	H	0.671187	0.561704	0.145568
H128	H	0.601806	0.542237	0.185660
N129	N	1.133494	0.510686	0.193913
H130	H	1.110743	0.585961	0.157517
H131	H	1.106824	0.494031	0.161595
N132	N	0.896695	1.268282	-0.427240
H133	H	0.894760	1.318143	-0.489484
H134	H	0.953298	1.211732	-0.391650
H135	H	0.460371	1.242673	-0.594763
H136	H	0.967282	0.517444	0.382068
H137	H	0.577218	1.113520	-0.453299
H138	H	0.408576	1.142707	-0.133068
N139	N	0.578968	1.148603	0.045177
H140	H	0.573771	1.187787	0.072508
H141	H	0.612251	1.158352	0.002643
N142	N	0.701534	0.298269	0.036345
H143	H	0.706033	0.242329	0.031764
H144	H	0.644575	0.355592	0.009782
H145	H	0.274325	0.913302	0.024303
N146	N	0.141063	1.017888	-0.145971
H147	H	0.141153	1.057816	-0.121413
H148	H	0.090476	1.017192	-0.146057
N149	N	0.284131	0.905254	-0.214588
H150	H	0.284245	0.865118	-0.238994
H151	H	0.334905	0.905487	-0.213876
H152	H	1.257783	0.346794	0.067961
N153	N	0.883967	1.120317	-0.265171
H154	H	0.873330	1.069190	-0.216776
H155	H	0.863600	1.180501	-0.260854
N156	N	0.277160	1.268228	-0.427213
H157	H	0.270717	1.303572	-0.395660
H158	H	0.266832	1.211675	-0.391698
N159	N	0.269658	0.703049	-0.104255
H160	H	0.315470	0.630982	-0.064877
H161	H	0.273874	0.734406	-0.167649
N162	N	1.267339	0.362768	0.355971
H163	H	1.265589	0.393478	0.290497
H164	H	1.294048	0.287124	0.388343
H165	H	0.320527	1.314775	-0.582601
N166	N	0.439363	1.310687	0.038119
H167	H	0.497115	1.276776	0.068647
H168	H	0.409690	1.301306	0.084628
N169	N	0.831152	0.671575	-0.480866
H170	H	0.827406	0.680734	-0.541387
H171	H	0.805469	0.632841	-0.446100
N172	N	0.411017	1.120272	-0.265140
H173	H	0.352413	1.156263	-0.272742
H174	H	0.437753	1.136845	-0.232794
N175	N	0.266877	1.293382	-0.151729
H176	H	0.225530	1.349323	-0.147193
H177	H	0.256905	1.236000	-0.125131
N178	N	0.965532	0.482363	-0.116413
H179	H	0.970730	0.443192	-0.143759
H180	H	0.939460	0.556460	-0.165739
H181	H	0.815246	1.314790	-0.582631
N182	N	0.724262	1.250983	-0.617157
H183	H	0.744617	1.190858	-0.621566
H184	H	0.734923	1.302129	-0.665480
H185	H	1.107222	0.331712	-0.097761
H186	H	1.243435	0.268516	-0.011831
N187	N	0.711511	1.103023	-0.455072
H188	H	0.688110	1.133742	-0.520546
H189	H	0.667594	1.119239	-0.426715
H190	H	1.135924	0.488258	0.061832
N191	N	0.727693	0.297351	0.532065
H192	H	0.693650	0.276913	0.515006
H193	H	0.702971	0.327824	0.566745
N194	N	0.832991	0.527969	0.383801
H195	H	0.856392	0.497266	0.449270
H196	H	0.797776	0.603611	0.351427
H197	H	1.223975	0.316235	0.511366
N198	N	0.820268	0.380023	0.545910
H199	H	0.799917	0.440163	0.550296
H200	H	0.879021	0.348287	0.554240
