data_functionalizedCrystal
_audit_creation_method	'MofGen! by Chris Wilmer'
_symmetry_space_group_name_H-M	'P1'
_symmetry_Int_Tables_number	1
_symmetry_cell_setting	triclinic
loop_
_symmetry_equiv_pos_as_xyz
  x,y,z
_cell_length_a	14.853567
_cell_length_b	17.699083
_cell_length_c	16.176319
_cell_angle_alpha	90.007696
_cell_angle_beta	89.995559
_cell_angle_gamma	96.541027
loop_
_atom_site_label
_atom_site_type_symbol
_atom_site_fract_x
_atom_site_fract_y
_atom_site_fract_z
O1	O	1.196004	-0.098817	-0.068691
O2	O	0.933502	-0.110588	-0.068706
O3	O	1.072169	0.005467	-0.068691
O4	O	1.057337	-0.214872	-0.068706
O5	O	1.072150	0.005475	0.068802
O6	O	0.933483	-0.110581	0.068788
O7	O	1.195985	-0.098809	0.068802
Cu8	Cu	1.064732	-0.104694	0.081349
Cu9	Cu	1.064755	-0.104703	-0.081253
O10	O	1.057318	-0.214865	0.068787
C11	C	0.899905	-0.110051	0.000039
C12	C	0.799828	-0.108453	0.000034
C13	C	1.071628	0.033670	0.000056
C14	C	1.070034	0.117692	0.000056
N15	N	1.064723	-0.104688	0.195714
C16	C	0.387572	-0.032757	0.000058
C17	C	0.365784	-0.170634	0.000047
C18	C	0.459812	-0.172136	0.000045
C19	C	0.517725	-0.103948	0.000047
C20	C	0.481610	-0.034258	0.000053
C21	C	0.495934	-0.241826	0.000031
C22	C	0.589968	-0.243332	0.000027
C23	C	0.647883	-0.175143	0.000036
C24	C	0.611762	-0.105449	0.000042
C25	C	0.669675	-0.037261	0.000045
C26	C	0.633556	0.032433	0.000057
C27	C	0.539524	0.033931	0.000061
C28	C	0.741915	-0.176641	0.000031
C29	C	0.763712	-0.038762	0.000039
C30	C	1.229582	-0.099347	0.000055
C31	C	1.329659	-0.100945	0.000055
C32	C	1.057859	-0.243067	0.000039
C33	C	1.059453	-0.327089	0.000033
C34	C	1.151429	0.166101	0.000062
C35	C	1.149925	0.245049	0.000054
C36	C	1.067026	0.275585	0.000047
C37	C	0.985625	0.227169	0.000039
C38	C	0.987129	0.148223	0.000041
C39	C	0.979555	0.545548	0.000032
C40	C	0.978057	0.624499	0.000033
C41	C	1.142352	0.642373	0.000046
C42	C	1.143856	0.563428	0.000047
C43	C	1.062455	0.515019	0.000035
C44	C	1.064087	0.429415	0.000041
C45	C	1.065394	0.361187	0.000047
N46	N	1.064771	-0.104704	-0.195618
C47	C	1.126144	-0.053319	0.238985
C48	C	1.126148	-0.053319	0.325532
C49	C	1.064736	-0.104690	0.368807
C50	C	1.003309	-0.156061	0.325530
C51	C	1.003301	-0.156058	0.238984
C52	C	1.003340	-0.156075	0.674558
C53	C	1.003354	-0.156076	0.761110
C54	C	1.126187	-0.053336	0.761106
C55	C	1.126179	-0.053333	0.674560
C56	C	1.064749	-0.104701	0.631291
C57	C	1.064744	-0.104700	0.537447
C58	C	1.064745	-0.104695	0.462649
H59	H	0.680721	0.087952	0.000053
H60	H	0.448775	-0.297341	0.000020
O61	O	1.192413	0.002077	0.372196
H62	H	1.181079	0.061101	0.355591
O63	O	1.230150	0.694590	0.000051
H64	H	1.269812	0.683734	0.056101
O65	O	1.192369	0.002095	0.192305
H66	H	1.262630	-0.007644	0.208899
O67	O	0.937078	-0.211475	0.372205
H68	H	0.894363	-0.247191	0.327574
H69	H	0.910546	0.649358	0.000029
H70	H	1.176189	-0.011504	0.639329
H71	H	0.953342	-0.197911	0.796343
H72	H	0.953285	-0.197886	0.203754
O73	O	1.240844	0.133169	0.000071
H74	H	1.245461	0.097617	-0.055965
O75	O	0.826169	0.034788	0.000049
H76	H	0.897625	0.022039	0.000048
H77	H	0.510108	0.090673	0.000091
H78	H	1.176204	-0.011507	0.796345
O79	O	0.937095	-0.211483	0.627893
H80	H	0.894403	-0.247210	0.672527
O81	O	0.628925	-0.318496	0.000034
H82	H	0.572856	-0.365658	0.000042
H83	H	1.216206	0.284461	0.000061
H84	H	0.358160	0.023987	0.000071
H85	H	1.211361	0.538570	0.000057
O86	O	0.780877	-0.251800	0.000024
H87	H	0.724809	-0.298963	0.000026
O88	O	0.303328	-0.244178	0.000053
H89	H	0.231874	-0.231426	0.000065
O90	O	0.899337	0.096007	0.000046
H91	H	0.859659	0.106869	-0.055992
H92	H	0.913274	0.506142	0.000022
O93	O	0.896207	0.260098	0.000040
H94	H	0.908834	0.323127	0.000052
