data_functionalizedCrystal
_audit_creation_method	'MofGen! by Chris Wilmer'
_symmetry_space_group_name_H-M	'P1'
_symmetry_Int_Tables_number	1
_symmetry_cell_setting	triclinic
loop_
_symmetry_equiv_pos_as_xyz
  x,y,z
_cell_length_a	14.044220
_cell_length_b	19.288864
_cell_length_c	17.766277
_cell_angle_alpha	90.023209
_cell_angle_beta	89.993125
_cell_angle_gamma	91.837439
loop_
_atom_site_label
_atom_site_type_symbol
_atom_site_fract_x
_atom_site_fract_y
_atom_site_fract_z
O1	O	0.118215	-0.928949	-0.062840
O2	O	0.134161	-0.727713	-0.062789
O3	O	-0.011784	-0.825310	-0.062806
O4	O	0.264160	-0.831351	-0.062822
O5	O	-0.011791	-0.825291	0.062383
O6	O	0.134154	-0.727693	0.062400
O7	O	0.118207	-0.928929	0.062349
Cu8	Cu	0.126180	-0.828310	0.073805
Cu9	Cu	0.126189	-0.828332	-0.074245
O10	O	0.264152	-0.831332	0.062366
C11	C	0.133645	-0.701794	-0.000188
C12	C	0.132104	-0.624591	-0.000168
C13	C	-0.047091	-0.822656	-0.000211
C14	C	-0.152283	-0.814768	-0.000208
C15	C	0.118724	-0.954848	-0.000254
C16	C	0.120264	-1.032051	-0.000278
C17	C	-0.344882	-0.800348	-0.000215
C18	C	-0.402755	-0.856291	-0.000231
C19	C	-0.509924	-0.848267	-0.000235
C20	C	-0.237703	-0.808370	-0.000211
C21	C	0.299459	-0.833986	-0.000231
C22	C	0.404651	-0.841874	-0.000239
N23	N	0.126173	-0.828299	0.177935
C24	C	0.217738	-0.585397	-0.000185
C25	C	0.216291	-0.512857	-0.000193
C26	C	0.129205	-0.479514	-0.000200
C27	C	0.043560	-0.518717	-0.000178
C28	C	0.045010	-0.591256	-0.000163
C29	C	0.060749	-0.366860	-0.044080
C30	C	0.059303	-0.294323	-0.044100
C31	C	0.124731	-0.255781	-0.000245
C32	C	0.191621	-0.289785	0.043621
C33	C	0.193071	-0.362323	0.043637
C34	C	0.127624	-0.400858	-0.000216
C35	C	0.208802	-0.137930	-0.000270
C36	C	0.207351	-0.065389	-0.000273
C37	C	0.034617	-0.071251	-0.000266
C38	C	0.036071	-0.143790	-0.000255
C39	C	0.123165	-0.177126	-0.000260
N40	N	0.126188	-0.828348	-0.178375
C41	C	0.061580	-0.871532	0.217315
C42	C	0.061576	-0.871536	0.296116
C43	C	0.126181	-0.828314	0.335536
C44	C	0.190779	-0.785072	0.296147
C45	C	0.190775	-0.785064	0.217347
C46	C	0.212524	-0.824563	0.460370
C47	C	0.212529	-0.824575	0.539169
C48	C	0.126192	-0.828333	0.578582
C49	C	0.039847	-0.832093	0.539187
C50	C	0.039843	-0.832085	0.460387
C51	C	0.126192	-0.828317	0.420982
C52	C	0.061589	-0.871573	0.703407
C53	C	0.061583	-0.871572	0.782211
C54	C	0.190794	-0.785111	0.782240
C55	C	0.190792	-0.785109	0.703438
C56	C	0.126190	-0.828343	0.664027
H57	H	-0.375822	-0.746431	-0.000203
C58	C	0.301553	-0.022275	-0.000292
H59	H	0.353627	-0.052520	-0.000300
H60	H	0.304583	0.006168	0.043358
H61	H	0.304574	0.006120	-0.043959
C62	C	-0.049189	-0.634374	-0.000150
H63	H	-0.035852	-0.682350	-0.000137
H64	H	-0.084912	-0.623713	-0.043805
H65	H	-0.084912	-0.623669	0.043513
H66	H	-0.036290	-0.044104	-0.000318
C67	C	0.307503	-0.820444	0.582497
H68	H	0.358921	-0.818194	0.547740
H69	H	0.312629	-0.860451	0.613211
H70	H	0.309559	-0.780129	0.613261
C71	C	-0.058128	-0.186906	-0.000248
H72	H	-0.110202	-0.156661	-0.000259
H73	H	-0.061158	-0.215303	0.043413
H74	H	-0.061146	-0.215347	-0.043905
H75	H	0.243379	-0.749878	0.328246
C76	C	0.261837	-0.737511	0.174028
H77	H	0.300317	-0.711771	0.208788
H78	H	0.227849	-0.706493	0.143305
H79	H	0.301201	-0.764937	0.143273
C80	C	0.266635	-0.399726	0.091892
H81	H	0.305393	-0.366388	0.118015
H82	H	0.305464	-0.426745	0.060279
H83	H	0.234424	-0.429113	0.127168
H84	H	0.288658	-0.612534	-0.000191
H85	H	0.008979	-0.906775	0.814274
H86	H	0.286027	-0.480939	-0.000205
H87	H	0.244899	-0.258405	0.079333
C88	C	-0.014265	-0.256921	-0.092354
H89	H	-0.005750	-0.208200	-0.086091
H90	H	-0.076725	-0.270924	-0.076927
H91	H	-0.005692	-0.268559	-0.143820
C92	C	-0.052232	-0.482043	-0.000190
H93	H	-0.040831	-0.433228	-0.000210
H94	H	-0.087485	-0.495108	0.043470
H95	H	-0.087473	-0.495161	-0.043848
H96	H	0.279719	-0.165073	-0.000263
C97	C	-0.011220	-0.409249	-0.092331
H98	H	-0.051251	-0.378610	-0.118467
H99	H	-0.048923	-0.438831	-0.060711
H100	H	0.022125	-0.436449	-0.127594
C101	C	-0.009488	-0.919080	0.173966
H102	H	-0.047965	-0.944824	0.208710
H103	H	0.024494	-0.950093	0.143201
H104	H	-0.048856	-0.891649	0.143251
H105	H	-0.371814	-0.910212	-0.000296
C106	C	-0.009477	-0.919096	0.339443
H107	H	-0.047948	-0.944845	0.304685
H108	H	-0.048838	-0.891679	0.370205
H109	H	0.024526	-0.950115	0.370159
H110	H	-0.030462	-0.835145	0.428314
H111	H	-0.030457	-0.835153	0.571275
H112	H	0.243393	-0.749916	0.814335
H113	H	0.008983	-0.906775	0.671317
H114	H	0.243393	-0.749907	0.671373
C115	C	0.307501	-0.820434	0.417023
H116	H	0.358923	-0.818208	0.451769
H117	H	0.309564	-0.780118	0.386302
H118	H	0.312612	-0.860441	0.386264
