data_functionalizedCrystal
_audit_creation_method	'MofGen! by Chris Wilmer'
_symmetry_space_group_name_H-M	'P1'
_symmetry_Int_Tables_number	1
_symmetry_cell_setting	triclinic
loop_
_symmetry_equiv_pos_as_xyz
  x,y,z
_cell_length_a	13.339070
_cell_length_b	14.044220
_cell_length_c	11.804365
_cell_angle_alpha	102.927057
_cell_angle_beta	74.875130
_cell_angle_gamma	104.409086
loop_
_atom_site_label
_atom_site_type_symbol
_atom_site_fract_x
_atom_site_fract_y
_atom_site_fract_z
O1	O	1.405383	0.472644	-0.099085
O2	O	1.105089	0.408756	-0.099076
O3	O	1.250726	0.301532	-0.099069
O4	O	1.259745	0.579868	-0.099093
O5	O	1.212382	0.329720	0.098985
O6	O	1.066744	0.436945	0.098978
O7	O	1.367038	0.500832	0.098969
Cu8	Cu	1.213390	0.471462	0.117057
Cu9	Cu	1.258737	0.438126	-0.117165
O10	O	1.221401	0.608057	0.098961
C11	C	1.047253	0.412058	-0.000048
C12	C	0.932048	0.379890	-0.000044
C13	C	0.589834	0.630011	-0.000084
C14	C	0.698075	0.660237	-0.000092
C15	C	0.756574	0.590153	-0.000079
C16	C	0.706820	0.489838	-0.000060
C17	C	0.598569	0.459607	-0.000062
C18	C	0.765309	0.419749	-0.000057
C19	C	0.715555	0.319434	-0.000038
C20	C	0.607315	0.289209	-0.000040
C21	C	0.548817	0.359293	-0.000052
C22	C	0.873560	0.449980	-0.000055
C23	C	0.882295	0.279576	-0.000034
C24	C	0.774054	0.249350	-0.000026
C25	C	1.227608	0.279274	-0.000041
C26	C	1.215837	0.170953	-0.000039
C27	C	1.194321	-0.027371	-0.000056
C28	C	1.277803	-0.063049	-0.000062
C29	C	1.265832	-0.173403	-0.000071
C30	C	1.206291	0.082993	-0.000047
C31	C	1.424874	0.497530	-0.000062
C32	C	1.540081	0.529697	-0.000074
C33	C	1.244520	0.630314	-0.000069
C34	C	1.256292	0.738634	-0.000078
N35	N	1.181503	0.494911	0.281796
N36	N	1.290631	0.414672	-0.281904
C37	C	1.367201	0.358346	0.655754
C38	C	1.391322	0.340602	0.531094
C39	C	1.338869	0.379178	0.468763
C40	C	1.262292	0.435500	0.531106
C41	C	1.238175	0.453251	0.655778
C42	C	1.209842	0.474083	0.468787
C43	C	1.133265	0.530405	0.531129
C44	C	1.109151	0.548153	0.655790
C45	C	1.161604	0.509578	0.718120
C46	C	1.233960	0.456332	0.344115
C47	C	1.104933	0.551237	0.344138
C48	C	1.080812	0.568980	0.468799
H49	H	0.914058	0.531657	-0.000066
O50	O	1.373881	-0.000767	-0.000100
C51	C	1.557934	0.015072	-0.000002
C52	C	1.449201	-0.055581	0.000005
H53	H	1.618855	-0.029213	0.000109
H54	H	1.583831	0.051580	-0.082899
H55	H	1.551590	0.075179	0.082872
H56	H	1.455459	-0.115742	-0.082813
H57	H	1.423344	-0.092013	0.082957
O58	O	1.138011	0.526870	0.839219
C59	C	1.032648	0.604455	1.018134
C60	C	1.059247	0.584932	0.880991
H61	H	0.968981	0.651417	1.051948
H62	H	1.002293	0.530342	1.052049
H63	H	1.107047	0.646117	1.051936
H64	H	0.984893	0.543301	0.847087
H65	H	1.089645	0.659076	0.847157
O66	O	0.746306	0.757683	-0.000270
C67	C	0.791847	0.897938	-0.102948
C68	C	0.737174	0.787575	-0.102877
H69	H	0.784502	0.922134	-0.185909
H70	H	0.752343	0.945859	-0.020127
H71	H	0.879248	0.907504	-0.102893
H72	H	0.649772	0.777913	-0.102974
H73	H	0.776761	0.739707	-0.185691
O74	O	1.098418	-0.089914	-0.000207
C75	C	0.997595	-0.234909	-0.102835
C76	C	1.106268	-0.164156	-0.102804
H77	H	1.003900	-0.294938	-0.185788
H78	H	0.971783	-0.271501	-0.020006
H79	H	0.936624	-0.190616	-0.102765
H80	H	1.167313	-0.208377	-0.102916
H81	H	1.131990	-0.127561	-0.185625
O82	O	1.006493	0.623711	0.529549
C83	C	0.912118	0.693058	0.721619
C84	C	0.996323	0.631080	0.652969
H85	H	0.903853	0.699018	0.821416
H86	H	0.937358	0.770927	0.697189
H87	H	0.832744	0.655049	0.697060
H88	H	1.075726	0.669002	0.677490
H89	H	0.970994	0.553213	0.677404
H90	H	1.296309	0.410475	0.293367
H91	H	0.733530	0.167670	-0.000021
O92	O	1.362386	0.361808	0.347669
C93	C	1.467834	0.284311	0.168758
C94	C	1.441287	0.303896	0.305902
H95	H	1.531643	0.237506	0.134948
H96	H	1.393504	0.242540	0.134873
H97	H	1.498058	0.358462	0.134924
H98	H	1.411088	0.229793	0.339838
H99	H	1.515643	0.345713	0.339706
O100	O	1.465694	0.285835	0.470723
C101	C	1.591170	0.193626	0.483863
C102	C	1.506945	0.255619	0.552382
H103	H	1.624561	0.169196	0.549855
H104	H	1.553389	0.124975	0.425546
H105	H	1.657969	0.240879	0.425449
H106	H	1.440121	0.208449	0.610861
H107	H	1.544805	0.324275	0.610624
H108	H	0.542197	0.687061	-0.000104
O109	O	1.054076	0.588882	0.283660
C110	C	1.015909	0.736269	0.245562
C111	C	1.073568	0.693772	0.314115
H112	H	1.031629	0.821076	0.270178
H113	H	1.046304	0.713989	0.145737
H114	H	0.927035	0.705188	0.270083
H115	H	1.162449	0.724831	0.289694
H116	H	1.043087	0.716043	0.413922
H117	H	0.844709	0.614769	-0.000088
O118	O	0.939250	0.211557	-0.000179
C119	C	1.086367	0.132148	-0.102810
C120	C	1.021965	0.209218	-0.102774
H121	H	1.153242	0.130217	-0.185761
H122	H	1.121293	0.153834	-0.019979
H123	H	1.032184	0.055276	-0.102749
H124	H	1.076078	0.286117	-0.102876
H125	H	0.987025	0.187447	-0.185597
H126	H	1.409908	0.326949	0.706512
H127	H	0.566811	0.207524	-0.000038
H128	H	0.460677	0.334688	-0.000045
H129	H	1.046806	0.594023	0.706549
