data_functionalizedCrystal
_audit_creation_method	'MofGen! by Chris Wilmer'
_symmetry_space_group_name_H-M	'P1'
_symmetry_Int_Tables_number	1
_symmetry_cell_setting	triclinic
loop_
_symmetry_equiv_pos_as_xyz
  x,y,z
_cell_length_a	14.908783
_cell_length_b	12.645330
_cell_length_c	14.908308
_cell_angle_alpha	93.270006
_cell_angle_beta	89.788727
_cell_angle_gamma	93.303471
loop_
_atom_site_label
_atom_site_type_symbol
_atom_site_fract_x
_atom_site_fract_y
_atom_site_fract_z
Zn1	Zn	1.345358	-0.370780	-0.587849
Zn2	Zn	1.353958	-0.537293	-0.437498
Zn3	Zn	1.203671	-0.369633	-0.428821
Zn4	Zn	1.194986	-0.557593	-0.579121
O5	O	1.274493	-0.458825	-0.508322
O6	O	1.472325	-0.384853	-0.575190
O7	O	1.341256	-0.506077	-0.310524
O8	O	1.222502	-0.221437	-0.449937
O9	O	1.478644	-0.507190	-0.464727
O10	O	1.326598	-0.222279	-0.566775
O11	O	1.230841	-0.382898	-0.304148
O12	O	1.076692	-0.402581	-0.441474
O13	O	1.207699	-0.541787	-0.706103
O14	O	1.070311	-0.540675	-0.551899
O15	O	1.318177	-0.404536	-0.712515
O16	O	1.332834	-0.688334	-0.456264
O17	O	1.216038	-0.703248	-0.560313
C18	C	1.040876	-0.473707	-0.494798
C19	C	0.940932	-0.480101	-0.489034
C20	C	0.746536	-0.364924	-0.593402
C21	C	0.652630	-0.370928	-0.587989
C22	C	0.659212	-0.498107	-0.472790
C23	C	0.753118	-0.492103	-0.478203
C24	C	0.796777	-0.425510	-0.538512
C25	C	0.890685	-0.419513	-0.543929
C26	C	0.897265	-0.546684	-0.428727
C27	C	0.803359	-0.552689	-0.423314
C28	C	1.274450	-0.734256	-0.508304
C29	C	1.274512	-0.852084	-0.508331
C30	C	1.348065	-0.887538	-0.442938
C31	C	1.347919	-1.010091	-0.442681
C32	C	1.181226	-1.024310	-0.477394
C33	C	1.181613	-0.901651	-0.476886
C34	C	1.293499	-0.902421	-0.604845
C35	C	1.295663	-1.024855	-0.604487
C36	C	1.509022	-0.443885	-0.521900
C37	C	1.608965	-0.437518	-0.527686
C38	C	1.261010	-0.475554	-0.742846
C39	C	1.255264	-0.482683	-0.842786
C40	C	1.274560	-0.182317	-0.508362
C41	C	1.274588	-0.064487	-0.508379
C42	C	1.359505	-0.353136	-1.037263
C43	C	1.354109	-0.359831	-1.131165
C44	C	1.239072	-0.502761	-1.124495
C45	C	1.244468	-0.496066	-1.030593
C46	C	1.304687	-0.421253	-0.986980
C47	C	1.310087	-0.414564	-0.893076
C48	C	1.195047	-0.557488	-0.886407
C49	C	1.189651	-0.564183	-0.980310
C50	C	1.287976	-0.442080	-0.274714
C51	C	1.293896	-0.434642	-0.174785
H52	H	1.417313	-1.036762	-0.462675
N53	N	0.793636	-0.293124	-0.658456
H54	H	0.778103	-0.217405	-0.643669
H55	H	0.860732	-0.298613	-0.653522
N56	N	0.598440	-0.305573	-0.647183
H57	H	0.640351	-0.262476	-0.686205
H58	H	0.557092	-0.354246	-0.686490
N59	N	1.159512	-0.859021	-0.383227
H60	H	1.159546	-0.779076	-0.381959
H61	H	1.098209	-0.888997	-0.365328
H62	H	1.359122	-0.353648	-0.857568
H63	H	1.164146	-1.051510	-0.407444
H64	H	0.623650	-0.552310	-0.423680
H65	H	1.360109	-0.868753	-0.632014
N66	N	1.331831	-1.043745	-0.348128
H67	H	1.384566	-1.083154	-0.328039
H68	H	1.324781	-0.978887	-0.306512
N69	N	1.174090	-0.583406	-1.171540
H70	H	1.178980	-0.577293	-1.238656
H71	H	1.188980	-0.657074	-1.155950
H72	H	0.767800	-0.606902	-0.374209
H73	H	0.926230	-0.365291	-0.593037
N74	N	1.332197	-0.841526	-0.348906
H75	H	1.270916	-0.867543	-0.327489
H76	H	1.379780	-0.864691	-0.307390
H77	H	0.938181	-0.596027	-0.384038
H78	H	1.398745	-0.304360	-1.172102
N79	N	1.106930	-0.871451	-0.536855
H80	H	1.073899	-0.937803	-0.563500
H81	H	1.063775	-0.827685	-0.500382
H82	H	1.417667	-0.854623	-0.462755
H83	H	1.125189	-1.060354	-0.523334
H84	H	1.140620	-0.625092	-1.015832
N85	N	1.135923	-0.630970	-0.832175
H86	H	1.148479	-0.615382	-0.766069
H87	H	1.070764	-0.619740	-0.844870
H88	H	1.364343	-1.050791	-0.627755
H89	H	1.245602	-1.062364	-0.656257
N90	N	1.222459	-0.873180	-0.669476
H91	H	1.178184	-0.827555	-0.636449
H92	H	1.251827	-0.832591	-0.719209
H93	H	1.408542	-0.292225	-1.001753
