data_functionalizedCrystal
_audit_creation_method	'MofGen! by Chris Wilmer'
_symmetry_space_group_name_H-M	'P1'
_symmetry_Int_Tables_number	1
_symmetry_cell_setting	triclinic
loop_
_symmetry_equiv_pos_as_xyz
  x,y,z
_cell_length_a	10.489716
_cell_length_b	19.288864
_cell_length_c	17.766277
_cell_angle_alpha	90.023209
_cell_angle_beta	89.991728
_cell_angle_gamma	96.167309
loop_
_atom_site_label
_atom_site_type_symbol
_atom_site_fract_x
_atom_site_fract_y
_atom_site_fract_z
O1	O	-0.159112	0.922412	0.062839
O2	O	-0.180576	0.720295	0.062788
O3	O	0.015860	0.825962	0.062806
O4	O	-0.355548	0.816746	0.062821
O5	O	0.015870	0.825943	-0.062382
O6	O	-0.180566	0.720276	-0.062400
O7	O	-0.159102	0.922394	-0.062349
Cu8	Cu	-0.169833	0.821333	-0.073806
Cu9	Cu	-0.169845	0.821355	0.074244
O10	O	-0.355538	0.816727	-0.062367
C11	C	-0.179880	0.694404	0.000187
C12	C	-0.177807	0.617287	0.000167
C13	C	-0.293067	0.573358	0.000184
C14	C	-0.291119	0.500898	0.000192
C15	C	-0.173905	0.472370	0.000199
C16	C	-0.058630	0.516309	0.000178
C17	C	-0.060581	0.588767	0.000162
C18	C	-0.081765	0.363501	0.044080
C19	C	-0.079819	0.291044	0.044100
C20	C	-0.167882	0.248884	0.000244
C21	C	-0.257914	0.279190	-0.043622
C22	C	-0.259865	0.351648	-0.043638
C23	C	-0.171776	0.393802	0.000216
C24	C	-0.281038	0.126385	0.000269
C25	C	-0.279086	0.053924	0.000272
C26	C	-0.046593	0.069337	0.000266
C27	C	-0.048549	0.141796	0.000255
C28	C	-0.165775	0.170316	0.000260
C29	C	-0.403059	0.817429	0.000229
C30	C	-0.544643	0.819500	0.000237
C31	C	-0.643783	0.754702	0.000210
C32	C	-0.720388	0.788952	0.061937
C33	C	-0.720313	0.788948	-0.061489
C34	C	-0.619384	0.853724	0.062015
C35	C	-0.619304	0.853710	-0.061467
C36	C	-0.695860	0.888008	0.000275
C37	C	0.063382	0.825260	0.000211
C38	C	0.204966	0.823188	0.000209
C39	C	-0.159797	0.948284	0.000253
C40	C	-0.161871	1.025401	0.000278
N41	N	-0.169824	0.821322	-0.177936
C42	C	-0.082884	0.868127	-0.217315
C43	C	-0.082878	0.868131	-0.296117
C44	C	-0.169834	0.821337	-0.335536
C45	C	-0.256780	0.774524	-0.296148
C46	C	-0.256775	0.774516	-0.217348
C47	C	-0.286048	0.812812	-0.460371
C48	C	-0.286055	0.812824	-0.539170
C49	C	-0.169849	0.821356	-0.578583
C50	C	-0.053632	0.829890	-0.539187
C51	C	-0.053627	0.829882	-0.460387
C52	C	-0.169849	0.821340	-0.420982
C53	C	-0.082896	0.868167	-0.703408
C54	C	-0.082889	0.868167	-0.782211
C55	C	-0.256801	0.774562	-0.782241
C56	C	-0.256798	0.774560	-0.703439
C57	C	-0.169847	0.821366	-0.664027
N58	N	-0.169844	0.821371	0.178375
H59	H	-0.372948	0.018157	0.000281
H60	H	-0.764383	0.761574	-0.113680
O61	O	-0.341423	0.729097	-0.334353
C62	C	-0.467634	0.741014	-0.315089
H63	H	-0.467349	0.767779	-0.257860
H64	H	-0.506925	0.775782	-0.359414
C65	C	-0.553159	0.638035	-0.381765
C66	C	-0.552811	0.670904	-0.311472
H67	H	-0.605703	0.594789	-0.379537
H68	H	-0.468129	0.630007	-0.394746
H69	H	-0.585899	0.667015	-0.418696
H70	H	-0.520057	0.641927	-0.274545
H71	H	-0.637837	0.678925	-0.298485
H72	H	-0.012081	0.906238	-0.185228
O73	O	-0.723414	0.955311	0.000452
C74	C	-0.671491	0.989229	0.065615
H75	H	-0.657765	0.948835	0.110894
H76	H	-0.574955	1.019355	0.051490
C77	C	-0.780578	1.089759	0.039098
C78	C	-0.763729	1.040147	0.094713
H79	H	-0.837470	1.121170	0.057046
H80	H	-0.815556	1.066910	-0.004805
H81	H	-0.700124	1.114857	0.027332
H82	H	-0.844179	1.015045	0.106471
H83	H	-0.728766	1.062994	0.138618
H84	H	-0.006515	0.266374	0.079822
H85	H	-0.620383	0.698338	0.000260
O86	O	-0.773012	0.756220	0.124124
C87	C	-0.747028	0.686005	0.123903
H88	H	-0.727250	0.669317	0.063835
H89	H	-0.659527	0.680219	0.160491
C90	C	-0.887853	0.660161	0.229157
C91	C	-0.863572	0.639662	0.155379
H92	H	-0.959739	0.631574	0.248575
H93	H	-0.905356	0.707466	0.229308
H94	H	-0.814927	0.655339	0.259637
H95	H	-0.936491	0.644492	0.124898
H96	H	-0.846083	0.592356	0.155223
O97	O	0.059283	0.838308	-0.577433
C98	C	0.126920	0.903010	-0.558138
H99	H	0.056779	0.939609	-0.536443
H100	H	0.200085	0.894876	-0.512415
C101	C	0.282867	0.890285	-0.654778
C102	C	0.196716	0.935238	-0.628138
H103	H	0.325926	0.910164	-0.697955
H104	H	0.237302	0.846693	-0.667776
H105	H	0.343826	0.883510	-0.616668
H106	H	0.135750	0.942006	-0.666244
H107	H	0.242273	0.978832	-0.615148
H108	H	0.033280	0.624535	0.000149
H109	H	-0.333168	0.376320	-0.079358
O110	O	-0.566985	0.886228	0.124408
C111	C	-0.503913	0.838625	0.167121
H112	H	-0.545852	0.783139	0.153116
H113	H	-0.397215	0.845268	0.153167
C114	C	-0.470987	0.920754	0.268748
C115	C	-0.522505	0.852605	0.251552
H116	H	-0.482448	0.929379	0.320829
H117	H	-0.513475	0.952827	0.239971
H118	H	-0.382075	0.926282	0.257114
H119	H	-0.611417	0.847081	0.263177
H120	H	-0.480031	0.820532	0.280333
O121	O	0.003833	0.404347	0.086759
C122	C	0.083719	0.362064	0.125472
H123	H	0.033058	0.306964	0.130774
H124	H	0.177076	0.360518	0.092957
C125	C	0.175529	0.460071	0.198009
C126	C	0.113302	0.392397	0.204526
H127	H	0.193783	0.478782	0.246772
H128	H	0.121712	0.488558	0.171925
H129	H	0.253319	0.458773	0.170910
H130	H	0.035506	0.393697	0.231616
H131	H	0.167106	0.363910	0.230617
H132	H	-0.012079	0.906247	-0.328185
H133	H	-0.575153	0.881031	-0.113644
O134	O	0.059305	0.838040	-0.422160
C135	C	0.133054	0.783719	-0.441479
H136	H	0.067179	0.737137	-0.463159
H137	H	0.204814	0.802496	-0.487220
C138	C	0.286569	0.819155	-0.344878
C139	C	0.205660	0.761940	-0.371500
H140	H	0.331361	0.805722	-0.301714
H141	H	0.236886	0.855754	-0.331864
H142	H	0.346358	0.834797	-0.383003
H143	H	0.145863	0.746304	-0.333379
H144	H	0.255334	0.725338	-0.384506
O145	O	-0.341095	0.729075	-0.820606
C146	C	-0.272987	0.685882	-0.866201
H147	H	-0.173051	0.713054	-0.878004
H148	H	-0.264557	0.634508	-0.835859
C149	C	-0.467716	0.638021	-0.926558
C150	C	-0.344977	0.671397	-0.941059
H151	H	-0.512124	0.629083	-0.972732
H152	H	-0.513603	0.667119	-0.895837
H153	H	-0.460673	0.595213	-0.901270
H154	H	-0.352021	0.714209	-0.966337
H155	H	-0.299092	0.642307	-0.971785
H156	H	0.036807	0.493077	0.000194
H157	H	-0.012091	0.906278	-0.671317
O158	O	-0.341385	0.729073	-0.665299
C159	C	-0.418114	0.687759	-0.716986
H160	H	-0.419425	0.716246	-0.773142
H161	H	-0.376941	0.635961	-0.725399
C162	C	-0.554166	0.639131	-0.617252
C163	C	-0.555785	0.674122	-0.686222
H164	H	-0.639086	0.630716	-0.598275
H165	H	-0.502470	0.666963	-0.582428
H166	H	-0.519848	0.595970	-0.624272
H167	H	-0.590086	0.717285	-0.679199
H168	H	-0.607490	0.646297	-0.721044
O169	O	-0.399055	0.804498	-0.577319
C170	C	-0.501620	0.796973	-0.525637
H171	H	-0.466426	0.777712	-0.469481
H172	H	-0.540196	0.849478	-0.517220
C173	C	-0.652316	0.767503	-0.625382
C174	C	-0.609092	0.743840	-0.556412
H175	H	-0.718613	0.734731	-0.644366
H176	H	-0.583218	0.772575	-0.660202
H177	H	-0.684454	0.811257	-0.618358
H178	H	-0.576941	0.700091	-0.563438
H179	H	-0.678188	0.738760	-0.521594
H180	H	-0.012085	0.906279	-0.814274
H181	H	-0.327573	0.736401	-0.185285
H182	H	-0.388521	0.596574	0.000190
H183	H	-0.384980	0.465124	0.000204
H184	H	-0.380683	0.805853	-0.428288
H185	H	-0.329623	0.244865	-0.079334
H186	H	-0.376491	0.149607	0.000262
O187	O	0.063380	0.184502	0.000117
C188	C	0.069203	0.226855	-0.064718
H189	H	0.003836	0.200622	-0.110031
H190	H	0.036489	0.279707	-0.050069
C191	C	0.288339	0.269380	-0.038462
C192	C	0.208062	0.237158	-0.094119
H193	H	0.373994	0.275738	-0.056598
H194	H	0.284415	0.240848	0.005219
H195	H	0.261061	0.313420	-0.026260
H196	H	0.235330	0.193116	-0.106314
H197	H	0.211993	0.265682	-0.137804
H198	H	0.048844	0.046110	0.000318
