data_functionalizedCrystal
_audit_creation_method	'MofGen! by Chris Wilmer'
_symmetry_space_group_name_H-M	'P1'
_symmetry_Int_Tables_number	1
_symmetry_cell_setting	triclinic
loop_
_symmetry_equiv_pos_as_xyz
  x,y,z
_cell_length_a	15.995350
_cell_length_b	27.732048
_cell_length_c	15.072220
_cell_angle_alpha	90.007580
_cell_angle_beta	89.998728
_cell_angle_gamma	83.067515
loop_
_atom_site_label
_atom_site_type_symbol
_atom_site_fract_x
_atom_site_fract_y
_atom_site_fract_z
O1	O	1.110177	0.062303	0.073717
O2	O	0.866302	0.069997	0.073737
O3	O	0.995814	-0.004214	0.073709
O4	O	0.980665	0.136514	0.073744
O5	O	0.995807	-0.004214	-0.073856
O6	O	0.866296	0.069997	-0.073828
O7	O	1.110171	0.062304	-0.073848
Zn8	Zn	0.988232	0.066151	-0.097267
Zn9	Zn	0.988241	0.066150	0.097156
O10	O	0.980659	0.136515	-0.073821
C11	C	0.835108	0.069679	-0.000044
C12	C	0.742170	0.068726	-0.000037
C13	C	0.404467	0.065301	-0.000056
C14	C	0.452585	0.012449	-0.000399
C15	C	0.549263	0.013403	-0.000060
C16	C	0.572006	0.067000	-0.000047
C17	C	0.530585	0.093068	0.084223
C18	C	0.433966	0.091740	0.084287
C19	C	0.433606	0.092832	-0.083522
C20	C	0.530552	0.092820	-0.084630
C21	C	0.666691	0.067962	-0.000039
C22	C	0.309782	0.064340	-0.000058
C23	C	0.995493	-0.022222	-0.000076
C24	C	0.994535	-0.075881	-0.000083
C25	C	1.065040	-0.414392	-0.000043
C26	C	1.061487	-0.616067	-0.000030
O27	O	1.125959	-0.647045	0.000004
N28	N	0.984692	-0.635522	-0.000025
C29	C	0.908780	-0.604555	-0.000017
O30	O	0.843380	-0.625730	-0.000003
C31	C	0.912334	-0.402881	-0.000023
C32	C	0.989134	-0.383429	-0.000037
C33	C	1.141834	-0.394940	-0.000056
C34	C	1.142721	-0.344524	-0.000064
C35	C	1.066815	-0.313561	-0.000059
C36	C	0.990021	-0.333013	-0.000045
C37	C	0.836422	-0.371914	-0.000009
C38	C	0.837317	-0.321493	-0.000008
C39	C	0.914117	-0.302041	-0.000023
C40	C	0.915002	-0.251634	-0.000048
N41	N	0.991797	-0.232179	-0.000053
C42	C	1.067703	-0.263142	-0.000059
C43	C	0.906920	-0.710437	-0.000015
C44	C	0.906031	-0.760855	-0.000015
C45	C	1.058739	-0.772364	-0.000027
C46	C	1.059627	-0.721945	-0.000033
C47	C	0.983715	-0.690982	-0.000021
C48	C	1.069561	-0.157265	-0.000076
C49	C	1.070442	-0.106844	-0.000088
C50	C	0.917734	-0.095340	-0.000072
C51	C	0.916853	-0.145756	-0.000065
C52	C	0.992773	-0.176718	-0.000064
O53	O	0.850565	-0.220628	-0.000072
O54	O	1.133094	-0.241958	-0.000053
C55	C	1.064153	-0.464808	-0.000035
C56	C	0.987359	-0.484260	-0.000022
C57	C	0.911452	-0.453297	-0.000016
C58	C	0.986470	-0.534679	-0.000022
C59	C	1.062377	-0.565642	-0.000027
C60	C	1.139172	-0.546187	-0.000032
C61	C	1.140059	-0.495771	-0.000040
C62	C	0.834657	-0.472752	-0.000011
C63	C	0.833776	-0.523168	-0.000004
C64	C	0.909683	-0.554132	-0.000009
C65	C	1.141364	0.062621	-0.000066
C66	C	1.234303	0.063575	-0.000066
C67	C	0.980980	0.154523	-0.000034
C68	C	0.981938	0.208182	-0.000021
N69	N	0.988232	0.066151	-0.229956
N70	N	0.988247	0.066146	0.229845
C71	C	0.988237	0.066149	0.589046
C72	C	1.057461	0.026400	0.551397
C73	C	1.057707	0.026501	0.448572
C74	C	0.988242	0.066147	0.410842
C75	C	1.006444	0.116621	0.448181
C76	C	1.006938	0.116389	0.551039
C77	C	0.900600	0.055879	0.551142
C78	C	0.901203	0.054731	0.448278
C79	C	0.988243	0.066149	0.310129
C80	C	0.988238	0.066151	0.689760
H81	H	0.545411	0.131904	-0.089710
F82	F	1.088987	0.128712	0.414506
H83	H	0.577954	-0.007088	-0.060468
H84	H	0.854317	-0.161595	-0.000078
H85	H	1.200977	-0.571406	-0.000040
H86	H	0.849096	0.084865	0.575491
H87	H	1.070824	0.125421	0.575025
F88	F	0.756519	-0.288543	0.000007
F89	F	1.224463	-0.323828	-0.000060
H90	H	1.203650	-0.420146	-0.000057
F91	F	1.221801	-0.475076	-0.000050
H92	H	0.773883	-0.387743	0.000008
F93	F	0.826118	-0.677489	-0.000002
F94	F	0.428725	-0.015164	-0.079391
F95	F	0.752029	-0.543864	0.000006
H96	H	1.120545	-0.797583	-0.000032
H97	H	1.122759	0.033075	0.423960
H98	H	0.772844	-0.447546	-0.000005
H99	H	0.401216	0.130543	0.088120
F100	F	1.043708	-0.022799	0.583718
H101	H	0.401340	0.131799	-0.084083
F102	F	0.586005	-0.013452	0.079149
F103	F	0.883111	0.006204	0.416363
H104	H	0.544201	0.132444	0.087365
H105	H	1.046998	-0.011014	0.423325
F106	F	0.943949	0.156458	0.583595
F107	F	0.830802	0.090110	0.414719
H108	H	1.122146	0.032876	0.577252
F109	F	1.152186	-0.086146	-0.000103
F110	F	0.567979	0.069402	0.166187
H111	H	0.843493	-0.776688	-0.000019
F112	F	0.407058	0.070247	-0.167011
H113	H	1.122164	-0.706111	-0.000044
H114	H	0.855933	-0.070121	-0.000071
H115	H	0.957329	0.146917	0.423744
F116	F	0.877455	0.008792	0.585041
F117	F	1.150364	-0.190210	-0.000075
H118	H	0.433266	-0.008580	0.059692
H119	H	0.415907	0.072730	0.147272
H120	H	0.558112	0.073790	-0.146972
