data_functionalizedCrystal
_audit_creation_method	'MofGen! by Chris Wilmer'
_symmetry_space_group_name_H-M	'P1'
_symmetry_Int_Tables_number	1
_symmetry_cell_setting	triclinic
loop_
_symmetry_equiv_pos_as_xyz
  x,y,z
_cell_length_a	23.532355
_cell_length_b	22.010155
_cell_length_c	16.109301
_cell_angle_alpha	89.997171
_cell_angle_beta	83.144490
_cell_angle_gamma	90.002586
loop_
_atom_site_label
_atom_site_type_symbol
_atom_site_fract_x
_atom_site_fract_y
_atom_site_fract_z
O1	O	0.755654	0.050444	0.100709
O2	O	1.005654	0.300444	0.350709
O3	O	1.255654	0.550444	0.600709
O4	O	1.505654	0.800444	0.850709
O5	O	0.589841	0.050464	0.115357
O6	O	0.839841	0.300464	0.365357
O7	O	1.089841	0.550464	0.615357
O8	O	1.339841	0.800464	0.865357
O9	O	0.677303	0.050448	-0.013035
O10	O	0.927303	0.300448	0.236965
O11	O	1.177303	0.550448	0.486965
O12	O	1.427303	0.800448	0.736965
O13	O	0.668193	0.050461	0.229101
O14	O	0.918193	0.300461	0.479101
O15	O	1.168193	0.550461	0.729101
O16	O	1.418193	0.800461	0.979101
O17	O	0.677287	-0.050603	-0.013016
O18	O	0.927287	0.199397	0.236984
O19	O	1.177287	0.449397	0.486984
O20	O	1.427287	0.699397	0.736984
O21	O	0.589825	-0.050586	0.115376
O22	O	0.839825	0.199414	0.365376
O23	O	1.089825	0.449414	0.615376
O24	O	1.339825	0.699414	0.865376
O25	O	0.755639	-0.050606	0.100728
O26	O	1.005639	0.199394	0.350728
O27	O	1.255639	0.449394	0.600728
O28	O	1.505639	0.699394	0.850728
Cu29	Cu	0.672730	-0.059823	0.108054
Cu30	Cu	0.922730	0.190177	0.358054
Cu31	Cu	1.172730	0.440177	0.608054
Cu32	Cu	1.422730	0.690177	0.858054
Cu33	Cu	0.672749	0.059681	0.108031
Cu34	Cu	0.922749	0.309681	0.358031
Cu35	Cu	1.172749	0.559681	0.608031
Cu36	Cu	1.422749	0.809681	0.858031
O37	O	0.668177	-0.050589	0.229120
O38	O	0.918177	0.199411	0.479120
O39	O	1.168177	0.449411	0.729120
O40	O	1.418177	0.699411	0.979120
C41	C	0.568615	-0.000059	0.115000
C42	C	0.818615	0.249941	0.365000
C43	C	1.068615	0.499941	0.615000
C44	C	1.318615	0.749941	0.865000
C45	C	0.505392	-0.000051	0.113899
C46	C	0.755392	0.249949	0.363899
C47	C	1.005392	0.499949	0.613899
C48	C	1.255392	0.749949	0.863899
C49	C	0.113344	-0.055160	0.106993
C50	C	0.363344	0.194840	0.356993
C51	C	0.613344	0.444840	0.606993
C52	C	0.863344	0.694840	0.856993
C53	C	0.053941	-0.055162	0.105946
C54	C	0.303941	0.194838	0.355946
C55	C	0.553941	0.444838	0.605946
C56	C	0.803941	0.694838	0.855946
O57	O	0.023213	-0.102007	0.105385
O58	O	0.273213	0.147993	0.355385
O59	O	0.523213	0.397993	0.605385
O60	O	0.773213	0.647993	0.855385
N61	N	0.024239	-0.000080	0.105416
N62	N	0.274239	0.249920	0.355416
N63	N	0.524239	0.499920	0.605416
N64	N	0.774239	0.749920	0.855416
C65	C	0.053945	0.055008	0.105925
C66	C	0.303945	0.305008	0.355925
C67	C	0.553945	0.555008	0.605925
C68	C	0.803945	0.805008	0.855925
O69	O	0.023227	0.101860	0.105377
O70	O	0.273227	0.351860	0.355377
O71	O	0.523227	0.601860	0.605377
O72	O	0.773227	0.851860	0.855377
C73	C	0.113347	0.055010	0.106966
C74	C	0.363347	0.305010	0.356966
C75	C	0.613347	0.555010	0.606966
C76	C	0.863347	0.805010	0.856966
C77	C	0.143045	-0.000076	0.107505
C78	C	0.393045	0.249924	0.357505
C79	C	0.643045	0.499924	0.607505
C80	C	0.893045	0.749924	0.857505
C81	C	0.143042	-0.110241	0.107530
C82	C	0.393042	0.139759	0.357530
C83	C	0.643042	0.389759	0.607530
C84	C	0.893042	0.639759	0.857530
C85	C	0.202441	-0.110239	0.108579
C86	C	0.452441	0.139761	0.358579
C87	C	0.702441	0.389761	0.608579
C88	C	0.952441	0.639761	0.858579
C89	C	0.232142	-0.055155	0.109091
C90	C	0.482142	0.194845	0.359091
C91	C	0.732142	0.444845	0.609091
C92	C	0.982142	0.694845	0.859091
C93	C	0.202444	-0.000073	0.108553
C94	C	0.452444	0.249927	0.358553
C95	C	0.702444	0.499927	0.608553
C96	C	0.952444	0.749927	0.858553
C97	C	0.143052	0.110098	0.107469
C98	C	0.393052	0.360098	0.357469
C99	C	0.643052	0.610098	0.607469
C100	C	0.893052	0.860098	0.857469
C101	C	0.202459	0.110095	0.108510
C102	C	0.452459	0.360095	0.358510
C103	C	0.702459	0.610095	0.608510
C104	C	0.952459	0.860095	0.858510
C105	C	0.232157	0.055009	0.109048
C106	C	0.482157	0.305009	0.359048
C107	C	0.732157	0.555009	0.609048
C108	C	0.982157	0.805009	0.859048
C109	C	0.291544	0.055014	0.110114
C110	C	0.541544	0.305014	0.360114
C111	C	0.791544	0.555014	0.610114
C112	C	1.041544	0.805014	0.860114
N113	N	0.321246	-0.000069	0.110644
N114	N	0.571246	0.249931	0.360644
N115	N	0.821246	0.499931	0.610644
N116	N	1.071246	0.749931	0.860644
C117	C	0.291545	-0.055153	0.110132
C118	C	0.541545	0.194847	0.360132
C119	C	0.791545	0.444847	0.610132
C120	C	1.041545	0.694847	0.860132
C121	C	-0.070805	0.055001	0.103736
C122	C	0.179195	0.305001	0.353736
C123	C	0.429195	0.555001	0.603736
C124	C	0.679195	0.805001	0.853736
C125	C	-0.130207	0.054999	0.102701
C126	C	0.119793	0.304999	0.352701
C127	C	0.369793	0.554999	0.602701
C128	C	0.619793	0.804999	0.852701
C129	C	-0.130206	-0.055171	0.102720
C130	C	0.119794	0.194829	0.352720
C131	C	0.369794	0.444829	0.602720
C132	C	0.619794	0.694829	0.852720
C133	C	-0.070804	-0.055170	0.103762
C134	C	0.179196	0.194830	0.353762
C135	C	0.429196	0.444830	0.603762
C136	C	0.679196	0.694830	0.853762
C137	C	-0.041103	-0.000082	0.104266
C138	C	0.208897	0.249918	0.354266
C139	C	0.458897	0.499918	0.604266
C140	C	0.708897	0.749918	0.854266
C141	C	0.416287	-0.055143	0.112335
C142	C	0.666287	0.194857	0.362335
C143	C	0.916287	0.444857	0.612335
C144	C	1.166287	0.694857	0.862335
C145	C	0.475691	-0.055135	0.113388
C146	C	0.725691	0.194865	0.363388
C147	C	0.975691	0.444865	0.613388
C148	C	1.225691	0.694865	0.863388
C149	C	0.475686	0.055035	0.113364
C150	C	0.725686	0.305035	0.363364
C151	C	0.975686	0.555035	0.613364
C152	C	1.225686	0.805035	0.863364
C153	C	0.416287	0.055028	0.112316
C154	C	0.666287	0.305028	0.362316
C155	C	0.916287	0.555028	0.612316
C156	C	1.166287	0.805028	0.862316
C157	C	0.386589	-0.000066	0.111799
C158	C	0.636589	0.249934	0.361799
C159	C	0.886589	0.499934	0.611799
C160	C	1.136589	0.749934	0.861799
O161	O	0.322311	0.101835	0.110672
O162	O	0.572311	0.351835	0.360672
O163	O	0.822311	0.601835	0.610672
O164	O	1.072311	0.851835	0.860672
O165	O	0.322272	-0.101996	0.110669
O166	O	0.572272	0.148004	0.360669
O167	O	0.822272	0.398004	0.610669
O168	O	1.072272	0.648004	0.860669
N169	N	0.672721	-0.143875	0.108069
N170	N	0.922721	0.106125	0.358069
N171	N	1.172721	0.356125	0.608069
N172	N	1.422721	0.606125	0.858069
C173	C	0.711480	-0.563662	0.051187
C174	C	0.961480	-0.313662	0.301187
C175	C	1.211480	-0.063662	0.551187
C176	C	1.461480	0.186338	0.801187
C177	C	0.711482	-0.627270	0.051181
C178	C	0.961482	-0.377270	0.301181
C179	C	1.211482	-0.127270	0.551181
C180	C	1.461482	0.122730	0.801181
O181	O	0.744413	-0.660167	0.002829
O182	O	0.994413	-0.410167	0.252829
O183	O	1.244413	-0.160167	0.502829
O184	O	1.494413	0.089833	0.752829
N185	N	0.672749	-0.659082	0.108013
N186	N	0.922749	-0.409082	0.358013
N187	N	1.172749	-0.159082	0.608013
N188	N	1.422749	0.090918	0.858013
C189	C	0.634006	-0.627284	0.164850
C190	C	0.884006	-0.377284	0.414850
C191	C	1.134006	-0.127284	0.664850
C192	C	1.384006	0.122716	0.914850
O193	O	0.601061	-0.660184	0.213189
O194	O	0.851061	-0.410184	0.463189
O195	O	1.101061	-0.160184	0.713189
O196	O	1.351061	0.089816	0.963189
C197	C	0.634002	-0.563678	0.164851
C198	C	0.884002	-0.313678	0.414851
C199	C	1.134002	-0.063678	0.664851
C200	C	1.384002	0.186322	0.914851
C201	C	0.672741	-0.531868	0.108020
C202	C	0.922741	-0.281868	0.358020
C203	C	1.172741	-0.031868	0.608020
C204	C	1.422741	0.218132	0.858020
C205	C	0.750216	-0.531852	-0.005640
C206	C	1.000216	-0.281852	0.244360
C207	C	1.250216	-0.031852	0.494360
C208	C	1.500216	0.218148	0.744360
C209	C	0.750214	-0.468249	-0.005633
C210	C	1.000214	-0.218249	0.244367
C211	C	1.250214	0.031751	0.494367
C212	C	1.500214	0.281751	0.744367
C213	C	0.711475	-0.436456	0.051201
C214	C	0.961475	-0.186456	0.301201
C215	C	1.211475	0.063544	0.551201
C216	C	1.461475	0.313544	0.801201
C217	C	0.672739	-0.468265	0.108027
C218	C	0.922739	-0.218265	0.358027
C219	C	1.172739	0.031735	0.608027
C220	C	1.422739	0.281735	0.858027
C221	C	0.595257	-0.531881	0.221682
C222	C	0.845257	-0.281881	0.471682
C223	C	1.095257	-0.031881	0.721682
C224	C	1.345257	0.218119	0.971682
C225	C	0.595255	-0.468270	0.221678
C226	C	0.845255	-0.218270	0.471678
C227	C	1.095255	0.031730	0.721678
C228	C	1.345255	0.281730	0.971678
C229	C	0.633995	-0.436461	0.164848
C230	C	0.883995	-0.186461	0.414848
C231	C	1.133995	0.063539	0.664848
C232	C	1.383995	0.313539	0.914848
C233	C	0.633999	-0.372868	0.164868
C234	C	0.883999	-0.122868	0.414868
C235	C	1.133999	0.127132	0.664868
C236	C	1.383999	0.377132	0.914868
N237	N	0.672732	-0.341055	0.108035
N238	N	0.922732	-0.091055	0.358035
N239	N	1.172732	0.158945	0.608035
N240	N	1.422732	0.408945	0.858035
C241	C	0.711470	-0.372849	0.051202
C242	C	0.961470	-0.122849	0.301202
C243	C	1.211470	0.127151	0.551202
C244	C	1.461470	0.377151	0.801202
C245	C	0.634019	-0.760862	0.164842
C246	C	0.884019	-0.510862	0.414842
C247	C	1.134019	-0.260862	0.664842
C248	C	1.384019	-0.010862	0.914842
C249	C	0.634026	-0.824467	0.164846
C250	C	0.884026	-0.574467	0.414846
C251	C	1.134026	-0.324467	0.664846
C252	C	1.384026	-0.074467	0.914846
C253	C	0.711501	-0.824448	0.051176
C254	C	0.961501	-0.574448	0.301176
C255	C	1.211501	-0.324448	0.551176
C256	C	1.461501	-0.074448	0.801176
C257	C	0.711496	-0.760842	0.051177
C258	C	0.961496	-0.510842	0.301177
C259	C	1.211496	-0.260842	0.551177
C260	C	1.461496	-0.010842	0.801177
C261	C	0.672752	-0.729049	0.108010
C262	C	0.922752	-0.479049	0.358010
C263	C	1.172752	-0.229049	0.608010
C264	C	1.422752	0.020951	0.858010
C265	C	0.711463	-0.239278	0.051221
C266	C	0.961463	0.010722	0.301221
C267	C	1.211463	0.260722	0.551221
C268	C	1.461463	0.510722	0.801221
C269	C	0.711460	-0.175669	0.051236
C270	C	0.961460	0.074331	0.301236
C271	C	1.211460	0.324331	0.551236
C272	C	1.461460	0.574331	0.801236
C273	C	0.633983	-0.175694	0.164902
C274	C	0.883983	0.074306	0.414902
C275	C	1.133983	0.324306	0.664902
C276	C	1.383983	0.574306	0.914902
C277	C	0.633988	-0.239297	0.164891
C278	C	0.883988	0.010703	0.414891
C279	C	1.133988	0.260703	0.664891
C280	C	1.383988	0.510703	0.914891
C281	C	0.672731	-0.271087	0.108044
C282	C	0.922731	-0.021087	0.358044
C283	C	1.172731	0.228913	0.608044
C284	C	1.422731	0.478913	0.858044
O285	O	0.601083	-0.339930	0.213193
O286	O	0.851083	-0.089930	0.463193
O287	O	1.101083	0.160070	0.713193
O288	O	1.351083	0.410070	0.963193
O289	O	0.744406	-0.339941	0.002863
O290	O	0.994406	-0.089941	0.252863
O291	O	1.244406	0.160059	0.502863
O292	O	1.494406	0.410059	0.752863
C293	C	0.776864	-0.000082	0.101084
C294	C	1.026864	0.249918	0.351084
C295	C	1.276864	0.499918	0.601084
C296	C	1.526864	0.749918	0.851084
C297	C	0.840087	-0.000085	0.102185
C298	C	1.090087	0.249915	0.352185
C299	C	1.340087	0.499915	0.602185
C300	C	1.590087	0.749915	0.852185
C301	C	0.676926	-0.000078	-0.043998
C302	C	0.926926	0.249922	0.206002
C303	C	1.176926	0.499922	0.456002
C304	C	1.426926	0.749922	0.706002
C305	C	0.675819	-0.000079	-0.136284
C306	C	0.925819	0.249921	0.113716
C307	C	1.175819	0.499921	0.363716
C308	C	1.425819	0.749921	0.613716
N309	N	0.672763	0.143733	0.108009
N310	N	0.922763	0.393733	0.358009
N311	N	1.172763	0.643733	0.608009
N312	N	1.422763	0.893733	0.858009
C313	C	0.725145	-0.000075	-0.358958
C314	C	0.975145	0.249925	-0.108958
C315	C	1.225145	0.499925	0.141042
C316	C	1.475145	0.749925	0.391042
C317	C	0.724101	-0.000070	-0.445670
C318	C	0.974101	0.249930	-0.195670
C319	C	1.224101	0.499930	0.054330
C320	C	1.474101	0.749930	0.304330
C321	C	0.620331	-0.000060	-0.424951
C322	C	0.870331	0.249940	-0.174951
C323	C	1.120331	0.499940	0.075049
C324	C	1.370331	0.749940	0.325049
C325	C	0.621375	-0.000061	-0.338241
C326	C	0.871375	0.249939	-0.088241
C327	C	1.121375	0.499939	0.161759
C328	C	1.371375	0.749939	0.411759
C329	C	0.673784	-0.000071	-0.305247
C330	C	0.923784	0.249929	-0.055247
C331	C	1.173784	0.499929	0.194753
C332	C	1.423784	0.749929	0.444753
C333	C	0.671695	-0.000065	-0.478669
C334	C	0.921695	0.249935	-0.228669
C335	C	1.171695	0.499935	0.021331
C336	C	1.421695	0.749935	0.271331
C337	C	0.670563	-0.000060	-0.572686
C338	C	0.920563	0.249940	-0.322686
C339	C	1.170563	0.499940	-0.072686
C340	C	1.420563	0.749940	0.177314
C341	C	0.674917	-0.000076	-0.211224
C342	C	0.924917	0.249924	0.038776
C343	C	1.174917	0.499924	0.288776
C344	C	1.424917	0.749924	0.538776
C345	C	0.668554	-0.000063	0.260082
C346	C	0.918554	0.249937	0.510082
C347	C	1.168554	0.499937	0.760082
C348	C	1.418554	0.749937	1.010082
C349	C	0.669660	-0.000058	0.352368
C350	C	0.919660	0.249942	0.602368
C351	C	1.169660	0.499942	0.852368
C352	C	1.419660	0.749942	1.102368
H353	H	-0.046628	-0.100026	0.104201
H354	H	0.203372	0.149974	0.354201
H355	H	0.453372	0.399974	0.604201
H356	H	0.703372	0.649974	0.854201
H357	H	0.743041	-0.734946	0.004900
H358	H	0.993041	-0.484946	0.254900
H359	H	1.243041	-0.234946	0.504900
H360	H	1.493041	0.015054	0.754900
H361	H	0.226638	0.154955	0.108921
H362	H	0.476638	0.404955	0.358921
H363	H	0.726638	0.654955	0.608921
H364	H	0.976638	0.904955	0.858921
Br365	Br	0.551666	-0.000047	-0.265341
Br366	Br	0.801666	0.249953	-0.015341
Br367	Br	1.051666	0.499953	0.234659
Br368	Br	1.301666	0.749953	0.484659
H369	H	0.602487	-0.850362	0.211131
H370	H	0.852487	-0.600362	0.461131
H371	H	1.102487	-0.350362	0.711131
H372	H	1.352487	-0.100362	0.961131
Br373	Br	-0.170506	0.129762	0.101991
Br374	Br	0.079494	0.379762	0.351991
Br375	Br	0.329494	0.629762	0.601991
Br376	Br	0.579494	0.879762	0.851991
Br377	Br	0.764040	-0.132502	-0.025893
Br378	Br	1.014040	0.117498	0.224107
Br379	Br	1.264040	0.367498	0.474107
Br380	Br	1.514040	0.617498	0.724107
H381	H	0.563711	-0.557771	0.267958
H382	H	0.813711	-0.307771	0.517958
H383	H	1.063711	-0.057771	0.767958
H384	H	1.313711	0.192229	1.017958
Br385	Br	0.515992	-0.129900	0.114124
Br386	Br	0.765992	0.120100	0.364124
Br387	Br	1.015992	0.370100	0.614124
Br388	Br	1.265992	0.620100	0.864124
H389	H	0.577661	-0.000052	-0.451826
H390	H	0.827661	0.249948	-0.201826
H391	H	1.077661	0.499948	0.048174
H392	H	1.327661	0.749948	0.298174
Br393	Br	0.542668	-0.425128	0.298810
Br394	Br	0.792668	-0.175128	0.548810
Br395	Br	1.042668	0.074872	0.798810
Br396	Br	1.292668	0.324872	1.048810
Br397	Br	-0.170526	-0.129929	0.102025
Br398	Br	0.079474	0.120071	0.352025
Br399	Br	0.329474	0.370071	0.602025
Br400	Br	0.579474	0.620071	0.852025
H401	H	-0.046627	0.099862	0.104155
H402	H	0.203373	0.349862	0.354155
H403	H	0.453373	0.599862	0.604155
H404	H	0.703373	0.849862	0.854155
Br405	Br	0.581436	-0.717721	0.241985
Br406	Br	0.831436	-0.467721	0.491985
Br407	Br	1.081436	-0.217721	0.741985
Br408	Br	1.331436	0.032279	0.991985
H409	H	0.118883	0.154955	0.107030
H410	H	0.368883	0.404955	0.357030
H411	H	0.618883	0.654955	0.607030
H412	H	0.868883	0.904955	0.857030
Br413	Br	0.375980	0.129788	0.111603
Br414	Br	0.625980	0.379788	0.361603
Br415	Br	0.875980	0.629788	0.611603
Br416	Br	1.125980	0.879788	0.861603
H417	H	0.226617	-0.155095	0.109012
H418	H	0.476617	0.094905	0.359012
H419	H	0.726617	0.344905	0.609012
H420	H	0.976617	0.594905	0.859012
Br421	Br	0.375993	-0.129914	0.111631
Br422	Br	0.625993	0.120086	0.361631
Br423	Br	0.875993	0.370086	0.611631
Br424	Br	1.125993	0.620086	0.861631
H425	H	0.602444	-0.149797	0.211178
H426	H	0.852444	0.100203	0.461178
H427	H	1.102444	0.350203	0.711178
H428	H	1.352444	0.600203	0.961178
H429	H	0.602448	-0.265197	0.211176
H430	H	0.852448	-0.015197	0.461176
H431	H	1.102448	0.234803	0.711176
H432	H	1.352448	0.484803	0.961176
Br433	Br	0.802795	-0.574990	-0.082782
Br434	Br	1.052795	-0.324990	0.167218
Br435	Br	1.302795	-0.074990	0.417218
Br436	Br	1.552795	0.175010	0.667218
Br437	Br	0.516006	0.129788	0.114055
Br438	Br	0.766006	0.379788	0.364055
Br439	Br	1.016006	0.629788	0.614055
Br440	Br	1.266006	0.879788	0.864055
Br441	Br	0.102745	-0.185009	0.106839
Br442	Br	0.352745	0.064991	0.356839
Br443	Br	0.602745	0.314991	0.606839
Br444	Br	0.852745	0.564991	0.856839
Br445	Br	0.764043	-0.282412	-0.025930
Br446	Br	1.014043	-0.032412	0.224070
Br447	Br	1.264043	0.217588	0.474070
Br448	Br	1.514043	0.467588	0.724070
Br449	Br	0.793808	-0.000071	-0.518561
Br450	Br	1.043808	0.249929	-0.268561
Br451	Br	1.293808	0.499929	-0.018561
Br452	Br	1.543808	0.749929	0.231439
H453	H	0.781757	-0.442354	-0.051911
H454	H	1.031757	-0.192354	0.198089
H455	H	1.281757	0.057646	0.448089
H456	H	1.531757	0.307646	0.698089
H457	H	0.743043	-0.850346	0.004898
H458	H	0.993043	-0.600346	0.254898
H459	H	1.243043	-0.350346	0.504898
H460	H	1.493043	-0.100346	0.754898
Br461	Br	0.796271	-0.000090	-0.314182
Br462	Br	1.046271	0.249910	-0.064182
Br463	Br	1.296271	0.499910	0.185818
Br464	Br	1.546271	0.749910	0.435818
