data_functionalizedCrystal
_audit_creation_method	'MofGen! by Chris Wilmer'
_symmetry_space_group_name_H-M	'P1'
_symmetry_Int_Tables_number	1
_symmetry_cell_setting	triclinic
loop_
_symmetry_equiv_pos_as_xyz
  x,y,z
_cell_length_a	18.215399
_cell_length_b	12.759401
_cell_length_c	12.759400
_cell_angle_alpha	90.014845
_cell_angle_beta	90.024546
_cell_angle_gamma	90.016498
loop_
_atom_site_label
_atom_site_type_symbol
_atom_site_fract_x
_atom_site_fract_y
_atom_site_fract_z
Zn1	Zn	-0.416068	-1.606235	0.418273
Zn2	Zn	0.083932	-1.106235	0.918273
Zn3	Zn	-0.293009	-1.606135	0.593970
Zn4	Zn	0.206991	-1.106135	1.093970
Zn5	Zn	-0.293022	-1.430543	0.418306
Zn6	Zn	0.206978	-0.930543	0.918306
Zn7	Zn	-0.416041	-1.430525	0.593911
Zn8	Zn	0.083959	-0.930525	1.093911
O9	O	-0.354535	-1.518360	0.506115
O10	O	0.145465	-1.018360	1.006115
O11	O	-0.399749	-1.753243	0.441590
O12	O	0.100251	-1.253243	0.941590
O13	O	-0.190026	-1.582808	0.570707
O14	O	0.309974	-1.082808	1.070707
O15	O	-0.309361	-1.453898	0.271281
O16	O	0.190639	-0.953898	0.771281
O17	O	-0.309338	-1.753169	0.570674
O18	O	0.190662	-1.253169	1.070674
O19	O	-0.399762	-1.582978	0.271256
O20	O	0.100238	-1.082978	0.771256
O21	O	-0.190036	-1.453801	0.441647
O22	O	0.309964	-0.953801	0.941647
O23	O	-0.309335	-1.283520	0.441590
O24	O	0.190665	-0.783520	0.941590
O25	O	-0.519029	-1.453868	0.570573
O26	O	-0.019029	-0.953868	1.070573
O27	O	-0.399717	-1.283507	0.570605
O28	O	0.100283	-0.783507	1.070605
O29	O	-0.519049	-1.582961	0.441532
O30	O	-0.019049	-1.082961	0.941532
O31	O	-0.309312	-1.582791	0.740983
O32	O	0.190688	-1.082791	1.240983
O33	O	-0.399704	-1.453772	0.740939
O34	O	0.100296	-0.953772	1.240939
C35	C	-0.354525	-1.245392	0.506095
C36	C	0.145475	-0.745392	1.006095
C37	C	-0.354538	-1.128616	0.506112
C38	C	0.145462	-0.628616	1.006112
C39	C	-0.354520	-1.518297	0.779082
C40	C	0.145480	-1.018297	1.279082
C41	C	-0.354538	-1.518367	0.895859
C42	C	0.145462	-1.018367	1.395859
C43	C	-0.546488	-1.518424	0.506042
C44	C	-0.046488	-1.018424	1.006042
C45	C	-0.628287	-1.518451	0.506012
C46	C	-0.128287	-1.018451	1.006012
C47	C	-0.816492	-1.585694	0.438757
C48	C	-0.316492	-1.085694	0.938757
C49	C	-0.893351	-1.585706	0.438727
C50	C	-0.393351	-1.085706	0.938727
C51	C	-0.893319	-1.451282	0.573103
C52	C	-0.393319	-0.951282	1.073103
C53	C	-0.816462	-1.451265	0.573128
C54	C	-0.316462	-0.951265	1.073128
C55	C	-0.778050	-1.518477	0.505956
C56	C	-0.278050	-1.018477	1.005956
C57	C	-0.931767	-1.518506	0.505901
C58	C	-0.431767	-1.018506	1.005901
C59	C	-1.015100	-1.518520	0.505869
C60	C	-0.515100	-1.018520	1.005869
C61	C	-0.694711	-1.518463	0.505987
C62	C	-0.194711	-1.018463	1.005987
C63	C	-0.163329	-1.518356	0.506111
C64	C	0.336671	-1.018356	1.006111
C65	C	-0.081530	-1.518533	0.505846
C66	C	0.418470	-1.018533	1.005846
C67	C	-0.354545	-1.792393	0.506135
C68	C	0.145455	-1.292393	1.006135
C69	C	-0.354550	-1.909169	0.506144
C70	C	0.145450	-1.409169	1.006144
C71	C	-0.401522	-1.073774	0.573399
C72	C	0.098478	-0.573774	1.073399
C73	C	-0.401530	-0.964050	0.573412
C74	C	0.098470	-0.464050	1.073412
C75	C	-0.307564	-0.964018	0.438850
C76	C	0.192436	-0.464018	0.938850
C77	C	-0.307560	-1.073740	0.438832
C78	C	0.192440	-0.573740	0.938832
C79	C	-0.455770	-1.073792	0.651090
C80	C	0.044230	-0.573792	1.151090
C81	C	-0.455778	-0.964068	0.651103
C82	C	0.044222	-0.464068	1.151103
C83	C	-0.354566	-1.518451	0.232081
C84	C	0.145434	-1.018451	0.732081
C85	C	-0.354580	-1.518490	0.115305
C86	C	0.145420	-1.018490	0.615305
C87	C	-0.307523	-1.585622	0.950709
C88	C	0.192477	-1.085622	1.450709
C89	C	-0.307546	-1.585686	1.060433
C90	C	0.192454	-1.085686	1.560433
C91	C	-0.401600	-1.451232	1.060447
C92	C	0.098400	-0.951232	1.560447
C93	C	-0.401580	-1.451173	0.950725
C94	C	0.098420	-0.951173	1.450725
C95	C	-0.253219	-1.663245	0.950701
C96	C	0.246781	-1.163245	1.450701
C97	C	-0.253242	-1.663310	1.060425
C98	C	0.246758	-1.163310	1.560425
H99	H	-0.785220	-1.640419	0.384059
H100	H	-0.285220	-1.140419	0.884059
H101	H	-0.924647	-1.640439	0.384005
H102	H	-0.424647	-1.140439	0.884005
H103	H	-0.196237	-1.641575	1.090277
H104	H	0.303763	-1.141575	1.590277
Br105	Br	-0.550809	-1.123480	0.614945
Br106	Br	-0.050809	-0.623480	1.114945
H107	H	-0.924603	-1.396563	0.627794
H108	H	-0.424603	-0.896563	1.127794
H109	H	-0.785162	-1.396522	0.627848
H110	H	-0.285162	-0.896522	1.127848
H111	H	-0.269317	-0.919326	0.384072
H112	H	0.230683	-0.419326	0.884072
H113	H	-0.435257	-1.107807	0.728339
H114	H	0.064743	-0.607807	1.228339
Br115	Br	-0.546081	-0.907386	0.602708
Br116	Br	-0.046081	-0.407386	1.102708
Br117	Br	-0.243811	-1.148166	0.347488
Br118	Br	0.256189	-0.648166	0.847488
H119	H	-0.440415	-0.934273	0.732450
H120	H	0.059585	-0.434273	1.232450
H121	H	-0.273704	-1.740613	1.094373
H122	H	0.226296	-1.240613	1.594373
Br123	Br	-0.465402	-1.359915	0.876288
Br124	Br	0.034598	-0.859915	1.376288
Br125	Br	-0.465442	-1.360048	1.134915
Br126	Br	0.034558	-0.860048	1.634915
Br127	Br	-0.278729	-1.798817	0.900930
Br128	Br	0.221271	-1.298817	1.400930
Br129	Br	-0.162952	-1.614676	0.894093
Br130	Br	0.337048	-1.114676	1.394093
