data_functionalizedCrystal
_audit_creation_method	'MofGen! by Chris Wilmer'
_symmetry_space_group_name_H-M	'P1'
_symmetry_Int_Tables_number	1
_symmetry_cell_setting	triclinic
loop_
_symmetry_equiv_pos_as_xyz
  x,y,z
_cell_length_a	9.065215
_cell_length_b	22.010155
_cell_length_c	9.065218
_cell_angle_alpha	89.993828
_cell_angle_beta	85.015291
_cell_angle_gamma	90.008042
loop_
_atom_site_label
_atom_site_type_symbol
_atom_site_fract_x
_atom_site_fract_y
_atom_site_fract_z
O1	O	1.960414	0.050515	0.216316
O2	O	1.531129	0.050518	0.234067
O3	O	1.754645	0.050515	0.010549
O4	O	1.736899	0.050518	0.439834
O5	O	1.754604	-0.050535	0.010582
O6	O	1.531088	-0.050532	0.234100
O7	O	1.960374	-0.050535	0.216350
Cu8	Cu	1.745727	-0.059760	0.225228
Cu9	Cu	1.745775	0.059743	0.225189
O10	O	1.736858	-0.050532	0.439867
C11	C	1.476122	-0.000007	0.232379
C12	C	1.312279	-0.000006	0.227281
N13	N	1.745704	-0.143813	0.225255
C14	C	1.844754	-0.563593	0.126229
C15	C	1.844761	-0.627201	0.126219
O16	O	1.928918	-0.660093	0.042042
N17	N	1.745774	-0.659020	0.225158
C18	C	1.646764	-0.627228	0.324103
O19	O	1.562568	-0.660133	0.408256
C20	C	1.646751	-0.563622	0.324104
C21	C	1.745755	-0.531806	0.225169
C22	C	1.943749	-0.531778	0.027301
C23	C	1.943744	-0.468174	0.027313
C24	C	1.844744	-0.436387	0.126254
C25	C	1.745750	-0.468203	0.225182
C26	C	1.547735	-0.531831	0.423041
C27	C	1.547730	-0.468220	0.423033
C28	C	1.646734	-0.436404	0.324098
C29	C	1.646745	-0.372812	0.324134
N30	N	1.745732	-0.340993	0.225196
C31	C	1.844731	-0.372781	0.126255
C32	C	1.646796	-0.760806	0.324090
C33	C	1.646815	-0.824411	0.324096
C34	C	1.844811	-0.824380	0.126211
C35	C	1.844798	-0.760773	0.126212
C36	C	1.745783	-0.728987	0.225151
C37	C	1.844714	-0.239209	0.126290
C38	C	1.844704	-0.175600	0.126315
C39	C	1.646704	-0.175637	0.324195
C40	C	1.646718	-0.239241	0.324175
C41	C	1.745729	-0.271025	0.225211
O42	O	1.562627	-0.339879	0.408264
O43	O	1.928900	-0.339868	0.042103
C44	C	2.015381	-0.000009	0.218038
C45	C	2.179224	-0.000006	0.223136
C46	C	1.752919	-0.000009	-0.044421
C47	C	1.747819	-0.000006	-0.208264
N48	N	1.745810	0.143796	0.225150
C49	C	1.738584	-0.000007	0.494837
C50	C	1.743683	-0.000006	0.658680
H51	H	1.925330	-0.149698	0.045750
H52	H	1.566115	-0.265146	0.404751
H53	H	1.566213	-0.850311	0.404674
H54	H	1.566171	-0.734929	0.404670
Cl55	Cl	1.969261	-0.720783	0.001829
H56	H	1.925335	-0.265081	0.045702
H57	H	1.925420	-0.850273	0.045646
Cl58	Cl	1.423243	-0.428265	0.547420
H59	H	2.024356	-0.442274	-0.053252
Cl60	Cl	1.423264	-0.571815	0.547418
H61	H	2.024366	-0.557653	-0.053275
Cl62	Cl	1.522253	-0.135666	0.448573
