data_functionalizedCrystal
_audit_creation_method	'MofGen! by Chris Wilmer'
_symmetry_space_group_name_H-M	'P1'
_symmetry_Int_Tables_number	1
_symmetry_cell_setting	triclinic
loop_
_symmetry_equiv_pos_as_xyz
  x,y,z
_cell_length_a	13.897449
_cell_length_b	18.050590
_cell_length_c	13.897441
_cell_angle_alpha	89.966994
_cell_angle_beta	89.976606
_cell_angle_gamma	90.019379
loop_
_atom_site_label
_atom_site_type_symbol
_atom_site_fract_x
_atom_site_fract_y
_atom_site_fract_z
Zn1	Zn	1.474697	-0.295619	-0.545434
Zn2	Zn	1.474588	-0.419824	-0.384128
Zn3	Zn	1.313386	-0.295654	-0.384144
Zn4	Zn	1.313365	-0.419774	-0.545373
O5	O	1.394009	-0.357718	-0.464770
O6	O	1.609664	-0.312102	-0.524054
O7	O	1.453168	-0.403387	-0.249149
O8	O	1.334838	-0.191725	-0.405572
O9	O	1.609584	-0.403354	-0.405544
O10	O	1.453353	-0.191699	-0.524070
O11	O	1.334733	-0.312160	-0.249161
O12	O	1.178402	-0.312112	-0.405513
O13	O	1.334803	-0.403269	-0.680363
O14	O	1.178386	-0.403303	-0.523967
O15	O	1.453333	-0.312053	-0.680407
O16	O	1.453148	-0.523742	-0.405486
O17	O	1.334698	-0.523705	-0.523952
C18	C	1.143395	-0.357706	-0.464736
C19	C	1.036181	-0.357719	-0.464745
C20	C	0.949111	-0.357722	-0.464761
C21	C	0.839879	-0.357727	-0.464790
C22	C	1.393935	-0.550670	-0.464731
C23	C	1.393992	-0.633216	-0.464747
C24	C	1.458539	-0.832659	-0.400415
C25	C	1.482104	-0.881986	-0.488452
C26	C	1.394046	-0.784346	-0.464786
C27	C	1.370579	-0.882101	-0.376789
C28	C	1.394101	-0.930331	-0.464815
C29	C	1.417657	-0.832585	-0.552868
C30	C	1.306091	-0.832696	-0.441146
C31	C	1.329623	-0.882000	-0.529243
C32	C	1.394017	-0.700248	-0.464767
C33	C	1.394130	-1.014427	-0.464843
C34	C	1.645602	-0.357730	-0.464804
C35	C	1.752816	-0.357735	-0.464819
C36	C	1.394078	-0.357652	-0.716363
C37	C	1.394107	-0.357624	-0.823577
C38	C	1.394110	-0.164012	-0.464830
C39	C	1.394153	-0.081466	-0.464855
C40	C	1.394133	-0.357574	-1.019872
C41	C	1.394115	-0.357604	-0.910640
C42	C	1.393996	-0.357729	-0.214156
C43	C	1.394154	-0.357548	-0.106942
H44	H	1.556510	-0.903639	-0.508465
O45	O	1.441499	-0.806631	-0.641621
C46	C	1.468159	-0.699229	-0.741191
C47	C	1.441164	-0.728523	-0.640632
H48	H	1.467877	-0.636076	-0.740430
H49	H	1.542952	-0.719917	-0.761502
H50	H	1.413562	-0.720016	-0.796109
H51	H	1.495696	-0.707748	-0.585647
H52	H	1.366347	-0.707841	-0.620403
H53	H	1.513096	-0.810993	-0.346035
H54	H	1.275107	-0.903529	-0.583755
O55	O	1.217381	-0.806872	-0.417074
C56	C	1.092290	-0.802797	-0.297077
C57	C	1.192770	-0.832079	-0.324221
H58	H	1.072352	-0.823178	-0.222013
H59	H	1.092931	-0.739644	-0.297926
H60	H	1.037166	-0.823936	-0.351239
H61	H	1.247950	-0.810996	-0.270086
H62	H	1.192049	-0.895231	-0.323403
O63	O	1.346977	-0.907958	-0.287924
C64	C	1.388325	-0.912247	-0.119643
C65	C	1.415141	-0.882903	-0.220225
H66	H	1.443432	-0.892014	-0.064884
H67	H	1.313874	-0.891105	-0.098872
H68	H	1.387850	-0.975397	-0.120727
H69	H	1.415672	-0.819755	-0.219217
H70	H	1.489575	-0.904101	-0.240956
