data_functionalizedCrystal
_audit_creation_method	'MofGen! by Chris Wilmer'
_symmetry_space_group_name_H-M	'P1'
_symmetry_Int_Tables_number	1
_symmetry_cell_setting	triclinic
loop_
_symmetry_equiv_pos_as_xyz
  x,y,z
_cell_length_a	12.759401
_cell_length_b	12.759400
_cell_length_c	17.077396
_cell_angle_alpha	89.974414
_cell_angle_beta	89.980900
_cell_angle_gamma	90.014632
loop_
_atom_site_label
_atom_site_type_symbol
_atom_site_fract_x
_atom_site_fract_y
_atom_site_fract_z
Zn1	Zn	1.606234	-0.418268	-0.443850
Zn2	Zn	1.606135	-0.593968	-0.312591
Zn3	Zn	1.430542	-0.418304	-0.312599
Zn4	Zn	1.430525	-0.593905	-0.443815
O5	O	1.518359	-0.506111	-0.378214
O6	O	1.753242	-0.441586	-0.426449
O7	O	1.582808	-0.570708	-0.202745
O8	O	1.453897	-0.271278	-0.330028
O9	O	1.753169	-0.570673	-0.330014
O10	O	1.582977	-0.271252	-0.426457
O11	O	1.453801	-0.441648	-0.202751
O12	O	1.283519	-0.441586	-0.329994
O13	O	1.453867	-0.570565	-0.553667
O14	O	1.283506	-0.570600	-0.426398
O15	O	1.582960	-0.441525	-0.553692
O16	O	1.582791	-0.740981	-0.329980
O17	O	1.453771	-0.740935	-0.426390
C18	C	1.245391	-0.506091	-0.378194
C19	C	1.128615	-0.506107	-0.378203
C20	C	0.963981	-0.573239	-0.327949
C21	C	1.073705	-0.573219	-0.327927
C22	C	1.073795	-0.439003	-0.428500
C23	C	0.964073	-0.439018	-0.428518
C24	C	0.963930	-0.650731	-0.269886
C25	C	1.073654	-0.650711	-0.269864
C26	C	1.518296	-0.779079	-0.378197
C27	C	1.518366	-0.895855	-0.378217
C28	C	1.585621	-0.950707	-0.328071
C29	C	1.585686	-1.060431	-0.328096
C30	C	1.451231	-1.060442	-0.428412
C31	C	1.451172	-0.950720	-0.428392
C32	C	1.663245	-0.950701	-0.270152
C33	C	1.663309	-1.060425	-0.270176
C34	C	1.792392	-0.506132	-0.378235
C35	C	1.909169	-0.506141	-0.378243
C36	C	1.518422	-0.506034	-0.582958
C37	C	1.518449	-0.506001	-0.670208
C38	C	1.518450	-0.232078	-0.378247
C39	C	1.518489	-0.115301	-0.378262
C40	C	1.585671	-0.438804	-0.711213
C41	C	1.585683	-0.438769	-0.793193
C42	C	1.518479	-0.505937	-0.834167
C43	C	1.451251	-0.573137	-0.793157
C44	C	1.451234	-0.573166	-0.711178
C45	C	1.451293	-0.573073	-0.964027
C46	C	1.451311	-0.573046	-1.046012
C47	C	1.585743	-0.438677	-1.046042
C48	C	1.585725	-0.438706	-0.964063
C49	C	1.518498	-0.505907	-0.923059
C50	C	1.518356	-0.506113	-0.174266
C51	C	1.518532	-0.505850	-0.087017
H52	H	0.919449	-0.384373	-0.469466
H53	H	1.107644	-0.621467	-0.212142
H54	H	1.396533	-0.627780	-0.930644
H55	H	1.118511	-0.384352	-0.469431
H56	H	1.396528	-0.627822	-0.826525
H57	H	1.103435	-0.732104	-0.286041
H58	H	1.396417	-0.906061	-0.469231
H59	H	0.934112	-0.628842	-0.209123
H60	H	0.929904	-0.728065	-0.291570
H61	H	1.396525	-1.105127	-0.469264
H62	H	1.740612	-1.094373	-0.292004
H63	H	1.396586	-0.627738	-1.079371
H64	H	1.641575	-1.090278	-0.209372
H65	H	1.640399	-0.384111	-0.677857
H66	H	1.640455	-0.384018	-0.930704
H67	H	1.744587	-0.920845	-0.286481
H68	H	1.634122	-0.916745	-0.212377
H69	H	1.396485	-0.627873	-0.677793
H70	H	1.640424	-0.384053	-0.826576
H71	H	1.640480	-0.383958	-1.079432
