data_functionalizedCrystal
_audit_creation_method	'MofGen! by Chris Wilmer'
_symmetry_space_group_name_H-M	'P1'
_symmetry_Int_Tables_number	1
_symmetry_cell_setting	triclinic
loop_
_symmetry_equiv_pos_as_xyz
  x,y,z
_cell_length_a	27.440280
_cell_length_b	14.560438
_cell_length_c	27.440280
_cell_angle_alpha	60.006082
_cell_angle_beta	90.008670
_cell_angle_gamma	59.997888
loop_
_atom_site_label
_atom_site_type_symbol
_atom_site_fract_x
_atom_site_fract_y
_atom_site_fract_z
Zr1	Zr	0.469514	1.005100	-0.063820
O2	O	0.391689	1.196717	-0.141633
O3	O	0.493369	0.813505	-0.039976
O4	O	0.493359	1.005109	-0.141635
O5	O	0.391709	1.005097	0.040228
O6	O	0.573562	1.005092	-0.141625
O7	O	0.391698	1.005113	-0.039974
O8	O	0.573579	0.662347	0.040224
O9	O	0.391692	1.347842	-0.141621
O10	O	0.563401	0.892289	-0.029787
O11	O	0.503554	0.892291	0.030059
O12	O	0.503543	1.117880	-0.089631
O13	O	0.443697	1.117882	-0.029784
Zr14	Zr	0.597446	1.005047	0.064110
Zr15	Zr	0.597428	1.005072	-0.063804
Zr16	Zr	0.469531	1.005076	0.064094
Zr17	Zr	0.469519	1.246127	-0.063801
Zr18	Zr	0.597440	0.764020	0.064091
O19	O	0.573591	1.196642	0.040266
O20	O	0.573566	1.196676	-0.141610
O21	O	0.391713	1.196682	0.040243
O22	O	0.675271	0.813431	0.141923
O23	O	0.675246	0.813465	-0.039953
O24	O	0.493394	0.813471	0.141900
O25	O	0.675251	1.005050	-0.039938
O26	O	0.573600	1.005038	0.141925
O27	O	0.493398	1.005056	0.141915
O28	O	0.675261	1.005035	0.040264
O29	O	0.493367	1.347820	-0.141608
O30	O	0.573593	0.662328	0.141898
O31	O	0.675268	0.662305	0.141911
O32	O	0.675254	0.662324	0.040237
O33	O	0.391706	1.347823	-0.039947
O34	O	0.493380	1.347800	-0.039934
O35	O	0.563417	0.892267	0.089921
O36	O	0.623263	0.892265	0.030074
O37	O	0.563405	1.117856	-0.029769
O38	O	0.503559	1.117858	0.030077
C39	C	0.533473	0.703585	0.000122
C40	C	0.533471	0.601262	0.000114
C41	C	0.489285	0.636407	-0.044053
C42	C	0.489294	0.540218	-0.044023
C43	C	0.577680	0.373741	0.044346
C44	C	0.577672	0.469929	0.044313
C45	C	0.438254	0.732521	-0.095071
C46	C	0.438264	0.636332	-0.095041
C47	C	0.373479	1.005109	0.000125
C48	C	0.319176	1.005121	0.000118
C49	C	0.013723	0.887296	0.031399
C50	C	-0.037295	0.887289	0.031405
O51	O	-0.037110	0.787142	0.057989
N52	N	-0.094057	1.005044	0.000166
C53	C	-0.099800	1.122813	-0.031075
O54	O	-0.152765	1.222972	-0.057644
C55	C	-0.048782	1.122819	-0.031076
C56	C	0.007979	1.005057	0.000159
C57	C	0.070482	0.769543	0.062633
C58	C	0.121497	0.769551	0.062627
C59	C	0.115753	0.887311	0.031387
C60	C	0.058994	1.005064	0.000153
C61	C	-0.054525	1.240588	-0.062313
C62	C	-0.003501	1.240583	-0.062311
C63	C	0.053260	1.122821	-0.031076
C64	C	0.104265	1.122833	-0.031093
N65	N	0.161027	1.005078	0.000145
C66	C	0.166771	0.887317	0.031385
C67	C	-0.206938	1.122792	-0.031068
C68	C	-0.257956	1.122788	-0.031071
C69	C	-0.195448	0.887263	0.031410
C70	C	-0.144430	0.887268	0.031408
C71	C	-0.150177	1.005037	0.000170
C72	C	0.273903	0.887342	0.031369
C73	C	0.324920	0.887360	0.031358
C74	C	0.262407	1.122885	-0.031119
C75	C	0.211395	1.122867	-0.031111
C76	C	0.217147	1.005086	0.000138
O77	O	0.104126	1.222929	-0.057662
O78	O	0.219738	0.787175	0.057957
C79	C	0.693481	1.005038	0.000165
C80	C	0.747784	1.005026	0.000172
C81	C	0.533458	1.005104	-0.159855
C82	C	0.533451	1.005114	-0.214157
C83	C	0.533486	1.306562	0.000168
C84	C	0.533488	1.408885	0.000176
C85	C	0.577681	1.005035	-0.550849
C86	C	0.577686	1.005025	-0.601867
O87	O	0.615276	1.004968	-0.628237
N88	N	0.533501	1.005037	-0.627390
C89	C	0.489311	1.005046	-0.601889
O90	O	0.451729	1.005054	-0.628283
C91	C	0.489309	1.005046	-0.550870
C92	C	0.533493	1.005047	-0.525353
C93	C	0.621862	1.005034	-0.525331
C94	C	0.621856	1.005046	-0.474318
C95	C	0.577668	1.005058	-0.448822
C96	C	0.533487	1.005059	-0.474339
C97	C	0.445122	1.005045	-0.525368
C98	C	0.445124	1.005044	-0.474345
C99	C	0.489309	1.005045	-0.448828
C100	C	0.489294	1.005083	-0.397829
N101	N	0.533479	1.005071	-0.372306
C102	C	0.577666	1.005059	-0.397802
C103	C	0.489320	1.005043	-0.709033
C104	C	0.489319	1.005052	-0.760054
C105	C	0.577695	1.005029	-0.760027
C106	C	0.577692	1.005029	-0.709008
C107	C	0.533505	1.005031	-0.683510
C108	C	0.577650	1.005085	-0.290670
C109	C	0.577638	1.005102	-0.239653
C110	C	0.489265	1.005118	-0.239683
C111	C	0.489274	1.005108	-0.290697
C112	C	0.533472	1.005087	-0.316188
O113	O	0.451724	1.005135	-0.371425
O114	O	0.615246	1.005033	-0.371398
C115	C	0.533501	1.005043	0.160145
C116	C	0.533509	1.005033	0.214447
C117	C	0.693475	0.703549	0.000142
C118	C	0.747775	0.601215	0.000140
C119	C	0.533495	0.703554	0.160121
C120	C	0.533500	0.601222	0.214416
C121	C	0.693496	0.703519	0.160141
C122	C	0.747804	0.601174	0.214443
C123	C	0.373464	1.306628	-0.159851
C124	C	0.319155	1.408973	-0.214153
C125	C	0.373485	1.306598	0.000148
C126	C	0.319184	1.408932	0.000150
C127	C	0.533465	1.306593	-0.159831
C128	C	0.533460	1.408926	-0.214126
C129	C	0.742028	0.553170	-0.031112
C130	C	0.793044	0.457030	-0.031126
C131	C	0.849808	0.408928	0.000118
C132	C	0.855554	0.456982	0.031372
C133	C	0.804538	0.553128	0.031381
C134	C	0.564750	0.553152	0.271166
C135	C	0.564753	0.457013	0.322186
C136	C	0.533509	0.408939	0.316455
C137	C	0.502255	0.457017	0.259700
C138	C	0.502249	0.553161	0.208681
C139	C	0.804552	0.553111	0.208704
C140	C	0.855586	0.456961	0.259721
C141	C	0.849869	0.408869	0.316476
C142	C	0.793115	0.456941	0.322214
C143	C	0.742083	0.553096	0.271197
C144	C	0.262407	1.457048	-0.208414
C145	C	0.211374	1.553228	-0.259431
C146	C	0.217091	1.601325	-0.316186
C147	C	0.273845	1.553246	-0.321924
C148	C	0.324877	1.457074	-0.270907
C149	C	0.324932	1.456987	0.031397
C150	C	0.273915	1.553154	0.031396
C151	C	0.217152	1.601259	0.000151
C152	C	0.211406	1.553200	-0.031101
C153	C	0.262422	1.457041	-0.031103
C154	C	0.564710	1.456970	-0.208376
C155	C	0.564717	1.553109	-0.259387
C156	C	0.533469	1.601210	-0.316146
C157	C	0.502218	1.553157	-0.321895
C158	C	0.502215	1.457012	-0.270885
H159	H	0.447172	0.636304	-0.135611
N160	N	0.680809	0.605034	-0.064812
H161	H	0.676023	0.644941	-0.108518
H162	H	0.649396	0.673180	-0.060019
N163	N	0.256226	1.405201	-0.147207
H164	H	0.276009	1.421916	-0.124640
H165	H	0.275988	1.308701	-0.124696
N166	N	0.280119	0.760301	0.065067
H167	H	0.260339	0.755054	0.036412
H168	H	0.260367	0.755091	0.096516
H169	H	0.165168	1.592358	-0.254748
H170	H	0.809226	0.592234	0.056835
N171	N	0.786957	0.405046	0.383431
H172	H	0.743264	0.450076	0.379332
H173	H	0.806771	0.421766	0.405965
H174	H	0.175532	1.679634	-0.357722
N175	N	0.280006	1.605128	-0.383140
H176	H	0.239063	1.673341	-0.414582
H177	H	0.302558	1.531704	-0.387874
N178	N	0.533468	1.704925	-0.371160
H179	H	0.508930	1.728116	-0.407993
H180	H	0.575801	1.671376	-0.371122
H181	H	0.590193	0.592284	0.275843
N182	N	0.598416	1.604941	-0.253176
H183	H	0.593682	1.673144	-0.294100
H184	H	0.642109	1.531494	-0.230605
H185	H	0.165176	1.218759	-0.056553
H186	H	0.809218	0.592254	0.162496
H187	H	0.590155	1.417821	-0.162164
H188	H	0.476777	1.592335	-0.368116
H189	H	0.442640	0.795503	-0.138653
H190	H	0.278606	1.592267	0.056847
N191	N	0.182711	0.642526	0.096320
H192	H	0.187495	0.591044	0.140024
H193	H	0.214131	0.660478	0.091537
N194	N	0.256212	1.405220	-0.064807
H195	H	0.233669	1.365350	-0.048420
H196	H	0.297158	1.337053	-0.060063
H197	H	0.891427	0.330573	0.358012
H198	H	0.257741	1.218762	-0.056556
H199	H	0.394692	0.647155	-0.090637
H200	H	0.175617	1.679558	0.000157
H201	H	0.476765	1.417905	-0.275575
H202	H	0.533518	0.330652	0.358003
N203	N	0.625312	1.005084	-0.318166
H204	H	0.648541	0.925002	-0.318086
H205	H	0.653253	1.005141	-0.294237
N206	N	0.680875	0.604914	0.277388
H207	H	0.658301	0.701433	0.257620
H208	H	0.685051	0.559756	0.321095
N209	N	0.150180	1.605076	-0.064790
H210	H	0.154273	1.560047	-0.084587
H211	H	0.127646	1.701600	-0.096194
H212	H	0.613658	0.441302	0.080273
N213	N	0.916794	0.405121	0.253525
H214	H	0.912666	0.450173	0.209829
H215	H	0.939329	0.308599	0.273330
N216	N	0.386083	1.405222	-0.277101
H217	H	0.381955	1.450288	-0.320798
H218	H	0.408611	1.308705	-0.257305
H219	H	0.613619	1.005106	-0.218880
N220	N	0.384504	0.811603	-0.083282
H221	H	0.398106	0.802800	-0.046061
H222	H	0.358559	0.779023	-0.077589
H223	H	0.613666	0.266800	0.080331
N224	N	0.397459	1.005059	-0.446849
H225	H	0.404157	1.005064	-0.410657
H226	H	0.399417	0.924975	-0.434524
N227	N	0.786833	0.405219	-0.064837
H228	H	0.764298	0.365330	-0.048447
H229	H	0.827780	0.337068	-0.060101
N230	N	0.386142	0.760341	0.065044
H231	H	0.382035	0.685742	0.084836
H232	H	0.408683	0.755199	0.096453
H233	H	0.657836	1.005042	-0.453543
N234	N	0.386151	1.405115	0.065100
H235	H	0.382042	1.450167	0.084890
H236	H	0.408677	1.421846	0.036414
N237	N	0.441608	1.005125	-0.212179
H238	H	0.418388	1.085205	-0.212256
H239	H	0.460936	0.924989	-0.169779
N240	N	0.076685	0.642519	0.096331
H241	H	0.120387	0.567937	0.116114
H242	H	0.056876	0.637387	0.067644
H243	H	-0.190778	0.791375	0.056845
N244	N	-0.083211	0.760256	0.065096
H245	H	-0.087320	0.685660	0.084883
H246	H	-0.060673	0.755111	0.096508
H247	H	-0.211626	1.218700	-0.056509
N248	N	-0.319174	1.249802	-0.064768
H249	H	-0.315064	1.324397	-0.084558
H250	H	-0.341696	1.254930	-0.036079
H251	H	-0.100735	1.336483	-0.087748
N252	N	-0.009701	1.367608	-0.096004
H253	H	-0.053401	1.442200	-0.115789
H254	H	0.010095	1.372754	-0.127418
N255	N	0.468562	0.405151	0.253521
H256	H	0.437126	0.421878	0.273298
H257	H	0.497269	0.308647	0.273293
N258	N	0.669517	1.005051	-0.552834
H259	H	0.697497	1.005062	-0.528922
H260	H	0.650183	1.085149	-0.595245
N261	N	0.625348	1.005030	-0.681487
H262	H	0.653337	1.005026	-0.705386
H263	H	0.648524	0.924945	-0.639073
N264	N	0.625356	1.005016	-0.787531
H265	H	0.618650	1.005011	-0.823722
H266	H	0.665900	0.924927	-0.757363
H267	H	0.409144	1.005043	-0.546137
H268	H	0.453335	1.005071	-0.780832
N269	N	0.468506	0.605070	0.147473
H270	H	0.448705	0.560041	0.151590
H271	H	0.497160	0.588376	0.124912
H272	H	0.891343	0.330639	0.000106
H273	H	0.453333	1.005054	-0.688278
H274	H	0.453290	1.005125	-0.311478
H275	H	0.901777	0.417805	0.056810
N276	N	0.598466	0.405164	0.383396
H277	H	0.618262	0.450203	0.379279
H278	H	0.629876	0.308641	0.405925
