data_functionalizedCrystal
_audit_creation_method	'MofGen! by Chris Wilmer'
_symmetry_space_group_name_H-M	'P1'
_symmetry_Int_Tables_number	1
_symmetry_cell_setting	triclinic
loop_
_symmetry_equiv_pos_as_xyz
  x,y,z
_cell_length_a	12.837943
_cell_length_b	15.995350
_cell_length_c	11.892095
_cell_angle_alpha	93.891441
_cell_angle_beta	85.689438
_cell_angle_gamma	89.160657
loop_
_atom_site_label
_atom_site_type_symbol
_atom_site_fract_x
_atom_site_fract_y
_atom_site_fract_z
O1	O	1.382080	0.212847	-0.093972
O2	O	1.080275	0.202094	-0.093979
O3	O	1.239427	0.086241	-0.093975
O4	O	1.222927	0.328700	-0.093977
O5	O	1.226157	0.095884	0.094032
O6	O	1.067005	0.211737	0.094028
O7	O	1.368810	0.222490	0.094035
Zn8	Zn	1.215800	0.218644	0.123881
Zn9	Zn	1.233284	0.205939	-0.123826
O10	O	1.209657	0.338343	0.094030
C11	C	1.035019	0.203283	0.000023
C12	C	0.919942	0.192449	0.000020
C13	C	0.678983	0.322688	0.000035
C14	C	0.570857	0.312513	0.000033
C15	C	0.595563	0.161925	0.000023
C16	C	0.703688	0.172100	0.000025
C17	C	0.745394	0.252484	0.000029
C18	C	0.853523	0.262658	0.000023
C19	C	0.878225	0.112072	0.000020
C20	C	0.770100	0.101896	0.000018
C21	C	1.232110	0.059813	0.000027
C22	C	1.230066	-0.033301	0.000020
C23	C	1.222721	-0.371634	0.000024
C24	C	1.109405	-0.333265	-0.000400
C25	C	1.111421	-0.236390	0.000023
C26	C	1.226364	-0.203783	0.000021
C27	C	1.274693	-0.234893	0.107382
C28	C	1.271839	-0.331752	0.107472
C29	C	1.289271	-0.342889	-0.106327
C30	C	1.289344	-0.246018	-0.107746
C31	C	1.228429	-0.108921	0.000024
C32	C	1.220659	-0.466496	0.000029
C33	C	1.414066	0.221301	0.000030
C34	C	1.529143	0.232134	0.000025
C35	C	1.216974	0.364770	0.000026
C36	C	1.219020	0.457884	0.000025
N37	N	1.203876	0.227315	0.292935
N38	N	1.245217	0.197262	-0.292880
C39	C	1.328193	0.136877	0.529587
C40	C	1.319865	0.142945	0.647928
C41	C	1.178889	0.245514	0.647962
C42	C	1.187216	0.239446	0.529621
C43	C	1.261872	0.185127	0.470437
C44	C	1.270204	0.179064	0.352093
C45	C	1.129223	0.281628	0.352129
C46	C	1.120896	0.287696	0.470471
H47	H	0.887477	0.328111	0.000028
H48	H	0.712940	0.388139	0.000037
O49	O	1.400739	0.084050	0.472264
C50	C	1.457516	0.042784	0.549850
H51	H	1.409082	0.042750	0.634218
H52	H	1.475743	-0.024568	0.515650
H53	H	1.533631	0.076798	0.562418
H54	H	1.225408	-0.349189	0.187727
H55	H	1.058900	-0.352531	0.076159
H56	H	1.257956	-0.370559	-0.187700
O57	O	1.064741	0.328587	0.294846
C58	C	0.997049	0.377813	0.372465
H59	H	1.033610	0.386489	0.456815
H60	H	0.983643	0.441662	0.338281
H61	H	0.919158	0.345095	0.385062
O62	O	1.384144	0.095986	0.705439
C63	C	1.323811	0.043403	0.773926
H64	H	1.244571	0.033605	0.738281
H65	H	1.366007	-0.019689	0.775260
H66	H	1.312066	0.073772	0.863616
O67	O	1.106460	0.298258	0.705638
C68	C	1.113314	0.293243	0.822772
H69	H	1.194590	0.269386	0.838912
H70	H	1.098615	0.358031	0.867762
H71	H	1.052280	0.248260	0.856361
H72	H	1.254075	-0.226105	-0.187169
H73	H	0.516788	0.369680	0.000041
O74	O	1.388972	-0.372967	-0.107057
C75	C	1.398629	-0.419729	-0.011925
H76	H	1.318510	-0.442602	0.019011
H77	H	1.453365	-0.475893	-0.036109
H78	H	1.431821	-0.378507	0.058246
O79	O	0.554869	0.083904	-0.000019
C80	C	0.445191	0.089985	0.000021
H81	H	0.422323	0.151477	-0.035576
H82	H	0.415826	0.035233	-0.054553
H83	H	0.408736	0.088162	0.090222
O84	O	0.729619	0.023808	0.000209
C85	C	0.756709	-0.014534	0.097556
H86	H	0.774401	0.035801	0.165622
H87	H	0.688900	-0.053708	0.130232
H88	H	0.828728	-0.056701	0.075533
O89	O	1.052023	-0.202735	0.091957
C90	C	0.948412	-0.229996	0.087102
H91	H	0.947784	-0.290965	0.031661
H92	H	0.914000	-0.240914	0.175967
H93	H	0.899667	-0.180154	0.049753
O94	O	1.370636	-0.362098	0.113452
C95	C	1.375169	-0.406150	0.211775
H96	H	1.293670	-0.427836	0.239732
H97	H	1.429907	-0.462971	0.193096
H98	H	1.405598	-0.363267	0.282002
O99	O	0.942883	0.043962	0.000061
C100	C	1.047265	0.070174	0.000027
H101	H	1.048910	0.138093	0.035631
H102	H	1.092401	0.028749	0.054597
H103	H	1.084891	0.064874	-0.090173
O104	O	1.048329	0.340347	0.528093
C105	C	0.979544	0.293884	0.596537
H106	H	1.019577	0.232581	0.614250
H107	H	0.957292	0.331782	0.679762
H108	H	0.906140	0.279717	0.550946
O109	O	1.375072	-0.209660	0.112010
C110	C	1.403188	-0.163420	0.017952
H111	H	1.329736	-0.136687	-0.015637
H112	H	1.455772	-0.109938	0.044512
H113	H	1.446789	-0.206241	-0.051076
H114	H	1.072907	-0.215422	-0.076937
H115	H	1.069536	-0.359360	-0.077391
O116	O	1.221501	-0.199806	0.202589
C117	C	1.140629	-0.147089	0.172518
H118	H	1.119297	-0.167221	0.083487
H119	H	1.069222	-0.151877	0.234619
H120	H	1.167972	-0.079543	0.175133
O121	O	1.389820	-0.219947	-0.115428
C122	C	1.390868	-0.132290	-0.122119
H123	H	1.313111	-0.103772	-0.084128
H124	H	1.457015	-0.105064	-0.073221
H125	H	1.403327	-0.117154	-0.214413
H126	H	1.330995	0.134837	0.303907
