data_functionalizedCrystal
_audit_creation_method	'MofGen! by Chris Wilmer'
_symmetry_space_group_name_H-M	'P1'
_symmetry_Int_Tables_number	1
_symmetry_cell_setting	triclinic
loop_
_symmetry_equiv_pos_as_xyz
  x,y,z
_cell_length_a	14.971486
_cell_length_b	14.971486
_cell_length_c	7.540329
_cell_angle_alpha	89.996199
_cell_angle_beta	90.001997
_cell_angle_gamma	83.614129
loop_
_atom_site_label
_atom_site_type_symbol
_atom_site_fract_x
_atom_site_fract_y
_atom_site_fract_z
O1	O	-1.186943	-0.116561	0.147279
O2	O	-0.926543	-0.130520	0.147328
O3	O	-1.063722	0.006659	0.147290
O4	O	-1.049763	-0.253741	0.147317
O5	O	-1.063714	0.006661	-0.147675
O6	O	-0.926535	-0.130519	-0.147637
O7	O	-1.186935	-0.116560	-0.147686
Cu8	Cu	-1.056734	-0.123539	-0.174594
Cu9	Cu	-1.056744	-0.123541	0.174236
O10	O	-1.049755	-0.253739	-0.147648
C11	C	-0.893214	-0.129895	-0.000149
C12	C	-0.793917	-0.128024	-0.000131
C13	C	-1.063094	0.039985	-0.000192
C14	C	-1.061223	0.139282	-0.000190
C15	C	-1.220263	-0.117185	-0.000205
C16	C	-1.319561	-0.119056	-0.000212
N17	N	-1.056734	-0.123537	-0.419943
C18	C	-0.736692	-0.208614	-0.000124
C19	C	-0.643392	-0.206850	-0.000151
C20	C	-0.607320	-0.124497	-0.000171
C21	C	-0.664552	-0.043902	-0.000183
C22	C	-0.757850	-0.045666	-0.000169
C23	C	-0.470090	-0.040231	-0.000207
C24	C	-0.376786	-0.038466	-0.000218
C25	C	-0.355632	-0.201415	-0.000190
C26	C	-0.448930	-0.203179	-0.000176
C27	C	-0.506156	-0.122584	-0.000184
C28	C	-1.050384	-0.287065	-0.000162
C29	C	-1.052254	-0.386362	-0.000152
C30	C	-1.141812	0.196507	-0.000207
C31	C	-1.140049	0.289807	-0.000188
C32	C	-1.057696	0.325879	-0.000167
C33	C	-0.977101	0.268646	-0.000145
C34	C	-0.978865	0.175349	-0.000151
C35	C	-0.973430	0.463109	-0.000138
C36	C	-0.971665	0.556413	-0.000136
C37	C	-1.134614	0.577567	-0.000176
C38	C	-1.136378	0.484269	-0.000181
C39	C	-1.055782	0.427043	-0.000163
N40	N	-1.056751	-0.123536	0.419585
H41	H	-0.766054	-0.275675	-0.000107
H42	H	-1.208874	0.167145	-0.000235
H43	H	-0.596802	-0.272474	-0.000144
H44	H	-1.205673	0.336396	-0.000206
H45	H	-0.913240	0.128756	-0.000137
H46	H	-0.904606	0.585780	-0.000147
O47	O	-0.886504	0.401381	-0.000135
H48	H	-0.828941	0.442136	-0.000144
H49	H	-0.910047	0.298024	-0.000116
O50	O	-0.293917	-0.288348	-0.000201
H51	H	-0.222981	-0.273290	-0.000240
H52	H	-0.804443	0.019958	-0.000173
H53	H	-0.478296	-0.270239	-0.000143
O54	O	-0.337873	0.050354	-0.000273
H55	H	-0.360848	0.089101	0.119926
H56	H	-1.200238	0.624165	-0.000185
H57	H	-1.203437	0.454903	-0.000212
H58	H	-0.516682	0.025399	-0.000217
H59	H	-0.635175	0.023152	-0.000224
