data_functionalizedCrystal
_audit_creation_method	'MofGen! by Chris Wilmer'
_symmetry_space_group_name_H-M	'P1'
_symmetry_Int_Tables_number	1
_symmetry_cell_setting	triclinic
loop_
_symmetry_equiv_pos_as_xyz
  x,y,z
_cell_length_a	12.827893
_cell_length_b	16.625539
_cell_length_c	12.827892
_cell_angle_alpha	90.023194
_cell_angle_beta	89.984447
_cell_angle_gamma	89.984909
loop_
_atom_site_label
_atom_site_type_symbol
_atom_site_fract_x
_atom_site_fract_y
_atom_site_fract_z
Zn1	Zn	1.597626	-0.455885	0.416046
Zn2	Zn	1.930960	-0.122552	0.749379
Zn3	Zn	2.264293	0.210781	1.082713
Zn4	Zn	1.597533	-0.321060	0.590803
Zn5	Zn	1.930867	0.012273	0.924137
Zn6	Zn	2.264200	0.345607	1.257470
Zn7	Zn	1.422881	-0.321070	0.416077
Zn8	Zn	1.756214	0.012263	0.749411
Zn9	Zn	2.089547	0.345596	1.082744
Zn10	Zn	1.422853	-0.455855	0.590746
Zn11	Zn	1.756186	-0.122521	0.924079
Zn12	Zn	2.089520	0.210812	1.257413
O13	O	1.510223	-0.388468	0.503418
O14	O	1.843557	-0.055134	0.836751
O15	O	2.176890	0.278199	1.170085
O16	O	1.743850	-0.438009	0.439239
O17	O	2.077183	-0.104676	0.772572
O18	O	2.410517	0.228658	1.105905
O19	O	1.574338	-0.208229	0.567662
O20	O	1.907671	0.125104	0.900996
O21	O	2.241004	0.458438	1.234329
O22	O	1.446112	-0.338971	0.269837
O23	O	1.779445	-0.005638	0.603170
O24	O	2.112778	0.327696	0.936504
O25	O	1.743782	-0.338954	0.567632
O26	O	2.077115	-0.005620	0.900965
O27	O	2.410448	0.327713	1.234299
O28	O	1.574497	-0.438019	0.269814
O29	O	1.907830	-0.104686	0.603147
O30	O	2.241163	0.228648	0.936481
O31	O	1.446021	-0.208237	0.439292
O32	O	1.779355	0.125097	0.772625
O33	O	2.112688	0.458430	1.105959
O34	O	1.276641	-0.338941	0.439237
O35	O	1.609974	-0.005608	0.772570
O36	O	1.943308	0.327725	1.105903
O37	O	1.446065	-0.568691	0.567535
O38	O	1.779398	-0.235358	0.900868
O39	O	2.112731	0.097976	1.234201
O40	O	1.276621	-0.437967	0.567565
O41	O	1.609954	-0.104633	0.900898
O42	O	1.943287	0.228700	1.234232
O43	O	1.574470	-0.568714	0.439183
O44	O	1.907803	-0.235380	0.772517
O45	O	2.241137	0.097953	1.105850
O46	O	1.574311	-0.338924	0.737032
O47	O	1.907644	-0.005590	1.070365
O48	O	2.240978	0.327743	1.403698
O49	O	1.445974	-0.437957	0.736990
O50	O	1.779308	-0.104623	1.070323
O51	O	2.112641	0.228710	1.403656
C52	C	1.238713	-0.388452	0.503399
C53	C	1.572047	-0.055119	0.836732
C54	C	1.905380	0.278214	1.170066
C55	C	1.122560	-0.388465	0.503416
C56	C	1.455894	-0.055131	0.836749
C57	C	1.789227	0.278202	1.170082
C58	C	1.070809	-0.437557	0.439995
C59	C	1.404143	-0.104224	0.773329
C60	C	1.737476	0.229110	1.106662
C61	C	0.950759	-0.437571	0.440011
C62	C	1.284092	-0.104238	0.773345
C63	C	1.617426	0.229096	1.106678
C64	C	1.510275	-0.598777	0.503349
C65	C	1.843608	-0.265443	0.836682
C66	C	2.176941	0.067890	1.170016
C67	C	1.510296	-0.688398	0.503320
C68	C	1.843630	-0.355064	0.836653
C69	C	2.176963	-0.021731	1.169986
C70	C	1.510313	-0.761180	0.503297
C71	C	1.843647	-0.427847	0.836630
C72	C	2.176980	-0.094514	1.169963
C73	C	1.510338	-0.852489	0.503258
C74	C	1.843671	-0.519155	0.836591
C75	C	2.177005	-0.185822	1.169924
C76	C	1.510362	-0.925265	0.503221
C77	C	1.843696	-0.591932	0.836554
C78	C	2.177029	-0.258599	1.169888
C79	C	1.510389	-1.016580	0.503183
C80	C	1.843722	-0.683246	0.836517
C81	C	2.177055	-0.349913	1.169850
C82	C	1.782793	-0.388483	0.503438
C83	C	2.116127	-0.055150	0.836772
C84	C	2.449460	0.278183	1.170105
C85	C	1.898947	-0.388490	0.503447
C86	C	2.232280	-0.055157	0.836780
C87	C	2.565613	0.278176	1.170113
C88	C	1.510158	-0.388453	0.774928
C89	C	1.843491	-0.055120	1.108261
C90	C	2.176825	0.278213	1.441595
C91	C	1.510226	-0.388474	0.891081
C92	C	1.843559	-0.055141	1.224414
C93	C	2.176892	0.278192	1.557748
C94	C	1.510232	-0.178977	0.503411
C95	C	1.843566	0.154357	0.836745
C96	C	2.176899	0.487690	1.170078
C97	C	1.510413	-0.089356	0.503146
C98	C	1.843746	0.243977	0.836480
C99	C	2.177080	0.577311	1.169813
C100	C	1.510317	-0.388500	0.230848
C101	C	1.843651	-0.055166	0.564181
C102	C	2.176984	0.278167	0.897515
C103	C	1.510358	-0.388513	0.114695
C104	C	1.843691	-0.055180	0.448028
C105	C	2.177024	0.278154	0.781362
C106	C	1.573806	-0.339524	0.942852
C107	C	1.907139	-0.006191	1.276185
C108	C	2.240473	0.327143	1.609519
C109	C	1.573878	-0.339544	1.062902
C110	C	1.907211	-0.006211	1.396236
C111	C	2.240544	0.327122	1.729569
H112	H	0.906254	-0.479603	0.385718
H113	H	1.239587	-0.146270	0.719052
H114	H	1.572921	0.187063	1.052385
H115	H	0.943445	-0.346463	0.557752
H116	H	1.276778	-0.013130	0.891085
H117	H	1.610111	0.320204	1.224419
H118	H	1.628308	-0.297634	1.107424
H119	H	1.961642	0.035699	1.440757
H120	H	2.294975	0.369032	1.774091
H121	H	1.077990	-0.346444	0.557722
H122	H	1.411323	-0.013111	0.891055
H123	H	1.744656	0.320223	1.224389
C124	C	1.436813	-0.445134	1.054565
C125	C	1.770147	-0.111801	1.387899
C126	C	2.103480	0.221532	1.721232
C127	C	1.445261	-0.536815	1.069389
C128	C	1.778595	-0.203482	1.402722
C129	C	2.111928	0.129851	1.736056
C130	C	1.371717	-0.593437	1.009250
C131	C	1.705051	-0.260103	1.342584
C132	C	2.038384	0.073230	1.675917
C133	C	1.289725	-0.558377	0.934288
C134	C	1.623058	-0.225043	1.267621
C135	C	1.956392	0.108290	1.600955
C136	C	1.281274	-0.466691	0.919461
C137	C	1.614607	-0.133358	1.252794
C138	C	1.947940	0.199976	1.586127
C139	C	1.354818	-0.410070	0.979599
C140	C	1.688151	-0.076737	1.312933
C141	C	2.021484	0.256597	1.646266
H142	H	1.505960	-0.562773	1.124884
H143	H	1.839293	-0.229440	1.458217
H144	H	2.172627	0.103894	1.791550
H145	H	1.377974	-0.661309	1.020227
H146	H	1.711307	-0.327975	1.353560
H147	H	2.044641	0.005358	1.686894
H148	H	1.235283	-0.600291	0.889770
H149	H	1.568617	-0.266958	1.223103
H150	H	1.901950	0.066375	1.556436
H151	H	1.220575	-0.440733	0.863966
H152	H	1.553908	-0.107400	1.197299
H153	H	1.887242	0.225933	1.530633
H154	H	1.348561	-0.342198	0.968623
H155	H	1.681894	-0.008865	1.301956
H156	H	2.015228	0.324469	1.635289
H157	H	1.628192	-0.297603	0.898301
H158	H	1.961525	0.035730	1.231634
H159	H	2.294858	0.369063	1.564967
H160	H	1.115380	-0.479573	0.385683
H161	H	1.448713	-0.146240	0.719017
H162	H	1.782047	0.187094	1.052350
H163	H	1.455849	-0.430401	0.935635
H164	H	1.789183	-0.097067	1.268968
H165	H	2.122516	0.236266	1.602302
