data_functionalizedCrystal
_audit_creation_method	'MofGen! by Chris Wilmer'
_symmetry_space_group_name_H-M	'P1'
_symmetry_Int_Tables_number	1
_symmetry_cell_setting	triclinic
loop_
_symmetry_equiv_pos_as_xyz
  x,y,z
_cell_length_a	19.188930
_cell_length_b	10.489741
_cell_length_c	17.666332
_cell_angle_alpha	89.996088
_cell_angle_beta	90.006765
_cell_angle_gamma	96.158022
loop_
_atom_site_label
_atom_site_type_symbol
_atom_site_fract_x
_atom_site_fract_y
_atom_site_fract_z
O1	O	0.098499	-1.691856	0.062911
O2	O	0.598499	-1.191856	0.562911
O3	O	0.107745	-1.320453	0.062924
O4	O	0.607745	-0.820453	0.562924
O5	O	0.001538	-1.516872	0.062902
O6	O	0.501538	-1.016872	0.562902
O7	O	0.204706	-1.495437	0.062933
O8	O	0.704706	-0.995437	0.562933
O9	O	0.001542	-1.516846	-0.062994
O10	O	0.501542	-1.016846	0.437006
O11	O	0.107748	-1.320427	-0.062973
O12	O	0.607748	-0.820427	0.437027
O13	O	0.098502	-1.691830	-0.062986
O14	O	0.598502	-1.191830	0.437014
Cu15	Cu	0.103126	-1.506126	-0.074475
Cu16	Cu	0.603126	-1.006126	0.425525
Cu17	Cu	0.103122	-1.506157	0.074413
Cu18	Cu	0.603122	-1.006157	0.574413
O19	O	0.204709	-1.495411	-0.062964
O20	O	0.704709	-0.995411	0.437036
C21	C	0.107048	-1.272924	-0.000023
C22	C	0.607048	-0.772924	0.499977
C23	C	0.104959	-1.131341	-0.000019
C24	C	0.604959	-0.631341	0.499981
C25	C	-0.024476	-1.516165	-0.000048
C26	C	0.475524	-1.016165	0.499952
C27	C	-0.101994	-1.514081	-0.000055
C28	C	0.398006	-1.014081	0.499945
C29	C	0.099199	-1.739359	-0.000037
C30	C	0.599199	-1.239359	0.499963
C31	C	0.101288	-1.880941	-0.000036
C32	C	0.601288	-1.380941	0.499964
C33	C	-0.146146	-1.629334	-0.000062
C34	C	0.353854	-1.129334	0.499938
C35	C	-0.218983	-1.627376	-0.000050
C36	C	0.281017	-1.127376	0.499950
C37	C	-0.247665	-1.510159	-0.000045
C38	C	0.252335	-1.010159	0.499955
C39	C	-0.203503	-1.394892	-0.000034
C40	C	0.296497	-0.894892	0.499966
C41	C	-0.130668	-1.396853	-0.000038
C42	C	0.369332	-0.896853	0.499962
N43	N	-0.356269	-1.420553	-0.042887
N44	N	0.143731	-0.920553	0.457113
N45	N	-0.425460	-1.418698	-0.042885
N46	N	0.074540	-0.918698	0.457115
C47	C	-0.467113	-1.504244	-0.000030
C48	C	0.032887	-1.004244	0.499970
N49	N	-0.436963	-1.591735	0.042812
N50	N	0.063037	-1.091735	0.542812
N51	N	-0.367766	-1.593594	0.042806
N52	N	0.132234	-1.093594	0.542806
C53	C	-0.326642	-1.508020	-0.000040
C54	C	0.173358	-1.008020	0.499960
C55	C	-0.590244	-1.617382	-0.000023
C56	C	-0.090244	-1.117382	0.499977
C57	C	-0.663081	-1.615419	-0.000006
C58	C	-0.163081	-1.115419	0.499994
C59	C	-0.647600	-1.382932	0.000002
C60	C	-0.147600	-0.882932	0.500002
C61	C	-0.574764	-1.384898	-0.000007
C62	C	-0.074764	-0.884898	0.499993
C63	C	-0.546090	-1.502126	-0.000023
C64	C	-0.046090	-1.002126	0.499977
C65	C	0.230723	-1.496118	-0.000012
C66	C	0.730723	-0.996118	0.499988
C67	C	0.308242	-1.498202	-0.000001
C68	C	0.808242	-0.998202	0.499999
N69	N	0.103128	-1.506114	-0.179194
N70	N	0.603128	-1.006114	0.320806
C71	C	0.037383	-1.064712	-0.000036
C72	C	0.537383	-0.564712	0.499964
C73	C	0.069303	-0.971885	0.062041
C74	C	0.569303	-0.471885	0.562041
C75	C	0.069323	-0.971893	-0.062084
C76	C	0.569323	-0.471893	0.437916
C77	C	0.136908	-1.040378	0.062109
C78	C	0.636908	-0.540378	0.562109
C79	C	0.136918	-1.040396	-0.062071
C80	C	0.636918	-0.540396	0.437929
C81	C	0.168887	-0.947595	0.000021
C82	C	0.668887	-0.447595	0.500021
C83	C	0.145866	-1.583295	-0.781240
C84	C	0.645866	-1.083295	-0.281240
C85	C	0.145873	-1.583282	-0.701992
C86	C	0.645873	-1.083282	-0.201992
C87	C	0.103115	-1.506169	-0.662376
C88	C	0.603115	-1.006169	-0.162376
C89	C	0.060360	-1.429037	-0.702013
C90	C	0.560360	-0.929037	-0.202013
C91	C	0.060359	-1.429043	-0.781259
C92	C	0.560359	-0.929043	-0.281259
N93	N	0.041933	-1.503080	-0.537960
N94	N	0.541933	-1.003080	-0.037960
N95	N	0.041936	-1.503083	-0.462679
N96	N	0.541936	-1.003083	0.037321
C97	C	0.103114	-1.506146	-0.423612
C98	C	0.603114	-1.006146	0.076388
N99	N	0.164292	-1.509232	-0.462668
N100	N	0.664292	-1.009232	0.037332
N101	N	0.164288	-1.509236	-0.537956
N102	N	0.664288	-1.009236	-0.037956
C103	C	0.103111	-1.506154	-0.576446
C104	C	0.603111	-1.006154	-0.076446
C105	C	0.145878	-1.583252	-0.298054
C106	C	0.645878	-1.083252	0.201946
C107	C	0.145886	-1.583230	-0.218805
C108	C	0.645886	-1.083230	0.281195
C109	C	0.060366	-1.428992	-0.218828
C110	C	0.560366	-0.928992	0.281172
C111	C	0.060364	-1.429007	-0.298075
C112	C	0.560364	-0.929007	0.201925
C113	C	0.103119	-1.506143	-0.337684
C114	C	0.603119	-1.006143	0.162316
N115	N	0.103114	-1.506179	0.179132
N116	N	0.603114	-1.006179	0.679132
H117	H	-0.122805	-1.724790	-0.000073
H118	H	0.377195	-1.224790	0.499927
Cl119	Cl	0.006618	-1.332038	-0.169032
Cl120	Cl	0.506618	-0.832038	0.330968
Cl121	Cl	0.199620	-1.680256	-0.831029
Cl122	Cl	0.699620	-1.180256	-0.331029
Cl123	Cl	0.199628	-1.680215	-0.347851
Cl124	Cl	0.699628	-1.180215	0.152149
H125	H	0.180704	-1.646024	-0.186541
H126	H	0.680704	-1.146024	0.313459
Cl127	Cl	0.025164	-0.925038	-0.143113
Cl128	Cl	0.525164	-0.425038	0.356887
H129	H	0.224498	-0.896927	0.000063
H130	H	0.724498	-0.396927	0.500063
H131	H	-0.538814	-1.291047	-0.000005
H132	H	-0.038814	-0.791047	0.499995
H133	H	0.025548	-1.366217	-0.330341
H134	H	0.525548	-0.866217	0.169659
H135	H	0.165489	-1.070792	-0.114548
H136	H	0.665489	-0.570792	0.385452
H137	H	0.040709	-0.941520	0.114515
H138	H	0.540709	-0.441520	0.614515
H139	H	-0.670952	-1.287492	0.000010
H140	H	-0.170952	-0.787492	0.500010
Cl141	Cl	0.199611	-1.680256	-0.652163
Cl142	Cl	0.699611	-1.180256	-0.152163
Cl143	Cl	-0.048397	-1.143290	0.000044
Cl144	Cl	0.451603	-0.643290	0.500044
H145	H	0.165477	-1.070578	0.114650
H146	H	0.665477	-0.570578	0.614650
Cl147	Cl	0.006610	-1.332089	-0.652211
Cl148	Cl	0.506610	-0.832089	-0.152211
H149	H	0.025544	-1.366243	-0.813524
H150	H	0.525544	-0.866243	-0.313524
H151	H	-0.254938	-1.721231	-0.000053
H152	H	0.245062	-1.221231	0.499947
H153	H	-0.094719	-1.302998	-0.000032
H154	H	0.405281	-0.802998	0.499968
Cl155	Cl	-0.554193	-1.764751	-0.000048
Cl156	Cl	-0.054193	-1.264751	0.499952
Cl157	Cl	-0.718588	-1.760322	-0.000011
Cl158	Cl	-0.218588	-1.260322	0.499989
Cl159	Cl	-0.239559	-1.247534	-0.000022
Cl160	Cl	0.260441	-0.747534	0.499978
