data_functionalizedCrystal
_audit_creation_method	'MofGen! by Chris Wilmer'
_symmetry_space_group_name_H-M	'P1'
_symmetry_Int_Tables_number	1
_symmetry_cell_setting	triclinic
loop_
_symmetry_equiv_pos_as_xyz
  x,y,z
_cell_length_a	16.109301
_cell_length_b	10.489763
_cell_length_c	15.186229
_cell_angle_alpha	90.008497
_cell_angle_beta	89.999006
_cell_angle_gamma	95.995028
loop_
_atom_site_label
_atom_site_type_symbol
_atom_site_fract_x
_atom_site_fract_y
_atom_site_fract_z
O1	O	1.104150	-0.163947	-0.073190
O2	O	1.437483	0.169387	0.260144
O3	O	1.770816	0.502720	0.593477
O4	O	0.862215	-0.184349	-0.073203
O5	O	1.195548	0.148984	0.260130
O6	O	1.528881	0.482318	0.593464
O7	O	0.988678	0.011528	-0.073180
O8	O	1.322011	0.344861	0.260154
O9	O	1.655344	0.678195	0.593487
O10	O	0.977687	-0.359824	-0.073213
O11	O	1.311020	-0.026490	0.260120
O12	O	1.644353	0.306843	0.593454
O13	O	0.988669	0.011531	0.073278
O14	O	1.322002	0.344864	0.406611
O15	O	1.655336	0.678197	0.739944
O16	O	0.862206	-0.184346	0.073254
O17	O	1.195539	0.148987	0.406587
O18	O	1.528873	0.482320	0.739921
O19	O	1.104141	-0.163944	0.073268
O20	O	1.437474	0.169389	0.406601
O21	O	1.770808	0.502723	0.739934
Zn22	Zn	0.983172	-0.174145	0.096514
Zn23	Zn	1.316506	0.159189	0.429847
Zn24	Zn	1.649839	0.492522	0.763181
Zn25	Zn	0.983183	-0.174148	-0.096450
Zn26	Zn	1.316517	0.159185	0.236884
Zn27	Zn	1.649850	0.492518	0.570217
O28	O	0.977678	-0.359821	0.073244
O29	O	1.311011	-0.026487	0.406577
O30	O	1.644345	0.306846	0.739911
C31	C	0.831230	-0.183521	0.000024
C32	C	1.164564	0.149812	0.333357
C33	C	1.497897	0.483145	0.666691
C34	C	0.738920	-0.181043	0.000020
C35	C	1.072253	0.152290	0.333353
C36	C	1.405586	0.485623	0.666686
C37	C	0.430593	-0.289173	0.000025
C38	C	0.763927	0.044161	0.333358
C39	C	1.097260	0.377494	0.666692
C40	C	0.517328	-0.291513	0.000020
C41	C	0.850662	0.041821	0.333353
C42	C	1.183995	0.375154	0.666686
C43	C	0.535757	-0.059111	0.000029
C44	C	0.869090	0.274222	0.333362
C45	C	1.202423	0.607556	0.666696
C46	C	0.449024	-0.056772	0.000028
C47	C	0.782357	0.276561	0.333361
C48	C	1.115690	0.609894	0.666695
C49	C	0.396444	-0.171807	0.000031
C50	C	0.729777	0.161526	0.333364
C51	C	1.063110	0.494860	0.666697
C52	C	0.569912	-0.176486	0.000026
C53	C	0.903245	0.156847	0.333360
C54	C	1.236579	0.490181	0.666693
C55	C	0.663954	-0.179022	0.000020
C56	C	0.997287	0.154311	0.333354
C57	C	1.330620	0.487644	0.666687
C58	C	0.302396	-0.169271	0.000035
C59	C	0.635729	0.164062	0.333368
C60	C	0.969063	0.497396	0.666701
C61	C	0.987839	0.059048	0.000051
C62	C	1.321172	0.392382	0.333385
C63	C	1.654506	0.725715	0.666718
C64	C	0.985344	0.200640	0.000058
C65	C	1.318677	0.533974	0.333392
C66	C	1.652010	0.867307	0.666725
C67	C	0.904869	0.267612	0.000052
C68	C	1.238202	0.600946	0.333385
C69	C	1.571536	0.934279	0.666718
C70	C	0.942874	0.360287	0.072270
C71	C	1.276207	0.693620	0.405604
C72	C	1.609541	1.026953	0.738937
C73	C	0.942901	0.360259	-0.072125
C74	C	1.276235	0.693592	0.261208
C75	C	1.609568	1.026925	0.594542
C76	C	1.023382	0.291450	0.072336
C77	C	1.356715	0.624783	0.405670
C78	C	1.690048	0.958116	0.739003
C79	C	1.023398	0.291412	-0.072124
C80	C	1.356731	0.624746	0.261209
C81	C	1.690065	0.958079	0.594543
C82	C	1.061461	0.384060	0.000112
C83	C	1.394795	0.717393	0.333446
C84	C	1.728128	1.050727	0.666779
C85	C	1.135125	-0.164772	0.000039
C86	C	1.468459	0.168562	0.333372
C87	C	1.801792	0.501895	0.666705
C88	C	1.227436	-0.167250	0.000037
C89	C	1.560769	0.166084	0.333371
C90	C	1.894103	0.499417	0.666704
C91	C	0.978503	0.592656	0.000026
C92	C	1.311837	0.925989	0.333360
C93	C	1.645170	1.259323	0.666693
C94	C	0.980959	0.451056	0.000059
C95	C	1.314293	0.784390	0.333393
C96	C	1.647626	1.117723	0.666726
N97	N	0.983171	-0.174141	0.228207
N98	N	1.316504	0.159192	0.561540
N99	N	1.649837	0.492525	0.894873
N100	N	0.983192	-0.174141	-0.228142
N101	N	1.316525	0.159192	0.105191
N102	N	1.649858	0.492525	0.438524
C103	C	1.039188	-0.087436	0.453940
C104	C	1.372521	0.245897	0.787273
C105	C	1.705854	0.579230	1.120607
C106	C	1.039190	-0.087433	0.546130
C107	C	1.372524	0.245900	0.879463
C108	C	1.705857	0.579233	1.212796
C109	C	0.927168	-0.260851	0.546118
C110	C	1.260502	0.072483	0.879451
C111	C	1.593835	0.405816	1.212785
C112	C	0.927162	-0.260847	0.453930
C113	C	1.260496	0.072487	0.787263
C114	C	1.593829	0.405820	1.120597
C115	C	0.983177	-0.174141	0.407843
C116	C	1.316510	0.159192	0.741177
C117	C	1.649843	0.492526	1.074510
C118	C	0.983185	-0.174142	0.592221
C119	C	1.316519	0.159191	0.925554
C120	C	1.649852	0.492525	1.258888
C121	C	0.983188	-0.174139	0.692177
C122	C	1.316521	0.159194	1.025511
C123	C	1.649854	0.492527	1.358844
C124	C	0.983174	-0.174141	0.307881
C125	C	1.316507	0.159192	0.641214
C126	C	1.649840	0.492525	0.974548
H127	H	0.838709	0.217002	0.000118
H128	H	1.172042	0.550335	0.333451
H129	H	1.505375	0.883669	0.666785
Cl130	Cl	1.109603	0.021570	0.396006
Cl131	Cl	1.442936	0.354904	0.729340
Cl132	Cl	1.776269	0.688237	1.062673
H133	H	1.057424	0.260860	-0.133176
H134	H	1.390757	0.594194	0.200157
H135	H	1.724090	0.927527	0.533490
H136	H	0.881564	-0.331446	0.583651
H137	H	1.214897	0.001887	0.916984
H138	H	1.548230	0.335220	1.250318
Cl139	Cl	1.075905	0.244620	0.166696
Cl140	Cl	1.409238	0.577954	0.500030
Cl141	Cl	1.742572	0.911287	0.833363
H142	H	0.881548	-0.331452	0.416396
H143	H	1.214881	0.001881	0.749729
H144	H	1.548214	0.335214	1.083062
Cl145	Cl	0.560255	-0.439065	0.000009
Cl146	Cl	0.893589	-0.105732	0.333343
Cl147	Cl	1.226922	0.227602	0.666676
H148	H	0.387785	-0.382841	0.000027
H149	H	0.721118	-0.049508	0.333360
H150	H	1.054452	0.283825	0.666693
H151	H	0.908819	0.390805	0.133320
H152	H	1.242153	0.724138	0.466653
H153	H	1.575486	1.057472	0.799986
Cl154	Cl	0.406089	0.090785	0.000023
Cl155	Cl	0.739423	0.424119	0.333357
Cl156	Cl	1.072756	0.757452	0.666690
H157	H	1.084799	-0.016829	0.583659
H158	H	1.418132	0.316504	0.916992
H159	H	1.751465	0.649838	1.250326
Cl160	Cl	1.163698	0.461856	0.000180
Cl161	Cl	1.497031	0.795189	0.333514
Cl162	Cl	1.830364	1.128522	0.666847
Cl163	Cl	0.601862	0.085495	0.000035
Cl164	Cl	0.935196	0.418829	0.333368
Cl165	Cl	1.268529	0.752162	0.666702
H166	H	0.908844	0.390727	-0.133179
H167	H	1.242177	0.724060	0.200154
H168	H	1.575511	1.057394	0.533487
