data_functionalizedCrystal
_audit_creation_method	'MofGen! by Chris Wilmer'
_symmetry_space_group_name_H-M	'P1'
_symmetry_Int_Tables_number	1
_symmetry_cell_setting	triclinic
loop_
_symmetry_equiv_pos_as_xyz
  x,y,z
_cell_length_a	18.215407
_cell_length_b	13.032781
_cell_length_c	13.032268
_cell_angle_alpha	103.289483
_cell_angle_beta	97.162109
_cell_angle_gamma	97.204541
loop_
_atom_site_label
_atom_site_type_symbol
_atom_site_fract_x
_atom_site_fract_y
_atom_site_fract_z
Zn1	Zn	1.021919	-0.499071	-0.654220
Zn2	Zn	1.355252	-0.165737	-0.320886
Zn3	Zn	1.688586	0.167596	0.012447
Zn4	Zn	1.021840	-0.654154	-0.499167
Zn5	Zn	1.355173	-0.320821	-0.165833
Zn6	Zn	1.688506	0.012513	0.167500
Zn7	Zn	0.916754	-0.476566	-0.476637
Zn8	Zn	1.250087	-0.143233	-0.143304
Zn9	Zn	1.583421	0.190100	0.190029
Zn10	Zn	0.880934	-0.676629	-0.676706
Zn11	Zn	1.214267	-0.343295	-0.343373
Zn12	Zn	1.547601	-0.009962	-0.010039
O13	O	0.960362	-0.576605	-0.576682
O14	O	1.293695	-0.243272	-0.243349
O15	O	1.627028	0.090062	0.089984
O16	O	1.124890	-0.519655	-0.633669
O17	O	1.458223	-0.186322	-0.300336
O18	O	1.791557	0.147012	0.032997
O19	O	1.022858	-0.611773	-0.347559
O20	O	1.356191	-0.278439	-0.014225
O21	O	1.689524	0.054894	0.319108
O22	O	0.945728	-0.330922	-0.481355
O23	O	1.279062	0.002411	-0.148021
O24	O	1.612395	0.335745	0.185312
O25	O	1.124832	-0.633594	-0.519753
O26	O	1.458165	-0.300261	-0.186420
O27	O	1.791499	0.033073	0.146914
O28	O	1.022993	-0.347456	-0.611824
O29	O	1.356326	-0.014122	-0.278490
O30	O	1.689660	0.319211	0.054843
O31	O	0.945652	-0.481300	-0.331006
O32	O	1.278985	-0.147967	0.002327
O33	O	1.612318	0.185367	0.335660
O34	O	0.809021	-0.503093	-0.503159
O35	O	1.142354	-0.169760	-0.169825
O36	O	1.475688	0.163574	0.163508
O37	O	0.884678	-0.671899	-0.822343
O38	O	1.218012	-0.338566	-0.489009
O39	O	1.551345	-0.005232	-0.155676
O40	O	0.782704	-0.650078	-0.650148
O41	O	1.116037	-0.316744	-0.316815
O42	O	1.449371	0.016589	0.016518
O43	O	0.988260	-0.541448	-0.805822
O44	O	1.321593	-0.208115	-0.472489
O45	O	1.654926	0.125219	-0.139155
O46	O	0.988124	-0.805765	-0.541557
O47	O	1.321458	-0.472432	-0.208224
O48	O	1.654791	-0.139098	0.125110
O49	O	0.884601	-0.822277	-0.671994
O50	O	1.217935	-0.488944	-0.338661
O51	O	1.551268	-0.155610	-0.005327
C52	C	0.769160	-0.576583	-0.576650
C53	C	1.102494	-0.243250	-0.243316
C54	C	1.435827	0.090084	0.090017
C55	C	0.687358	-0.576602	-0.576664
C56	C	1.020692	-0.243269	-0.243331
C57	C	1.354025	0.090064	0.090003
C58	C	0.485478	-0.653233	-0.653130
C59	C	0.818812	-0.319900	-0.319796
C60	C	1.152145	0.013433	0.013537
C61	C	0.408618	-0.653238	-0.653143
C62	C	0.741951	-0.319905	-0.319810
C63	C	1.075285	0.013428	0.013523
C64	C	0.435993	-0.499999	-0.500261
C65	C	0.769326	-0.166666	-0.166927
C66	C	1.102659	0.166668	0.166406
C67	C	0.512852	-0.499990	-0.500252
C68	C	0.846185	-0.166657	-0.166919
C69	C	1.179518	0.166677	0.166414
C70	C	0.537592	-0.576613	-0.576686
C71	C	0.870925	-0.243280	-0.243353
C72	C	1.204259	0.090054	0.089980
C73	C	0.383873	-0.576627	-0.576708
C74	C	0.717206	-0.243294	-0.243375
C75	C	1.050539	0.090040	0.089959
C76	C	0.300537	-0.576632	-0.576722
C77	C	0.633871	-0.243298	-0.243389
C78	C	0.967204	0.090035	0.089944
C79	C	0.620933	-0.576607	-0.576674
C80	C	0.954266	-0.243274	-0.243340
C81	C	1.287599	0.090059	0.089993
C82	C	0.932485	-0.852562	-0.611684
C83	C	1.265818	-0.519229	-0.278350
C84	C	1.599152	-0.185895	0.054983
C85	C	0.920623	-0.970622	-0.626693
C86	C	1.253956	-0.637289	-0.293359
C87	C	1.587289	-0.303955	0.039974
C88	C	0.954333	-1.137079	-0.584401
C89	C	1.287666	-0.803746	-0.251067
C90	C	1.621000	-0.470413	0.082266
C91	C	0.966595	-1.015058	-0.568888
C92	C	1.299928	-0.681725	-0.235554
C93	C	1.633262	-0.348391	0.097779
C94	C	1.152310	-0.576628	-0.576716
C95	C	1.485643	-0.243295	-0.243383
C96	C	1.818976	0.090039	0.089951
C97	C	1.234106	-0.576638	-0.576730
C98	C	1.567440	-0.243304	-0.243397
C99	C	1.900773	0.090029	0.089936
C100	C	0.932482	-0.611691	-0.853695
C101	C	1.265815	-0.278357	-0.520362
C102	C	1.599149	0.054976	-0.187028
C103	C	0.920602	-0.626642	-0.971741
C104	C	1.253935	-0.293309	-0.638408
C105	C	1.587268	0.040024	-0.305075
C106	C	0.988365	-0.299573	-0.541568
C107	C	1.321698	0.033760	-0.208234
C108	C	1.655032	0.367093	0.125099
C109	C	1.000299	-0.181519	-0.526604
C110	C	1.333632	0.151814	-0.193271
C111	C	1.666965	0.485148	0.140063
C112	C	0.966555	-0.568764	-1.016196
C113	C	1.299888	-0.235430	-0.682863
C114	C	1.633221	0.097903	-0.349529
C115	C	0.954277	-0.584215	-1.138203
C116	C	1.287610	-0.250882	-0.804870
C117	C	1.620943	0.082451	-0.471536
C118	C	0.988183	-0.541579	-0.300738
C119	C	1.321516	-0.208246	0.032596
C120	C	1.654850	0.125088	0.365929
C121	C	1.000236	-0.526328	-0.182654
C122	C	1.333570	-0.192995	0.150679
C123	C	1.666903	0.140338	0.484013
H124	H	0.415839	-0.437617	-0.438030
H125	H	0.749173	-0.104283	-0.104696
H126	H	1.082506	0.229050	0.228637
H127	H	0.905837	-0.645204	-1.190464
H128	H	1.239171	-0.311871	-0.857131
H129	H	1.572504	0.021463	-0.523798
H130	H	0.555286	-0.437590	-0.438002
H131	H	0.888619	-0.104257	-0.104669
H132	H	1.221952	0.229077	0.228665
H133	H	0.905905	-1.189369	-0.645371
H134	H	1.239238	-0.856036	-0.312038
H135	H	1.572571	-0.522702	0.021295
H136	H	0.872191	-1.022907	-0.687668
H137	H	1.205524	-0.689574	-0.354335
H138	H	1.538858	-0.356240	-0.021002
C139	C	1.065728	-1.110891	-0.444238
C140	C	1.399062	-0.777557	-0.110905
C141	C	1.732395	-0.444224	0.222428
C142	C	1.049887	-1.024110	-0.351193
C143	C	1.383221	-0.690776	-0.017860
C144	C	1.716554	-0.357443	0.315474
C145	C	1.115319	-0.953484	-0.268825
C146	C	1.448652	-0.620151	0.064508
C147	C	1.781986	-0.286818	0.397842
C148	C	1.196591	-0.969640	-0.279502
C149	C	1.529925	-0.636306	0.053831
C150	C	1.863258	-0.302973	0.387164
C151	C	1.212436	-1.056425	-0.372552
C152	C	1.545769	-0.723091	-0.039218
C153	C	1.879103	-0.389758	0.294115
C154	C	1.147004	-1.127050	-0.454920
C155	C	1.480338	-0.793717	-0.121586
C156	C	1.813671	-0.460383	0.211747
H157	H	0.989721	-1.012147	-0.343285
H158	H	1.323055	-0.678814	-0.009952
H159	H	1.656388	-0.345480	0.323381
H160	H	1.103589	-0.889240	-0.199944
H161	H	1.436923	-0.555907	0.133389
H162	H	1.770256	-0.222574	0.466723
H163	H	1.245028	-0.917359	-0.218529
H164	H	1.578361	-0.584025	0.114805
H165	H	1.911694	-0.250692	0.448138
H166	H	1.272602	-1.068387	-0.380459
H167	H	1.605935	-0.735054	-0.047126
H168	H	1.939269	-0.401721	0.286208
H169	H	1.158734	-1.191294	-0.523801
H170	H	1.492067	-0.857961	-0.190467
H171	H	1.825401	-0.524627	0.142866
C172	C	1.031987	-0.486367	-0.945598
C173	C	1.365320	-0.153033	-0.612264
C174	C	1.698653	0.180300	-0.278931
C175	C	1.016151	-0.393385	-0.858743
C176	C	1.349484	-0.060052	-0.525410
C177	C	1.682818	0.273282	-0.192077
C178	C	1.081585	-0.310987	-0.788147
C179	C	1.414918	0.022346	-0.454813
C180	C	1.748252	0.355679	-0.121480
C181	C	1.162855	-0.321571	-0.804404
C182	C	1.496188	0.011762	-0.471071
C183	C	1.829522	0.345095	-0.137738
C184	C	1.178694	-0.414557	-0.891262
C185	C	1.512028	-0.081224	-0.557929
C186	C	1.845361	0.252110	-0.224596
C187	C	1.113260	-0.496955	-0.961859
C188	C	1.446594	-0.163621	-0.628526
C189	C	1.779927	0.169712	-0.295192
H190	H	0.955987	-0.385547	-0.846705
H191	H	1.289320	-0.052213	-0.513372
H192	H	1.622654	0.281120	-0.180038
H193	H	1.069859	-0.242153	-0.723849
H194	H	1.403193	0.091180	-0.390515
H195	H	1.736526	0.424513	-0.057182
H196	H	1.211293	-0.260576	-0.752144
H197	H	1.544627	0.072758	-0.418811
H198	H	1.877960	0.406091	-0.085478
H199	H	1.238859	-0.422395	-0.903301
H200	H	1.572192	-0.089062	-0.569967
H201	H	1.905525	0.244271	-0.236634
H202	H	1.124986	-0.565789	-1.026157
H203	H	1.458320	-0.232456	-0.692824
H204	H	1.791653	0.100878	-0.359490
H205	H	0.366189	-0.715629	-0.715393
H206	H	0.699522	-0.382295	-0.382059
H207	H	1.032856	-0.048962	-0.048726
C208	C	1.065671	-0.443925	-1.112061
C209	C	1.399005	-0.110592	-0.778727
C210	C	1.732338	0.222742	-0.445394
C211	C	1.146941	-0.454507	-1.128319
C212	C	1.480275	-0.121173	-0.794986
C213	C	1.813608	0.212160	-0.461653
C214	C	1.212375	-0.372106	-1.057726
C215	C	1.545708	-0.038772	-0.724392
C216	C	1.879041	0.294561	-0.391059
C217	C	1.196538	-0.279123	-0.970873
C218	C	1.529871	0.054211	-0.637540
C219	C	1.863205	0.387544	-0.304207
C220	C	1.115264	-0.268537	-0.954611
C221	C	1.448598	0.064796	-0.621278
C222	C	1.781931	0.398130	-0.287944
C223	C	1.049831	-0.350938	-1.025205
C224	C	1.383164	-0.017605	-0.691871
C225	C	1.716498	0.315728	-0.358538
H226	H	1.158668	-0.523342	-1.192616
H227	H	1.492001	-0.190008	-0.859283
H228	H	1.825334	0.143325	-0.525949
H229	H	1.272539	-0.379942	-1.069765
H230	H	1.605872	-0.046609	-0.736431
H231	H	1.939206	0.286724	-0.403098
H232	H	1.244976	-0.218124	-0.918616
H233	H	1.578309	0.115209	-0.585282
H234	H	1.911642	0.448542	-0.251949
H235	H	1.103538	-0.199702	-0.890314
H236	H	1.436871	0.133631	-0.556981
H237	H	1.770204	0.466965	-0.223648
H238	H	0.989667	-0.343102	-1.013166
H239	H	1.323000	-0.009768	-0.679832
H240	H	1.656333	0.323565	-0.346499
H241	H	1.015032	-0.962774	-0.507921
H242	H	1.348365	-0.629440	-0.174587
H243	H	1.681698	-0.296107	0.158746
H244	H	0.872166	-0.687627	-1.024006
H245	H	1.205499	-0.354293	-0.690673
H246	H	1.538832	-0.020960	-0.357340
H247	H	0.505619	-0.715622	-0.715369
H248	H	0.838952	-0.382289	-0.382036
H249	H	1.172286	-0.048956	-0.048703
