data_functionalizedCrystal
_audit_creation_method	'MofGen! by Chris Wilmer'
_symmetry_space_group_name_H-M	'P1'
_symmetry_Int_Tables_number	1
_symmetry_cell_setting	triclinic
loop_
_symmetry_equiv_pos_as_xyz
  x,y,z
_cell_length_a	19.805405
_cell_length_b	12.759401
_cell_length_c	12.759393
_cell_angle_alpha	90.019596
_cell_angle_beta	90.036554
_cell_angle_gamma	90.026688
loop_
_atom_site_label
_atom_site_type_symbol
_atom_site_fract_x
_atom_site_fract_y
_atom_site_fract_z
Zn1	Zn	-0.269425	1.606181	0.593938
Zn2	Zn	-0.382628	1.606036	0.418240
Zn3	Zn	-0.269459	1.430480	0.418278
Zn4	Zn	-0.382578	1.430436	0.593881
O5	O	-0.326023	1.518283	0.506084
O6	O	-0.284449	1.753183	0.570640
O7	O	-0.367651	1.582706	0.271224
O8	O	-0.174738	1.453866	0.441619
O9	O	-0.367618	1.753076	0.441555
O10	O	-0.174713	1.582953	0.570676
O11	O	-0.284506	1.453725	0.271251
O12	O	-0.284458	1.283453	0.441564
O13	O	-0.367534	1.453791	0.740910
O14	O	-0.367566	1.283420	0.570579
O15	O	-0.284401	1.582910	0.740952
O16	O	-0.477338	1.582663	0.441499
O17	O	-0.477302	1.453650	0.570542
C18	C	-0.326011	1.245316	0.506070
C19	C	-0.326022	1.128539	0.506088
C20	C	-0.369372	0.963957	0.573168
C21	C	-0.369365	1.073681	0.573157
C22	C	-0.282688	1.073668	0.439019
C23	C	-0.282700	0.963946	0.439025
C24	C	-0.501879	1.518165	0.506033
C25	C	-0.577111	1.518210	0.506047
C26	C	-0.612451	1.585453	0.438924
C27	C	-0.683140	1.585497	0.438948
C28	C	-0.718486	1.518293	0.506089
C29	C	-0.683141	1.451048	0.573218
C30	C	-0.612454	1.451010	0.573200
C31	C	-0.968214	1.451203	0.573296
C32	C	-1.038906	1.451245	0.573307
C33	C	-1.038900	1.585691	0.439044
C34	C	-0.968213	1.585652	0.439025
C35	C	-0.932874	1.518411	0.506159
C36	C	-0.856225	1.518365	0.506134
C37	C	-0.795133	1.518334	0.506109
C38	C	-0.149480	1.518430	0.506158
C39	C	-0.074248	1.518493	0.506190
C40	C	-0.325958	1.518362	0.780118
C41	C	-0.325930	1.518395	0.896894
C42	C	-0.326035	1.792316	0.506099
C43	C	-0.326041	1.909093	0.506106
C44	C	-0.326039	1.518265	0.233117
C45	C	-0.325876	1.518435	0.116341
C46	C	-0.282636	1.585633	0.951780
C47	C	-0.282607	1.585650	1.061504
C48	C	-0.369172	1.451190	1.061447
C49	C	-0.369197	1.451168	0.951725
H50	H	-0.247413	0.919274	0.384410
C51	C	-0.573957	1.658304	0.366066
C52	C	-0.504487	1.643862	0.380392
C53	C	-0.469007	1.710948	0.313283
H54	H	-0.585415	1.728935	0.381440
H55	H	-0.585548	1.642961	0.295442
H56	H	-0.492900	1.659212	0.450999
H57	H	-0.493009	1.573244	0.365010
H58	H	-0.480598	1.695605	0.242660
H59	H	-0.480470	1.781575	0.328663
H60	H	-0.421868	1.701151	0.322987
C61	C	-0.416233	1.378387	1.121038
C62	C	-0.459617	1.437852	1.183996
C63	C	-0.502987	1.370823	1.238892
H64	H	-0.390408	1.332621	1.163933
H65	H	-0.442061	1.338355	1.072666
H66	H	-0.433792	1.477866	1.232362
H67	H	-0.485457	1.483614	1.141127
H68	H	-0.528814	1.330791	1.190521
H69	H	-0.477156	1.325060	1.281782
H70	H	-0.532432	1.411160	1.281608
H71	H	-0.404452	1.396408	0.907036
C72	C	-0.416502	0.904590	0.646034
C73	C	-0.454460	0.976128	0.704743
C74	C	-0.497890	0.921482	0.771869
H75	H	-0.390724	0.861818	0.691980
H76	H	-0.446004	0.861778	0.605790
H77	H	-0.424961	1.018923	0.744984
H78	H	-0.480252	1.018904	0.658824
H79	H	-0.527392	0.878670	0.731625
H80	H	-0.472106	0.878711	0.817808
H81	H	-0.523654	0.970012	0.811704
H82	H	-0.404650	1.118346	0.627765
H83	H	-0.711911	1.640252	0.384289
H84	H	-0.247401	1.118342	0.384405
H85	H	-0.939436	1.640372	0.384350
C86	C	-1.077392	1.658687	0.366297
C87	C	-1.146863	1.644375	0.380710
C88	C	-1.182340	1.711615	0.313733
H89	H	-1.065941	1.643425	0.295641
H90	H	-1.065791	1.729279	0.381759
H91	H	-1.158459	1.573800	0.365241
H92	H	-1.158334	1.659645	0.451352
H93	H	-1.170739	1.782207	0.329195
H94	H	-1.170884	1.696347	0.243081
H95	H	-1.229479	1.701921	0.323510
H96	H	-0.939446	1.396451	0.627956
H97	H	-1.067683	1.396521	0.627990
C98	C	-0.721637	1.378122	0.646001
C99	C	-0.791106	1.392524	0.631631
C100	C	-0.826588	1.325348	0.698648
H101	H	-0.710091	1.393387	0.716645
H102	H	-0.710134	1.307511	0.630549
H103	H	-0.802604	1.463118	0.647090
H104	H	-0.802672	1.377251	0.561000
H105	H	-0.815085	1.254737	0.683196
H106	H	-0.815036	1.340618	0.769288
H107	H	-0.873726	1.335103	0.688900
H108	H	-0.583680	1.396256	0.627859
C109	C	-0.235542	1.658481	0.892306
C110	C	-0.168567	1.635642	0.919005
C111	C	-0.125162	1.702718	0.864232
H112	H	-0.245356	1.729105	0.910250
H113	H	-0.241710	1.648834	0.819087
H114	H	-0.162402	1.645298	0.992207
H115	H	-0.158732	1.565030	0.901058
H116	H	-0.131330	1.693071	0.791014
H117	H	-0.134982	1.773338	0.882180
H118	H	-0.079715	1.687225	0.882332
H119	H	-0.247351	1.640400	1.106187
