data_functionalizedCrystal
_audit_creation_method	'MofGen! by Chris Wilmer'
_symmetry_space_group_name_H-M	'P1'
_symmetry_Int_Tables_number	1
_symmetry_cell_setting	triclinic
loop_
_symmetry_equiv_pos_as_xyz
  x,y,z
_cell_length_a	16.109301
_cell_length_b	10.540539
_cell_length_c	14.586319
_cell_angle_alpha	89.998343
_cell_angle_beta	89.999213
_cell_angle_gamma	83.993486
loop_
_atom_site_label
_atom_site_type_symbol
_atom_site_fract_x
_atom_site_fract_y
_atom_site_fract_z
O1	O	1.104129	0.163159	-0.076178
O2	O	1.604129	0.663159	0.423822
O3	O	0.862191	0.183464	-0.076192
O4	O	1.362191	0.683464	0.423808
O5	O	0.988679	-0.011474	-0.076184
O6	O	1.488679	0.488526	0.423816
O7	O	0.977640	0.358096	-0.076186
O8	O	1.477640	0.858096	0.423814
O9	O	0.988670	-0.011477	0.076297
O10	O	1.488670	0.488523	0.576297
O11	O	0.862182	0.183461	0.076289
O12	O	1.362182	0.683461	0.576289
O13	O	1.104120	0.163156	0.076303
O14	O	1.604120	0.663156	0.576303
Cu15	Cu	0.983150	0.173308	0.090219
Cu16	Cu	1.483150	0.673308	0.590219
Cu17	Cu	0.983160	0.173312	-0.090108
Cu18	Cu	1.483160	0.673312	0.409892
O19	O	0.977631	0.358094	0.076294
O20	O	1.477631	0.858094	0.576294
C21	C	0.831206	0.182640	0.000047
C22	C	1.331206	0.682640	0.500047
C23	C	0.738896	0.180174	0.000041
C24	C	1.238896	0.680174	0.500041
C25	C	0.987847	-0.058767	0.000055
C26	C	1.487847	0.441233	0.500055
C27	C	0.985370	-0.199679	0.000050
C28	C	1.485370	0.300321	0.500050
C29	C	0.517296	0.290112	0.000051
C30	C	1.017296	0.790112	0.500051
C31	C	0.430561	0.287785	0.000057
C32	C	0.930561	0.787785	0.500057
C33	C	0.449021	0.056499	0.000055
C34	C	0.949021	0.556499	0.500055
C35	C	0.535754	0.058827	0.000055
C36	C	1.035754	0.558827	0.500055
C37	C	0.569889	0.175637	0.000049
C38	C	1.069889	0.675637	0.500049
C39	C	0.396421	0.170982	0.000054
C40	C	0.896421	0.670982	0.500054
C41	C	0.302380	0.168459	0.000060
C42	C	0.802380	0.668459	0.500060
C43	C	0.663936	0.178162	0.000044
C44	C	1.163936	0.678162	0.500044
C45	C	0.890460	-0.381753	-0.000298
C46	C	1.390460	0.118247	0.499702
C47	C	0.892971	-0.235171	0.000046
C48	C	1.392971	0.264829	0.500046
C49	C	1.029832	-0.261973	0.087127
C50	C	1.529832	0.238027	0.587127
C51	C	1.026678	-0.408472	0.087200
C52	C	1.526678	0.091528	0.587200
C53	C	1.028567	-0.409014	-0.086199
C54	C	1.528567	0.090986	0.413801
C55	C	1.029419	-0.262044	-0.087350
C56	C	1.529419	0.237956	0.412650
C57	C	1.135104	0.163980	0.000062
C58	C	1.635104	0.663980	0.500062
C59	C	1.227414	0.166446	0.000062
C60	C	1.727414	0.666446	0.500062
C61	C	0.978463	0.405386	0.000054
C62	C	1.478463	0.905386	0.500054
C63	C	0.980940	0.546299	0.000053
C64	C	1.480940	1.046299	0.500053
N65	N	0.983149	0.173305	0.217050
N66	N	1.483149	0.673305	0.717050
N67	N	0.983168	0.173305	-0.216939
N68	N	1.483168	0.673305	0.283061
C69	C	1.039177	0.087015	0.452060
C70	C	1.539177	0.587015	0.952060
C71	C	1.039179	0.087012	0.548042
C72	C	1.539179	0.587012	1.048042
C73	C	0.927134	0.259598	0.548044
C74	C	1.427134	0.759598	1.048044
C75	C	0.927129	0.259594	0.452064
C76	C	1.427129	0.759594	0.952064
C77	C	0.983154	0.173304	0.404075
C78	C	1.483154	0.673304	0.904075
C79	C	0.983163	0.173305	0.596036
C80	C	1.483163	0.673305	1.096036
C81	C	0.983165	0.173303	0.700103
C82	C	1.483165	0.673303	1.200103
C83	C	0.983151	0.173305	0.300001
C84	C	1.483151	0.673305	0.800001
H85	H	0.545085	0.385227	0.000052
H86	H	1.045085	0.885227	0.500052
H87	H	0.387743	0.381003	0.000060
H88	H	0.887743	0.881003	0.500060
C89	C	0.865535	0.354581	0.399277
C90	C	1.365535	0.854581	0.899277
N91	N	0.819156	0.426141	0.359518
N92	N	1.319156	0.926141	0.859518
C93	C	0.865508	0.354510	0.600841
C94	C	1.365508	0.854510	1.100841
N95	N	0.819089	0.425999	0.640606
N96	N	1.319089	0.925999	1.140606
H97	H	0.857986	-0.192068	-0.062374
H98	H	1.357986	0.307932	0.437626
H99	H	0.421218	-0.038605	0.000066
H100	H	0.921218	0.461395	0.500066
C101	C	1.120431	-0.230630	-0.094446
C102	C	1.620431	0.269370	0.405554
N103	N	1.188987	-0.206975	-0.099782
N104	N	1.688987	0.293025	0.400218
H105	H	0.853964	-0.409832	-0.062742
H106	H	1.353964	0.090168	0.437258
H107	H	0.854105	-0.411444	0.061793
H108	H	1.354105	0.088556	0.561793
C109	C	1.100800	-0.007916	0.399276
C110	C	1.600800	0.492084	0.899276
N111	N	1.147214	-0.079425	0.359521
N112	N	1.647214	0.420575	0.859521
C113	C	1.100801	-0.007923	0.600821
C114	C	1.600801	0.492077	1.100821
N115	N	1.147215	-0.079436	0.640574
N116	N	1.647215	0.420564	1.140574
C117	C	1.121496	-0.233056	0.091521
C118	C	1.621496	0.266944	0.591521
N119	N	1.190536	-0.211264	0.094833
N120	N	1.690536	0.288736	0.594833
H121	H	1.095307	-0.457191	-0.086781
H122	H	1.595307	0.042809	0.413219
H123	H	0.857734	-0.192914	0.062566
H124	H	1.357734	0.307086	0.562566
C125	C	0.593611	-0.067111	0.000053
C126	C	1.093611	0.432889	0.500053
N127	N	0.637188	-0.161964	0.000054
N128	N	1.137188	0.338036	0.500054
H129	H	1.093130	-0.457388	0.091154
H130	H	1.593130	0.042612	0.591154
C131	C	0.982267	-0.445938	0.175125
C132	C	1.482267	0.054062	0.675125
N133	N	0.948813	-0.474151	0.241350
N134	N	1.448813	0.025849	0.741350
C135	C	0.988093	-0.203840	0.174665
C136	C	1.488093	0.296160	0.674665
N137	N	0.956650	-0.160058	0.240597
N138	N	1.456650	0.339942	0.740597
C139	C	0.988169	-0.451056	-0.175361
C140	C	1.488169	0.048944	0.324639
N141	N	0.957732	-0.482720	-0.242512
N142	N	1.457732	0.017280	0.257488
H143	H	0.996887	-0.220721	-0.151767
H144	H	1.496887	0.279279	0.348233
