data_functionalizedCrystal
_audit_creation_method	'MofGen! by Chris Wilmer'
_symmetry_space_group_name_H-M	'P1'
_symmetry_Int_Tables_number	1
_symmetry_cell_setting	triclinic
loop_
_symmetry_equiv_pos_as_xyz
  x,y,z
_cell_length_a	11.169417
_cell_length_b	10.686285
_cell_length_c	11.169417
_cell_angle_alpha	94.374231
_cell_angle_beta	90.000551
_cell_angle_gamma	85.633103
loop_
_atom_site_label
_atom_site_type_symbol
_atom_site_fract_x
_atom_site_fract_y
_atom_site_fract_z
Zn1	Zn	1.871441	-0.502498	0.641928
Zn2	Zn	2.371441	-0.002498	1.141928
Zn3	Zn	1.886805	-0.713453	0.425878
Zn4	Zn	2.386805	-0.213453	0.925878
Zn5	Zn	1.670792	-0.502486	0.441264
Zn6	Zn	2.170792	-0.002486	0.941264
Zn7	Zn	1.686142	-0.713442	0.626525
Zn8	Zn	2.186142	-0.213442	1.126525
O9	O	1.778795	-0.607970	0.533899
O10	O	2.278795	-0.107970	1.033899
O11	O	2.041429	-0.530492	0.613276
O12	O	2.541429	-0.030492	1.113276
O13	O	1.858156	-0.685466	0.259970
O14	O	2.358156	-0.185466	0.759970
O15	O	1.684555	-0.325916	0.480768
O16	O	2.184555	0.174084	0.980768
O17	O	2.052717	-0.685479	0.454545
O18	O	2.552717	-0.185479	0.954545
O19	O	1.831970	-0.325926	0.628195
O20	O	2.331970	0.174074	1.128195
O21	O	1.699453	-0.530470	0.271274
O22	O	2.199453	-0.030470	0.771274
O23	O	1.504878	-0.530460	0.465833
O24	O	2.004878	-0.030460	0.965833
O25	O	1.710716	-0.685461	0.796518
O26	O	2.210716	-0.185461	1.296518
O27	O	1.516155	-0.685449	0.601942
O28	O	2.016155	-0.185449	1.101942
O29	O	1.846854	-0.530482	0.807834
O30	O	2.346854	-0.030482	1.307834
O31	O	1.873040	-0.890022	0.439609
O32	O	2.373040	-0.390022	0.939609
O33	O	1.725614	-0.890015	0.587023
O34	O	2.225614	-0.390015	1.087023
C35	C	1.466969	-0.607953	0.533886
C36	C	1.966969	-0.107953	1.033886
C37	C	1.333571	-0.607976	0.533907
C38	C	1.833571	-0.107976	1.033907
C39	C	1.802692	-0.935802	0.510001
C40	C	2.302692	-0.435802	1.010001
C41	C	1.813026	-1.076049	0.499817
C42	C	2.313026	-0.576049	0.999817
C43	C	2.091838	-0.607988	0.533912
C44	C	2.591838	-0.107988	1.033912
C45	C	2.225239	-0.607995	0.533918
C46	C	2.725239	-0.107995	1.033918
C47	C	1.754837	-0.278858	0.557916
C48	C	2.254837	0.221142	1.057916
C49	C	1.744627	-0.138610	0.568151
C50	C	2.244627	0.361390	1.068151
C51	C	1.778783	-0.607972	0.846941
C52	C	2.278783	-0.107972	1.346941
C53	C	1.778779	-0.607973	0.980341
C54	C	2.278779	-0.107973	1.480341
C55	C	1.778794	-0.607991	1.222073
C56	C	2.278794	-0.107991	1.722073
C57	C	1.778782	-0.607974	1.088674
C58	C	2.278782	-0.107974	1.588674
H59	H	1.879485	-1.129789	0.433510
H60	H	2.379485	-0.629789	0.933510
H61	H	1.678163	-1.084878	0.634447
H62	H	2.178163	-0.584878	1.134447
