data_functionalizedCrystal
_audit_creation_method	'MofGen! by Chris Wilmer'
_symmetry_space_group_name_H-M	'P1'
_symmetry_Int_Tables_number	1
_symmetry_cell_setting	triclinic
loop_
_symmetry_equiv_pos_as_xyz
  x,y,z
_cell_length_a	8.497374
_cell_length_b	10.686220
_cell_length_c	10.686285
_cell_angle_alpha	89.654569
_cell_angle_beta	85.626860
_cell_angle_gamma	85.634072
loop_
_atom_site_label
_atom_site_type_symbol
_atom_site_fract_x
_atom_site_fract_y
_atom_site_fract_z
Zn1	Zn	0.670936	1.956019	0.352260
Zn2	Zn	1.170936	2.456019	0.852260
Zn3	Zn	0.385530	1.972080	0.561976
Zn4	Zn	0.885530	2.472080	1.061976
Zn5	Zn	0.425706	1.746303	0.368352
Zn6	Zn	0.925706	2.246303	0.868352
Zn7	Zn	0.667804	1.762345	0.578080
Zn8	Zn	1.167804	2.262345	1.078080
O9	O	0.537494	1.859187	0.465167
O10	O	1.037494	2.359187	0.965167
O11	O	0.617574	2.133691	0.366604
O12	O	1.117574	2.633691	0.866604
O13	O	0.170096	1.942138	0.536286
O14	O	0.670096	2.442138	1.036286
O15	O	0.476361	1.760688	0.190679
O16	O	0.976361	2.260688	0.690679
O17	O	0.407887	2.145490	0.520682
O18	O	0.907887	2.645490	1.020682
O19	O	0.656531	1.914765	0.178855
O20	O	1.156531	2.414765	0.678855
O21	O	0.199614	1.776261	0.394032
O22	O	0.699614	2.276261	0.894032
O23	O	0.473323	1.572890	0.409648
O24	O	0.973323	2.072890	0.909648
O25	O	0.888982	1.788028	0.548130
O26	O	1.388982	2.288028	1.048130
O27	O	0.651192	1.584676	0.563734
O28	O	1.151192	2.084676	1.063734
O29	O	0.891283	1.930319	0.382220
O30	O	1.391283	2.430319	0.882220
O31	O	0.404849	1.957693	0.739651
O32	O	0.904849	2.457693	1.239651
O33	O	0.612235	1.803601	0.751483
O34	O	1.112235	2.303601	1.251483
C35	C	0.566278	1.533267	0.490185
C36	C	1.066278	2.033267	0.990185
C37	C	0.578626	1.393839	0.500919
C38	C	1.078626	1.893839	1.000919
C39	C	0.503874	1.884165	0.791080
C40	C	1.003874	2.384165	1.291080
C41	C	0.489534	1.894965	0.930498
C42	C	0.989534	2.394965	1.430498
C43	C	0.948975	1.859177	0.465170
C44	C	1.448975	2.359177	0.965170
C45	C	1.127617	1.859181	0.465183
C46	C	1.627617	2.359181	0.965183
C47	C	0.508598	2.186379	0.440052
C48	C	1.008598	2.686379	0.940052
C49	C	0.496284	2.325809	0.429349
C50	C	0.996284	2.825809	0.929349
C51	C	0.571276	1.834145	0.137979
C52	C	1.071276	2.334145	0.637979
C53	C	0.585673	1.823474	-0.001449
C54	C	1.085673	2.323474	0.498551
H55	H	0.416340	1.374232	0.359865
H56	H	0.916340	1.874232	0.859865
H57	H	0.678954	1.754006	0.950157
H58	H	1.178954	2.254006	1.450157
H59	H	0.658565	1.345411	0.570415
H60	H	1.158565	1.845411	1.070415
C61	C	0.363496	1.988806	0.995874
C62	C	0.863496	2.488806	1.495874
H63	H	0.370061	1.983999	1.084146
H64	H	0.870061	2.483999	1.584146
H65	H	0.261273	1.968883	0.975903
H66	H	0.761273	2.468883	1.475903
H67	H	0.381421	2.071436	0.967918
H68	H	0.881421	2.571436	1.467918
