data_functionalizedCrystal
_audit_creation_method	'MofGen! by Chris Wilmer'
_symmetry_space_group_name_H-M	'P1'
_symmetry_Int_Tables_number	1
_symmetry_cell_setting	triclinic
loop_
_symmetry_equiv_pos_as_xyz
  x,y,z
_cell_length_a	22.010155
_cell_length_b	11.026607
_cell_length_c	23.532353
_cell_angle_alpha	95.706267
_cell_angle_beta	89.989620
_cell_angle_gamma	89.984973
loop_
_atom_site_label
_atom_site_type_symbol
_atom_site_fract_x
_atom_site_fract_y
_atom_site_fract_z
O1	O	0.050555	-1.607213	-0.238182
O2	O	0.383888	-1.273880	0.095152
O3	O	0.717222	-0.940547	0.428485
O4	O	0.050552	-1.254245	-0.211060
O5	O	0.383886	-0.920912	0.122273
O6	O	0.717219	-0.587579	0.455607
O7	O	0.050541	-1.441407	-0.142810
O8	O	0.383874	-1.108074	0.190523
O9	O	0.717207	-0.774741	0.523857
O10	O	0.050566	-1.420051	-0.306432
O11	O	0.383900	-1.086718	0.026902
O12	O	0.717233	-0.753385	0.360235
O13	O	-0.050510	-1.441351	-0.142804
O14	O	0.282824	-1.108018	0.190529
O15	O	0.616157	-0.774685	0.523863
O16	O	-0.050498	-1.254189	-0.211054
O17	O	0.282835	-0.920856	0.122279
O18	O	0.616169	-0.587523	0.455613
O19	O	-0.050495	-1.607157	-0.238176
O20	O	0.282838	-1.273824	0.095158
O21	O	0.616171	-0.940491	0.428491
Cu22	Cu	-0.059723	-1.430668	-0.224614
Cu23	Cu	0.273610	-1.097335	0.108719
Cu24	Cu	0.606943	-0.764002	0.442052
Cu25	Cu	0.059780	-1.430734	-0.224621
Cu26	Cu	0.393114	-1.097401	0.108712
Cu27	Cu	0.726447	-0.764068	0.442045
O28	O	-0.050484	-1.419995	-0.306426
O29	O	0.282849	-1.086662	0.026908
O30	O	0.616183	-0.753329	0.360241
C31	C	0.000027	-1.209069	-0.206054
C32	C	0.333360	-0.875736	0.127280
C33	C	0.666693	-0.542402	0.460613
C34	C	0.000025	-1.074541	-0.191138
C35	C	0.333358	-0.741208	0.142195
C36	C	0.666692	-0.407874	0.475529
C37	C	0.000014	-1.440846	-0.121534
C38	C	0.333347	-1.107513	0.211799
C39	C	0.666680	-0.774179	0.545132
C40	C	0.000007	-1.439243	-0.058147
C41	C	0.333341	-1.105909	0.275186
C42	C	0.666674	-0.772576	0.608520
N43	N	-0.143776	-1.430630	-0.224610
N44	N	0.189557	-1.097297	0.108723
N45	N	0.522891	-0.763964	0.442057
C46	C	-0.563549	-1.503809	-0.266669
C47	C	-0.230216	-1.170476	0.066665
C48	C	0.103118	-0.837142	0.399998
C49	C	-0.627157	-1.503823	-0.266669
C50	C	-0.293823	-1.170490	0.066665
C51	C	0.039510	-0.837157	0.399998
O52	O	-0.660043	-1.565999	-0.302420
O53	O	-0.326710	-1.232665	0.030913
O54	O	0.006624	-0.899332	0.364246
N55	N	-0.658983	-1.430758	-0.224617
N56	N	-0.325650	-1.097425	0.108716
N57	N	0.007684	-0.764092	0.442049
C58	C	-0.627198	-1.357684	-0.182560
C59	C	-0.293865	-1.024350	0.150774
C60	C	0.039468	-0.691017	0.484107
O61	O	-0.660110	-1.295538	-0.146791
O62	O	-0.326776	-0.962205	0.186542
O63	O	0.006557	-0.628872	0.519875
C64	C	-0.563592	-1.357677	-0.182558
C65	C	-0.230259	-1.024343	0.150776
C66	C	0.103075	-0.691010	0.484109
C67	C	-0.531769	-1.430737	-0.224615
C68	C	-0.198436	-1.097404	0.108718
C69	C	0.134898	-0.764070	0.442051
C70	C	-0.531726	-1.576864	-0.308722
C71	C	-0.198393	-1.243531	0.024611
C72	C	0.134941	-0.910198	0.357944
C73	C	-0.468123	-1.576848	-0.308723
C74	C	-0.134790	-1.243515	0.024610
C75	C	0.198544	-0.910181	0.357944
C76	C	-0.436343	-1.503776	-0.266669
C77	C	-0.103009	-1.170443	0.066664
C78	C	0.230324	-0.837110	0.399997
C79	C	-0.468166	-1.430721	-0.224616
C80	C	-0.134832	-1.097387	0.108718
C81	C	0.198501	-0.764054	0.442051
C82	C	-0.531808	-1.284609	-0.140498
C83	C	-0.198475	-0.951276	0.192835
C84	C	0.134858	-0.617943	0.526169
C85	C	-0.468198	-1.284609	-0.140500
C86	C	-0.134864	-0.951276	0.192834
C87	C	0.198469	-0.617943	0.526167
C88	C	-0.436375	-1.357670	-0.182557
C89	C	-0.103041	-1.024337	0.150776
C90	C	0.230292	-0.691003	0.484110
C91	C	-0.372782	-1.357633	-0.182563
C92	C	-0.039449	-1.024299	0.150771
C93	C	0.293884	-0.690966	0.484104
N94	N	-0.340956	-1.430698	-0.224614
N95	N	-0.007623	-1.097364	0.108719
N96	N	0.325711	-0.764031	0.442053
C97	C	-0.372736	-1.503769	-0.266668
C98	C	-0.039403	-1.170436	0.066666
C99	C	0.293930	-0.837103	0.399999
C100	C	-0.760776	-1.357705	-0.182566
C101	C	-0.427443	-1.024372	0.150767
C102	C	-0.094110	-0.691039	0.484100
C103	C	-0.824381	-1.357705	-0.182570
C104	C	-0.491048	-1.024371	0.150763
C105	C	-0.157715	-0.691038	0.484096
C106	C	-0.824335	-1.503846	-0.266679
C107	C	-0.491002	-1.170513	0.066654
C108	C	-0.157669	-0.837180	0.399988
C109	C	-0.760729	-1.503840	-0.266677
C110	C	-0.427396	-1.170506	0.066656
C111	C	-0.094062	-0.837173	0.399990
C112	C	-0.728950	-1.430770	-0.224618
C113	C	-0.395617	-1.097437	0.108715
C114	C	-0.062283	-0.764104	0.442049
C115	C	-0.239165	-1.503729	-0.266665
C116	C	0.094168	-1.170396	0.066668
C117	C	0.427502	-0.837062	0.400001
C118	C	-0.175556	-1.503702	-0.266663
C119	C	0.157777	-1.170369	0.066670
C120	C	0.491111	-0.837036	0.400003
C121	C	-0.175608	-1.357566	-0.182553
C122	C	0.157726	-1.024233	0.150780
C123	C	0.491059	-0.690899	0.484113
C124	C	-0.239211	-1.357587	-0.182557
C125	C	0.094122	-1.024254	0.150777
C126	C	0.427456	-0.690921	0.484110
C127	C	-0.270988	-1.430678	-0.224615
C128	C	0.062345	-1.097345	0.108718
C129	C	0.395679	-0.764012	0.442051
O130	O	-0.339856	-1.295493	-0.146828
O131	O	-0.006522	-0.962159	0.186505
O132	O	0.326811	-0.628826	0.519839
O133	O	-0.339817	-1.565916	-0.302425
O134	O	-0.006484	-1.232583	0.030908
O135	O	0.326850	-0.899250	0.364241
N136	N	0.143833	-1.430782	-0.224622
N137	N	0.477166	-1.097449	0.108711
N138	N	0.810499	-0.764115	0.442044
C139	C	0.000032	-1.652334	-0.243182
C140	C	0.333365	-1.319000	0.090151
C141	C	0.666698	-0.985667	0.423485
C142	C	0.000037	-1.786862	-0.258098
C143	C	0.333370	-1.453528	0.075236
C144	C	0.666704	-1.120195	0.408569
C145	C	0.000032	-1.000222	-0.232322
C146	C	0.333365	-0.666888	0.101011
C147	C	0.666699	-0.333555	0.434344
C148	C	0.000030	-0.861180	-0.216907
C149	C	0.333364	-0.527846	0.116426
C150	C	0.666697	-0.194513	0.449759
C151	C	0.055121	-1.429206	0.334921
C152	C	0.388454	-1.095873	0.668254
C153	C	0.721787	-0.762539	1.001587
C154	C	0.055124	-1.427682	0.394481
C155	C	0.388457	-1.094348	0.727814
C156	C	0.721790	-0.761015	1.061147
O157	O	0.101969	-1.426878	0.425282
O158	O	0.435302	-1.093545	0.758615
O159	O	0.768636	-0.760212	1.091948
N160	N	0.000042	-1.426895	0.424275
N161	N	0.333375	-1.093562	0.757608
N162	N	0.666708	-0.760229	1.090941
C163	C	-0.055047	-1.427621	0.394506
C164	C	0.278286	-1.094288	0.727839
C165	C	0.611620	-0.760954	1.061173
O166	O	-0.101898	-1.426811	0.425317
O167	O	0.231435	-1.093478	0.758651
O168	O	0.564769	-0.760144	1.091984
C169	C	-0.055049	-1.429137	0.334948
C170	C	0.278284	-1.095803	0.668281
C171	C	0.611617	-0.762470	1.001614
C172	C	0.000036	-1.429935	0.305156
C173	C	0.333369	-1.096602	0.638490
C174	C	0.666703	-0.763269	0.971823
C175	C	0.110202	-1.430004	0.305129
C176	C	0.443535	-1.096670	0.638463
C177	C	0.776868	-0.763337	0.971796
C178	C	0.110198	-1.431530	0.245573
C179	C	0.443532	-1.098197	0.578907
C180	C	0.776865	-0.764863	0.912240
C181	C	0.055114	-1.432259	0.215809
C182	C	0.388447	-1.098926	0.549142
C183	C	0.721781	-0.765593	0.882476
C184	C	0.000033	-1.431462	0.245600
C185	C	0.333366	-1.098128	0.578934
C186	C	0.666699	-0.764795	0.912267
C187	C	-0.110137	-1.429853	0.305181
C188	C	0.223196	-1.096520	0.638514
C189	C	0.556529	-0.763187	0.971847
C190	C	-0.110135	-1.431368	0.245618
C191	C	0.223198	-1.098035	0.578951
C192	C	0.556531	-0.764702	0.912285
C193	C	-0.055050	-1.432167	0.215827
C194	C	0.278284	-1.098834	0.549160
C195	C	0.611617	-0.765500	0.882493
C196	C	-0.055055	-1.433718	0.156280
C197	C	0.278278	-1.100384	0.489613
C198	C	0.611612	-0.767051	0.822947
N199	N	0.000027	-1.434504	0.126486
N200	N	0.333360	-1.101171	0.459819
N201	N	0.666694	-0.767837	0.793153
C202	C	0.055111	-1.433775	0.156251
C203	C	0.388445	-1.100441	0.489584
C204	C	0.721778	-0.767108	0.822917
C205	C	-0.055037	-1.424436	0.519583
C206	C	0.278296	-1.091103	0.852916
C207	C	0.611629	-0.757769	1.186250
C208	C	-0.055036	-1.422929	0.579140
C209	C	0.278298	-1.089596	0.912473
C210	C	0.611631	-0.756262	1.245807
C211	C	0.055135	-1.422988	0.579110
C212	C	0.388469	-1.089654	0.912444
C213	C	0.721802	-0.756321	1.245777
C214	C	0.055133	-1.424503	0.519552
C215	C	0.388466	-1.091170	0.852885
C216	C	0.721799	-0.757837	1.186219
C217	C	0.000044	-1.425222	0.489789
C218	C	0.333378	-1.091889	0.823122
C219	C	0.666711	-0.758556	1.156456
C220	C	0.055100	-1.436982	0.031179
C221	C	0.388433	-1.103648	0.364512
C222	C	0.721767	-0.770315	0.697845
C223	C	0.055092	-1.438513	-0.028383
C224	C	0.388425	-1.105180	0.304951
C225	C	0.721759	-0.771847	0.638284
C226	C	-0.055079	-1.438448	-0.028348
C227	C	0.278255	-1.105115	0.304986
C228	C	0.611588	-0.771781	0.638319
C229	C	-0.055071	-1.436923	0.031208
C230	C	0.278263	-1.103590	0.364542
C231	C	0.611596	-0.770256	0.697875
C232	C	0.000024	-1.436186	0.060970
C233	C	0.333357	-1.102852	0.394304
C234	C	0.666690	-0.769519	0.727637
O235	O	-0.101876	-1.434517	0.125441
O236	O	0.231457	-1.101184	0.458775
O237	O	0.564790	-0.767850	0.792108
O238	O	0.101955	-1.434569	0.125433
O239	O	0.435288	-1.101236	0.458766
O240	O	0.768621	-0.767902	0.792099
C241	C	0.000043	-1.420565	0.672298
C242	C	0.333377	-1.087232	1.005632
C243	C	0.666710	-0.753898	1.338965
C244	C	0.000049	-1.422193	0.608910
C245	C	0.333383	-1.088860	0.942243
C246	C	0.666716	-0.755527	1.275577
H247	H	-0.149649	-1.563196	-0.300914
H248	H	0.183685	-1.229863	0.032419
H249	H	0.517018	-0.896530	0.365752
H250	H	0.000036	-1.039531	-0.278994
H251	H	0.333369	-0.706198	0.054340
H252	H	0.666702	-0.372864	0.387673
C253	C	-0.725730	-1.584220	-0.312940
C254	C	-0.392396	-1.250887	0.020394
C255	C	-0.059063	-0.917553	0.353727
N256	N	-0.699371	-1.644770	-0.347786
N257	N	-0.366038	-1.311437	-0.014452
N258	N	-0.032705	-0.978103	0.318881
C259	C	-0.433245	-1.204221	-0.094231
C260	C	-0.099911	-0.870888	0.239102
C261	C	0.233422	-0.537554	0.572435
N262	N	-0.406919	-1.143669	-0.059384
N263	N	-0.073586	-0.810335	0.273950
N264	N	0.259747	-0.477002	0.607283
C265	C	-0.115667	-1.436056	0.063979
C266	C	0.217666	-1.102723	0.397313
C267	C	0.550999	-0.769389	0.730646
N268	N	-0.161310	-1.435391	0.088659
N269	N	0.172024	-1.102058	0.421992
N270	N	0.505357	-0.768725	0.755326
H271	H	-0.154996	-1.431936	0.221389
H272	H	0.178338	-1.098602	0.554722
H273	H	0.511671	-0.765269	0.888056
H274	H	0.000040	-0.826164	-0.304772
H275	H	0.333374	-0.492831	0.028561
H276	H	0.666707	-0.159497	0.361894
C277	C	-0.274111	-1.584121	-0.312936
C278	C	0.059223	-1.250787	0.020397
C279	C	0.392556	-0.917454	0.353730
N280	N	-0.300431	-1.644663	-0.347791
N281	N	0.032902	-1.311330	-0.014458
N282	N	0.366236	-0.977997	0.318876
C283	C	-0.140637	-1.277388	-0.136225
C284	C	0.192696	-0.944055	0.197108
C285	C	0.526029	-0.610721	0.530441
N286	N	-0.114296	-1.217075	-0.101302
N287	N	0.219037	-0.883742	0.232031
N288	N	0.552371	-0.550408	0.565364
H289	H	0.099988	-1.422390	0.603356
H290	H	0.433321	-1.089057	0.936689
H291	H	0.766655	-0.755723	1.270022
C292	C	-0.566674	-1.657232	-0.354998
C293	C	-0.233341	-1.323899	-0.021664
C294	C	0.099992	-0.990566	0.311669
N295	N	-0.592993	-1.717756	-0.389860
N296	N	-0.259660	-1.384422	-0.056527
N297	N	0.073674	-1.051089	0.276806
C298	C	0.000020	-0.808086	-0.153852
C299	C	0.333354	-0.474753	0.179481
C300	C	0.666687	-0.141420	0.512815
N301	N	0.000014	-0.768094	-0.106359
N302	N	0.333347	-0.434761	0.226974
N303	N	0.666681	-0.101428	0.560307
H304	H	-0.442218	-1.636347	-0.342969
H305	H	-0.108885	-1.303013	-0.009635
H306	H	0.224448	-0.969680	0.323698
H307	H	0.000033	-1.035231	-0.144467
H308	H	0.333367	-0.701898	0.188866
H309	H	0.666700	-0.368565	0.522200
C310	C	0.115693	-1.439388	-0.061149
C311	C	0.449026	-1.106055	0.272184
C312	C	0.782359	-0.772721	0.605517
N313	N	0.161336	-1.440043	-0.085827
N314	N	0.494670	-1.106710	0.247506
N315	N	0.828003	-0.773377	0.580839
H316	H	-0.265123	-1.298080	-0.148316
H317	H	0.068211	-0.964747	0.185018
H318	H	0.401544	-0.631413	0.518351
C319	C	0.115707	-1.436192	0.063907
C320	C	0.449040	-1.102858	0.397241
C321	C	0.782373	-0.769525	0.730574
N322	N	0.161356	-1.435610	0.088558
N323	N	0.494689	-1.102277	0.421891
N324	N	0.828022	-0.768943	0.755224
C325	C	-0.725825	-1.277301	-0.136301
C326	C	-0.392492	-0.943968	0.197032
C327	C	-0.059158	-0.610635	0.530366
N328	N	-0.699503	-1.216740	-0.101454
N329	N	-0.366169	-0.883407	0.231879
N330	N	-0.032836	-0.550074	0.565212
C331	C	0.170797	-1.432395	0.212811
C332	C	0.504131	-1.099061	0.546145
C333	C	0.837464	-0.765728	0.879478
N334	N	0.216444	-1.433041	0.188139
N335	N	0.549777	-1.099707	0.521472
N336	N	0.883111	-0.766374	0.854805
H337	H	0.155061	-1.429405	0.329357
H338	H	0.488394	-1.096072	0.662691
H339	H	0.821727	-0.762739	0.996024
H340	H	-0.850222	-1.563344	-0.300922
H341	H	-0.516889	-1.230011	0.032412
H342	H	-0.183556	-0.896677	0.365745
C343	C	-0.859380	-1.277318	-0.136309
C344	C	-0.526046	-0.943985	0.197025
C345	C	-0.192713	-0.610652	0.530358
N346	N	-0.885738	-1.216773	-0.101461
N347	N	-0.552405	-0.883440	0.231872
N348	N	-0.219071	-0.550106	0.565205
H349	H	0.099988	-1.425152	0.495300
H350	H	0.433322	-1.091819	0.828633
H351	H	0.766655	-0.758485	1.161966
C352	C	-0.115634	-1.422063	0.611903
C353	C	0.217699	-1.088729	0.945237
C354	C	0.551033	-0.755396	1.278570
N355	N	-0.161279	-1.421401	0.636579
N356	N	0.172054	-1.088067	0.969912
N357	N	0.505388	-0.754734	1.303246
C358	C	-0.115669	-1.439238	-0.061099
C359	C	0.217665	-1.105905	0.272234
C360	C	0.550998	-0.772572	0.605567
N361	N	-0.161305	-1.439821	-0.085769
N362	N	0.172028	-1.106487	0.247564
N363	N	0.505361	-0.773154	0.580897
H364	H	-0.099900	-1.425025	0.495353
H365	H	0.233434	-1.091692	0.828687
H366	H	0.566767	-0.758358	1.162020
H367	H	-0.557708	-1.225117	-0.106250
H368	H	-0.224375	-0.891784	0.227084
H369	H	0.108959	-0.558451	0.560417
H370	H	-0.154994	-1.429205	0.329426
H371	H	0.178339	-1.095872	0.662760
H372	H	0.511673	-0.762538	0.996093
