data_functionalizedCrystal
_audit_creation_method	'MofGen! by Chris Wilmer'
_symmetry_space_group_name_H-M	'P1'
_symmetry_Int_Tables_number	1
_symmetry_cell_setting	triclinic
loop_
_symmetry_equiv_pos_as_xyz
  x,y,z
_cell_length_a	14.044191
_cell_length_b	14.044190
_cell_length_c	8.140239
_cell_angle_alpha	89.991557
_cell_angle_beta	89.999659
_cell_angle_gamma	93.191777
loop_
_atom_site_label
_atom_site_type_symbol
_atom_site_fract_x
_atom_site_fract_y
_atom_site_fract_z
O1	O	1.277176	0.230199	-0.136568
O2	O	1.000503	0.221886	-0.136588
O3	O	1.134683	0.087706	-0.136546
O4	O	1.142996	0.364379	-0.136610
O5	O	1.134675	0.087704	0.136681
O6	O	1.000495	0.221884	0.136639
O7	O	1.277168	0.230197	0.136659
Zn8	Zn	1.138830	0.226040	0.180030
Zn9	Zn	1.138841	0.226043	-0.179959
O10	O	1.142988	0.364377	0.136617
C11	C	0.964877	0.218249	0.000024
C12	C	0.858734	0.207401	0.000018
C13	C	0.613277	0.264502	0.000021
C14	C	0.664400	0.187585	0.000036
C15	C	0.772537	0.198614	0.000026
C16	C	0.505130	0.253475	0.000031
C17	C	1.131043	0.052083	0.000072
C18	C	1.120195	-0.054060	0.000086
C19	C	1.177296	-0.299517	0.000025
C20	C	1.100379	-0.248394	0.000031
C21	C	1.111408	-0.140257	0.000062
C22	C	1.166269	-0.407664	-0.000005
C23	C	1.312794	0.233834	0.000044
C24	C	1.418937	0.244682	0.000039
C25	C	1.146628	0.400000	-0.000005
C26	C	1.157476	0.506143	-0.000029
N27	N	1.138830	0.226038	0.425712
N28	N	1.138848	0.226038	-0.425641
H29	H	0.626955	0.113453	-0.000063
H30	H	0.650720	0.338629	-0.000001
Br31	Br	0.976818	-0.310800	0.000016
H32	H	1.251423	-0.262074	0.000048
