data_functionalizedCrystal
_audit_creation_method	'MofGen! by Chris Wilmer'
_symmetry_space_group_name_H-M	'P1'
_symmetry_Int_Tables_number	1
_symmetry_cell_setting	triclinic
loop_
_symmetry_equiv_pos_as_xyz
  x,y,z
_cell_length_a	16.959455
_cell_length_b	16.959454
_cell_length_c	10.686551
_cell_angle_alpha	85.595422
_cell_angle_beta	85.601571
_cell_angle_gamma	90.019023
loop_
_atom_site_label
_atom_site_type_symbol
_atom_site_fract_x
_atom_site_fract_y
_atom_site_fract_z
Zn1	Zn	1.242748	-0.280354	-0.713568
Zn2	Zn	1.232509	-0.422699	-0.502568
Zn3	Zn	1.100415	-0.290536	-0.502572
Zn4	Zn	1.110538	-0.412495	-0.713508
O5	O	1.171553	-0.351521	-0.608054
O6	O	1.352002	-0.299246	-0.685601
O7	O	1.206465	-0.413699	-0.325987
O8	O	1.119345	-0.178573	-0.530587
O9	O	1.344479	-0.403826	-0.530581
O10	O	1.223916	-0.171092	-0.685605
O11	O	1.109416	-0.316599	-0.325989
O12	O	0.991146	-0.306704	-0.530529
O13	O	1.136598	-0.386434	-0.890098
O14	O	0.998583	-0.396307	-0.685504
O15	O	1.233732	-0.289351	-0.890142
O16	O	1.216281	-0.531957	-0.530523
O17	O	1.126670	-0.524460	-0.685500
C18	C	0.966184	-0.351504	-0.608011
C19	C	0.878328	-0.351514	-0.608023
C20	C	0.833165	-0.304784	-0.527464
C21	C	0.840939	-0.398250	-0.688600
C22	C	0.758394	-0.398258	-0.688619
C23	C	0.713231	-0.351527	-0.608060
C24	C	0.750612	-0.304789	-0.527483
C25	C	0.721007	-0.444990	-0.769203
C26	C	0.638457	-0.444999	-0.769226
C27	C	0.593292	-0.398272	-0.688660
C28	C	0.630678	-0.351532	-0.608079
C29	C	0.585515	-0.304802	-0.527520
C30	C	0.622899	-0.258066	-0.446931
C31	C	0.705447	-0.258062	-0.446917
C32	C	0.510744	-0.398276	-0.688675
C33	C	0.502962	-0.304807	-0.527539
C34	C	1.171485	-0.556888	-0.608032
C35	C	1.171531	-0.644743	-0.608065
C36	C	1.124965	-1.012346	-0.688742
C37	C	1.218367	-1.020086	-0.527495
C38	C	1.218339	-0.937541	-0.527483
C39	C	1.171622	-0.892394	-0.608101
C40	C	1.124934	-0.929793	-0.688730
C41	C	1.265020	-0.900136	-0.446846
C42	C	1.264993	-0.817586	-0.446830
C43	C	1.218280	-0.772438	-0.527455
C44	C	1.171591	-0.809841	-0.608089
C45	C	1.124874	-0.764695	-0.688706
C46	C	1.078188	-0.802096	-0.769347
C47	C	1.078221	-0.884644	-0.769355
C48	C	1.218248	-0.689890	-0.527448
C49	C	1.124843	-0.682142	-0.688695
C50	C	1.377723	-0.351538	-0.608097
C51	C	1.465580	-0.351546	-0.608116
C52	C	1.187436	-0.335619	-0.937186
C53	C	1.194205	-0.328842	-1.077442
C54	C	1.171643	-0.145350	-0.608103
C55	C	1.171682	-0.057493	-0.608124
C56	C	1.155777	-0.367304	-0.280202
C57	C	1.149161	-0.373858	-0.139947
H58	H	0.877716	-0.436292	-0.754193
C59	C	1.293571	-0.229533	-1.064526
C60	C	1.253263	-0.269812	-1.150048
H61	H	1.330033	-0.193095	-1.109352
H62	H	1.256692	-0.201750	-1.013126
H63	H	1.321336	-0.266438	-1.013112
H64	H	1.225493	-0.232907	-1.201456
H65	H	1.290147	-0.297596	-1.201469
H66	H	0.466195	-0.266754	-0.461935
C67	C	0.850998	-0.486489	-0.840695
C68	C	0.770650	-0.496357	-0.857743
H69	H	0.881647	-0.518209	-0.895351
H70	H	0.865440	-0.432505	-0.859302
H71	H	0.860401	-0.502075	-0.755870
H72	H	0.761247	-0.480766	-0.942566
H73	H	0.756203	-0.550353	-0.839144
H74	H	0.735893	-0.220012	-0.381307
H75	H	0.586116	-0.220014	-0.381346
H76	H	1.105422	-0.417584	-1.086159
H77	H	0.608026	-0.483055	-0.834845
H78	H	1.040211	-0.915104	-0.835007
H79	H	0.480310	-0.436322	-0.754297
C80	C	0.956246	-0.263271	-0.455875
C81	C	0.874253	-0.253410	-0.438888
H82	H	0.981611	-0.231550	-0.401196
H83	H	0.968854	-0.317254	-0.437260
H84	H	0.973881	-0.247682	-0.540688
H85	H	0.856618	-0.269004	-0.354076
H86	H	0.861640	-0.199415	-0.457494
H87	H	1.086803	-0.645388	-0.754348
H88	H	1.040147	-0.765329	-0.834981
H89	H	1.256396	-1.056850	-0.461852
C90	C	1.083536	-1.135443	-0.760369
C91	C	1.073646	-1.053453	-0.777375
H92	H	1.051849	-1.160820	-0.815084
H93	H	1.137529	-1.148030	-0.778925
H94	H	1.067923	-1.153085	-0.675567
H95	H	1.089265	-1.035811	-0.862176
H96	H	1.019641	-1.040861	-0.758828
C97	C	1.370466	-0.993831	-0.429332
C98	C	1.316286	-0.949807	-0.358164
H99	H	1.402095	-1.024508	-0.374559
H100	H	1.342668	-1.027877	-0.477410
H101	H	1.403388	-0.958962	-0.484278
H102	H	1.283360	-0.984676	-0.303225
H103	H	1.344086	-0.915758	-0.310065
C104	C	1.357329	-0.833538	-0.287452
C105	C	1.316318	-0.776478	-0.358206
H106	H	1.389020	-0.808156	-0.232749
H107	H	1.320595	-0.868094	-0.239132
H108	H	1.390197	-0.863052	-0.342496
H109	H	1.283445	-0.746967	-0.303162
H110	H	1.353056	-0.741907	-0.406530
H111	H	1.256255	-0.659441	-0.461785
