data_functionalizedCrystal
_audit_creation_method	'MofGen! by Chris Wilmer'
_symmetry_space_group_name_H-M	'P1'
_symmetry_Int_Tables_number	1
_symmetry_cell_setting	triclinic
loop_
_symmetry_equiv_pos_as_xyz
  x,y,z
_cell_length_a	23.532355
_cell_length_b	12.503552
_cell_length_c	14.044220
_cell_angle_alpha	86.160057
_cell_angle_beta	88.008188
_cell_angle_gamma	93.494445
loop_
_atom_site_label
_atom_site_type_symbol
_atom_site_fract_x
_atom_site_fract_y
_atom_site_fract_z
O1	O	0.764503	0.089176	0.109274
O2	O	0.599541	0.089210	0.125964
O3	O	0.679546	0.089183	-0.020341
O4	O	0.684499	0.089203	0.255579
O5	O	0.673522	-0.089457	-0.009329
O6	O	0.593517	-0.089430	0.136976
O7	O	0.758479	-0.089464	0.120286
Cu8	Cu	0.675448	-0.105758	0.129637
Cu9	Cu	0.682572	0.105505	0.116613
O10	O	0.678475	-0.089437	0.266591
C11	C	0.575290	-0.000105	0.131053
C12	C	0.512004	-0.000093	0.129797
N13	N	0.670442	-0.254350	0.138797
C14	C	0.694944	-0.526791	0.093969
C15	C	0.663082	-0.473456	0.152270
C16	C	0.667178	-0.351534	0.144772
C17	C	0.690849	-0.648724	0.101467
C18	C	0.116278	-0.097515	0.127921
C19	C	0.056814	-0.097519	0.126728
O20	O	0.023267	-0.180334	0.131184
N21	N	0.030357	-0.000143	0.120133
C22	C	0.063368	0.097244	0.114722
O23	O	0.035404	0.180070	0.109002
C24	C	0.122831	0.097247	0.115908
C25	C	0.149284	-0.000135	0.122513
C26	C	0.142732	-0.194890	0.134524
C27	C	0.202192	-0.194885	0.135719
C28	C	0.235198	-0.097506	0.130311
C29	C	0.208744	-0.000131	0.123708
C30	C	0.155841	0.194633	0.110490
C31	C	0.215308	0.194628	0.111676
C32	C	0.241761	0.097245	0.118281
C33	C	0.301211	0.097253	0.119494
N34	N	0.327668	-0.000123	0.126089
C35	C	0.294661	-0.097503	0.131497
C36	C	-0.061510	0.097230	0.112229
C37	C	-0.120972	0.097228	0.111049
C38	C	-0.127522	-0.097536	0.123054
C39	C	-0.068058	-0.097533	0.124240
C40	C	-0.035053	-0.000146	0.118823
C41	C	0.419532	-0.097486	0.134007
C42	C	0.478998	-0.097472	0.135206
C43	C	0.485542	0.097291	0.123196
C44	C	0.426082	0.097279	0.122003
C45	C	0.393078	-0.000119	0.127406
O46	O	0.334794	0.180025	0.115038
O47	O	0.322633	-0.180315	0.137204
C48	C	0.782730	-0.000146	0.115197
C49	C	0.846017	-0.000152	0.116452
C50	C	0.674366	-0.000137	-0.050128
C51	C	0.667900	-0.000137	-0.155291
N52	N	0.687583	0.254096	0.107446
C53	C	0.656079	-0.000119	-0.347839
C54	C	0.701939	-0.000125	-0.405917
C55	C	0.695362	-0.000115	-0.513058
C56	C	0.662656	-0.000129	-0.240689
C57	C	0.683654	-0.000115	0.296378
C58	C	0.690121	-0.000107	0.401541
H59	H	0.632728	-0.519361	0.207816
H60	H	0.746142	-0.000063	-0.375180
Cl61	Cl	0.587840	-0.000100	-0.395299
H62	H	0.725297	-0.480891	0.038428
Cl63	Cl	0.235438	-0.317317	0.144016
Cl64	Cl	0.512249	-0.219906	0.143512
H65	H	0.392667	-0.176795	0.138415
Cl66	Cl	0.122600	0.317066	0.102182
H67	H	-0.142505	0.176527	0.105686
Cl68	Cl	0.101248	-0.317327	0.141330
Cl69	Cl	-0.169027	-0.219957	0.129848
Cl70	Cl	-0.020022	0.219672	0.105430
Cl71	Cl	-0.034809	-0.219961	0.132540
Cl72	Cl	0.256797	0.317065	0.104864
Cl73	Cl	0.392825	0.219704	0.113715
Cl74	Cl	0.527047	0.219705	0.116391
