data_functionalizedCrystal
_audit_creation_method	'MofGen! by Chris Wilmer'
_symmetry_space_group_name_H-M	'P1'
_symmetry_Int_Tables_number	1
_symmetry_cell_setting	triclinic
loop_
_symmetry_equiv_pos_as_xyz
  x,y,z
_cell_length_a	10.489741
_cell_length_b	10.723022
_cell_length_c	9.798715
_cell_angle_alpha	89.998022
_cell_angle_beta	89.998999
_cell_angle_gamma	84.503200
loop_
_atom_site_label
_atom_site_type_symbol
_atom_site_fract_x
_atom_site_fract_y
_atom_site_fract_z
O1	O	1.693939	0.176061	-0.113403
O2	O	2.193939	0.676061	0.386597
O3	O	1.322733	0.192587	-0.113424
O4	O	1.822733	0.692587	0.386576
O5	O	1.516899	0.002753	-0.113408
O6	O	2.016899	0.502753	0.386592
O7	O	1.499772	0.365895	-0.113419
O8	O	1.999772	0.865895	0.386581
O9	O	1.516885	0.002752	0.113574
O10	O	2.016885	0.502752	0.613574
O11	O	1.322718	0.192586	0.113558
O12	O	1.822718	0.692586	0.613558
O13	O	1.693924	0.176060	0.113579
O14	O	2.193924	0.676060	0.613579
Zn15	Zn	1.508319	0.184323	0.149607
Zn16	Zn	2.008319	0.684323	0.649607
Zn17	Zn	1.508338	0.184324	-0.149452
Zn18	Zn	2.008338	0.684324	0.350548
O19	O	1.499758	0.365894	0.113563
O20	O	1.999758	0.865894	0.613563
C21	C	1.275194	0.191338	0.000065
C22	C	1.775194	0.691338	0.500065
C23	C	1.133567	0.187604	0.000057
C24	C	1.633567	0.687604	0.500057
C25	C	1.515646	-0.043748	0.000082
C26	C	2.015646	0.456252	0.500082
C27	C	1.511918	-0.182305	0.000077
C28	C	2.011918	0.317695	0.500077
C29	C	1.399949	-0.230934	0.000068
C30	C	1.899949	0.269066	0.500068
C31	C	1.396094	-0.374139	0.000063
C32	C	1.896094	0.125861	0.500063
C33	C	1.065505	0.066818	0.000073
C34	C	1.565505	0.566818	0.500073
C35	C	0.973349	0.123876	-0.111840
C36	C	1.473349	0.623876	0.388160
C37	C	0.973368	0.123905	0.111947
C38	C	1.473368	0.623905	0.611947
C39	C	1.043276	0.244712	-0.111949
C40	C	1.543276	0.744712	0.388051
C41	C	1.043306	0.244724	0.111939
C42	C	1.543306	0.744724	0.611939
C43	C	0.951177	0.301870	-0.000002
C44	C	1.451177	0.801870	0.499998
C45	C	1.741463	0.177308	0.000088
C46	C	2.241463	0.677308	0.500088
C47	C	1.883090	0.181043	0.000087
C48	C	2.383090	0.681043	0.500087
C49	C	1.501011	0.412395	0.000071
C50	C	2.001011	0.912395	0.500071
C51	C	1.504739	0.550952	0.000067
C52	C	2.004739	1.050952	0.500067
N53	N	1.508315	0.184322	0.353707
N54	N	2.008315	0.684322	0.853707
N55	N	1.508352	0.184315	-0.353551
N56	N	2.008352	0.684315	0.146449
C57	C	1.589840	0.104264	0.421490
C58	C	2.089840	0.604264	0.921490
C59	C	1.589861	0.104260	0.578653
C60	C	2.089861	0.604260	1.078653
H61	H	1.306943	-0.166549	0.000071
H62	H	1.806943	0.333451	0.500071
H63	H	1.300226	-0.416010	0.000049
H64	H	1.800226	0.083990	0.500049
C65	C	1.132672	-0.067342	-0.000074
C66	C	1.632672	0.432658	0.499926
N67	N	1.183265	-0.168389	-0.000191
N68	N	1.683265	0.331611	0.499809
H69	H	1.600611	-0.407186	0.000024
H70	H	2.100611	0.092814	0.500024
C71	C	1.637571	-0.269281	0.000083
C72	C	2.137571	0.230719	0.500083
N73	N	1.732217	-0.334791	0.000085
N74	N	2.232217	0.165209	0.500085
H75	H	0.942373	0.072769	-0.206453
H76	H	1.442373	0.572769	0.293547
C77	C	1.084884	0.313691	-0.239920
C78	C	1.584884	0.813691	0.260080
N79	N	1.116227	0.365640	-0.336310
N80	N	1.616227	0.865640	0.163690
C81	C	1.414052	0.276917	0.567711
C82	C	1.914052	0.776917	1.067711
N83	N	1.343023	0.346663	0.508396
N84	N	1.843023	0.846663	1.008396
H85	H	0.901688	0.401268	-0.000066
H86	H	1.401688	0.901268	0.499934
C87	C	0.931557	0.054834	0.239769
C88	C	1.431557	0.554834	0.739769
N89	N	0.900070	0.002801	0.336039
N90	N	1.400070	0.502801	0.836039
H91	H	1.074313	0.295789	0.206556
H92	H	1.574313	0.795789	0.706556
H93	H	1.659619	0.035722	0.363174
H94	H	2.159619	0.535722	0.863174
H95	H	1.438528	0.252855	0.412026
H96	H	1.938528	0.752855	0.912026
C97	C	1.684156	0.011661	0.657399
C98	C	2.184156	0.511661	1.157399
N99	N	1.755181	-0.058089	0.716715
N100	N	2.255181	0.441911	1.216715
