data_functionalizedCrystal
_audit_creation_method	'MofGen! by Chris Wilmer'
_symmetry_space_group_name_H-M	'P1'
_symmetry_Int_Tables_number	1
_symmetry_cell_setting	triclinic
loop_
_symmetry_equiv_pos_as_xyz
  x,y,z
_cell_length_a	19.288840
_cell_length_b	10.967829
_cell_length_c	18.366186
_cell_angle_alpha	77.865925
_cell_angle_beta	89.983729
_cell_angle_gamma	83.934359
loop_
_atom_site_label
_atom_site_type_symbol
_atom_site_fract_x
_atom_site_fract_y
_atom_site_fract_z
O1	O	0.922378	0.155513	-0.080183
O2	O	1.422378	0.655513	0.419817
O3	O	0.720253	0.176544	-0.082796
O4	O	1.220253	0.676544	0.417204
O5	O	0.825975	-0.015650	-0.058691
O6	O	1.325975	0.484350	0.441309
O7	O	0.816656	0.347706	-0.104287
O8	O	1.316656	0.847706	0.395713
O9	O	0.825956	-0.015659	0.062409
O10	O	1.325956	0.484341	0.562409
O11	O	0.720234	0.176534	0.038305
O12	O	1.220234	0.676534	0.538305
O13	O	0.922360	0.155503	0.040918
O14	O	1.422360	0.655503	0.540918
Zn15	Zn	0.821294	0.166017	0.058839
Zn16	Zn	1.321294	0.666017	0.558839
Zn17	Zn	0.821318	0.166030	-0.100717
Zn18	Zn	1.321318	0.666030	0.399283
O19	O	0.816638	0.347697	0.016813
O20	O	1.316638	0.847697	0.516813
C21	C	0.694362	0.175868	-0.022158
C22	C	1.194362	0.675868	0.477842
C23	C	0.617245	0.173852	-0.021896
C24	C	1.117245	0.673852	0.478104
C25	C	0.581045	0.172889	-0.087788
C26	C	1.081045	0.672889	0.412212
C27	C	0.508585	0.170981	-0.087557
C28	C	1.008585	0.670981	0.412443
C29	C	0.472330	0.170011	-0.021428
C30	C	0.972330	0.670011	0.478572
C31	C	0.508539	0.170981	0.044472
C32	C	1.008539	0.670981	0.544472
C33	C	0.580996	0.172902	0.044238
C34	C	1.080996	0.672902	0.544238
C35	C	0.362498	0.093877	0.038687
C36	C	0.862498	0.593877	0.538687
C37	C	0.290043	0.091948	0.038920
C38	C	0.790043	0.591948	0.538920
C39	C	0.248848	0.164093	-0.020704
C40	C	0.748848	0.664093	0.479296
C41	C	0.280118	0.238150	-0.080570
C42	C	0.780118	0.738150	0.419430
C43	C	0.352575	0.240070	-0.080804
C44	C	0.852575	0.740070	0.419196
C45	C	0.393763	0.167929	-0.021167
C46	C	0.893763	0.667929	0.478833
C47	C	0.134079	0.161063	-0.086351
C48	C	0.634079	0.661063	0.413649
C49	C	0.061618	0.159163	-0.086119
C50	C	0.561618	0.659163	0.413881
C51	C	0.061574	0.159151	0.045914
C52	C	0.561574	0.659151	0.545914
C53	C	0.134033	0.161064	0.045679
C54	C	0.634033	0.661064	0.545679
C55	C	0.170282	0.162014	-0.020455
C56	C	0.670282	0.662014	0.479545
C57	C	0.825286	-0.062141	0.007691
C58	C	1.325286	0.437859	0.507691
C59	C	0.823253	-0.200655	0.025069
C60	C	1.323253	0.299345	0.525069
C61	C	0.822357	-0.262398	-0.029918
C62	C	1.322357	0.237602	0.470082
C63	C	0.820256	-0.405559	-0.011959
C64	C	1.320256	0.094441	0.488041
C65	C	0.948250	0.156179	-0.019721
C66	C	1.448250	0.656179	0.480279
C67	C	1.025368	0.158195	-0.019989
C68	C	1.525368	0.658195	0.480011
C69	C	0.817327	0.394188	-0.049571
C70	C	1.317327	0.894188	0.450429
C71	C	0.819359	0.532702	-0.066953
C72	C	1.319359	1.032702	0.433047
N73	N	0.821283	0.166008	0.167731
N74	N	1.321283	0.666008	0.667731
N75	N	0.821335	0.166029	-0.209608
N76	N	1.321335	0.666029	0.290392
C77	C	0.868113	0.080946	0.216500
C78	C	1.368113	0.580946	0.716500
C79	C	0.868117	0.080941	0.292728
C80	C	1.368117	0.580941	0.792728
C81	C	0.821299	0.166018	0.320182
C82	C	1.321299	0.666018	0.820182
C83	C	0.774460	0.251087	0.271404
C84	C	1.274460	0.751087	0.771404
C85	C	0.774453	0.251081	0.195178
C86	C	1.274453	0.751081	0.695178
C87	C	0.812742	0.279714	0.426676
C88	C	1.312742	0.779714	0.926676
C89	C	0.812755	0.279721	0.502900
C90	C	1.312755	0.779721	1.002900
C91	C	0.821318	0.166034	0.555288
C92	C	1.321318	0.666034	1.055288
C93	C	0.829884	0.052335	0.531443
C94	C	1.329884	0.552335	1.031443
C95	C	0.829877	0.052330	0.455217
C96	C	1.329877	0.552330	0.955217
C97	C	0.821301	0.166033	0.402835
C98	C	1.321301	0.666033	0.902835
C99	C	0.868155	0.080959	0.686713
C100	C	1.368155	0.580959	1.186713
C101	C	0.868155	0.080952	0.762943
C102	C	1.368155	0.580952	1.262943
C103	C	0.774501	0.251109	0.741616
C104	C	1.274501	0.751109	1.241616
C105	C	0.774499	0.251105	0.665389
C106	C	1.274499	0.751105	1.165389
C107	C	0.821329	0.166032	0.637942
C108	C	1.321329	0.666032	1.137942
H109	H	0.378032	0.300373	-0.129548
H110	H	0.878032	0.800373	0.370452
H111	H	0.610469	0.173687	0.097897
H112	H	1.110469	0.673687	0.597897
F113	F	0.619619	0.173904	-0.158174
F114	F	1.119619	0.673904	0.341826
F115	F	0.819222	-0.474986	0.066958
F116	F	1.319222	0.025014	0.566958
H117	H	0.736318	0.320350	0.155468
H118	H	1.236318	0.820350	0.655468
F119	F	0.820367	-0.397867	-0.145871
F120	F	1.320367	0.102133	0.354129
F121	F	0.172561	0.162082	0.115812
F122	F	0.672561	0.662082	0.615812
H123	H	0.822462	-0.253780	0.085441
H124	H	1.322462	0.246220	0.585441
F125	F	0.823398	-0.192967	-0.108830
F126	F	1.323398	0.307033	0.391170
F127	F	0.917950	-0.009599	0.187291
F128	F	1.417950	0.490401	0.687291
F129	F	0.917962	-0.009598	0.344640
F130	F	1.417962	0.490402	0.844640
F131	F	0.838987	-0.068673	0.429842
F132	F	1.338987	0.431327	0.929842
H133	H	0.805784	0.372301	0.522308
H134	H	1.305784	0.872301	1.022308
H135	H	0.246578	0.296902	-0.129120
H136	H	0.746578	0.796902	0.370880
F137	F	0.470051	0.169955	-0.157692
F138	F	0.970051	0.669955	0.342308
F139	F	0.917995	-0.009593	0.814850
F140	F	1.417995	0.490407	1.314850
F141	F	0.839004	-0.068669	0.587193
F142	F	1.339004	0.431331	1.087193
F143	F	0.724659	0.341645	0.613481
F144	F	1.224659	0.841645	1.113481
H145	H	0.906285	0.011683	0.664366
H146	H	1.406285	0.511683	1.164366
F147	F	0.724670	0.341647	0.770832
F148	F	1.224670	0.841647	1.270832
F149	F	0.724630	0.341628	0.300623
F150	F	1.224630	0.841628	0.800623
F151	F	0.172660	0.162083	-0.156737
F152	F	0.672660	0.662083	0.343263
F153	F	0.022993	0.158129	0.116294
F154	F	0.522993	0.658129	0.616294
F155	F	0.023091	0.158147	-0.156256
F156	F	0.523091	0.658147	0.343744
F157	F	0.406335	0.017087	0.102152
F158	F	0.906335	0.517087	0.602152
F159	F	0.256768	0.013154	0.102642
F160	F	0.756768	0.513154	0.602642
H161	H	0.805756	0.372298	0.384026
H162	H	1.305756	0.872298	0.884026
H163	H	0.479015	0.170195	0.098315
H164	H	0.979015	0.670195	0.598315
