data_functionalizedCrystal
_audit_creation_method	'MofGen! by Chris Wilmer'
_symmetry_space_group_name_H-M	'P1'
_symmetry_Int_Tables_number	1
_symmetry_cell_setting	triclinic
loop_
_symmetry_equiv_pos_as_xyz
  x,y,z
_cell_length_a	23.532407
_cell_length_b	16.109301
_cell_length_c	14.586319
_cell_angle_alpha	90.000787
_cell_angle_beta	89.991566
_cell_angle_gamma	96.844921
loop_
_atom_site_label
_atom_site_type_symbol
_atom_site_fract_x
_atom_site_fract_y
_atom_site_fract_z
O1	O	0.073202	-1.102555	-0.076192
O2	O	0.406535	-0.769222	0.257141
O3	O	0.739869	-0.435889	0.590475
O4	O	0.082312	-0.860422	-0.076208
O5	O	0.415645	-0.527088	0.257126
O6	O	0.748979	-0.193755	0.590459
O7	O	-0.005148	-0.988790	-0.076183
O8	O	0.328185	-0.655457	0.257151
O9	O	0.661519	-0.322123	0.590484
O10	O	0.160662	-0.974187	-0.076217
O11	O	0.493995	-0.640854	0.257116
O12	O	0.827328	-0.307520	0.590450
O13	O	-0.005149	-0.988781	0.076298
O14	O	0.328184	-0.655448	0.409632
O15	O	0.661518	-0.322114	0.742965
O16	O	0.082311	-0.860413	0.076273
O17	O	0.415644	-0.527079	0.409606
O18	O	0.748977	-0.193746	0.742940
O19	O	0.073201	-1.102546	0.076289
O20	O	0.406534	-0.769213	0.409622
O21	O	0.739867	-0.435880	0.742956
Cu22	Cu	0.077756	-0.981479	0.090204
Cu23	Cu	0.411089	-0.648145	0.423537
Cu24	Cu	0.744422	-0.314812	0.756870
Cu25	Cu	0.077757	-0.981489	-0.090123
Cu26	Cu	0.411090	-0.648156	0.243211
Cu27	Cu	0.744424	-0.314823	0.576544
O28	O	0.160660	-0.974178	0.076264
O29	O	0.493994	-0.640845	0.409597
O30	O	0.827327	-0.307511	0.742930
C31	C	0.081942	-0.829445	0.000031
C32	C	0.415276	-0.496112	0.333364
C33	C	0.748609	-0.162779	0.666698
C34	C	0.080836	-0.737159	0.000026
C35	C	0.414169	-0.403825	0.333359
C36	C	0.747503	-0.070492	0.666692
C37	C	-0.026366	-0.988414	0.000060
C38	C	0.306967	-0.655080	0.333394
C39	C	0.640301	-0.321747	0.666727
C40	C	-0.089587	-0.987296	0.000067
C41	C	0.243746	-0.653962	0.333400
C42	C	0.577080	-0.320629	0.666734
C43	C	0.073570	-1.133523	0.000048
C44	C	0.406904	-0.800189	0.333382
C45	C	0.740237	-0.466856	0.666715
C46	C	0.074677	-1.225809	0.000047
C47	C	0.408010	-0.892476	0.333381
C48	C	0.741343	-0.559143	0.666714
C49	C	-0.488436	-1.056249	0.000021
C50	C	-0.155102	-0.722915	0.333355
C51	C	0.178231	-0.389582	0.666688
C52	C	-0.547840	-1.055210	0.000014
C53	C	-0.214506	-0.721877	0.333348
C54	C	0.118827	-0.388543	0.666681
O55	O	-0.584349	-1.119130	-0.000015
O56	O	-0.251015	-0.785797	0.333318
O57	O	0.082318	-0.452464	0.666651
N58	N	-0.570748	-0.978895	0.000010
N59	N	-0.237414	-0.645562	0.333343
N60	N	0.095919	-0.312229	0.666677
C61	C	-0.534248	-0.903614	0.000003
C62	C	-0.200914	-0.570281	0.333337
C63	C	0.132419	-0.236947	0.666670
O64	O	-0.559187	-0.838607	-0.000002
O65	O	-0.225854	-0.505273	0.333332
O66	O	0.107479	-0.171940	0.666665
C67	C	-0.474845	-0.904654	0.000004
C68	C	-0.141511	-0.571320	0.333337
C69	C	0.191822	-0.237987	0.666671
C70	C	-0.451941	-0.980973	0.000018
C71	C	-0.118607	-0.647640	0.333351
C72	C	0.214726	-0.314307	0.666684
C73	C	-0.465531	-1.132562	0.000034
C74	C	-0.132198	-0.799229	0.333367
C75	C	0.201136	-0.465896	0.666701
C76	C	-0.406131	-1.133601	0.000043
C77	C	-0.072798	-0.800267	0.333376
C78	C	0.260536	-0.466934	0.666709
C79	C	-0.369636	-1.058325	0.000039
C80	C	-0.036302	-0.724992	0.333372
C81	C	0.297031	-0.391659	0.666706
C82	C	-0.392541	-0.982012	0.000026
C83	C	-0.059207	-0.648678	0.333360
C84	C	0.274126	-0.315345	0.666693
C85	C	-0.438346	-0.829373	-0.000009
C86	C	-0.105013	-0.496040	0.333324
C87	C	0.228321	-0.162706	0.666657
C88	C	-0.378940	-0.830419	-0.000009
C89	C	-0.045606	-0.497086	0.333324
C90	C	0.287727	-0.163753	0.666657
C91	C	-0.356036	-0.906739	0.000004
C92	C	-0.022702	-0.573406	0.333337
C93	C	0.310631	-0.240072	0.666671
C94	C	-0.296645	-0.907774	0.000031
C95	C	0.036688	-0.574441	0.333364
C96	C	0.370021	-0.241108	0.666698
N97	N	-0.273738	-0.984089	0.000035
N98	N	0.059596	-0.650756	0.333369
N99	N	0.392929	-0.317423	0.666702
C100	C	-0.310233	-1.059365	0.000039
C101	C	0.023100	-0.726031	0.333373
C102	C	0.356434	-0.392698	0.666706
C103	C	-0.658998	-0.901437	0.000001
C104	C	-0.325665	-0.568103	0.333334
C105	C	0.007668	-0.234770	0.666668
C106	C	-0.718400	-0.900396	0.000007
C107	C	-0.385067	-0.567063	0.333340
C108	C	-0.051733	-0.233730	0.666674
C109	C	-0.731988	-1.051993	0.000016
C110	C	-0.398655	-0.718660	0.333349
C111	C	-0.065321	-0.385326	0.666683
C112	C	-0.672585	-1.053032	0.000017
C113	C	-0.339252	-0.719699	0.333350
C114	C	-0.005919	-0.386366	0.666683
C115	C	-0.636091	-0.977752	0.000005
C116	C	-0.302757	-0.644418	0.333339
C117	C	0.030576	-0.311085	0.666672
C118	C	-0.185488	-1.061539	0.000058
C119	C	0.147845	-0.728206	0.333392
C120	C	0.481179	-0.394873	0.666725
C121	C	-0.126082	-1.062571	0.000071
C122	C	0.207251	-0.729238	0.333404
C123	C	0.540584	-0.395904	0.666738
C124	C	-0.112499	-0.910975	0.000057
C125	C	0.220834	-0.577642	0.333390
C126	C	0.554167	-0.244308	0.666724
C127	C	-0.171900	-0.909943	0.000049
C128	C	0.161433	-0.576610	0.333383
C129	C	0.494767	-0.243276	0.666716
C130	C	-0.208394	-0.985232	0.000047
C131	C	0.124940	-0.651899	0.333380
C132	C	0.458273	-0.318565	0.666714
O133	O	-0.260102	-0.843888	0.000057
O134	O	0.073231	-0.510554	0.333390
O135	O	0.406565	-0.177221	0.666724
O136	O	-0.285285	-1.124361	0.000032
O137	O	0.048048	-0.791028	0.333366
O138	O	0.381382	-0.457695	0.666699
C139	C	0.181878	-0.974554	0.000019
C140	C	0.515212	-0.641221	0.333352
C141	C	0.848545	-0.307888	0.666686
C142	C	0.245100	-0.975672	0.000006
C143	C	0.578433	-0.642339	0.333339
C144	C	0.911766	-0.309006	0.666673
N145	N	0.077754	-0.981477	0.217035
N146	N	0.411087	-0.648144	0.550369
N147	N	0.744421	-0.314811	0.883702
C148	C	0.130160	-0.514498	0.000026
C149	C	0.463494	-0.181165	0.333359
C150	C	0.796827	0.152168	0.666693
C151	C	0.129116	-0.427786	0.000032
C152	C	0.462450	-0.094453	0.333365
C153	C	0.795783	0.238881	0.666699
C154	C	0.025348	-0.448476	0.000050
C155	C	0.358682	-0.115143	0.333383
C156	C	0.692015	0.218190	0.666717
C157	C	0.026393	-0.535187	0.000050
C158	C	0.359726	-0.201854	0.333384
C159	C	0.693060	0.131480	0.666717
C160	C	0.078801	-0.568195	0.000034
C161	C	0.412134	-0.234862	0.333367
C162	C	0.745467	0.098471	0.666700
C163	C	0.076712	-0.394773	0.000039
C164	C	0.410045	-0.061439	0.333373
C165	C	0.743379	0.271894	0.666706
C166	C	0.075580	-0.300755	0.000046
C167	C	0.408913	0.032578	0.333379
C168	C	0.742246	0.365911	0.666713
C169	C	0.079933	-0.662218	0.000029
C170	C	0.413266	-0.328885	0.333362
C171	C	0.746600	0.004448	0.666696
N172	N	0.077754	-0.981497	-0.216954
N173	N	0.411087	-0.648164	0.116379
N174	N	0.744421	-0.314830	0.449712
C175	C	0.039040	-1.038338	0.452053
C176	C	0.372373	-0.705004	0.785386
C177	C	0.705707	-0.371671	1.118720
C178	C	0.039039	-1.038340	0.548034
C179	C	0.372372	-0.705007	0.881368
C180	C	0.705705	-0.371673	1.214701
C181	C	0.116470	-0.924631	0.548021
C182	C	0.449803	-0.591298	0.881355
C183	C	0.783137	-0.257964	1.214688
C184	C	0.116468	-0.924625	0.452042
C185	C	0.449802	-0.591292	0.785375
C186	C	0.783135	-0.257959	1.118709
C187	C	0.077754	-0.981483	0.404060
C188	C	0.411087	-0.648150	0.737394
C189	C	0.744420	-0.314817	1.070727
C190	C	0.077754	-0.981491	0.596021
C191	C	0.411088	-0.648158	0.929354
C192	C	0.744421	-0.314825	1.262688
C193	C	0.077753	-0.981494	0.700088
C194	C	0.411086	-0.648160	1.033421
C195	C	0.744420	-0.314827	1.366755
C196	C	0.077754	-0.981480	0.299986
C197	C	0.411087	-0.648147	0.633320
C198	C	0.744421	-0.314814	0.966653
H199	H	-0.107437	-1.124722	0.000084
H200	H	0.225896	-0.791389	0.333418
H201	H	0.559229	-0.458056	0.666751
H202	H	-0.737043	-0.838249	0.000012
H203	H	-0.403710	-0.504916	0.333345
H204	H	-0.070376	-0.171583	0.666678
H205	H	-0.215195	-1.122847	0.000053
H206	H	0.118139	-0.789514	0.333386
H207	H	0.451472	-0.456180	0.666720
H208	H	-0.017320	-0.421590	0.000069
H209	H	0.316013	-0.088257	0.333402
H210	H	0.649346	0.245077	0.666736
H211	H	-0.015433	-0.578910	0.000059
H212	H	0.317900	-0.245576	0.333393
H213	H	0.651234	0.087757	0.666726
H214	H	0.172834	-0.541371	0.000019
H215	H	0.506167	-0.208037	0.333353
H216	H	0.839501	0.125296	0.666686
H217	H	0.007516	-1.084634	0.412989
H218	H	0.340849	-0.751300	0.746322
H219	H	0.674182	-0.417967	1.079655
H220	H	0.007514	-1.084635	0.587107
H221	H	0.340847	-0.751301	0.920441
H222	H	0.674180	-0.417968	1.253774
H223	H	0.170939	-0.384069	0.000028
H224	H	0.504272	-0.050736	0.333361
H225	H	0.837605	0.282598	0.666694
H226	H	-0.190549	-0.847797	0.000064
H227	H	0.142784	-0.514464	0.333397
H228	H	0.476117	-0.181130	0.666730
H229	H	0.147991	-0.878340	0.587098
H230	H	0.481324	-0.545006	0.920431
H231	H	0.814658	-0.211673	1.253764
H232	H	0.147994	-0.878324	0.412964
H233	H	0.481327	-0.544990	0.746297
H234	H	0.814661	-0.211657	1.079630
H235	H	-0.761714	-1.113286	0.000016
H236	H	-0.428380	-0.779953	0.333349
H237	H	-0.095047	-0.446620	0.666682
H238	H	-0.387488	-1.195748	0.000050
H239	H	-0.054155	-0.862415	0.333383
H240	H	0.279178	-0.529081	0.666717
H241	H	-0.653941	-1.115179	0.000027
H242	H	-0.320608	-0.781845	0.333360
H243	H	0.012726	-0.448512	0.666694
H244	H	-0.629287	-0.840130	-0.000001
H245	H	-0.295953	-0.506797	0.333333
H246	H	0.037380	-0.173464	0.666666
H247	H	-0.495240	-1.193864	0.000034
H248	H	-0.161907	-0.860531	0.333367
H249	H	0.171427	-0.527198	0.666700
H250	H	-0.456984	-0.767225	-0.000026
H251	H	-0.123650	-0.433892	0.333307
H252	H	0.209683	-0.100559	0.666641
H253	H	-0.082774	-0.849688	0.000057
H254	H	0.250559	-0.516354	0.333390
H255	H	0.583892	-0.183021	0.666724
H256	H	-0.349228	-0.769115	-0.000020
H257	H	-0.015895	-0.435782	0.333313
H258	H	0.317439	-0.102448	0.666647
