data_functionalizedCrystal
_audit_creation_method	'MofGen! by Chris Wilmer'
_symmetry_space_group_name_H-M	'P1'
_symmetry_Int_Tables_number	1
_symmetry_cell_setting	triclinic
loop_
_symmetry_equiv_pos_as_xyz
  x,y,z
_cell_length_a	17.699083
_cell_length_b	10.065875
_cell_length_c	17.699083
_cell_angle_alpha	98.764376
_cell_angle_beta	96.716984
_cell_angle_gamma	98.723124
loop_
_atom_site_label
_atom_site_type_symbol
_atom_site_fract_x
_atom_site_fract_y
_atom_site_fract_z
O1	O	1.015153	0.113319	-0.084583
O2	O	1.515153	0.613319	0.415417
O3	O	0.794779	0.113366	-0.097031
O4	O	1.294779	0.613366	0.402969
O5	O	0.911189	0.113308	0.019379
O6	O	1.411189	0.613308	0.519379
O7	O	0.898743	0.113377	-0.200993
O8	O	1.398743	0.613377	0.299007
O9	O	0.888991	-0.113670	-0.002908
O10	O	1.388991	0.386330	0.497092
O11	O	0.772581	-0.113612	-0.119317
O12	O	1.272581	0.386388	0.380683
O13	O	0.992955	-0.113659	-0.106869
O14	O	1.492955	0.386341	0.393131
Zn15	Zn	0.879244	-0.149673	-0.116632
Zn16	Zn	1.379244	0.350327	0.383368
Zn17	Zn	0.908491	0.149380	-0.087268
Zn18	Zn	1.408491	0.649380	0.412732
O19	O	0.876545	-0.113601	-0.223279
O20	O	1.376545	0.386399	0.276721
C21	C	0.755484	-0.000117	-0.107727
C22	C	1.255484	0.499883	0.392273
C23	C	0.671467	-0.000101	-0.106387
C24	C	1.171467	0.499899	0.393613
N25	N	0.859289	-0.353768	-0.136671
N26	N	1.359289	0.146232	0.363329
C27	C	0.622849	-0.000080	-0.174718
C28	C	1.122849	0.499920	0.325282
C29	C	0.543904	-0.000098	-0.173458
C30	C	1.043904	0.499902	0.326542
C31	C	0.513580	-0.000127	-0.103864
C32	C	1.013580	0.499873	0.396136
C33	C	0.562205	-0.000152	-0.035528
C34	C	1.062205	0.499848	0.464472
C35	C	0.641147	-0.000144	-0.036790
C36	C	1.141147	0.499856	0.463210
C37	C	0.243838	-0.000187	-0.030436
C38	C	0.743838	0.499813	0.469564
C39	C	0.164890	-0.000192	-0.029179
C40	C	0.664890	0.499808	0.470821
C41	C	0.146594	-0.000141	-0.167104
C42	C	0.646594	0.499859	0.332896
C43	C	0.225537	-0.000133	-0.168366
C44	C	0.725537	0.499867	0.331634
C45	C	0.274154	-0.000165	-0.100031
C46	C	0.774154	0.499835	0.399969
C47	C	0.359755	-0.000148	-0.101399
C48	C	0.859755	0.499852	0.398601
C49	C	0.427981	-0.000134	-0.102495
C50	C	0.927981	0.499866	0.397505
C51	C	0.901543	-0.421568	-0.094236
C52	C	1.401543	0.078432	0.405764
C53	C	0.886191	-0.578728	-0.109664
C54	C	1.386191	-0.078728	0.390336
C55	C	1.032251	-0.000173	-0.096173
C56	C	1.532251	0.499827	0.403827
C57	C	1.116268	-0.000180	-0.097512
C58	C	1.616268	0.499820	0.402488
C59	C	0.899643	-0.000187	0.036432
C60	C	1.399643	0.499813	0.536432
C61	C	0.898303	-0.000203	0.120449
C62	C	1.398303	0.499797	0.620449
N63	N	0.928451	0.353475	-0.067223
N64	N	1.428451	0.853475	0.432777
C65	C	0.966634	-0.000228	0.169067
C66	C	1.466634	0.499772	0.669067
C67	C	0.965372	-0.000231	0.248010
C68	C	1.465372	0.499769	0.748010
C69	C	0.895776	-0.000219	0.278332
C70	C	1.395776	0.499781	0.778332
C71	C	0.827441	-0.000189	0.229708
C72	C	1.327441	0.499811	0.729708
C73	C	0.828705	-0.000177	0.150767
C74	C	1.328705	0.499823	0.650767
C75	C	0.822340	-0.000239	0.548066
C76	C	1.322340	0.499761	1.048066
C77	C	0.821081	-0.000256	0.627013
C78	C	1.321081	0.499744	1.127013
C79	C	0.959007	-0.000293	0.645309
C80	C	1.459007	0.499707	1.145309
C81	C	0.960271	-0.000281	0.566368
C82	C	1.460271	0.499719	1.066368
C83	C	0.891937	-0.000244	0.517752
C84	C	1.391937	0.499756	1.017752
C85	C	0.893307	-0.000238	0.432153
C86	C	1.393307	0.499762	0.932153
C87	C	0.894404	-0.000234	0.363928
C88	C	1.394404	0.499766	0.863928
C89	C	0.888087	-0.000152	0.759663
C90	C	1.388087	0.499848	1.259663
C91	C	0.889414	-0.000271	0.675633
C92	C	1.389414	0.499729	1.175633
H93	H	0.647531	-0.000055	-0.231389
H94	H	1.147531	0.499945	0.268611
O95	O	0.496789	-0.000015	-0.239899
O96	O	0.996789	0.499985	0.260101
C97	C	0.486966	-0.000041	-0.376847
C98	C	0.986966	0.499959	0.123153
C99	C	0.540412	-0.000098	-0.301653
C100	C	1.040412	0.499902	0.198347
H101	H	0.522210	-0.000137	-0.426797
H102	H	1.022210	0.499863	0.073203
H103	H	0.458843	0.094965	-0.370427
H104	H	0.958843	0.594965	0.129573
H105	H	0.440258	-0.095015	-0.388991
H106	H	0.940258	0.404985	0.111009
H107	H	0.587162	0.094812	-0.289465
H108	H	1.087162	0.594812	0.210535
H109	H	0.568477	-0.095166	-0.308110
H110	H	1.068477	0.404834	0.191890
H111	H	0.250222	-0.000103	-0.225036
H112	H	0.750222	0.499897	0.274964
H113	H	0.764405	-0.000248	0.651697
H114	H	1.264405	0.499752	1.151697
H115	H	0.107000	-0.000122	-0.222746
H116	H	0.607000	0.499878	0.277254
H117	H	0.811746	-0.412071	-0.184422
H118	H	1.311746	0.087929	0.315578
O119	O	1.031811	-0.000326	0.295123
O120	O	1.531811	0.499674	0.795123
C121	C	1.168759	-0.000303	0.304947
C122	C	1.668759	0.499697	0.804947
C123	C	1.093567	-0.000227	0.251502
C124	C	1.593567	0.499773	0.751502
H125	H	1.218711	-0.000194	0.269703
H126	H	1.718711	0.499806	0.769703
H127	H	1.162372	-0.095321	0.333023
H128	H	1.662372	0.404679	0.833023
H129	H	1.180868	0.094658	0.351698
H130	H	1.680868	0.594658	0.851698
H131	H	1.081414	-0.095124	0.204709
H132	H	1.581414	0.404876	0.704709
H133	H	1.099992	0.094854	0.223483
H134	H	1.599992	0.594854	0.723483
H135	H	0.766698	-0.000209	0.508491
H136	H	1.266698	0.499791	1.008491
H137	H	0.773063	-0.000156	0.111182
H138	H	1.273063	0.499844	0.611182
O139	O	0.135539	-0.000048	0.038493
O140	O	0.635539	0.499952	0.538493
C141	C	0.138475	0.117523	0.168301
C142	C	0.638475	0.617523	0.668301
C143	C	0.171795	0.117511	0.091719
C144	C	0.671795	0.617511	0.591719
H145	H	0.167762	0.212573	0.211349
H146	H	0.667762	0.712573	0.711349
H147	H	0.149250	0.022581	0.192788
H148	H	0.649250	0.522581	0.692788
H149	H	0.073697	0.117462	0.157437
H150	H	0.573697	0.617462	0.657437
H151	H	0.236578	0.117620	0.102518
H152	H	0.736578	0.617620	0.602518
H153	H	0.160960	0.212445	0.067255
H154	H	0.660960	0.712445	0.567255
H155	H	0.975992	-0.588228	-0.019464
H156	H	1.475992	-0.088228	0.480536
H157	H	0.949081	-0.363268	-0.046480
H158	H	1.449081	0.136732	0.453520
H159	H	1.016942	-0.000298	0.541684
H160	H	1.516942	0.499702	1.041684
H161	H	0.770776	-0.000171	0.254403
H162	H	1.270776	0.499829	0.754403
H163	H	0.537507	-0.000196	0.021134
H164	H	1.037507	0.499804	0.521134
O165	O	0.291162	-0.000258	0.035868
O166	O	0.791162	0.499742	0.535868
C167	C	0.420894	-0.000165	0.095073
C168	C	0.920894	0.499835	0.595073
C169	C	0.367379	-0.000126	0.019920
C170	C	0.867379	0.499874	0.519920
H171	H	0.482530	-0.000029	0.082209
H172	H	0.982530	0.499971	0.582209
H173	H	0.400659	-0.095184	0.120015
H174	H	0.900659	0.404816	0.620015
H175	H	0.419114	0.094795	0.138648
H176	H	0.919114	0.594795	0.638648
H177	H	0.369134	-0.095022	-0.023710
H178	H	0.869134	0.404978	0.476290
H179	H	0.387631	0.094956	-0.004958
H180	H	0.887631	0.594956	0.495042
O181	O	0.688277	-0.000096	0.029663
O182	O	1.188277	0.499904	0.529663
C183	C	0.698090	-0.000223	0.166597
C184	C	1.198090	0.499777	0.666597
C185	C	0.644634	-0.000239	0.091397
C186	C	1.144634	0.499761	0.591397
H187	H	0.662824	-0.000368	0.216525
H188	H	1.162824	0.499632	0.716525
H189	H	0.744776	0.094791	0.178836
H190	H	1.244776	0.594791	0.678836
H191	H	0.726242	-0.095189	0.160087
H192	H	1.226242	0.404811	0.660087
H193	H	0.616428	0.094662	0.097850
H194	H	1.116428	0.594662	0.597850
H195	H	0.597994	-0.095317	0.079183
H196	H	1.097994	0.404683	0.579183
O197	O	1.025459	-0.000130	0.692480
O198	O	1.525459	0.499870	1.192480
C199	C	1.154448	0.117465	0.743845
C200	C	1.654448	0.617465	1.243845
C201	C	1.079247	0.117438	0.690388
C202	C	1.579247	0.617438	1.190388
H203	H	1.197950	0.212523	0.742184
H204	H	1.697950	0.712523	1.242184
H205	H	1.179472	0.022530	0.723512
H206	H	1.679472	0.522530	1.223512
H207	H	1.141570	0.117398	0.805463
H208	H	1.641570	0.617398	1.305463
H209	H	1.092061	0.117553	0.628756
H210	H	1.592061	0.617553	1.128756
H211	H	1.054245	0.212364	0.710786
H212	H	1.554245	0.712364	1.210786
H213	H	0.838645	-0.637025	-0.157418
H214	H	1.338645	-0.137025	0.342582
H215	H	1.023306	-0.000247	0.144385
H216	H	1.523306	0.499753	0.644385
