data_functionalizedCrystal
_audit_creation_method	'MofGen! by Chris Wilmer'
_symmetry_space_group_name_H-M	'P1'
_symmetry_Int_Tables_number	1
_symmetry_cell_setting	triclinic
loop_
_symmetry_equiv_pos_as_xyz
  x,y,z
_cell_length_a	16.109301
_cell_length_b	14.971486
_cell_length_c	14.048226
_cell_angle_alpha	90.006640
_cell_angle_beta	89.996259
_cell_angle_gamma	96.462195
loop_
_atom_site_label
_atom_site_type_symbol
_atom_site_fract_x
_atom_site_fract_y
_atom_site_fract_z
O1	O	1.103277	-0.114973	-0.079101
O2	O	0.861233	-0.129281	-0.079116
O3	O	0.988743	0.008082	-0.079101
O4	O	0.975768	-0.252337	-0.079116
O5	O	0.988727	0.008090	0.079220
O6	O	0.861218	-0.129273	0.079205
O7	O	1.103262	-0.114965	0.079220
Zn8	Zn	0.982237	-0.122118	0.104350
Zn9	Zn	0.982258	-0.122129	-0.104245
O10	O	0.975752	-0.252329	0.079206
C11	C	0.830250	-0.128698	0.000043
C12	C	0.737952	-0.126960	0.000037
C13	C	0.515777	-0.204428	0.000044
C14	C	0.429054	-0.202789	0.000050
C15	C	0.448725	-0.039812	0.000055
C16	C	0.535446	-0.041452	0.000056
C17	C	0.568969	-0.123763	0.000045
C18	C	0.395526	-0.120483	0.000051
C19	C	0.301498	-0.118705	0.000058
C20	C	0.663003	-0.125542	0.000040
C21	C	0.988155	0.041410	0.000059
C22	C	0.986416	0.140705	0.000058
C23	C	1.134245	-0.115549	0.000060
C24	C	1.226543	-0.117286	0.000059
C25	C	0.976340	-0.285657	0.000043
C26	C	0.978079	-0.384951	0.000038
N27	N	0.982230	-0.122110	0.246710
C28	C	1.061324	0.198038	0.000063
C29	C	1.059685	0.291335	0.000054
C30	C	0.983137	0.327297	0.000046
C31	C	0.908223	0.269956	0.000037
C32	C	0.909863	0.176661	0.000040
C33	C	0.904811	0.464414	0.000034
C34	C	0.903171	0.557716	0.000033
C35	C	1.054633	0.579088	0.000047
C36	C	1.056273	0.485793	0.000050
C37	C	0.981359	0.428458	0.000044
N38	N	0.982272	-0.122129	-0.246606
C39	C	1.038709	-0.061311	0.296535
C40	C	1.038714	-0.061310	0.396193
C41	C	0.982244	-0.122114	0.446024
C42	C	0.925759	-0.182916	0.396192
C43	C	0.925750	-0.182912	0.296537
C44	C	0.925783	-0.182923	0.603907
C45	C	0.925793	-0.182929	0.703569
C46	C	1.038747	-0.061321	0.703563
C47	C	1.038738	-0.061317	0.603907
C48	C	0.982254	-0.122120	0.554082
H49	H	1.123658	0.168766	0.000076
Br50	Br	0.849113	-0.265432	0.463817
H51	H	0.848865	0.129980	0.000036
Br52	Br	0.561270	-0.316135	0.000033
H53	H	1.120683	0.338013	0.000060
Br54	Br	0.403224	0.071890	0.000066
Br55	Br	0.849121	-0.265440	0.536290
Br56	Br	1.115383	0.021195	0.536275
Br57	Br	1.115406	0.021193	0.771185
Br58	Br	0.607643	0.068030	0.000070
Br59	Br	1.160161	0.436987	0.000059
H60	H	1.084703	-0.011802	0.436759
H61	H	0.845896	0.299244	0.000025
H62	H	0.385748	-0.268475	0.000051
Br63	Br	1.156304	0.656897	0.000054
H64	H	0.840839	0.586992	0.000041
H65	H	0.879808	-0.232441	0.744137
Br66	Br	0.849091	-0.265423	0.228917
H67	H	0.843807	0.417734	0.000026
Br68	Br	1.115357	0.021207	0.228917
