data_functionalizedCrystal
_audit_creation_method	'MofGen! by Chris Wilmer'
_symmetry_space_group_name_H-M	'P1'
_symmetry_Int_Tables_number	1
_symmetry_cell_setting	triclinic
loop_
_symmetry_equiv_pos_as_xyz
  x,y,z
_cell_length_a	15.944499
_cell_length_b	14.519709
_cell_length_c	13.596369
_cell_angle_alpha	90.006934
_cell_angle_beta	89.992083
_cell_angle_gamma	96.421123
loop_
_atom_site_label
_atom_site_type_symbol
_atom_site_fract_x
_atom_site_fract_y
_atom_site_fract_z
O1	O	1.114724	-0.118716	-0.081852
O2	O	1.614724	0.381284	0.418148
O3	O	0.870190	-0.133430	-0.081842
O4	O	1.370190	0.366570	0.418158
O5	O	0.998941	0.008178	-0.081839
O6	O	1.498941	0.508178	0.418161
O7	O	0.985974	-0.260324	-0.081856
O8	O	1.485974	0.239676	0.418144
O9	O	0.998928	0.008186	0.081744
O10	O	1.498928	0.508186	0.581744
O11	O	0.870177	-0.133423	0.081741
O12	O	1.370177	0.366577	0.581741
O13	O	1.114711	-0.118708	0.081730
O14	O	1.614711	0.381292	0.581730
Zn15	Zn	0.992442	-0.126064	0.107708
Zn16	Zn	1.492442	0.373936	0.607708
Zn17	Zn	0.992459	-0.126074	-0.107819
Zn18	Zn	1.492459	0.373926	0.392181
O19	O	0.985961	-0.260317	0.081727
O20	O	1.485961	0.239683	0.581727
C21	C	0.838888	-0.132824	-0.000049
C22	C	1.338888	0.367176	0.499951
C23	C	0.745637	-0.131018	-0.000045
C24	C	1.245637	0.368982	0.499955
C25	C	0.454220	-0.213289	-0.000064
C26	C	0.954220	0.286711	0.499936
C27	C	0.515194	-0.170526	-0.080718
C28	C	1.015194	0.329474	0.419282
C29	C	0.409991	-0.124456	-0.000067
C30	C	0.909991	0.375544	0.499933
C31	C	0.515167	-0.170495	0.080562
C32	C	1.015167	0.329505	0.580562
C33	C	0.574905	-0.127685	-0.000054
C34	C	1.074905	0.372315	0.499946
C35	C	0.469736	-0.081669	-0.080787
C36	C	0.969736	0.418331	0.419213
C37	C	0.469703	-0.081650	0.080565
C38	C	0.969703	0.418350	0.580565
C39	C	0.530659	-0.038823	-0.000109
C40	C	1.030659	0.461177	0.499891
C41	C	0.314988	-0.122599	-0.000075
C42	C	0.814988	0.377401	0.499925
C43	C	0.669906	-0.129536	-0.000053
C44	C	1.169906	0.370464	0.499947
C45	C	0.998330	0.042540	-0.000047
C46	C	1.498330	0.542540	0.499953
C47	C	0.996519	0.144918	-0.000046
C48	C	1.496519	0.644918	0.499954
C49	C	1.146013	-0.119315	-0.000065
C50	C	1.646013	0.380685	0.499935
C51	C	1.239264	-0.121121	-0.000075
C52	C	1.739264	0.378879	0.499925
C53	C	0.986572	-0.294679	-0.000067
C54	C	1.486572	0.205321	0.499933
C55	C	0.988383	-0.397057	-0.000074
C56	C	1.488383	0.102943	0.499926
N57	N	0.992437	-0.126057	0.254800
N58	N	1.492437	0.373943	0.754800
C59	C	0.989852	0.519801	-0.000072
C60	C	1.489852	1.019801	0.499928
C61	C	0.991704	0.415497	-0.000064
C62	C	1.491704	0.915497	0.499936
C63	C	0.993185	0.332363	-0.000058
C64	C	1.493185	0.832363	0.499942
C65	C	0.995037	0.228052	-0.000052
C66	C	1.495037	0.728052	0.499948
N67	N	0.992471	-0.126074	-0.254911
N68	N	1.492471	0.373926	0.245089
C69	C	0.992458	-0.126075	0.656091
C70	C	1.492458	0.373925	1.156091
C71	C	0.992450	-0.126073	0.544440
C72	C	1.492450	0.373927	1.044440
C73	C	0.992448	-0.126067	0.455449
C74	C	1.492448	0.373933	0.955449
C75	C	0.992439	-0.126063	0.343790
C76	C	1.492439	0.373937	0.843790
H77	H	0.420997	-0.287010	-0.000147
H78	H	0.920997	0.212990	0.499853
N79	N	0.541823	-0.220272	0.170882
N80	N	1.041823	0.279728	0.670882
H81	H	0.581822	-0.176618	0.211300
H82	H	1.081822	0.323382	0.711300
H83	H	0.571047	-0.275399	0.150221
H84	H	1.071047	0.224601	0.650221
N85	N	0.541907	-0.220283	-0.171046
N86	N	1.041907	0.279717	0.328954
H87	H	0.524573	-0.187386	-0.231957
H88	H	1.024573	0.312614	0.268043
H89	H	0.513819	-0.286173	-0.170911
H90	H	1.013819	0.213827	0.329089
H91	H	0.449708	-0.044135	-0.149051
H92	H	0.949708	0.455865	0.350949
N93	N	0.574462	0.058917	-0.000143
N94	N	1.074462	0.558917	0.499857
H95	H	0.557951	0.092339	-0.061085
H96	H	1.057951	0.592339	0.438915
H97	H	0.637594	0.057088	0.000476
H98	H	1.137594	0.557088	0.500476
N99	N	0.442967	-0.031920	0.170892
N100	N	0.942967	0.468080	0.670892
H101	H	0.414691	0.023903	0.150347
H102	H	0.914691	0.523903	0.650347
H103	H	0.494245	-0.011168	0.212222
H104	H	0.994245	0.488832	0.712222
