data_functionalizedCrystal
_audit_creation_method	'MofGen! by Chris Wilmer'
_symmetry_space_group_name_H-M	'P1'
_symmetry_Int_Tables_number	1
_symmetry_cell_setting	triclinic
loop_
_symmetry_equiv_pos_as_xyz
  x,y,z
_cell_length_a	13.262390
_cell_length_b	17.038272
_cell_length_c	12.376457
_cell_angle_alpha	102.103643
_cell_angle_beta	63.168449
_cell_angle_gamma	87.643524
loop_
_atom_site_label
_atom_site_type_symbol
_atom_site_fract_x
_atom_site_fract_y
_atom_site_fract_z
O1	O	1.513980	0.016515	-0.559493
O2	O	2.013980	0.516515	-0.059493
O3	O	1.189463	0.043809	-0.459719
O4	O	1.689463	0.543809	0.040281
O5	O	1.349791	-0.083564	-0.509004
O6	O	1.849791	0.416436	-0.009004
O7	O	1.353652	0.143888	-0.510209
O8	O	1.853652	0.643888	-0.010209
O9	O	1.309720	-0.051762	-0.308674
O10	O	1.809720	0.448238	0.191326
O11	O	1.149392	0.075611	-0.259390
O12	O	1.649392	0.575611	0.240610
O13	O	1.473910	0.048317	-0.359163
O14	O	1.973910	0.548317	0.140837
Zn15	Zn	1.305289	0.067013	-0.277470
Zn16	Zn	1.805289	0.567013	0.222530
Zn17	Zn	1.358084	0.025113	-0.541413
Zn18	Zn	1.858084	0.525113	-0.041413
O19	O	1.313582	0.175690	-0.309879
O20	O	1.813582	0.675690	0.190121
C21	C	1.127700	0.061105	-0.346725
C22	C	1.627700	0.561105	0.153275
C23	C	1.003365	0.065252	-0.308498
C24	C	1.503365	0.565252	0.191502
C25	C	0.740265	0.007587	-0.637559
C26	C	1.240265	0.507587	-0.137559
C27	C	0.857085	0.003687	-0.673477
C28	C	1.357085	0.503687	-0.173477
C29	C	0.893661	0.019078	-0.582235
C30	C	1.393661	0.519078	-0.082235
C31	C	0.813405	0.038370	-0.455069
C32	C	1.313405	0.538370	0.044931
C33	C	0.696574	0.042264	-0.419147
C34	C	1.196574	0.542264	0.080853
C35	C	0.849970	0.053755	-0.363824
C36	C	1.349970	0.553755	0.136176
C37	C	0.769714	0.073047	-0.236658
C38	C	1.269714	0.573047	0.263342
C39	C	0.652895	0.076941	-0.200742
C40	C	1.152895	0.576941	0.299258
C41	C	0.616319	0.061550	-0.291984
C42	C	1.116319	0.561550	0.208016
C43	C	0.966801	0.049860	-0.399746
C44	C	1.466801	0.549860	0.100254
C45	C	0.923110	0.084538	-0.181334
C46	C	1.423110	0.584538	0.318666
C47	C	0.806290	0.088438	-0.145416
C48	C	1.306290	0.588438	0.354584
C49	C	1.326247	-0.096631	-0.407760
C50	C	1.826247	0.403369	0.092240
C51	C	1.315780	-0.182947	-0.404542
C52	C	1.815780	0.317053	0.095458
C53	C	1.411882	-0.237441	-0.434088
C54	C	1.911882	0.262559	0.065912
C55	C	1.402042	-0.318545	-0.431073
C56	C	1.902042	0.181455	0.068927
C57	C	1.296098	-0.345152	-0.398504
C58	C	1.796098	0.154848	0.101496
C59	C	1.199990	-0.290652	-0.368961
C60	C	1.699990	0.209348	0.131039
C61	C	1.209833	-0.209551	-0.371984
C62	C	1.709833	0.290449	0.128016
C63	C	1.261329	-0.589328	-0.387830
C64	C	1.761329	-0.089328	0.112170
C65	C	1.251493	-0.670435	-0.384805
C66	C	1.751493	-0.170435	0.115195
C67	C	1.453546	-0.698322	-0.446921
C68	C	1.953546	-0.198322	0.053079
C69	C	1.463378	-0.617217	-0.449934
C70	C	1.963378	-0.117217	0.050066
C71	C	1.367271	-0.562726	-0.420396
C72	C	1.867271	-0.062726	0.079604
C73	C	1.286038	-0.428052	-0.395419
C74	C	1.786038	0.071948	0.104581
C75	C	1.377335	-0.479828	-0.423491
C76	C	1.877335	0.020172	0.076509
C77	C	1.535673	0.031021	-0.472160
C78	C	2.035673	0.531021	0.027840
C79	C	1.660010	0.026873	-0.510395
C80	C	2.160010	0.526873	-0.010395
C81	C	1.337126	0.188757	-0.411125
C82	C	1.837126	0.688757	0.088875
C83	C	1.347595	0.275072	-0.414351
C84	C	1.847595	0.775072	0.085649
N85	N	1.269266	0.095608	-0.097338
N86	N	1.769266	0.595608	0.402662
N87	N	1.394115	-0.003489	-0.721547
N88	N	1.894115	0.496511	-0.221547
C89	C	1.477734	-0.069882	0.193565
C90	C	1.977734	0.430118	0.693565
C91	C	1.502940	-0.089896	0.067477
C92	C	2.002940	0.410104	0.567477
C93	C	1.444524	-0.043521	0.026267
C94	C	1.944524	0.456479	0.526267
C95	C	1.360897	0.022870	0.111157
C96	C	1.860897	0.522870	0.611157
C97	C	1.335694	0.042889	0.237256
C98	C	1.835694	0.542889	0.737256
C99	C	1.302484	0.069250	0.069958
C100	C	1.802484	0.569250	0.569958
C101	C	1.218857	0.135641	0.154849
C102	C	1.718857	0.635641	0.654849
C103	C	1.193658	0.155657	0.280934
C104	C	1.693658	0.655657	0.780934
C105	C	1.252075	0.109283	0.322144
C106	C	1.752075	0.609283	0.822144
C107	C	1.327686	0.049230	-0.056141
C108	C	1.827686	0.549230	0.443859
C109	C	1.185647	0.162002	-0.012450
C110	C	1.685647	0.662002	0.487550
C111	C	1.160441	0.182015	0.113638
C112	C	1.660441	0.682015	0.613638
H113	H	0.952888	0.097069	-0.107037
H114	H	1.452888	0.597069	0.392963
H115	H	1.032135	0.034155	-0.503285
H116	H	1.532135	0.534155	-0.003285
F117	F	1.591938	-0.160550	-0.022865
F118	F	2.091938	0.339450	0.477135
H119	H	0.740929	0.104145	-0.041875
H120	H	1.240929	0.604145	0.458125
F121	F	1.524640	-0.209130	-0.468740
F122	F	2.024640	0.290870	0.031260
F123	F	0.942491	-0.016847	-0.808811
F124	F	1.442491	0.483153	-0.308811
H125	H	1.395776	-0.004825	-0.125249
H126	H	1.895776	0.495175	0.374751
F127	F	0.491985	0.065705	-0.253761
F128	F	0.991985	0.565705	0.246239
F129	F	1.539906	-0.119225	0.237427
F130	F	2.039906	0.380775	0.737427
H131	H	0.710473	-0.004950	-0.711834
H132	H	1.210473	0.495050	-0.211834
H133	H	0.587553	0.092635	-0.097195
H134	H	1.087553	0.592635	0.402805
F135	F	1.225244	0.130580	0.456345
F136	F	1.725244	0.630580	0.956345
H137	H	1.549648	-0.595561	-0.476455
H138	H	2.049648	-0.095561	0.023545
H139	H	1.465050	-0.059820	-0.076401
H140	H	1.965050	0.440180	0.423599
F141	F	1.138727	-0.698748	-0.350134
F142	F	1.638727	-0.198748	0.149866
F143	F	1.504327	-0.376538	-0.462518
F144	F	2.004327	0.123462	0.037482
H145	H	1.531791	-0.742698	-0.470971
H146	H	2.031791	-0.242698	0.029029
F147	F	1.159042	-0.531344	-0.356396
F148	F	1.659042	-0.031344	0.143604
F149	F	1.104668	0.226323	0.371278
F150	F	1.604668	0.726323	0.871278
H151	H	1.092350	0.236073	0.182772
H152	H	1.592350	0.736073	0.682772
H153	H	1.113730	-0.312323	-0.342450
H154	H	1.613730	0.187677	0.157550
H155	H	1.131576	-0.165182	-0.347925
H156	H	1.631576	0.334818	0.152075
F157	F	1.173288	-0.456377	-0.360762
F158	F	1.673288	0.043623	0.139238
F159	F	1.017992	0.014928	-0.620467
F160	F	1.517992	0.514928	-0.120467
F161	F	1.490086	-0.451510	-0.458159
F162	F	1.990086	0.048490	0.041841
F163	F	1.123475	0.211362	-0.056303
F164	F	1.623475	0.711362	0.443697
