data_functionalizedCrystal
_audit_creation_method	'MofGen! by Chris Wilmer'
_symmetry_space_group_name_H-M	'P1'
_symmetry_Int_Tables_number	1
_symmetry_cell_setting	triclinic
loop_
_symmetry_equiv_pos_as_xyz
  x,y,z
_cell_length_a	17.038272
_cell_length_b	18.266242
_cell_length_c	17.038272
_cell_angle_alpha	90.006273
_cell_angle_beta	91.111556
_cell_angle_gamma	90.003258
loop_
_atom_site_label
_atom_site_type_symbol
_atom_site_fract_x
_atom_site_fract_y
_atom_site_fract_z
O1	O	1.048760	0.060790	0.170538
O2	O	0.820948	0.060812	0.167830
O3	O	0.933500	0.060795	0.055279
O4	O	0.936208	0.060806	0.283090
O5	O	0.933479	-0.060967	0.055271
O6	O	0.820927	-0.060950	0.167823
O7	O	1.048739	-0.060972	0.170531
Zn8	Zn	0.934830	-0.080294	0.169176
Zn9	Zn	0.934857	0.080133	0.169186
O10	O	0.936187	-0.060956	0.283083
C11	C	0.791645	-0.000067	0.165364
C12	C	0.704361	-0.000059	0.158016
N13	N	0.934817	-0.189780	0.169169
C14	C	0.658752	-0.000056	0.225479
C15	C	0.576740	-0.000066	0.218570
C16	C	0.540339	-0.000074	0.144197
C17	C	0.585954	-0.000079	0.076728
C18	C	0.667965	-0.000074	0.083638
C19	C	0.292951	-0.000095	0.119787
C20	C	0.210935	-0.000098	0.112882
C21	C	0.201726	-0.000087	0.254725
C22	C	0.283739	-0.000077	0.261628
C23	C	0.329347	-0.000086	0.194159
C24	C	0.456510	-0.000083	0.137133
C25	C	0.413174	-0.000083	0.201224
C26	C	0.984674	-0.228097	0.119358
C27	C	0.984679	-0.304742	0.119355
C28	C	0.934835	-0.343067	0.169176
C29	C	0.884968	-0.304742	0.218990
C30	C	0.884959	-0.228099	0.218986
N31	N	0.929461	-0.463396	0.238001
N32	N	0.929474	-0.536204	0.238002
C33	C	0.934857	-0.573990	0.169189
N34	N	0.940243	-0.536217	0.100373
N35	N	0.940234	-0.463402	0.100373
C36	C	0.934838	-0.426174	0.169185
C37	C	0.984722	-0.695413	0.119371
C38	C	0.984722	-0.772059	0.119366
C39	C	0.885015	-0.772058	0.219008
C40	C	0.885011	-0.695414	0.219006
C41	C	0.934869	-0.657095	0.169188
C42	C	1.078042	-0.000092	0.172997
C43	C	1.165326	-0.000095	0.180346
C44	C	0.931027	-0.000086	0.025982
C45	C	0.923679	-0.000085	-0.061301
N46	N	0.934876	0.189620	0.169187
C47	C	0.991142	-0.000092	-0.106911
C48	C	0.984233	-0.000084	-0.188923
C49	C	0.909860	-0.000075	-0.225324
C50	C	0.842391	-0.000065	-0.179708
C51	C	0.849301	-0.000068	-0.097698
C52	C	0.885449	-0.000062	-0.472712
C53	C	0.878545	-0.000062	-0.554728
C54	C	1.020387	-0.000080	-0.563937
C55	C	1.027291	-0.000086	-0.481924
C56	C	0.959822	-0.000073	-0.436316
C57	C	0.902796	-0.000069	-0.309153
C58	C	0.966886	-0.000073	-0.352488
C59	C	0.938660	-0.000073	0.312379
C60	C	0.946008	-0.000069	0.399663
H61	H	0.688384	-0.000049	0.286042
F62	F	0.451917	-0.000077	0.280375
F63	F	0.831962	-0.812844	0.272027
F64	F	1.106449	-0.000078	-0.443190
F65	F	0.831917	-0.345531	0.272011
H66	H	0.844358	-0.196901	0.259549
F67	F	0.172196	-0.000119	0.033720
H68	H	0.426863	-0.000110	0.076578
H69	H	0.781835	-0.000053	-0.209353
F70	F	0.777497	-0.000058	-0.049157
H71	H	0.844416	-0.664214	0.259570
H72	H	1.025317	-0.664213	0.078803
H73	H	1.025269	-0.196900	0.078792
H74	H	1.025280	-0.335944	0.078791
H75	H	1.075316	-0.000089	-0.601079
H76	H	0.842241	-0.000063	-0.338800
F77	F	1.070301	-0.000109	-0.068177
H78	H	1.025319	-0.803257	0.078800
F79	F	1.056038	-0.000093	-0.237460
H80	H	1.027441	-0.000065	-0.322847
H81	H	0.817978	-0.000066	-0.584363
F82	F	0.813642	-0.000046	-0.424182
H83	H	0.539608	-0.000063	0.273507
H84	H	0.313370	-0.000062	0.322190
H85	H	0.164583	-0.000081	0.309653
H86	H	0.330076	-0.000103	0.064848
H87	H	0.556310	-0.000096	0.016172
H88	H	0.705099	-0.000076	0.028702
