data_functionalizedCrystal
_audit_creation_method	'MofGen! by Chris Wilmer'
_symmetry_space_group_name_H-M	'P1'
_symmetry_Int_Tables_number	1
_symmetry_cell_setting	triclinic
loop_
_symmetry_equiv_pos_as_xyz
  x,y,z
_cell_length_a	12.594517
_cell_length_b	29.839131
_cell_length_c	12.594509
_cell_angle_alpha	90.034966
_cell_angle_beta	90.021327
_cell_angle_gamma	90.041220
loop_
_atom_site_label
_atom_site_type_symbol
_atom_site_fract_x
_atom_site_fract_y
_atom_site_fract_z
Zn1	Zn	1.627079	-0.178842	0.601810
Zn2	Zn	2.127079	0.321158	1.101810
Zn3	Zn	1.626891	-0.253977	0.423811
Zn4	Zn	2.126891	0.246023	0.923811
Zn5	Zn	1.449083	-0.178861	0.423839
Zn6	Zn	1.949083	0.321139	0.923839
Zn7	Zn	1.448987	-0.253946	0.601741
Zn8	Zn	1.948987	0.246054	1.101741
O9	O	1.538010	-0.216407	0.512800
O10	O	2.038010	0.283593	1.012800
O11	O	1.776000	-0.188814	0.578215
O12	O	2.276000	0.311186	1.078215
O13	O	1.603266	-0.244034	0.274869
O14	O	2.103266	0.255966	0.774869
O15	O	1.472814	-0.115992	0.447488
O16	O	1.972814	0.384008	0.947488
O17	O	1.775862	-0.244015	0.447440
O18	O	2.275862	0.255985	0.947440
O19	O	1.603587	-0.115978	0.578243
O20	O	2.103587	0.384022	1.078243
O21	O	1.472632	-0.188847	0.274889
O22	O	1.972632	0.311153	0.774889
O23	O	1.300125	-0.188816	0.447421
O24	O	1.800125	0.311184	0.947421
O25	O	1.472649	-0.243962	0.750696
O26	O	1.972649	0.256038	1.250696
O27	O	1.300054	-0.243981	0.578124
O28	O	1.800054	0.256019	1.078124
O29	O	1.603493	-0.188784	0.750747
O30	O	2.103493	0.311216	1.250747
O31	O	1.603173	-0.316840	0.447373
O32	O	2.103173	0.183160	0.947373
O33	O	1.472467	-0.316817	0.578097
O34	O	1.972467	0.183183	1.078097
C35	C	1.261469	-0.216398	0.512769
C36	C	1.761469	0.283602	1.012769
C37	C	1.143164	-0.216404	0.512781
C38	C	1.643164	0.283596	1.012781
C39	C	1.537818	-0.333129	0.512747
C40	C	2.037818	0.166871	1.012747
C41	C	1.537833	-0.383064	0.512760
C42	C	2.037833	0.116936	1.012760
C43	C	1.073918	-0.186360	0.441827
C44	C	1.573918	0.313640	0.941827
C45	C	1.003064	-0.227339	0.415635
C46	C	1.503064	0.272661	0.915635
C47	C	1.003219	-0.175445	0.538990
C48	C	1.503219	0.324555	1.038990
C49	C	1.073868	-0.257405	0.486538
C50	C	1.573868	0.242595	0.986538
C51	C	1.074029	-0.205484	0.609939
C52	C	1.574029	0.294516	1.109939
C53	C	1.003207	-0.246491	0.583784
C54	C	1.503207	0.253509	1.083784
C55	C	1.606192	-0.692706	0.444831
C56	C	2.106192	-0.192706	0.944831
C57	C	1.606324	-0.880379	0.444873
C58	C	2.106324	-0.380379	0.944873
O59	O	1.664293	-0.904643	0.387076
O60	O	2.164293	-0.404643	0.887076
N61	N	1.538231	-0.903849	0.512880
N62	N	2.038231	-0.403849	1.012880
C63	C	1.470105	-0.880397	0.580888
C64	C	1.970105	-0.380397	1.080888
O65	O	1.412199	-0.904665	0.638741
O66	O	1.912199	-0.404665	1.138741
C67	C	1.469980	-0.692725	0.580851
C68	C	1.969980	-0.192725	1.080851
C69	C	1.538070	-0.669258	0.512831
C70	C	2.038070	-0.169258	1.012831
C71	C	1.674278	-0.669239	0.376818
C72	C	2.174278	-0.169239	0.876818
C73	C	1.674240	-0.622324	0.376804
C74	C	2.174240	-0.122324	0.876804
C75	C	1.606117	-0.598875	0.444804
C76	C	2.106117	-0.098875	0.944804
C77	C	1.538032	-0.622342	0.512817
C78	C	2.038032	-0.122342	1.012817
C79	C	1.401860	-0.669274	0.648863
C80	C	1.901860	-0.169274	1.148863
C81	C	1.401837	-0.622353	0.648849
C82	C	1.901837	-0.122353	1.148849
C83	C	1.469927	-0.598886	0.580829
C84	C	1.969927	-0.098886	1.080829
C85	C	1.469872	-0.551978	0.580803
C86	C	1.969872	-0.051978	1.080803
N87	N	1.537965	-0.528509	0.512796
N88	N	2.037965	-0.028509	1.012796
C89	C	1.606087	-0.551957	0.444796
C90	C	2.106087	-0.051957	0.944796
C91	C	1.470174	-0.978927	0.580901
C92	C	1.970174	-0.478927	1.080901
C93	C	1.470204	-1.025845	0.580909
C94	C	1.970204	-0.525845	1.080909
C95	C	1.606424	-1.025824	0.444895
C96	C	2.106424	-0.525824	0.944895
C97	C	1.606388	-0.978906	0.444882
C98	C	2.106388	-0.478906	0.944882
C99	C	1.538267	-0.955458	0.512893
C100	C	2.038267	-0.455458	1.012893
C101	C	1.606003	-0.453432	0.444772
C102	C	2.106003	0.046568	0.944772
C103	C	1.605956	-0.406512	0.444761
C104	C	2.105956	0.093488	0.944761
C105	C	1.469740	-0.406537	0.580778
C106	C	1.969740	0.093463	1.080778
C107	C	1.469782	-0.453452	0.580785
C108	C	1.969782	0.046548	1.080785
C109	C	1.537922	-0.476899	0.512779
C110	C	2.037922	0.023101	1.012779
O111	O	1.411941	-0.527685	0.638578
O112	O	1.911941	-0.027685	1.138578
O113	O	1.664002	-0.527681	0.386968
O114	O	2.164002	-0.027681	0.886968
C115	C	1.606230	-0.739622	0.444845
C116	C	2.106230	-0.239622	0.944845
C117	C	1.538145	-0.763089	0.512859
C118	C	2.038145	-0.263089	1.012859
C119	C	1.470022	-0.739640	0.580858
C120	C	1.970022	-0.239640	1.080858
C121	C	1.538175	-0.810006	0.512867
C122	C	2.038175	-0.310006	1.012867
C123	C	1.606297	-0.833455	0.444867
C124	C	2.106297	-0.333455	0.944867
C125	C	1.674390	-0.809986	0.376859
C126	C	2.174390	-0.309986	0.876859
C127	C	1.674353	-0.763070	0.376846
C128	C	2.174353	-0.263070	0.876846
C129	C	1.401929	-0.763109	0.648866
C130	C	1.901929	-0.263109	1.148866
C131	C	1.401972	-0.810025	0.648873
C132	C	1.901972	-0.310025	1.148873
C133	C	1.470094	-0.833473	0.580874
C134	C	1.970094	-0.333473	1.080874
C135	C	1.815631	-0.216416	0.512832
C136	C	2.315631	0.283584	1.012832
C137	C	1.933936	-0.216420	0.512846
C138	C	2.433936	0.283580	1.012846
C139	C	1.538081	-0.216367	0.790421
C140	C	2.038081	0.283633	1.290421
C141	C	1.538112	-0.216350	0.908727
C142	C	2.038112	0.283650	1.408727
C143	C	1.538232	-0.099228	0.512876
C144	C	2.038232	0.400772	1.012876
C145	C	1.538327	-0.049294	0.512909
C146	C	2.038327	0.450706	1.012909
C147	C	1.538000	-0.216413	0.236259
C148	C	2.038000	0.283587	0.736259
C149	C	1.538176	-0.216304	0.117954
C150	C	2.038176	0.283696	0.617954
C151	C	1.466968	-0.246345	0.977952
C152	C	1.966968	0.253655	1.477952
C153	C	1.564077	-0.257322	1.048740
C154	C	2.064077	0.242678	1.548740
C155	C	1.441079	-0.205346	1.048739
C156	C	1.941079	0.294654	1.548739
C157	C	1.635272	-0.227349	0.977956
C158	C	2.135272	0.272651	1.477956
C159	C	1.512208	-0.175355	0.977949
C160	C	2.012208	0.324645	1.477949
C161	C	1.609384	-0.186316	1.048704
C162	C	2.109384	0.313684	1.548704
H163	H	1.104966	-0.160977	0.381749
H164	H	1.604966	0.339023	0.881749
H165	H	1.406851	-0.271749	0.946888
H166	H	1.906851	0.228251	1.446888
H167	H	1.490234	-0.140715	0.946830
H168	H	1.990234	0.359285	1.446830
H169	H	1.104773	-0.292061	0.464307
H170	H	1.604773	0.207939	0.964307
F171	F	0.962647	-0.130163	0.567928
F172	F	1.462647	0.369837	1.067928
F173	F	1.742595	-0.239544	0.937491
F174	F	2.242595	0.260456	1.437491
F175	F	1.678429	-0.381539	0.372361
F176	F	2.178429	0.118461	0.872361
H177	H	1.669644	-0.160931	1.079573
H178	H	2.169644	0.339069	1.579573
F179	F	1.397664	-0.953978	0.653291
F180	F	1.897664	-0.453978	1.153291
H181	H	1.346409	-0.688372	0.704247
H182	H	1.846409	-0.188372	1.204247
F183	F	1.333787	-0.193206	1.089380
F184	F	1.833787	0.306794	1.589380
H185	H	1.586022	-0.291971	1.079835
H186	H	2.086022	0.208029	1.579835
F187	F	1.397245	-0.381573	0.653147
F188	F	1.897245	0.118427	1.153147
H189	H	0.971896	-0.236586	0.333498
H190	H	1.471896	0.263414	0.833498
H191	H	1.729855	-0.829086	0.321488
H192	H	2.229855	-0.329086	0.821488
F193	F	0.962877	-0.279747	0.662251
F194	F	1.462877	0.220253	1.162251
H195	H	1.105223	-0.196225	0.692051
H196	H	1.605223	0.303775	1.192051
F197	F	1.329493	-0.834995	0.721272
F198	F	1.829493	-0.334995	1.221272
H199	H	1.661491	-0.472516	0.389396
H200	H	2.161491	0.027484	0.889396
F201	F	1.746723	-0.597354	0.304420
F202	F	2.246723	-0.097354	0.804420
F203	F	1.329421	-0.738160	0.721246
F204	F	1.829421	-0.238160	1.221246
F205	F	1.746791	-0.694188	0.304439
F206	F	2.246791	-0.194188	0.804439
F207	F	1.678859	-0.953935	0.372488
F208	F	2.178859	-0.453935	0.872488
H209	H	1.414748	-1.044948	0.636287
H210	H	1.914748	-0.544948	1.136287
F211	F	1.678924	-1.050788	0.372522
F212	F	2.178924	-0.550788	0.872522
H213	H	1.346366	-0.603264	0.704235
H214	H	1.846366	-0.103264	1.204235
F215	F	1.397295	-0.478428	0.653159
F216	F	1.897295	0.021572	1.153159
H217	H	1.729798	-0.743967	0.321458
H218	H	2.229798	-0.243967	0.821458
