data_functionalizedCrystal
_audit_creation_method	'MofGen! by Chris Wilmer'
_symmetry_space_group_name_H-M	'P1'
_symmetry_Int_Tables_number	1
_symmetry_cell_setting	triclinic
loop_
_symmetry_equiv_pos_as_xyz
  x,y,z
_cell_length_a	8.497374
_cell_length_b	13.032831
_cell_length_c	13.032721
_cell_angle_alpha	90.902885
_cell_angle_beta	97.169095
_cell_angle_gamma	82.827283
loop_
_atom_site_label
_atom_site_type_symbol
_atom_site_fract_x
_atom_site_fract_y
_atom_site_fract_z
Zn1	Zn	1.299749	-1.519982	0.609635
Zn2	Zn	1.064703	-1.498071	0.781567
Zn3	Zn	0.998870	-1.348061	0.587743
Zn4	Zn	1.291326	-1.326132	0.759681
O5	O	1.163662	-1.423062	0.684657
O6	O	1.299646	-1.660983	0.650764
O7	O	0.835209	-1.478179	0.755853
O8	O	1.014756	-1.389213	0.446737
O9	O	1.126959	-1.644885	0.777081
O10	O	1.235810	-1.515523	0.462821
O11	O	0.786842	-1.367967	0.613452
O12	O	1.006589	-1.201245	0.592230
O13	O	1.513205	-1.351839	0.739780
O14	O	1.221455	-1.185134	0.718552
O15	O	1.519393	-1.494260	0.629542
O16	O	1.118792	-1.456916	0.922574
O17	O	1.285291	-1.330593	0.906494
C18	C	1.105965	-1.155876	0.650641
C19	C	1.081324	-1.041569	0.636114
C20	C	1.208312	-1.389026	0.951852
C21	C	1.227486	-1.374559	1.066171
C22	C	1.221586	-1.691291	0.718806
C23	C	1.246269	-1.805594	0.733358
C24	C	1.575141	-1.423054	0.684657
C25	C	1.753788	-1.423055	0.684668
C26	C	1.118879	-1.457259	0.416421
C27	C	1.099795	-1.471831	0.302116
C28	C	1.176523	-0.982652	0.692239
C29	C	1.151057	-0.864510	0.677225
C30	C	1.153738	-1.430666	1.125067
C31	C	1.173554	-1.415716	1.243222
H32	H	1.050699	-0.827493	0.618052
H33	H	1.021987	-1.530944	1.265071
O34	O	1.296329	-1.026941	0.762696
C35	C	1.537673	-1.146543	0.792060
C36	C	1.402064	-1.096486	0.712161
H37	H	1.623214	-1.202764	0.751229
H38	H	1.484942	-1.190068	0.852094
H39	H	1.605318	-1.083787	0.832005
H40	H	1.334368	-1.159176	0.672139
H41	H	1.454893	-1.052936	0.652192
O42	O	1.365890	-0.849907	0.803933
C43	C	1.500447	-1.008073	0.883164
C44	C	1.364893	-0.958021	0.803224
H45	H	1.499707	-1.095492	0.882602
H46	H	1.481906	-0.976537	0.963438
H47	H	1.620165	-0.989241	0.862578
H48	H	1.245116	-0.976833	0.823713
H49	H	1.383574	-0.989559	0.722972
H50	H	1.075935	-1.489775	1.088019
O51	O	1.320202	-1.304060	1.110526
C52	C	1.424622	-1.224956	1.268739
C53	C	1.319541	-1.304816	1.218644
H54	H	1.424149	-1.225557	1.356161
H55	H	1.375425	-1.144652	1.237281
H56	H	1.552190	-1.245593	1.249854
H57	H	1.191951	-1.284277	1.237508
H58	H	1.368869	-1.385099	1.250104
O59	O	1.266275	-1.345213	1.287572
C60	C	1.370695	-1.266109	1.445785
C61	C	1.265614	-1.345969	1.395690
H62	H	1.370222	-1.266710	1.533207
H63	H	1.321498	-1.185805	1.414327
H64	H	1.498263	-1.286745	1.426900
H65	H	1.138023	-1.325430	1.414554
H66	H	1.314942	-1.426251	1.427150
H67	H	0.980973	-1.004548	0.576944
