data_functionalizedCrystal
_audit_creation_method	'MofGen! by Chris Wilmer'
_symmetry_space_group_name_H-M	'P1'
_symmetry_Int_Tables_number	1
_symmetry_cell_setting	triclinic
loop_
_symmetry_equiv_pos_as_xyz
  x,y,z
_cell_length_a	16.109301
_cell_length_b	14.586319
_cell_length_c	16.109301
_cell_angle_alpha	89.998390
_cell_angle_beta	83.461481
_cell_angle_gamma	89.996867
loop_
_atom_site_label
_atom_site_type_symbol
_atom_site_fract_x
_atom_site_fract_y
_atom_site_fract_z
O1	O	-1.103134	0.076185	-0.106861
O2	O	-0.853134	0.326185	0.143139
O3	O	-0.603134	0.576185	0.393139
O4	O	-0.353134	0.826185	0.643139
O5	O	-0.861072	0.076200	-0.120161
O6	O	-0.611072	0.326200	0.129839
O7	O	-0.361072	0.576200	0.379839
O8	O	-0.111072	0.826200	0.629839
O9	O	-0.988753	0.076183	0.007520
O10	O	-0.738753	0.326183	0.257520
O11	O	-0.488753	0.576183	0.507520
O12	O	-0.238753	0.826183	0.757520
O13	O	-0.975454	0.076203	-0.234542
O14	O	-0.725454	0.326203	0.015458
O15	O	-0.475454	0.576203	0.265458
O16	O	-0.225454	0.826203	0.515458
O17	O	-0.988737	-0.076298	0.007512
O18	O	-0.738737	0.173702	0.257512
O19	O	-0.488737	0.423702	0.507512
O20	O	-0.238737	0.673702	0.757512
O21	O	-0.861057	-0.076281	-0.120168
O22	O	-0.611057	0.173719	0.129832
O23	O	-0.361057	0.423719	0.379832
O24	O	-0.111057	0.673719	0.629832
O25	O	-1.103119	-0.076295	-0.106869
O26	O	-0.853119	0.173705	0.143131
O27	O	-0.603119	0.423705	0.393131
O28	O	-0.353119	0.673705	0.643131
Cu29	Cu	-0.982086	-0.090211	-0.113519
Cu30	Cu	-0.732086	0.159789	0.136481
Cu31	Cu	-0.482086	0.409789	0.386481
Cu32	Cu	-0.232086	0.659789	0.636481
Cu33	Cu	-0.982105	0.090115	-0.113510
Cu34	Cu	-0.732105	0.340115	0.136490
Cu35	Cu	-0.482105	0.590115	0.386490
Cu36	Cu	-0.232105	0.840115	0.636490
O37	O	-0.975438	-0.076278	-0.234550
O38	O	-0.725438	0.173722	0.015450
O39	O	-0.475438	0.423722	0.265450
O40	O	-0.225438	0.673722	0.515450
C41	C	-0.830090	-0.000038	-0.119626
C42	C	-0.580090	0.249962	0.130374
C43	C	-0.330090	0.499962	0.380374
C44	C	-0.080090	0.749962	0.630374
C45	C	-0.737794	-0.000033	-0.118011
C46	C	-0.487794	0.249967	0.131989
C47	C	-0.237794	0.499967	0.381989
C48	C	0.012206	0.749967	0.631989
N49	N	-0.982079	-0.217042	-0.113525
N50	N	-0.732079	0.032958	0.136475
N51	N	-0.482079	0.282958	0.386475
N52	N	-0.232079	0.532958	0.636475
C53	C	-0.988206	-0.000058	0.038491
C54	C	-0.738206	0.249942	0.288491
C55	C	-0.488206	0.499942	0.538491
C56	C	-0.238206	0.749942	0.788491
C57	C	-0.986591	-0.000059	0.130786
C58	C	-0.736591	0.249941	0.380786
C59	C	-0.486591	0.499941	0.630786
C60	C	-0.236591	0.749941	0.880786
C61	C	-1.134101	-0.000055	-0.107404
C62	C	-0.884101	0.249945	0.142596
C63	C	-0.634101	0.499945	0.392596
C64	C	-0.384101	0.749945	0.642596
C65	C	-1.226397	-0.000054	-0.109019
C66	C	-0.976397	0.249946	0.140981
C67	C	-0.726397	0.499946	0.390981
C68	C	-0.476397	0.749946	0.640981
C69	C	-0.515522	-0.000038	-0.190018
C70	C	-0.265522	0.249962	0.059982
C71	C	-0.015522	0.499962	0.309982
C72	C	0.234478	0.749962	0.559982
C73	C	-0.428801	-0.000044	-0.188494
C74	C	-0.178801	0.249956	0.061506
C75	C	0.071199	0.499956	0.311506
C76	C	0.321199	0.749956	0.561506
C77	C	-0.448676	-0.000052	-0.037006
C78	C	-0.198676	0.249948	0.212994
C79	C	0.051324	0.499948	0.462994
C80	C	0.301324	0.749948	0.712994
C81	C	-0.535394	-0.000053	-0.038530
C82	C	-0.285394	0.249947	0.211470
C83	C	-0.035394	0.499947	0.461470
C84	C	0.214606	0.749947	0.711470
C85	C	-0.568815	-0.000041	-0.115039
C86	C	-0.318815	0.249959	0.134961
C87	C	-0.068815	0.499959	0.384961
C88	C	0.181185	0.749959	0.634961
C89	C	-0.395376	-0.000046	-0.111990
C90	C	-0.145376	0.249954	0.138010
C91	C	0.104624	0.499954	0.388010
C92	C	0.354624	0.749954	0.638010
C93	C	-0.301350	-0.000053	-0.110337
C94	C	-0.051350	0.249947	0.139663
C95	C	0.198650	0.499947	0.389663
C96	C	0.448650	0.749947	0.639663
C97	C	-0.662847	-0.000036	-0.116693
C98	C	-0.412847	0.249964	0.133307
C99	C	-0.162847	0.499964	0.383307
C100	C	0.087153	0.749964	0.633307
C101	C	-1.032502	-0.452048	-0.163954
C102	C	-0.782502	-0.202048	0.086046
C103	C	-0.532502	0.047952	0.336046
C104	C	-0.282502	0.297952	0.586046
C105	C	-1.032511	-0.548029	-0.163948
C106	C	-0.782511	-0.298029	0.086052
C107	C	-0.532511	-0.048029	0.336052
C108	C	-0.282511	0.201971	0.586052
C109	C	-0.931693	-0.548041	-0.063064
C110	C	-0.681693	-0.298041	0.186936
C111	C	-0.431693	-0.048041	0.436936
C112	C	-0.181693	0.201959	0.686936
C113	C	-0.931690	-0.452061	-0.063066
C114	C	-0.681690	-0.202061	0.186934
C115	C	-0.431690	0.047939	0.436934
C116	C	-0.181690	0.297939	0.686934
C117	C	-0.982093	-0.404067	-0.113515
C118	C	-0.732093	-0.154067	0.136485
C119	C	-0.482093	0.095933	0.386485
C120	C	-0.232093	0.345933	0.636485
C121	C	-0.982105	-0.596028	-0.113508
C122	C	-0.732105	-0.346028	0.136492
C123	C	-0.482105	-0.096028	0.386492
C124	C	-0.232105	0.153972	0.636492
C125	C	-0.982114	-0.700095	-0.113501
C126	C	-0.732114	-0.450095	0.136499
C127	C	-0.482114	-0.200095	0.386499
C128	C	-0.232114	0.049905	0.636499
C129	C	-0.982085	-0.299993	-0.113521
C130	C	-0.732085	-0.049993	0.136479
C131	C	-0.482085	0.200007	0.386479
C132	C	-0.232085	0.450007	0.636479
N133	N	-0.982118	0.216947	-0.113498
N134	N	-0.732118	0.466947	0.136502
N135	N	-0.482118	0.716947	0.386502
N136	N	-0.232118	0.966947	0.636502
C137	C	-0.975984	-0.000035	-0.265521
C138	C	-0.725984	0.249965	-0.015521
C139	C	-0.475984	0.499965	0.234479
C140	C	-0.225984	0.749965	0.484479
C141	C	-0.977600	-0.000028	-0.357816
C142	C	-0.727600	0.249972	-0.107816
C143	C	-0.477600	0.499972	0.142184
C144	C	-0.227600	0.749972	0.392184
C145	C	-1.058599	-0.000049	0.353059
C146	C	-0.808599	0.249951	0.603059
C147	C	-0.558599	0.499951	0.853059
C148	C	-0.308599	0.749951	1.103059
C149	C	-1.057075	-0.000041	0.439779
C150	C	-0.807075	0.249959	0.689779
C151	C	-0.557075	0.499959	0.939779
C152	C	-0.307075	0.749959	1.189779
C153	C	-0.905586	-0.000036	0.419905
C154	C	-0.655586	0.249964	0.669905
C155	C	-0.405586	0.499964	0.919905
C156	C	-0.155586	0.749964	1.169905
C157	C	-0.907111	-0.000037	0.333186
C158	C	-0.657111	0.249963	0.583186
C159	C	-0.407111	0.499963	0.833186
C160	C	-0.157111	0.749963	1.083186
C161	C	-0.983620	-0.000048	0.299766
C162	C	-0.733620	0.249952	0.549766
C163	C	-0.483620	0.499952	0.799766
C164	C	-0.233620	0.749952	1.049766
C165	C	-0.980571	-0.000039	0.473205
C166	C	-0.730571	0.249961	0.723205
C167	C	-0.480571	0.499961	0.973205
C168	C	-0.230571	0.749961	1.223205
C169	C	-0.978918	-0.000031	0.567231
C170	C	-0.728918	0.249969	0.817231
C171	C	-0.478918	0.499969	1.067231
C172	C	-0.228918	0.749969	1.317231
C173	C	-0.985273	-0.000055	0.205734
C174	C	-0.735273	0.249945	0.455734
C175	C	-0.485273	0.499945	0.705734
C176	C	-0.235273	0.749945	0.955734
H177	H	-0.385413	-0.000043	-0.249550
H178	H	-0.135413	0.249957	0.000450
H179	H	0.114587	0.499957	0.250450
H180	H	0.364587	0.749957	0.500450
H181	H	-0.421454	-0.000067	0.025285
H182	H	-0.171454	0.249933	0.275285
H183	H	0.078546	0.499933	0.525285
H184	H	0.328546	0.749933	0.775285
N185	N	-0.877319	-0.400309	-0.008655
N186	N	-0.627319	-0.150309	0.241345
N187	N	-0.377319	0.099691	0.491345
N188	N	-0.127319	0.349691	0.741345
H189	H	-0.816825	-0.417013	-0.025036
H190	H	-0.566825	-0.167013	0.224964
H191	H	-0.316825	0.082987	0.474964
H192	H	-0.066825	0.332987	0.724964
H193	H	-0.885038	-0.332240	-0.016331
H194	H	-0.635038	-0.082240	0.233669
H195	H	-0.385038	0.167760	0.483669
H196	H	-0.135038	0.417760	0.733669
N197	N	-1.086865	-0.400281	-0.218361
N198	N	-0.836865	-0.150281	0.031639
N199	N	-0.586865	0.099719	0.281639
N200	N	-0.336865	0.349719	0.531639
H201	H	-1.118802	-0.445244	-0.250311
H202	H	-0.868802	-0.195244	-0.000311
H203	H	-0.618802	0.054756	0.249689
H204	H	-0.368802	0.304756	0.499689
H205	H	-1.127515	-0.360454	-0.182121
H206	H	-0.877515	-0.110454	0.067879
H207	H	-0.627515	0.139546	0.317879
H208	H	-0.377515	0.389546	0.567879
H209	H	-1.120897	-0.000056	0.325851
H210	H	-0.870897	0.249944	0.575851
H211	H	-0.620897	0.499944	0.825851
H212	H	-0.370897	0.749944	1.075851
H213	H	-0.542730	-0.000035	-0.252317
H214	H	-0.292730	0.249965	-0.002317
H215	H	-0.042730	0.499965	0.247683
H216	H	0.207270	0.749965	0.497683
N217	N	-0.592883	-0.000067	0.042343
N218	N	-0.342883	0.249933	0.292343
N219	N	-0.092883	0.499933	0.542343
N220	N	0.157117	0.749933	0.792343
H221	H	-0.558554	-0.000069	0.091043
H222	H	-0.308554	0.249931	0.341043
H223	H	-0.058554	0.499931	0.591043
H224	H	0.191446	0.749931	0.841043
H225	H	-0.629303	0.056456	0.045013
H226	H	-0.379303	0.306456	0.295013
H227	H	-0.129303	0.556456	0.545013
H228	H	0.120697	0.806456	0.795013
H229	H	-1.073560	-0.587091	-0.205019
H230	H	-0.823560	-0.337091	0.044981
H231	H	-0.573560	-0.087091	0.294981
H232	H	-0.323560	0.162909	0.544981
N233	N	-1.137945	-0.000042	0.497261
N234	N	-0.887945	0.249958	0.747261
N235	N	-0.637945	0.499958	0.997261
N236	N	-0.387945	0.749958	1.247261
H237	H	-1.186640	-0.000050	0.462927
H238	H	-0.936640	0.249950	0.712927
H239	H	-0.686640	0.499950	0.962927
H240	H	-0.436640	0.749950	1.212927
H241	H	-1.140605	-0.056567	0.533677
H242	H	-0.890605	0.193433	0.783677
H243	H	-0.640605	0.443433	1.033677
H244	H	-0.390605	0.693433	1.283677
H245	H	-0.843295	-0.000028	0.447127
H246	H	-0.593295	0.249972	0.697127
H247	H	-0.343295	0.499972	0.947127
H248	H	-0.093295	0.749972	1.197127
N249	N	-0.826237	-0.000029	0.275698
N250	N	-0.576237	0.249971	0.525698
N251	N	-0.326237	0.499971	0.775698
N252	N	-0.076237	0.749971	1.025698
H253	H	-0.777538	-0.000028	0.310026
H254	H	-0.527538	0.249972	0.560026
H255	H	-0.277538	0.499972	0.810026
H256	H	-0.027538	0.749972	1.060026
H257	H	-0.823567	-0.056554	0.239284
H258	H	-0.573567	0.193446	0.489284
H259	H	-0.323567	0.443446	0.739284
H260	H	-0.073567	0.693446	0.989284
N261	N	-0.877332	-0.599806	-0.008653
N262	N	-0.627332	-0.349806	0.241347
N263	N	-0.377332	-0.099806	0.491347
N264	N	-0.127332	0.150194	0.741347
H265	H	-0.884981	-0.667889	-0.016305
H266	H	-0.634981	-0.417889	0.233695
H267	H	-0.384981	-0.167889	0.483695
H268	H	-0.134981	0.082111	0.733695
H269	H	-0.816862	-0.583034	-0.025062
H270	H	-0.566862	-0.333034	0.224938
H271	H	-0.316862	-0.083034	0.474938
H272	H	-0.066862	0.166966	0.724938
