data_functionalizedCrystal
_audit_creation_method	'MofGen! by Chris Wilmer'
_symmetry_space_group_name_H-M	'P1'
_symmetry_Int_Tables_number	1
_symmetry_cell_setting	triclinic
loop_
_symmetry_equiv_pos_as_xyz
  x,y,z
_cell_length_a	19.077220
_cell_length_b	19.077244
_cell_length_c	19.076919
_cell_angle_alpha	90.077080
_cell_angle_beta	90.116798
_cell_angle_gamma	90.098310
loop_
_atom_site_label
_atom_site_type_symbol
_atom_site_fract_x
_atom_site_fract_y
_atom_site_fract_z
Zn1	Zn	-1.069014	-0.254709	-0.430872
Zn2	Zn	-0.569014	0.245291	0.069128
Zn3	Zn	-1.078387	-0.367139	-0.309063
Zn4	Zn	-0.578387	0.132861	0.190937
Zn5	Zn	-0.956214	-0.254337	-0.308658
Zn6	Zn	-0.456214	0.245663	0.191342
Zn7	Zn	-0.956601	-0.376494	-0.421434
Zn8	Zn	-0.456601	0.123506	0.078566
O9	O	-1.015054	-0.313170	-0.367507
O10	O	-0.515054	0.186830	0.132493
O11	O	-1.168433	-0.265863	-0.418833
O12	O	-0.668433	0.234137	0.081167
O13	O	-1.065942	-0.348105	-0.210835
O14	O	-0.565942	0.151895	0.289165
O15	O	-0.967093	-0.156210	-0.328650
O16	O	-0.467093	0.343790	0.171350
O17	O	-1.175319	-0.348465	-0.329341
O18	O	-0.675319	0.151535	0.170659
O19	O	-1.049966	-0.156483	-0.418440
O20	O	-0.549966	0.343517	0.081560
O21	O	-0.976182	-0.265229	-0.210537
O22	O	-0.476182	0.234771	0.289463
O23	O	-0.858090	-0.274300	-0.319499
O24	O	-0.358090	0.225700	0.180501
O25	O	-0.967751	-0.364410	-0.520861
O26	O	-0.467751	0.135590	-0.020861
O27	O	-0.858374	-0.364049	-0.402355
O28	O	-0.358374	0.135951	0.097645
O29	O	-1.050341	-0.274935	-0.527795
O30	O	-0.550341	0.225065	-0.027795
O31	O	-1.066317	-0.466556	-0.320189
O32	O	-0.566317	0.033444	0.179811
O33	O	-0.976840	-0.473429	-0.402748
O34	O	-0.476840	0.026571	0.097252
C35	C	-0.832776	-0.320150	-0.359859
C36	C	-0.332776	0.179850	0.140141
C37	C	-0.754797	-0.323154	-0.356604
C38	C	-0.254797	0.176846	0.143396
C39	C	-0.316240	-0.344672	-0.333291
C40	C	0.183760	0.155328	0.166709
C41	C	-0.389510	-0.341846	-0.336345
C42	C	0.110490	0.158154	0.163655
C43	C	-0.422562	-0.297502	-0.384536
C44	C	0.077438	0.202498	0.115464
C45	C	-0.382339	-0.255978	-0.429671
C46	C	0.117661	0.244022	0.070329
C47	C	-0.309071	-0.258801	-0.426613
C48	C	0.190929	0.241199	0.073387
C49	C	-0.641306	-0.284452	-0.398681
C50	C	-0.141306	0.215548	0.101319
C51	C	-0.714580	-0.281634	-0.401737
C52	C	-0.214580	0.218366	0.098263
C53	C	-0.721745	-0.367501	-0.308409
C54	C	-0.221745	0.132499	0.191591
C55	C	-0.648475	-0.370323	-0.305358
C56	C	-0.148475	0.129677	0.194642
C57	C	-0.608260	-0.328796	-0.350491
C58	C	-0.108260	0.171204	0.149509
N59	N	-0.497455	-0.294614	-0.387660
N60	N	0.002545	0.205386	0.112340
N61	N	-0.533368	-0.331681	-0.347363
N62	N	-0.033368	0.168319	0.152637
C63	C	-1.022656	-0.495448	-0.360504
C64	C	-0.522656	0.004552	0.139496
C65	C	-1.025972	-0.573426	-0.357535
C66	C	-0.525972	-0.073426	0.142465
C67	C	-0.198044	-0.306156	-0.375177
C68	C	0.301956	0.193844	0.124823
C69	C	-0.276023	-0.303152	-0.378424
C70	C	0.223977	0.196848	0.121576
C71	C	-1.008044	-0.320757	-0.550495
C72	C	-0.508044	0.179243	-0.050495
C73	C	-1.005057	-0.323991	-0.628474
C74	C	-0.505057	0.176009	-0.128474
C75	C	-1.007441	-0.130179	-0.374553
C76	C	-0.507441	0.369821	0.125447
C77	C	-1.004196	-0.052200	-0.377555
C78	C	-0.504196	0.447800	0.122445
C79	C	-1.049256	-0.011982	-0.335987
C80	C	-0.549256	0.488018	0.164013
C81	C	-1.046200	0.061288	-0.338812
C82	C	-0.546200	0.561288	0.161188
C83	C	-0.998088	0.094338	-0.383209
C84	C	-0.498088	0.594338	0.116791
C85	C	-0.953024	0.054116	-0.424779
C86	C	-0.453024	0.554116	0.075221
C87	C	-0.956077	-0.019153	-0.421950
C88	C	-0.456077	0.480847	0.078050
C89	C	-0.983960	0.313083	-0.396275
C90	C	-0.483960	0.813083	0.103725
C91	C	-0.980912	0.386357	-0.399103
C92	C	-0.480912	0.886357	0.100897
C93	C	-1.074088	0.393523	-0.313135
C94	C	-0.574088	0.893523	0.186865
C95	C	-1.077139	0.320253	-0.310313
C96	C	-0.577139	0.820253	0.189687
C97	C	-1.032073	0.280037	-0.351880
C98	C	-0.532073	0.780037	0.148120
N99	N	-0.994965	0.169232	-0.386099
N100	N	-0.494965	0.669232	0.113901
N101	N	-1.035193	0.205145	-0.348986
N102	N	-0.535193	0.705145	0.151014
C103	C	-1.046651	-0.278927	-0.668720
C104	C	-0.546651	0.221073	-0.168720
C105	C	-1.043835	-0.281963	-0.741989
C106	C	-0.543835	0.218037	-0.241989
C107	C	-0.999429	-0.330066	-0.775011
C108	C	-0.499429	0.169934	-0.275011
C109	C	-0.957830	-0.375132	-0.734760
C110	C	-0.457830	0.124868	-0.234760
C111	C	-0.960642	-0.372092	-0.661492
C112	C	-0.460642	0.127908	-0.161492
C113	C	-0.986403	-0.344149	-0.993750
C114	C	-0.486403	0.155851	-0.493750
C115	C	-0.983596	-0.347187	-1.067023
C116	C	-0.483596	0.152813	-0.567023
C117	C	-1.069601	-0.254016	-1.074247
C118	C	-0.569601	0.245984	-0.574247
C119	C	-1.072412	-0.250984	-1.000978
C120	C	-0.572412	0.249016	-0.500978
C121	C	-1.030811	-0.296047	-0.960733
C122	C	-0.530811	0.203953	-0.460733
N123	N	-0.996551	-0.333172	-0.849903
N124	N	-0.496551	0.166828	-0.349903
N125	N	-1.033685	-0.292937	-0.885842
N126	N	-0.533685	0.207063	-0.385842
C127	C	-1.022075	-0.305559	-0.185234
C128	C	-0.522075	0.194441	0.314766
C129	C	-1.025190	-0.302123	-0.107269
C130	C	-0.525190	0.197877	0.392731
H131	H	-0.741488	-0.245519	-0.440979
H132	H	-0.241488	0.254481	0.059021
C133	C	-0.265317	-0.213842	-0.475650
C134	C	0.234683	0.286158	0.024350
C135	C	-0.223194	-0.257119	-0.517252
C136	C	0.276806	0.242881	-0.017252
C137	C	-0.182873	-0.215724	-0.562425
C138	C	0.317127	0.284276	-0.062425
H139	H	-0.295409	-0.187019	-0.504855
H140	H	0.204591	0.312981	-0.004855
H141	H	-0.236435	-0.183236	-0.448863
H142	H	0.263565	0.316764	0.051137
H143	H	-0.252074	-0.287713	-0.544037
H144	H	0.247926	0.212287	-0.044037
H145	H	-0.193088	-0.283942	-0.488066
H146	H	0.306912	0.216058	0.011934
H147	H	-0.153990	-0.185117	-0.535638
H148	H	0.346010	0.314883	-0.035638
H149	H	-0.212970	-0.188902	-0.591625
H150	H	0.287030	0.311098	-0.091625
H151	H	-0.154283	-0.245080	-0.590653
H152	H	0.345717	0.254920	-0.090653
C153	C	-1.094772	-0.226585	-0.632910
C154	C	-0.594772	0.273415	-0.132910
C155	C	-1.075908	-0.158496	-0.652752
C156	C	-0.575908	0.341504	-0.152752
C157	C	-1.120214	-0.110257	-0.619775
C158	C	-0.620214	0.389743	-0.119775
H159	H	-1.141898	-0.235449	-0.646479
H160	H	-0.641898	0.264551	-0.146479
H161	H	-1.090485	-0.231179	-0.583505
H162	H	-0.590485	0.268821	-0.083505
H163	H	-1.080201	-0.153905	-0.702147
H164	H	-0.580201	0.346095	-0.202147
H165	H	-1.028789	-0.149610	-0.639183
H166	H	-0.528789	0.350390	-0.139183
H167	H	-1.115928	-0.114851	-0.570369
H168	H	-0.615928	0.385149	-0.070369
H169	H	-1.167338	-0.119127	-0.633346
H170	H	-0.667338	0.380873	-0.133346
H171	H	-1.107418	-0.064053	-0.633228
H172	H	-0.607418	0.435947	-0.133228
C173	C	-0.280321	-0.392911	-0.281080
C174	C	0.219679	0.107089	0.218920
C175	C	-0.238646	-0.441220	-0.317242
C176	C	0.261354	0.058780	0.182758
C177	C	-0.205557	-0.485674	-0.269167
C178	C	0.294443	0.014326	0.230833
H179	H	-0.251722	-0.365945	-0.250377
H180	H	0.248278	0.134055	0.249623
H181	H	-0.314748	-0.417276	-0.254647
H182	H	0.185252	0.082724	0.245353
H183	H	-0.204224	-0.416858	-0.343663
H184	H	0.295776	0.083142	0.156337
H185	H	-0.267228	-0.468202	-0.347941
H186	H	0.232772	0.031798	0.152059
H187	H	-0.239984	-0.510038	-0.242734
H188	H	0.260016	-0.010038	0.257266
H189	H	-0.176962	-0.458701	-0.238467
H190	H	0.323038	0.041299	0.261533
H191	H	-0.177283	-0.518460	-0.293696
H192	H	0.322717	-0.018460	0.206304
C193	C	-1.114638	-0.205007	-1.117977
C194	C	-0.614638	0.294993	-0.617977
C195	C	-1.071427	-0.163293	-1.160088
C196	C	-0.571427	0.336707	-0.660088
C197	C	-1.112889	-0.118127	-1.200374
C198	C	-0.612889	0.381873	-0.700374
H199	H	-1.145235	-0.231777	-1.146872
H200	H	-0.645235	0.268223	-0.646872
H201	H	-1.141471	-0.175883	-1.087840
H202	H	-0.641471	0.324117	-0.587840
H203	H	-1.044605	-0.192414	-1.190223
H204	H	-0.544605	0.307586	-0.690223
H205	H	-1.040830	-0.136509	-1.131211
H206	H	-0.540830	0.363491	-0.631211
H207	H	-1.139723	-0.089003	-1.170236
H208	H	-0.639723	0.410997	-0.670236
H209	H	-1.143485	-0.144902	-1.229265
H210	H	-0.643485	0.355098	-0.729265
H211	H	-1.083577	-0.089814	-1.228946
H212	H	-0.583577	0.410186	-0.728946
H213	H	-0.913847	0.081030	-0.460925
H214	H	-0.413847	0.581030	0.039075
H215	H	-1.077708	-0.245268	-0.774754
H216	H	-0.577708	0.254732	-0.274754
C217	C	-0.433136	-0.387050	-0.287422
C218	C	0.066864	0.112950	0.212578
C219	C	-0.417654	-0.457804	-0.299187
C220	C	0.082346	0.042196	0.200813
C221	C	-0.457833	-0.499468	-0.254136
C222	C	0.042167	0.000532	0.245864
H223	H	-0.422520	-0.375309	-0.240170
H224	H	0.077480	0.124691	0.259830
H225	H	-0.481514	-0.379066	-0.296143
H226	H	0.018486	0.120934	0.203857
H227	H	-0.369286	-0.465784	-0.290461
H228	H	0.130714	0.034216	0.209539
H229	H	-0.428272	-0.469566	-0.346430
H230	H	0.071728	0.030434	0.153570
H231	H	-0.506212	-0.491484	-0.262857
H232	H	-0.006212	0.008516	0.237143
H233	H	-0.447214	-0.487720	-0.206887
H234	H	0.052786	0.012280	0.293113
H235	H	-0.447339	-0.547478	-0.262117
H236	H	0.052661	-0.047478	0.237883
C237	C	-1.129587	0.284410	-0.262310
C238	C	-0.629587	0.784410	0.237690
C239	C	-1.174781	0.242519	-0.302404
C240	C	-0.674781	0.742519	0.197596
C241	C	-1.223170	0.209532	-0.258248
C242	C	-0.723170	0.709532	0.241752
H243	H	-1.105335	0.255972	-0.229435
H244	H	-0.605335	0.755972	0.270565
H245	H	-1.156017	0.318893	-0.238042
H246	H	-0.656017	0.818893	0.261958
H247	H	-1.148353	0.208040	-0.326661
H248	H	-0.648353	0.708040	0.173339
H249	H	-1.199048	0.270941	-0.335277
H250	H	-0.699048	0.770941	0.164723
H251	H	-1.249601	0.244015	-0.233980
H252	H	-0.749601	0.744015	0.266020
H253	H	-1.198913	0.181097	-0.225376
H254	H	-0.698913	0.681097	0.274624
H255	H	-1.253844	0.181110	-0.285446
H256	H	-0.753844	0.681110	0.214554
H257	H	-0.621570	-0.406432	-0.266115
H258	H	-0.121570	0.093568	0.233885
C259	C	-0.935440	-0.399383	-1.103008
C260	C	-0.435440	0.100617	-0.603008
C261	C	-0.941897	-0.392409	-1.175786
C262	C	-0.441897	0.107591	-0.675786
C263	C	-0.897555	-0.440482	-1.208959
C264	C	-0.397555	0.059518	-0.708959
H265	H	-0.888308	-0.390462	-1.089498
H266	H	-0.388308	0.109538	-0.589498
H267	H	-0.948124	-0.445650	-1.089659
H268	H	-0.448124	0.054350	-0.589659
H269	H	-0.929208	-0.346152	-1.189130
H270	H	-0.429208	0.153848	-0.689130
H271	H	-0.989020	-0.401337	-1.189317
H272	H	-0.489020	0.098663	-0.689317
H273	H	-0.910239	-0.486749	-1.195610
H274	H	-0.410239	0.013251	-0.695610
H275	H	-0.850425	-0.431556	-1.195443
H276	H	-0.350425	0.068444	-0.695443
H277	H	-0.901935	-0.435761	-1.258342
H278	H	-0.401935	0.064239	-0.758342
H279	H	-0.952539	-0.380853	-0.960992
H280	H	-0.452539	0.119147	-0.460992
C281	C	-0.765375	-0.412703	-0.259488
C282	C	-0.265375	0.087297	0.240512
C283	C	-0.749892	-0.483458	-0.271248
C284	C	-0.249892	0.016542	0.228752
C285	C	-0.790076	-0.525119	-0.226197
C286	C	-0.290076	-0.025119	0.273803
H287	H	-0.754763	-0.400960	-0.212236
H288	H	-0.254763	0.099040	0.287764
H289	H	-0.813753	-0.404720	-0.268214
H290	H	-0.313753	0.095280	0.231786
H291	H	-0.701525	-0.491437	-0.262516
H292	H	-0.201525	0.008563	0.237484
H293	H	-0.760506	-0.495223	-0.318491
H294	H	-0.260506	0.004777	0.181509
H295	H	-0.838454	-0.517135	-0.234923
H296	H	-0.338454	-0.017135	0.265077
H297	H	-0.779461	-0.513369	-0.178948
H298	H	-0.279461	-0.013369	0.321052
H299	H	-0.779581	-0.573130	-0.234175
H300	H	-0.279581	-0.073130	0.265825
H301	H	-0.921670	-0.414296	-0.761652
H302	H	-0.421670	0.085704	-0.261652
C303	C	-0.597772	-0.239341	-0.447767
C304	C	-0.097772	0.260659	0.052233
C305	C	-0.642403	-0.199921	-0.490638
C306	C	-0.142403	0.300079	0.009362
C307	C	-0.602321	-0.158362	-0.535873
C308	C	-0.102321	0.341638	-0.035873
H309	H	-0.568923	-0.208660	-0.421046
H310	H	-0.068923	0.291340	0.078954
H311	H	-0.569164	-0.268577	-0.476105
H312	H	-0.069164	0.231423	0.023895
H313	H	-0.670999	-0.170687	-0.462304
H314	H	-0.170999	0.329313	0.037696
H315	H	-0.671252	-0.230584	-0.517374
H316	H	-0.171252	0.269416	-0.017374
H317	H	-0.573713	-0.187598	-0.564210
H318	H	-0.073713	0.312402	-0.064210
H319	H	-0.573474	-0.127685	-0.509146
H320	H	-0.073474	0.372315	-0.009146
H321	H	-0.632597	-0.131615	-0.564970
H322	H	-0.132597	0.368385	-0.064970
H323	H	-0.409256	-0.219869	-0.468907
H324	H	0.090744	0.280131	0.031093
H325	H	-1.088438	-0.038887	-0.299839
H326	H	-0.588438	0.461113	0.200161
H327	H	-1.082891	0.094032	-0.304964
H328	H	-0.582891	0.594032	0.195036
H329	H	-1.110778	0.426274	-0.279293
H330	H	-0.610778	0.926274	0.220707
H331	H	-0.919388	-0.051897	-0.455802
H332	H	-0.419388	0.448103	0.044198
H333	H	-0.926764	-0.408781	-0.628725
H334	H	-0.426764	0.091219	-0.128725
C335	C	-1.120642	-0.198682	-0.965258
C336	C	-0.620642	0.301318	-0.465258
C337	C	-1.156454	-0.159853	-1.016186
C338	C	-0.656454	0.340147	-0.516186
C339	C	-1.200885	-0.111661	-0.983308
C340	C	-0.700885	0.388339	-0.483308
H341	H	-1.153482	-0.223083	-0.936930
H342	H	-0.653482	0.276917	-0.436930
H343	H	-1.093643	-0.167918	-0.936743
H344	H	-0.593643	0.332082	-0.436743
H345	H	-1.183451	-0.190612	-1.044690
H346	H	-0.683451	0.309388	-0.544690
H347	H	-1.123632	-0.135436	-1.044517
H348	H	-0.623632	0.364564	-0.544517
H349	H	-1.173886	-0.080897	-0.954792
H350	H	-0.673886	0.419103	-0.454792
H351	H	-1.233720	-0.136068	-0.954981
H352	H	-0.733720	0.363932	-0.454981
H353	H	-1.225184	-0.085305	-1.017857
H354	H	-0.725184	0.414695	-0.517857
C355	C	-0.928608	0.422111	-0.447334
C356	C	-0.428608	0.922111	0.052666
C357	C	-0.889784	0.371211	-0.483122
C358	C	-0.389784	0.871211	0.016878
C359	C	-0.841597	0.404122	-0.527555
C360	C	-0.341597	0.904122	-0.027555
H361	H	-0.953013	0.450442	-0.480189
H362	H	-0.453013	0.950442	0.019811
H363	H	-0.897840	0.450627	-0.420338
H364	H	-0.397840	0.950627	0.079662
H365	H	-0.920548	0.342707	-0.510117
H366	H	-0.420548	0.842707	-0.010117
H367	H	-0.865364	0.342877	-0.450286
H368	H	-0.365364	0.842877	0.049714
H369	H	-0.810830	0.432638	-0.500559
H370	H	-0.310830	0.932638	-0.000559
H371	H	-0.866008	0.432452	-0.560405
H372	H	-0.366008	0.932452	-0.060405
H373	H	-0.815245	0.369591	-0.551838
H374	H	-0.315245	0.869591	-0.051838
H375	H	-0.947258	0.280347	-0.430117
H376	H	-0.447258	0.780347	0.069883
