data_functionalizedCrystal
_audit_creation_method	'MofGen! by Chris Wilmer'
_symmetry_space_group_name_H-M	'P1'
_symmetry_Int_Tables_number	1
_symmetry_cell_setting	triclinic
loop_
_symmetry_equiv_pos_as_xyz
  x,y,z
_cell_length_a	15.995343
_cell_length_b	15.995343
_cell_length_c	10.868271
_cell_angle_alpha	89.990143
_cell_angle_beta	90.000003
_cell_angle_gamma	83.489184
loop_
_atom_site_label
_atom_site_type_symbol
_atom_site_fract_x
_atom_site_fract_y
_atom_site_fract_z
O1	O	1.110986	0.107896	-0.102212
O2	O	1.360986	0.357896	0.147788
O3	O	1.610986	0.607896	0.397788
O4	O	1.860986	0.857896	0.647788
O5	O	0.867210	0.121231	-0.102243
O6	O	1.117210	0.371231	0.147757
O7	O	1.367210	0.621231	0.397757
O8	O	1.617210	0.871231	0.647757
O9	O	0.995765	-0.007325	-0.102204
O10	O	1.245765	0.242675	0.147796
O11	O	1.495765	0.492675	0.397796
O12	O	1.745765	0.742675	0.647796
O13	O	0.982431	0.236452	-0.102251
O14	O	1.232431	0.486452	0.147749
O15	O	1.482431	0.736452	0.397749
O16	O	1.732431	0.986452	0.647749
O17	O	0.995755	-0.007330	0.102441
O18	O	1.245755	0.242670	0.352441
O19	O	1.495755	0.492670	0.602441
O20	O	1.745755	0.742670	0.852441
O21	O	0.867199	0.121226	0.102402
O22	O	1.117199	0.371226	0.352402
O23	O	1.367199	0.621226	0.602402
O24	O	1.617199	0.871226	0.852402
O25	O	1.110976	0.107891	0.102433
O26	O	1.360976	0.357891	0.352433
O27	O	1.610976	0.607891	0.602433
O28	O	1.860976	0.857891	0.852433
Zn29	Zn	0.989086	0.114558	0.134909
Zn30	Zn	1.239086	0.364558	0.384909
Zn31	Zn	1.489086	0.614558	0.634909
Zn32	Zn	1.739086	0.864558	0.884909
Zn33	Zn	0.989100	0.114564	-0.134719
Zn34	Zn	1.239100	0.364564	0.115281
Zn35	Zn	1.489100	0.614564	0.365281
Zn36	Zn	1.739100	0.864564	0.615281
O37	O	0.982420	0.236447	0.102393
O38	O	1.232420	0.486447	0.352393
O39	O	1.482420	0.736447	0.602393
O40	O	1.732420	0.986447	0.852393
C41	C	0.836010	0.120678	0.000076
C42	C	1.086010	0.370678	0.250076
C43	C	1.336010	0.620678	0.500076
C44	C	1.586010	0.870678	0.750076
C45	C	0.743059	0.119029	0.000065
C46	C	0.993059	0.369029	0.250065
C47	C	1.243059	0.619029	0.500065
C48	C	1.493059	0.869029	0.750065
C49	C	0.572873	0.116035	0.000082
C50	C	0.822873	0.366035	0.250082
C51	C	1.072873	0.616035	0.500082
C52	C	1.322873	0.866035	0.750082
C53	C	0.549530	0.023238	0.000099
C54	C	0.799530	0.273238	0.250099
C55	C	1.049530	0.523238	0.500099
C56	C	1.299530	0.773238	0.750099
C57	C	0.452852	0.021492	0.000571
C58	C	0.702852	0.271492	0.250571
C59	C	0.952852	0.521492	0.500571
C60	C	1.202852	0.771492	0.750571
C61	C	0.405313	0.113087	0.000097
C62	C	0.655313	0.363087	0.250097
C63	C	0.905313	0.613087	0.500097
C64	C	1.155313	0.863087	0.750097
C65	C	0.434397	0.159744	0.116718
C66	C	0.684397	0.409744	0.366718
C67	C	0.934397	0.659744	0.616718
C68	C	1.184397	0.909744	0.866718
C69	C	0.531190	0.160845	0.116808
C70	C	0.781190	0.410845	0.366808
C71	C	1.031190	0.660845	0.616808
C72	C	1.281190	0.910845	0.866808
C73	C	0.531112	0.162209	-0.115919
C74	C	0.781112	0.412209	0.134081
C75	C	1.031112	0.662209	0.384081
C76	C	1.281112	0.912209	0.634081
C77	C	0.434617	0.158783	-0.117444
C78	C	0.684617	0.408783	0.132556
C79	C	0.934617	0.658783	0.382556
C80	C	1.184617	0.908783	0.632556
C81	C	0.310615	0.111425	0.000110
C82	C	0.560615	0.361425	0.250110
C83	C	0.810615	0.611425	0.500110
C84	C	1.060615	0.861425	0.750110
C85	C	0.667571	0.117700	0.000077
C86	C	0.917571	0.367700	0.250077
C87	C	1.167571	0.617700	0.500077
C88	C	1.417571	0.867700	0.750077
C89	C	0.995210	-0.038522	0.000122
C90	C	1.245210	0.211478	0.250122
C91	C	1.495210	0.461478	0.500122
C92	C	1.745210	0.711478	0.750122
C93	C	0.993561	-0.131473	0.000131
C94	C	1.243561	0.118527	0.250131
C95	C	1.493561	0.368527	0.500131
C96	C	1.743561	0.618527	0.750131
C97	C	0.990567	-0.301659	0.000103
C98	C	1.240567	-0.051659	0.250103
C99	C	1.490567	0.198341	0.500103
C100	C	1.740567	0.448341	0.750103
C101	C	0.897770	-0.325002	0.000088
C102	C	1.147770	-0.075002	0.250088
C103	C	1.397770	0.174998	0.500088
C104	C	1.647770	0.424998	0.750088
C105	C	0.896024	-0.421680	-0.000390
C106	C	1.146024	-0.171680	0.249610
C107	C	1.396024	0.078320	0.499610
C108	C	1.646024	0.328320	0.749610
C109	C	0.987619	-0.469219	0.000076
C110	C	1.237619	-0.219219	0.250076
C111	C	1.487619	0.030781	0.500076
C112	C	1.737619	0.280781	0.750076
C113	C	1.034285	-0.440118	-0.116545
C114	C	1.284285	-0.190118	0.133455
C115	C	1.534285	0.059882	0.383455
C116	C	1.784285	0.309882	0.633455
C117	C	1.035385	-0.343326	-0.116629
C118	C	1.285385	-0.093326	0.133371
C119	C	1.535385	0.156674	0.383371
C120	C	1.785385	0.406674	0.633371
C121	C	1.036732	-0.343436	0.116099
C122	C	1.286732	-0.093436	0.366099
C123	C	1.536732	0.156564	0.616099
C124	C	1.786732	0.406564	0.866099
C125	C	1.033306	-0.439931	0.117617
C126	C	1.283306	-0.189931	0.367617
C127	C	1.533306	0.060069	0.617617
C128	C	1.783306	0.310069	0.867617
C129	C	0.985957	-0.563917	0.000057
C130	C	1.235957	-0.313917	0.250057
C131	C	1.485957	-0.063917	0.500057
C132	C	1.735957	0.186083	0.750057
C133	C	0.992231	-0.206961	0.000114
C134	C	1.242231	0.043039	0.250114
C135	C	1.492231	0.293039	0.500114
C136	C	1.742231	0.543039	0.750114
C137	C	1.142176	0.108444	0.000111
C138	C	1.392176	0.358444	0.250111
C139	C	1.642176	0.608444	0.500111
C140	C	1.892176	0.858444	0.750111
C141	C	1.235127	0.110093	0.000114
C142	C	1.485127	0.360093	0.250114
C143	C	1.735127	0.610093	0.500114
C144	C	1.985127	0.860093	0.750114
C145	C	0.982976	0.267644	0.000065
C146	C	1.232976	0.517644	0.250065
C147	C	1.482976	0.767644	0.500065
C148	C	1.732976	1.017644	0.750065
C149	C	0.984625	0.360595	0.000048
C150	C	1.234625	0.610595	0.250048
C151	C	1.484625	0.860595	0.500048
C152	C	1.734625	1.110595	0.750048
N153	N	0.989082	0.114553	0.318923
N154	N	1.239082	0.364553	0.568923
N155	N	1.489082	0.614553	0.818923
N156	N	1.739082	0.864553	1.068923
N157	N	0.989110	0.114563	-0.318733
N158	N	1.239110	0.364563	-0.068733
N159	N	1.489110	0.614563	0.181267
N160	N	1.739110	0.864563	0.431267
C161	C	0.989095	0.114563	0.569929
C162	C	1.239095	0.364563	0.819929
C163	C	1.489095	0.614563	1.069929
C164	C	1.739095	0.864563	1.319929
C165	C	0.989085	0.114560	0.430252
C166	C	1.239085	0.364560	0.680252
C167	C	1.489085	0.614560	0.930252
C168	C	1.739085	0.864560	1.180252
H169	H	0.578511	-0.012147	0.083618
H170	H	0.828511	0.237853	0.333618
H171	H	1.078511	0.487853	0.583618
H172	H	1.328511	0.737853	0.833618
H173	H	0.862391	-0.296010	-0.083427
H174	H	1.112391	-0.046010	0.166573
H175	H	1.362391	0.203990	0.416573
H176	H	1.612391	0.453990	0.666573
H177	H	1.007449	-0.315173	0.204526
H178	H	1.257449	-0.065173	0.454526
H179	H	1.507449	0.184827	0.704526
H180	H	1.757449	0.434827	0.954526
H181	H	1.105034	-0.329418	0.117240
H182	H	1.355034	-0.079418	0.367240
H183	H	1.605034	0.170582	0.617240
H184	H	1.855034	0.420582	0.867240
H185	H	0.999323	-0.458497	0.203896
H186	H	1.249323	-0.208497	0.453896
H187	H	1.499323	0.041503	0.703896
H188	H	1.749323	0.291503	0.953896
H189	H	0.859486	-0.440705	0.083184
H190	H	1.109486	-0.190705	0.333184
H191	H	1.359486	0.059295	0.583184
H192	H	1.609486	0.309295	0.833184
H193	H	0.577542	-0.012729	-0.083517
H194	H	0.827542	0.237271	0.166483
H195	H	1.077542	0.487271	0.416483
H196	H	1.327542	0.737271	0.666483
H197	H	0.433838	-0.015031	-0.083009
H198	H	0.683838	0.234969	0.166991
H199	H	0.933838	0.484969	0.416991
H200	H	1.183838	0.734969	0.666991
H201	H	0.434412	-0.014864	0.084673
H202	H	0.684412	0.235136	0.334673
H203	H	0.934412	0.485136	0.584673
H204	H	1.184412	0.735136	0.834673
H205	H	0.559387	0.132933	-0.204343
H206	H	0.809387	0.382933	0.045657
H207	H	1.059387	0.632933	0.295657
H208	H	1.309387	0.882933	0.545657
H209	H	1.101696	-0.471966	-0.120547
H210	H	1.351696	-0.221966	0.129453
H211	H	1.601696	0.028034	0.379453
H212	H	1.851696	0.278034	0.629453
H213	H	0.545123	0.230513	-0.117057
H214	H	0.795123	0.480513	0.132943
H215	H	1.045123	0.730513	0.382943
H216	H	1.295123	0.980513	0.632943
H217	H	0.861796	-0.297000	0.083708
H218	H	1.111796	-0.047000	0.333708
H219	H	1.361796	0.203000	0.583708
H220	H	1.611796	0.453000	0.833708
H221	H	0.416065	0.124806	-0.203722
H222	H	0.666065	0.374806	0.046278
H223	H	0.916065	0.624806	0.296278
H224	H	1.166065	0.874806	0.546278
H225	H	0.859678	-0.440109	-0.084494
H226	H	1.109678	-0.190109	0.165506
H227	H	1.359678	0.059891	0.415506
H228	H	1.609678	0.309891	0.665506
H229	H	1.100142	-0.472881	0.125019
H230	H	1.350142	-0.222881	0.375019
H231	H	1.600142	0.027119	0.625019
H232	H	1.850142	0.277119	0.875019
H233	H	1.003454	-0.316532	-0.204146
H234	H	1.253454	-0.066532	0.045854
H235	H	1.503454	0.183468	0.295854
H236	H	1.753454	0.433468	0.545854
H237	H	0.557972	0.128906	0.204329
H238	H	0.807972	0.378906	0.454329
H239	H	1.057972	0.628906	0.704329
H240	H	1.307972	0.878906	0.954329
H241	H	0.545761	0.228895	0.121782
H242	H	0.795761	0.478895	0.371782
H243	H	1.045761	0.728895	0.621782
H244	H	1.295761	0.978895	0.871782
H245	H	0.414302	0.127727	0.203849
H246	H	0.664302	0.377727	0.453849
H247	H	0.914302	0.627727	0.703849
H248	H	1.164302	0.877727	0.953849
H249	H	0.402549	0.227155	0.120714
H250	H	0.652549	0.477155	0.370714
H251	H	0.902549	0.727155	0.620714
H252	H	1.152549	0.977155	0.870714
H253	H	0.401659	0.225616	-0.124861
H254	H	0.651659	0.475616	0.125139
H255	H	0.901659	0.725616	0.375139
H256	H	1.151659	0.975616	0.625139
H257	H	1.002274	-0.460200	-0.203676
H258	H	1.252274	-0.210200	0.046324
H259	H	1.502274	0.039800	0.296324
H260	H	1.752274	0.289800	0.546324
H261	H	1.103437	-0.328754	-0.121591
H262	H	1.353437	-0.078754	0.128409
H263	H	1.603437	0.171246	0.378409
H264	H	1.853437	0.421246	0.628409
