data_functionalizedCrystal
_audit_creation_method	'MofGen! by Chris Wilmer'
_symmetry_space_group_name_H-M	'P1'
_symmetry_Int_Tables_number	1
_symmetry_cell_setting	triclinic
loop_
_symmetry_equiv_pos_as_xyz
  x,y,z
_cell_length_a	11.026607
_cell_length_b	10.654550
_cell_length_c	9.730223
_cell_angle_alpha	90.000193
_cell_angle_beta	90.000202
_cell_angle_gamma	96.535460
loop_
_atom_site_label
_atom_site_type_symbol
_atom_site_fract_x
_atom_site_fract_y
_atom_site_fract_z
O1	O	-1.614591	-0.526872	-0.114287
O2	O	-1.260779	-0.466877	-0.114290
O3	O	-1.445820	-0.315901	-0.114283
O4	O	-1.429550	-0.677848	-0.114294
O5	O	-1.445818	-0.315905	0.114297
O6	O	-1.260777	-0.466881	0.114290
O7	O	-1.614588	-0.526877	0.114292
Zn8	Zn	-1.437683	-0.496880	0.150583
Zn9	Zn	-1.437685	-0.496874	-0.150580
O10	O	-1.429548	-0.677852	0.114286
C11	C	-1.215474	-0.455811	0.000000
C12	C	-1.080483	-0.422816	-0.000001
C13	C	-1.444624	-0.268846	0.000005
C14	C	-1.441050	-0.128627	0.000000
C15	C	-1.659893	-0.537943	-0.000000
C16	C	-1.794885	-0.570937	-0.000008
C17	C	-1.007444	-0.513920	-0.000004
C18	C	-0.867922	-0.479820	-0.000005
C19	C	-1.430744	-0.724907	-0.000005
C20	C	-1.434318	-0.865126	-0.000009
N21	N	-1.437689	-0.496885	0.356120
C22	C	-1.549999	-0.072791	0.000005
C23	C	-1.546633	0.058961	-0.000005
C24	C	-1.325361	0.079029	-0.000018
C25	C	-1.328727	-0.052720	-0.000018
C26	C	-1.677749	-0.084376	0.000019
C27	C	-1.674383	0.047376	0.000009
N28	N	-1.437688	-0.496861	-0.356117
C29	C	-1.519647	-0.430066	0.428049
C30	C	-1.519643	-0.430050	0.571932
C31	C	-1.355722	-0.563681	0.571944
C32	C	-1.355720	-0.563689	0.428064
C33	C	-1.614289	-0.352920	0.428042
C34	C	-1.614286	-0.352904	0.571925
H35	H	-1.048204	-0.617161	0.000001
H36	H	-0.835638	-0.674186	-0.000002
H37	H	-1.288984	-0.618071	0.630537
H38	H	-1.593531	-0.251881	0.388991
H39	H	-0.827168	-0.376572	-0.000037
Cl40	Cl	-1.252670	-0.647671	0.337638
Cl41	Cl	-1.748691	0.095726	0.147695
H42	H	-1.702562	-0.402669	0.383416
Cl43	Cl	-1.568671	-0.202171	0.640824
H44	H	-1.712992	0.084640	-0.098685
Cl45	Cl	-1.017563	-0.263414	0.000014
Cl46	Cl	-1.184163	0.174463	-0.000044
Cl47	Cl	-1.191758	-0.122910	-0.000059
Cl48	Cl	-1.740534	-0.153026	0.152405
Cl49	Cl	-1.754893	-0.146456	-0.147658
Cl50	Cl	-1.758532	-0.417427	0.632227
