data_functionalizedCrystal
_audit_creation_method	'MofGen! by Chris Wilmer'
_symmetry_space_group_name_H-M	'P1'
_symmetry_Int_Tables_number	1
_symmetry_cell_setting	triclinic
loop_
_symmetry_equiv_pos_as_xyz
  x,y,z
_cell_length_a	18.050591
_cell_length_b	21.295417
_cell_length_c	21.295411
_cell_angle_alpha	89.978356
_cell_angle_beta	89.969449
_cell_angle_gamma	90.026512
loop_
_atom_site_label
_atom_site_type_symbol
_atom_site_fract_x
_atom_site_fract_y
_atom_site_fract_z
Zn1	Zn	1.135351	-0.250748	-0.356012
Zn2	Zn	1.635351	0.249252	0.143988
Zn3	Zn	1.135236	-0.356000	-0.250737
Zn4	Zn	1.635236	0.144000	0.249263
Zn5	Zn	1.011150	-0.250741	-0.250746
Zn6	Zn	1.511150	0.249259	0.249254
Zn7	Zn	1.011114	-0.355976	-0.355958
Zn8	Zn	1.511114	0.144024	0.144042
O9	O	1.073213	-0.303366	-0.303363
O10	O	1.573213	0.196634	0.196637
O11	O	1.239261	-0.264723	-0.342066
O12	O	1.739261	0.235277	0.157934
O13	O	1.118743	-0.342044	-0.162649
O14	O	1.618743	0.157956	0.337351
O15	O	1.027689	-0.162653	-0.264736
O16	O	1.527689	0.337347	0.235264
O17	O	1.239176	-0.342051	-0.264721
O18	O	1.739176	0.157949	0.235279
O19	O	1.118939	-0.162658	-0.342074
O20	O	1.618939	0.337342	0.157926
O21	O	1.027577	-0.264711	-0.162655
O22	O	1.527577	0.235289	0.337345
O23	O	0.907220	-0.264688	-0.264684
O24	O	1.407220	0.235312	0.235316
O25	O	1.027627	-0.342010	-0.444055
O26	O	1.527627	0.157990	0.055945
O27	O	0.907194	-0.342003	-0.341983
O28	O	1.407194	0.157997	0.158017
O29	O	1.118904	-0.264700	-0.444094
O30	O	1.618904	0.235300	0.055906
O31	O	1.118708	-0.444086	-0.264669
O32	O	1.618708	0.055914	0.235331
O33	O	1.027515	-0.444068	-0.341974
O34	O	1.527515	0.055932	0.158026
C35	C	0.880261	-0.303343	-0.303329
C36	C	1.380261	0.196657	0.196671
C37	C	0.797715	-0.303348	-0.303329
C38	C	1.297715	0.196652	0.196671
C39	C	0.598257	-0.261255	-0.261390
C40	C	1.098257	0.238745	0.238610
C41	C	0.548832	-0.318668	-0.245895
C42	C	1.048832	0.181332	0.254105
C43	C	0.646584	-0.303367	-0.303357
C44	C	1.146584	0.196633	0.196643
C45	C	0.548928	-0.245973	-0.318851
C46	C	1.048928	0.254027	0.181149
C47	C	0.500599	-0.303380	-0.303383
C48	C	1.000599	0.196620	0.196617
C49	C	0.598246	-0.360811	-0.287832
C50	C	1.098246	0.139189	0.212168
C51	C	0.598347	-0.288077	-0.360814
C52	C	1.098347	0.211923	0.139186
C53	C	0.548944	-0.345530	-0.345341
C54	C	1.048944	0.154470	0.154659
C55	C	0.730683	-0.303358	-0.303340
C56	C	1.230683	0.196642	0.196660
C57	C	0.416503	-0.303395	-0.303400
C58	C	0.916503	0.196605	0.196600
C59	C	1.073115	-0.466918	-0.303329
C60	C	1.573115	0.033082	0.196671
C61	C	1.073142	-0.536886	-0.303335
C62	C	1.573142	-0.036886	0.196665
C63	C	1.120668	-0.569741	-0.263123
C64	C	1.620668	-0.069741	0.236877
C65	C	1.120702	-0.635483	-0.263137
C66	C	1.620702	-0.135483	0.236863
C67	C	1.073198	-0.668368	-0.303356
C68	C	1.573198	-0.168368	0.196644
C69	C	1.025669	-0.635506	-0.343576
C70	C	1.525669	-0.135506	0.156424
C71	C	1.025640	-0.569764	-0.343565
C72	C	1.525640	-0.069764	0.156435
N73	N	1.008232	-0.771631	-0.308144
N74	N	1.508232	-0.271631	0.191856
N75	N	1.008261	-0.834083	-0.308150
N76	N	1.508261	-0.334083	0.191850
C77	C	1.073281	-0.866443	-0.303392
C78	C	1.573281	-0.366443	0.196608
N79	N	1.138273	-0.833993	-0.298616
N80	N	1.638273	-0.333993	0.201384
N81	N	1.138243	-0.771536	-0.298606
N82	N	1.638243	-0.271536	0.201394
C83	C	1.073224	-0.739654	-0.303373
C84	C	1.573224	-0.239654	0.196627
C85	C	1.120849	-0.970584	-0.263194
C86	C	1.620849	-0.470584	0.236806
C87	C	1.120885	-1.036327	-0.263213
C88	C	1.620885	-0.536327	0.236787
C89	C	1.025844	-1.036348	-0.343648
C90	C	1.525844	-0.536348	0.156352
C91	C	1.025815	-0.970606	-0.343633
C92	C	1.525815	-0.470606	0.156367
C93	C	1.073316	-0.937727	-0.303402
C94	C	1.573316	-0.437727	0.196598
C95	C	1.266918	-0.303390	-0.303399
C96	C	1.766918	0.196610	0.196601
C97	C	1.349464	-0.303400	-0.303414
C98	C	1.849464	0.196600	0.196586
C99	C	1.073274	-0.303353	-0.467554
C100	C	1.573274	0.196647	0.032446
C101	C	1.073301	-0.303347	-0.537522
C102	C	1.573301	0.196653	-0.037522
C103	C	1.073331	-0.139176	-0.303412
C104	C	1.573331	0.360824	0.196588
C105	C	1.073381	-0.069208	-0.303433
C106	C	1.573381	0.430792	0.196567
C107	C	1.120826	-0.263090	-0.570410
C108	C	1.620826	0.236910	-0.070410
C109	C	1.120825	-0.263063	-0.636153
C110	C	1.620825	0.236937	-0.136153
C111	C	1.073306	-0.303304	-0.669004
C112	C	1.573306	0.196696	-0.169004
C113	C	1.025771	-0.343564	-0.636108
C114	C	1.525771	0.156436	-0.136108
C115	C	1.025768	-0.343586	-0.570367
C116	C	1.525768	0.156414	-0.070367
N117	N	1.067577	-0.358371	-0.772219
N118	N	1.567577	0.141629	-0.272219
N119	N	1.067584	-0.358349	-0.834671
N120	N	1.567584	0.141651	-0.334671
C121	C	1.073311	-0.303240	-0.867079
C122	C	1.573311	0.196760	-0.367079
N123	N	1.079046	-0.248153	-0.834677
N124	N	1.579046	0.251847	-0.334677
N125	N	1.079042	-0.248176	-0.772220
N126	N	1.579042	0.251824	-0.272220
C127	C	1.073304	-0.303285	-0.740290
C128	C	1.573304	0.196715	-0.240290
C129	C	1.120838	-0.262950	-0.971253
C130	C	1.620838	0.237050	-0.471253
C131	C	1.120832	-0.262921	-1.036997
C132	C	1.620832	0.237079	-0.536997
C133	C	1.025782	-0.343429	-1.036951
C134	C	1.525782	0.156571	-0.536951
C135	C	1.025784	-0.343451	-0.971209
C136	C	1.525784	0.156549	-0.471209
C137	C	1.073316	-0.303213	-0.938364
C138	C	1.573316	0.196787	-0.438364
C139	C	1.073194	-0.303334	-0.139812
C140	C	1.573194	0.196666	0.360188
C141	C	1.073312	-0.303162	-0.069844
C142	C	1.573312	0.196838	0.430156
H143	H	0.619820	-0.409368	-0.274684
H144	H	1.119820	0.090632	0.225316
H145	H	0.987169	-1.063123	-0.376398
H146	H	1.487169	-0.563123	0.123602
H147	H	0.619909	-0.225681	-0.225862
H148	H	1.119909	0.274319	0.274138
Cl149	Cl	0.966030	-0.394151	-0.677407
Cl150	Cl	1.466030	0.105849	-0.177407
Cl151	Cl	0.515721	-0.400583	-0.400152
Cl152	Cl	1.015721	0.099417	0.099848
Cl153	Cl	1.180563	-0.929248	-0.212620
Cl154	Cl	1.680563	-0.429248	0.287380
Cl155	Cl	0.631952	-0.268069	-0.435797
Cl156	Cl	1.131952	0.231931	0.064203
Cl157	Cl	0.515475	-0.171029	-0.339066
Cl158	Cl	1.015475	0.328971	0.160934
H159	H	1.159348	-0.542973	-0.230367
H160	H	1.659348	-0.042973	0.269633
Cl161	Cl	1.180453	-0.676795	-0.212580
Cl162	Cl	1.680453	-0.176795	0.287420
Cl163	Cl	0.966017	-0.394200	-0.529019
Cl164	Cl	1.466017	0.105800	-0.029019
H165	H	0.986991	-0.662285	-0.376324
H166	H	1.486991	-0.162285	0.123676
H167	H	1.159538	-0.230182	-0.944509
H168	H	1.659538	0.269818	-0.444509
H169	H	0.987112	-0.943854	-0.376374
H170	H	1.487112	-0.443854	0.123626
Cl171	Cl	1.180577	-0.212501	-0.529123
Cl172	Cl	1.680577	0.287499	-0.029123
Cl173	Cl	1.180643	-1.077631	-0.212661
Cl174	Cl	1.680643	-0.577631	0.287339
H175	H	0.986938	-0.543013	-0.376311
H176	H	1.486938	-0.043013	0.123689
Cl177	Cl	1.180562	-0.212437	-0.677507
Cl178	Cl	1.680562	0.287563	-0.177507
H179	H	1.159532	-0.230135	-1.063773
H180	H	1.659532	0.269865	-0.563773
H181	H	0.987083	-0.376187	-1.063698
H182	H	1.487083	0.123813	-0.563698
Cl183	Cl	0.966037	-0.394066	-0.929861
Cl184	Cl	1.466037	0.105934	-0.429861
H185	H	0.527084	-0.331611	-0.197315
H186	H	1.027084	0.168389	0.302685
