data_functionalizedCrystal
_audit_creation_method	'MofGen! by Chris Wilmer'
_symmetry_space_group_name_H-M	'P1'
_symmetry_Int_Tables_number	1
_symmetry_cell_setting	triclinic
loop_
_symmetry_equiv_pos_as_xyz
  x,y,z
_cell_length_a	10.654550
_cell_length_b	11.295483
_cell_length_c	10.654558
_cell_angle_alpha	85.864092
_cell_angle_beta	84.486564
_cell_angle_gamma	94.148597
loop_
_atom_site_label
_atom_site_type_symbol
_atom_site_fract_x
_atom_site_fract_y
_atom_site_fract_z
O1	O	1.676240	0.099121	0.168006
O2	O	1.310761	0.099102	0.184813
O3	O	1.501898	0.099107	-0.006329
O4	O	1.485103	0.099116	0.359148
O5	O	1.485110	-0.098945	0.010434
O6	O	1.293972	-0.098950	0.201576
O7	O	1.659452	-0.098930	0.184768
Cu8	Cu	1.475179	-0.117024	0.194702
Cu9	Cu	1.495033	0.117195	0.174879
O10	O	1.468315	-0.098935	0.375910
C11	C	1.255568	0.000073	0.191961
C12	C	1.116124	0.000066	0.188270
N13	N	1.461224	-0.281760	0.208644
C14	C	1.036644	0.000086	0.300809
C15	C	0.905624	0.000107	0.297331
C16	C	0.933580	0.000092	0.068763
C17	C	1.064596	0.000063	0.072244
C18	C	1.020503	0.000100	0.432770
C19	C	0.889484	0.000121	0.429292
C20	C	1.609454	-0.531046	0.060495
C21	C	1.598917	-0.655710	0.071040
C22	C	1.429608	-0.655754	0.240273
C23	C	1.440145	-0.531090	0.229728
C24	C	1.530072	-0.468741	0.139837
C25	C	1.540615	-0.344074	0.129299
C26	C	1.371300	-0.344121	0.298525
C27	C	1.360763	-0.468785	0.309070
C28	C	1.714645	0.000100	0.177620
C29	C	1.854089	0.000116	0.181311
C30	C	1.492268	0.000082	-0.044745
C31	C	1.488573	0.000086	-0.184188
N32	N	1.508998	0.281932	0.160927
C33	C	1.477683	-0.107870	-0.240565
C34	C	1.474221	-0.107866	-0.371588
C35	C	1.492536	0.108061	-0.389847
C36	C	1.496006	0.108055	-0.258827
C37	C	1.467103	-0.232534	-0.230024
C38	C	1.463642	-0.232529	-0.361047
C39	C	1.477944	0.000092	0.414327
C40	C	1.481641	0.000096	0.553769
H41	H	0.891610	0.000107	-0.025703
H42	H	1.042810	-0.082787	0.491396
H43	H	0.854779	0.083012	0.471998
O44	O	1.577763	-0.283780	-0.425216
H45	H	1.641065	-0.310961	-0.353278
O46	O	1.579197	-0.295915	-0.191768
H47	H	1.570316	-0.389081	-0.218555
O48	O	1.344290	-0.283794	-0.157193
H49	H	1.266331	-0.230102	-0.183879
O50	O	1.150326	0.000020	-0.049134
H51	H	1.092481	0.000030	-0.130395
O52	O	1.077352	0.113352	0.478856
H53	H	1.001537	0.173417	0.500480
O54	O	1.340809	-0.295933	-0.388589
H55	H	1.338151	-0.295904	-0.492477
O56	O	0.819375	-0.113134	0.491695
H57	H	0.752573	-0.091354	0.571656
O58	O	1.637594	-0.276817	0.032343
H59	H	1.691011	-0.341091	-0.021067
O60	O	1.507760	0.224499	-0.198031
H61	H	1.595235	0.229666	-0.149233
O62	O	1.500537	0.224511	-0.470345
H63	H	1.496287	0.206381	-0.570923
O64	O	1.684541	-0.722907	-0.014539
H65	H	1.662103	-0.820069	0.007886
H66	H	1.682685	-0.480280	-0.012690
H67	H	1.356383	-0.706536	0.313451
O68	O	1.285679	-0.276914	0.384109
H69	H	1.221388	-0.341218	0.448391
H70	H	1.287542	-0.519565	0.382255
