data_functionalizedCrystal
_audit_creation_method	'MofGen! by Chris Wilmer'
_symmetry_space_group_name_H-M	'P1'
_symmetry_Int_Tables_number	1
_symmetry_cell_setting	triclinic
loop_
_symmetry_equiv_pos_as_xyz
  x,y,z
_cell_length_a	16.992694
_cell_length_b	16.992695
_cell_length_c	15.455313
_cell_angle_alpha	87.152573
_cell_angle_beta	92.857794
_cell_angle_gamma	90.668223
loop_
_atom_site_label
_atom_site_type_symbol
_atom_site_fract_x
_atom_site_fract_y
_atom_site_fract_z
O1	O	-1.054080	-0.163694	-0.072023
O2	O	-0.554080	0.336306	0.427977
O3	O	-0.825681	-0.161862	-0.072048
O4	O	-0.325681	0.338138	0.427952
O5	O	-0.938965	-0.048579	-0.072029
O6	O	-0.438965	0.451421	0.427971
O7	O	-0.940797	-0.276978	-0.072042
O8	O	-0.440797	0.223022	0.427958
O9	O	-0.932485	-0.055028	0.072232
O10	O	-0.432485	0.444972	0.572232
O11	O	-0.819202	-0.168312	0.072213
O12	O	-0.319202	0.331688	0.572213
O13	O	-1.047601	-0.170144	0.072238
O14	O	-0.547601	0.329856	0.572238
Cu15	Cu	-0.932809	-0.169817	0.085398
Cu16	Cu	-0.432809	0.330183	0.585398
Cu17	Cu	-0.940473	-0.162189	-0.085207
Cu18	Cu	-0.440473	0.337811	0.414793
O19	O	-0.934317	-0.283428	0.072219
O20	O	-0.434317	0.216572	0.572219
C21	C	-0.793081	-0.162731	0.000079
C22	C	-0.293081	0.337269	0.500079
C23	C	-0.705597	-0.155702	0.000070
C24	C	-0.205597	0.344298	0.500070
C25	C	-1.080201	-0.169275	0.000109
C26	C	-0.580201	0.330725	0.500109
C27	C	-1.167685	-0.176304	0.000113
C28	C	-0.667685	0.323696	0.500113
C29	C	-0.933369	-0.022443	0.000102
C30	C	-0.433369	0.477557	0.500102
C31	C	-0.926341	0.065041	0.000101
C32	C	-0.426341	0.565041	0.500101
C33	C	-0.659607	-0.223520	0.000066
C34	C	-0.159607	0.276480	0.500066
C35	C	-0.577405	-0.216911	0.000079
C36	C	-0.077405	0.283089	0.500079
C37	C	-0.541197	-0.142484	0.000088
C38	C	-0.041197	0.357516	0.500088
C39	C	-0.587193	-0.074661	0.000094
C40	C	-0.087193	0.425339	0.500094
C41	C	-0.669393	-0.081271	0.000088
C42	C	-0.169393	0.418729	0.500088
C43	C	-0.295881	-0.115091	0.000113
C44	C	0.204119	0.384909	0.500113
C45	C	-0.213676	-0.108486	0.000116
C46	C	0.286324	0.391514	0.500116
C47	C	-0.203893	-0.250737	0.000103
C48	C	0.296107	0.249263	0.500103
C49	C	-0.286095	-0.257340	0.000091
C50	C	0.213905	0.242660	0.500091
C51	C	-0.332084	-0.189517	0.000102
C52	C	0.167916	0.310483	0.500102
N53	N	-0.457174	-0.135727	0.000098
N54	N	0.042826	0.364273	0.500098
N55	N	-0.416105	-0.196275	0.000098
N56	N	0.083895	0.303725	0.500098
C57	C	-0.939913	-0.309563	0.000087
C58	C	-0.439913	0.190437	0.500087
C59	C	-0.946942	-0.397047	0.000082
C60	C	-0.446942	0.102953	0.500082
N61	N	-0.927425	-0.175181	0.205392
N62	N	-0.427425	0.324819	0.705392
C63	C	-0.994158	0.111032	0.000109
C64	C	-0.494158	0.611032	0.500109
C65	C	-0.987550	0.193233	0.000100
C66	C	-0.487550	0.693233	0.500100
C67	C	-0.913123	0.229442	0.000089
C68	C	-0.413123	0.729442	0.500089
C69	C	-0.845300	0.183445	0.000078
C70	C	-0.345300	0.683445	0.500078
C71	C	-0.851910	0.101246	0.000081
C72	C	-0.351910	0.601246	0.500081
C73	C	-0.885729	0.474757	0.000074
C74	C	-0.385729	0.974757	0.500074
C75	C	-0.879124	0.556962	0.000074
C76	C	-0.379124	1.056962	0.500074
C77	C	-1.021375	0.566744	0.000094
C78	C	-0.521375	1.066744	0.500094
C79	C	-1.027977	0.484543	0.000102
C80	C	-0.527977	0.984543	0.500102
C81	C	-0.960155	0.438554	0.000087
C82	C	-0.460155	0.938554	0.500087
N83	N	-0.906366	0.313464	0.000082
N84	N	-0.406366	0.813464	0.500082
N85	N	-0.966913	0.354533	0.000087
N86	N	-0.466913	0.854533	0.500087
N87	N	-0.945863	-0.156819	-0.205202
N88	N	-0.445863	0.343181	0.294798
C89	C	-0.975571	-0.127074	0.250795
C90	C	-0.475571	0.372926	0.750795
C91	C	-0.971507	-0.131139	0.341602
C92	C	-0.471507	0.368861	0.841602
C93	C	-0.919301	-0.183315	0.387005
C94	C	-0.419301	0.316685	0.887005
C95	C	-0.871149	-0.231424	0.341596
C96	C	-0.371149	0.268576	0.841596
C97	C	-0.875210	-0.227355	0.250791
C98	C	-0.375210	0.272645	0.750791
C99	C	-0.901772	-0.200858	0.658584
C100	C	-0.401772	0.299142	1.158584
C101	C	-0.897717	-0.204926	0.749395
C102	C	-0.397717	0.295074	1.249395
C103	C	-0.998074	-0.104639	0.749395
C104	C	-0.498074	0.395361	1.249395
C105	C	-1.002133	-0.100578	0.658588
C106	C	-0.502133	0.399422	1.158588
C107	C	-0.953979	-0.148684	0.613187
C108	C	-0.453979	0.351316	1.113187
N109	N	-0.915147	-0.187473	0.479825
N110	N	-0.415147	0.312527	0.979825
N111	N	-0.958129	-0.144522	0.520369
N112	N	-0.458129	0.355478	1.020369
H113	H	-0.689081	-0.284126	0.000058
H114	H	-0.189081	0.215874	0.500058
H115	H	-1.054764	0.081557	0.000124
H116	H	-0.554764	0.581557	0.500124
H117	H	-0.855202	-0.247417	0.786359
H118	H	-0.355202	0.252583	1.286359
C119	C	-0.130232	-0.015210	-0.074027
C120	C	0.369768	0.484790	0.425973
C121	C	-0.173871	-0.026671	0.000131
C122	C	0.326129	0.473329	0.500131
H123	H	-0.105662	0.035298	-0.074020
H124	H	0.394338	0.535298	0.425980
H125	H	-0.091085	-0.054654	-0.074027
H126	H	0.408915	0.445346	0.425973
H127	H	-0.164359	-0.018489	-0.124329
H128	H	0.335641	0.481511	0.375671
H129	H	-0.139742	-0.023398	0.050434
H130	H	0.360258	0.476602	0.550434
H131	H	-0.213023	0.012784	0.000139
H132	H	0.286977	0.512784	0.500139
H133	H	-0.333316	-0.059864	0.000122
H134	H	0.166684	0.440136	0.500122
H135	H	-1.088584	0.455068	0.000112
H136	H	-0.588584	0.955068	0.500112
H137	H	-0.539963	-0.272136	0.000075
H138	H	-0.039963	0.227864	0.500075
H139	H	-0.836004	-0.266527	0.213825
H140	H	-0.336004	0.233473	0.713825
H141	H	-1.042774	0.230675	0.000109
H142	H	-0.542774	0.730675	0.500109
H143	H	-0.315570	-0.317946	0.000074
H144	H	0.184430	0.182054	0.500074
H145	H	-0.862564	-0.240030	0.621625
H146	H	-0.362564	0.259970	1.121625
C147	C	-0.758679	0.273526	-0.074092
C148	C	-0.258679	0.773526	0.425908
C149	C	-0.763489	0.223247	0.000066
C150	C	-0.263489	0.723247	0.500066
H151	H	-0.708173	0.298100	-0.074093
H152	H	-0.208173	0.798100	0.425907
H153	H	-0.766469	0.243909	-0.124389
H154	H	-0.266469	0.743909	0.375611
H155	H	-0.798128	0.312677	-0.074077
H156	H	-0.298128	0.812677	0.425923
H157	H	-0.724043	0.184092	0.000047
H158	H	-0.224043	0.684092	0.500047
H159	H	-0.755691	0.252867	0.050376
H160	H	-0.255691	0.752867	0.550376
C161	C	-0.798881	-0.029106	0.000070
C162	C	-0.298881	0.470894	0.500070
C163	C	-0.777363	0.050689	0.000071
C164	C	-0.277363	0.550689	0.500071
H165	H	-0.752857	-0.060315	0.000055
H166	H	-0.252857	0.439685	0.500055
H167	H	-0.826919	-0.042809	0.050379
H168	H	-0.326919	0.457191	0.550379
H169	H	-0.831450	-0.038310	-0.050236
H170	H	-0.331450	0.461690	0.449764
H171	H	-0.744798	0.059894	0.050380
H172	H	-0.244798	0.559894	0.550380
H173	H	-0.749312	0.064397	-0.050243
H174	H	-0.249312	0.564397	0.449757
C175	C	-0.792511	0.647053	-0.074098
C176	C	-0.292511	1.147053	0.425902
C177	C	-0.797311	0.596771	0.000058
C178	C	-0.297311	1.096771	0.500058
H179	H	-0.742007	0.671633	-0.074102
H180	H	-0.242007	1.171633	0.425898
H181	H	-0.800299	0.617436	-0.124396
H182	H	-0.300299	1.117436	0.375604
H183	H	-0.831965	0.686199	-0.074079
H184	H	-0.331965	1.186199	0.425921
H185	H	-0.757860	0.557621	0.000036
H186	H	-0.257860	1.057621	0.500036
H187	H	-0.789514	0.626389	0.050369
H188	H	-0.289514	1.126389	0.550369
C189	C	-0.820370	-0.282198	0.480793
C190	C	-0.320370	0.217802	0.980793
C191	C	-0.813764	-0.288779	0.391502
C192	C	-0.313764	0.211221	0.891502
H193	H	-0.784947	-0.317613	0.511599
H194	H	-0.284947	0.182387	1.011599
H195	H	-0.807864	-0.229794	0.495684
H196	H	-0.307864	0.270206	0.995684
H197	H	-0.872780	-0.294737	0.495654
H198	H	-0.372780	0.205263	0.995654
H199	H	-0.761356	-0.276235	0.376640
H200	H	-0.261356	0.223765	0.876640
H201	H	-0.826266	-0.341195	0.376605
H202	H	-0.326266	0.158805	0.876605
H203	H	-0.166440	-0.305954	0.000096
H204	H	0.333560	0.194046	0.500096
C205	C	-0.465533	-0.001366	0.000101
C206	C	0.034467	0.498634	0.500101
C207	C	-0.547395	0.007152	0.000103
C208	C	-0.047395	0.507152	0.500103
H209	H	-0.440967	0.049144	0.000099
H210	H	0.059033	0.549144	0.500099
H211	H	-0.447802	-0.031750	0.050404
H212	H	0.052198	0.468250	0.550404
H213	H	-0.452313	-0.027259	-0.050211
H214	H	0.047687	0.472741	0.449789
H215	H	-0.560615	0.033039	0.050418
H216	H	-0.060615	0.533039	0.550418
H217	H	-0.565132	0.037548	-0.050205
H218	H	-0.065132	0.537548	0.449795
H219	H	-1.076591	0.604197	0.000106
H220	H	-0.576591	1.104197	0.500106
H221	H	-0.830503	0.437322	0.000061
H222	H	-0.330503	0.937322	0.500061
H223	H	-1.018087	-0.084591	0.213834
H224	H	-0.518087	0.415409	0.713834
C225	C	-0.670812	0.060001	0.000087
C226	C	-0.170812	0.560001	0.500087
C227	C	-0.719949	-0.006723	0.000083
C228	C	-0.219949	0.493277	0.500083
H229	H	-0.702025	0.106024	0.000081
H230	H	-0.202025	0.606024	0.500081
H231	H	-0.636298	0.057373	0.050394
H232	H	-0.136298	0.557373	0.550394
H233	H	-0.640797	0.061863	-0.050221
H234	H	-0.140797	0.561863	0.449779
H235	H	-0.749960	-0.008588	0.050395
H236	H	-0.249960	0.491412	0.550395
H237	H	-0.754477	-0.004094	-0.050228
H238	H	-0.254477	0.495906	0.449772
C239	C	-1.071134	-0.031626	0.332481
C240	C	-0.571134	0.468374	0.832481
C241	C	-1.024444	-0.078271	0.391508
C242	C	-0.524444	0.421729	0.891508
H243	H	-1.103821	0.001007	0.363292
H244	H	-0.603821	0.501007	0.863292
H245	H	-1.038184	0.000358	0.297079
H246	H	-0.538184	0.500358	0.797079
H247	H	-1.103072	-0.064613	0.297047
H248	H	-0.603072	0.435387	0.797047
H249	H	-0.992501	-0.045285	0.426937
H250	H	-0.492501	0.454715	0.926937
H251	H	-1.057398	-0.110258	0.426925
H252	H	-0.557398	0.389742	0.926925
C253	C	-1.100916	-0.001849	0.667712
C254	C	-0.600916	0.498151	1.167712
C255	C	-1.059516	-0.043220	0.608683
C256	C	-0.559516	0.456780	1.108683
H257	H	-1.136339	0.033563	0.636901
H258	H	-0.636339	0.533563	1.136901
H259	H	-1.129699	-0.037993	0.703116
H260	H	-0.629699	0.462007	1.203116
H261	H	-1.064784	0.026950	0.703142
H262	H	-0.564784	0.526950	1.203142
H263	H	-1.095647	-0.072024	0.573257
H264	H	-0.595647	0.427976	1.073257
H265	H	-1.030730	-0.007070	0.573264
H266	H	-0.530730	0.492930	1.073264
H267	H	-1.037278	-0.065473	0.786369
H268	H	-0.537278	0.434527	1.286369
