data_functionalizedCrystal
_audit_creation_method	'MofGen! by Chris Wilmer'
_symmetry_space_group_name_H-M	'P1'
_symmetry_Int_Tables_number	1
_symmetry_cell_setting	triclinic
loop_
_symmetry_equiv_pos_as_xyz
  x,y,z
_cell_length_a	12.759401
_cell_length_b	12.759399
_cell_length_c	21.395355
_cell_angle_alpha	89.986403
_cell_angle_beta	89.978644
_cell_angle_gamma	90.015844
loop_
_atom_site_label
_atom_site_type_symbol
_atom_site_fract_x
_atom_site_fract_y
_atom_site_fract_z
Zn1	Zn	1.606278	-0.418384	-0.354229
Zn2	Zn	1.606160	-0.594048	-0.249461
Zn3	Zn	1.430571	-0.418384	-0.249472
Zn4	Zn	1.430565	-0.594021	-0.354207
O5	O	1.518394	-0.506209	-0.301842
O6	O	1.753283	-0.441697	-0.340336
O7	O	1.582821	-0.570757	-0.161784
O8	O	1.453930	-0.271363	-0.263382
O9	O	1.753197	-0.570757	-0.263363
O10	O	1.583021	-0.271363	-0.340347
O11	O	1.453817	-0.441698	-0.161793
O12	O	1.283549	-0.441672	-0.263361
O13	O	1.453921	-0.570711	-0.441888
O14	O	1.283545	-0.570712	-0.340309
O15	O	1.583016	-0.441671	-0.441904
O16	O	1.582816	-0.741066	-0.263342
O17	O	1.453807	-0.741046	-0.340298
C18	C	1.245426	-0.506190	-0.301834
C19	C	1.128650	-0.506207	-0.301845
C20	C	1.073813	-0.573506	-0.341846
C21	C	0.964089	-0.573519	-0.341853
C22	C	0.964048	-0.438932	-0.261853
C23	C	1.073770	-0.438914	-0.261849
C24	C	1.073836	-0.651212	-0.388031
C25	C	0.964112	-0.651225	-0.388038
C26	C	1.518327	-0.779177	-0.301830
C27	C	1.518394	-0.895953	-0.301846
C28	C	1.451343	-1.060635	-0.261766
C29	C	1.451272	-0.950911	-0.261750
C30	C	1.585584	-0.950725	-0.341964
C31	C	1.585649	-1.060447	-0.341982
C32	C	1.373803	-1.060742	-0.215454
C33	C	1.373731	-0.951018	-0.215438
C34	C	1.792427	-0.506229	-0.301851
C35	C	1.909204	-0.506238	-0.301855
C36	C	1.518481	-0.506188	-0.465266
C37	C	1.518518	-0.506179	-0.534907
C38	C	1.518490	-0.232176	-0.301868
C39	C	1.518531	-0.115399	-0.301880
C40	C	1.585735	-0.438985	-0.567630
C41	C	1.585734	-0.438940	-0.633065
C42	C	1.518526	-0.506107	-0.665775
C43	C	1.451296	-0.573306	-0.633045
C44	C	1.451292	-0.573342	-0.567611
C45	C	1.510207	-0.600706	-0.769446
C46	C	1.510219	-0.600672	-0.834879
C47	C	1.518533	-0.505996	-0.867596
C48	C	1.526857	-0.411352	-0.834872
C49	C	1.526853	-0.411387	-0.769438
C50	C	1.518523	-0.506076	-0.736728
C51	C	1.585752	-0.438748	-0.971271
C52	C	1.585743	-0.438701	-1.036708
C53	C	1.451311	-0.573077	-1.036686
C54	C	1.451314	-0.573114	-0.971251
C55	C	1.518540	-0.505951	-0.938548
C56	C	1.518367	-0.506155	-0.139055
C57	C	1.518534	-0.505868	-0.069414
H58	H	1.640229	-0.905971	-0.374614
N59	N	1.132902	-0.366301	-0.218716
H60	H	1.113776	-0.382491	-0.173930
H61	H	1.210722	-0.376518	-0.224833
H62	H	1.292440	-1.090578	-0.228413
H63	H	1.503156	-0.677783	-0.742813
H64	H	1.403009	-1.094789	-0.169380
H65	H	1.396585	-0.627837	-0.944608
H66	H	1.640354	-1.105032	-0.374649
N67	N	1.535813	-0.309221	-0.870145
H68	H	1.603819	-0.273481	-0.858771
H69	H	1.534499	-0.323630	-0.916552
H70	H	1.107847	-0.728455	-0.370567
H71	H	0.930118	-0.622205	-0.434168
N72	N	1.501238	-0.702749	-0.870169
H73	H	1.502510	-0.688363	-0.916585
H74	H	1.561973	-0.749734	-0.858744
H75	H	1.296398	-0.917041	-0.232772
N76	N	1.535813	-0.309319	-0.734138
H77	H	1.600551	-0.310754	-0.707001
H78	H	1.541036	-0.249384	-0.764825
H79	H	1.395552	-0.921262	-0.166919
N80	N	1.658237	-0.366546	-0.532357
H81	H	1.700819	-0.323971	-0.563020
H82	H	1.615489	-0.317934	-0.505197
N83	N	1.658233	-0.366463	-0.668370
H84	H	1.700818	-0.323921	-0.637723
H85	H	1.706834	-0.409227	-0.695530
H86	H	0.919351	-0.384144	-0.229290
H87	H	1.640485	-0.384053	-0.944643
N88	N	0.924628	-0.758965	-0.370714
H89	H	0.986149	-0.807033	-0.362973
H90	H	0.880592	-0.754113	-0.331587
H91	H	1.103648	-0.629537	-0.436579
H92	H	1.640477	-0.383977	-1.063350
N93	N	1.378812	-0.645515	-1.071957
H94	H	1.389010	-0.635295	-1.118375
H95	H	1.395135	-0.720559	-1.060529
H96	H	1.396551	-0.628058	-0.540968
N97	N	1.378790	-0.645736	-0.668320
H98	H	1.388990	-0.635516	-0.714739
H99	H	1.395099	-0.720782	-0.656893
