data_functionalizedCrystal
_audit_creation_method	'MofGen! by Chris Wilmer'
_symmetry_space_group_name_H-M	'P1'
_symmetry_Int_Tables_number	1
_symmetry_cell_setting	triclinic
loop_
_symmetry_equiv_pos_as_xyz
  x,y,z
_cell_length_a	12.827893
_cell_length_b	16.625539
_cell_length_c	12.827892
_cell_angle_alpha	89.976806
_cell_angle_beta	90.015553
_cell_angle_gamma	89.984909
loop_
_atom_site_label
_atom_site_type_symbol
_atom_site_fract_x
_atom_site_fract_y
_atom_site_fract_z
Zn1	Zn	1.597626	-0.455885	-0.416046
Zn2	Zn	1.597533	-0.321060	-0.590803
Zn3	Zn	1.422881	-0.321070	-0.416077
Zn4	Zn	1.422853	-0.455855	-0.590746
O5	O	1.510223	-0.388468	-0.503418
O6	O	1.743850	-0.438009	-0.439239
O7	O	1.574338	-0.208229	-0.567662
O8	O	1.446112	-0.338971	-0.269837
O9	O	1.743782	-0.338954	-0.567632
O10	O	1.574497	-0.438019	-0.269814
O11	O	1.446021	-0.208237	-0.439292
O12	O	1.276641	-0.338941	-0.439237
O13	O	1.446065	-0.568691	-0.567535
O14	O	1.276621	-0.437967	-0.567565
O15	O	1.574470	-0.568714	-0.439183
O16	O	1.574311	-0.338924	-0.737032
O17	O	1.445974	-0.437957	-0.736990
C18	C	1.238713	-0.388452	-0.503399
C19	C	1.122560	-0.388465	-0.503416
C20	C	1.070809	-0.437557	-0.439995
C21	C	0.950759	-0.437571	-0.440011
C22	C	1.510275	-0.598777	-0.503349
C23	C	1.510296	-0.688398	-0.503320
C24	C	1.510313	-0.761180	-0.503297
C25	C	1.510338	-0.852489	-0.503258
C26	C	1.510362	-0.925265	-0.503221
C27	C	1.510389	-1.016580	-0.503183
C28	C	1.782793	-0.388483	-0.503438
C29	C	1.898947	-0.388490	-0.503447
C30	C	1.510158	-0.388453	-0.774928
C31	C	1.510226	-0.388474	-0.891081
C32	C	1.510232	-0.178977	-0.503411
C33	C	1.510413	-0.089356	-0.503146
C34	C	1.573806	-0.339524	-0.942852
C35	C	1.573878	-0.339544	-1.062902
C36	C	1.510317	-0.388500	-0.230848
C37	C	1.510358	-0.388513	-0.114695
H38	H	1.115380	-0.479573	-0.385683
O39	O	0.897721	-0.487831	-0.375345
C40	C	0.924378	-0.568177	-0.398273
H41	H	0.954442	-0.572156	-0.481731
H42	H	0.987670	-0.589363	-0.342214
C43	C	0.790461	-0.617064	-0.283799
C44	C	0.827378	-0.621951	-0.386308
H45	H	0.730629	-0.650235	-0.276415
H46	H	0.772503	-0.562933	-0.268349
H47	H	0.843213	-0.634717	-0.237096
H48	H	0.774631	-0.604288	-0.433008
H49	H	0.845325	-0.676080	-0.401766
H50	H	0.943445	-0.346463	-0.557752
H51	H	1.077990	-0.346444	-0.557722
O52	O	1.638535	-0.289421	-0.889661
C53	C	1.578985	-0.237352	-0.826598
H54	H	1.496734	-0.232298	-0.859632
H55	H	1.575240	-0.262326	-0.743902
C56	C	1.731125	-0.159775	-0.784221
C57	C	1.630105	-0.153561	-0.824800
H58	H	1.762659	-0.108089	-0.783108
H59	H	1.771246	-0.194856	-0.826705
H60	H	1.727990	-0.180589	-0.715312
H61	H	1.633242	-0.132757	-0.893712
H62	H	1.589985	-0.118474	-0.782327
H63	H	1.628308	-0.297634	-1.107424
O64	O	1.445466	-0.438628	-1.061710
C65	C	1.468252	-0.519029	-1.088199
H66	H	1.508397	-0.520796	-1.167438
H67	H	1.521978	-0.546167	-1.026724
C68	C	1.317031	-0.565637	-0.995816
C69	C	1.366330	-0.567808	-1.093142
H70	H	1.254162	-0.595729	-0.998861
H71	H	1.301681	-0.511470	-0.977966
H72	H	1.361814	-0.588251	-0.944597
H73	H	1.321553	-0.545186	-1.144356
H74	H	1.381670	-0.621973	-1.111001
H75	H	1.455849	-0.430401	-0.935635
