data_functionalizedCrystal
_audit_creation_method	'MofGen! by Chris Wilmer'
_symmetry_space_group_name_H-M	'P1'
_symmetry_Int_Tables_number	1
_symmetry_cell_setting	triclinic
loop_
_symmetry_equiv_pos_as_xyz
  x,y,z
_cell_length_a	12.645331
_cell_length_b	15.297327
_cell_length_c	15.296720
_cell_angle_alpha	107.319222
_cell_angle_beta	80.338737
_cell_angle_gamma	80.294043
loop_
_atom_site_label
_atom_site_type_symbol
_atom_site_fract_x
_atom_site_fract_y
_atom_site_fract_z
Zn1	Zn	1.406801	0.461247	0.589842
Zn2	Zn	1.406681	0.589869	0.461236
Zn3	Zn	1.266632	0.434373	0.434359
Zn4	Zn	1.192395	0.616708	0.616679
O5	O	1.318127	0.525549	0.525529
O6	O	1.555126	0.478324	0.572799
O7	O	1.419121	0.546763	0.327547
O8	O	1.316345	0.307802	0.432504
O9	O	1.555038	0.572822	0.478313
O10	O	1.419326	0.327546	0.546737
O11	O	1.316228	0.432521	0.307801
O12	O	1.108443	0.458545	0.458527
O13	O	1.189818	0.618565	0.743243
O14	O	1.053902	0.592506	0.592477
O15	O	1.347342	0.504349	0.723526
O16	O	1.347137	0.723566	0.504336
O17	O	1.189702	0.743284	0.618539
C18	C	1.042709	0.525523	0.525499
C19	C	0.924874	0.525537	0.525511
C20	C	1.260374	0.767171	0.567287
C21	C	1.235757	0.870543	0.585182
C22	C	1.260313	0.567448	0.768068
C23	C	1.235676	0.585303	0.871423
C24	C	0.791571	0.441001	0.441583
C25	C	0.914161	0.441133	0.441300
C26	C	0.863358	0.618873	0.515680
C27	C	0.740970	0.618394	0.515124
C28	C	0.740143	0.517719	0.619709
C29	C	0.863402	0.515435	0.618783
C30	C	1.594620	0.525577	0.525561
C31	C	1.712445	0.525589	0.525574
C32	C	1.376130	0.282988	0.483629
C33	C	1.400847	0.179622	0.465774
C34	C	1.494433	1.120770	0.397948
C35	C	1.517563	1.023646	0.381130
C36	C	1.447114	0.985365	0.432141
C37	C	1.353530	1.044219	0.499974
C38	C	1.330393	1.141351	0.516788
C39	C	1.283074	1.005947	0.550982
C40	C	1.189490	1.064800	0.618814
C41	C	1.166358	1.161923	0.635626
C42	C	1.236807	1.200204	0.584615
C43	C	1.306211	0.908814	0.534167
C44	C	1.142171	0.929396	0.653008
C45	C	1.119041	1.026520	0.669826
C46	C	1.375794	0.483746	0.283923
C47	C	1.400699	0.465630	0.180523
C48	C	1.494291	0.397775	1.121703
C49	C	1.517445	0.381001	1.024596
C50	C	1.447005	0.432075	0.986298
C51	C	1.353406	0.499926	1.045117
C52	C	1.330255	0.516707	1.142234
C53	C	1.282968	0.551007	1.006829
C54	C	1.189370	0.618858	1.065648
C55	C	1.166222	0.635635	1.162756
C56	C	1.236662	0.584561	1.201054
C57	C	1.306120	0.534226	0.909711
C58	C	1.142083	0.653158	0.930242
C59	C	1.118929	0.669932	1.027350
H60	H	0.957598	0.371390	0.445519
H61	H	1.090015	0.690892	1.210645
H62	H	1.217982	1.279290	0.598306
C63	C	1.211196	0.603012	1.307873
H64	H	1.266555	0.562876	1.322253
H65	H	1.141397	0.590720	1.327055
H66	H	1.209946	0.666824	1.340211
H67	H	0.956926	0.444971	0.371197
H68	H	1.042720	0.725176	1.075253
H69	H	0.724465	0.627061	0.446810
C70	C	0.769890	0.346444	0.446962
H71	H	0.712386	0.357702	0.500477
H72	H	0.835105	0.309083	0.452092
H73	H	0.748769	0.314218	0.391634
H74	H	1.382407	0.860904	0.478937
C75	C	1.472562	0.878533	0.413650
H76	H	1.538392	0.848965	0.365953
H77	H	1.413235	0.853821	0.393728
H78	H	1.481787	0.866901	0.469867
H79	H	1.593757	0.975730	0.325900
H80	H	1.042844	1.074452	0.725056
C81	C	0.768048	0.446035	0.347415
H82	H	0.710217	0.499464	0.359064
H83	H	0.746752	0.390597	0.315769
H84	H	0.832667	0.451171	0.309323
H85	H	1.084726	0.694748	0.899061
H86	H	0.869019	0.573908	0.683341
C87	C	1.064670	0.887303	0.709128
H88	H	1.005614	0.936262	0.751924
H89	H	1.104555	0.856374	0.743108
H90	H	1.036014	0.843307	0.666962
C91	C	1.571760	0.341601	1.163833
H92	H	1.544561	0.361310	1.230092
H93	H	1.643526	0.352465	1.150279
H94	H	1.574974	0.276363	1.137126
H95	H	1.382328	0.478980	0.861830
C96	C	0.666909	0.705186	0.595393
H97	H	0.591679	0.705479	0.595600
H98	H	0.682702	0.760786	0.586175
H99	H	0.680649	0.702829	0.653926
C100	C	1.063416	1.226659	0.710235
H101	H	1.024776	1.189954	0.738214
H102	H	1.016709	1.258444	0.681197
H103	H	1.085260	1.271508	0.757336
H104	H	0.867296	0.682845	0.575678
C105	C	1.571916	1.162880	0.341846
H106	H	1.544736	1.229155	0.361581
H107	H	1.575143	1.136204	0.276606
H108	H	1.643680	1.149273	0.352756
H109	H	1.593655	0.325759	0.976713
H110	H	0.685888	0.579536	0.682081
H111	H	0.905883	0.628036	0.448201
C112	C	0.713194	0.428588	0.636204
H113	H	0.684797	0.395338	0.585828
H114	H	0.659792	0.445981	0.693762
H115	H	0.778384	0.389443	0.639174
H116	H	0.904896	0.446835	0.626505
H117	H	1.465863	0.418413	0.907228
