data_functionalizedCrystal
_audit_creation_method	'MofGen! by Chris Wilmer'
_symmetry_space_group_name_H-M	'P1'
_symmetry_Int_Tables_number	1
_symmetry_cell_setting	triclinic
loop_
_symmetry_equiv_pos_as_xyz
  x,y,z
_cell_length_a	19.077105
_cell_length_b	10.686285
_cell_length_c	19.076919
_cell_angle_alpha	91.918800
_cell_angle_beta	89.923776
_cell_angle_gamma	83.162422
loop_
_atom_site_label
_atom_site_type_symbol
_atom_site_fract_x
_atom_site_fract_y
_atom_site_fract_z
Zn1	Zn	1.085506	-0.610610	0.415453
Zn2	Zn	1.585506	-0.110610	0.915453
Zn3	Zn	1.099198	-0.813548	0.289649
Zn4	Zn	1.599198	-0.313548	0.789649
Zn5	Zn	0.971970	-0.593702	0.293938
Zn6	Zn	1.471970	-0.093702	0.793938
Zn7	Zn	0.976985	-0.812786	0.402433
Zn8	Zn	1.476985	-0.312786	0.902433
O9	O	1.033415	-0.707661	0.350368
O10	O	1.533415	-0.207661	0.850368
O11	O	1.185984	-0.644924	0.402419
O12	O	1.685984	-0.144924	0.902419
O13	O	1.085952	-0.777627	0.192163
O14	O	1.585952	-0.277627	0.692163
O15	O	0.979201	-0.419327	0.317301
O16	O	1.479201	0.080673	0.817301
O17	O	1.196043	-0.794022	0.309992
O18	O	1.696043	-0.294022	0.809992
O19	O	1.062616	-0.431749	0.406578
O20	O	1.562616	0.068251	0.906578
O21	O	0.992478	-0.616107	0.195314
O22	O	1.492478	-0.116107	0.695314
O23	O	0.873973	-0.615369	0.304676
O24	O	1.373973	-0.115369	0.804676
O25	O	0.987750	-0.792725	0.502215
O26	O	1.487750	-0.292725	1.002215
O27	O	0.877659	-0.776330	0.384387
O28	O	1.377659	-0.276330	0.884387
O29	O	1.067480	-0.644186	0.511781
O30	O	1.567480	-0.144186	1.011781
O31	O	1.090815	-0.990065	0.297367
O32	O	1.590815	-0.490065	0.797367
O33	O	1.001026	-0.989505	0.380228
O34	O	1.501026	-0.489505	0.880228
C35	C	0.850234	-0.693933	0.343584
C36	C	1.350234	-0.193933	0.843584
C37	C	0.771869	-0.688092	0.340697
C38	C	1.271869	-0.188092	0.840697
C39	C	1.047969	-1.035583	0.336935
C40	C	1.547969	-0.535583	0.836935
C41	C	1.054260	-1.175875	0.331214
C42	C	1.554260	-0.675875	0.831214
C43	C	0.736999	-0.769268	0.380767
C44	C	1.236999	-0.269268	0.880767
C45	C	0.663366	-0.763763	0.378058
C46	C	1.163366	-0.263763	0.878058
C47	C	0.624605	-0.677087	0.335276
C48	C	1.124605	-0.177087	0.835276
C49	C	0.659481	-0.595902	0.295205
C50	C	1.159481	-0.095902	0.795205
C51	C	0.733112	-0.601402	0.297918
C52	C	1.233112	-0.101402	0.797918
C53	C	0.404183	-0.651633	0.322724
C54	C	0.904183	-0.151633	0.822724
C55	C	0.330547	-0.646142	0.320013
C56	C	0.830547	-0.146142	0.820013
C57	C	0.334437	-0.814001	0.402867
C58	C	0.834437	-0.314001	0.902867
C59	C	0.408069	-0.819499	0.405573
C60	C	0.908069	-0.319499	0.905573
C61	C	0.442938	-0.738310	0.365505
C62	C	0.942938	-0.238310	0.865505
N63	N	0.549341	-0.671460	0.332505
N64	N	1.049341	-0.171460	0.832505
N65	N	0.518201	-0.743931	0.368280
N66	N	1.018201	-0.243931	0.868280
C67	C	1.217311	-0.721444	0.357180
C68	C	1.717311	-0.221444	0.857180
C69	C	1.295676	-0.727318	0.360082
C70	C	1.795676	-0.227318	0.860082
C71	C	1.026647	-0.720257	0.533134
C72	C	1.526647	-0.220257	1.033134
C73	C	1.023763	-0.725624	0.611017
C74	C	1.523763	-0.225624	1.111017
C75	C	1.018822	-0.378462	0.363870
C76	C	1.518822	0.121538	0.863870
C77	C	1.012603	-0.238177	0.369624
C78	C	1.512603	0.261823	0.869624
C79	C	1.040193	-0.695027	0.168319
C80	C	1.540193	-0.195027	0.668319
C81	C	1.043197	-0.689314	0.090456
C82	C	1.543197	-0.189314	0.590456
C83	C	1.063917	-0.650813	0.652589
C84	C	1.563917	-0.150813	1.152589
C85	C	1.061198	-0.655851	0.725768
C86	C	1.561198	-0.155851	1.225768
C87	C	1.018329	-0.735707	0.757375
C88	C	1.518329	-0.235707	1.257375
C89	C	0.978171	-0.810521	0.715799
C90	C	1.478171	-0.310521	1.215799
C91	C	0.980886	-0.805476	0.642621
C92	C	1.480886	-0.305476	1.142621
C93	C	1.005754	-0.759083	0.975701
C94	C	1.505754	-0.259083	1.475701
C95	C	1.003043	-0.764125	1.048885
C96	C	1.503043	-0.264125	1.548885
C97	C	1.086070	-0.609453	1.058849
C98	C	1.586070	-0.109453	1.558849
C99	C	1.088785	-0.604420	0.985669
C100	C	1.588785	-0.104420	1.485669
C101	C	1.048624	-0.679229	0.944099
C102	C	1.548624	-0.179229	1.444099
N103	N	1.015551	-0.740861	0.832177
N104	N	1.515551	-0.240861	1.332177
N105	N	1.051398	-0.674067	0.869299
N106	N	1.551398	-0.174067	1.369299
H107	H	0.634977	-0.829866	0.410686
H108	H	1.134977	-0.329866	0.910686
H109	H	1.123696	-0.539397	0.959940
H110	H	1.623696	-0.039397	1.459940
H111	H	0.627916	-0.525323	0.260374
H112	H	1.127916	-0.025323	0.760374
O113	O	1.102565	-1.240080	0.286697
O114	O	1.602565	-0.740080	0.786697
C115	C	1.140045	-1.153991	0.252151
C116	C	1.640045	-0.653991	0.752151
H117	H	1.107098	-1.057699	0.252423
H118	H	1.607098	-0.557699	0.752423
H119	H	1.151349	-1.188958	0.195688
H120	H	1.651349	-0.688958	0.695688
H121	H	1.191995	-1.145701	0.280406
H122	H	1.691995	-0.645701	0.780406
H123	H	0.973063	-0.820017	0.941863
H124	H	1.473063	-0.320017	1.441863
O125	O	0.961441	-0.841866	1.079510
O126	O	1.461441	-0.341866	1.579510
C127	C	0.983090	-0.967589	1.057057
C128	C	1.483090	-0.467589	1.557057
H129	H	1.012272	-0.968587	1.004818
H130	H	1.512272	-0.468587	1.504818
H131	H	0.934803	-1.020187	1.050354
H132	H	1.434803	-0.520187	1.550354
H133	H	1.019698	-1.015655	1.097841
H134	H	1.519698	-0.515655	1.597841
H135	H	0.439623	-0.890082	0.440409
H136	H	0.939623	-0.390082	0.940409
O137	O	0.767076	-0.522731	0.258954
O138	O	1.267076	-0.022731	0.758954
C139	C	0.814510	-0.594520	0.212251
C140	C	1.314510	-0.094520	0.712251
H141	H	0.828882	-0.692759	0.233362
H142	H	1.328882	-0.192759	0.733362
H143	H	0.864349	-0.546309	0.206924
H144	H	1.364349	-0.046309	0.706924
H145	H	0.788657	-0.602540	0.158702
H146	H	1.288657	-0.102540	0.658702
O147	O	1.105642	-0.573421	0.621851
O148	O	1.605642	-0.073421	1.121851
C149	C	1.155926	-0.645761	0.578249
C150	C	1.655926	-0.145761	1.078249
H151	H	1.163874	-0.747013	0.596385
H152	H	1.663874	-0.247013	1.096385
H153	H	1.208189	-0.604115	0.581304
H154	H	1.708189	-0.104115	1.081304
H155	H	1.136376	-0.644652	0.521802
H156	H	1.636376	-0.144652	1.021802
H157	H	1.093898	-0.594935	0.759613
H158	H	1.593898	-0.094935	1.259613
H159	H	0.943263	-0.875537	0.741539
H160	H	1.443263	-0.375537	1.241539
O161	O	0.941869	-0.878289	0.602338
O162	O	1.441869	-0.378289	1.102338
C163	C	0.903441	-0.949840	0.645926
C164	C	1.403441	-0.449840	1.145926
H165	H	0.930573	-0.959956	0.698985
H166	H	1.430573	-0.459956	1.198985
H167	H	0.901124	-1.047266	0.620426
H168	H	1.401124	-0.547266	1.120426
H169	H	0.847553	-0.900159	0.653611
H170	H	1.347553	-0.400159	1.153611
H171	H	0.306038	-0.880099	0.435489
H172	H	0.806038	-0.380099	0.935489
O173	O	0.964414	-1.173734	0.414162
O174	O	1.464414	-0.673734	0.914162
C175	C	0.999459	-1.103490	0.464004
C176	C	1.499459	-0.603490	0.964004
H177	H	1.056581	-1.147670	0.468831
H178	H	1.556581	-0.647670	0.968831
H179	H	0.971848	-1.103672	0.517028
H180	H	1.471848	-0.603672	1.017028
H181	H	0.998285	-1.002328	0.446457
H182	H	1.498285	-0.502328	0.946457
H183	H	0.768552	-0.839853	0.415602
H184	H	1.268552	-0.339853	0.915602
O185	O	1.125007	-0.536823	1.099335
O186	O	1.625007	-0.036823	1.599335
C187	C	1.113434	-0.558417	1.170701
C188	C	1.613434	-0.058417	1.670701
H189	H	1.060486	-0.596367	1.176983
H190	H	1.560486	-0.096367	1.676983
H191	H	1.112991	-0.466152	1.202567
H192	H	1.612991	0.033848	1.702567
H193	H	1.157464	-0.630190	1.190264
H194	H	1.657464	-0.130190	1.690264
H195	H	0.432565	-0.585532	0.290092
H196	H	0.932565	-0.085532	0.790092
O197	O	0.292998	-0.561824	0.278440
O198	O	0.792998	-0.061824	0.778440
C199	C	0.339564	-0.491363	0.243643
C200	C	0.839564	0.008637	0.743643
H201	H	0.390803	-0.492965	0.274457
H202	H	0.890803	0.007035	0.774457
H203	H	0.314139	-0.389805	0.239552
H204	H	0.814139	0.110195	0.739552
H205	H	0.351403	-0.534340	0.188783
H206	H	0.851403	-0.034340	0.688783
