data_functionalizedCrystal
_audit_creation_method	'MofGen! by Chris Wilmer'
_symmetry_space_group_name_H-M	'P1'
_symmetry_Int_Tables_number	1
_symmetry_cell_setting	triclinic
loop_
_symmetry_equiv_pos_as_xyz
  x,y,z
_cell_length_a	19.288864
_cell_length_b	8.559649
_cell_length_c	17.766277
_cell_angle_alpha	89.994756
_cell_angle_beta	89.976791
_cell_angle_gamma	76.457456
loop_
_atom_site_label
_atom_site_type_symbol
_atom_site_fract_x
_atom_site_fract_y
_atom_site_fract_z
O1	O	0.910987	0.199405	-0.062829
O2	O	0.707328	0.226304	-0.062777
O3	O	0.827100	-0.019877	-0.062807
O4	O	0.791215	0.445585	-0.062799
O5	O	0.827082	-0.019889	0.062381
O6	O	0.707310	0.226291	0.062411
O7	O	0.910969	0.199392	0.062359
Cu8	Cu	0.809138	0.212841	0.073816
Cu9	Cu	0.809160	0.212855	-0.074234
O10	O	0.791197	0.445573	0.062389
C11	C	0.681488	0.225432	-0.000176
C12	C	0.604519	0.222834	-0.000157
C13	C	0.552314	0.367282	-0.000166
C14	C	0.479994	0.364841	-0.000174
C15	C	0.459883	0.217944	-0.000188
C16	C	0.512099	0.073477	-0.000175
C17	C	0.584417	0.075922	-0.000159
C18	C	0.357630	0.102471	-0.044075
C19	C	0.285312	0.100032	-0.044095
C20	C	0.236829	0.210396	-0.000234
C21	C	0.260670	0.323227	0.043638
C22	C	0.332989	0.325672	0.043654
C23	C	0.381467	0.215276	-0.000205
C24	C	0.106205	0.352207	-0.000251
C25	C	0.033884	0.349760	-0.000255
C26	C	0.065991	0.058393	-0.000263
C27	C	0.138310	0.060844	-0.000252
C28	C	0.158412	0.207756	-0.000250
C29	C	0.829811	-0.079432	-0.000215
C30	C	0.837906	-0.256871	-0.000221
C31	C	0.936810	0.200264	-0.000243
C32	C	1.013778	0.202862	-0.000268
C33	C	0.788487	0.505129	-0.000205
C34	C	0.780392	0.682567	-0.000203
N35	N	0.809128	0.212829	0.177946
N36	N	0.809176	0.212854	-0.178364
C37	C	0.862176	0.103874	0.217320
C38	C	0.862180	0.103866	0.296122
C39	C	0.809142	0.212842	0.335547
C40	C	0.756085	0.321806	0.296164
C41	C	0.756078	0.321800	0.217364
C42	C	0.792272	0.358486	0.460389
C43	C	0.792284	0.358494	0.539188
C44	C	0.809160	0.212861	0.578593
C45	C	0.826039	0.067213	0.539190
C46	C	0.826032	0.067207	0.460390
C47	C	0.809144	0.212860	0.420993
C48	C	0.862215	0.103889	0.703413
C49	C	0.862215	0.103879	0.782216
C50	C	0.756123	0.321833	0.782257
C51	C	0.756120	0.321828	0.703455
C52	C	0.809170	0.212858	0.664038
H53	H	0.495719	-0.046127	-0.000196
C54	C	0.705505	-0.204106	-0.000191
H55	H	0.709705	-0.095715	-0.000202
H56	H	0.680296	-0.223328	0.043470
H57	H	0.680317	-0.223338	-0.043847
C58	C	-0.023545	0.508657	-0.000266
H59	H	-0.069495	0.486164	-0.000268
H60	H	-0.018266	0.568910	-0.043922
H61	H	-0.018311	0.568917	0.043396
C62	C	0.912798	-0.370199	-0.000236
H63	H	0.947793	-0.308411	-0.000243
H64	H	0.918411	-0.436051	-0.043889
H65	H	0.918395	-0.436035	0.043428
H66	H	0.905371	0.015140	0.185229
H67	H	0.905379	0.015138	0.328186
H68	H	0.839773	-0.051384	0.428312
C69	C	0.128326	0.513795	-0.000240
H70	H	0.178873	0.494565	-0.000239
H71	H	0.109857	0.573247	0.043416
H72	H	0.109900	0.573255	-0.043902
C73	C	0.697732	0.441669	0.174047
H74	H	0.705324	0.426056	0.121471
H75	H	0.699586	0.548306	0.186957
H76	H	0.652287	0.424577	0.186982
H77	H	0.839780	-0.051375	0.571273
C78	C	0.697732	0.441650	0.339524
H79	H	0.666130	0.506525	0.304786
H80	H	0.719161	0.508062	0.370255
H81	H	0.671890	0.384276	0.370275
C82	C	0.773723	0.518697	0.582524
H83	H	0.763660	0.605429	0.547771
H84	H	0.812951	0.527343	0.613239
H85	H	0.733095	0.522165	0.613288
C86	C	0.920560	-0.015987	0.660051
H87	H	0.952148	-0.080898	0.694790
H88	H	0.946412	0.041339	0.629293
H89	H	0.899110	-0.082385	0.629327
H90	H	0.221196	0.413096	0.079355
H91	H	0.905411	0.015146	0.814275
C92	C	0.697782	0.441704	0.825615
H93	H	0.705384	0.426110	0.878185
H94	H	0.652338	0.424617	0.812726
H95	H	0.699637	0.548347	0.812692
C96	C	0.773704	0.518688	0.417046
H97	H	0.776109	0.497827	0.364473
H98	H	0.806695	0.581119	0.429936
H99	H	0.726839	0.575938	0.429984
C100	C	0.574424	0.528877	-0.000150
H101	H	0.532970	0.614556	-0.000149
H102	H	0.601995	0.535902	-0.043796
H103	H	0.601940	0.535877	0.043521
C104	C	0.422559	0.523739	-0.000196
H105	H	0.444890	0.611582	-0.000199
H106	H	0.393650	0.528855	0.043449
H107	H	0.393713	0.528818	-0.043868
C108	C	0.697780	0.441707	0.660138
H109	H	0.705371	0.426093	0.607562
H110	H	0.699639	0.548340	0.673048
H111	H	0.652334	0.424624	0.673074
C112	C	0.410954	-0.018926	-0.092332
H113	H	0.386397	-0.086451	-0.118472
H114	H	0.446264	-0.082524	-0.060715
H115	H	0.433088	0.037320	-0.127592
H116	H	0.352397	0.417538	0.079378
C117	C	0.043881	-0.103196	-0.000275
H118	H	0.085334	-0.188876	-0.000264
H119	H	0.016358	-0.110207	-0.043935
H120	H	0.016316	-0.110205	0.043383
C121	C	0.195738	-0.098050	-0.000253
H122	H	0.173405	-0.185889	-0.000269
H123	H	0.224595	-0.103162	0.043407
H124	H	0.224637	-0.103142	-0.043910
C125	C	0.259089	-0.024062	-0.092355
H126	H	0.209074	-0.009699	-0.086092
H127	H	0.282581	-0.129420	-0.076934
H128	H	0.269423	-0.009601	-0.143821
C129	C	0.641845	-0.082977	-0.000157
H130	H	0.619513	-0.170817	-0.000171
H131	H	0.670705	-0.088087	0.043501
H132	H	0.670742	-0.088067	-0.043816
