data_functionalizedCrystal
_audit_creation_method	'MofGen! by Chris Wilmer'
_symmetry_space_group_name_H-M	'P1'
_symmetry_Int_Tables_number	1
_symmetry_cell_setting	triclinic
loop_
_symmetry_equiv_pos_as_xyz
  x,y,z
_cell_length_a	21.295420
_cell_length_b	21.295417
_cell_length_c	21.295411
_cell_angle_alpha	89.978356
_cell_angle_beta	89.975307
_cell_angle_gamma	90.028757
loop_
_atom_site_label
_atom_site_type_symbol
_atom_site_fract_x
_atom_site_fract_y
_atom_site_fract_z
Zn1	Zn	0.962355	-0.250710	-0.355914
Zn2	Zn	1.462355	0.249290	0.144086
Zn3	Zn	0.962258	-0.355962	-0.250639
Zn4	Zn	1.462258	0.144038	0.249361
Zn5	Zn	0.857079	-0.250708	-0.250658
Zn6	Zn	1.357079	0.249292	0.249342
Zn7	Zn	0.857048	-0.355942	-0.355870
Zn8	Zn	1.357048	0.144058	0.144130
O9	O	0.909685	-0.303331	-0.303270
O10	O	1.409685	0.196669	0.196730
O11	O	1.050432	-0.264682	-0.341959
O12	O	1.550432	0.235318	0.158041
O13	O	0.948277	-0.342007	-0.162552
O14	O	1.448277	0.157993	0.337448
O15	O	0.871097	-0.162619	-0.264647
O16	O	1.371097	0.337381	0.235353
O17	O	1.050360	-0.342010	-0.264614
O18	O	1.550360	0.157990	0.235386
O19	O	0.948444	-0.162621	-0.341977
O20	O	1.448444	0.337379	0.158023
O21	O	0.871003	-0.264677	-0.162566
O22	O	1.371003	0.235323	0.337434
O23	O	0.768985	-0.264658	-0.264605
O24	O	1.268985	0.235342	0.235395
O25	O	0.871045	-0.341976	-0.443966
O26	O	1.371045	0.158024	0.056034
O27	O	0.768963	-0.341973	-0.341904
O28	O	1.268963	0.158027	0.158096
O29	O	0.948414	-0.264662	-0.443997
O30	O	1.448414	0.235338	0.056003
O31	O	0.948248	-0.444049	-0.264572
O32	O	1.448248	0.055951	0.235428
O33	O	0.870951	-0.444034	-0.341885
O34	O	1.370951	0.055966	0.158115
C35	C	0.746133	-0.303314	-0.303252
C36	C	1.246133	0.196686	0.196748
C37	C	0.676165	-0.303321	-0.303260
C38	C	1.176165	0.196679	0.196740
C39	C	0.909602	-0.466882	-0.303236
C40	C	1.409602	0.033118	0.196764
C41	C	0.909625	-0.536850	-0.303242
C42	C	1.409625	-0.036850	0.196758
C43	C	0.176712	-0.343663	-0.343481
C44	C	0.676712	0.156337	0.156519
C45	C	0.242454	-0.343663	-0.343474
C46	C	0.742454	0.156337	0.156526
C47	C	0.275326	-0.303345	-0.303290
C48	C	0.775326	0.196655	0.196710
C49	C	0.242449	-0.263035	-0.263098
C50	C	0.742449	0.236965	0.236902
C51	C	0.176708	-0.263040	-0.263102
C52	C	0.676708	0.236960	0.236898
N53	N	0.378566	-0.248227	-0.298558
N54	N	0.878566	0.251773	0.201442
N55	N	0.441018	-0.248224	-0.298558
N56	N	0.941018	0.251776	0.201442
C57	C	0.473400	-0.303327	-0.303277
C58	C	0.973400	0.196673	0.196723
N59	N	0.440972	-0.358435	-0.308007
N60	N	0.940972	0.141565	0.191993
N61	N	0.378515	-0.358438	-0.308010
N62	N	0.878515	0.141562	0.191990
C63	C	0.346611	-0.303335	-0.303282
C64	C	0.846611	0.196665	0.196718
C65	C	0.577555	-0.343638	-0.343456
C66	C	1.077555	0.156362	0.156544
C67	C	0.643298	-0.343639	-0.343445
C68	C	1.143298	0.156361	0.156555
C69	C	0.643292	-0.263005	-0.263072
C70	C	1.143292	0.236995	0.236928
C71	C	0.577549	-0.263010	-0.263080
C72	C	1.077549	0.236990	0.236920
C73	C	0.544685	-0.303325	-0.303275
C74	C	1.044685	0.196675	0.196725
C75	C	0.949909	-0.569704	-0.263026
C76	C	1.449909	-0.069704	0.236974
C77	C	0.949939	-0.635446	-0.263040
C78	C	1.449939	-0.135446	0.236960
C79	C	0.909672	-0.668333	-0.303263
C80	C	1.409672	-0.168333	0.196737
C81	C	0.869385	-0.635472	-0.343487
C82	C	1.369385	-0.135472	0.156513
C83	C	0.869361	-0.569730	-0.343476
C84	C	1.369361	-0.069730	0.156524
N85	N	0.854605	-0.771598	-0.308056
N86	N	1.354605	-0.271598	0.191944
N87	N	0.854630	-0.834049	-0.308063
N88	N	1.354630	-0.334049	0.191937
C89	C	0.909743	-0.866407	-0.303299
C90	C	1.409743	-0.366407	0.196701
N91	N	0.964832	-0.833955	-0.298517
N92	N	1.464832	-0.333955	0.201483
N93	N	0.964807	-0.771498	-0.298507
N94	N	1.464807	-0.271498	0.201493
C95	C	0.909694	-0.739618	-0.303280
C96	C	1.409694	-0.239618	0.196720
C97	C	0.950063	-0.970546	-0.263097
C98	C	1.450063	-0.470546	0.236903
C99	C	0.950093	-1.036290	-0.263116
C100	C	1.450093	-0.536290	0.236884
C101	C	0.869534	-1.036314	-0.343559
C102	C	1.369534	-0.536314	0.156441
C103	C	0.869509	-0.970572	-0.343544
C104	C	1.369509	-0.470572	0.156456
C105	C	0.909773	-0.937692	-0.303309
C106	C	1.409773	-0.437692	0.196691
C107	C	1.073875	-0.303348	-0.303289
C108	C	1.573875	0.196652	0.196711
C109	C	1.143843	-0.303356	-0.303297
C110	C	1.643843	0.196644	0.196703
C111	C	0.909737	-0.303317	-0.467461
C112	C	1.409737	0.196683	0.032539
C113	C	0.909759	-0.303312	-0.537429
C114	C	1.409759	0.196688	-0.037429
C115	C	0.909785	-0.139140	-0.303319
C116	C	1.409785	0.360860	0.196681
C117	C	0.909827	-0.069172	-0.303340
C118	C	1.409827	0.430828	0.196660
C119	C	0.950044	-0.263053	-0.570313
C120	C	1.450044	0.236947	-0.070313
C121	C	0.950043	-0.263025	-0.636056
C122	C	1.450043	0.236975	-0.136056
C123	C	0.909764	-0.303268	-0.668911
C124	C	1.409764	0.196732	-0.168911
C125	C	0.869472	-0.343530	-0.636019
C126	C	1.369472	0.156470	-0.136019
C127	C	0.869470	-0.343552	-0.570278
C128	C	1.369470	0.156448	-0.070278
N129	N	0.904908	-0.358336	-0.772127
N130	N	1.404908	0.141664	-0.272127
N131	N	0.904914	-0.358314	-0.834578
N132	N	1.404914	0.141686	-0.334578
C133	C	0.909768	-0.303204	-0.866986
C134	C	1.409768	0.196796	-0.366986
N135	N	0.914629	-0.248117	-0.834584
N136	N	1.414629	0.251883	-0.334584
N137	N	0.914626	-0.248141	-0.772126
N138	N	1.414626	0.251859	-0.272126
C139	C	0.909762	-0.303249	-0.740197
C140	C	1.409762	0.196751	-0.240197
C141	C	0.950054	-0.262913	-0.971156
C142	C	1.450054	0.237087	-0.471156
C143	C	0.950048	-0.262884	-1.036900
C144	C	1.450048	0.237116	-0.536900
C145	C	0.869481	-0.343395	-1.036862
C146	C	1.369481	0.156605	-0.536862
C147	C	0.869483	-0.343417	-0.971120
C148	C	1.369483	0.156583	-0.471120
C149	C	0.909773	-0.303177	-0.938271
C150	C	1.409773	0.196823	-0.438271
C151	C	0.909669	-0.303298	-0.139719
C152	C	1.409669	0.196702	0.360281
C153	C	0.909769	-0.303127	-0.069751
C154	C	1.409769	0.196873	0.430249
H155	H	0.269221	-0.376486	-0.376199
H156	H	0.769221	0.123514	0.123801
N157	N	0.826033	-0.386849	-0.935659
N158	N	1.326033	0.113151	-0.435659
H159	H	0.851591	-0.416036	-0.908391
H160	H	1.351591	0.083964	-0.408391
H161	H	0.796880	-0.361231	-0.908411
H162	H	1.296880	0.138769	-0.408411
H163	H	0.982745	-0.662201	-0.230292
H164	H	1.482745	-0.162201	0.269708
N165	N	0.542109	-0.387128	-0.386801
N166	N	1.042109	0.112872	0.113199
H167	H	0.514806	-0.416264	-0.361168
H168	H	1.014806	0.083736	0.138832
H169	H	0.514896	-0.361548	-0.416017
H170	H	1.014896	0.138452	0.083983
H171	H	0.269217	-0.230208	-0.230379
H172	H	0.769217	0.269792	0.269621
H173	H	0.836679	-0.376155	-1.063613
H174	H	1.336679	0.123845	-0.563613
N175	N	0.141252	-0.219565	-0.219758
N176	N	0.641252	0.280435	0.280242
H177	H	0.172049	-0.194024	-0.194297
H178	H	0.672049	0.305976	0.305703
H179	H	0.114001	-0.190471	-0.245436
H180	H	0.614001	0.309529	0.254564
N181	N	0.993501	-0.219607	-0.671532
N182	N	1.493501	0.280393	-0.171532
H183	H	0.987389	-0.225702	-0.718163
H184	H	1.487389	0.274298	-0.218163
H185	H	0.983738	-0.174650	-0.660043
H186	H	1.483738	0.325350	-0.160043
H187	H	0.836663	-0.376335	-0.543504
H188	H	1.336663	0.123665	-0.043504
H189	H	0.982695	-0.542935	-0.230266
H190	H	1.482695	-0.042935	0.269734
N191	N	0.825904	-0.534289	-0.386845
N192	N	1.325904	-0.034289	0.113155
H193	H	0.851459	-0.506972	-0.416035
H194	H	1.351459	-0.006972	0.083965
H195	H	0.800407	-0.565134	-0.412289
H196	H	1.300407	-0.065134	0.087711
N197	N	0.542099	-0.219525	-0.219743
N198	N	1.042099	0.280475	0.280257
H199	H	0.514848	-0.190393	-0.245380
H200	H	1.014848	0.309607	0.254620
H201	H	0.514834	-0.245110	-0.190533
H202	H	1.014834	0.254890	0.309467
N203	N	0.678753	-0.387121	-0.386783
N204	N	1.178753	0.112879	0.113217
H205	H	0.647955	-0.412659	-0.412245
H206	H	1.147955	0.087341	0.087755
H207	H	0.706058	-0.361537	-0.415956
H208	H	1.206058	0.138463	0.084044
N209	N	0.993504	-0.219512	-0.935720
N210	N	1.493504	0.280488	-0.435720
H211	H	1.019021	-0.193999	-0.966531
H212	H	1.519021	0.306001	-0.466531
H213	H	0.967898	-0.190388	-0.908432
H214	H	1.467898	0.309612	-0.408432
N215	N	0.825956	-0.670937	-0.386873
N216	N	1.325956	-0.170937	0.113127
H217	H	0.832082	-0.717570	-0.380776
H218	H	1.332082	-0.217570	0.119224
H219	H	0.781000	-0.659489	-0.377033
H220	H	1.281000	-0.159489	0.122967
N221	N	0.678736	-0.219523	-0.219724
N222	N	1.178736	0.280477	0.280276
H223	H	0.725371	-0.225636	-0.225818
H224	H	1.225371	0.274364	0.274182
H225	H	0.667270	-0.174580	-0.229602
H226	H	1.167270	0.325420	0.270398
N227	N	0.993488	-0.935077	-0.219706
N228	N	1.493488	-0.435077	0.280294
H229	H	1.019017	-0.965868	-0.194234
H230	H	1.519017	-0.465868	0.305766
H231	H	1.022595	-0.907758	-0.245350
H232	H	1.522595	-0.407758	0.254650
H233	H	0.982902	-1.063038	-0.230368
H234	H	1.482902	-0.563038	0.269632
H235	H	0.836703	-0.943821	-0.376289
H236	H	1.336703	-0.443821	0.123711
H237	H	0.982850	-0.230285	-0.543571
H238	H	1.482850	0.269715	-0.043571
N239	N	0.826108	-1.071775	-0.386949
N240	N	1.326108	-0.571775	0.113051
H241	H	0.832237	-1.118408	-0.380856
H242	H	1.332237	-0.618408	0.119144
H243	H	0.781150	-1.060330	-0.377109
H244	H	1.281150	-0.560330	0.122891
H245	H	0.836675	-0.376294	-0.662775
H246	H	1.336675	0.123706	-0.162775
N247	N	0.993503	-0.219455	-1.072361
N248	N	1.493503	0.280545	-0.572361
H249	H	1.022658	-0.245030	-1.099651
H250	H	1.522658	0.254970	-0.599651
H251	H	0.967899	-0.190273	-1.099589
H252	H	1.467899	0.309727	-0.599589
N253	N	0.141265	-0.387154	-0.386822
N254	N	0.641265	0.112846	0.113178
H255	H	0.172067	-0.412693	-0.412274
H256	H	0.672067	0.087307	0.087726
H257	H	0.113970	-0.416250	-0.361138
H258	H	0.613970	0.083750	0.138862
