data_functionalizedCrystal
_audit_creation_method	'MofGen! by Chris Wilmer'
_symmetry_space_group_name_H-M	'P1'
_symmetry_Int_Tables_number	1
_symmetry_cell_setting	triclinic
loop_
_symmetry_equiv_pos_as_xyz
  x,y,z
_cell_length_a	18.266242
_cell_length_b	10.540539
_cell_length_c	10.540539
_cell_angle_alpha	84.525492
_cell_angle_beta	90.004163
_cell_angle_gamma	90.006962
loop_
_atom_site_label
_atom_site_type_symbol
_atom_site_fract_x
_atom_site_fract_y
_atom_site_fract_z
O1	O	-0.060843	-1.685895	-0.178903
O2	O	0.439157	-1.185895	0.321097
O3	O	-0.060851	-1.316482	-0.195758
O4	O	0.439149	-0.816482	0.304242
O5	O	-0.060846	-1.509617	-0.002624
O6	O	0.439154	-1.009617	0.497376
O7	O	-0.060848	-1.492761	-0.372037
O8	O	0.439152	-0.992761	0.127963
O9	O	0.060916	-1.509584	-0.002614
O10	O	0.560916	-1.009584	0.497386
O11	O	0.060911	-1.316449	-0.195748
O12	O	0.560911	-0.816449	0.304252
O13	O	0.060919	-1.685862	-0.178892
O14	O	0.560919	-1.185862	0.321108
Zn15	Zn	0.080247	-1.501150	-0.187318
Zn16	Zn	0.580247	-1.001150	0.312682
Zn17	Zn	-0.080179	-1.501194	-0.187332
Zn18	Zn	0.419821	-1.001194	0.312668
O19	O	0.060914	-1.492728	-0.372027
O20	O	0.560914	-0.992728	0.127973
C21	C	0.000028	-1.269163	-0.194489
C22	C	0.500028	-0.769163	0.305511
C23	C	0.000025	-1.128215	-0.190707
C24	C	0.500025	-0.628215	0.309293
N25	N	0.189734	-1.501130	-0.187308
N26	N	0.689734	-1.001130	0.312692
N27	N	-0.189666	-1.501225	-0.187332
N28	N	0.310334	-1.001225	0.312668
C29	C	0.228046	-1.586679	-0.101831
C30	C	0.728046	-1.086679	0.398169
C31	C	0.304690	-1.586687	-0.101825
C32	C	0.804690	-1.086687	0.398175
C33	C	0.343021	-1.501158	-0.187319
C34	C	0.843021	-1.001158	0.312681
C35	C	0.304701	-1.415593	-0.272803
C36	C	0.804701	-0.915593	0.227197
C37	C	0.228057	-1.415579	-0.272797
C38	C	0.728057	-0.915579	0.227203
N39	N	0.463353	-1.486018	-0.299501
N40	N	0.963353	-0.986018	0.200499
N41	N	0.536161	-1.486040	-0.299502
N42	N	1.036161	-0.986040	0.200498
C43	C	0.573944	-1.501194	-0.187338
C44	C	1.073944	-1.001194	0.312662
N45	N	0.536168	-1.516352	-0.075169
N46	N	1.036168	-1.016352	0.424831
N47	N	0.463353	-1.516337	-0.075169
N48	N	0.963353	-1.016337	0.424831
C49	C	0.426128	-1.501164	-0.187333
C50	C	0.926128	-1.001164	0.312667
C51	C	0.695362	-1.586756	-0.101847
C52	C	1.195362	-1.086756	0.398153
C53	C	0.772008	-1.586755	-0.101839
C54	C	1.272008	-1.086755	0.398161
C55	C	0.772017	-1.415668	-0.272828
C56	C	1.272017	-0.915668	0.227172
C57	C	0.695372	-1.415663	-0.272824
C58	C	1.195372	-0.915663	0.227176
C59	C	0.657049	-1.501214	-0.187335
C60	C	1.157049	-1.001214	0.312665
C61	C	0.000034	-1.508336	0.044684
C62	C	0.500034	-1.008336	0.544684
C63	C	0.000030	-1.504554	0.185632
C64	C	0.500030	-1.004554	0.685632
C65	C	0.000038	-1.733182	-0.180161
C66	C	0.500038	-1.233182	0.319839
C67	C	0.000036	-1.874130	-0.183943
C68	C	0.500036	-1.374130	0.316057
C69	C	0.000310	-0.944788	-0.045790
C70	C	0.500310	-0.444788	0.454210
C71	C	0.000028	-1.091406	-0.049624
C72	C	0.500028	-0.591406	0.450376
C73	C	-0.069505	-1.066561	-0.258608
C74	C	0.430495	-0.566561	0.241392
C75	C	-0.069555	-0.920017	-0.253793
C76	C	0.430445	-0.420017	0.246207
C77	C	0.068911	-0.919490	-0.256652
C78	C	0.568911	-0.419490	0.243348
C79	C	0.069822	-1.066472	-0.257951
C80	C	0.569822	-0.566472	0.242049
C81	C	0.000033	-1.494008	-0.419335
C82	C	0.500033	-0.994008	0.080665
C83	C	0.000032	-1.497790	-0.560283
C84	C	0.500032	-0.997790	-0.060283
C85	C	-0.000247	-1.359637	0.369059
C86	C	0.499753	-0.859637	0.869059
C87	C	0.000027	-1.363471	0.222441
C88	C	0.500027	-0.863471	0.722441
C89	C	0.069563	-1.572431	0.247296
C90	C	0.569563	-1.072431	0.747296
C91	C	0.069622	-1.567616	0.393840
C92	C	0.569622	-1.067616	0.893840
C93	C	-0.068844	-1.570523	0.394347
C94	C	0.431156	-1.070523	0.894347
C95	C	-0.069764	-1.571823	0.247365
C96	C	0.430236	-1.071823	0.747365
H97	H	0.196845	-1.656336	-0.032218
H98	H	0.696845	-1.156336	0.467782
H99	H	0.335889	-1.656353	-0.032217
H100	H	0.835889	-1.156353	0.467783
H101	H	-0.050111	-1.303920	0.397655
H102	H	0.449889	-0.803920	0.897655
H103	H	0.335913	-1.345953	-0.342411
H104	H	0.835913	-0.845953	0.157589
H105	H	-0.072712	-0.872048	-0.355259
H106	H	0.427288	-0.372048	0.144741
H107	H	0.664177	-1.346006	-0.342433
H108	H	1.164177	-0.846006	0.157567
H109	H	0.196863	-1.345914	-0.342404
H110	H	0.696863	-0.845914	0.157596
H111	H	0.049952	-1.309659	0.180689
H112	H	0.549952	-0.809659	0.680689
H113	H	-0.072092	-1.088915	-0.362216
H114	H	0.427908	-0.588915	0.137784
H115	H	-0.073960	-1.674684	0.223143
H116	H	0.426040	-1.174684	0.723143
H117	H	-0.121250	-1.109164	-0.211448
H118	H	0.378750	-0.609164	0.288552
H119	H	-0.049817	-1.310061	0.179833
H120	H	0.450183	-0.810061	0.679833
H121	H	0.803202	-1.656415	-0.032226
H122	H	1.303202	-1.156415	0.467774
H123	H	0.049870	-1.134006	0.003803
H124	H	0.549870	-0.634006	0.503803
H125	H	0.069380	-0.872263	-0.358555
H126	H	0.569380	-0.372263	0.141445
H127	H	0.803225	-1.346025	-0.342433
H128	H	1.303225	-0.846025	0.157567
H129	H	0.050174	-0.916189	0.009950
H130	H	0.550174	-0.416189	0.509950
H131	H	0.121260	-1.107420	-0.208347
H132	H	0.621260	-0.607420	0.291653
H133	H	0.664158	-1.656413	-0.032233
H134	H	1.164158	-1.156413	0.467767
H135	H	-0.049275	-0.914594	0.009706
H136	H	0.450725	-0.414594	0.509706
H137	H	-0.049899	-1.133165	0.004171
H138	H	0.450101	-0.633165	0.504171
H139	H	0.049335	-1.304119	0.399271
H140	H	0.549335	-0.804119	0.899271
H141	H	-0.069309	-1.672427	0.441573
H142	H	0.430691	-1.172427	0.941573
H143	H	0.121614	-0.887930	-0.210989
H144	H	0.621614	-0.387930	0.289011
H145	H	-0.121529	-0.891820	-0.203617
H146	H	0.378471	-0.391820	0.296383
H147	H	0.074020	-1.090697	-0.360810
H148	H	0.574020	-0.590697	0.139190
H149	H	0.121597	-1.517424	0.422044
H150	H	0.621597	-1.017424	0.922044
H151	H	0.072779	-1.669080	0.441809
H152	H	0.572779	-1.169080	0.941809
H153	H	0.072151	-1.676038	0.224942
H154	H	0.572151	-1.176038	0.724942
H155	H	0.121306	-1.525253	0.204701
H156	H	0.621306	-1.025253	0.704701
H157	H	-0.121546	-1.524876	0.425895
H158	H	0.378454	-1.024876	0.925895
H159	H	-0.121203	-1.522158	0.206502
H160	H	0.378797	-1.022158	0.706502
