data_functionalizedCrystal
_audit_creation_method	'MofGen! by Chris Wilmer'
_symmetry_space_group_name_H-M	'P1'
_symmetry_Int_Tables_number	1
_symmetry_cell_setting	triclinic
loop_
_symmetry_equiv_pos_as_xyz
  x,y,z
_cell_length_a	12.837943
_cell_length_b	9.065218
_cell_length_c	7.540329
_cell_angle_alpha	90.001757
_cell_angle_beta	90.001870
_cell_angle_gamma	89.922413
loop_
_atom_site_label
_atom_site_type_symbol
_atom_site_fract_x
_atom_site_fract_y
_atom_site_fract_z
O1	O	-1.379057	-0.384029	-0.147437
O2	O	-1.077074	-0.365058	-0.147448
O3	O	-1.234307	-0.160660	-0.147439
O4	O	-1.221824	-0.588427	-0.147446
O5	O	-1.234298	-0.160656	0.147526
O6	O	-1.077064	-0.365054	0.147517
O7	O	-1.379048	-0.384024	0.147528
Cu8	Cu	-1.228055	-0.374539	0.174455
Cu9	Cu	-1.228066	-0.374544	-0.174375
O10	O	-1.221814	-0.588423	0.147519
C11	C	-1.038388	-0.358647	0.000033
C12	C	-0.923132	-0.339534	0.000029
C13	C	-1.233103	-0.105525	0.000041
C14	C	-1.229515	0.058754	0.000032
C15	C	-1.417733	-0.390435	0.000043
C16	C	-1.532990	-0.409548	0.000036
C17	C	-0.684331	-0.569311	0.000050
C18	C	-0.576036	-0.551359	0.000047
C19	C	-0.598246	-0.285680	0.000033
C20	C	-0.706541	-0.303632	0.000036
C21	C	-0.749579	-0.445452	0.000042
C22	C	-0.857875	-0.463402	0.000032
C23	C	-0.880083	-0.197725	0.000030
C24	C	-0.771789	-0.179773	0.000027
C25	C	-1.223019	-0.643557	0.000035
C26	C	-1.226606	-0.807836	0.000032
N27	N	-1.228055	-0.374536	0.419804
N28	N	-1.228075	-0.374536	-0.419724
H29	H	-0.892914	-0.578879	0.000039
C30	C	-0.583817	-0.053708	-0.151600
C31	C	-0.550924	-0.129803	0.000033
H32	H	-0.554604	0.042527	-0.151591
H33	H	-0.561504	-0.105353	-0.254437
H34	H	-0.657651	-0.046669	-0.151587
H35	H	-0.477089	-0.136851	0.000014
H36	H	-0.573230	-0.078144	0.102897
C37	C	-0.793237	-0.743625	-0.151587
C38	C	-0.731646	-0.725193	0.000044
H39	H	-0.822440	-0.839866	-0.151592
H40	H	-0.847590	-0.672436	-0.151568
H41	H	-0.751443	-0.731099	-0.254436
H42	H	-0.773441	-0.737708	0.102894
H43	H	-0.677285	-0.796403	0.000042
C44	C	-0.441370	-0.685301	-0.151584
C45	C	-0.504311	-0.687506	0.000046
H46	H	-0.397086	-0.769353	-0.151573
H47	H	-0.484082	-0.686795	-0.254422
H48	H	-0.400241	-0.598268	-0.151569
H49	H	-0.545446	-0.774534	0.000026
H50	H	-0.461594	-0.686026	0.102912
C51	C	-0.757371	0.052222	0.151635
C52	C	-0.724476	-0.023890	0.000015
H53	H	-0.728158	0.148456	0.151623
H54	H	-0.831196	0.059254	0.151619
H55	H	-0.735051	0.000583	0.254491
H56	H	-0.746802	0.027744	-0.102843
H57	H	-0.650634	-0.030915	0.000014
C58	C	-1.055951	-0.107265	0.000017
C59	C	-0.951808	-0.061566	0.000019
H60	H	-1.100228	-0.023207	0.000013
H61	H	-1.069129	-0.164786	-0.102833
H62	H	-1.069128	-0.164776	0.102890
H63	H	-0.938629	-0.004064	-0.102862
H64	H	-0.938625	-0.004020	0.102879
