data_functionalizedCrystal
_audit_creation_method	'MofGen! by Chris Wilmer'
_symmetry_space_group_name_H-M	'P1'
_symmetry_Int_Tables_number	1
_symmetry_cell_setting	triclinic
loop_
_symmetry_equiv_pos_as_xyz
  x,y,z
_cell_length_a	11.804365
_cell_length_b	11.026607
_cell_length_c	11.026607
_cell_angle_alpha	108.586017
_cell_angle_beta	104.484635
_cell_angle_gamma	75.502485
loop_
_atom_site_label
_atom_site_type_symbol
_atom_site_fract_x
_atom_site_fract_y
_atom_site_fract_z
O1	O	0.099024	-1.746857	-0.513518
O2	O	0.099026	-1.380277	-0.452754
O3	O	0.099021	-1.533184	-0.299847
O4	O	0.099029	-1.593949	-0.666425
O5	O	-0.099034	-1.492918	-0.340050
O6	O	-0.099028	-1.340011	-0.492957
O7	O	-0.099030	-1.706591	-0.553721
Cu8	Cu	-0.117113	-1.519624	-0.527010
Cu9	Cu	0.117109	-1.567243	-0.479465
O10	O	-0.099025	-1.553684	-0.706628
C11	C	-0.000001	-1.312485	-0.461646
C12	C	-0.000000	-1.170471	-0.428228
N13	N	-0.281853	-1.486141	-0.560451
C14	C	-0.000005	-1.501842	-0.272288
C15	C	-0.000000	-1.468426	-0.130273
C16	C	-0.655808	-1.681136	-0.365686
C17	C	-0.531147	-1.706464	-0.340382
C18	C	-0.468817	-1.651385	-0.395397
C19	C	-0.531161	-1.570974	-0.475721
C20	C	-0.655834	-1.545652	-0.501036
C21	C	-0.468843	-1.515901	-0.530746
C22	C	-0.531187	-1.435491	-0.611070
C23	C	-0.655847	-1.410172	-0.636380
C24	C	-0.718177	-1.465251	-0.581365
C25	C	-0.344170	-1.541223	-0.505431
C26	C	-0.344196	-1.405740	-0.640780
C27	C	-0.468857	-1.380412	-0.666085
N28	N	0.281849	-1.600735	-0.446016
C29	C	-0.000001	-1.774384	-0.544829
C30	C	0.000006	-1.916399	-0.578244
C31	C	0.000003	-1.116822	-0.520497
C32	C	0.000004	-0.970043	-0.485962
C33	C	0.000003	-1.585027	-0.734186
C34	C	0.000007	-1.618444	-0.876199
C35	C	0.000001	-1.560696	-0.076624
C36	C	0.000005	-1.526161	0.070156
H37	H	-0.367313	-1.672010	-0.374790
H38	H	0.000032	-0.907320	-0.381386
N39	N	0.000018	-1.387646	0.153235
H40	H	0.000022	-1.382610	0.246313
H41	H	-0.073404	-1.328915	0.119524
N42	N	0.000012	-1.329918	-0.047190
H43	H	0.000016	-1.324881	0.045888
H44	H	-0.073410	-1.271186	-0.080901
N45	N	0.000003	-1.087396	-0.289716
H46	H	-0.073417	-1.091179	-0.260738
H47	H	0.000048	-0.994359	-0.284772
H48	H	-0.819686	-1.444626	-0.601963
H49	H	0.000001	-0.979125	-0.682816
N50	N	-0.536103	-1.293684	-0.752715
H51	H	-0.624534	-1.286003	-0.760397
H52	H	-0.514311	-1.332569	-0.841918
N53	N	-0.463912	-1.793184	-0.253753
H54	H	-0.375480	-1.800874	-0.246071
H55	H	-0.485694	-1.882380	-0.292709
H56	H	-0.000007	-1.665257	-0.139359
N57	N	0.000014	-1.199902	-0.659007
H58	H	-0.073403	-1.166269	-0.717794
H59	H	0.000059	-1.292956	-0.663929
N60	N	0.000007	-1.756965	0.040734
H61	H	0.073424	-1.789881	-0.000182
H62	H	-0.073462	-1.759928	-0.029911
N63	N	-0.276922	-1.627933	-0.418796
H64	H	-0.298598	-1.717187	-0.457681
H65	H	-0.298650	-1.588988	-0.329566
H66	H	-0.706608	-1.344710	-0.701796
N67	N	-0.723043	-1.740539	-0.306372
H68	H	-0.774782	-1.669010	-0.249791
H69	H	-0.664568	-1.795331	-0.251708
N70	N	-0.276986	-1.346331	-0.700132
H71	H	-0.188551	-1.374570	-0.671904
H72	H	-0.298792	-1.248279	-0.670039
