data_functionalizedCrystal
_audit_creation_method	'MofGen! by Chris Wilmer'
_symmetry_space_group_name_H-M	'P1'
_symmetry_Int_Tables_number	1
_symmetry_cell_setting	triclinic
loop_
_symmetry_equiv_pos_as_xyz
  x,y,z
_cell_length_a	12.759395
_cell_length_b	16.994747
_cell_length_c	12.759387
_cell_angle_alpha	90.010915
_cell_angle_beta	90.020509
_cell_angle_gamma	90.012594
loop_
_atom_site_label
_atom_site_type_symbol
_atom_site_fract_x
_atom_site_fract_y
_atom_site_fract_z
Zn1	Zn	1.606295	-0.313954	0.594150
Zn2	Zn	1.606197	-0.445880	0.418532
Zn3	Zn	1.430594	-0.313997	0.418487
Zn4	Zn	1.430597	-0.445824	0.594171
O5	O	1.518421	-0.379914	0.506335
O6	O	1.753303	-0.331460	0.570864
O7	O	1.582860	-0.428427	0.271505
O8	O	1.453940	-0.203610	0.441762
O9	O	1.753231	-0.428385	0.441838
O10	O	1.583028	-0.203579	0.570821
O11	O	1.453845	-0.331533	0.271472
O12	O	1.283573	-0.331479	0.441782
O13	O	1.453946	-0.428289	0.741189
O14	O	1.283575	-0.428331	0.570856
O15	O	1.583031	-0.331405	0.741174
O16	O	1.582864	-0.556253	0.441858
O17	O	1.453851	-0.556212	0.570899
C18	C	1.245453	-0.379904	0.506317
C19	C	1.128677	-0.379919	0.506334
C20	C	1.518360	-0.584853	0.506382
C21	C	1.518367	-0.674176	0.506379
Zn22	Zn	1.430624	-0.945084	0.418458
Zn23	Zn	1.606342	-0.945019	0.594104
Zn24	Zn	1.430633	-0.813216	0.594153
Zn25	Zn	1.606216	-0.813135	0.418497
O26	O	1.518454	-0.879113	0.506303
O27	O	1.453982	-1.055456	0.441720
O28	O	1.583090	-0.927542	0.741132
O29	O	1.283611	-0.830769	0.570851
O30	O	1.583082	-1.055409	0.570767
O31	O	1.283604	-0.927652	0.441768
O32	O	1.453998	-0.830707	0.741168
O33	O	1.453876	-0.702824	0.570889
O34	O	1.582867	-0.830631	0.271471
O35	O	1.582876	-0.702764	0.441836
O36	O	1.453860	-0.927573	0.271442
O37	O	1.753347	-0.927463	0.570806
O38	O	1.753254	-0.830569	0.441788
C39	C	1.128718	-0.480934	0.640522
C40	C	1.073878	-0.531448	0.707618
C41	C	0.964156	-0.531458	0.707631
C42	C	0.909272	-0.480946	0.640542
C43	C	0.964112	-0.430432	0.573446
C44	C	1.073836	-0.430430	0.573438
C45	C	0.964071	-0.329414	0.439265
C46	C	1.073793	-0.329407	0.439245
C47	C	0.909187	-0.278903	0.372176
C48	C	0.964027	-0.228392	0.305072
C49	C	1.073755	-0.228385	0.305062
C50	C	1.128633	-0.278893	0.372148
C51	C	1.792454	-0.379924	0.506354
C52	C	1.909231	-0.379928	0.506362
C53	C	1.518500	-0.379836	0.780368
C54	C	1.518534	-0.379803	0.897145
C55	C	1.518487	-0.174173	0.506281
C56	C	1.518520	-0.084851	0.506259
C57	C	1.518402	-0.379934	0.233367
C58	C	1.518572	-0.379744	0.116591
C59	C	1.652959	-0.278925	0.897149
C60	C	1.720186	-0.228474	0.952012
C61	C	1.720212	-0.228445	1.061734
C62	C	1.653001	-0.278871	1.116595
C63	C	1.585773	-0.329322	1.061732
C64	C	1.585757	-0.329347	0.952008
C65	C	1.451345	-0.430195	1.061728
C66	C	1.451323	-0.430229	0.952007
C67	C	1.384134	-0.480622	1.116590
C68	C	1.316910	-0.531078	1.061727
C69	C	1.316888	-0.531105	0.951998
C70	C	1.384096	-0.480681	0.897144
C71	C	1.791421	-0.879002	0.506299
C72	C	1.908198	-0.878978	0.506327
C73	C	1.518348	-0.879100	0.232269
C74	C	1.518303	-0.879095	0.115493
C75	C	1.244420	-0.879227	0.506310
C76	C	1.127644	-0.879275	0.506313
C77	C	1.518484	-0.879171	0.779270
C78	C	1.518235	-0.879327	0.896047
C79	C	1.908241	-0.979950	0.640573
C80	C	1.963123	-1.030421	0.707708
C81	C	2.072845	-1.030395	0.707729
C82	C	2.127687	-0.979894	0.640606
C83	C	2.072804	-0.929424	0.573471
C84	C	1.963080	-0.929454	0.573459
C85	C	2.072761	-0.828457	0.439222
C86	C	1.963040	-0.828477	0.439204
C87	C	2.127603	-0.777956	0.372099
C88	C	2.072721	-0.727481	0.304967
C89	C	1.962993	-0.727508	0.304949
C90	C	1.908157	-0.778007	0.372069
C91	C	1.383977	-0.980048	0.115442
C92	C	1.316799	-1.030521	0.060557
C93	C	1.316761	-1.030513	-0.049165
C94	C	1.383907	-0.980024	-0.104003
C95	C	1.451086	-0.929550	-0.049117
C96	C	1.451118	-0.929566	0.060607
C97	C	1.585405	-0.828595	-0.049067
C98	C	1.585449	-0.828606	0.060654
C99	C	1.652551	-0.778105	-0.103906
C100	C	1.719736	-0.727635	-0.049020
C101	C	1.719772	-0.727646	0.060709
C102	C	1.652628	-0.778132	0.115540
H103	H	1.118576	-0.572572	0.762242
C104	C	1.247759	-0.278798	0.371947
C105	C	1.284045	-0.223763	0.298813
C106	C	1.393778	-0.223661	0.298594
H107	H	1.272742	-0.265195	0.439709
H108	H	1.272602	-0.329667	0.353624
H109	H	1.259213	-0.172904	0.317142
H110	H	1.259092	-0.237353	0.231041
H111	H	1.418621	-0.274530	0.280271
H112	H	1.418750	-0.210059	0.366360
H113	H	1.418412	-0.186326	0.248968
H114	H	1.384155	-0.480592	1.205931
C115	C	1.243788	-1.085369	0.119906
C116	C	1.184931	-1.129554	0.048354
C117	C	1.117652	-1.180078	0.102983
H118	H	1.283896	-1.119791	0.162698
H119	H	1.197949	-1.055241	0.162698
H120	H	1.230763	-1.159679	0.005579
H121	H	1.144801	-1.095152	0.005559
H122	H	1.071813	-1.149950	0.145776
H123	H	1.157768	-1.214495	0.145774
H124	H	1.077703	-1.210058	0.054444
H125	H	2.117530	-1.071494	0.762394
C126	C	1.244003	-1.085357	-0.108904
C127	C	1.303513	-1.135859	-0.171932
C128	C	1.236527	-1.186385	-0.226992
H129	H	1.203990	-1.115506	-0.060662
H130	H	1.198217	-1.055221	-0.151760
H131	H	1.349280	-1.165992	-0.129079
H132	H	1.343524	-1.105732	-0.220193
H133	H	1.190742	-1.156248	-0.269848
H134	H	1.196518	-1.216528	-0.178743
H135	H	1.276894	-1.220651	-0.269770
H136	H	0.919505	-0.572587	0.762272
C137	C	1.792589	-0.672908	-0.108747
C138	C	1.778187	-0.683712	-0.216583
C139	C	1.845292	-0.633318	-0.271639
H140	H	1.777258	-0.619887	-0.090865
H141	H	1.863216	-0.684429	-0.090837
H142	H	1.707575	-0.672185	-0.234485
H143	H	1.793525	-0.736722	-0.234495
H144	H	1.915920	-0.644839	-0.253729
H145	H	1.829956	-0.580301	-0.253750
H146	H	1.835537	-0.640647	-0.344811
C147	C	0.790060	-0.278766	0.372296
C148	C	0.753776	-0.203704	0.399276
C149	C	0.644042	-0.203553	0.399407
H150	H	0.765077	-0.292292	0.304507
H151	H	0.765218	-0.316049	0.421893
H152	H	0.778607	-0.166433	0.349682
H153	H	0.778730	-0.190163	0.467066
H154	H	0.619200	-0.240836	0.449003
H155	H	0.619069	-0.217082	0.331615
H156	H	0.619409	-0.152627	0.417721
C157	C	0.790145	-0.480950	0.640786
C158	C	0.753896	-0.460942	0.740862
C159	C	0.644163	-0.460947	0.741128
H160	H	0.765174	-0.443641	0.591302
H161	H	0.765268	-0.531846	0.622582
H162	H	0.778763	-0.410054	0.759053
H163	H	0.778839	-0.498244	0.790363
H164	H	0.619285	-0.511843	0.722924
H165	H	0.619202	-0.423638	0.691640
H166	H	0.619554	-0.447379	0.809030
C167	C	1.792825	-0.672813	0.120106
C168	C	1.851630	-0.628613	0.048592
C169	C	1.918948	-0.578100	0.103266
H170	H	1.752747	-0.638400	0.162928
H171	H	1.838694	-0.702950	0.162872
H172	H	1.805767	-0.598479	0.005844
H173	H	1.891729	-0.663006	0.005768
H174	H	1.964817	-0.608236	0.146032
H175	H	1.878862	-0.543691	0.146086
H176	H	1.958862	-0.548109	0.054753
H177	H	1.118400	-0.187244	0.250430
C178	C	1.789031	-0.777894	0.371932
C179	C	1.752699	-0.722875	0.298790
C180	C	1.642966	-0.722746	0.298646
H181	H	1.764086	-0.828747	0.353660
H182	H	1.764182	-0.764260	0.439726
H183	H	1.777538	-0.736514	0.231011
H184	H	1.777615	-0.672015	0.317046
H185	H	1.618117	-0.709112	0.366440
H186	H	1.618032	-0.773601	0.280375
H187	H	1.618301	-0.685412	0.249027
H188	H	1.652654	-0.778149	0.204882
H189	H	1.774906	-0.187416	0.907332
H190	H	1.383861	-0.980014	-0.193345
C191	C	1.653057	-0.278816	0.778022
C192	C	1.726287	-0.223849	0.741720
C193	C	1.726399	-0.223719	0.631986
H194	H	1.671231	-0.329682	0.753087
H195	H	1.585280	-0.265134	0.753145
H196	H	1.794049	-0.237535	0.766587
H197	H	1.708130	-0.172976	0.766627
H198	H	1.658622	-0.210037	0.607109
H199	H	1.744571	-0.274587	0.607061
H200	H	1.776077	-0.186420	0.607341
C201	C	1.383833	-0.980152	0.234569
C202	C	1.310641	-1.035158	0.270847
C203	C	1.310469	-1.035270	0.380580
H204	H	1.451588	-0.993789	0.259512
H205	H	1.365591	-0.929277	0.259456
H206	H	1.328890	-1.086022	0.245970
H207	H	1.242876	-1.021533	0.245933
H208	H	1.292227	-0.984395	0.405467
H209	H	1.378228	-1.048906	0.405513
H210	H	1.260803	-1.072585	0.405208
H211	H	1.774947	-0.187358	1.106403
C212	C	2.246730	-0.778008	0.371922
C213	C	2.283020	-0.798084	0.271886
C214	C	2.392753	-0.798146	0.271687
H215	H	2.271676	-0.727135	0.390091
H216	H	2.271605	-0.815320	0.421471
H217	H	2.258155	-0.760773	0.222353
H218	H	2.258102	-0.848957	0.253697
H219	H	2.417629	-0.835458	0.321236
H220	H	2.417689	-0.747271	0.289860
H221	H	2.417390	-0.811774	0.203817
H222	H	0.919332	-0.187266	0.250459
C223	C	1.247845	-0.481024	0.640686
C224	C	1.284172	-0.536060	0.713808
C225	C	1.393906	-0.536161	0.713995
H226	H	1.272751	-0.494627	0.572916
H227	H	1.272735	-0.430155	0.659002
H228	H	1.259293	-0.586918	0.695486
H229	H	1.259295	-0.522470	0.781588
H230	H	1.418795	-0.485291	0.732312
H231	H	1.418801	-0.549762	0.646222
H232	H	1.418568	-0.573496	0.763614
H233	H	1.652511	-0.778098	-0.193247
H234	H	2.217028	-0.979885	0.640621
H235	H	1.653019	-0.278836	1.205936
H236	H	1.262187	-0.572127	1.106403
H237	H	1.262132	-0.572180	0.907336
C238	C	1.789114	-0.980094	0.640706
C239	C	1.752833	-1.035120	0.713854
C240	C	1.643099	-1.035271	0.714013
H241	H	1.764197	-0.929246	0.658982
H242	H	1.764205	-0.993734	0.572916
H243	H	1.777732	-1.021475	0.781630
H244	H	1.777722	-1.085975	0.695596
H245	H	1.618190	-1.048911	0.646223
H246	H	1.618192	-0.984421	0.732287
H247	H	1.618468	-1.072610	0.763636
H248	H	1.384089	-0.480701	0.807803
H249	H	1.918459	-1.071539	0.762356
H250	H	2.117382	-0.686371	0.250316
H251	H	1.918314	-0.686409	0.250278
