data_functionalizedCrystal
_audit_creation_method	'MofGen! by Chris Wilmer'
_symmetry_space_group_name_H-M	'P1'
_symmetry_Int_Tables_number	1
_symmetry_cell_setting	triclinic
loop_
_symmetry_equiv_pos_as_xyz
  x,y,z
_cell_length_a	27.732048
_cell_length_b	27.732048
_cell_length_c	26.809956
_cell_angle_alpha	90.000636
_cell_angle_beta	89.996742
_cell_angle_gamma	97.357345
loop_
_atom_site_label
_atom_site_type_symbol
_atom_site_fract_x
_atom_site_fract_y
_atom_site_fract_z
O1	O	0.640931	-0.057510	-0.041421
O2	O	1.140931	0.442490	0.458579
O3	O	0.500138	-0.066256	-0.041436
O4	O	1.000138	0.433744	0.458564
O5	O	0.574907	0.008514	-0.041419
O6	O	1.074907	0.508514	0.458581
O7	O	0.566162	-0.132280	-0.041439
O8	O	1.066162	0.367720	0.458561
O9	O	0.574893	0.008502	0.041541
O10	O	1.074893	0.508502	0.541541
O11	O	0.500123	-0.066267	0.041523
O12	O	1.000123	0.433733	0.541523
O13	O	0.640917	-0.057522	0.041539
O14	O	1.140917	0.442478	0.541539
Zn15	Zn	0.570518	-0.061896	0.054702
Zn16	Zn	1.070518	0.438104	0.554702
Zn17	Zn	0.570536	-0.061881	-0.054600
Zn18	Zn	1.070536	0.438119	0.445400
O19	O	0.566147	-0.132291	0.041521
O20	O	1.066147	0.367709	0.541521
C21	C	0.482124	-0.066078	0.000041
C22	C	0.982124	0.433922	0.500041
C23	C	0.428469	-0.065525	0.000036
C24	C	0.928469	0.434475	0.500036
C25	C	0.089654	-0.106229	0.000051
C26	C	0.589654	0.393771	0.500051
C27	C	-0.112006	-0.104178	0.000056
C28	C	0.387994	0.395822	0.500056
O29	O	-0.143262	-0.141398	0.000073
O30	O	0.356738	0.358602	0.500073
N31	N	-0.131130	-0.059843	0.000062
N32	N	0.368870	0.440157	0.500062
C33	C	-0.099835	-0.016017	0.000069
C34	C	0.400165	0.483983	0.500069
O35	O	-0.120728	0.021740	0.000079
O36	O	0.379272	0.521740	0.500079
C37	C	0.101824	-0.018068	0.000068
C38	C	0.601824	0.481932	0.500068
C39	C	0.120944	-0.062407	0.000057
C40	C	0.620944	0.437593	0.500057
C41	C	0.108775	-0.150563	0.000042
C42	C	0.608775	0.349437	0.500042
C43	C	0.159187	-0.151076	0.000038
C44	C	0.659187	0.348924	0.500038
C45	C	0.190477	-0.107253	0.000044
C46	C	0.690477	0.392747	0.500044
C47	C	0.171356	-0.062919	0.000054
C48	C	0.671356	0.437081	0.500054
C49	C	0.133117	0.025757	0.000079
C50	C	0.633117	0.525757	0.500079
C51	C	0.183535	0.025240	0.000080
C52	C	0.683535	0.525240	0.500080
C53	C	0.202655	-0.019098	0.000069
C54	C	0.702655	0.480902	0.500069
C55	C	0.253059	-0.019609	0.000056
C56	C	0.753059	0.480391	0.500056
N57	N	0.272183	-0.063944	0.000050
N58	N	0.772183	0.436056	0.500050
C59	C	0.240892	-0.107766	0.000044
C60	C	0.740892	0.392234	0.500044
C61	C	-0.205709	-0.014943	0.000069
C62	C	0.294291	0.485057	0.500069
C63	C	-0.256124	-0.014430	0.000068
C64	C	0.243876	0.485570	0.500068
C65	C	-0.268291	-0.102591	0.000056
C66	C	0.231709	0.397409	0.500056
C67	C	-0.217876	-0.103104	0.000053
C68	C	0.282124	0.396896	0.500053
C69	C	-0.186585	-0.059278	0.000063
C70	C	0.313415	0.440722	0.500063
C71	C	0.346761	-0.108839	0.000036
C72	C	0.846761	0.391161	0.500036
C73	C	0.397178	-0.109347	0.000030
C74	C	0.897178	0.390653	0.500030
C75	C	0.409341	-0.021186	0.000044
C76	C	0.909341	0.478814	0.500044
C77	C	0.358929	-0.020678	0.000048
C78	C	0.858929	0.479322	0.500048
C79	C	0.327639	-0.064508	0.000045
C80	C	0.827639	0.435492	0.500045
O81	O	0.284343	0.017592	0.000045
O82	O	0.784343	0.517592	0.500045
O83	O	0.261794	-0.145518	0.000045
O84	O	0.761794	0.354482	0.500045
C85	C	0.039242	-0.105716	0.000055
C86	C	0.539242	0.394284	0.500055
C87	C	0.020120	-0.061382	0.000065
C88	C	0.520120	0.438618	0.500065
C89	C	0.051411	-0.017560	0.000071
C90	C	0.551411	0.482440	0.500071
C91	C	-0.030294	-0.060869	0.000065
C92	C	0.469706	0.439131	0.500065
C93	C	-0.061585	-0.104691	0.000059
C94	C	0.438415	0.395309	0.500059
C95	C	-0.042461	-0.149026	0.000053
C96	C	0.457539	0.350974	0.500053
C97	C	0.007951	-0.149539	0.000049
C98	C	0.507951	0.350461	0.500049
C99	C	0.032287	0.026775	0.000077
C100	C	0.532287	0.526775	0.500077
C101	C	-0.018125	0.027284	0.000080
C102	C	0.481875	0.527284	0.500080
C103	C	-0.049416	-0.016538	0.000074
C104	C	0.450584	0.483462	0.500074
C105	C	0.574716	0.026515	0.000062
C106	C	1.074716	0.526515	0.500062
C107	C	0.574164	0.080170	0.000066
C108	C	1.074164	0.580170	0.500066
C109	C	0.658931	-0.057699	0.000060
C110	C	1.158931	0.442301	0.500060
C111	C	0.712586	-0.058252	0.000062
C112	C	1.212586	0.441748	0.500062
C113	C	0.566338	-0.150292	0.000039
C114	C	1.066338	0.349708	0.500039
C115	C	0.566891	-0.203947	0.000031
C116	C	1.066891	0.296053	0.500031
N117	N	0.570509	-0.061906	0.129298
N118	N	1.070509	0.438094	0.629298
C119	C	0.614867	0.418985	0.000045
C120	C	1.114867	0.918985	0.500045
C121	C	0.612816	0.620645	0.000038
C122	C	1.112816	1.120645	0.500038
O123	O	0.650037	0.651900	0.000021
O124	O	1.150037	1.151900	0.500021
N125	N	0.568481	0.639768	0.000034
N126	N	1.068481	1.139768	0.500034
C127	C	0.524656	0.608474	0.000028
C128	C	1.024656	1.108474	0.500028
O129	O	0.486899	0.629367	0.000019
O130	O	0.986899	1.129367	0.500019
C131	C	0.526707	0.406815	0.000031
C132	C	1.026707	0.906815	0.500031
C133	C	0.571045	0.387694	0.000041
C134	C	1.071045	0.887694	0.500041
C135	C	0.659202	0.399864	0.000054
C136	C	1.159202	0.899864	0.500054
C137	C	0.659714	0.349452	0.000059
C138	C	1.159714	0.849452	0.500059
C139	C	0.615892	0.318161	0.000054
C140	C	1.115892	0.818161	0.500054
C141	C	0.571557	0.337282	0.000045
C142	C	1.071557	0.837282	0.500045
C143	C	0.482882	0.375521	0.000022
C144	C	0.982882	0.875521	0.500022
C145	C	0.483399	0.325104	0.000021
C146	C	0.983399	0.825104	0.500021
C147	C	0.527737	0.305983	0.000031
C148	C	1.027737	0.805983	0.500031
C149	C	0.528247	0.255580	0.000045
C150	C	1.028247	0.755580	0.500045
N151	N	0.572583	0.236456	0.000050
N152	N	1.072583	0.736456	0.500050
C153	C	0.616405	0.267747	0.000054
C154	C	1.116405	0.767747	0.500054
C155	C	0.523582	0.714348	0.000027
C156	C	1.023582	1.214348	0.500027
C157	C	0.523069	0.764762	0.000027
C158	C	1.023069	1.264762	0.500027
C159	C	0.611230	0.776930	0.000036
C160	C	1.111230	1.276930	0.500036
C161	C	0.611742	0.726514	0.000040
C162	C	1.111742	1.226514	0.500040
C163	C	0.567917	0.695224	0.000031
C164	C	1.067917	1.195224	0.500031
C165	C	0.617477	0.161878	0.000064
C166	C	1.117477	0.661878	0.500064
C167	C	0.617986	0.111461	0.000071
C168	C	1.117986	0.611461	0.500071
C169	C	0.529825	0.099298	0.000059
C170	C	1.029825	0.599298	0.500059
C171	C	0.529316	0.149710	0.000055
C172	C	1.029316	0.649710	0.500055
C173	C	0.573147	0.180999	0.000056
C174	C	1.073147	0.680999	0.500056
O175	O	0.491047	0.224296	0.000057
O176	O	0.991047	0.724296	0.500057
O177	O	0.654156	0.246844	0.000053
O178	O	1.154156	0.746844	0.500053
C179	C	0.614355	0.469397	0.000041
C180	C	1.114355	0.969397	0.500041
C181	C	0.570021	0.488518	0.000032
C182	C	1.070021	0.988518	0.500032
C183	C	0.526198	0.457228	0.000027
C184	C	1.026198	0.957228	0.500027
C185	C	0.569508	0.538933	0.000032
C186	C	1.069508	1.038933	0.500032
C187	C	0.613330	0.570223	0.000036
C188	C	1.113330	1.070223	0.500036
C189	C	0.657665	0.551100	0.000041
C190	C	1.157665	1.051100	0.500041
C191	C	0.658177	0.500688	0.000045
C192	C	1.158177	1.000688	0.500045
C193	C	0.481863	0.476351	0.000023
C194	C	0.981863	0.976351	0.500023
C195	C	0.481355	0.526764	0.000019
C196	C	0.981355	1.026764	0.500019
C197	C	0.525177	0.558054	0.000023
C198	C	1.025177	1.058054	0.500023
N199	N	0.570549	-0.061867	-0.129196
N200	N	1.070549	0.438133	0.370804
C201	C	0.603640	-0.028781	0.473932
C202	C	1.103640	0.471219	0.973932
C203	C	0.603652	-0.028774	0.682810
C204	C	1.103652	0.471226	1.182810
O205	O	0.631801	-0.000613	0.709820
O206	O	1.131801	0.499387	1.209820
N207	N	0.570539	-0.061870	0.708925
N208	N	1.070539	0.438130	1.208925
C209	C	0.537419	-0.094969	0.682818
C210	C	1.037419	0.405031	1.182818
O211	O	0.509252	-0.123116	0.709824
O212	O	1.009252	0.376884	1.209824
C213	C	0.537406	-0.094974	0.473941
C214	C	1.037406	0.405026	0.973941
C215	C	0.570524	-0.061878	0.447829
C216	C	1.070524	0.438122	0.947829
C217	C	0.636755	0.004312	0.447819
C218	C	1.136755	0.504312	0.947819
C219	C	0.636754	0.004308	0.395603
C220	C	1.136754	0.504308	0.895603
C221	C	0.603637	-0.028789	0.369500
C222	C	1.103637	0.471211	0.869500
C223	C	0.570522	-0.061882	0.395612
C224	C	1.070522	0.438118	0.895612
C225	C	0.504284	-0.128070	0.447835
C226	C	1.004284	0.371930	0.947835
C227	C	0.504283	-0.128067	0.395613
C228	C	1.004283	0.371933	0.895613
C229	C	0.537401	-0.094972	0.369500
C230	C	1.037401	0.405028	0.869500
C231	C	0.537405	-0.094983	0.317293
C232	C	1.037405	0.405017	0.817293
N233	N	0.570517	-0.061887	0.291177
N234	N	1.070517	0.438113	0.791177
C235	C	0.603633	-0.028790	0.317281
C236	C	1.103633	0.471210	0.817281
C237	C	0.537429	-0.094965	0.792481
C238	C	1.037429	0.405035	1.292481
C239	C	0.537433	-0.094964	0.844700
C240	C	1.037433	0.405036	1.344700
C241	C	0.603665	-0.028768	0.844689
C242	C	1.103665	0.471232	1.344689
C243	C	0.603663	-0.028772	0.792469
C244	C	1.103663	0.471228	1.292469
C245	C	0.570542	-0.061868	0.766366
C246	C	1.070542	0.438132	1.266366
C247	C	0.603628	-0.028801	0.207623
C248	C	1.103628	0.471199	0.707623
C249	C	0.603625	-0.028809	0.155402
C250	C	1.103625	0.471191	0.655402
C251	C	0.537392	-0.095003	0.155418
C252	C	1.037392	0.404997	0.655418
C253	C	0.537396	-0.094997	0.207635
C254	C	1.037396	0.405003	0.707635
C255	C	0.570516	-0.061892	0.233735
C256	C	1.070516	0.438108	0.733735
O257	O	0.509266	-0.123126	0.290250
O258	O	1.009266	0.376874	0.790250
O259	O	0.631789	-0.000640	0.290266
O260	O	1.131789	0.499360	0.790266
C261	C	0.603642	-0.028777	0.526149
C262	C	1.103642	0.471223	1.026149
C263	C	0.570527	-0.061870	0.552261
C264	C	1.070527	0.438130	1.052261
C265	C	0.537410	-0.094968	0.526158
C266	C	1.037410	0.405032	1.026158
C267	C	0.570531	-0.061870	0.604480
C268	C	1.070531	0.438130	1.104480
C269	C	0.603647	-0.028773	0.630584
C270	C	1.103647	0.471227	1.130584
C271	C	0.636759	0.004324	0.604468
C272	C	1.136759	0.504324	1.104468
C273	C	0.636758	0.004320	0.552252
C274	C	1.136758	0.504320	1.052252
C275	C	0.504298	-0.128064	0.552273
C276	C	1.004298	0.371936	1.052273
C277	C	0.504303	-0.128058	0.604489
C278	C	1.004303	0.371942	1.104489
C279	C	0.537419	-0.094961	0.630593
C280	C	1.037419	0.405039	1.130593
H281	H	-0.293777	-0.138273	0.000051
H282	H	0.206223	0.361727	0.500051
O283	O	-0.199362	-0.146204	-0.000020
O284	O	0.300638	0.353796	0.499980
C285	C	-0.215372	-0.172881	-0.042997
C286	C	0.284628	0.327119	0.457003
H287	H	-0.250241	-0.159967	-0.057321
H288	H	0.249759	0.340033	0.442679
H289	H	-0.222671	-0.213190	-0.033340
H290	H	0.277329	0.286810	0.466660
H291	H	-0.186150	-0.167059	-0.073080
H292	H	0.313850	0.332941	0.426920
O293	O	0.668861	0.036523	0.629854
O294	O	1.168861	0.536523	1.129854
C295	C	0.643193	0.066154	0.660069
C296	C	1.143193	0.566154	1.160069
H297	H	0.605081	0.066706	0.644330
H298	H	1.105081	0.566706	1.144330
H299	H	0.663200	0.104714	0.660666
H300	H	1.163200	0.604714	1.160666
H301	H	0.640542	0.051005	0.699643
H302	H	1.140542	0.551005	1.199643
H303	H	0.510433	-0.121951	0.228896
H304	H	1.010433	0.378049	0.728896
O305	O	0.505241	-0.127104	0.129979
O306	O	1.005241	0.372896	0.629979
C307	C	0.512351	-0.120012	0.078291
C308	C	1.012351	0.379988	0.578291
H309	H	0.530712	-0.081457	0.071162
H310	H	1.030712	0.418543	0.571162
H311	H	0.475706	-0.125635	0.058446
H312	H	0.975706	0.374365	0.558446
H313	H	0.536384	-0.147209	0.063468
H314	H	1.036384	0.352791	0.563468
H315	H	0.083302	-0.186251	0.000038
H316	H	0.583302	0.313749	0.500038
O317	O	0.487302	0.068828	0.000032
O318	O	0.987302	0.568828	0.500032
C319	C	0.497268	0.020233	0.000047
C320	C	0.997268	0.520233	0.500047
H321	H	0.535226	0.018582	-0.015650
H322	H	1.035226	0.518582	0.484350
H323	H	0.469321	-0.002817	-0.024044
H324	H	0.969321	0.497183	0.475956
H325	H	0.495315	0.005638	0.039847
H326	H	0.995315	0.505638	0.539847
H327	H	0.412743	-0.145454	0.000021
H328	H	0.912743	0.354546	0.500021
H329	H	0.663725	0.031269	0.530995
H330	H	1.163725	0.531269	1.030995
O331	O	-0.274614	0.028683	0.000094
O332	O	0.225386	0.528683	0.500094
C333	C	-0.236179	0.067248	0.000088
C334	C	0.263821	0.567248	0.500088
H335	H	-0.202029	0.053953	0.015792
H336	H	0.297971	0.553953	0.515792
H337	H	-0.246487	0.098223	0.024179
H338	H	0.253513	0.598223	0.524179
H339	H	-0.228943	0.080752	-0.039709
H340	H	0.271057	0.580752	0.460291
O341	O	0.472083	-0.160228	0.629775
O342	O	0.972083	0.339772	1.129775
C343	C	0.442863	-0.189446	0.595531
C344	C	0.942863	0.310554	1.095531
H345	H	0.442473	-0.169631	0.558307
H346	H	0.942473	0.330369	1.058307
H347	H	0.404204	-0.197082	0.610617
H348	H	0.904204	0.302918	1.110617
H349	H	0.458284	-0.225250	0.589979
H350	H	0.958284	0.274750	1.089979
H351	H	0.321291	-0.144530	0.000035
H352	H	0.821291	0.355470	0.500035
O353	O	0.472084	-0.160153	0.526897
O354	O	0.972084	0.339847	1.026897
C355	C	0.442460	-0.134482	0.496679
C356	C	0.942460	0.365518	0.996679
H357	H	0.441925	-0.096363	0.512408
H358	H	0.941925	0.403637	1.012408
H359	H	0.403895	-0.154475	0.496094
H360	H	0.903895	0.345525	0.996094
H361	H	0.457605	-0.131850	0.457101
H362	H	0.957605	0.368150	0.957101
O363	O	0.177676	-0.194189	0.000056
O364	O	0.677676	0.305811	0.500056
C365	C	0.139240	-0.232752	0.000040
C366	C	0.639240	0.267248	0.500040
H367	H	0.105088	-0.219458	0.015746
H368	H	0.605088	0.280542	0.515746
H369	H	0.149542	-0.263732	0.024125
H370	H	0.649542	0.236268	0.524125
H371	H	0.132009	-0.246248	-0.039760
H372	H	0.632009	0.253752	0.460240
H373	H	0.646911	0.802415	0.000040
H374	H	1.146911	1.302415	0.500040
H375	H	0.477310	-0.155018	0.374362
H376	H	0.977310	0.344982	0.874362
H377	H	-0.180236	0.020747	0.000077
H378	H	0.319764	0.520747	0.500077
O379	O	0.635724	0.003350	0.129959
O380	O	1.135724	0.503350	0.629959
C381	C	0.628587	-0.003710	0.078271
C382	C	1.128587	0.496290	0.578271
H383	H	0.610310	-0.042291	0.071119
H384	H	1.110310	0.457709	0.571119
H385	H	0.665214	0.002019	0.058392
H386	H	1.165214	0.502019	0.558392
H387	H	0.604468	0.023433	0.063505
H388	H	1.104468	0.523433	0.563505
O389	O	0.340432	0.022434	0.000073
O390	O	0.840432	0.522434	0.500073
C391	C	0.378864	0.061002	0.000060
C392	C	0.878864	0.561002	0.500060
H393	H	0.413017	0.047711	0.015760
H394	H	0.913017	0.547711	0.515760
H395	H	0.368556	0.091977	0.024151
H396	H	0.868556	0.591977	0.524151
H397	H	0.386094	0.074504	-0.039739
H398	H	0.886094	0.574504	0.460261
O399	O	0.654854	0.708023	0.000022
O400	O	1.154854	1.208023	0.500022
C401	C	0.693419	0.746458	0.000040
C402	C	1.193419	1.246458	0.500040
H403	H	0.680129	0.780610	-0.015665
H404	H	1.180129	1.280610	0.484335
H405	H	0.724402	0.736153	-0.024043
H406	H	1.224402	1.236153	0.475957
H407	H	0.706912	0.753689	0.039841
H408	H	1.206912	1.253689	0.539841
H409	H	0.654093	0.095896	0.000080
H410	H	1.154093	0.595896	0.500080
O411	O	0.440794	0.294758	-0.000053
O412	O	0.940794	0.794758	0.499947
C413	C	0.413869	0.303367	-0.043030
C414	C	0.913869	0.803367	0.456970
H415	H	0.426036	0.341700	-0.057355
H416	H	0.926036	0.841700	0.442645
H417	H	0.373524	0.299528	-0.033375
H418	H	0.873524	0.799528	0.466625
H419	H	0.420273	0.275834	-0.073113
H420	H	0.920273	0.775834	0.426887
O421	O	0.635767	0.003432	0.870073
O422	O	1.135767	0.503432	1.370073
C423	C	0.610098	0.033062	0.900290
C424	C	1.110098	0.533062	1.400290
H425	H	0.571984	0.033610	0.884553
H426	H	1.071984	0.533610	1.384553
H427	H	0.630102	0.071622	0.900885
H428	H	1.130102	0.571622	1.400885
H429	H	0.607450	0.017913	0.939864
H430	H	1.107450	0.517913	1.439864
O431	O	0.480029	0.783390	-0.000044
O432	O	0.980029	1.283390	0.499956
C433	C	0.477095	0.812176	-0.043017
C434	C	0.977095	1.312176	0.456983
H435	H	0.515291	0.825017	-0.057335
H436	H	1.015291	1.325017	0.442665
H437	H	0.458071	0.845050	-0.033359
H438	H	0.958071	1.345050	0.466641
H439	H	0.455549	0.789741	-0.073106
H440	H	0.955549	1.289741	0.426894
O441	O	0.114632	0.068870	0.000116
O442	O	0.614632	0.568870	0.500116
C443	C	0.153070	0.107432	0.000113
C444	C	0.653070	0.607432	0.500113
H445	H	0.187219	0.094131	0.015811
H446	H	0.687219	0.594131	0.515811
H447	H	0.142766	0.138404	0.024210
H448	H	0.642766	0.638404	0.524210
H449	H	0.160305	0.120942	-0.039682
H450	H	0.660305	0.620942	0.460318
O451	O	0.472065	-0.160237	0.473115
O452	O	0.972065	0.339763	0.973115
C453	C	0.442846	-0.189450	0.438868
C454	C	0.942846	0.310550	0.938868
H455	H	0.442456	-0.169631	0.401646
H456	H	0.942456	0.330369	0.901646
H457	H	0.404187	-0.197089	0.453953
H458	H	0.904187	0.302911	0.953953
H459	H	0.458268	-0.225254	0.433311
H460	H	0.958268	0.274746	0.933311
O461	O	0.481039	0.683906	0.000088
O462	O	0.981039	1.183906	0.500088
C463	C	0.478682	0.654388	0.043059
C464	C	0.978682	1.154388	0.543059
H465	H	0.517027	0.652113	0.057387
H466	H	1.017027	1.152113	0.557387
H467	H	0.460382	0.616363	0.033395
H468	H	0.960382	1.116363	0.533395
H469	H	0.456730	0.670818	0.073143
H470	H	0.956730	1.170818	0.573143
O471	O	0.439841	0.394143	-0.000059
O472	O	0.939841	0.894143	0.499941
C473	C	0.436909	0.422926	-0.043035
C474	C	0.936909	0.922926	0.456965
H475	H	0.475107	0.435771	-0.057348
H476	H	0.975107	0.935771	0.442652
H477	H	0.417880	0.455797	-0.033382
H478	H	0.917880	0.955797	0.466618
H479	H	0.415370	0.400487	-0.073126
H480	H	0.915370	0.900487	0.426874
H481	H	0.209009	0.060929	0.000089
H482	H	0.709009	0.560929	0.500089
H483	H	0.694282	0.485125	0.000053
H484	H	1.194282	0.985125	0.500053
O485	O	0.439248	0.446028	0.000044
O486	O	0.939248	0.946028	0.500044
C487	C	0.400012	0.473724	0.000026
C488	C	0.900012	0.973724	0.500026
H489	H	0.412573	0.511446	0.015727
H490	H	0.912573	1.011446	0.515727
H491	H	0.369326	0.454909	0.024112
H492	H	0.869326	0.954909	0.524112
H493	H	0.386407	0.477212	-0.039775
H494	H	0.886407	0.977212	0.460225
H495	H	0.023514	-0.185643	0.000042
H496	H	0.523514	0.314357	0.500042
O497	O	-0.072911	-0.191564	-0.000019
O498	O	0.427089	0.308436	0.499981
C499	C	-0.102428	-0.193902	-0.042989
C500	C	0.397572	0.306098	0.457011
H501	H	-0.104690	-0.155552	-0.057309
H502	H	0.395310	0.344448	0.442691
H503	H	-0.140457	-0.212193	-0.033325
H504	H	0.359543	0.287807	0.466675
H505	H	-0.086005	-0.215853	-0.073078
H506	H	0.413995	0.284147	0.426922
H507	H	0.434827	0.014492	0.000047
H508	H	0.934827	0.514492	0.500047
O509	O	0.505200	-0.127069	0.870041
O510	O	1.005200	0.372931	1.370041
C511	C	0.457411	-0.119546	0.857273
C512	C	0.957411	0.380454	1.357273
H513	H	0.457468	-0.080844	0.842921
H514	H	0.957468	0.419156	1.342921
H515	H	0.433110	-0.125274	0.891615
H516	H	0.933110	0.374726	1.391615
H517	H	0.443012	-0.146435	0.826961
H518	H	0.943012	0.353565	1.326961
O519	O	-0.036615	0.070400	0.000111
O520	O	0.463385	0.570400	0.500111
C521	C	0.001820	0.108965	0.000105
C522	C	0.501820	0.608965	0.500105
H523	H	0.035971	0.095669	0.015802
H524	H	0.535971	0.595669	0.515802
H525	H	-0.008486	0.139938	0.024200
H526	H	0.491514	0.639938	0.524200
H527	H	0.009052	0.122473	-0.039692
H528	H	0.509052	0.622473	0.460308
H529	H	0.057760	0.062462	0.000083
H530	H	0.557760	0.562462	0.500083
O531	O	0.660097	0.192199	0.000089
O532	O	1.160097	0.692199	0.500089
C533	C	0.699333	0.164502	0.000086
C534	C	1.199333	0.664502	0.500086
H535	H	0.686766	0.126783	0.015792
H536	H	1.186766	0.626783	0.515792
H537	H	0.730011	0.183320	0.024176
H538	H	1.230011	0.683320	0.524176
H539	H	0.712949	0.161007	-0.039711
H540	H	1.212949	0.661007	0.460289
O541	O	0.702827	0.330962	0.000042
O542	O	1.202827	0.830962	0.500042
C543	C	0.741390	0.369399	0.000057
C544	C	1.241390	0.869399	0.500057
H545	H	0.728098	0.403549	-0.015651
H546	H	1.228098	0.903549	0.484349
H547	H	0.772373	0.359094	-0.024026
H548	H	1.272373	0.859094	0.475974
H549	H	0.754883	0.376634	0.039858
H550	H	1.254883	0.876634	0.539858
O551	O	0.701743	0.430305	0.000126
O552	O	1.201743	0.930305	0.500126
C553	C	0.704085	0.459820	0.043099
C554	C	1.204085	0.959820	0.543099
H555	H	0.665735	0.462097	0.057416
H556	H	1.165735	0.962097	0.557416
H557	H	0.722390	0.497845	0.033440
H558	H	1.222390	0.997845	0.533440
H559	H	0.726025	0.443388	0.073188
H560	H	1.226025	0.943388	0.573188
O561	O	0.486205	0.168206	0.000025
O562	O	0.986205	0.668206	0.500025
C563	C	0.447637	0.129775	0.000037
C564	C	0.947637	0.629775	0.500037
H565	H	0.460930	0.095619	-0.015658
H566	H	0.960930	0.595619	0.484342
H567	H	0.416665	0.140080	-0.024058
H568	H	0.916665	0.640080	0.475942
H569	H	0.434128	0.122549	0.039835
H570	H	0.934128	0.622549	0.539835
O571	O	0.700222	0.581520	-0.000044
O572	O	1.200222	1.081520	0.499956
C573	C	0.702557	0.611050	-0.043006
C574	C	1.202557	1.111050	0.456994
H575	H	0.677703	0.592398	-0.073036
H576	H	1.177703	1.092398	0.426964
H577	H	0.741539	0.617009	-0.057426
H578	H	1.241539	1.117009	0.442574
H579	H	0.690319	0.647622	-0.033296
H580	H	1.190319	1.147622	0.466704
H581	H	0.510457	-0.121917	0.771232
H582	H	1.010457	0.378083	1.271232
O583	O	0.438311	0.545391	-0.000057
O584	O	0.938311	1.045391	0.499943
C585	C	0.435380	0.574172	-0.043034
C586	C	0.935380	1.074172	0.456966
H587	H	0.473578	0.587012	-0.057350
H588	H	0.973578	1.087012	0.442650
H589	H	0.416356	0.607047	-0.033382
H590	H	0.916356	1.107047	0.466618
H591	H	0.413837	0.551734	-0.073123
H592	H	0.913837	1.051734	0.426877
H593	H	0.630597	-0.001843	0.228868
H594	H	1.130597	0.498157	0.728868
O595	O	0.668939	0.036508	0.370318
O596	O	1.168939	0.536508	0.870318
C597	C	0.698172	0.065710	0.404564
C598	C	1.198172	0.565710	0.904564
H599	H	0.678356	0.066113	0.441789
H600	H	1.178356	0.566113	0.941789
H601	H	0.705833	0.104367	0.389482
H602	H	1.205833	0.604367	0.889482
H603	H	0.733962	0.050263	0.410115
H604	H	1.233962	0.550263	0.910115
O605	O	0.668948	0.036398	0.473227
O606	O	1.168948	0.536398	0.973227
C607	C	0.698586	0.010716	0.503416
C608	C	1.198586	0.510716	1.003416
H609	H	0.679049	-0.027240	0.511249
H610	H	1.179049	0.472760	1.011249
H611	H	0.706396	0.030950	0.540132
H612	H	1.206396	0.530950	1.040132
H613	H	0.734279	0.007672	0.483280
H614	H	1.234279	0.507672	0.983280
H615	H	0.630630	-0.001822	0.771211
H616	H	1.130630	0.498178	1.271211
