data_functionalizedCrystal
_audit_creation_method	'MofGen! by Chris Wilmer'
_symmetry_space_group_name_H-M	'P1'
_symmetry_Int_Tables_number	1
_symmetry_cell_setting	triclinic
loop_
_symmetry_equiv_pos_as_xyz
  x,y,z
_cell_length_a	8.597340
_cell_length_b	8.597304
_cell_length_c	7.681481
_cell_angle_alpha	76.508647
_cell_angle_beta	103.474906
_cell_angle_gamma	86.359595
loop_
_atom_site_label
_atom_site_type_symbol
_atom_site_fract_x
_atom_site_fract_y
_atom_site_fract_z
O1	O	2.099841	0.220436	0.138720
O2	O	1.635780	0.245834	0.064457
O3	O	1.880502	0.001095	0.138721
O4	O	1.855119	0.465176	0.064456
O5	O	1.910624	-0.029097	0.440729
O6	O	1.665901	0.215642	0.366466
O7	O	2.129963	0.190245	0.440728
Zn8	Zn	1.902714	0.198150	0.451548
Zn9	Zn	1.863028	0.237929	0.053638
O10	O	1.885240	0.434984	0.366465
C11	C	1.591457	0.229693	0.206610
C12	C	1.414513	0.226558	0.180239
C13	C	1.894515	-0.073387	0.298573
C14	C	1.891375	-0.250337	0.324933
C15	C	2.174285	0.206387	0.298571
C16	C	2.351228	0.209522	0.324931
C17	C	1.871227	0.509466	0.206609
C18	C	1.874366	0.686417	0.180237
N19	N	1.929811	0.171001	0.723112
N20	N	1.835945	0.265065	-0.217923
H21	H	1.333316	0.238745	0.036171
O22	O	1.458767	0.193389	0.515755
H23	H	1.420600	0.293508	0.571357
H24	H	1.903517	-0.331569	0.468997
O25	O	1.858258	-0.206009	-0.010598
H26	H	1.967404	-0.143699	-0.011038
H27	H	1.740126	0.361076	0.677775
H28	H	2.025647	0.074996	0.827425
