data_functionalizedCrystal
_audit_creation_method	'MofGen! by Chris Wilmer'
_symmetry_space_group_name_H-M	'P1'
_symmetry_Int_Tables_number	1
_symmetry_cell_setting	triclinic
loop_
_symmetry_equiv_pos_as_xyz
  x,y,z
_cell_length_a	29.839131
_cell_length_b	19.805407
_cell_length_c	19.805399
_cell_angle_alpha	89.978936
_cell_angle_beta	90.029565
_cell_angle_gamma	89.959595
loop_
_atom_site_label
_atom_site_type_symbol
_atom_site_fract_x
_atom_site_fract_y
_atom_site_fract_z
Zn1	Zn	-0.178876	-1.034665	0.382737
Zn2	Zn	0.321124	-0.534665	0.882737
Zn3	Zn	-0.254003	-1.034550	0.269545
Zn4	Zn	0.245997	-0.534550	0.769545
Zn5	Zn	-0.178887	-0.921480	0.269559
Zn6	Zn	0.321113	-0.421480	0.769559
Zn7	Zn	-0.253978	-0.921414	0.382689
Zn8	Zn	0.246022	-0.421414	0.882689
O9	O	-0.216436	-0.978027	0.326132
O10	O	0.283564	-0.478027	0.826132
O11	O	-0.188848	-1.129366	0.367736
O12	O	0.311152	-0.629366	0.867736
O13	O	-0.244054	-1.019531	0.174830
O14	O	0.255946	-0.519531	0.674830
O15	O	-0.116018	-0.936570	0.284598
O16	O	0.383982	-0.436570	0.784598
O17	O	-0.244044	-1.129282	0.284575
O18	O	0.255956	-0.629282	0.784575
O19	O	-0.116010	-1.019727	0.367750
O20	O	0.383990	-0.519727	0.867750
O21	O	-0.188867	-0.936458	0.174840
O22	O	0.311133	-0.436458	0.674840
O23	O	-0.188842	-0.826754	0.284551
O24	O	0.311158	-0.326754	0.784551
O25	O	-0.244001	-0.936457	0.477412
O26	O	0.255999	-0.436457	0.977412
O27	O	-0.244011	-0.826706	0.367667
O28	O	0.255989	-0.326706	0.867667
O29	O	-0.188823	-1.019662	0.477447
O30	O	0.311177	-0.519662	0.977447
O31	O	-0.316867	-1.019467	0.284528
O32	O	0.183133	-0.519467	0.784528
O33	O	-0.316849	-0.936346	0.367654
O34	O	0.183151	-0.436346	0.867654
C35	C	-0.216425	-0.802171	0.326106
C36	C	0.283575	-0.302171	0.826106
C37	C	-0.216432	-0.726939	0.326111
C38	C	0.283568	-0.226939	0.826111
C39	C	-0.333159	-0.977905	0.326099
C40	C	0.166841	-0.477905	0.826099
C41	C	-0.383093	-0.977915	0.326107
C42	C	0.116907	-0.477915	0.826107
C43	C	-0.245201	-0.691587	0.369318
C44	C	0.254799	-0.191587	0.869318
C45	C	-0.245201	-0.620899	0.369326
C46	C	0.254799	-0.120899	0.869326
C47	C	-0.216434	-0.585564	0.326122
C48	C	0.283566	-0.085564	0.826122
C49	C	-0.187661	-0.620920	0.282913
C50	C	0.312339	-0.120920	0.782913
C51	C	-0.187659	-0.691607	0.282909
C52	C	0.312341	-0.191607	0.782909
C53	C	-0.187668	-0.335847	0.282928
C54	C	0.312332	0.164153	0.782928
C55	C	-0.187673	-0.265155	0.282933
C56	C	0.312327	0.234845	0.782933
C57	C	-0.245210	-0.265139	0.369345
C58	C	0.254790	0.234861	0.869345
C59	C	-0.245208	-0.335826	0.369341
C60	C	0.254792	0.164174	0.869341
C61	C	-0.216434	-0.371176	0.326134
C62	C	0.283566	0.128824	0.826134
C63	C	-0.216433	-0.447825	0.326127
C64	C	0.283567	0.052175	0.826127
C65	C	-0.216436	-0.508916	0.326125
C66	C	0.283564	-0.008916	0.826125
C67	C	-0.692734	-1.021387	0.282912
C68	C	-0.192734	-0.521387	0.782912
C69	C	-0.880407	-1.021471	0.282938
C70	C	-0.380407	-0.521471	0.782938
O71	O	-0.904669	-1.058335	0.246186
O72	O	-0.404669	-0.558335	0.746186
N73	N	-0.903878	-0.978168	0.326184
N74	N	-0.403878	-0.478168	0.826184
C75	C	-0.880429	-0.934844	0.369429
C76	C	-0.380429	-0.434844	0.869429
O77	O	-0.904699	-0.898019	0.406217
O78	O	-0.404699	-0.398019	0.906217
C79	C	-0.692757	-0.934764	0.369405
C80	C	-0.192757	-0.434764	0.869405
C81	C	-0.669287	-0.978065	0.326152
C82	C	-0.169287	-0.478065	0.826152
C83	C	-0.669264	-1.064685	0.239663
C84	C	-0.169264	-0.564685	0.739663
C85	C	-0.622349	-1.064661	0.239654
C86	C	-0.122349	-0.564661	0.739654
C87	C	-0.598903	-1.021339	0.282894
C88	C	-0.098903	-0.521339	0.782894
C89	C	-0.622372	-0.978041	0.326143
C90	C	-0.122372	-0.478041	0.826143
C91	C	-0.669308	-0.891444	0.412653
C92	C	-0.169308	-0.391444	0.912653
C93	C	-0.622387	-0.891429	0.412645
C94	C	-0.122387	-0.391429	0.912645
C95	C	-0.598918	-0.934730	0.369392
C96	C	-0.098918	-0.434730	0.869392
C97	C	-0.552010	-0.934695	0.369375
C98	C	-0.052010	-0.434695	0.869375
N99	N	-0.528539	-0.977998	0.326130
N100	N	-0.028539	-0.477998	0.826130
C101	C	-0.551985	-1.021320	0.282889
C102	C	-0.051985	-0.521320	0.782889
C103	C	-0.978959	-0.934888	0.369437
C104	C	-0.478959	-0.434888	0.869437
C105	C	-1.025877	-0.934907	0.369442
C106	C	-0.525877	-0.434907	0.869442
C107	C	-1.025852	-1.021534	0.282952
C108	C	-0.525852	-0.521534	0.782952
C109	C	-0.978933	-1.021512	0.282944
C110	C	-0.478933	-0.521512	0.782944
C111	C	-0.955488	-0.978191	0.326191
C112	C	-0.455488	-0.478191	0.826191
C113	C	-0.453459	-1.021266	0.282874
C114	C	0.046541	-0.521266	0.782874
C115	C	-0.406539	-1.021236	0.282867
C116	C	0.093461	-0.521236	0.782867
C117	C	-0.406569	-0.934611	0.369359
C118	C	0.093431	-0.434611	0.869359
C119	C	-0.453484	-0.934638	0.369363
C120	C	0.046516	-0.434638	0.869363
C121	C	-0.476928	-0.977971	0.326119
C122	C	0.023072	-0.477971	0.826119
O123	O	-0.527719	-0.897855	0.406113
O124	O	-0.027719	-0.397855	0.906113
O125	O	-0.527706	-1.058150	0.246117
O126	O	-0.027706	-0.558150	0.746117
C127	C	-0.739649	-1.021411	0.282921
C128	C	-0.239649	-0.521411	0.782921
C129	C	-0.763118	-0.978113	0.326170
C130	C	-0.263118	-0.478113	0.826170
C131	C	-0.739672	-0.934791	0.369410
C132	C	-0.239672	-0.434791	0.869410
C133	C	-0.810036	-0.978132	0.326175
C134	C	-0.310036	-0.478132	0.826175
C135	C	-0.833482	-1.021454	0.282934
C136	C	-0.333482	-0.521454	0.782934
C137	C	-0.810011	-1.064757	0.239689
C138	C	-0.310011	-0.564757	0.739689
C139	C	-0.763095	-1.064733	0.239680
C140	C	-0.263095	-0.564733	0.739680
C141	C	-0.763144	-0.891488	0.412655
C142	C	-0.263144	-0.391488	0.912655
C143	C	-0.810059	-0.891515	0.412660
C144	C	-0.310059	-0.391515	0.912660
C145	C	-0.833505	-0.934837	0.369420
C146	C	-0.333505	-0.434837	0.869420
C147	C	-0.099258	-0.978168	0.326181
C148	C	0.400742	-0.478168	0.826181
C149	C	-0.049323	-0.978228	0.326202
C150	C	0.450677	-0.478228	0.826202
C151	C	-0.216408	-0.978065	0.502675
C152	C	0.283592	-0.478065	1.002675
C153	C	-0.216396	-0.978081	0.577907
C154	C	0.283604	-0.478081	1.077907
C155	C	-0.216444	-0.154570	0.326153
C156	C	0.283556	0.345430	0.826153
C157	C	-0.216440	-0.229802	0.326145
C158	C	0.283560	0.270198	0.826145
C159	C	-0.216432	-0.978028	0.150277
C160	C	0.283568	-0.478028	0.650277
C161	C	-0.216317	-0.978143	0.075045
C162	C	0.283683	-0.478143	0.575045
C163	C	-0.187664	-1.021407	0.613271
C164	C	0.312336	-0.521407	1.113271
C165	C	-0.187650	-1.021414	0.683960
C166	C	0.312350	-0.521414	1.183960
C167	C	-0.216372	-0.978098	0.719283
C168	C	0.283628	-0.478098	1.219283
C169	C	-0.245106	-0.934767	0.683914
C170	C	0.254894	-0.434767	1.183914
C171	C	-0.245116	-0.934757	0.613227
C172	C	0.254884	-0.434757	1.113227
C173	C	-0.245064	-0.934806	0.968988
C174	C	0.254936	-0.434806	1.468988
C175	C	-0.245052	-0.934820	1.039680
C176	C	0.254948	-0.434820	1.539680
C177	C	-0.187598	-1.021462	1.039720
C178	C	0.312402	-0.521462	1.539720
C179	C	-0.187609	-1.021453	0.969033
C180	C	0.312391	-0.521453	1.469033
C181	C	-0.216340	-0.978120	0.933670
C182	C	0.283660	-0.478120	1.433670
C183	C	-0.216353	-0.978112	0.857022
C184	C	0.283647	-0.478112	1.357022
C185	C	-0.216362	-0.978109	0.795930
C186	C	0.283638	-0.478109	1.295930
H187	H	-0.268629	-0.592119	0.404509
H188	H	0.231371	-0.092119	0.904509
H189	H	-0.688349	-1.099967	0.204451
H190	H	-0.188349	-0.599967	0.704451
H191	H	-0.268490	-0.899496	0.712680
H192	H	0.231510	-0.399496	1.212680
H193	H	-0.387432	-1.056497	0.247643
H194	H	0.112568	-0.556497	0.747643
H195	H	-0.164230	-0.720390	0.247728
H196	H	0.335770	-0.220390	0.747728
H197	H	-0.744057	-0.856211	0.447868
H198	H	-0.244057	-0.356211	0.947868
H199	H	-0.472541	-1.056554	0.247661
H200	H	0.027459	-0.556554	0.747661
H201	H	-0.268629	-0.720352	0.404498
H202	H	0.231371	-0.220352	0.904498
H203	H	-0.387472	-0.899337	0.404563
H204	H	0.112528	-0.399337	0.904563
O205	O	-0.692077	-0.849456	0.454771
O206	O	-0.192077	-0.349456	0.954771
C207	C	-0.680558	-0.864204	0.522236
C208	C	-0.180558	-0.364204	1.022236
H209	H	-0.667628	-0.918272	0.525691
H210	H	-0.167628	-0.418272	1.025691
H211	H	-0.653335	-0.827902	0.539886
H212	H	-0.153335	-0.327902	1.039886
C213	C	-0.738097	-0.789910	0.563179
C214	C	-0.238097	-0.289910	1.063179
C215	C	-0.722219	-0.856319	0.567423
C216	C	-0.222219	-0.356319	1.067423
H217	H	-0.763795	-0.785043	0.591053
H218	H	-0.263795	-0.285043	1.091053
H219	H	-0.745857	-0.779971	0.517726
H220	H	-0.245857	-0.279971	1.017726
H221	H	-0.715407	-0.759665	0.577886
H222	H	-0.215407	-0.259665	1.077886
H223	H	-0.744907	-0.886561	0.552708
H224	H	-0.244907	-0.386561	1.052708
H225	H	-0.714464	-0.866263	0.612874
H226	H	-0.214464	-0.366263	1.112874
H227	H	-0.743990	-1.099993	0.204460
H228	H	-0.243990	-0.599993	0.704460
O229	O	-0.273221	-0.230830	0.411254
O230	O	0.226779	0.269170	0.911254
C231	C	-0.317983	-0.248063	0.396348
C232	C	0.182017	0.251937	0.896348
H233	H	-0.320205	-0.267463	0.342266
H234	H	0.179795	0.232537	0.842266
H235	H	-0.329755	-0.289103	0.432597
H236	H	0.170245	0.210897	0.932597
C237	C	-0.345246	-0.161418	0.470579
C238	C	0.154754	0.338582	0.970579
C239	C	-0.347975	-0.185240	0.404153
C240	C	0.152025	0.314760	0.904153
H241	H	-0.363747	-0.122666	0.475396
H242	H	0.136253	0.377334	0.975396
H243	H	-0.315089	-0.149808	0.480624
H244	H	0.184911	0.350192	0.980624
H245	H	-0.355056	-0.195623	0.500779
H246	H	0.144944	0.304377	1.000779
H247	H	-0.338160	-0.151038	0.373955
H248	H	0.161840	0.348962	0.873955
H249	H	-0.378131	-0.196842	0.394104
H250	H	0.121869	0.303158	0.894104
O251	O	-0.273104	-0.370119	0.411407
O252	O	0.226896	0.129881	0.911407
C253	C	-0.263351	-0.352870	0.478893
C254	C	0.236649	0.147130	0.978893
H255	H	-0.227465	-0.333474	0.482408
H256	H	0.272535	0.166526	0.982408
H257	H	-0.287453	-0.311823	0.496522
H258	H	0.212547	0.188177	0.996522
C259	C	-0.312690	-0.439499	0.519732
C260	C	0.187310	0.060501	1.019732
C261	C	-0.268613	-0.415682	0.524050
C262	C	0.231387	0.084318	1.024050
H263	H	-0.315938	-0.478243	0.547588
H264	H	0.184062	0.021757	1.047588
H265	H	-0.319263	-0.451118	0.474266
H266	H	0.180737	0.048882	0.974266
H267	H	-0.332771	-0.405287	0.534422
H268	H	0.167229	0.094713	1.034422
H269	H	-0.248534	-0.449890	0.509352
H270	H	0.251466	0.050110	1.009352
H271	H	-0.262037	-0.404070	0.569515
H272	H	0.237963	0.095930	1.069515
O273	O	-0.272891	-0.892706	1.074070
O274	O	0.227109	-0.392706	1.574070
C275	C	-0.247302	-0.849023	1.114952
C276	C	0.252698	-0.349023	1.614952
H277	H	-0.213256	-0.872941	1.125557
H278	H	0.286744	-0.372941	1.625557
H279	H	-0.242366	-0.798862	1.087707
H280	H	0.257634	-0.298862	1.587707
C281	C	-0.313822	-0.807378	1.169062
C282	C	0.186178	-0.307378	1.669062
C283	C	-0.272008	-0.836758	1.182092
C284	C	0.227992	-0.336758	1.682092
H285	H	-0.329063	-0.799809	1.210476
H286	H	0.170937	-0.299809	1.710476
H287	H	-0.331062	-0.836806	1.141518
H288	H	0.168938	-0.336806	1.641518
H289	H	-0.309703	-0.765581	1.146356
H290	H	0.190297	-0.265581	1.646356
H291	H	-0.276128	-0.878558	1.204789
H292	H	0.223872	-0.378558	1.704789
H293	H	-0.254769	-0.807336	1.209642
H294	H	0.245231	-0.307336	1.709642
H295	H	-0.164244	-0.236387	0.247752
H296	H	0.335756	0.263613	0.747752
H297	H	-0.603243	-1.099922	0.204436
H298	H	-0.103243	-0.599922	0.704436
O299	O	-0.159677	-1.063471	0.718232
O300	O	0.340323	-0.563471	1.218232
C301	C	-0.114904	-1.048721	0.700979
C302	C	0.385096	-0.548721	1.200979
H303	H	-0.113983	-1.022692	0.649652
H304	H	0.386017	-0.522692	1.149652
H305	H	-0.099759	-1.013949	0.740761
H306	H	0.400241	-0.513949	1.240761
C307	C	-0.088828	-1.146708	0.760771
C308	C	0.411172	-0.646708	1.260771
C309	C	-0.087697	-1.114744	0.697727
C310	C	0.412303	-0.614744	1.197727
H311	H	-0.072045	-1.187433	0.758767
H312	H	0.427955	-0.687433	1.258767
H313	H	-0.118993	-1.156645	0.772397
H314	H	0.381007	-0.656645	1.272397
H315	H	-0.076209	-1.117725	0.793915
H316	H	0.423791	-0.617725	1.293915
H317	H	-0.100322	-1.143723	0.664585
H318	H	0.399678	-0.643723	1.164585
H319	H	-0.057534	-1.104814	0.686095
H320	H	0.442466	-0.604814	1.186095
H321	H	-1.044982	-0.899640	0.404657
H322	H	-0.544982	-0.399640	0.904657
O323	O	-0.159739	-1.063390	0.578888
O324	O	0.340261	-0.563390	1.078888
C325	C	-0.130719	-1.024881	0.538018
C326	C	0.369281	-0.524881	1.038018
H327	H	-0.146564	-0.973569	0.527407
H328	H	0.353436	-0.473569	1.027407
H329	H	-0.097423	-1.017484	0.565276
H330	H	0.402577	-0.517484	1.065276
C331	C	-0.103131	-1.125146	0.483919
C332	C	0.396869	-0.625146	0.983919
C333	C	-0.122594	-1.062125	0.470881
C334	C	0.377406	-0.562125	0.970881
H335	H	-0.098117	-1.148120	0.442507
H336	H	0.401883	-0.648120	0.942507
H337	H	-0.122681	-1.151091	0.511455
H338	H	0.377319	-0.651091	1.011455
H339	H	-0.075387	-1.118973	0.506636
H340	H	0.424613	-0.618973	1.006636
H341	H	-0.150340	-1.068299	0.448173
H342	H	0.349660	-0.568299	0.948173
H343	H	-0.103049	-1.036182	0.443340
H344	H	0.396951	-0.536182	0.943340
H345	H	-0.268466	-0.899531	0.940204
H346	H	0.231534	-0.399531	1.440204
H347	H	-0.164241	-0.364621	0.247741
H348	H	0.335759	0.135379	0.747741
O349	O	-0.159666	-1.063551	0.934825
O350	O	0.340334	-0.563551	1.434825
C351	C	-0.134309	-1.101806	0.981197
C352	C	0.365691	-0.601806	1.481197
H353	H	-0.132745	-1.074093	1.031581
H354	H	0.367255	-0.574093	1.531581
H355	H	-0.150762	-1.153193	0.988718
H356	H	0.349238	-0.653193	1.488718
C357	C	-0.088422	-1.145649	0.891750
C358	C	0.411578	-0.645649	1.391750
C359	C	-0.086497	-1.111609	0.953630
C360	C	0.413503	-0.611609	1.453630
H361	H	-0.058929	-1.151700	0.874745
H362	H	0.441071	-0.651700	1.374745
H363	H	-0.105505	-1.119879	0.860508
H364	H	0.394495	-0.619879	1.360508
H365	H	-0.102134	-1.188469	0.898025
H366	H	0.397866	-0.688469	1.398025
H367	H	-0.072790	-1.068787	0.947352
H368	H	0.427210	-0.568787	1.447352
H369	H	-0.069410	-1.137373	0.984871
H370	H	0.430590	-0.637373	1.484871
H371	H	-0.164236	-0.592145	0.247738
H372	H	0.335764	-0.092145	0.747738
O373	O	-0.159697	-1.063488	1.074177
O374	O	0.340303	-0.563488	1.574177
C375	C	-0.165851	-1.054221	1.144142
C376	C	0.334149	-0.554221	1.644142
H377	H	-0.180558	-1.001970	1.153780
H378	H	0.319442	-0.501970	1.653780
H379	H	-0.189774	-1.094342	1.164203
H380	H	0.310226	-0.594342	1.664203
C381	C	-0.102325	-1.124662	1.168613
C382	C	0.397675	-0.624662	1.668613
C383	C	-0.120385	-1.060483	1.180451
C384	C	0.379615	-0.560483	1.680451
H385	H	-0.074280	-1.128527	1.191011
H386	H	0.425720	-0.628527	1.691011
H387	H	-0.098180	-1.130907	1.121476
H388	H	0.401820	-0.630907	1.621476
H389	H	-0.122265	-1.158089	1.185330
H390	H	0.377735	-0.658089	1.685330
H391	H	-0.100448	-1.027058	1.163726
H392	H	0.399552	-0.527058	1.663726
H393	H	-0.124526	-1.054232	1.227585
H394	H	0.375474	-0.554232	1.727585
O395	O	-0.956206	-1.063640	0.240909
O396	O	-0.456206	-0.563640	0.740909
C397	C	-0.986967	-1.101863	0.202734
C398	C	-0.486967	-0.601863	0.702734
H399	H	-1.020399	-1.104199	0.230467
H400	H	-0.520399	-0.604199	0.730467
H401	H	-0.991994	-1.077106	0.151307
H402	H	-0.491994	-0.577106	0.651307
C403	C	-0.927558	-1.171031	0.158980
C404	C	-0.427558	-0.671031	0.658980
C405	C	-0.968618	-1.173905	0.193044
C406	C	-0.468618	-0.673905	0.693044
H407	H	-0.916239	-1.215469	0.153000
H408	H	-0.416239	-0.715469	0.653000
H409	H	-0.906833	-1.145278	0.184697
H410	H	-0.406833	-0.645278	0.684697
H411	H	-0.931752	-1.150397	0.116127
H412	H	-0.431752	-0.650397	0.616127
H413	H	-0.964422	-1.194530	0.235899
H414	H	-0.464422	-0.694530	0.735899
H415	H	-0.989342	-1.199663	0.167334
H416	H	-0.489342	-0.699663	0.667334
O417	O	-0.832903	-0.849543	0.454714
O418	O	-0.332903	-0.349543	0.954714
C419	C	-0.859985	-0.888071	0.498485
C420	C	-0.359985	-0.388071	0.998485
H421	H	-0.866993	-0.939379	0.474658
H422	H	-0.366993	-0.439379	0.974658
H423	H	-0.841872	-0.895476	0.548642
H424	H	-0.341872	-0.395476	1.048642
C425	C	-0.895963	-0.787826	0.539992
C426	C	-0.395963	-0.287826	1.039992
C427	C	-0.904574	-0.850842	0.510726
C428	C	-0.404574	-0.350842	1.010726
H429	H	-0.923467	-0.764861	0.547546
H430	H	-0.423467	-0.264861	1.047546
H431	H	-0.877717	-0.761869	0.510505
H432	H	-0.377717	-0.261869	1.010505
H433	H	-0.880868	-0.794007	0.581787
H434	H	-0.380868	-0.294007	1.081787
H435	H	-0.919664	-0.844660	0.468928
H436	H	-0.419664	-0.344660	0.968928
H437	H	-0.922824	-0.876797	0.540207
H438	H	-0.422824	-0.376797	1.040207
H439	H	-1.044950	-1.056809	0.247744
H440	H	-0.544950	-0.556809	0.747744
H441	H	-0.268509	-0.899470	0.584435
H442	H	0.231491	-0.399470	1.084435
H443	H	-0.959873	-0.899609	0.404655
H444	H	-0.459873	-0.399609	0.904655
O445	O	-0.599592	-0.849442	0.454727
O446	O	-0.099592	-0.349442	0.954727
C447	C	-0.572399	-0.887939	0.498464
C448	C	-0.072399	-0.387939	0.998464
H449	H	-0.586500	-0.941253	0.502695
H450	H	-0.086500	-0.441253	1.002695
H451	H	-0.536848	-0.890263	0.477534
H452	H	-0.036848	-0.390263	0.977534
C453	C	-0.554355	-0.789352	0.563600
C454	C	-0.054355	-0.289352	1.063600
C455	C	-0.571676	-0.854832	0.568801
C456	C	-0.071676	-0.354832	1.068801
H457	H	-0.553907	-0.768930	0.606987
H458	H	-0.053907	-0.268930	1.106987
H459	H	-0.572674	-0.763415	0.534132
H460	H	-0.072674	-0.263415	1.034132
H461	H	-0.524731	-0.791298	0.546155
H462	H	-0.024731	-0.291298	1.046155
H463	H	-0.601302	-0.852885	0.586237
H464	H	-0.101302	-0.352885	1.086237
H465	H	-0.553362	-0.880768	0.598273
H466	H	-0.053362	-0.380768	1.098273
O467	O	-0.832736	-1.106943	0.197719
O468	O	-0.332736	-0.606943	0.697719
C469	C	-0.821223	-1.174384	0.212598
C470	C	-0.321223	-0.674384	0.712598
H471	H	-0.787145	-1.175745	0.238612
H472	H	-0.287145	-0.675745	0.738612
H473	H	-0.847597	-1.197171	0.247428
H474	H	-0.347597	-0.697171	0.747428
C475	C	-0.860907	-1.213761	0.114709
C476	C	-0.360907	-0.713761	0.614709
C477	C	-0.819051	-1.215434	0.146654
C478	C	-0.319051	-0.715434	0.646654
H479	H	-0.859569	-1.239084	0.074033
H480	H	-0.359569	-0.739084	0.574033
H481	H	-0.868665	-1.168325	0.104686
H482	H	-0.368665	-0.668325	0.604686
H483	H	-0.882881	-1.232749	0.143740
H484	H	-0.382881	-0.732749	0.643740
H485	H	-0.797079	-1.196438	0.117626
H486	H	-0.297079	-0.696438	0.617626
H487	H	-0.811289	-1.260868	0.156671
H488	H	-0.311289	-0.760868	0.656671
H489	H	-0.472594	-0.899381	0.404586
H490	H	0.027406	-0.399381	0.904586
