data_functionalizedCrystal
_audit_creation_method	'MofGen! by Chris Wilmer'
_symmetry_space_group_name_H-M	'P1'
_symmetry_Int_Tables_number	1
_symmetry_cell_setting	triclinic
loop_
_symmetry_equiv_pos_as_xyz
  x,y,z
_cell_length_a	19.188929
_cell_length_b	9.065215
_cell_length_c	8.140239
_cell_angle_alpha	89.997810
_cell_angle_beta	90.025294
_cell_angle_gamma	95.920260
loop_
_atom_site_label
_atom_site_type_symbol
_atom_site_fract_x
_atom_site_fract_y
_atom_site_fract_z
O1	O	-0.102360	1.956849	-0.136686
O2	O	0.397640	2.456849	0.363314
O3	O	-0.110759	1.527272	-0.136701
O4	O	0.389241	2.027272	0.363299
O5	O	-0.005000	1.754457	-0.136592
O6	O	0.495000	2.254457	0.363408
O7	O	-0.208119	1.729664	-0.136796
O8	O	0.291881	2.229664	0.363204
O9	O	-0.004999	1.754445	0.136635
O10	O	0.495001	2.254445	0.636635
O11	O	-0.110758	1.527260	0.136526
O12	O	0.389242	2.027260	0.636526
O13	O	-0.102359	1.956837	0.136541
O14	O	0.397641	2.456837	0.636541
Zn15	Zn	-0.106558	1.742046	0.179914
Zn16	Zn	0.393442	2.242046	0.679914
Zn17	Zn	-0.106560	1.742063	-0.180074
Zn18	Zn	0.393440	2.242063	0.319926
O19	O	-0.208117	1.729652	0.136431
O20	O	0.291883	2.229652	0.636431
C21	C	-0.109951	1.472308	-0.000088
C22	C	0.390049	1.972308	0.499912
C23	C	-0.107539	1.308548	-0.000088
C24	C	0.392461	1.808548	0.499912
C25	C	-0.234135	1.730461	-0.000208
C26	C	0.265865	2.230461	0.499792
C27	C	-0.311659	1.732871	-0.000286
C28	C	0.188341	2.232871	0.499714
C29	C	-0.355547	1.599566	-0.000258
C30	C	0.144453	2.099566	0.499742
C31	C	-0.428389	1.601831	-0.000221
C32	C	0.071611	2.101831	0.499779
C33	C	-0.457338	1.737407	-0.000179
C34	C	0.042662	2.237407	0.499821
C35	C	-0.413439	1.870729	-0.000217
C36	C	0.086561	2.370729	0.499783
C37	C	-0.340600	1.868461	-0.000271
C38	C	0.159400	2.368461	0.499729
N39	N	-0.566111	1.841034	0.092913
N40	N	-0.066111	2.341034	0.592913
N41	N	-0.635306	1.843180	0.092968
N42	N	-0.135306	2.343180	0.592968
C43	C	-0.676800	1.744249	-0.000021
C44	C	-0.176800	2.244249	0.499979
N45	N	-0.646486	1.643070	-0.093046
N46	N	-0.146486	2.143070	0.406954
N47	N	-0.577284	1.640920	-0.093093
N48	N	-0.077284	2.140920	0.406907
C49	C	-0.536320	1.739882	-0.000122
C50	C	-0.036320	2.239882	0.499878
C51	C	-0.799672	1.613390	0.000046
C52	C	-0.299672	2.113390	0.500046
C53	C	-0.872515	1.615660	0.000073
C54	C	-0.372515	2.115660	0.500073
C55	C	-0.857564	1.884563	0.000093
C56	C	-0.357564	2.384563	0.500093
C57	C	-0.784723	1.882289	0.000049
C58	C	-0.284723	2.382289	0.500049
C59	C	-0.755782	1.746699	0.000034
C60	C	-0.255782	2.246699	0.500034
C61	C	0.021018	1.753648	0.000044
C62	C	0.521018	2.253648	0.500044
C63	C	0.098541	1.751238	0.000112
C64	C	0.598541	2.251238	0.500112
C65	C	-0.103166	2.011802	-0.000076
C66	C	0.396834	2.511802	0.499924
C67	C	-0.105578	2.175561	-0.000087
C68	C	0.394422	2.675561	0.499913
N69	N	-0.106556	1.742046	0.425597
N70	N	0.393444	2.242046	0.925597
N71	N	-0.106556	1.742075	-0.425757
N72	N	0.393444	2.242075	0.074243
H73	H	-0.464130	1.493274	-0.000194
H74	H	0.035870	1.993274	0.499806
C75	C	-0.377648	1.333998	-0.000269
C76	C	0.122352	1.833998	0.499731
C77	C	-0.323736	1.450527	-0.000296
C78	C	0.176264	1.950527	0.499704
H79	H	-0.358006	1.241990	-0.000305
H80	H	0.141994	1.741990	0.499695
H81	H	-0.405714	1.340473	0.095029
H82	H	0.094286	1.840473	0.595029
H83	H	-0.405779	1.340493	-0.095533
H84	H	0.094221	1.840493	0.404467
H85	H	-0.295608	1.444039	0.094974
H86	H	0.204392	1.944039	0.594974
H87	H	-0.295659	1.444049	-0.095604
H88	H	0.204341	1.944049	0.404396
C89	C	-0.518461	1.993600	-0.000099
C90	C	-0.018461	2.493600	0.499901
C91	C	-0.445258	2.019759	-0.000164
C92	C	0.054742	2.519759	0.499836
H93	H	-0.538101	2.085610	-0.000062
H94	H	-0.038101	2.585610	0.499938
H95	H	-0.533496	1.938746	-0.095367
H96	H	-0.033496	2.438746	0.404633
H97	H	-0.533429	1.938724	0.095194
H98	H	-0.033429	2.438724	0.595194
H99	H	-0.430288	2.074626	-0.095464
H100	H	0.069712	2.574626	0.404536
H101	H	-0.430216	2.074637	0.095114
H102	H	0.069784	2.574637	0.595114
C103	C	-0.333139	2.134485	-0.000244
C104	C	0.166861	2.634485	0.499756
C105	C	-0.292352	2.015001	-0.000285
C106	C	0.207648	2.515001	0.499715
H107	H	-0.303351	2.224951	-0.000240
H108	H	0.196649	2.724951	0.499760
H109	H	-0.361886	2.129785	-0.095503
H110	H	0.138114	2.629785	0.404497
H111	H	-0.361835	2.129762	0.095059
H112	H	0.138165	2.629762	0.595059
H113	H	-0.263659	2.019718	-0.095594
H114	H	0.236341	2.519718	0.404406
H115	H	-0.263594	2.019703	0.094984
H116	H	0.236406	2.519703	0.594984
C117	C	-0.821764	1.347822	-0.000003
C118	C	-0.321764	1.847822	0.499997
C119	C	-0.767854	1.464354	-0.000007
C120	C	-0.267854	1.964354	0.499993
H121	H	-0.802121	1.255815	-0.000050
H122	H	-0.302121	1.755815	0.499950
H123	H	-0.849832	1.354283	0.095293
H124	H	-0.349832	1.854283	0.595293
H125	H	-0.849893	1.354326	-0.095269
H126	H	-0.349893	1.854326	0.404731
H127	H	-0.739728	1.457857	0.095265
H128	H	-0.239728	1.957857	0.595265
H129	H	-0.739774	1.457890	-0.095313
H130	H	-0.239774	1.957890	0.404687
H131	H	-0.908249	1.507103	0.000085
H132	H	-0.408249	2.007103	0.500085
H133	H	-0.881133	1.994952	0.000007
H134	H	-0.381133	2.494952	0.500007
C135	C	-0.777264	2.148306	0.000098
C136	C	-0.277264	2.648306	0.500098
C137	C	-0.736475	2.028824	0.000047
C138	C	-0.236475	2.528824	0.500047
H139	H	-0.747476	2.238773	0.000104
H140	H	-0.247476	2.738773	0.500104
H141	H	-0.806011	2.143609	-0.095158
H142	H	-0.306011	2.643609	0.404842
H143	H	-0.805958	2.143578	0.095403
H144	H	-0.305958	2.643578	0.595403
H145	H	-0.707784	2.033546	-0.095265
H146	H	-0.207784	2.533546	0.404735
H147	H	-0.707715	2.033524	0.095313
H148	H	-0.207715	2.533524	0.595313
