data_functionalizedCrystal
_audit_creation_method	'MofGen! by Chris Wilmer'
_symmetry_space_group_name_H-M	'P1'
_symmetry_Int_Tables_number	1
_symmetry_cell_setting	triclinic
loop_
_symmetry_equiv_pos_as_xyz
  x,y,z
_cell_length_a	14.971491
_cell_length_b	13.448316
_cell_length_c	10.654550
_cell_angle_alpha	89.996507
_cell_angle_beta	95.949417
_cell_angle_gamma	90.006926
loop_
_atom_site_label
_atom_site_type_symbol
_atom_site_fract_x
_atom_site_fract_y
_atom_site_fract_z
O1	O	1.187833	0.082734	-0.163685
O2	O	1.687833	0.582734	0.336315
O3	O	0.927541	0.082727	-0.183277
O4	O	1.427541	0.582727	0.316723
O5	O	1.063672	0.082724	0.009322
O6	O	1.563672	0.582724	0.509322
O7	O	1.051702	0.082737	-0.356284
O8	O	1.551702	0.582737	0.143716
O9	O	1.063658	-0.082659	0.009324
O10	O	1.563658	0.417341	0.509324
O11	O	0.927527	-0.082657	-0.183275
O12	O	1.427527	0.417343	0.316725
O13	O	1.187820	-0.082650	-0.163683
O14	O	1.687820	0.417350	0.336317
Cu15	Cu	1.057672	-0.097754	-0.173479
Cu16	Cu	1.557672	0.402246	0.326521
Cu17	Cu	1.057688	0.097831	-0.173481
Cu18	Cu	1.557688	0.597831	0.326519
O19	O	1.051689	-0.082647	-0.356282
O20	O	1.551689	0.417353	0.143718
C21	C	0.894204	0.000034	-0.182399
C22	C	1.394204	0.500034	0.317601
C23	C	0.794893	0.000031	-0.179769
C24	C	1.294893	0.500031	0.320231
C25	C	0.367133	0.090204	-0.168425
C26	C	0.867133	0.590204	0.331575
C27	C	0.460447	0.090201	-0.170892
C28	C	0.960447	0.590201	0.329108
C29	C	0.507092	0.000047	-0.172133
C30	C	1.007092	0.500047	0.327867
C31	C	0.460420	-0.090110	-0.170894
C32	C	0.960420	0.409890	0.329106
C33	C	0.367109	-0.090105	-0.168418
C34	C	0.867109	0.409895	0.331582
C35	C	0.654910	-0.090113	-0.176056
C36	C	1.154910	0.409887	0.323944
C37	C	0.748227	-0.090118	-0.178534
C38	C	1.248227	0.409882	0.321466
C39	C	0.748248	0.090192	-0.178530
C40	C	1.248248	0.590192	0.321470
C41	C	0.654937	0.090197	-0.176055
C42	C	1.154937	0.590197	0.323945
C43	C	0.608271	0.000040	-0.174818
C44	C	1.108271	0.500040	0.325182
N45	N	1.057667	-0.235318	-0.173477
N46	N	1.557667	0.264682	0.326523
C47	C	1.112385	-0.287350	-0.249774
C48	C	1.612385	0.212650	0.250226
C49	C	1.112396	-0.391453	-0.249769
C50	C	1.612396	0.108547	0.250231
C51	C	1.057684	-0.443523	-0.173472
C52	C	1.557684	0.056477	0.326528
C53	C	1.002964	-0.391484	-0.097166
C54	C	1.502964	0.108516	0.402834
C55	C	1.002959	-0.287383	-0.097165
C56	C	1.502959	0.212617	0.402835
C57	C	1.002979	-0.608464	-0.097174
C58	C	1.502979	-0.108464	0.402826
C59	C	1.002983	-0.712573	-0.097176
C60	C	1.502983	-0.212573	0.402824
C61	C	1.112416	-0.712535	-0.249778
C62	C	1.612416	-0.212535	0.250222
C63	C	1.112410	-0.608433	-0.249777
C64	C	1.612410	-0.108433	0.250223
C65	C	1.057689	-0.556402	-0.173472
C66	C	1.557689	-0.056402	0.326528
C67	C	1.221156	0.000045	-0.164561
C68	C	1.721156	0.500045	0.335439
C69	C	1.320467	0.000055	-0.167191
C70	C	1.820467	0.500055	0.332809
C71	C	1.062786	0.000033	0.056112
C72	C	1.562786	0.500033	0.556112
C73	C	1.060157	0.000034	0.195527
C74	C	1.560157	0.500034	0.695527
N75	N	1.057700	0.235396	-0.173473
N76	N	1.557700	0.735396	0.326527
C77	C	1.052574	0.000046	-0.403072
C78	C	1.552574	0.500046	0.096928
C79	C	1.055204	0.000051	-0.542487
C80	C	1.555204	0.500051	-0.042487
C81	C	1.140308	0.000037	0.275870
C82	C	1.640308	0.500037	0.775870
C83	C	1.137832	0.000049	0.406865
C84	C	1.637832	0.500049	0.906865
C85	C	0.975046	0.000052	0.377159
C86	C	1.475046	0.500052	0.877159
C87	C	0.977523	0.000047	0.246168
C88	C	1.477523	0.500047	0.746168
H89	H	0.786202	-0.163530	-0.179551
H90	H	1.286202	0.336470	0.320449
H91	H	1.207594	0.000029	0.234644
H92	H	1.707594	0.500029	0.734644
H93	H	0.907768	0.000060	0.418407
H94	H	1.407768	0.500060	0.918407
H95	H	1.156968	-0.754904	-0.311913
H96	H	1.656968	-0.254904	0.188087
C97	C	0.603579	-0.189291	-0.174698
C98	C	1.103579	0.310709	0.325302
N99	N	0.564916	-0.263990	-0.173683
N100	N	1.064916	0.236010	0.326317
C101	C	0.315776	-0.189277	-0.167065
C102	C	0.815776	0.310723	0.332935
N103	N	0.277113	-0.263976	-0.166043
N104	N	0.777113	0.236024	0.333957
C105	C	1.226006	0.000043	0.495238
C106	C	1.726006	0.500043	0.995238
N107	N	1.292423	0.000037	0.561800
N108	N	1.792423	0.500037	1.061800
C109	C	1.172554	-0.448684	-0.333752
C110	C	1.672554	0.051316	0.166248
N111	N	1.217856	-0.491789	-0.397029
N112	N	1.717856	0.008211	0.102971
C113	C	0.315833	0.189383	-0.167059
C114	C	0.815833	0.689383	0.332941
N115	N	0.277196	0.264087	-0.166024
N116	N	0.777196	0.764087	0.333976
C117	C	0.511777	0.189372	-0.172234
C118	C	1.011777	0.689372	0.327766
N119	N	0.550439	0.264073	-0.173237
N120	N	1.050439	0.764073	0.326763
H121	H	0.912249	0.000048	0.180748
H122	H	1.412249	0.500048	0.680748
C123	C	1.172573	-0.230083	-0.333708
C124	C	1.672573	0.269917	0.166292
N125	N	1.217913	-0.186953	-0.396925
N126	N	1.717913	0.313047	0.103075
C127	C	0.799583	0.189366	-0.179884
C128	C	1.299583	0.689366	0.320116
N129	N	0.838252	0.264061	-0.180907
N130	N	1.338252	0.764061	0.319093
H131	H	0.498406	-0.163515	-0.171896
H132	H	0.998406	0.336485	0.328104
C133	C	0.942810	-0.769847	-0.013228
C134	C	1.442810	-0.269847	0.486772
N135	N	0.897490	-0.812986	0.050009
N136	N	1.397490	-0.312986	0.550009
H137	H	1.156957	-0.566041	-0.311911
H138	H	1.656957	-0.066041	0.188089
H139	H	0.958420	-0.566103	-0.035037
H140	H	1.458420	-0.066103	0.464963
C141	C	0.942763	-0.230148	-0.013235
C142	C	1.442763	0.269852	0.486765
N143	N	0.897423	-0.187041	0.049986
N144	N	1.397423	0.312959	0.549986
C145	C	0.942779	-0.448764	-0.013241
C146	C	1.442779	0.051236	0.486759
N147	N	0.897442	-0.491907	0.049968
N148	N	1.397442	0.008093	0.549968
H149	H	0.616960	0.163609	-0.175053
H150	H	1.116960	0.663609	0.324947
