data_functionalizedCrystal
_audit_creation_method	'MofGen! by Chris Wilmer'
_symmetry_space_group_name_H-M	'P1'
_symmetry_Int_Tables_number	1
_symmetry_cell_setting	triclinic
loop_
_symmetry_equiv_pos_as_xyz
  x,y,z
_cell_length_a	18.100771
_cell_length_b	16.120530
_cell_length_c	16.120297
_cell_angle_alpha	90.128140
_cell_angle_beta	86.830971
_cell_angle_gamma	92.578108
loop_
_atom_site_label
_atom_site_type_symbol
_atom_site_fract_x
_atom_site_fract_y
_atom_site_fract_z
Zn1	Zn	0.375213	1.245212	-0.536747
Zn2	Zn	0.493113	1.251462	-0.398375
Zn3	Zn	0.362698	1.113276	-0.390592
Zn4	Zn	0.492431	1.105422	-0.530340
O5	O	0.430864	1.178843	-0.464013
O6	O	0.396376	1.362374	-0.524330
O7	O	0.470861	1.239034	-0.280948
O8	O	0.260724	1.131449	-0.409404
O9	O	0.482996	1.366966	-0.422668
O10	O	0.269918	1.228381	-0.516783
O11	O	0.375046	1.137510	-0.275230
O12	O	0.374385	0.995901	-0.403192
O13	O	0.481834	1.118063	-0.647584
O14	O	0.469699	0.990131	-0.505864
O15	O	0.395715	1.220766	-0.652291
O16	O	0.596657	1.231418	-0.416456
O17	O	0.596156	1.124124	-0.513411
C18	C	0.420610	0.962852	-0.452988
C19	C	0.416242	0.870449	-0.448292
C20	C	0.237698	1.180094	-0.462940
C21	C	0.155382	1.180627	-0.462482
C22	C	0.408251	0.701267	-0.439724
C23	C	0.453534	0.657256	-0.488364
C24	C	0.449088	0.563118	-0.483597
C25	C	0.412696	0.795414	-0.444490
C26	C	-0.143696	1.178328	-0.464555
C27	C	-0.106584	1.239324	-0.532103
C28	C	-0.020970	1.240244	-0.531334
C29	C	0.004680	1.179468	-0.463527
C30	C	-0.030169	1.207463	-0.377315
C31	C	-0.115773	1.207251	-0.378305
C32	C	-0.114187	1.089461	-0.482223
C33	C	-0.028421	1.090485	-0.483589
C34	C	0.088536	1.180112	-0.462941
C35	C	-0.227552	1.177687	-0.465135
C36	C	0.623280	1.177619	-0.465102
C37	C	0.705601	1.177170	-0.465599
C38	C	0.440094	1.167841	-0.680961
C39	C	0.444028	1.163153	-0.773412
C40	C	0.441158	1.395678	-0.475082
C41	C	0.445545	1.488080	-0.479799
C42	C	0.451191	1.154562	-0.942678
C43	C	0.410323	1.203289	-0.986208
C44	C	0.414308	1.198509	-1.080393
C45	C	0.447206	1.159341	-0.848484
C46	C	0.421618	1.189850	-0.247912
C47	C	0.417484	1.194701	-0.155469
H48	H	0.495642	0.690279	-0.533587
H49	H	0.489171	1.109261	-0.976144
H50	H	-0.005349	1.069431	-0.547030
H51	H	-0.134383	1.272368	-0.362760
H52	H	0.366146	0.668247	-0.394505
F53	F	0.360690	1.262521	-0.942466
F54	F	0.010286	1.216732	-0.615108
H55	H	-0.124264	1.221139	-0.596687
H56	H	-0.126490	1.304712	-0.520929
H57	H	0.001135	1.306334	-0.519707
F58	F	-0.148460	1.152046	-0.310559
H59	H	-0.133261	1.064459	-0.544074
H60	H	-0.007399	1.272211	-0.361114
F61	F	-0.009160	1.151873	-0.309602
H62	H	-0.011189	1.042599	-0.437324
H63	H	-0.138702	1.043983	-0.432953
