data_functionalizedCrystal
_audit_creation_method	'MofGen! by Chris Wilmer'
_symmetry_space_group_name_H-M	'P1'
_symmetry_Int_Tables_number	1
_symmetry_cell_setting	triclinic
loop_
_symmetry_equiv_pos_as_xyz
  x,y,z
_cell_length_a	11.792241
_cell_length_b	9.065215
_cell_length_c	7.540329
_cell_angle_alpha	89.999899
_cell_angle_beta	89.999420
_cell_angle_gamma	95.395944
loop_
_atom_site_label
_atom_site_type_symbol
_atom_site_fract_x
_atom_site_fract_y
_atom_site_fract_z
O1	O	-0.166418	1.958835	0.147440
O2	O	0.166915	2.292169	0.480773
O3	O	0.500249	2.625502	0.814106
O4	O	-0.180073	1.529422	0.147446
O5	O	0.153261	1.862755	0.480779
O6	O	0.486594	2.196089	0.814112
O7	O	-0.008132	1.754549	0.147453
O8	O	0.325201	2.087883	0.480786
O9	O	0.658534	2.421216	0.814120
O10	O	-0.338358	1.733708	0.147432
O11	O	-0.005025	2.067041	0.480765
O12	O	0.328309	2.400375	0.814099
O13	O	-0.008123	1.754548	-0.147512
O14	O	0.325210	2.087881	0.185821
O15	O	0.658544	2.421214	0.519155
O16	O	-0.180063	1.529420	-0.147519
O17	O	0.153270	1.862754	0.185814
O18	O	0.486604	2.196087	0.519147
O19	O	-0.166408	1.958834	-0.147526
O20	O	0.166925	2.292167	0.185808
O21	O	0.500258	2.625500	0.519141
Cu22	Cu	-0.173235	1.744127	-0.174455
Cu23	Cu	0.160098	2.077460	0.158878
Cu24	Cu	0.493432	2.410793	0.492212
Cu25	Cu	-0.173246	1.744129	0.174375
Cu26	Cu	0.160087	2.077462	0.507709
Cu27	Cu	0.493421	2.410796	0.841042
O28	O	-0.338349	1.733706	-0.147533
O29	O	-0.005015	2.067040	0.185800
O30	O	0.328318	2.400373	0.519134
C31	C	-0.178756	1.474447	-0.000036
C32	C	0.154577	1.807780	0.333298
C33	C	0.487910	2.141113	0.666631
C34	C	-0.174835	1.310640	-0.000032
C35	C	0.158499	1.643974	0.333301
C36	C	0.491832	1.977307	0.666634
C37	C	-0.380652	1.735016	-0.000053
C38	C	-0.047318	2.068350	0.333280
C39	C	0.286015	2.401683	0.666614
C40	C	-0.506687	1.738935	-0.000061
C41	C	-0.173354	2.072268	0.333273
C42	C	0.159980	2.405601	0.666606
C43	C	-0.737439	1.746140	-0.000016
C44	C	-0.404106	2.079473	0.333317
C45	C	-0.070772	2.412807	0.666650
C46	C	-0.609032	1.742137	-0.000041
C47	C	-0.275698	2.075470	0.333293
C48	C	0.057635	2.408803	0.666626
C49	C	0.034171	1.753239	-0.000023
C50	C	0.367504	2.086573	0.333310
C51	C	0.700837	2.419906	0.666644
C52	C	0.160206	1.749321	-0.000003
C53	C	0.493539	2.082654	0.333330
C54	C	0.826873	2.415988	0.666663
C55	C	-0.167725	2.013809	-0.000040
C56	C	0.165609	2.347142	0.333293
C57	C	0.498942	2.680476	0.666626
C58	C	-0.171646	2.177615	-0.000032
C59	C	0.161687	2.510949	0.333301
C60	C	0.495020	2.844282	0.666635
N61	N	-0.173246	1.744131	0.419724
N62	N	0.160088	2.077465	0.753057
N63	N	0.493421	2.410798	1.086390
N64	N	-0.173226	1.744136	-0.419804
N65	N	0.160107	2.077469	-0.086470
N66	N	0.493440	2.410803	0.246863
