data_functionalizedCrystal
_audit_creation_method	'MofGen! by Chris Wilmer'
_symmetry_space_group_name_H-M	'P1'
_symmetry_Int_Tables_number	1
_symmetry_cell_setting	triclinic
loop_
_symmetry_equiv_pos_as_xyz
  x,y,z
_cell_length_a	17.699083
_cell_length_b	11.792254
_cell_length_c	16.176319
_cell_angle_alpha	89.993043
_cell_angle_beta	89.998611
_cell_angle_gamma	83.740806
loop_
_atom_site_label
_atom_site_type_symbol
_atom_site_fract_x
_atom_site_fract_y
_atom_site_fract_z
O1	O	1.004848	0.143526	-0.068631
O2	O	0.784570	0.162199	-0.068658
O3	O	0.900049	-0.012371	-0.068638
O4	O	0.889368	0.318096	-0.068651
O5	O	0.900033	-0.012382	0.068855
O6	O	0.784554	0.162188	0.068835
O7	O	1.004832	0.143515	0.068862
Cu8	Cu	0.894691	0.152850	0.081403
Cu9	Cu	0.894710	0.152864	-0.081199
O10	O	0.889352	0.318085	0.068842
C11	C	0.756361	0.161524	0.000085
C12	C	0.672332	0.159517	0.000075
C13	C	0.624261	0.261986	0.000071
C14	C	0.545307	0.260093	0.000082
C15	C	0.514427	0.155730	0.000091
C16	C	0.562505	0.053253	0.000097
C17	C	0.641457	0.055147	0.000092
C18	C	0.244101	0.045613	0.000118
C19	C	0.165143	0.043727	0.000120
C20	C	0.147951	0.250559	0.000107
C21	C	0.226903	0.252453	0.000103
C22	C	0.274974	0.149977	0.000113
C23	C	0.360584	0.152030	0.000103
C24	C	0.428818	0.153675	0.000095
C25	C	0.899369	-0.054659	0.000108
C26	C	0.897355	-0.180648	0.000107
C27	C	0.895718	-0.282965	0.000104
C28	C	0.893672	-0.411327	0.000096
C29	C	1.033041	0.144190	0.000117
C30	C	1.117070	0.146197	0.000122
C31	C	0.890033	0.360373	0.000094
C32	C	0.892047	0.486362	0.000090
N33	N	0.894684	0.152841	0.195768
N34	N	0.894724	0.152865	-0.195564
C35	C	0.945834	0.075572	0.239041
C36	C	0.945838	0.075571	0.325588
C37	C	0.894694	0.152844	0.368861
C38	C	0.843539	0.230116	0.325582
C39	C	0.843532	0.230111	0.239036
C40	C	0.843565	0.230138	0.674610
C41	C	0.843577	0.230139	0.761161
C42	C	0.945870	0.075598	0.761162
C43	C	0.945864	0.075592	0.674617
C44	C	0.894706	0.152860	0.631345
C45	C	0.894701	0.152859	0.537501
C46	C	0.894702	0.152852	0.462703
H47	H	0.506170	0.343534	0.000078
H48	H	0.252041	0.337436	0.000092
H49	H	0.801893	0.293030	0.360819
H50	H	0.283231	-0.037830	0.000127
H51	H	0.537356	-0.031721	0.000116
H52	H	0.680597	-0.028293	0.000095
H53	H	0.801879	0.293029	0.203804
H54	H	0.649397	0.346971	0.000063
H55	H	0.108802	0.334000	0.000103
H56	H	0.987483	0.012652	0.203814
H57	H	0.987487	0.012653	0.360821
H58	H	0.140004	-0.041263	0.000128
H59	H	0.987511	0.012673	0.639387
H60	H	0.987524	0.012679	0.796403
H61	H	0.801927	0.293066	0.796392
H62	H	0.801912	0.293053	0.639385
