data_functionalizedCrystal
_audit_creation_method	'MofGen! by Chris Wilmer'
_symmetry_space_group_name_H-M	'P1'
_symmetry_Int_Tables_number	1
_symmetry_cell_setting	triclinic
loop_
_symmetry_equiv_pos_as_xyz
  x,y,z
_cell_length_a	15.995292
_cell_length_b	19.188930
_cell_length_c	14.472310
_cell_angle_alpha	89.993787
_cell_angle_beta	89.985801
_cell_angle_gamma	83.306699
loop_
_atom_site_label
_atom_site_type_symbol
_atom_site_fract_x
_atom_site_fract_y
_atom_site_fract_z
O1	O	1.110698	0.089798	-0.076877
O2	O	0.866875	0.100954	-0.076874
O3	O	0.995823	-0.006263	-0.076857
O4	O	0.981750	0.197015	-0.076893
O5	O	0.995790	-0.006257	0.076825
O6	O	0.866842	0.100960	0.076808
O7	O	1.110665	0.089804	0.076805
Cu8	Cu	0.988750	0.095383	0.090839
Cu9	Cu	0.988790	0.095375	-0.090908
O10	O	0.981717	0.197021	0.076789
C11	C	0.835665	0.100503	-0.000033
C12	C	0.742717	0.099142	-0.000031
C13	C	0.404997	0.094138	-0.000041
C14	C	0.428026	0.171524	-0.000397
C15	C	0.524696	0.172995	-0.000047
C16	C	0.572543	0.096621	-0.000036
C17	C	0.543564	0.057935	0.087727
C18	C	0.446777	0.057003	0.087797
C19	C	0.446965	0.055416	-0.086968
C20	C	0.543448	0.058284	-0.088124
C21	C	0.667234	0.098020	-0.000031
C22	C	0.310306	0.092736	-0.000040
C23	C	0.995351	-0.032272	-0.000014
C24	C	0.993983	-0.109780	-0.000006
C25	C	1.069645	-0.154524	-0.000002
C26	C	1.068360	-0.227351	-0.000017
C27	C	0.991408	-0.255430	-0.000017
C28	C	0.915736	-0.210676	-0.000026
C29	C	0.917023	-0.137851	-0.000020
N30	N	0.932576	-0.363573	0.052285
N31	N	0.931358	-0.432754	0.052281
C32	C	0.987524	-0.474848	-0.000035
N33	N	1.044967	-0.445148	-0.052337
N34	N	1.046187	-0.375961	-0.052330
C35	C	0.990003	-0.334396	-0.000023
C36	C	1.061798	-0.598560	-0.000049
C37	C	1.060510	-0.671388	-0.000070
C38	C	0.907884	-0.654711	-0.000069
C39	C	0.909174	-0.581885	-0.000058
C40	C	0.986134	-0.553814	-0.000044
C41	C	1.141875	0.090255	-0.000038
C42	C	1.234823	0.091616	-0.000046
C43	C	0.982190	0.223030	-0.000057
C44	C	0.983558	0.300538	-0.000071
N45	N	0.988729	0.095387	0.218670
N46	N	0.988818	0.095365	-0.218739
C47	C	0.988788	0.095373	0.592761
C48	C	0.919561	0.152550	0.553586
C49	C	0.919720	0.152758	0.446498
C50	C	0.988758	0.095380	0.407170
C51	C	1.076067	0.111276	0.446003
C52	C	1.075678	0.111683	0.553124
C53	C	0.971487	0.022129	0.553304
C54	C	0.969482	0.022618	0.446176
C55	C	0.988747	0.095383	0.302282
C56	C	0.988806	0.095371	0.697649
H57	H	0.432434	0.000263	0.091792
H58	H	0.853081	-0.233543	-0.000028
H59	H	1.124463	-0.575704	-0.000042
H60	H	1.122126	-0.707819	-0.000072
H61	H	0.561928	0.086451	-0.153051
H62	H	0.909218	0.006840	0.580375
Cl63	Cl	0.821897	-0.081597	-0.000024
H64	H	0.854443	0.143237	0.579377
Cl65	Cl	0.811143	-0.690004	-0.000074
H66	H	0.418564	0.079601	-0.153487
H67	H	0.575638	0.001734	0.090999
H68	H	1.016649	-0.021923	0.419409
Cl69	Cl	0.814050	-0.525632	-0.000058
H70	H	1.091726	0.164083	0.419156
Cl71	Cl	0.383035	0.217329	0.096212
H72	H	0.854813	0.143289	0.420245
Cl73	Cl	1.163485	-0.283612	-0.000013
H74	H	1.021974	-0.020420	0.578637
H75	H	1.128787	0.071679	0.579036
Cl76	Cl	0.936347	0.235998	0.595096
H77	H	0.433181	-0.001546	-0.087553
Cl78	Cl	0.870325	0.003989	0.406994
Cl79	Cl	0.574356	0.099419	0.188557
Cl80	Cl	0.936701	0.236683	0.406899
H81	H	1.132311	-0.131674	0.000006
Cl82	Cl	0.594660	-0.027788	-0.096294
H83	H	0.543625	0.203288	-0.062962
H84	H	1.090965	0.165098	0.578090
Cl85	Cl	1.157488	0.048690	0.406674
H86	H	0.399934	0.201349	-0.063337
H87	H	0.542974	0.203480	0.062962
H88	H	0.419848	0.083801	0.153394
