data_functionalizedCrystal
_audit_creation_method	'MofGen! by Chris Wilmer'
_symmetry_space_group_name_H-M	'P1'
_symmetry_Int_Tables_number	1
_symmetry_cell_setting	triclinic
loop_
_symmetry_equiv_pos_as_xyz
  x,y,z
_cell_length_a	17.640280
_cell_length_b	19.077142
_cell_length_c	19.076919
_cell_angle_alpha	89.925643
_cell_angle_beta	81.491119
_cell_angle_gamma	103.907983
loop_
_atom_site_label
_atom_site_type_symbol
_atom_site_fract_x
_atom_site_fract_y
_atom_site_fract_z
Zn1	Zn	-0.382654	-1.129878	-0.374529
Zn2	Zn	-0.509824	-1.158316	-0.235113
Zn3	Zn	-0.372057	-1.015113	-0.254144
Zn4	Zn	-0.509345	-1.036048	-0.347945
O5	O	-0.443470	-1.084839	-0.302933
O6	O	-0.404159	-1.232850	-0.359196
O7	O	-0.487315	-1.142460	-0.140036
O8	O	-0.262786	-1.009674	-0.289204
O9	O	-0.497590	-1.253743	-0.256768
O10	O	-0.270572	-1.093991	-0.377650
O11	O	-0.386097	-1.037249	-0.154018
O12	O	-0.385633	-0.918691	-0.263426
O13	O	-0.496774	-1.045355	-0.449073
O14	O	-0.486498	-0.934072	-0.332341
O15	O	-0.403694	-1.114291	-0.468604
O16	O	-0.620437	-1.162760	-0.230991
O17	O	-0.620085	-1.072931	-0.313887
C18	C	-0.434864	-0.900660	-0.297064
C19	C	-0.431202	-0.821871	-0.294566
C20	C	-0.482070	-0.792899	-0.329190
C21	C	-0.478619	-0.718866	-0.326848
C22	C	-0.424303	-0.673807	-0.289879
C23	C	-0.373430	-0.702784	-0.255254
C24	C	-0.376878	-0.776814	-0.257601
C25	C	-0.408349	-0.451534	-0.279028
C26	C	-0.404906	-0.377499	-0.276682
C27	C	-0.510095	-0.393587	-0.348278
C28	C	-0.513541	-0.467619	-0.350617
C29	C	-0.462665	-0.496588	-0.315996
N30	N	-0.420776	-0.598134	-0.287483
N31	N	-0.466189	-0.572260	-0.318396
C32	C	-0.648960	-1.123222	-0.267505
C33	C	-0.736873	-1.139707	-0.252374
C34	C	-1.025211	-0.959890	-0.418144
C35	C	-1.107818	-0.975382	-0.403904
C36	C	-1.108126	-1.068975	-0.317675
C37	C	-1.025517	-1.053493	-0.331911
C38	C	-0.984066	-0.998950	-0.382145
C39	C	-0.984372	-1.092553	-0.295912
C40	C	-0.901771	-1.077070	-0.310144
C41	C	-0.860314	-1.022527	-0.360374
C42	C	-0.901464	-0.983467	-0.396376
C43	C	-1.025824	-1.147093	-0.245674
C44	C	-0.984680	-1.186152	-0.209676
C45	C	-0.902077	-1.170673	-0.223911
C46	C	-0.860620	-1.116130	-0.274141
C47	C	-0.860926	-1.209733	-0.187908
C48	C	-0.778324	-1.194250	-0.202140
C49	C	-0.778018	-1.100647	-0.288373
C50	C	-0.237179	-1.046325	-0.338515
C51	C	-0.149270	-1.029912	-0.353678
C52	C	-0.451363	-1.078987	-0.484853
C53	C	-0.454726	-1.076493	-0.562377
C54	C	-0.452106	-0.269736	-0.308817
C55	C	-0.455774	-0.348527	-0.311306
C56	C	-0.407847	-1.111210	-0.608967
C57	C	-0.411004	-1.108858	-0.681809
C58	C	-0.461044	-1.071791	-0.708058
C59	C	-0.507925	-1.037069	-0.661462
C60	C	-0.504764	-1.039418	-0.588622
C61	C	-0.475692	-1.060915	-0.924815
C62	C	-0.478852	-1.058570	-0.997661
C63	C	-0.381929	-1.130358	-1.018003
C64	C	-0.378776	-1.132707	-0.945160
C65	C	-0.425653	-1.097982	-0.898571
N66	N	-0.464274	-1.069388	-0.782514
N67	N	-0.422419	-1.100382	-0.824117
C68	C	-0.435553	-1.090699	-0.121732
C69	C	-0.431973	-1.093288	-0.044251
H70	H	-0.366928	-0.475113	-0.250830
N71	N	-0.324792	-1.172686	-0.916868
H72	H	-0.268322	-1.150711	-0.938948
H73	H	-0.329958	-1.168903	-0.863654
N74	N	-0.905636	-1.268548	-0.133717
H75	H	-0.964207	-1.272425	-0.130159
H76	H	-0.893995	-1.316106	-0.148715
N77	N	-1.114916	-1.163792	-0.230326
H78	H	-1.137594	-1.215718	-0.241311
H79	H	-1.132086	-1.156028	-0.178624
N80	N	-0.314861	-0.654187	-0.215367
H81	H	-0.278060	-0.615716	-0.249090
H82	H	-0.344189	-0.630563	-0.176497
N83	N	-0.360426	-1.146286	-0.732063
H84	H	-0.328245	-1.170123	-0.704381
H85	H	-0.395451	-1.184127	-0.757791
H86	H	-0.744824	-1.226056	-0.172825
N87	N	-0.555324	-1.001965	-0.538375
H88	H	-0.612899	-1.023112	-0.541652
H89	H	-0.545663	-1.009080	-0.488272
N90	N	-0.540659	-0.841497	-0.369059
H91	H	-0.572358	-0.811906	-0.390638
H92	H	-0.511356	-0.865177	-0.407897
H93	H	-0.343763	-1.158629	-1.055943
N94	N	-0.572129	-0.516208	-0.390493
H95	H	-0.561496	-0.499452	-0.442039
H96	H	-0.566573	-0.567489	-0.386672
N97	N	-0.771221	-1.005822	-0.375721
H98	H	-0.754101	-1.050285	-0.393569
H99	H	-0.751269	-0.965322	-0.412987
H100	H	-0.867714	-0.939057	-0.437288
H101	H	-0.991460	-0.915480	-0.459055
N102	N	-0.532813	-1.018563	-1.025960
H103	H	-0.500433	-0.978741	-1.060673
H104	H	-0.572127	-1.053272	-1.050743
N105	N	-0.533492	-0.687621	-0.364185
H106	H	-0.523066	-0.633885	-0.357093
H107	H	-0.524040	-0.696688	-0.416533
H108	H	-0.513876	-1.032651	-0.886889
H109	H	-1.018440	-1.230560	-0.168773
N110	N	-1.152198	-0.933255	-0.442736
H111	H	-1.183740	-0.907771	-0.407407
H112	H	-1.113355	-0.896392	-0.476717
H113	H	-0.548666	-1.006886	-0.682841
N114	N	-0.353882	-1.151197	-0.580655
H115	H	-0.297406	-1.129231	-0.602723
H116	H	-0.359065	-1.147408	-0.527442
N117	N	-0.564965	-0.362341	-0.385618
H118	H	-0.554542	-0.308606	-0.378523
H119	H	-0.555508	-0.371407	-0.437965
N120	N	-0.322008	-0.808066	-0.220263
H121	H	-0.287076	-0.768289	-0.196486
H122	H	-0.354169	-0.845821	-0.183371
H123	H	-0.360667	-0.340812	-0.246583
H124	H	-0.744268	-1.056237	-0.329284
N125	N	-1.152834	-1.127794	-0.263488
H126	H	-1.211406	-1.131675	-0.259932
H127	H	-1.141189	-1.175349	-0.278492
