data_functionalizedCrystal
_audit_creation_method	'MofGen! by Chris Wilmer'
_symmetry_space_group_name_H-M	'P1'
_symmetry_Int_Tables_number	1
_symmetry_cell_setting	triclinic
loop_
_symmetry_equiv_pos_as_xyz
  x,y,z
_cell_length_a	14.044220
_cell_length_b	14.044190
_cell_length_c	7.540329
_cell_angle_alpha	89.991504
_cell_angle_beta	90.001925
_cell_angle_gamma	93.190328
loop_
_atom_site_label
_atom_site_type_symbol
_atom_site_fract_x
_atom_site_fract_y
_atom_site_fract_z
O1	O	1.277172	0.230167	-0.147330
O2	O	1.000500	0.221861	-0.147373
O3	O	1.134680	0.087678	-0.147317
O4	O	1.142992	0.364350	-0.147386
O5	O	1.134671	0.087675	0.147648
O6	O	1.000491	0.221859	0.147592
O7	O	1.277163	0.230164	0.147635
Cu8	Cu	1.138826	0.226011	0.174546
Cu9	Cu	1.138837	0.226014	-0.174284
O10	O	1.142983	0.364348	0.147579
C11	C	0.964874	0.218224	0.000104
C12	C	0.858731	0.207380	0.000089
C13	C	0.664392	0.187553	0.000129
C14	C	0.613264	0.264468	0.000117
C15	C	0.505128	0.253436	0.000140
C16	C	0.772539	0.198583	0.000107
C17	C	1.131039	0.052054	0.000170
C18	C	1.120191	-0.054089	0.000184
C19	C	1.177292	-0.299547	0.000123
C20	C	1.100375	-0.248422	0.000123
C21	C	1.111404	-0.140285	0.000157
C22	C	1.166265	-0.407694	0.000090
C23	C	1.312789	0.233801	0.000154
C24	C	1.418932	0.244646	0.000157
C25	C	1.146624	0.399971	0.000088
C26	C	1.157472	0.506114	0.000063
N27	N	1.138826	0.226009	0.419895
N28	N	1.138844	0.226009	-0.419633
H29	H	0.650706	0.338602	0.000090
H30	H	0.626954	0.113425	0.000157
H31	H	1.026243	-0.285865	0.000101
O32	O	1.265657	-0.254735	0.000246
C33	C	1.257133	-0.155178	0.000233
H34	H	1.184563	-0.138233	0.056051
H35	H	1.264071	-0.127032	-0.141264
C36	C	1.425610	-0.128150	0.047401
C37	C	1.336482	-0.107337	0.115972
H38	H	1.474558	-0.098638	0.118786
H39	H	1.431355	-0.195223	0.047403
H40	H	1.431378	-0.104694	-0.070512
H41	H	1.330711	-0.130804	0.233873
H42	H	1.330738	-0.040267	0.115992
