data_functionalizedCrystal
_audit_creation_method	'MofGen! by Chris Wilmer'
_symmetry_space_group_name_H-M	'P1'
_symmetry_Int_Tables_number	1
_symmetry_cell_setting	triclinic
loop_
_symmetry_equiv_pos_as_xyz
  x,y,z
_cell_length_a	21.395364
_cell_length_b	11.169416
_cell_length_c	21.395355
_cell_angle_alpha	90.011418
_cell_angle_beta	90.024552
_cell_angle_gamma	90.025100
loop_
_atom_site_label
_atom_site_type_symbol
_atom_site_fract_x
_atom_site_fract_y
_atom_site_fract_z
Zn1	Zn	0.957949	-0.477467	0.354292
Zn2	Zn	0.957889	-0.678138	0.249528
Zn3	Zn	0.853164	-0.477520	0.249529
Zn4	Zn	0.853170	-0.678159	0.354268
O5	O	0.905543	-0.577821	0.301904
O6	O	1.045619	-0.504056	0.340405
O7	O	0.943969	-0.651539	0.161850
O8	O	0.867086	-0.309563	0.263437
O9	O	1.045575	-0.651488	0.263435
O10	O	0.944071	-0.309525	0.340406
O11	O	0.867028	-0.504145	0.161851
O12	O	0.765487	-0.504166	0.263413
O13	O	0.867097	-0.651524	0.441949
O14	O	0.765492	-0.651575	0.340365
O15	O	0.944078	-0.504077	0.441967
O16	O	0.943975	-0.846091	0.263411
O17	O	0.867039	-0.846106	0.340363
C18	C	0.742755	-0.577880	0.301887
C19	C	0.673114	-0.577933	0.301894
C20	C	0.640446	-0.501291	0.342034
C21	C	0.575011	-0.501259	0.342037
C22	C	0.542246	-0.577891	0.301906
C23	C	0.574921	-0.654539	0.261757
C24	C	0.640356	-0.654560	0.261752
C25	C	0.438542	-0.685974	0.296875
C26	C	0.373109	-0.685955	0.296885
C27	C	0.340425	-0.577825	0.301919
C28	C	0.373182	-0.469711	0.306957
C29	C	0.438616	-0.469732	0.306951
C30	C	0.471293	-0.577876	0.301907
C31	C	0.236805	-0.501142	0.342064
C32	C	0.171368	-0.501108	0.342062
C33	C	0.171280	-0.654398	0.261786
C34	C	0.236715	-0.654421	0.261785
C35	C	0.269474	-0.577795	0.301928
C36	C	0.905519	-0.889646	0.301898
C37	C	0.905566	-1.023046	0.301917
C38	C	1.068966	-0.577763	0.301922
C39	C	1.138607	-0.577739	0.301930
C40	C	0.905595	-0.577797	0.465328
C41	C	0.905617	-0.577786	0.534969
C42	C	0.905584	-0.264779	0.301924
C43	C	0.905602	-0.131379	0.301933
C44	C	0.905527	-0.577759	0.139117
C45	C	0.905626	-0.577431	0.069476
C46	C	0.945699	-0.501007	0.567692
C47	C	0.945698	-0.500956	0.633128
C48	C	0.905622	-0.577705	0.665837
C49	C	0.865532	-0.654489	0.633106
C50	C	0.865530	-0.654530	0.567672
C51	C	0.900666	-0.685772	0.769510
C52	C	0.900673	-0.685734	0.834943
C53	C	0.905626	-0.577578	0.867658
C54	C	0.910585	-0.469458	0.834933
C55	C	0.910582	-0.469499	0.769498
C56	C	0.905620	-0.577668	0.736790
C57	C	0.945709	-0.500736	0.971334
C58	C	0.945704	-0.500683	1.036771
C59	C	0.865541	-0.654227	1.036748
C60	C	0.865543	-0.654270	0.971312
C61	C	0.905630	-0.577526	0.938610
H62	H	0.465285	-0.381702	0.311051
H63	H	0.263478	-0.438740	0.374747
O64	O	0.915927	-0.352889	0.734204
H65	H	0.915098	-0.371095	0.683208
H66	H	0.832900	-0.716975	0.659742
H67	H	0.914619	-0.381387	0.861568
H68	H	0.548407	-0.438842	0.374723
O69	O	0.822314	-0.737093	0.936016
H70	H	0.829041	-0.724221	0.885021
O71	O	0.988935	-0.417955	0.936054
H72	H	1.016800	-0.364540	0.969805
H73	H	0.263314	-0.716836	0.229101
H74	H	0.346573	-0.381661	0.311057
H75	H	0.978342	-0.438153	1.063413
H76	H	0.832904	-0.716705	1.063379
H77	H	0.144771	-0.438689	0.374748
O78	O	0.135951	-0.737055	0.218500
H79	H	0.084962	-0.724170	0.225249
H80	H	0.896639	-0.773772	0.861583
O81	O	0.822282	-0.737329	0.532380
H82	H	0.833004	-0.831520	0.544944
O83	O	0.675772	-0.418628	0.385325
H84	H	0.705581	-0.472438	0.417158
H85	H	0.896465	-0.773823	0.742879
H86	H	0.346443	-0.773988	0.292786
O87	O	0.473792	-0.802608	0.291449
H88	H	0.440023	-0.877781	0.287959
O89	O	0.539588	-0.737189	0.218469
H90	H	0.509775	-0.798333	0.246459
O91	O	0.675597	-0.737229	0.218457
H92	H	0.641823	-0.790514	0.190551
H93	H	0.978336	-0.438426	0.659776
O94	O	0.988931	-0.418234	0.532418
H95	H	1.016800	-0.364830	0.566171
