data_functionalizedCrystal
_audit_creation_method	'MofGen! by Chris Wilmer'
_symmetry_space_group_name_H-M	'P1'
_symmetry_Int_Tables_number	1
_symmetry_cell_setting	triclinic
loop_
_symmetry_equiv_pos_as_xyz
  x,y,z
_cell_length_a	14.519709
_cell_length_b	14.519709
_cell_length_c	9.130307
_cell_angle_alpha	89.995756
_cell_angle_beta	90.004095
_cell_angle_gamma	83.680145
loop_
_atom_site_label
_atom_site_type_symbol
_atom_site_fract_x
_atom_site_fract_y
_atom_site_fract_z
O1	O	1.223864	0.120890	-0.121612
O2	O	1.557197	0.454223	0.211721
O3	O	1.890530	0.787556	0.545055
O4	O	0.955387	0.135126	-0.121657
O5	O	1.288720	0.468460	0.211676
O6	O	1.622053	0.801793	0.545010
O7	O	1.096744	-0.006230	-0.121620
O8	O	1.430077	0.327103	0.211713
O9	O	1.763410	0.660436	0.545047
O10	O	1.082507	0.262246	-0.121649
O11	O	1.415840	0.595580	0.211684
O12	O	1.749174	0.928913	0.545018
O13	O	1.096739	-0.006232	0.121979
O14	O	1.430072	0.327101	0.455312
O15	O	1.763406	0.660435	0.788646
O16	O	0.955382	0.135125	0.121942
O17	O	1.288716	0.468458	0.455275
O18	O	1.622049	0.801792	0.788609
O19	O	1.223859	0.120888	0.121987
O20	O	1.557192	0.454222	0.455320
O21	O	1.890526	0.787555	0.788654
Cu22	Cu	1.089620	0.128006	0.144207
Cu23	Cu	1.422954	0.461340	0.477540
Cu24	Cu	1.756287	0.794673	0.810874
Cu25	Cu	1.089626	0.128008	-0.143877
Cu26	Cu	1.422959	0.461341	0.189456
Cu27	Cu	1.756292	0.794675	0.522790
O28	O	1.082502	0.262245	0.121950
O29	O	1.415836	0.595578	0.455283
O30	O	1.749169	0.928912	0.788617
C31	C	0.921025	0.134462	0.000137
C32	C	1.254358	0.467795	0.333470
C33	C	1.587691	0.801129	0.666803
C34	C	0.818643	0.132474	0.000120
C35	C	1.151977	0.465807	0.333453
C36	C	1.485310	0.799141	0.666787
C37	C	0.443748	0.125154	0.000187
C38	C	0.777081	0.458488	0.333521
C39	C	1.110414	0.791821	0.666854
C40	C	0.548056	0.127187	0.000168
C41	C	0.881389	0.460520	0.333502
C42	C	1.214722	0.793854	0.666835
C43	C	0.631192	0.128814	0.000152
C44	C	0.964526	0.462147	0.333486
C45	C	1.297859	0.795481	0.666819
C46	C	0.735507	0.130847	0.000136
C47	C	1.068840	0.464180	0.333469
C48	C	1.402173	0.797514	0.666803
C49	C	1.096078	-0.040591	0.000180
C50	C	1.429411	0.292742	0.333513
C51	C	1.762744	0.626076	0.666846
C52	C	1.094090	-0.142972	0.000180
C53	C	1.427423	0.190361	0.333513
C54	C	1.760756	0.523694	0.666847
C55	C	1.086770	-0.517868	0.000141
C56	C	1.420103	-0.184535	0.333474
C57	C	1.753437	0.148799	0.666807
C58	C	1.088803	-0.413560	0.000152
C59	C	1.422136	-0.080227	0.333485
C60	C	1.755469	0.253107	0.666819
C61	C	1.090430	-0.330423	0.000162
C62	C	1.423763	0.002910	0.333495
C63	C	1.757096	0.336243	0.666828
C64	C	1.092463	-0.226109	0.000170
C65	C	1.425796	0.107224	0.333504
C66	C	1.759129	0.440558	0.666837
C67	C	1.258221	0.121553	0.000190
C68	C	1.591554	0.454886	0.333523
C69	C	1.924888	0.788219	0.666857
C70	C	1.360602	0.123541	0.000197
C71	C	1.693936	0.456874	0.333531
C72	C	2.027269	0.790207	0.666864
C73	C	1.083168	0.296606	0.000147
C74	C	1.416502	0.629939	0.333481
C75	C	1.749835	0.963272	0.666814
C76	C	1.085156	0.398987	0.000137
C77	C	1.418490	0.732320	0.333471
C78	C	1.751823	1.065653	0.666804
N79	N	1.089623	0.128005	0.346830
N80	N	1.422956	0.461338	0.680163
N81	N	1.756290	0.794671	1.013496
N82	N	1.089630	0.128002	-0.346500
N83	N	1.422963	0.461336	-0.013166
N84	N	1.756297	0.794669	0.320167
C85	C	1.214845	0.002870	0.346853
C86	C	1.548179	0.336203	0.680186
C87	C	1.881512	0.669536	1.013519
C88	C	1.277463	-0.059695	0.423531
C89	C	1.610796	0.273638	0.756864
C90	C	1.944129	0.606971	1.090197
C91	C	1.277472	-0.059696	0.576864
C92	C	1.610805	0.273637	0.910197
C93	C	1.944139	0.606971	1.243531
C94	C	1.214855	0.002873	0.653523
C95	C	1.548189	0.336207	0.986856
C96	C	1.881522	0.669540	1.320190
C97	C	1.152238	0.065438	0.576845
C98	C	1.485571	0.398771	0.910178
C99	C	1.818905	0.732105	1.243512
C100	C	1.152237	0.065434	0.423508
C101	C	1.485571	0.398767	0.756841
C102	C	1.818904	0.732101	1.090175
C103	C	1.027013	0.190567	0.576822
C104	C	1.360346	0.523901	0.910155
C105	C	1.693679	0.857234	1.243489
C106	C	1.027006	0.190574	0.423489
C107	C	1.360340	0.523907	0.756822
C108	C	1.693673	0.857241	1.090155
C109	C	0.964396	0.253137	0.653481
C110	C	1.297730	0.586470	0.986814
C111	C	1.631063	0.919803	1.320148
C112	C	0.901782	0.315708	0.576803
C113	C	1.235115	0.649041	0.910136
C114	C	1.568449	0.982374	1.243470
C115	C	0.901776	0.315706	0.423460
C116	C	1.235109	0.649040	0.756793
C117	C	1.568443	0.982373	1.090127
C118	C	0.964389	0.253139	0.346811
C119	C	1.297723	0.586472	0.680144
C120	C	1.631056	0.919806	1.013477
H121	H	1.214852	0.002871	0.222000
H122	H	1.548185	0.336205	0.555334
H123	H	1.881519	0.669538	0.888667
H124	H	1.328443	-0.110641	0.361102
H125	H	1.661776	0.222693	0.694435
H126	H	1.995110	0.556026	1.027768
H127	H	1.328457	-0.110645	0.639296
H128	H	1.661790	0.222688	0.972629
H129	H	1.995124	0.556022	1.305962
H130	H	0.850800	0.366643	0.639228
H131	H	1.184133	0.699976	0.972561
H132	H	1.517466	1.033310	1.305895
H133	H	1.214859	0.002861	0.778375
H134	H	1.548192	0.336194	1.111708
H135	H	1.881526	0.669528	1.445042
N136	N	0.964408	0.253119	0.810106
N137	N	1.297742	0.586453	1.143440
N138	N	1.631075	0.919786	1.476773
N139	N	1.020320	0.197255	0.878555
N140	N	1.353653	0.530588	1.211888
N141	N	1.686987	0.863921	1.545221
H142	H	1.020329	0.197244	0.989174
H143	H	1.353662	0.530577	1.322507
H144	H	1.686996	0.863910	1.655841
H145	H	0.850782	0.366651	0.361037
H146	H	1.184115	0.699984	0.694370
H147	H	1.517449	1.033318	1.027703
H148	H	0.964393	0.253136	0.221958
H149	H	1.297727	0.586469	0.555292
H150	H	1.631060	0.919802	0.888625
