data_functionalizedCrystal
_audit_creation_method	'MofGen! by Chris Wilmer'
_symmetry_space_group_name_H-M	'P1'
_symmetry_Int_Tables_number	1
_symmetry_cell_setting	triclinic
loop_
_symmetry_equiv_pos_as_xyz
  x,y,z
_cell_length_a	14.971486
_cell_length_b	9.065218
_cell_length_c	14.048226
_cell_angle_alpha	89.995444
_cell_angle_beta	89.998499
_cell_angle_gamma	84.315007
loop_
_atom_site_label
_atom_site_type_symbol
_atom_site_fract_x
_atom_site_fract_y
_atom_site_fract_z
O1	O	1.188380	0.192261	-0.079047
O2	O	0.928151	0.215285	-0.079073
O3	O	1.063645	-0.010979	-0.079057
O4	O	1.052887	0.418524	-0.079062
O5	O	1.063628	-0.010992	0.079264
O6	O	0.928135	0.215271	0.079249
O7	O	1.188363	0.192248	0.079274
Zn8	Zn	1.058246	0.203758	0.104398
Zn9	Zn	1.058268	0.203775	-0.104197
O10	O	1.052870	0.418511	0.079259
C11	C	0.894811	0.214248	0.000085
C12	C	0.795491	0.211163	0.000075
C13	C	0.739256	0.344086	0.000075
C14	C	0.645935	0.341178	0.000089
C15	C	0.608850	0.205345	0.000097
C16	C	0.665092	0.072412	0.000100
C17	C	0.758411	0.075321	0.000092
C18	C	0.470584	0.066357	0.000113
C19	C	0.377259	0.063446	0.000118
C20	C	0.358108	0.332214	0.000110
C21	C	0.451427	0.335123	0.000102
C22	C	0.507663	0.202189	0.000103
C23	C	1.062602	-0.065951	0.000102
C24	C	1.059511	-0.229731	0.000097
C25	C	1.221704	0.193284	0.000115
C26	C	1.321024	0.196370	0.000118
C27	C	1.053912	0.473483	0.000098
C28	C	1.057004	0.637264	0.000097
N29	N	1.058238	0.203745	0.246759
N30	N	1.058284	0.203776	-0.246557
C31	C	1.118254	0.103597	0.296584
C32	C	1.118260	0.103596	0.396242
C33	C	1.058254	0.203751	0.446073
C34	C	0.998231	0.303904	0.396241
C35	C	0.998222	0.303896	0.296585
C36	C	0.998257	0.303915	0.603955
C37	C	0.998268	0.303924	0.703618
C38	C	1.118295	0.103614	0.703612
C39	C	1.118286	0.103607	0.603956
C40	C	1.058264	0.203762	0.554131
H41	H	0.804197	-0.032919	0.000092
H42	H	0.516370	-0.041893	0.000115
C43	C	0.933004	0.412704	0.757551
C44	C	0.880412	0.500372	0.692589
C45	C	0.820268	0.600575	0.742237
H46	H	0.965562	0.474362	0.796425
H47	H	0.895310	0.359541	0.796412
H48	H	0.918101	0.553531	0.653745
H49	H	0.847835	0.438755	0.653713
H50	H	0.782574	0.547412	0.781098
H51	H	0.852834	0.662222	0.781110
H52	H	0.784572	0.660060	0.698169
H53	H	1.167166	0.022064	0.744185
H54	H	0.634890	-0.038186	0.000119
C55	C	0.933237	0.412728	0.549734
C56	C	0.981608	0.503137	0.492489
C57	C	0.921747	0.603381	0.442517
H58	H	0.897477	0.472527	0.593572
H59	H	0.895585	0.359591	0.510813
H60	H	1.019244	0.556270	0.531407
H61	H	1.017364	0.443380	0.448634
H62	H	0.884095	0.550244	0.403596
H63	H	0.885990	0.663169	0.486362
H64	H	0.954557	0.664726	0.403664
H65	H	0.600152	0.449418	0.000088
H66	H	1.167128	0.022047	0.436808
C67	C	1.183467	-0.004946	0.242410
C68	C	1.238870	0.073731	0.185171
C69	C	1.298943	-0.026231	0.135255
H70	H	1.150854	-0.066450	0.203484
H71	H	1.219264	-0.064608	0.286310
H72	H	1.203077	0.133367	0.141277
H73	H	1.271503	0.135229	0.224074
H74	H	1.334740	-0.085893	0.179155
H75	H	1.266323	-0.087729	0.096334
H76	H	1.336546	0.027137	0.096419
C77	C	0.933168	0.412871	0.242535
C78	C	0.948859	0.557891	0.266741
C79	C	0.888953	0.658316	0.216961
H80	H	0.873309	0.396885	0.258837
H81	H	0.941760	0.398621	0.176039
H82	H	0.940260	0.572136	0.333222
H83	H	1.008706	0.573924	0.250436
H84	H	0.897544	0.644065	0.150464
H85	H	0.829098	0.642316	0.233267
H86	H	0.899596	0.756723	0.233370
C87	C	1.183474	-0.005296	0.550023
C88	C	1.236023	-0.093034	0.614984
C89	C	1.296075	-0.193387	0.565337
H90	H	1.221212	0.047706	0.511133
H91	H	1.150819	-0.066880	0.511178
H92	H	1.268676	-0.031458	0.653813
H93	H	1.198310	-0.146069	0.653877
H94	H	1.263420	-0.254971	0.526492
H95	H	1.333807	-0.140373	0.526448
H96	H	1.331731	-0.252938	0.609405
H97	H	0.769442	0.454697	0.000068
H98	H	0.481618	0.445730	0.000087
H99	H	0.347068	-0.047161	0.000126
C100	C	0.296953	0.476436	-0.000039
C101	C	0.242798	0.482600	-0.081474
C102	C	0.186440	0.615421	-0.081644
H103	H	0.332295	0.557867	-0.000099
H104	H	0.260101	0.480908	0.055147
H105	H	0.279645	0.478142	-0.136645
H106	H	0.207436	0.401199	-0.081430
H107	H	0.149589	0.619892	-0.026458
H108	H	0.221790	0.696841	-0.081702
H109	H	0.149684	0.619614	-0.136892
H110	H	0.949369	0.385447	0.436819
