data_functionalizedCrystal
_audit_creation_method	'MofGen! by Chris Wilmer'
_symmetry_space_group_name_H-M	'P1'
_symmetry_Int_Tables_number	1
_symmetry_cell_setting	triclinic
loop_
_symmetry_equiv_pos_as_xyz
  x,y,z
_cell_length_a	10.540558
_cell_length_b	10.654550
_cell_length_c	9.130313
_cell_angle_alpha	90.004369
_cell_angle_beta	90.002217
_cell_angle_gamma	84.509033
loop_
_atom_site_label
_atom_site_type_symbol
_atom_site_fract_x
_atom_site_fract_y
_atom_site_fract_z
O1	O	-1.685808	-0.177104	-0.121756
O2	O	-1.316392	-0.193755	-0.121768
O3	O	-1.509594	-0.002694	-0.121752
O4	O	-1.492607	-0.368165	-0.121771
O5	O	-1.509580	-0.002688	0.121847
O6	O	-1.316379	-0.193750	0.121831
O7	O	-1.685795	-0.177098	0.121843
Cu8	Cu	-1.501086	-0.185423	0.144080
Cu9	Cu	-1.501101	-0.185430	-0.144004
O10	O	-1.492593	-0.368160	0.121828
C11	C	-1.269083	-0.192499	0.000030
C12	C	-1.128138	-0.188748	0.000025
N13	N	-1.501084	-0.185418	0.346702
C14	C	-0.944764	-0.045364	0.000604
C15	C	-1.091379	-0.049167	0.000038
C16	C	-1.066449	-0.255918	-0.139079
C17	C	-0.919908	-0.251145	-0.139178
C18	C	-0.919403	-0.253978	0.137840
C19	C	-1.066383	-0.255273	0.139661
C20	C	-1.508340	0.044108	0.000046
C21	C	-1.504608	0.183552	0.000044
C22	C	-0.733106	-0.178338	0.000046
C23	C	-0.874057	-0.182039	0.000052
C24	C	-1.493847	-0.414961	0.000026
C25	C	-1.497579	-0.554406	0.000018
C26	C	-1.618362	0.262990	0.000047
C27	C	-1.614848	0.394013	0.000029
C28	C	-1.383816	0.366146	0.000011
C29	C	-1.387331	0.235126	0.000018
N30	N	-1.501113	-0.185425	-0.346627
C31	C	-1.586663	-0.100852	0.423361
C32	C	-1.586675	-0.100852	0.576698
C33	C	-1.415525	-0.269996	0.576704
C34	C	-1.415508	-0.269988	0.423370
H35	H	-1.134007	0.003685	0.099754
C36	C	-1.816361	0.246384	-0.125179
C37	C	-1.747268	0.206294	0.000051
H38	H	-1.895940	0.211376	-0.125183
H39	H	-1.830545	0.335772	-0.125172
H40	H	-1.769461	0.219171	-0.210115
H41	H	-1.794164	0.233515	0.084987
H42	H	-1.733087	0.116886	0.000056
H43	H	-1.090572	-0.357036	0.148054
H44	H	-1.288333	0.408154	-0.000007
H45	H	-1.294693	0.170444	0.000011
H46	H	-0.916193	0.009781	0.100365
H47	H	-1.656342	-0.031988	0.360942
H48	H	-0.914582	0.009543	-0.098594
C49	C	-1.182270	-0.281905	-0.361758
C50	C	-1.123977	-0.192939	-0.278828
H51	H	-1.217795	-0.243016	-0.448024
H52	H	-1.120662	-0.349113	-0.387839
H53	H	-1.247903	-0.313904	-0.305658
H54	H	-1.058337	-0.160946	-0.334925
H55	H	-1.185590	-0.125708	-0.252751
H56	H	-1.133149	0.004053	-0.099847
H57	H	-1.656359	-0.031989	0.639109
H58	H	-1.107357	-0.206203	0.242570
C59	C	-1.246338	-0.437197	0.438765
C60	C	-1.321435	-0.362954	0.339094
H61	H	-1.188269	-0.494589	0.386733
H62	H	-1.200228	-0.384483	0.498586
H63	H	-1.299589	-0.482886	0.498555
H64	H	-1.268184	-0.317258	0.279311
H65	H	-1.367549	-0.415675	0.279248
C66	C	-0.918418	-0.250919	-0.402143
C67	C	-0.881850	-0.184118	-0.279535
H68	H	-0.894934	-0.209530	-0.488793
H69	H	-0.877000	-0.334087	-0.399981
H70	H	-1.008126	-0.254423	-0.400818
H71	H	-0.792141	-0.180621	-0.280854
H72	H	-0.923265	-0.100927	-0.281699
H73	H	-0.871903	-0.351524	-0.145496
H74	H	-1.707478	0.458687	0.000029
C75	C	-1.171156	-0.420991	-0.025172
C76	C	-1.096580	-0.394293	-0.146094
H77	H	-1.189764	-0.506416	-0.029510
H78	H	-1.125861	-0.407444	0.062464
H79	H	-1.248431	-0.367231	-0.026481
H80	H	-1.019300	-0.448047	-0.144779
H81	H	-1.141874	-0.407853	-0.233753
C82	C	-0.809596	-0.089703	0.245936
C83	C	-0.877065	-0.192838	0.280190
H84	H	-0.783531	-0.051901	0.333815
H85	H	-0.736667	-0.117528	0.189347
H86	H	-0.862845	-0.029725	0.191436
H87	H	-0.823812	-0.252821	0.334682
H88	H	-0.950004	-0.165014	0.336804
H89	H	-0.872140	-0.354791	0.138775
H90	H	-1.345853	-0.338853	0.639141
