data_functionalizedCrystal
_audit_creation_method	'MofGen! by Chris Wilmer'
_symmetry_space_group_name_H-M	'P1'
_symmetry_Int_Tables_number	1
_symmetry_cell_setting	triclinic
loop_
_symmetry_equiv_pos_as_xyz
  x,y,z
_cell_length_a	14.044220
_cell_length_b	13.101039
_cell_length_c	14.519709
_cell_angle_alpha	86.632446
_cell_angle_beta	88.434511
_cell_angle_gamma	93.659868
loop_
_atom_site_label
_atom_site_type_symbol
_atom_site_fract_x
_atom_site_fract_y
_atom_site_fract_z
O1	O	1.263284	0.085109	0.217712
O2	O	1.763284	0.585109	0.717712
O3	O	0.987302	0.085135	0.209687
O4	O	1.487302	0.585135	0.709687
O5	O	1.132610	0.085112	0.080052
O6	O	1.632610	0.585112	0.580052
O7	O	1.117976	0.085132	0.347347
O8	O	1.617976	0.585132	0.847347
O9	O	1.122184	-0.085316	0.089370
O10	O	1.622184	0.414684	0.589370
O11	O	0.976877	-0.085293	0.219005
O12	O	1.476877	0.414707	0.719005
O13	O	1.252858	-0.085319	0.227030
O14	O	1.752858	0.414681	0.727030
Zn15	Zn	1.113212	-0.112365	0.224497
Zn16	Zn	1.613212	0.387635	0.724497
Zn17	Zn	1.126948	0.112181	0.212220
Zn18	Zn	1.626948	0.612181	0.712220
O19	O	1.107551	-0.085296	0.356665
O20	O	1.607551	0.414704	0.856665
C21	C	0.946769	-0.000076	0.210833
C22	C	1.446769	0.499924	0.710833
C23	C	0.841527	-0.000066	0.200355
C24	C	1.341527	0.499934	0.700355
C25	C	0.648831	-0.000088	0.181202
C26	C	1.148831	0.499912	0.681202
C27	C	0.591324	-0.000087	0.255510
C28	C	1.091324	0.499913	0.755510
C29	C	0.484102	-0.000099	0.244853
C30	C	0.984102	0.499901	0.744853
C31	C	0.756064	-0.000076	0.191858
C32	C	1.256064	0.499924	0.691858
N33	N	1.103845	-0.265612	0.232875
N34	N	1.603845	0.234388	0.732875
C35	C	1.091099	-0.474653	0.244283
C36	C	1.591099	0.025347	0.744283
C37	C	1.149066	-0.525537	0.192430
C38	C	1.649066	-0.025537	0.692430
C39	C	1.141974	-0.641855	0.198777
C40	C	1.641974	-0.141855	0.698777
C41	C	1.098190	-0.358325	0.237937
C42	C	1.598190	0.141675	0.737937
C43	C	1.293391	-0.000106	0.225884
C44	C	1.793391	0.499894	0.725884
C45	C	1.398635	-0.000108	0.236361
C46	C	1.898635	0.499892	0.736361
C47	C	1.126715	-0.000102	0.050296
C48	C	1.626715	0.499898	0.550296
C49	C	1.124671	-0.000102	-0.052250
C50	C	1.624671	0.499898	0.447750
N51	N	1.136324	0.265428	0.203835
N52	N	1.636324	0.765428	0.703835
C53	C	1.117149	-0.000075	-0.427754
C54	C	1.617149	0.499925	0.072246
C55	C	1.119238	-0.000083	-0.323277
C56	C	1.619238	0.499917	0.176723
C57	C	1.120910	-0.000090	-0.240005
C58	C	1.620910	0.499910	0.259995
C59	C	1.122999	-0.000096	-0.135522
C60	C	1.622999	0.499904	0.364478
C61	C	1.113446	-0.000080	0.386421
C62	C	1.613446	0.499920	0.886421
C63	C	1.115490	-0.000072	0.488967
C64	C	1.615490	0.499928	0.988967
H65	H	0.622617	-0.000076	0.327131
H66	H	1.122617	0.499924	0.827131
H67	H	0.617540	-0.000099	0.109587
H68	H	1.117540	0.499901	0.609587
H69	H	1.204018	-0.481744	0.143270
H70	H	1.704018	0.018256	0.643270
H71	H	1.036152	-0.518441	0.293441
H72	H	1.536152	-0.018441	0.793441
