data_functionalizedCrystal
_audit_creation_method	'MofGen! by Chris Wilmer'
_symmetry_space_group_name_H-M	'P1'
_symmetry_Int_Tables_number	1
_symmetry_cell_setting	triclinic
loop_
_symmetry_equiv_pos_as_xyz
  x,y,z
_cell_length_a	16.109301
_cell_length_b	13.596369
_cell_length_c	14.519709
_cell_angle_alpha	90.006934
_cell_angle_beta	83.570813
_cell_angle_gamma	90.002607
loop_
_atom_site_label
_atom_site_type_symbol
_atom_site_fract_x
_atom_site_fract_y
_atom_site_fract_z
O1	O	1.103338	0.081731	0.118543
O2	O	0.861301	0.081747	0.133295
O3	O	0.988737	0.081730	-0.008333
O4	O	0.975902	0.081749	0.260171
O5	O	0.988724	-0.081853	-0.008341
O6	O	0.861289	-0.081836	0.133287
O7	O	1.103325	-0.081852	0.118535
Zn8	Zn	0.982305	-0.107816	0.125910
Zn9	Zn	0.982322	0.107712	0.125920
O10	O	0.975890	-0.081834	0.260163
C11	C	0.830319	-0.000042	0.132693
C12	C	0.738021	-0.000037	0.130902
N13	N	0.982300	-0.254908	0.125903
C14	C	0.515887	-0.000042	0.210775
C15	C	0.429163	-0.000049	0.209085
C16	C	0.448747	-0.000056	0.041048
C17	C	0.535468	-0.000057	0.042739
C18	C	0.569036	-0.000045	0.127606
C19	C	0.395591	-0.000051	0.124224
C20	C	0.301562	-0.000058	0.122390
C21	C	0.663071	-0.000040	0.129440
C22	C	0.982321	-0.656199	0.125921
C23	C	0.982312	-0.544547	0.125919
C24	C	0.982311	-0.455557	0.125912
C25	C	0.982301	-0.343898	0.125909
C26	C	1.134307	-0.000060	0.119136
C27	C	1.226606	-0.000059	0.120928
C28	C	0.988132	-0.000062	-0.042696
C29	C	0.986340	-0.000062	-0.145073
N30	N	0.982334	0.254803	0.125920
C31	C	0.979741	-0.000036	-0.519955
C32	C	0.981574	-0.000044	-0.415651
C33	C	0.983041	-0.000050	-0.332517
C34	C	0.984873	-0.000056	-0.228207
C35	C	0.976494	-0.000041	0.294526
C36	C	0.978287	-0.000034	0.396903
H37	H	0.543214	-0.000040	0.279879
H38	H	0.578745	-0.000062	-0.024991
H39	H	0.421405	-0.000072	-0.028048
H40	H	0.385892	-0.000049	0.276810
