data_functionalizedCrystal
_audit_creation_method	'MofGen! by Chris Wilmer'
_symmetry_space_group_name_H-M	'P1'
_symmetry_Int_Tables_number	1
_symmetry_cell_setting	triclinic
loop_
_symmetry_equiv_pos_as_xyz
  x,y,z
_cell_length_a	35.277628
_cell_length_b	35.288095
_cell_length_c	35.277682
_cell_angle_alpha	59.997929
_cell_angle_beta	89.998958
_cell_angle_gamma	60.000166
loop_
_atom_site_label
_atom_site_type_symbol
_atom_site_fract_x
_atom_site_fract_y
_atom_site_fract_z
O1	O	-0.323087	-0.271234	0.011271
O2	O	-0.267964	-0.193634	-0.011228
O3	O	-0.267962	-0.271233	0.066395
O4	O	-0.323089	-0.193635	-0.066351
O5	O	-0.204915	-0.334261	0.066394
O6	O	-0.204918	-0.256661	-0.011228
O7	O	-0.260040	-0.334261	0.011271
Zn8	Zn	-0.222469	-0.305468	0.000022
Zn9	Zn	-0.305535	-0.222427	0.000022
O10	O	-0.260043	-0.256662	-0.066351
C11	C	-0.163481	-0.071298	-0.023519
C12	C	-0.186872	-0.024531	-0.020298
C13	C	-0.117860	-0.093995	-0.023838
C14	C	-0.163483	-0.139918	-0.023524
C15	C	-0.186875	-0.166518	-0.020308
C16	C	-0.117862	-0.162510	-0.023843
C17	C	-0.094838	-0.139921	-0.023519
C18	C	-0.044836	-0.166525	-0.020298
C19	C	-0.186401	-0.093991	-0.023843
C20	C	-0.004439	-0.188019	-0.017694
C21	C	-0.205769	0.013252	-0.017695
C22	C	-0.205774	-0.188010	-0.017709
C23	C	0.046241	-0.214983	-0.014429
C24	C	-0.229477	0.060653	-0.014430
C25	C	-0.229483	-0.214971	-0.014450
C26	C	-0.500364	-0.466062	0.034181
C27	C	-0.477341	-0.511990	0.034503
C28	C	-0.431722	-0.466060	0.034178
C29	C	-0.408804	-0.511988	0.034500
C30	C	-0.431721	-0.534685	0.034181
C31	C	-0.477342	-0.443470	0.034500
C32	C	-0.665895	-0.342485	0.021756
C33	C	-0.712772	-0.317221	0.018243
C34	C	-0.736287	-0.338907	0.016481
C35	C	-0.787116	-0.311512	0.012664
C36	C	-0.712921	-0.385861	0.018236
C37	C	-0.666047	-0.411125	0.021755
C38	C	-0.642533	-0.389434	0.023515
C39	C	-0.389805	-0.687746	0.021758
C40	C	-0.368199	-0.731097	0.018245
C41	C	-0.322995	-0.752841	0.016478
C42	C	-0.299567	-0.799839	0.012662
C43	C	-0.299393	-0.731235	0.018230
C44	C	-0.320995	-0.687892	0.021751
C45	C	-0.366205	-0.666148	0.023512
C46	C	-0.389808	-0.342477	0.021744
C47	C	-0.368205	-0.317208	0.018222
C48	C	-0.322998	-0.338892	0.016457
C49	C	-0.299573	-0.311495	0.012637
C50	C	-0.299398	-0.385842	0.018210
C51	C	-0.321003	-0.411107	0.021730
C52	C	-0.366208	-0.389423	0.023501
C53	C	-0.591706	-0.416830	0.027326
C54	C	-0.551191	-0.438667	0.030366
C55	C	-0.408299	-0.438663	0.030360
C56	C	-0.389629	-0.416824	0.027317
C57	C	-0.408298	-0.581682	0.030365
C58	C	-0.389627	-0.619146	0.027325
C59	C	-0.432024	-0.061845	-0.438511
C60	C	-0.477645	-0.015917	-0.461431
C61	C	-0.432025	-0.061844	-0.369869
C62	C	-0.477645	-0.015916	-0.392892
C63	C	-0.500668	0.006779	-0.438513
C64	C	-0.409106	-0.084435	-0.392891
C65	C	-0.320834	-0.185425	-0.480424
C66	C	-0.299076	-0.210690	-0.502029
C67	C	-0.322531	-0.189005	-0.547237
C68	C	-0.298945	-0.216401	-0.570661
C69	C	-0.367745	-0.142051	-0.570839
C70	C	-0.389497	-0.116787	-0.549237
C71	C	-0.366040	-0.138476	-0.504027
C72	C	-0.666200	0.159838	-0.549704
C73	C	-0.713077	0.203188	-0.571462
C74	C	-0.736595	0.224934	-0.548009
C75	C	-0.787423	0.271931	-0.571594
C76	C	-0.713230	0.203329	-0.502796
C77	C	-0.666353	0.159987	-0.481041
C78	C	-0.642841	0.138241	-0.504500
C79	C	-0.320836	-0.185423	-0.204335
C80	C	-0.299080	-0.210691	-0.157455
C81	C	-0.322536	-0.189006	-0.133940
C82	C	-0.298950	-0.216402	-0.083110
C83	C	-0.367748	-0.142056	-0.157305
C84	C	-0.389502	-0.116792	-0.204182
C85	C	-0.366040	-0.138478	-0.227695
C86	C	-0.389632	-0.111079	-0.480604
C87	C	-0.408436	-0.089241	-0.461934
C88	C	-0.408437	-0.089240	-0.319041
C89	C	-0.389634	-0.111078	-0.278525
C90	C	-0.551496	0.053776	-0.462102
C91	C	-0.592011	0.091239	-0.480906
O92	O	0.196122	-0.334274	0.011291
O93	O	0.063378	-0.256674	-0.011208
O94	O	0.140994	-0.334276	0.066414
O95	O	0.118506	-0.256671	-0.066331
O96	O	0.140996	-0.271251	0.066419
O97	O	0.063380	-0.193649	-0.011203
O98	O	0.196124	-0.271249	0.011296
Zn99	Zn	0.129752	-0.222442	0.000047
Zn100	Zn	0.129750	-0.305480	0.000041
O101	O	0.118508	-0.193647	-0.066327
O102	O	-0.260036	0.184774	0.011294
O103	O	-0.204910	0.074561	-0.011204
O104	O	-0.204913	0.074554	0.066418
O105	O	-0.260033	0.184781	-0.066328
O106	O	-0.267961	0.074557	0.066413
O107	O	-0.267958	0.074564	-0.011209
O108	O	-0.323083	0.184777	0.011289
Zn109	Zn	-0.305531	0.129671	0.000039
Zn110	Zn	-0.222463	0.129667	0.000046
O111	O	-0.323081	0.184784	-0.066333
O112	O	-0.936929	0.397535	-0.602582
O113	O	-0.804185	0.287317	-0.547454
O114	O	-0.881802	0.287315	-0.547452
O115	O	-0.859312	0.397537	-0.602584
O116	O	-0.881801	0.287314	-0.610498
O117	O	-0.804183	0.287316	-0.610500
O118	O	-0.936927	0.397533	-0.665628
Zn119	Zn	-0.870555	0.342425	-0.648073
Zn120	Zn	-0.870557	0.342426	-0.565008
O121	O	-0.859310	0.397536	-0.665629
O122	O	-0.267961	-0.271234	-0.665316
O123	O	-0.323086	-0.193638	-0.610192
O124	O	-0.323085	-0.271236	-0.610189
O125	O	-0.267962	-0.193636	-0.665319
O126	O	-0.260038	-0.334264	-0.547142
O127	O	-0.260039	-0.256666	-0.547145
O128	O	-0.204914	-0.334262	-0.602269
Zn129	Zn	-0.222466	-0.305471	-0.564697
Zn130	Zn	-0.305534	-0.222429	-0.647764
O131	O	-0.204915	-0.256664	-0.602272
C132	C	-0.094840	-0.456607	0.293255
C133	C	-0.044837	-0.503376	0.316647
C134	C	-0.117862	-0.433912	0.316174
C135	C	-0.163483	-0.387984	0.224612
C136	C	-0.186875	-0.361381	0.174609
C137	C	-0.186401	-0.365393	0.247634
C138	C	-0.163483	-0.387984	0.293255
C139	C	-0.186874	-0.361382	0.316646
C140	C	-0.117862	-0.433912	0.247635
C141	C	-0.205772	-0.339889	0.335543
C142	C	-0.004440	-0.541160	0.335545
C143	C	-0.205773	-0.339888	0.134212
C144	C	-0.229480	-0.312925	0.359250
C145	C	0.046239	-0.588562	0.359254
C146	C	-0.229481	-0.312924	0.083532
C147	C	0.153295	-0.388013	0.293279
C148	C	0.150076	-0.361413	0.316673
C149	C	0.153614	-0.433940	0.316196
C150	C	0.153297	-0.388008	0.224634
C151	C	0.150079	-0.361403	0.174632
C152	C	0.153616	-0.433935	0.247655
C153	C	0.153293	-0.456633	0.293275
C154	C	0.150072	-0.503401	0.316665
C155	C	0.153617	-0.365420	0.247659
C156	C	0.147469	-0.541185	0.335561
C157	C	0.147474	-0.339922	0.335572
C158	C	0.147479	-0.339908	0.134234
C159	C	0.144204	-0.588587	0.359267
C160	C	0.144211	-0.312962	0.359282
C161	C	0.144218	-0.312942	0.083555
C162	C	-0.163482	-0.139963	0.293267
C163	C	-0.186875	-0.166567	0.316654
C164	C	-0.117861	-0.162559	0.316187
C165	C	-0.163482	-0.071333	0.224628
C166	C	-0.186873	-0.024557	0.174627
C167	C	-0.117860	-0.094033	0.247653
C168	C	-0.094838	-0.139967	0.293272
C169	C	-0.044835	-0.166574	0.316665
C170	C	-0.186401	-0.094030	0.247648
C171	C	-0.004438	-0.188070	0.335563
C172	C	-0.205773	-0.188061	0.335549
C173	C	-0.205771	0.013233	0.134231
C174	C	0.046242	-0.215038	0.359273
C175	C	-0.229482	-0.215026	0.359253
C176	C	-0.229479	0.060643	0.083553
C177	C	0.095627	0.006487	-0.438489
C178	C	0.095306	-0.016206	-0.461409
C179	C	0.095623	-0.062137	-0.369847
C180	C	0.095303	-0.084726	-0.392871
C181	C	0.095625	-0.062133	-0.438492
C182	C	0.095305	-0.016210	-0.392868
C183	C	0.108059	0.159543	-0.480399
C184	C	0.111575	0.202893	-0.502003
C185	C	0.113340	0.224640	-0.547210
C186	C	0.117161	0.271637	-0.570634
C187	C	0.111587	0.203038	-0.570814
C188	C	0.108065	0.159695	-0.549212
C189	C	0.106302	0.137948	-0.504002
C190	C	0.108054	-0.116452	-0.549685
C191	C	0.111568	-0.141562	-0.571444
C192	C	0.113332	-0.188519	-0.547992
C193	C	0.117148	-0.215753	-0.571578
C194	C	0.111577	-0.210363	-0.502779
C195	C	0.108055	-0.185249	-0.481023
C196	C	0.106297	-0.138292	-0.504481
C197	C	0.108046	-0.116473	-0.204312
C198	C	0.111564	-0.141591	-0.157432
C199	C	0.113326	-0.188548	-0.133918
C200	C	0.117142	-0.215786	-0.083088
C201	C	0.111574	-0.210388	-0.157283
C202	C	0.108058	-0.185270	-0.204161
C203	C	0.106290	-0.138308	-0.227673
C204	C	0.102487	0.090947	-0.480580
C205	C	0.099445	0.053484	-0.461911
C206	C	0.099438	-0.089371	-0.319019
C207	C	0.102477	-0.111078	-0.278503
C208	C	0.099442	-0.089362	-0.462081
C209	C	0.102482	-0.111066	-0.480886
O210	O	0.118477	-0.256700	0.452885
O211	O	0.140984	-0.334299	0.397762
O212	O	0.063360	-0.256699	0.397752
O213	O	0.196101	-0.334300	0.452895
O214	O	0.063367	-0.193672	0.334708
O215	O	0.140992	-0.271271	0.334718
O216	O	0.118484	-0.193673	0.389842
Zn217	Zn	0.129739	-0.222465	0.352270
Zn218	Zn	0.129729	-0.305506	0.435333
O219	O	0.196108	-0.271272	0.389852
C220	C	-0.500364	0.533998	-0.438484
C221	C	-0.477341	0.556591	-0.461399
C222	C	-0.431721	0.465364	-0.369840
C223	C	-0.408802	0.488061	-0.392859
C224	C	-0.431720	0.533995	-0.438478
C225	C	-0.477342	0.488064	-0.392865
C226	C	-0.665898	0.588334	-0.480407
C227	C	-0.712776	0.613450	-0.502014
C228	C	-0.736291	0.660414	-0.547220
C229	C	-0.787122	0.687654	-0.570647
C230	C	-0.712926	0.682257	-0.570819
C231	C	-0.666050	0.657138	-0.549214
C232	C	-0.642536	0.610174	-0.504006
C233	C	-0.389802	0.657585	-0.549654
C234	C	-0.368196	0.682850	-0.571408
C235	C	-0.322990	0.661164	-0.547952
C236	C	-0.299561	0.688558	-0.571532
C237	C	-0.299388	0.614205	-0.502740
C238	C	-0.320990	0.588935	-0.480990
C239	C	-0.366202	0.610633	-0.504452
C240	C	-0.389804	0.312282	-0.204314
C241	C	-0.368201	0.268929	-0.157436
C242	C	-0.322993	0.247179	-0.133918
C243	C	-0.299567	0.200174	-0.083089
C244	C	-0.299392	0.268786	-0.157278
C245	C	-0.320998	0.312139	-0.204154
C246	C	-0.366204	0.333881	-0.227670
C247	C	-0.591708	0.582942	-0.480581
C248	C	-0.551193	0.561234	-0.461909
C249	C	-0.408297	0.418359	-0.319013
C250	C	-0.389626	0.380890	-0.278499
C251	C	-0.408296	0.561393	-0.462062
C252	C	-0.389624	0.583232	-0.480862
H253	H	-0.223885	-0.074993	-0.024363
H254	H	-0.223884	-0.075035	0.229163
H255	H	0.094785	-0.121682	-0.374387
N256	N	0.154307	-0.459104	0.223179
H257	H	0.125841	-0.459319	0.221492
H258	H	0.154476	-0.437731	0.190737
H259	H	-0.371321	-0.530978	0.035012
H260	H	-0.099380	-0.199466	-0.024359
N261	N	-0.393654	-0.266573	0.016336
H262	H	-0.396720	-0.236507	-0.013673
H263	H	-0.425554	-0.256719	0.018012
N264	N	-0.640857	0.680702	-0.574671
H265	H	-0.628974	0.689862	-0.556745
H266	H	-0.613870	0.653748	-0.577734
N267	N	0.154297	-0.459106	0.365847
H268	H	0.154446	-0.437747	0.376938
H269	H	0.125827	-0.459316	0.367707
H270	H	-0.426614	0.675254	-0.568760
N271	N	-0.295527	-0.208818	-0.431667
H272	H	-0.292532	-0.181813	-0.431665
H273	H	-0.313530	-0.217924	-0.410701
N274	N	-0.093376	-0.068871	0.223176
H275	H	-0.060923	-0.090234	0.244699
H276	H	-0.091716	-0.068660	0.194497
N277	N	-0.501817	-0.394521	0.035187
H278	H	-0.503502	-0.364163	0.006720
H279	H	-0.534260	-0.383628	0.035355
H280	H	-0.223883	-0.328432	0.229146
N281	N	0.094619	0.008956	-0.511061
H282	H	0.094470	0.041552	-0.522150
H283	H	0.123087	-0.017851	-0.512926
N284	N	-0.250317	-0.261332	-0.476572
H285	H	-0.238760	-0.271238	-0.444654
H286	H	-0.250296	-0.291355	-0.473546
N287	N	0.106154	-0.065833	-0.229667
H288	H	0.103661	-0.053235	-0.262909
H289	H	0.078221	-0.037146	-0.229071
N290	N	-0.438269	-0.066167	-0.574680
H291	H	-0.449832	-0.056270	-0.606592
H292	H	-0.459262	-0.072277	-0.556702
N293	N	0.154298	-0.316465	0.223173
H294	H	0.154446	-0.305529	0.244690
H295	H	0.183075	-0.324996	0.213932
H296	H	0.113004	0.220477	-0.482781
H297	H	0.094825	0.002760	-0.374372
N298	N	0.106159	-0.065810	-0.574983
H299	H	0.107804	-0.055783	-0.606924
H300	H	0.076152	-0.035837	-0.577946
H301	H	-0.099377	-0.452909	0.353658
N302	N	-0.093377	-0.211513	0.365838
H303	H	-0.114894	-0.222450	0.376926
H304	H	-0.064697	-0.241837	0.367702
N305	N	-0.640534	-0.319096	0.023664
H306	H	-0.628645	-0.309993	-0.003426
H307	H	-0.662470	-0.285540	0.022038
H308	H	0.106630	-0.203055	-0.223182
N309	N	0.113458	-0.118041	-0.132231
H310	H	0.111806	-0.084481	-0.154240
H311	H	0.086368	-0.108913	-0.120348
N312	N	-0.501822	-0.537152	0.035186
H313	H	-0.484081	-0.575159	0.063963
H314	H	-0.534276	-0.515751	0.035317
H315	H	0.113022	0.220750	-0.607622
N316	N	-0.393035	-0.118651	-0.619602
H317	H	-0.372393	-0.141777	-0.629709
H318	H	-0.422328	-0.117292	-0.620369
H319	H	-0.496124	0.003081	-0.498917
N320	N	0.106160	0.136086	-0.431638
H321	H	0.107804	0.156348	-0.419964
H322	H	0.076152	0.139076	-0.431666
N323	N	-0.393650	0.733496	-0.620166
H324	H	-0.425568	0.743405	-0.631725
H325	H	-0.396674	0.763517	-0.620183
N326	N	-0.438564	-0.319090	0.023652
H327	H	-0.450238	-0.285512	0.022004
H328	H	-0.459519	-0.310029	-0.003437
N329	N	-0.359457	-0.133392	-0.368399
H330	H	-0.339175	-0.124905	-0.386138
H331	H	-0.348417	-0.144292	-0.335948
H332	H	0.106637	0.142110	-0.568432
N333	N	-0.737971	-0.266582	0.016350
H334	H	-0.715963	-0.256676	0.017998
H335	H	-0.764980	-0.236556	-0.013660
N336	N	-0.295537	0.538294	-0.432229
H337	H	-0.316085	0.525581	-0.422011
H338	H	-0.266245	0.509673	-0.431534
N339	N	-0.295549	-0.461748	0.023627
H340	H	-0.313472	-0.455710	-0.003462
H341	H	-0.263635	-0.471628	0.021992
H342	H	-0.099379	-0.074998	-0.024355
H343	H	-0.732070	-0.403516	0.016804
H344	H	0.112999	-0.123775	-0.608256
N345	N	-0.393657	-0.754394	0.016354
H346	H	-0.422949	-0.725838	-0.011582
H347	H	-0.373078	-0.785159	0.013877
N348	N	0.113471	-0.261003	-0.477482
H349	H	0.115967	-0.273599	-0.498123
H350	H	0.141407	-0.289688	-0.448192
H351	H	-0.647332	0.142401	-0.444230
H352	H	-0.099372	-0.452898	0.229148
H353	H	-0.732097	0.220775	-0.608274
N354	N	0.106159	-0.208803	-0.432263
H355	H	0.107809	-0.242360	-0.420705
H356	H	0.133250	-0.217935	-0.411248
N357	N	0.113477	-0.261036	-0.131925
H358	H	0.115969	-0.273636	-0.098683
H359	H	0.084314	-0.253613	-0.147652
H360	H	-0.371318	0.469063	-0.374372
N361	N	-0.640846	-0.461764	0.023649
H362	H	-0.662854	-0.471670	0.021999
H363	H	-0.628966	-0.455686	-0.003443
H364	H	-0.426615	-0.670047	0.023195
N365	N	-0.501819	0.605544	-0.511050
H366	H	-0.534275	0.616483	-0.522142
H367	H	-0.503471	0.635867	-0.512912
N368	N	-0.250634	-0.754689	0.016333
H369	H	-0.240528	-0.785427	0.013838
H370	H	-0.249880	-0.726163	-0.011605
H371	H	-0.495832	0.469078	-0.374381
H372	H	-0.262268	-0.248920	-0.138435
N373	N	-0.295541	-0.664593	0.023644
H374	H	-0.263625	-0.684943	0.021993
H375	H	-0.313500	-0.625630	-0.003448
N376	N	-0.393655	0.245626	-0.132240
H377	H	-0.425570	0.265979	-0.154251
H378	H	-0.375694	0.206665	-0.120362
N379	N	-0.250647	-0.409221	0.016284
H380	H	-0.240542	-0.386089	0.013783
H381	H	-0.228895	-0.446678	0.045440
N382	N	-0.438562	0.335735	-0.229678
H383	H	-0.450236	0.315473	-0.207767
H384	H	-0.459516	0.374703	-0.241565
N385	N	-0.502133	0.009244	-0.368412
H386	H	-0.480618	-0.012117	-0.335955
H387	H	-0.511375	0.047252	-0.386189
H388	H	-0.646757	0.550094	-0.443598
H389	H	-0.301727	-0.203079	-0.223479
H390	H	-0.647059	0.142138	-0.568809
H391	H	-0.386847	-0.124399	-0.138156
H392	H	-0.731797	0.595663	-0.482796
H393	H	-0.732075	0.720493	-0.607626
H394	H	-0.732378	0.221040	-0.483702
N395	N	-0.438263	-0.066155	-0.229382
H396	H	-0.449822	-0.056250	-0.207374
H397	H	-0.438291	-0.036127	-0.256393
N398	N	-0.250626	0.590803	-0.477441
H399	H	-0.240520	0.613933	-0.498079
H400	H	-0.249868	0.589443	-0.448148
H401	H	-0.301778	0.329728	-0.223172
H402	H	-0.262581	0.251075	-0.138127
