data_functionalizedCrystal
_audit_creation_method	'MofGen! by Chris Wilmer'
_symmetry_space_group_name_H-M	'P1'
_symmetry_Int_Tables_number	1
_symmetry_cell_setting	triclinic
loop_
_symmetry_equiv_pos_as_xyz
  x,y,z
_cell_length_a	19.377372
_cell_length_b	19.377305
_cell_length_c	20.016444
_cell_angle_alpha	107.870958
_cell_angle_beta	90.001744
_cell_angle_gamma	117.924964
loop_
_atom_site_label
_atom_site_type_symbol
_atom_site_fract_x
_atom_site_fract_y
_atom_site_fract_z
Zr1	Zr	0.435923	-0.939018	-0.000997
O2	O	0.323146	-1.046441	-0.069895
O3	O	0.485523	-0.808519	0.000784
O4	O	0.463844	-0.949224	-0.110704
O5	O	0.344830	-0.905732	0.151536
O6	O	0.557735	-0.983526	-0.120894
O7	O	0.344824	-0.905735	0.041593
O8	O	0.596514	-0.731830	0.078537
O9	O	0.306051	-1.157428	-0.047895
O10	O	0.558590	-0.896341	0.017305
O11	O	0.488525	-0.870740	0.106959
O12	O	0.463001	-1.036402	-0.024303
O13	O	0.392936	-1.010801	0.065352
Zr14	Zr	0.585677	-0.993719	0.158098
Zr15	Zr	0.585668	-0.993725	-0.017250
Zr16	Zr	0.435932	-0.939013	0.174350
Zr17	Zr	0.408659	-1.116030	0.034091
Zr18	Zr	0.612941	-0.816708	0.123010
O19	O	0.536077	-1.124219	0.156317
O20	O	0.536064	-1.124227	-0.093004
O21	O	0.323159	-1.046433	0.179426
O22	O	0.698454	-0.886297	0.226996
O23	O	0.698441	-0.886305	-0.022325
O24	O	0.485536	-0.808511	0.250105
O25	O	0.676769	-1.027006	0.005565
O26	O	0.557755	-0.983513	0.267805
O27	O	0.463864	-0.949212	0.277995
O28	O	0.676775	-1.027002	0.115508
O29	O	0.425078	-1.200913	-0.060814
O30	O	0.596521	-0.731825	0.217914
O31	O	0.715548	-0.775310	0.204996
O32	O	0.715541	-0.775314	0.065618
O33	O	0.306058	-1.157424	0.091483
O34	O	0.425086	-1.200908	0.078564
O35	O	0.558598	-0.896336	0.181404
O36	O	0.628664	-0.921937	0.091749
O37	O	0.533075	-1.061998	0.050142
O38	O	0.463009	-1.036397	0.139796
C39	C	0.544903	-0.744954	0.034661
C40	C	0.556477	-0.669808	0.019765
C41	C	0.411974	-0.355643	0.204969
C42	C	0.422945	-0.284976	0.191020
C43	C	0.496088	-0.311711	0.097428
C44	C	0.485126	-0.382379	0.111371
C45	C	0.443067	-0.404340	0.165142
C46	C	0.516219	-0.431077	0.071544
C47	C	0.505255	-0.501741	0.085484
C48	C	0.463196	-0.523709	0.139251
C49	C	0.432102	-0.475005	0.179082
C50	C	0.558273	-0.409118	0.017770
C51	C	0.589367	-0.457815	-0.022057
C52	C	0.578407	-0.528478	-0.008114
C53	C	0.536348	-0.550446	0.045653
C54	C	0.609500	-0.577183	-0.047946
C55	C	0.598536	-0.647847	-0.034006
C56	C	0.525383	-0.621111	0.059592
C57	C	0.323492	-0.897939	0.098880
C58	C	0.259921	-0.874715	0.105780
C59	C	-0.198631	-1.163876	0.019875
C60	C	-0.258352	-1.142034	0.026365
C61	C	-0.158555	-0.995821	0.069800
C62	C	-0.098824	-1.017651	0.063318
C63	C	-0.118869	-1.101680	0.038354
C64	C	-0.019062	-0.955454	0.081796
C65	C	0.040663	-0.977283	0.075310
C66	C	0.020627	-1.061308	0.050345
C67	C	-0.059144	-1.123508	0.031868
C68	C	0.000981	-0.871426	0.106755
C69	C	0.080743	-0.809230	0.125233
C70	C	0.140470	-0.831058	0.118752
C71	C	0.120433	-0.915082	0.093787
C72	C	0.220240	-0.768857	0.137229
C73	C	0.279966	-0.790686	0.130743
C74	C	0.180159	-0.936911	0.087301
C75	C	0.698108	-1.034799	0.058221
C76	C	0.761678	-1.058023	0.051321
C77	C	0.476664	-0.187804	0.122421
C78	C	0.464992	-0.263012	0.137259
C79	C	0.510788	-0.966376	-0.140782
C80	C	0.510784	-0.966378	-0.215222
C81	C	0.460902	-1.039482	-0.408200
C82	C	0.460908	-1.039480	-0.478143
C83	C	0.560703	-0.893251	-0.434693
C84	C	0.560700	-0.893255	-0.364752
C85	C	0.510795	-0.966372	-0.351508
C86	C	0.510804	-0.966366	-0.491391
C87	C	0.510811	-0.966363	-0.567226
C88	C	0.510789	-0.966375	-0.275669
C89	C	0.510811	-0.966362	0.297883
C90	C	0.510815	-0.966360	0.372323
C91	C	0.732211	-0.813384	0.014331
C92	C	0.807356	-0.761462	-0.007464
C93	C	0.544914	-0.744947	0.253994
C94	C	0.556492	-0.669798	0.313538
C95	C	0.732222	-0.813377	0.233664
C96	C	0.807371	-0.761453	0.286308
C97	C	0.289377	-1.119361	-0.076563
C98	C	0.214228	-1.171285	-0.129207
C99	C	0.289389	-1.119354	0.142769
C100	C	0.214244	-1.171276	0.164565
C101	C	0.476685	-1.187791	-0.096893
C102	C	0.465107	-1.262939	-0.156437
C103	C	0.806067	-0.723718	-0.056566
C104	C	0.876666	-0.674940	-0.077059
C105	C	0.948554	-0.663901	-0.048445
C106	C	0.949841	-0.701652	0.000660
C107	C	0.879242	-0.750434	0.021148
C108	C	0.598507	-0.647869	0.380367
C109	C	0.609382	-0.577268	0.436323
C110	C	0.578246	-0.528594	0.425448
C111	C	0.536225	-0.550529	0.358613
C112	C	0.525346	-0.621132	0.302659
C113	C	0.879241	-0.750434	0.264231
C114	C	0.949856	-0.701658	0.313690
C115	C	0.948599	-0.663896	0.385226
C116	C	0.876721	-0.674918	0.407303
C117	C	0.806107	-0.723699	0.357845
C118	C	0.142357	-1.182312	-0.107128
C119	C	0.071739	-1.231110	-0.156583
C120	C	0.072995	-1.268876	-0.228118
C121	C	0.144874	-1.257849	-0.250197
C122	C	0.215489	-1.209056	-0.200741
C123	C	0.215532	-1.209027	0.213661
C124	C	0.144929	-1.257825	0.234138
C125	C	0.073040	-1.268866	0.205523
C126	C	0.071754	-1.231112	0.156420
C127	C	0.142355	-1.182320	0.135940
C128	C	0.496254	-1.311593	-0.145540
C129	C	0.485390	-1.382199	-0.201485
C130	C	0.443374	-1.404153	-0.268324
C131	C	0.412227	-1.355491	-0.279219
C132	C	0.423096	-1.284884	-0.223277
H133	H	0.397619	-0.245328	0.223455
C134	C	1.028915	-0.689535	0.289388
N135	N	1.088460	-0.680403	0.271081
C136	C	0.632743	-0.701415	-0.077816
N137	N	0.658508	-0.741764	-0.110815
H138	H	0.880280	-0.781175	0.205986
C139	C	0.875353	-0.633366	0.485995
N140	N	0.874326	-0.602062	0.545267
C141	C	0.146244	-1.299389	-0.328891
N142	N	0.147274	-1.330672	-0.388167
H143	H	-0.214955	-1.232301	-0.000429
H144	H	0.274060	-1.200042	0.236972
C145	C	1.026285	-0.610231	0.439621
N146	N	1.084800	-0.569809	0.480588
H147	H	0.510877	-0.510889	0.349768
C148	C	0.158111	-1.029347	0.059846
N149	N	0.141506	-1.098968	0.039167
C150	C	0.875234	-0.633413	-0.131068
N151	N	0.874154	-0.602134	-0.171746
H152	H	0.643601	-0.559419	0.490738
H153	H	0.274009	-1.200079	-0.218728
C154	C	0.146363	-1.299339	0.288157
N155	N	0.147445	-1.330604	0.328846
H156	H	0.510754	-1.421813	-0.192599
H157	H	0.491135	-0.638991	0.103379
H158	H	0.747537	-0.732705	-0.079879
H159	H	0.747591	-0.732661	0.375831
H160	H	0.015558	-1.308597	0.222205
C161	C	0.102782	-0.716801	0.152694
N162	N	0.119383	-0.647181	0.173380
C163	C	1.026210	-0.610231	-0.070985
N164	N	1.084699	-0.569801	-0.087963
H165	H	0.013213	-1.240109	0.133126
H166	H	0.141296	-1.151581	0.095965
C167	C	0.451135	-0.601442	0.154586
N168	N	0.442053	-0.659990	0.166137
C169	C	-0.007319	-1.243228	-0.132282
N170	N	-0.066864	-1.252353	-0.113977
C171	C	0.242277	-0.676429	0.164683
N172	N	0.258876	-0.606810	0.185362
C173	C	-0.081192	-1.215945	0.004413
N174	N	-0.097796	-1.285565	-0.016267
H175	H	0.601333	-0.833721	-0.445485
H176	H	0.567194	-0.351581	0.006418
H177	H	0.491137	-0.638977	0.248244
C178	C	-0.004690	-1.322540	-0.282514
N179	N	-0.063205	-1.362954	-0.323483
C180	C	0.590229	-0.450924	0.487004
N181	N	0.599261	-0.392421	0.533370
C182	C	0.366045	-1.379628	-0.352758
N183	N	0.331270	-1.397804	-0.408152
C184	C	0.542480	-1.287456	-0.072024
N185	N	0.577304	-1.269278	-0.016653
H186	H	0.623608	-0.439928	-0.065840
H187	H	-0.323301	-1.192688	0.011314
C188	C	-0.136517	-0.903392	0.097261
N189	N	-0.119915	-0.833773	0.117948
H190	H	0.643738	-0.559297	-0.091731
C191	C	0.388816	-1.231379	-0.235271
N192	N	0.362990	-1.191084	-0.244309
C193	C	0.431423	-1.481827	-0.329855
N194	N	0.422423	-1.540334	-0.376197
C195	C	0.632760	-0.701402	0.392348
N196	N	0.658557	-0.741724	0.401379
C197	C	1.028927	-0.689495	0.032134
N198	N	1.088499	-0.680331	0.055844
C199	C	0.406008	-1.119902	-0.540501
N200	N	0.364650	-1.180478	-0.587470
C201	C	0.385829	-0.499169	0.238228
N202	N	0.350971	-0.517375	0.282771
C203	C	0.365700	-0.379807	0.264115
N204	N	0.330842	-0.398013	0.308658
H205	H	0.141320	-1.151562	-0.048885
H206	H	0.069261	-1.079079	0.045063
C207	C	0.406011	-1.119915	-0.393636
N208	N	0.364669	-1.180501	-0.382669
H209	H	-0.047655	-0.853656	0.112029
C210	C	0.615589	-0.812824	-0.302385
N211	N	0.656931	-0.752246	-0.255411
H212	H	0.530329	-0.293824	0.053645
H213	H	0.880302	-0.781160	0.061134
H214	H	0.344913	-0.740039	0.145804
