data_functionalizedCrystal
_audit_creation_method	'MofGen! by Chris Wilmer'
_symmetry_space_group_name_H-M	'P1'
_symmetry_Int_Tables_number	1
_symmetry_cell_setting	triclinic
loop_
_symmetry_equiv_pos_as_xyz
  x,y,z
_cell_length_a	10.654549
_cell_length_b	9.730223
_cell_length_c	10.654556
_cell_angle_alpha	89.998756
_cell_angle_beta	95.513923
_cell_angle_gamma	89.999207
loop_
_atom_site_label
_atom_site_type_symbol
_atom_site_fract_x
_atom_site_fract_y
_atom_site_fract_z
O1	O	1.667838	0.114258	-0.176391
O2	O	1.302360	0.114268	-0.193197
O3	O	1.493498	0.114254	-0.002055
O4	O	1.476700	0.114272	-0.367533
O5	O	1.493496	-0.114326	-0.002060
O6	O	1.302358	-0.114312	-0.193202
O7	O	1.667836	-0.114322	-0.176396
Zn8	Zn	1.485096	-0.150609	-0.184800
Zn9	Zn	1.485099	0.150555	-0.184793
O10	O	1.476698	-0.114308	-0.367538
C11	C	1.255561	-0.000021	-0.191966
C12	C	1.116117	-0.000018	-0.188274
N13	N	1.485104	-0.356145	-0.184803
C14	C	0.905605	-0.000018	-0.297337
C15	C	1.036626	-0.000009	-0.300816
C16	C	1.064583	-0.000020	-0.072247
C17	C	0.933564	-0.000019	-0.068770
C18	C	1.569761	-0.428078	-0.100195
C19	C	1.569758	-0.571961	-0.100179
C20	C	1.400435	-0.571967	-0.269393
C21	C	1.400433	-0.428086	-0.269401
C22	C	1.667523	-0.428075	-0.002504
C23	C	1.667519	-0.571958	-0.002489
C24	C	1.714635	-0.000030	-0.177627
C25	C	1.854078	-0.000025	-0.181319
C26	C	1.492262	-0.000035	0.044740
C27	C	1.488567	-0.000033	0.184183
N28	N	1.485102	0.356091	-0.184780
C29	C	1.486827	-0.124631	0.249694
C30	C	1.483366	-0.124628	0.380717
C31	C	1.483380	0.124583	0.380705
C32	C	1.486850	0.124578	0.249686
C33	C	1.486814	-0.268511	0.249701
C34	C	1.483353	-0.268507	0.380724
C35	C	1.477936	-0.000020	0.585667
C36	C	1.481636	-0.000025	0.446225
H37	H	1.078572	-0.000003	-0.395289
C38	C	1.789087	-0.368340	-0.043118
C39	C	1.847276	-0.287367	0.054373
C40	C	1.959239	-0.232288	0.016975
H41	H	1.844094	-0.440891	-0.061510
H42	H	1.770551	-0.313327	-0.116221
H43	H	1.865816	-0.342377	0.127454
H44	H	1.792305	-0.214795	0.072777
H45	H	1.940703	-0.177276	-0.056128
H46	H	2.014235	-0.304847	-0.001417
H47	H	1.998727	-0.177332	0.083111
C48	C	1.308311	-0.650007	-0.361093
C49	C	1.184729	-0.615026	-0.339550
C50	C	1.099829	-0.686901	-0.423990
H51	H	1.322501	-0.626497	-0.445099
H52	H	1.320349	-0.746012	-0.348960
H53	H	1.172696	-0.519042	-0.351693
H54	H	1.170498	-0.638540	-0.255561
H55	H	1.111867	-0.782906	-0.411858
H56	H	1.114031	-0.663385	-0.507990
H57	H	1.015969	-0.663186	-0.409377
H58	H	1.575486	-0.323763	0.224874
H59	H	1.481982	0.226037	0.434054
C60	C	1.367475	-0.327763	0.180670
C61	C	1.309798	-0.228082	0.099721
C62	C	1.199850	-0.282605	0.036122
H63	H	1.388274	-0.405546	0.132932
H64	H	1.311203	-0.354564	0.240185
H65	H	1.366057	-0.201302	0.040213
H66	H	1.288968	-0.150294	0.147427
H67	H	1.143578	-0.309405	0.095637
H68	H	1.220661	-0.360387	-0.011609
H69	H	1.160696	-0.214977	-0.018801
H70	H	1.637004	-0.616577	0.088734
C71	C	1.602696	-0.327771	0.449751
C72	C	1.660386	-0.228086	0.530682
C73	C	1.770337	-0.282612	0.594276
H74	H	1.581899	-0.405546	0.497502
H75	H	1.658959	-0.354583	0.390232
H76	H	1.604134	-0.201293	0.590192
H77	H	1.681213	-0.150306	0.482962
H78	H	1.826601	-0.309424	0.534758
H79	H	1.749529	-0.360387	0.642020
H80	H	1.809500	-0.214981	0.649186
H81	H	1.331487	-0.369520	-0.338285
H82	H	1.646078	-0.389025	0.094028
C83	C	1.796320	-0.623859	-0.030995
C84	C	1.888250	-0.575680	0.061262
C85	C	2.006910	-0.623450	0.035037
H86	H	1.796498	-0.721481	-0.030951
H87	H	1.814284	-0.591297	-0.111411
H88	H	1.870291	-0.608249	0.141656
H89	H	1.888111	-0.478063	0.061232
H90	H	2.024874	-0.590888	-0.045378
H91	H	2.007075	-0.721072	0.035080
H92	H	2.069300	-0.590758	0.097621
C93	C	1.364960	-0.341909	0.413766
C94	C	1.258563	-0.273792	0.356812
C95	C	1.149481	-0.341353	0.387237
H96	H	1.365548	-0.433961	0.384144
H97	H	1.362540	-0.341869	0.502670
H98	H	1.260982	-0.273847	0.267926
H99	H	1.257933	-0.181745	0.386425
H100	H	1.147062	-0.341313	0.476142
H101	H	1.150082	-0.433402	0.357614
H102	H	1.077278	-0.295139	0.348609
C103	C	1.488442	0.259943	0.178659
C104	C	1.379710	0.335043	0.197393
C105	C	1.381105	0.459765	0.131999
H106	H	1.560889	0.311305	0.209024
H107	H	1.490675	0.242236	0.091211
H108	H	1.377489	0.352754	0.284823
H109	H	1.307245	0.283722	0.167022
H110	H	1.383338	0.442058	0.044551
H111	H	1.453557	0.511115	0.162370
H112	H	1.307327	0.510730	0.144692
H113	H	0.840891	-0.000022	-0.388982
H114	H	0.891612	-0.000020	0.025712
C115	C	1.150825	0.000259	0.049983
C116	C	1.127415	0.117874	0.119764
C117	C	1.206847	0.118184	0.232362
H118	H	1.135170	-0.079360	0.097659
H119	H	1.236253	0.000330	0.031348
H120	H	1.042007	0.117790	0.138402
H121	H	1.143078	0.197511	0.072126
H122	H	1.292275	0.118256	0.213727
H123	H	1.191185	0.038561	0.280026
H124	H	1.190982	0.197990	0.279717
