data_functionalizedCrystal
_audit_creation_method	'MofGen! by Chris Wilmer'
_symmetry_space_group_name_H-M	'P1'
_symmetry_Int_Tables_number	1
_symmetry_cell_setting	triclinic
loop_
_symmetry_equiv_pos_as_xyz
  x,y,z
_cell_length_a	19.805407
_cell_length_b	19.077432
_cell_length_c	19.805399
_cell_angle_alpha	92.324821
_cell_angle_beta	90.017803
_cell_angle_gamma	87.724333
loop_
_atom_site_label
_atom_site_type_symbol
_atom_site_fract_x
_atom_site_fract_y
_atom_site_fract_z
Zn1	Zn	1.045563	-0.280264	0.371870
Zn2	Zn	1.050025	-0.397961	0.254139
Zn3	Zn	0.932379	-0.280278	0.258697
Zn4	Zn	0.936887	-0.397918	0.367291
O5	O	0.991214	-0.339105	0.312999
O6	O	1.140872	-0.295889	0.356261
O7	O	1.034400	-0.382374	0.160026
O8	O	0.943639	-0.181786	0.277534
O9	O	1.144151	-0.382360	0.269765
O10	O	1.026795	-0.181776	0.360682
O11	O	0.947965	-0.295913	0.163375
O12	O	0.838260	-0.295871	0.273094
O13	O	0.951323	-0.382287	0.462616
O14	O	0.841572	-0.382301	0.352877
O15	O	1.031167	-0.295847	0.465980
O16	O	1.038771	-0.496445	0.265324
O17	O	0.955649	-0.496413	0.348456
C18	C	0.815357	-0.339083	0.312983
C19	C	0.740125	-0.339091	0.312992
C20	C	0.703078	-0.294145	0.358094
C21	C	0.632389	-0.294148	0.358096
C22	C	0.598750	-0.339102	0.313000
C23	C	0.635802	-0.384050	0.267894
C24	C	0.706489	-0.384043	0.267888
C25	C	0.350730	-0.384082	0.267913
C26	C	0.280038	-0.384088	0.267923
C27	C	0.276630	-0.294188	0.358121
C28	C	0.347317	-0.294180	0.358116
C29	C	0.384363	-0.339125	0.313007
C30	C	0.461012	-0.339120	0.313004
C31	C	0.522103	-0.339112	0.313006
C32	C	0.998202	-0.521966	0.305913
C33	C	1.001254	-0.600195	0.302905
C34	C	0.959381	-0.636957	0.344738
C35	C	0.962251	-0.710461	0.341908
C36	C	1.006998	-0.747202	0.297248
C37	C	1.048873	-0.710436	0.255410
C38	C	1.045999	-0.636933	0.258237
C39	C	1.020235	-0.967032	0.284154
C40	C	1.023108	-1.040540	0.281332
C41	C	0.936484	-1.040560	0.367829
C42	C	0.933617	-0.967055	0.370655
C43	C	0.975489	-0.930295	0.328814
N44	N	1.009935	-0.822336	0.294356
N45	N	0.972549	-0.855163	0.331703
C46	C	1.167757	-0.339128	0.313015
C47	C	1.242990	-0.339138	0.313022
C48	C	0.991250	-0.339061	0.489544
C49	C	0.991265	-0.339042	0.564776
C50	C	0.984216	-0.155530	0.320127
C51	C	0.981234	-0.077301	0.323165
C52	C	0.991214	-0.339099	0.137143
C53	C	0.991323	-0.338919	0.061919
C54	C	1.032841	-0.294030	0.601874
C55	C	1.032847	-0.294010	0.672563
C56	C	0.991281	-0.339005	0.706153
C57	C	0.949700	-0.384019	0.669051
C58	C	0.949691	-0.384035	0.598363
C59	C	0.949736	-0.383953	0.954127
C60	C	0.949750	-0.383935	1.024820
C61	C	1.032892	-0.293928	1.028327
C62	C	1.032883	-0.293944	0.957639
C63	C	0.991300	-0.338955	0.920543
C64	C	0.991293	-0.338976	0.843894
C65	C	0.991291	-0.338989	0.782801
H66	H	0.608407	-0.420649	0.231172
H67	H	1.066704	-0.257359	0.702764
H68	H	0.246459	-0.257589	0.394848
O69	O	0.921510	-0.746205	0.382451
C70	C	0.833402	-0.829306	0.388290
C71	C	0.879490	-0.788857	0.342296
H72	H	0.799427	-0.863812	0.355844
H73	H	0.800881	-0.790455	0.420688
H74	H	0.865818	-0.863635	0.422398
H75	H	0.847125	-0.754527	0.308147
H76	H	0.912015	-0.827746	0.309944
O77	O	1.086608	-0.601112	0.217628
C78	C	1.120598	-0.487866	0.183675
C79	C	1.074561	-0.528344	0.229696
H80	H	1.110884	-0.429026	0.193426
H81	H	1.109307	-0.502313	0.128517
H82	H	1.175726	-0.502300	0.195047
H83	H	1.019418	-0.513932	0.218384
H84	H	1.085909	-0.513893	0.284840
O85	O	0.742454	-0.427806	0.224148
C86	C	0.768629	-0.547476	0.186438
C87	C	0.727873	-0.497996	0.236026
H88	H	0.756845	-0.604234	0.196015
H89	H	0.824939	-0.539809	0.194179
H90	H	0.754240	-0.535008	0.132368
H91	H	0.742205	-0.510434	0.290115
H92	H	0.671574	-0.505672	0.228225
H93	H	1.054331	-0.937108	0.250087
O94	O	0.890080	-0.931475	0.414046
C95	C	0.804477	-0.939254	0.499553
C96	C	0.853741	-0.979636	0.450434
H97	H	0.775094	-0.978174	0.528996
H98	H	0.767720	-0.904920	0.469789
H99	H	0.834185	-0.904766	0.536272
H100	H	0.824089	-1.014162	0.413704
H101	H	0.890498	-1.013926	0.480242
H102	H	0.915829	-0.420681	0.568160
O103	O	0.915856	-0.601378	0.388142
C104	C	0.830272	-0.609164	0.473668
C105	C	0.879523	-0.649541	0.424532
H106	H	0.800895	-0.648086	0.503113
H107	H	0.793510	-0.574822	0.443918
H108	H	0.859992	-0.574682	0.510384
H109	H	0.849860	-0.684060	0.387805
H110	H	0.916286	-0.683838	0.454326
H111	H	1.066691	-0.257392	0.574529
O112	O	1.073279	-0.250169	0.925117
C113	C	1.155774	-0.160915	0.936056
C114	C	1.110049	-0.210446	0.972972
H115	H	1.185525	-0.128796	0.974730
H116	H	1.123321	-0.124071	0.904408
H117	H	1.192364	-0.193251	0.901693
H118	H	1.073452	-0.178167	1.007369
H119	H	1.142545	-0.247291	1.004578
O120	O	0.895834	-1.076377	0.408398
C121	C	0.861894	-1.189621	0.442407
C122	C	0.907961	-1.149146	0.396415
H123	H	0.871692	-1.248462	0.432745
H124	H	0.806748	-1.175279	0.431020
H125	H	0.873170	-1.175079	0.497548
H126	H	0.896745	-1.163666	0.341259
H127	H	0.963092	-1.163492	0.407860
H128	H	0.252651	-0.420696	0.231198
H129	H	1.066748	-0.257276	1.058539
H130	H	0.730462	-0.257540	0.394818
O131	O	0.909303	-0.427665	1.057346
C132	C	0.826855	-0.516967	1.046411
C133	C	0.872611	-0.467471	1.009491
H134	H	0.797188	-0.549173	1.007737
H135	H	0.790198	-0.484671	1.080738
H136	H	0.859347	-0.553737	1.078099
H137	H	0.840174	-0.430691	0.977767
H138	H	0.909272	-0.499811	0.975206
O139	O	0.909273	-0.427573	0.918065
C140	C	0.818269	-0.437037	0.837839
C141	C	0.864038	-0.387557	0.878661
H142	H	0.781695	-0.404705	0.805960
H143	H	0.788511	-0.469186	0.873954
H144	H	0.850757	-0.473861	0.803347
H145	H	0.831601	-0.350691	0.913156
H146	H	0.893801	-0.355458	0.842508
O147	O	0.596506	-0.250466	0.401973
C148	C	0.600584	-0.161264	0.491413
C149	C	0.641305	-0.210714	0.441769
H150	H	0.636786	-0.129102	0.523591
H151	H	0.568759	-0.193594	0.525547
H152	H	0.566051	-0.124451	0.461814
H153	H	0.675874	-0.247537	0.471313
H154	H	0.673085	-0.178341	0.407635
O155	O	0.379887	-0.250445	0.401946
C156	C	0.369045	-0.161299	0.491437
C157	C	0.332076	-0.210784	0.441827
H158	H	0.330407	-0.129231	0.523704
H159	H	0.400693	-0.124406	0.461878
H160	H	0.403413	-0.193667	0.525492
H161	H	0.297674	-0.178473	0.407760
H162	H	0.300471	-0.247680	0.471429
H163	H	0.915854	-0.420652	0.696406
O164	O	1.066593	-1.076123	0.237885
C165	C	1.152234	-1.068351	0.152414
C166	C	1.103009	-1.027966	0.201570
H167	H	1.181700	-1.029434	0.123050
H168	H	1.122557	-1.102800	0.115630
H169	H	1.188924	-1.102727	0.182212
H170	H	1.066309	-0.993553	0.171828
H171	H	1.132730	-0.993562	0.238354
O172	O	1.092314	-0.746233	0.212077
C173	C	1.135084	-0.859457	0.169338
C174	C	1.085872	-0.819007	0.218461
H175	H	1.129883	-0.918302	0.174473
H176	H	1.189109	-0.845005	0.181817
H177	H	1.122659	-0.845004	0.115318
H178	H	1.098235	-0.833439	0.272498
H179	H	1.031862	-0.833463	0.205924
O180	O	0.386609	-0.427808	0.224074
C181	C	0.382522	-0.516948	0.134578
C182	C	0.341804	-0.467475	0.184204
H183	H	0.346314	-0.549021	0.102321
H184	H	0.417026	-0.553837	0.164126
H185	H	0.414376	-0.484571	0.100517
H186	H	0.309911	-0.499795	0.218277
H187	H	0.307342	-0.430583	0.154614
