data_functionalizedCrystal
_audit_creation_method	'MofGen! by Chris Wilmer'
_symmetry_space_group_name_H-M	'P1'
_symmetry_Int_Tables_number	1
_symmetry_cell_setting	triclinic
loop_
_symmetry_equiv_pos_as_xyz
  x,y,z
_cell_length_a	15.537862
_cell_length_b	19.188924
_cell_length_c	14.185569
_cell_angle_alpha	76.888872
_cell_angle_beta	97.877082
_cell_angle_gamma	65.203199
loop_
_atom_site_label
_atom_site_type_symbol
_atom_site_fract_x
_atom_site_fract_y
_atom_site_fract_z
O1	O	1.229479	-0.205827	-0.083353
O2	O	0.954866	-0.125103	-0.083371
O3	O	1.100104	-0.269116	-0.083349
O4	O	1.084241	-0.061814	-0.083374
O5	O	1.143008	-0.311655	0.083492
O6	O	0.997770	-0.167642	0.083470
O7	O	1.272383	-0.248366	0.083488
Cu8	Cu	1.138994	-0.211889	0.098713
Cu9	Cu	1.088255	-0.161581	-0.098596
O10	O	1.127146	-0.104354	0.083467
C11	C	0.941185	-0.137926	0.000047
C12	C	0.836500	-0.112767	0.000041
C13	C	1.121044	-0.316268	0.000072
C14	C	1.119506	-0.393387	0.000075
C15	C	0.677443	-0.010791	0.000024
C16	C	0.775812	-0.034439	0.000030
C17	C	0.798836	-0.167480	0.000051
C18	C	0.700468	-0.143845	0.000050
C19	C	0.639779	-0.065498	0.000035
C20	C	0.662804	-0.198553	0.000061
C21	C	0.564443	-0.174917	0.000055
C22	C	0.503747	-0.096573	0.000038
C23	C	0.541418	-0.041863	0.000029
C24	C	0.723493	-0.276897	0.000068
C25	C	0.685829	-0.331604	0.000079
C26	C	0.587468	-0.307971	0.000080
C27	C	0.526772	-0.229628	0.000063
C28	C	0.549797	-0.362682	0.000088
C29	C	0.451437	-0.339046	0.000082
C30	C	0.428412	-0.205992	0.000057
C31	C	1.095401	-0.406418	-0.090871
C32	C	1.093940	-0.478872	-0.090878
C33	C	1.116605	-0.538301	0.000064
C34	C	1.140708	-0.525263	0.091022
C35	C	1.142159	-0.452806	0.091027
N36	N	1.185403	-0.688133	0.067754
N37	N	1.184025	-0.756963	0.067743
C38	C	1.112235	-0.756610	0.000054
N39	N	1.041881	-0.684827	-0.067638
N40	N	1.043262	-0.615991	-0.067630
C41	C	1.115035	-0.616871	0.000069
C42	C	1.086543	-0.848202	-0.090906
C43	C	1.085077	-0.920656	-0.090910
C44	C	1.131855	-0.967050	0.090993
C45	C	1.133311	-0.894593	0.090994
C46	C	1.110658	-0.835174	0.000042
C47	C	1.286064	-0.235543	0.000068
C48	C	1.390747	-0.260700	0.000068
C49	C	1.106205	-0.057201	0.000043
C50	C	1.107741	0.019920	0.000034
N51	N	1.174689	-0.247274	0.237489
N52	N	1.052568	-0.126203	-0.237372
C53	C	0.947698	-0.022269	0.605106
C54	C	0.974743	-0.049071	0.710131
C55	C	1.103377	-0.176565	0.710111
C56	C	1.076340	-0.149776	0.605084
C57	C	0.998501	-0.072627	0.552589
C58	C	1.127142	-0.200134	0.552567
C59	C	1.100110	-0.173345	0.447548
C60	C	1.022276	-0.096199	0.395047
C61	C	0.971469	-0.045839	0.447570
C62	C	1.204985	-0.277281	0.605064
C63	C	1.255788	-0.327638	0.552547
C64	C	1.228752	-0.300852	0.447526
C65	C	1.150918	-0.223705	0.395025
C66	C	1.279559	-0.351212	0.395003
C67	C	1.252528	-0.324423	0.289984
C68	C	1.123886	-0.196916	0.290006
H69	H	0.378998	-0.142198	0.000059
H70	H	1.161785	-0.442199	0.165088
H71	H	0.803579	-0.296133	0.000054
Br72	Br	0.459052	0.064459	0.000036
H73	H	1.068092	-0.799818	-0.164964
H74	H	0.628029	0.053003	0.000026
Br75	Br	1.052349	-0.938336	-0.214347
H76	H	0.423655	-0.077330	0.000029
H77	H	0.806476	0.010114	0.000033
H78	H	0.848261	-0.231269	0.000059
Br79	Br	0.768200	-0.437927	0.000097
H80	H	1.152948	-0.883989	0.165052
Br81	Br	1.018232	-0.092218	0.218758
H82	H	1.000271	-0.074387	0.309534
H83	H	0.908078	0.016981	0.404827
H84	H	0.599222	-0.426468	0.000090
H85	H	0.420770	-0.383594	0.000090
Br86	Br	1.064654	-0.325779	-0.214305
H87	H	1.074305	-0.489481	-0.164939
H88	H	1.150302	-1.015435	0.165040
H89	H	1.159160	-0.573654	0.165068
H90	H	0.884307	0.040550	0.562362
H91	H	1.166757	-0.239380	0.752864
H92	H	0.933367	-0.008056	0.752885
Br93	Br	1.241675	-0.313631	0.747591
H94	H	1.319168	-0.390453	0.595300
H95	H	1.342943	-0.414025	0.437757
Br96	Br	1.321481	-0.392765	0.218708
