data_functionalizedCrystal
_audit_creation_method	'MofGen! by Chris Wilmer'
_symmetry_space_group_name_H-M	'P1'
_symmetry_Int_Tables_number	1
_symmetry_cell_setting	triclinic
loop_
_symmetry_equiv_pos_as_xyz
  x,y,z
_cell_length_a	10.489741
_cell_length_b	9.730223
_cell_length_c	10.489711
_cell_angle_alpha	89.997992
_cell_angle_beta	84.533092
_cell_angle_gamma	90.002467
loop_
_atom_site_label
_atom_site_type_symbol
_atom_site_fract_x
_atom_site_fract_y
_atom_site_fract_z
O1	O	1.694027	-0.114207	0.179965
O2	O	1.322830	-0.114229	0.196858
O3	O	1.516895	-0.114206	0.002811
O4	O	1.499962	-0.114230	0.374012
O5	O	1.516892	0.114374	0.002816
O6	O	1.322827	0.114351	0.196863
O7	O	1.694025	0.114373	0.179970
Zn8	Zn	1.508426	0.150654	0.188417
Zn9	Zn	1.508429	-0.150510	0.188410
O10	O	1.499960	0.114350	0.374016
C11	C	1.275297	0.000058	0.195584
C12	C	1.133668	0.000051	0.191767
N13	N	1.508433	0.356190	0.188421
N14	N	1.508431	-0.356046	0.188397
C15	C	1.065541	0.000071	0.068301
C16	C	0.973409	-0.112631	0.126623
C17	C	0.973441	0.112731	0.126657
C18	C	1.043401	-0.112745	0.250140
C19	C	1.043443	0.112718	0.250157
C20	C	0.951338	-0.000012	0.308568
C21	C	1.741558	0.000082	0.181243
C22	C	1.883187	0.000081	0.185060
C23	C	1.515623	0.000084	-0.044719
C24	C	1.511821	0.000084	-0.186350
C25	C	1.594387	0.428126	0.102526
C26	C	1.594384	0.572009	0.102511
C27	C	1.422468	0.572007	0.274295
C28	C	1.422466	0.428127	0.274304
C29	C	1.680354	0.356190	0.016643
C30	C	1.766316	0.428126	-0.069258
C31	C	1.766313	0.572009	-0.069273
C32	C	1.680347	0.643956	0.016612
C33	C	1.501232	0.000057	0.421546
C34	C	1.505034	0.000048	0.563178
C35	C	1.388329	0.000061	0.745564
C36	C	1.446624	0.112762	0.653415
C37	C	1.446657	-0.112600	0.653449
C38	C	1.570166	0.112878	0.723366
C39	C	1.570183	-0.112585	0.723409
C40	C	1.628567	0.000144	0.631288
H41	H	1.115241	-0.000063	-0.033196
H42	H	1.622371	0.208271	0.754172
O43	O	0.932310	-0.238830	0.057429
H44	H	0.978458	-0.238593	-0.042288
O45	O	1.680345	0.799145	0.016604
H46	H	1.659094	0.837082	-0.078894
O47	O	1.377416	-0.238813	0.612448
H48	H	1.375964	-0.238164	0.506785
O49	O	1.084240	-0.239123	0.319238
H50	H	1.132925	-0.207591	0.403999
O51	O	0.885862	-0.000074	0.443157
H52	H	0.913896	-0.093715	0.494085
O53	O	1.680343	0.201003	0.016652
H54	H	1.754550	0.163062	-0.057505
H55	H	1.730159	0.000212	0.581822
H56	H	1.836300	0.369539	-0.139190
H57	H	1.074482	0.208000	0.302357
O58	O	0.932419	0.238957	0.057450
H59	H	0.978599	0.238715	-0.042254
H60	H	1.836298	0.630578	-0.139225
O61	O	1.329765	0.649597	0.366939
H62	H	1.344218	0.761732	0.352512
O63	O	1.639344	-0.238786	0.764528
H64	H	1.587890	-0.332214	0.736834
O65	O	1.329769	0.350522	0.366951
H66	H	1.270006	0.424714	0.426684
O67	O	1.253890	0.000194	0.811407
H68	H	1.202935	0.093888	0.783554
O69	O	1.377423	0.238974	0.612360
H70	H	1.277722	0.238743	0.658547
