data_functionalizedCrystal
_audit_creation_method	'MofGen! by Chris Wilmer'
_symmetry_space_group_name_H-M	'P1'
_symmetry_Int_Tables_number	1
_symmetry_cell_setting	triclinic
loop_
_symmetry_equiv_pos_as_xyz
  x,y,z
_cell_length_a	10.489741
_cell_length_b	27.732048
_cell_length_c	9.565339
_cell_angle_alpha	89.995294
_cell_angle_beta	89.999100
_cell_angle_gamma	83.590915
loop_
_atom_site_label
_atom_site_type_symbol
_atom_site_fract_x
_atom_site_fract_y
_atom_site_fract_z
O1	O	1.691056	0.068187	-0.116191
O2	O	1.319579	0.074588	-0.116214
O3	O	1.516855	0.001064	-0.116175
O4	O	1.493780	0.141712	-0.116230
O5	O	1.516839	0.001068	0.116345
O6	O	1.319563	0.074593	0.116306
O7	O	1.691040	0.068192	0.116329
Zn8	Zn	1.505299	0.071393	0.153235
Zn9	Zn	1.505320	0.071387	-0.153120
O10	O	1.493765	0.141716	0.116290
C11	C	1.272061	0.074107	0.000043
C12	C	1.130495	0.072661	0.000036
C13	C	1.064411	0.025879	0.000067
C14	C	0.971320	0.047976	-0.114583
C15	C	0.971339	0.047992	0.114663
C16	C	1.039269	0.094777	-0.114709
C17	C	1.039297	0.094786	0.114640
C18	C	0.946232	0.116916	-0.000038
C19	C	1.516363	-0.016944	0.000089
C20	C	1.514904	-0.070608	0.000100
C21	C	1.622299	-0.408745	0.000035
C22	C	1.616888	-0.610439	0.000015
O23	O	1.715093	-0.641075	-0.000040
N24	N	1.499911	-0.630301	0.000009
C25	C	1.384279	-0.599736	-0.000001
O26	O	1.284660	-0.621258	-0.000021
C27	C	1.389692	-0.398044	0.000009
C28	C	1.506676	-0.378184	0.000029
C29	C	1.739274	-0.388886	0.000054
C30	C	1.740625	-0.338465	0.000066
C31	C	1.625002	-0.307904	0.000060
C32	C	1.508028	-0.327764	0.000042
C33	C	1.274062	-0.367480	-0.000011
C34	C	1.275425	-0.317054	-0.000012
C35	C	1.392409	-0.297195	0.000008
C36	C	1.393757	-0.246783	0.000048
N37	N	1.510733	-0.226920	0.000054
C38	C	1.626356	-0.257481	0.000060
C39	C	1.381446	-0.705628	-0.000003
C40	C	1.380092	-0.756051	-0.000003
C41	C	1.612701	-0.766751	0.000010
C42	C	1.614053	-0.716327	0.000020
C43	C	1.498422	-0.685766	0.000003
C44	C	1.629186	-0.151594	0.000088
C45	C	1.630527	-0.101169	0.000106
C46	C	1.397919	-0.090474	0.000085
C47	C	1.396577	-0.140895	0.000074
C48	C	1.512221	-0.171454	0.000071
O49	O	1.295604	-0.216118	0.000088
O50	O	1.725961	-0.235950	0.000049
C51	C	1.620947	-0.459166	0.000023
C52	C	1.503973	-0.479025	0.000004
C53	C	1.388350	-0.448464	-0.000002
C54	C	1.502619	-0.529448	0.000004
C55	C	1.618242	-0.560009	0.000010
C56	C	1.735219	-0.540147	0.000016
C57	C	1.736570	-0.489727	0.000029
C58	C	1.271374	-0.468327	-0.000008
C59	C	1.270032	-0.518748	-0.000019
C60	C	1.385654	-0.549308	-0.000013
C61	C	1.738559	0.068673	0.000069
C62	C	1.880124	0.070119	0.000067
C63	C	1.494257	0.159724	0.000023
C64	C	1.495715	0.213388	0.000003
N65	N	1.505295	0.071397	0.362315
N66	N	1.505335	0.071379	-0.362199
C67	C	1.414034	0.105388	0.453500
C68	C	1.529101	0.115168	0.546682
C69	C	1.390277	0.061621	0.546688
C70	C	1.620419	0.081198	0.453445
C71	C	1.481520	0.027633	0.453443
C72	C	1.596671	0.037394	0.546583
H73	H	1.069234	0.114553	-0.211747
H74	H	1.287280	-0.680750	-0.000017
O75	O	1.736598	0.091094	0.405036
C76	C	1.817876	0.098015	0.518965
H77	H	1.783340	0.079014	0.615245
H78	H	1.920012	0.082145	0.492661
H79	H	1.816000	0.138480	0.541114
H80	H	0.895116	0.155414	-0.000115
O81	O	1.552945	0.159309	0.595722
C82	C	1.449054	0.179111	0.678851
H83	H	1.394715	0.148633	0.719717
H84	H	1.486650	0.199538	0.770779
H85	H	1.381790	0.205173	0.613282
O86	O	1.457686	-0.016514	0.404464
C87	C	1.562549	-0.036708	0.323361
H88	H	1.652355	-0.019773	0.355201
H89	H	1.578471	-0.077577	0.341291
H90	H	1.541617	-0.029103	0.208013
H91	H	1.115791	-0.012578	-0.000061
O92	O	1.285725	-0.060713	0.000016
C93	C	1.312018	-0.011952	0.000058
H94	H	1.412164	-0.009668	-0.043943
H95	H	1.238274	0.010635	-0.067461
H96	H	1.306876	0.002608	0.111610
O97	O	1.274114	0.051819	0.595380
C98	C	1.178178	0.087763	0.547979
H99	H	1.213030	0.105597	0.449850
H100	H	1.087353	0.070402	0.522869
H101	H	1.156572	0.116356	0.632887
O102	O	0.935442	0.024284	-0.230097
C103	C	0.996253	-0.023696	-0.229694
H104	H	1.024181	-0.034815	-0.118127
H105	H	0.927744	-0.049153	-0.272985
H106	H	1.086007	-0.025920	-0.297645
H107	H	1.069467	0.114566	0.211560
O108	O	1.689020	0.003142	0.594984
C109	C	1.810064	0.013617	0.547185
H110	H	1.805619	0.053887	0.521173
H111	H	1.884829	0.004142	0.632214
H112	H	1.837623	-0.008706	0.449519
O113	O	1.744091	-0.081822	-0.000067
C114	C	1.751857	-0.052979	-0.120502
H115	H	1.651086	-0.040775	-0.160653
H116	H	1.802037	-0.019789	-0.093409
H117	H	1.808729	-0.075050	-0.204830
O118	O	0.935584	0.024308	0.230260
C119	C	0.996354	-0.023679	0.229815
H120	H	1.086598	-0.025684	0.162701
H121	H	1.023463	-0.035171	0.341313
H122	H	0.928145	-0.048983	0.185074
O123	O	1.741603	-0.181226	-0.000095
C124	C	1.812683	-0.172159	-0.120524
H125	H	1.780584	-0.134026	-0.160673
H126	H	1.919121	-0.175322	-0.093423
H127	H	1.795824	-0.199794	-0.204856
O128	O	1.854298	-0.319202	-0.000176
C129	C	1.924728	-0.334790	-0.120582
H130	H	1.856299	-0.345512	-0.204752
H131	H	1.978392	-0.304062	-0.161004
H132	H	1.996443	-0.367401	-0.093356
O133	O	1.851567	-0.418588	-0.000185
C134	C	1.857766	-0.448082	-0.120588
H135	H	1.792177	-0.429855	-0.204770
H136	H	1.960620	-0.453377	-0.160993
H137	H	1.825517	-0.484863	-0.093362
H138	H	1.706846	-0.791642	0.000016
H139	H	1.178801	-0.383640	-0.000036
O140	O	1.727803	-0.697117	-0.000036
C141	C	1.829555	-0.734910	0.000009
H142	H	1.794485	-0.769282	-0.044007
H143	H	1.911294	-0.724087	-0.067498
H144	H	1.865165	-0.741919	0.111563
O145	O	1.266342	-0.775260	-0.000069
C146	C	1.164590	-0.737467	-0.000043
H147	H	1.199665	-0.703093	-0.044057
H148	H	1.082859	-0.748287	-0.067559
H149	H	1.128964	-0.730462	0.111506
O150	O	1.850322	-0.470519	-0.000023
C151	C	1.952069	-0.508313	0.000014
H152	H	1.916994	-0.542683	-0.044011
H153	H	2.033811	-0.497490	-0.067489
H154	H	1.987678	-0.515327	0.111567
O155	O	1.163180	-0.287319	0.000160
C156	C	1.156966	-0.257846	0.120606
H157	H	1.258139	-0.254936	0.160771
H158	H	1.108689	-0.220124	0.093522
H159	H	1.099045	-0.274644	0.204920
O160	O	1.282829	-0.160109	-0.000002
C161	C	1.181069	-0.122320	0.000036
H162	H	1.216138	-0.087942	-0.043957
H163	H	1.099346	-0.133139	-0.067494
H164	H	1.145436	-0.115323	0.111585
O165	O	1.847503	-0.569859	-0.000229
C166	C	1.853653	-0.599347	-0.120644
H167	H	1.788069	-0.581106	-0.204809
H168	H	1.956500	-0.604656	-0.161067
H169	H	1.821365	-0.636123	-0.093427
H170	H	1.177217	-0.443448	-0.000016
O171	O	1.156464	-0.538092	-0.000226
C172	C	1.148720	-0.566918	-0.120683
H173	H	1.249499	-0.579120	-0.160813
H174	H	1.098527	-0.600110	-0.093626
H175	H	1.091871	-0.544836	-0.205012
O176	O	1.321915	0.139645	0.404658
C177	C	1.233079	0.117180	0.323564
H178	H	1.235914	0.077452	0.355313
H179	H	1.132532	0.136349	0.341605
H180	H	1.258952	0.119574	0.208204
