data_functionalizedCrystal
_audit_creation_method	'MofGen! by Chris Wilmer'
_symmetry_space_group_name_H-M	'P1'
_symmetry_Int_Tables_number	1
_symmetry_cell_setting	triclinic
loop_
_symmetry_equiv_pos_as_xyz
  x,y,z
_cell_length_a	12.594516
_cell_length_b	12.594517
_cell_length_c	14.908308
_cell_angle_alpha	93.272126
_cell_angle_beta	86.728502
_cell_angle_gamma	89.988892
loop_
_atom_site_label
_atom_site_type_symbol
_atom_site_fract_x
_atom_site_fract_y
_atom_site_fract_z
Zn1	Zn	-0.458602	-1.592499	0.510269
Zn2	Zn	-0.626339	-1.602667	0.359426
Zn3	Zn	-0.448359	-1.424781	0.359411
Zn4	Zn	-0.636520	-1.414488	0.510217
O5	O	-0.542455	-1.508609	0.434831
O6	O	-0.480879	-1.742791	0.490286
O7	O	-0.594182	-1.587634	0.233183
O8	O	-0.300773	-1.447082	0.379438
O9	O	-0.604114	-1.750262	0.379463
O10	O	-0.308298	-1.570303	0.490272
O11	O	-0.463421	-1.456942	0.233172
O12	O	-0.473292	-1.274472	0.379388
O13	O	-0.621466	-1.429538	0.636465
O14	O	-0.611534	-1.266910	0.490185
O15	O	-0.490751	-1.560322	0.636503
O16	O	-0.776634	-1.577653	0.379413
O17	O	-0.784114	-1.439398	0.490199
C18	C	-0.542407	-1.232071	0.434780
C19	C	-0.542414	-1.113766	0.434780
C20	C	-0.467144	-0.977823	0.374645
C21	C	-0.446823	-1.043072	0.456970
C22	C	-0.562688	-1.050088	0.352464
C23	C	-0.522075	-0.968223	0.517199
C24	C	-0.637981	-0.975236	0.412637
C25	C	-0.617700	-1.040450	0.495019
C26	C	-0.818995	-1.508540	0.434822
C27	C	-0.937302	-1.508606	0.434848
C28	C	-1.010660	-1.433405	0.495062
C29	C	-1.075916	-1.413081	0.412742
C30	C	-1.082846	-1.529026	0.517183
C31	C	-1.000998	-1.488233	0.352484
C32	C	-1.007925	-1.604219	0.456981
C33	C	-1.073146	-1.583936	0.374603
C34	C	-0.264836	-1.508706	0.434859
C35	C	-0.146531	-1.508747	0.434872
C36	C	-0.558387	-1.492647	0.670132
C37	C	-0.565176	-1.485845	0.770404
C38	C	-0.542483	-0.786228	0.434864
C39	C	-0.542443	-0.904535	0.434830
C40	C	-0.526508	-1.524570	0.200445
C41	C	-0.519419	-1.531578	0.100174
C42	C	-0.441794	-1.609246	0.958865
C43	C	-0.448170	-1.602858	1.053079
C44	C	-0.584296	-1.466678	1.053047
C45	C	-0.577920	-1.473066	0.958833
C46	C	-0.506669	-1.544353	0.911746
C47	C	-0.500299	-1.550745	0.817530
C48	C	-0.636419	-1.414560	0.817500
C49	C	-0.642795	-1.408173	0.911714
H50	H	-0.579824	-1.085865	0.282829
C51	C	-0.363423	-1.687666	0.907067
N52	N	-0.304391	-1.746734	0.868054
C53	C	-0.376806	-1.674248	1.104908
N54	N	-0.323052	-1.728023	1.143945
C55	C	-0.707786	-1.343174	0.765660
N56	N	-0.761540	-1.289409	0.726614
C57	C	-0.952854	-1.464844	0.258405
N58	N	-0.916589	-1.447223	0.187548
C59	C	-0.381081	-0.940477	0.306005
N60	N	-0.316257	-0.912345	0.254311
H61	H	-0.366014	-1.072898	0.475736
C62	C	-0.747109	-0.934877	0.387263
N63	N	-0.829303	-0.904474	0.368141
H64	H	-0.642305	-1.408639	1.091403
H65	H	-0.504844	-0.932576	0.586854
C66	C	-1.110133	-1.669934	0.305747
N67	N	-1.137996	-1.734702	0.253881
C68	C	-0.703723	-1.077500	0.563825
N69	N	-0.768515	-1.105404	0.615651
H70	H	-0.700804	-1.350131	0.950065
H71	H	-0.442284	-1.608793	0.779193
H72	H	-0.983083	-1.369708	0.545909
C73	C	-1.116329	-1.303928	0.387459
N74	N	-1.146766	-1.221712	0.368421
C75	C	-1.131165	-1.552284	0.611236
N76	N	-1.167555	-1.569794	0.682078
H77	H	-0.977992	-1.684991	0.475721
