data_functionalizedCrystal
_audit_creation_method	'MofGen! by Chris Wilmer'
_symmetry_space_group_name_H-M	'P1'
_symmetry_Int_Tables_number	1
_symmetry_cell_setting	triclinic
loop_
_symmetry_equiv_pos_as_xyz
  x,y,z
_cell_length_a	17.699083
_cell_length_b	10.654550
_cell_length_c	9.730223
_cell_angle_alpha	90.000043
_cell_angle_beta	89.994713
_cell_angle_gamma	96.116027
loop_
_atom_site_label
_atom_site_type_symbol
_atom_site_fract_x
_atom_site_fract_y
_atom_site_fract_z
O1	O	0.106302	-1.665978	-0.114190
O2	O	0.116430	-1.300323	-0.114216
O3	O	0.001243	-1.493481	-0.114190
O4	O	0.221490	-1.472820	-0.114216
O5	O	0.001240	-1.493469	0.114390
O6	O	0.116427	-1.300310	0.114364
O7	O	0.106299	-1.665966	0.114390
Zn8	Zn	0.111363	-1.483136	0.150669
Zn9	Zn	0.111367	-1.483152	-0.150495
O10	O	0.221487	-1.472807	0.114364
C11	C	0.115685	-1.253531	0.000071
C12	C	0.113460	-1.114127	0.000061
C13	C	-0.026960	-1.492735	0.000100
C14	C	-0.110993	-1.490514	0.000100
C15	C	0.107045	-1.712757	0.000100
C16	C	0.109269	-1.852161	0.000100
C17	C	-0.158893	-1.603894	0.000110
C18	C	-0.237849	-1.601799	0.000098
C19	C	-0.268904	-1.486323	0.000085
C20	C	-0.220998	-1.372935	0.000071
C21	C	-0.142043	-1.375030	0.000074
C22	C	-0.539415	-1.364481	0.000060
C23	C	-0.618376	-1.362394	0.000061
C24	C	-0.635221	-1.591249	0.000083
C25	C	-0.556266	-1.593345	0.000086
C26	C	-0.508367	-1.479957	0.000065
C27	C	-0.422753	-1.482229	0.000075
C28	C	-0.354516	-1.484050	0.000085
C29	C	0.249690	-1.473554	0.000071
C30	C	0.333722	-1.475775	0.000061
N31	N	0.111359	-1.483134	0.356205
C32	C	0.181281	-1.033454	0.000058
C33	C	0.179186	-0.902470	0.000082
C34	C	0.041444	-0.932844	0.000108
C35	C	0.043539	-1.063826	0.000094
N36	N	0.111364	-1.483164	-0.356032
C37	C	0.060376	-1.568694	0.428142
C38	C	0.060376	-1.568706	0.572025
C39	C	0.162350	-1.397596	0.572021
C40	C	0.162345	-1.397578	0.428141
H41	H	-0.133614	-1.697927	0.000128
H42	H	0.238215	-1.074405	0.000042
O43	O	-0.681721	-1.701432	0.000330
C44	C	-0.667547	-1.771562	0.118705
H45	H	-0.640922	-1.705175	0.201445
H46	H	-0.723295	-1.822091	0.158441
H47	H	-0.626965	-1.844126	0.091953
O48	O	0.211852	-1.314621	0.642115
C49	C	0.200914	-1.332962	0.784535
H50	H	0.173187	-1.432890	0.804178
H51	H	0.258156	-1.318819	0.839199
H52	H	0.162557	-1.262011	0.825391
H53	H	-0.015484	-0.891873	0.000143
H54	H	0.203862	-1.327900	0.369565
H55	H	-0.643657	-1.268354	0.000054
O56	O	-0.284271	-1.712053	0.000178
C57	C	-0.239930	-1.814423	0.000167
H58	H	-0.181181	-1.782361	0.043439
H59	H	-0.268638	-1.893840	0.066544
H60	H	-0.234117	-1.849847	-0.109487
O61	O	0.010888	-1.651692	0.358050
C62	C	0.021784	-1.633287	0.215630
H63	H	0.081709	-1.586236	0.195945
H64	H	0.013838	-1.728386	0.160907
H65	H	-0.021381	-1.570359	0.174874
O66	O	0.245088	-0.824158	-0.000172
C67	C	0.287501	-0.846937	-0.118554
H68	H	0.247777	-0.891817	-0.201292
H69	H	0.317364	-0.753907	-0.158286
H70	H	0.331659	-0.913504	-0.091812
H71	H	-0.500424	-1.272153	0.000043
O72	O	-0.022417	-1.142022	0.000035
C73	C	-0.084580	-1.069541	0.000089
H74	H	-0.065888	-0.971717	-0.043182
H75	H	-0.132141	-1.118008	-0.066267
H76	H	-0.105978	-1.060290	0.109756
O77	O	-0.251253	-1.260840	-0.000125
C78	C	-0.296400	-1.252775	-0.118524
H79	H	-0.315541	-1.351816	-0.157985
H80	H	-0.348357	-1.202871	-0.091901
H81	H	-0.261811	-1.197116	-0.201426
O82	O	-0.526137	-1.705550	-0.000147
C83	C	-0.550565	-1.774669	-0.118511
H84	H	-0.567337	-1.707141	-0.201257
H85	H	-0.502460	-1.827952	-0.158247
H86	H	-0.601649	-1.844804	-0.091744
O87	O	-0.095478	-1.264927	-0.000176
C88	C	-0.049286	-1.259317	-0.118544
H89	H	-0.077858	-1.323628	-0.201279
H90	H	-0.040935	-1.158137	-0.158292
H91	H	0.008288	-1.291648	-0.091776
H92	H	0.018860	-1.638375	0.630593
