data_functionalizedCrystal
_audit_creation_method	'MofGen! by Chris Wilmer'
_symmetry_space_group_name_H-M	'P1'
_symmetry_Int_Tables_number	1
_symmetry_cell_setting	triclinic
loop_
_symmetry_equiv_pos_as_xyz
  x,y,z
_cell_length_a	11.792241
_cell_length_b	10.540539
_cell_length_c	10.868271
_cell_angle_alpha	89.997005
_cell_angle_beta	89.999893
_cell_angle_gamma	84.359454
loop_
_atom_site_label
_atom_site_type_symbol
_atom_site_fract_x
_atom_site_fract_y
_atom_site_fract_z
O1	O	1.507361	0.173992	-0.102197
O2	O	1.177067	0.191924	-0.102225
O3	O	1.349750	-0.001773	-0.102208
O4	O	1.334679	0.367689	-0.102213
O5	O	1.349735	-0.001781	0.102436
O6	O	1.177053	0.191916	0.102420
O7	O	1.507347	0.173984	0.102448
Zn8	Zn	1.342198	0.182949	0.134926
Zn9	Zn	1.342216	0.182959	-0.134702
O10	O	1.334664	0.367681	0.102432
C11	C	1.134766	0.190793	0.000094
C12	C	1.008743	0.187422	0.000083
C13	C	0.778015	0.181223	0.000119
C14	C	0.906409	0.184667	0.000099
C15	C	1.348612	-0.049076	0.000112
C16	C	1.345231	-0.190014	0.000105
C17	C	1.215660	-0.373018	-0.000366
C18	C	1.219087	-0.226411	0.000095
C19	C	1.405929	-0.251873	0.116972
C20	C	1.401623	-0.398404	0.117070
C21	C	1.404205	-0.398922	-0.115649
C22	C	1.405367	-0.251943	-0.117194
C23	C	1.549648	0.175114	0.000127
C24	C	1.675671	0.178486	0.000130
C25	C	1.335802	0.414984	0.000109
C26	C	1.339183	0.555921	0.000108
N27	N	1.342193	0.182941	0.318940
N28	N	1.342230	0.182957	-0.318716
C29	C	1.342211	0.182956	0.569946
C30	C	1.342197	0.182952	0.430268
H31	H	1.165836	-0.401453	-0.084174
H32	H	1.497336	-0.228021	-0.124243
H33	H	1.171327	-0.183649	-0.083680
H34	H	1.363753	-0.209140	0.203933
H35	H	1.170980	-0.184502	0.084002
H36	H	1.166027	-0.403067	0.082965
O37	O	1.348016	-0.431659	0.221308
C38	C	1.255161	-0.359442	0.409691
C39	C	1.315832	-0.321610	0.291678
H40	H	1.229144	-0.270493	0.466631
H41	H	1.176047	-0.407711	0.384136
H42	H	1.315457	-0.428157	0.465717
H43	H	1.255626	-0.252858	0.235597
H44	H	1.394961	-0.273411	0.317319
O45	O	1.516418	-0.225511	0.122398
C46	C	1.659612	-0.128443	0.237638
C47	C	1.534462	-0.158242	0.231666
H48	H	1.674235	-0.074029	0.325961
H49	H	1.717966	-0.221322	0.236426
H50	H	1.679266	-0.067839	0.154889
H51	H	1.514700	-0.218808	0.314398
H52	H	1.476176	-0.065315	0.232818
H53	H	1.363385	-0.430338	-0.204226
O54	O	1.509915	-0.455788	0.123478
C55	C	1.709892	-0.427214	0.134829
C56	C	1.587314	-0.362071	0.127595
H57	H	1.772504	-0.351474	0.138134
H58	H	1.719790	-0.488488	0.221329
H59	H	1.728130	-0.489923	0.050280
H60	H	1.568993	-0.299299	0.212081
H61	H	1.577477	-0.300874	0.041041
O62	O	1.352652	-0.202896	-0.220432
C63	C	1.371304	-0.087420	-0.409543
C64	C	1.431152	-0.142945	-0.292699
H65	H	1.434739	-0.038914	-0.467990
H66	H	1.337239	-0.167483	-0.464708
H67	H	1.297591	-0.014677	-0.382380
H68	H	1.504909	-0.215672	-0.319752
H69	H	1.465136	-0.062814	-0.237564
H70	H	1.495318	-0.446444	-0.116427
