data_functionalizedCrystal
_audit_creation_method	'MofGen! by Chris Wilmer'
_symmetry_space_group_name_H-M	'P1'
_symmetry_Int_Tables_number	1
_symmetry_cell_setting	triclinic
loop_
_symmetry_equiv_pos_as_xyz
  x,y,z
_cell_length_a	10.686220
_cell_length_b	18.101395
_cell_length_c	10.685880
_cell_angle_alpha	94.338576
_cell_angle_beta	89.641569
_cell_angle_gamma	94.412841
loop_
_atom_site_label
_atom_site_type_symbol
_atom_site_fract_x
_atom_site_fract_y
_atom_site_fract_z
Zn1	Zn	1.972144	-0.231178	-0.562366
Zn2	Zn	1.955871	-0.346339	-0.352610
Zn3	Zn	1.746273	-0.232688	-0.368689
Zn4	Zn	1.762280	-0.365163	-0.578382
O5	O	1.859142	-0.293842	-0.465512
O6	O	2.145532	-0.237945	-0.521110
O7	O	1.914559	-0.324017	-0.179202
O8	O	1.776347	-0.128851	-0.394407
O9	O	2.133577	-0.322553	-0.367004
O10	O	1.942293	-0.127742	-0.536701
O11	O	1.760568	-0.240518	-0.191015
O12	O	1.572850	-0.258770	-0.409936
O13	O	1.803628	-0.354636	-0.751798
O14	O	1.584610	-0.356100	-0.563997
O15	O	1.957814	-0.256198	-0.740032
O16	O	1.930080	-0.452473	-0.382533
O17	O	1.787849	-0.466303	-0.548406
C18	C	1.533212	-0.309642	-0.490450
C19	C	1.393780	-0.316420	-0.501148
C20	C	1.858971	-0.486259	-0.465488
C21	C	1.859016	-0.568572	-0.465511
C22	C	1.859297	-0.867653	-0.465557
C23	C	1.770052	-0.845059	-0.570143
C24	C	1.769569	-0.759451	-0.569875
C25	C	1.859158	-0.719276	-0.465535
C26	C	1.813222	-0.746683	-0.336069
C27	C	1.812643	-0.832383	-0.336699
C28	C	1.994600	-0.830961	-0.489256
C29	C	1.994042	-0.745468	-0.492216
C30	C	1.859081	-0.635419	-0.465514
C31	C	1.859370	-0.951509	-0.465569
C32	C	2.186345	-0.277981	-0.440477
C33	C	2.325779	-0.271222	-0.429809
C34	C	1.884322	-0.307348	-0.792703
C35	C	1.895052	-0.313104	-0.932133
C36	C	1.859350	-0.100673	-0.465561
C37	C	1.859438	-0.018356	-0.465582
C38	C	1.834133	-0.280331	-0.139588
C39	C	1.823646	-0.274355	-0.000140
H40	H	1.374229	-0.227341	-0.360546
H41	H	1.345323	-0.360309	-0.570408
H42	H	1.964404	-0.350685	-0.980582
N43	N	1.809184	-0.735485	-0.697453
H44	H	1.827119	-0.780566	-0.754373
H45	H	1.739562	-0.709409	-0.734604
N46	N	1.809397	-0.876255	-0.698173
H47	H	1.885453	-0.905338	-0.689627
H48	H	1.738292	-0.910104	-0.737156
N49	N	1.638295	-0.878715	-0.550735
H50	H	1.636164	-0.908534	-0.474490
H51	H	1.579368	-0.837781	-0.537724
H52	H	1.713436	-0.855943	-0.315443
N53	N	1.637003	-0.737477	-0.550128
H54	H	1.581686	-0.761873	-0.620176
H55	H	1.604473	-0.754127	-0.467064
N56	N	1.894272	-0.851391	-0.230684
H57	H	1.930467	-0.804114	-0.183746
H58	H	1.842123	-0.882068	-0.171498
N59	N	1.731788	-0.224569	-0.935992
H60	H	1.643875	-0.241340	-0.965590
H61	H	1.736985	-0.227389	-0.842156
H62	H	1.875732	-0.719919	-0.256464
H63	H	2.061215	-0.844781	-0.412958
H64	H	1.715002	-0.728745	-0.314220
H65	H	2.034503	-0.854854	-0.581519
H66	H	2.064866	-0.717654	-0.420783
N67	N	2.039697	-0.722105	-0.618354
H68	H	1.973295	-0.694666	-0.658059
H69	H	2.119298	-0.688453	-0.606836
