data_functionalizedCrystal
_audit_creation_method	'MofGen! by Chris Wilmer'
_symmetry_space_group_name_H-M	'P1'
_symmetry_Int_Tables_number	1
_symmetry_cell_setting	triclinic
loop_
_symmetry_equiv_pos_as_xyz
  x,y,z
_cell_length_a	17.699083
_cell_length_b	14.472311
_cell_length_c	17.699083
_cell_angle_alpha	89.989453
_cell_angle_beta	96.716985
_cell_angle_gamma	89.998109
loop_
_atom_site_label
_atom_site_type_symbol
_atom_site_fract_x
_atom_site_fract_y
_atom_site_fract_z
O1	O	1.004075	0.076713	-0.095717
O2	O	0.783696	0.076744	-0.108169
O3	O	0.900112	0.076719	0.008246
O4	O	0.887659	0.076738	-0.212132
O5	O	0.900104	-0.076963	0.008261
O6	O	0.783688	-0.076938	-0.108155
O7	O	1.004067	-0.076969	-0.095702
Cu8	Cu	0.893877	-0.090986	-0.101927
Cu9	Cu	0.893886	0.090761	-0.101944
O10	O	0.887651	-0.076944	-0.212118
C11	C	0.755495	-0.000093	-0.107716
C12	C	0.671477	-0.000082	-0.106377
C13	C	0.622856	-0.000077	-0.174710
C14	C	0.543913	-0.000089	-0.173448
C15	C	0.513592	-0.000100	-0.103852
C16	C	0.562219	-0.000108	-0.035513
C17	C	0.641161	-0.000102	-0.036776
C18	C	0.243856	-0.000131	-0.030418
C19	C	0.164908	-0.000134	-0.029160
C20	C	0.146608	-0.000118	-0.167090
C21	C	0.225550	-0.000112	-0.168353
C22	C	0.274170	-0.000125	-0.100015
C23	C	0.359769	-0.000114	-0.101384
C24	C	0.427995	-0.000104	-0.102481
N25	N	0.893876	-0.218817	-0.101914
C26	C	0.893887	-0.592908	-0.101939
C27	C	0.956380	-0.553726	-0.039854
C28	C	0.956218	-0.446638	-0.039626
C29	C	0.893882	-0.407317	-0.101927
C30	C	0.814949	-0.446198	-0.084824
C31	C	0.815319	-0.553320	-0.084385
C32	C	0.909615	-0.553409	-0.181310
C33	C	0.911409	-0.446281	-0.180775
C34	C	0.893874	-0.302429	-0.101921
C35	C	0.893890	-0.697796	-0.101942
C36	C	1.032268	-0.000130	-0.096156
C37	C	1.116286	-0.000135	-0.097494
C38	C	0.899662	-0.000122	0.036451
C39	C	0.898323	-0.000122	0.120469
N40	N	0.893893	0.218592	-0.101951
C41	C	0.888102	-0.000101	-0.240322
C42	C	0.889440	-0.000095	-0.324340
C43	C	0.966656	-0.000133	0.169090
C44	C	0.965394	-0.000124	0.248033
C45	C	0.895798	-0.000112	0.278354
C46	C	0.827459	-0.000098	0.229727
C47	C	0.828722	-0.000100	0.150785
C48	C	0.822364	-0.000090	0.548090
C49	C	0.821106	-0.000091	0.627038
C50	C	0.959036	-0.000114	0.645338
C51	C	0.960299	-0.000116	0.566396
C52	C	0.891961	-0.000098	0.517776
C53	C	0.893330	-0.000105	0.432177
C54	C	0.894427	-0.000111	0.363951
H55	H	0.537526	-0.000130	0.021154
N56	N	0.988318	-0.412606	-0.197972
H57	H	0.982194	-0.375652	-0.246719
H58	H	1.022538	-0.467359	-0.203806
N59	N	0.296291	-0.000151	0.043286
H60	H	0.265101	-0.000157	0.087564
H61	H	0.329443	0.056819	0.045768
H62	H	0.140225	-0.000144	0.027517
N63	N	0.855011	-0.410831	-0.244829
H64	H	0.817129	-0.368826	-0.223548
H65	H	0.827326	-0.464724	-0.271683
N66	N	0.849250	-0.586967	-0.242510
H67	H	0.811890	-0.627556	-0.218980
H68	H	0.873960	-0.623572	-0.281544
H69	H	1.014680	-0.000125	0.684934
N70	N	0.748658	-0.000074	0.495658
H71	H	0.760013	-0.000070	0.441047
H72	H	0.718330	0.056905	0.505459
N73	N	0.796942	-0.586442	-0.007715
H74	H	0.788677	-0.531456	0.025480
H75	H	0.840619	-0.624753	0.017234
H76	H	0.946493	-0.580660	0.018717
H77	H	0.767427	-0.579239	-0.127892
N78	N	0.693606	-0.000115	0.036926
H79	H	0.662421	-0.000122	0.081207
H80	H	0.726757	0.056856	0.039404
N81	N	0.751867	-0.412457	-0.143124
H82	H	0.773902	-0.371544	-0.181275
H83	H	0.713815	-0.376146	-0.116814
N84	N	0.258244	-0.000103	-0.243422
H85	H	0.290593	-0.057071	-0.247015
H86	H	0.290546	0.056907	-0.246984
N87	N	1.033943	-0.411807	-0.053085
H88	H	1.068619	-0.466040	-0.059219
H89	H	1.055762	-0.373149	-0.008261
H90	H	0.647537	-0.000067	-0.231384
N91	N	1.041722	-0.000155	0.136389
H92	H	1.084819	-0.000159	0.179172
H93	H	1.045255	0.056815	0.104025
N94	N	1.039096	-0.000144	0.300476
H95	H	1.069476	0.056815	0.290728
H96	H	1.069395	-0.057163	0.290721
H97	H	1.015256	-0.579488	-0.049851
N98	N	0.755020	-0.000083	0.098340
H99	H	0.710739	-0.000076	0.129525
H100	H	0.752534	-0.057053	0.065194
H101	H	0.764429	-0.000083	0.651721
N102	N	0.094155	-0.000132	-0.240793
H103	H	0.103902	-0.057101	-0.271153
H104	H	0.103900	0.056876	-0.271117
H105	H	0.946184	-0.421024	0.019279
N106	N	0.796092	-0.410693	-0.009029
H107	H	0.793778	-0.340970	-0.010240
H108	H	0.836683	-0.431286	0.032432
N109	N	0.984216	-0.589190	-0.203134
H110	H	1.027004	-0.569701	-0.163540
H111	H	0.993111	-0.562977	-0.254239
N112	N	0.752390	-0.000084	0.262421
H113	H	0.748794	0.056885	0.294759
H114	H	0.748833	-0.057093	0.294735
N115	N	0.491471	-0.000187	-0.247150
H116	H	0.522658	-0.000208	-0.291430
H117	H	0.458270	0.056747	-0.249692
N118	N	1.035363	-0.000137	0.533693
H119	H	1.078462	-0.000141	0.576473
H120	H	1.038893	0.056833	0.501328
