data_functionalizedCrystal
_audit_creation_method	'MofGen! by Chris Wilmer'
_symmetry_space_group_name_H-M	'P1'
_symmetry_Int_Tables_number	1
_symmetry_cell_setting	triclinic
loop_
_symmetry_equiv_pos_as_xyz
  x,y,z
_cell_length_a	10.654545
_cell_length_b	11.792241
_cell_length_c	9.730223
_cell_angle_alpha	90.004551
_cell_angle_beta	90.002833
_cell_angle_gamma	84.338247
loop_
_atom_site_label
_atom_site_type_symbol
_atom_site_fract_x
_atom_site_fract_y
_atom_site_fract_z
O1	O	1.667391	0.159395	0.114277
O2	O	1.301869	0.174589	0.114283
O3	O	1.493501	0.001842	0.114270
O4	O	1.475760	0.332142	0.114290
O5	O	1.493488	0.001837	-0.114310
O6	O	1.301857	0.174584	-0.114297
O7	O	1.667379	0.159390	-0.114303
Zn8	Zn	1.484616	0.166987	-0.150592
Zn9	Zn	1.484632	0.166993	0.150572
O10	O	1.475748	0.332138	-0.114290
C11	C	1.255068	0.173472	-0.000007
C12	C	1.115634	0.170138	-0.000005
C13	C	1.050127	0.168565	-0.124604
C14	C	0.919117	0.165413	-0.124605
C15	C	0.919131	0.165411	0.124606
C16	C	1.050140	0.168555	0.124604
C17	C	1.492380	-0.040454	-0.000020
C18	C	1.489045	-0.166475	-0.000018
C19	C	1.482911	-0.397202	0.000005
C20	C	1.486319	-0.268809	-0.000008
C21	C	1.714180	0.160507	-0.000011
C22	C	1.853614	0.163842	-0.000004
C23	C	1.476868	0.374433	0.000002
C24	C	1.480204	0.500455	0.000010
N25	N	1.484614	0.166982	-0.356129
C26	C	1.569497	0.090522	-0.428060
C27	C	1.569510	0.090522	-0.571943
C28	C	1.399752	0.243452	-0.571950
C29	C	1.399734	0.243446	-0.428070
N30	N	1.484644	0.166989	0.356108
H31	H	1.103449	0.169854	-0.226069
H32	H	0.865787	0.164133	-0.226066
Cl33	Cl	1.676222	-0.005605	-0.662367
H34	H	1.103478	0.169832	0.226075
Cl35	Cl	1.676199	-0.005609	-0.337625
H36	H	1.330646	0.305709	-0.630539
H37	H	0.865789	0.164123	0.226058
Cl38	Cl	1.293009	0.339569	-0.337633
