data_functionalizedCrystal
_audit_creation_method	'MofGen! by Chris Wilmer'
_symmetry_space_group_name_H-M	'P1'
_symmetry_Int_Tables_number	1
_symmetry_cell_setting	triclinic
loop_
_symmetry_equiv_pos_as_xyz
  x,y,z
_cell_length_a	19.077105
_cell_length_b	19.121063
_cell_length_c	19.077174
_cell_angle_alpha	94.804191
_cell_angle_beta	85.483752
_cell_angle_gamma	90.263052
loop_
_atom_site_label
_atom_site_type_symbol
_atom_site_fract_x
_atom_site_fract_y
_atom_site_fract_z
Zn1	Zn	1.079661	-0.341255	-0.455843
Zn2	Zn	1.070214	-0.453789	-0.342572
Zn3	Zn	0.957450	-0.331437	-0.332838
Zn4	Zn	0.957110	-0.453743	-0.455688
O5	O	1.016109	-0.395056	-0.396735
O6	O	1.176888	-0.360311	-0.444956
O7	O	1.051444	-0.433469	-0.242463
O8	O	0.977757	-0.234459	-0.345146
O9	O	1.169947	-0.442989	-0.361736
O10	O	1.067545	-0.241672	-0.435517
O11	O	0.968597	-0.343578	-0.235312
O12	O	0.858924	-0.343533	-0.344996
O13	O	0.977178	-0.442911	-0.554526
O14	O	0.858675	-0.433391	-0.435253
O15	O	1.067215	-0.360267	-0.554640
O16	O	1.051115	-0.552064	-0.361586
O17	O	0.968018	-0.552030	-0.444692
C18	C	0.833265	-0.387392	-0.389052
C19	C	0.755043	-0.384131	-0.385782
C20	C	0.718177	-0.429448	-0.431170
C21	C	0.644681	-0.426375	-0.428101
C22	C	0.608051	-0.377988	-0.379640
C23	C	0.644922	-0.332666	-0.334250
C24	C	0.718417	-0.335737	-0.337323
C25	C	0.388255	-0.363778	-0.365420
C26	C	0.314753	-0.360713	-0.362349
C27	C	0.314518	-0.454421	-0.456201
C28	C	0.388015	-0.457489	-0.459267
C29	C	0.424879	-0.412166	-0.413880
N30	N	0.532925	-0.374847	-0.376500
N31	N	0.500004	-0.415304	-0.417024
C32	C	1.008524	-0.577531	-0.404195
C33	C	1.005344	-0.655599	-0.407412
C34	C	1.047151	-0.692272	-0.365694
C35	C	1.044165	-0.765625	-0.368724
C36	C	0.999368	-0.802303	-0.413469
C37	C	0.957560	-0.765624	-0.455192
C38	C	0.960550	-0.692273	-0.452165
C39	C	0.988177	-1.023777	-0.424775
C40	C	0.985189	-1.097133	-0.427797
C41	C	1.071796	-1.097129	-0.341330
C42	C	1.074779	-1.023776	-0.338303
C43	C	1.032973	-0.987104	-0.380029
C44	C	0.996314	-0.877281	-0.416566
C45	C	1.036032	-0.912127	-0.376936
C46	C	1.199666	-0.402750	-0.404449
C47	C	1.277888	-0.406029	-0.407737
C48	C	1.023212	-0.402679	-0.580922
C49	C	1.026239	-0.405927	-0.659411
C50	C	1.023743	-0.211870	-0.389263
C51	C	1.026996	-0.133807	-0.386079
C52	C	0.984529	-0.360653	-0.692562
C53	C	0.987371	-0.363710	-0.766311
C54	C	1.031926	-0.412040	-0.806908
C55	C	1.073638	-0.457319	-0.773753
C56	C	1.070792	-0.454264	-0.700005
C57	C	1.045059	-0.426198	-1.027870
C58	C	1.047903	-0.429248	-1.101623
C59	C	0.961634	-0.335640	-1.094176
C60	C	0.958795	-0.332587	-1.020427
C61	C	1.000504	-0.377868	-0.987278
N62	N	1.034833	-0.415165	-0.882292
N63	N	0.997593	-0.374746	-0.911896
C64	C	1.009075	-0.387414	-0.213265
C65	C	1.006192	-0.383974	-0.134774
H66	H	0.614668	-0.463277	-0.465060
H67	H	0.284932	-0.321302	-0.322890
H68	H	0.948251	-0.321294	-0.659512
N69	N	0.758184	-0.286855	-0.288374
H70	H	0.723828	-0.255736	-0.257208
H71	H	0.786227	-0.315308	-0.258088
H72	H	0.417834	-0.496893	-0.498728
H73	H	0.418261	-0.326877	-0.328457
H74	H	0.615092	-0.293266	-0.294795
H75	H	1.072509	-0.882262	-0.340507
N76	N	1.116880	-1.136689	-0.296330
H77	H	1.149339	-1.169636	-0.327677
H78	H	1.145668	-1.102281	-0.267529
N79	N	0.274757	-0.503303	-0.505152
H80	H	0.222640	-0.494018	-0.495854
H81	H	0.290012	-0.495074	-0.555697
H82	H	0.922511	-0.293233	-0.987377
N83	N	0.943079	-0.984229	-0.469768
H84	H	0.974153	-0.956310	-0.502464
H85	H	0.914252	-1.018640	-0.498523
H86	H	0.959838	-0.907152	-0.452996
N87	N	0.916635	-0.286816	-1.129929
H88	H	0.925192	-0.296087	-1.182808
H89	H	0.865426	-0.295121	-1.115364
N90	N	1.090047	-0.475033	-0.992124
H91	H	1.141279	-0.466762	-1.006626
H92	H	1.081426	-0.465745	-0.939255
N93	N	1.095964	-0.481374	-1.145413
H94	H	1.121955	-0.509597	-1.113223
H95	H	1.067143	-0.513938	-1.176137
H96	H	1.083627	-0.662414	-0.329254
H97	H	0.953403	-0.326846	-0.793298
N98	N	1.089257	-0.805181	-0.323728
H99	H	1.118085	-0.770815	-0.294919
H100	H	1.058131	-0.833103	-0.291083
N101	N	1.121687	-0.509455	-0.817536
H102	H	1.117162	-0.504521	-0.869286
H103	H	1.171907	-0.500102	-0.806312
N104	N	0.909244	-0.805180	-0.503457
H105	H	0.913691	-0.857213	-0.499043
H106	H	0.859089	-0.789843	-0.489785
H107	H	1.104763	-0.491126	-0.673015
N108	N	1.123106	-0.984218	-0.290053
H109	H	1.149143	-1.018583	-0.264088
H110	H	1.157998	-0.956304	-0.318946
H111	H	0.948718	-1.126995	-0.464247
N112	N	0.915460	-0.652710	-0.497158
H113	H	0.927776	-0.667989	-0.548604
H114	H	0.864255	-0.662972	-0.484508
N115	N	0.757683	-0.481642	-0.483434
H116	H	0.723173	-0.509882	-0.511722
H117	H	0.790632	-0.455734	-0.516270
