data_functionalizedCrystal
_audit_creation_method	'MofGen! by Chris Wilmer'
_symmetry_space_group_name_H-M	'P1'
_symmetry_Int_Tables_number	1
_symmetry_cell_setting	triclinic
loop_
_symmetry_equiv_pos_as_xyz
  x,y,z
_cell_length_a	10.654545
_cell_length_b	10.654551
_cell_length_c	9.130313
_cell_angle_alpha	90.004697
_cell_angle_beta	90.004109
_cell_angle_gamma	84.484254
loop_
_atom_site_label
_atom_site_type_symbol
_atom_site_fract_x
_atom_site_fract_y
_atom_site_fract_z
O1	O	1.667845	0.176375	0.121779
O2	O	1.302366	0.193187	0.121784
O3	O	1.493508	0.002042	0.121778
O4	O	1.476703	0.367520	0.121785
O5	O	1.493491	0.002029	-0.121821
O6	O	1.302350	0.193175	-0.121815
O7	O	1.667829	0.176363	-0.121820
Cu8	Cu	1.485088	0.184767	-0.144060
Cu9	Cu	1.485107	0.184782	0.144024
O10	O	1.476687	0.367508	-0.121814
C11	C	1.255560	0.191948	-0.000015
C12	C	1.116116	0.188258	-0.000012
C13	C	1.050603	0.186514	-0.132799
C14	C	0.919583	0.183027	-0.132799
C15	C	0.919602	0.183032	0.132786
C16	C	1.050620	0.186510	0.132784
C17	C	1.492265	-0.044762	-0.000019
C18	C	1.488573	-0.184205	-0.000012
C19	C	1.714635	0.177602	-0.000018
C20	C	1.854079	0.181292	-0.000011
C21	C	1.486849	-0.249703	0.132775
C22	C	1.483369	-0.380723	0.132776
C23	C	1.483342	-0.380738	-0.132809
C24	C	1.486813	-0.249719	-0.132808
C25	C	1.477929	0.414312	-0.000014
C26	C	1.481622	0.553755	-0.000011
N27	N	1.485083	0.184756	-0.346683
C28	C	1.408284	0.107898	-0.576729
C29	C	1.408268	0.107880	-0.423392
C30	C	1.561929	0.261645	-0.423318
C31	C	1.561951	0.261655	-0.576652
N32	N	1.485121	0.184783	0.346646
H33	H	1.103963	0.187927	0.240922
C34	C	1.481413	-0.452819	-0.278871
C35	C	1.370159	-0.529586	-0.315367
C36	C	1.368231	-0.601669	-0.461429
C37	C	1.477558	-0.596985	-0.570995
C38	C	1.588820	-0.520216	-0.534501
C39	C	1.590748	-0.448132	-0.388439
H40	H	1.289222	-0.533055	-0.234258
H41	H	1.285867	-0.658499	-0.488444
H42	H	1.476130	-0.650346	-0.679119
H43	H	1.669758	-0.516746	-0.615611
H44	H	1.673113	-0.391302	-0.361425
C45	C	1.323743	0.023309	-0.339104
C46	C	1.221959	0.082756	-0.233700
C47	C	1.137431	-0.001821	-0.149411
C48	C	1.154687	-0.145844	-0.170526
C49	C	1.256476	-0.205298	-0.275935
C50	C	1.341004	-0.120722	-0.360224
H51	H	1.209181	0.189377	-0.218065
H52	H	1.062080	0.042192	-0.071380
H53	H	1.092115	-0.208453	-0.108130
H54	H	1.269254	-0.311920	-0.291570
H55	H	1.416354	-0.164735	-0.438254
H56	H	0.866248	0.181607	-0.240927
H57	H	1.481962	-0.434044	0.240905
C58	C	0.847554	0.181120	0.278858
C59	C	0.852262	0.290464	0.388416
C60	C	0.780219	0.288555	0.534493
C61	C	0.703466	0.177303	0.571012
C62	C	0.698754	0.067952	0.461452
C63	C	0.770798	0.069860	0.315375
H64	H	0.909082	0.372827	0.361385
H65	H	0.783707	0.369505	0.615597
H66	H	0.650135	0.175891	0.679147
H67	H	0.641935	-0.014411	0.488483
H68	H	0.767310	-0.011090	0.234271
H69	H	1.488210	-0.196389	-0.240946
C70	C	1.323783	0.023335	-0.661105
C71	C	1.383311	-0.078398	-0.766528
C72	C	1.298810	-0.162965	-0.850900
C73	C	1.154780	-0.145800	-0.829850
C74	C	1.095244	-0.044062	-0.724423
C75	C	1.179745	0.040505	-0.640051
H76	H	1.489938	-0.091109	-0.782114
H77	H	1.342883	-0.238278	-0.928944
H78	H	1.092227	-0.208401	-0.892308
H79	H	0.988617	-0.031351	-0.708836
H80	H	1.135672	0.115818	-0.562007
H81	H	1.103926	0.187937	-0.240931
H82	H	1.624479	0.324233	-0.360848
H83	H	1.488278	-0.196365	0.240906
H84	H	1.624527	0.324265	-0.639041
