data_functionalizedCrystal
_audit_creation_method	'MofGen! by Chris Wilmer'
_symmetry_space_group_name_H-M	'P1'
_symmetry_Int_Tables_number	1
_symmetry_cell_setting	triclinic
loop_
_symmetry_equiv_pos_as_xyz
  x,y,z
_cell_length_a	12.759400
_cell_length_b	12.594517
_cell_length_c	12.594509
_cell_angle_alpha	89.991955
_cell_angle_beta	90.027092
_cell_angle_gamma	89.991674
loop_
_atom_site_label
_atom_site_type_symbol
_atom_site_fract_x
_atom_site_fract_y
_atom_site_fract_z
Zn1	Zn	-0.418429	-1.627280	0.601471
Zn2	Zn	-0.594134	-1.627174	0.423492
Zn3	Zn	-0.418450	-1.449283	0.423542
Zn4	Zn	-0.594047	-1.449270	0.601464
O5	O	-0.506265	-1.538252	0.512492
O6	O	-0.441764	-1.776212	0.577844
O7	O	-0.570875	-1.603538	0.274552
O8	O	-0.271427	-1.472944	0.447170
O9	O	-0.570854	-1.776134	0.447083
O10	O	-0.271411	-1.603718	0.577893
O11	O	-0.441801	-1.472842	0.274590
O12	O	-0.441716	-1.300336	0.447162
O13	O	-0.570706	-1.472923	0.750411
O14	O	-0.570726	-1.300326	0.577880
O15	O	-0.441680	-1.603706	0.750416
O16	O	-0.741144	-1.603525	0.447076
O17	O	-0.741080	-1.472820	0.577831
C18	C	-0.506215	-1.261711	0.512526
C19	C	-0.506218	-1.143406	0.512566
C20	C	-0.576522	-1.074178	0.583531
C21	C	-0.480728	-1.003368	0.609714
C22	C	-0.602083	-1.003417	0.486373
C23	C	-0.410374	-1.074153	0.538801
C24	C	-0.531794	-1.074209	0.415414
C25	C	-0.435934	-1.003430	0.441560
C26	C	-0.779233	-1.538189	0.512470
C27	C	-0.896009	-1.538259	0.512496
C28	C	-0.950870	-1.606393	0.444487
C29	C	-1.060594	-1.606458	0.444520
C30	C	-1.060587	-1.470247	0.580574
C31	C	-0.950865	-1.470188	0.580546
C32	C	-0.950874	-1.685030	0.365934
C33	C	-1.060598	-1.685096	0.365967
C34	C	-0.232232	-1.538344	0.512538
C35	C	-0.115455	-1.538384	0.512557
C36	C	-0.506181	-1.538325	0.790113
C37	C	-0.506145	-1.538356	0.908419
C38	C	-0.506307	-0.815873	0.512475
C39	C	-0.506300	-0.934178	0.512509
C40	C	-0.506274	-1.538241	0.235951
C41	C	-0.506014	-1.538416	0.117646
C42	C	-0.576234	-1.467268	1.048433
C43	C	-0.480420	-1.441242	0.977638
C44	C	-0.601948	-1.564333	0.977642
C45	C	-0.410149	-1.512341	1.048410
C46	C	-0.531741	-1.635477	1.048420
C47	C	-0.435862	-1.609488	0.977657
H48	H	-0.376447	-0.972562	0.381524
O49	O	-0.698677	-0.966223	0.459836
C50	C	-0.800923	-0.862709	0.336628
C51	C	-0.691468	-0.904736	0.366561
H52	H	-0.795135	-0.813007	0.261202
H53	H	-0.832638	-0.811565	0.404030
H54	H	-0.856046	-0.932518	0.322457
H55	H	-0.636266	-0.834993	0.380715
H56	H	-0.659839	-0.955911	0.299143
O57	O	-0.557719	-1.111495	0.317538
C58	C	-0.679050	-1.215121	0.213789
C59	C	-0.649782	-1.172983	0.324695
H60	H	-0.753497	-1.264824	0.219534
H61	H	-0.612424	-1.266291	0.181885
H62	H	-0.692930	-1.145369	0.157821
H63	H	-0.635919	-1.242670	0.380742
H64	H	-0.716424	-1.121782	0.356511
O65	O	-0.313464	-1.485858	1.085378
C66	C	-0.211172	-1.363340	1.189585
C67	C	-0.320716	-1.393205	1.147770
H68	H	-0.217002	-1.288441	1.240056
H69	H	-0.156322	-1.348350	1.119745
H70	H	-0.179100	-1.431178	1.239972
H71	H	-0.352882	-1.325405	1.097400
H72	H	-0.375494	-1.408233	1.217658
H73	H	-0.329312	-1.105095	0.561024
H74	H	-1.090452	-1.663074	0.283525
H75	H	-0.635486	-1.407079	1.079509
H76	H	-0.906199	-1.414718	0.635933
H77	H	-1.105264	-1.414827	0.635978
O78	O	-0.915434	-1.783385	0.392392
C79	C	-0.961097	-1.962692	0.440488
C80	C	-1.001376	-1.851353	0.410563
H81	H	-1.030560	-2.017680	0.455165
H82	H	-0.911449	-1.957317	0.515576
H83	H	-0.911451	-1.995522	0.372794
H84	H	-1.051065	-1.818458	0.478187
H85	H	-1.050967	-1.856794	0.335442
H86	H	-1.094554	-1.763411	0.395547
H87	H	-0.458709	-1.359134	0.946545
O88	O	-0.698638	-1.590713	0.940611
C89	C	-0.835881	-1.722054	0.936268
C90	C	-0.726362	-1.692333	0.978253
H91	H	-0.858339	-1.804205	0.966703
H92	H	-0.834853	-1.722619	0.845758
H93	H	-0.895566	-1.661292	0.965322
H94	H	-0.666615	-1.753064	0.949278
H95	H	-0.727477	-1.691734	1.068761
H96	H	-0.916918	-1.655524	0.287601
O97	O	-0.364866	-1.681118	0.940858
C98	C	-0.183643	-1.734699	0.935415
C99	C	-0.263932	-1.653496	0.977143
H100	H	-0.102023	-1.712409	0.964752
H101	H	-0.184610	-1.734640	0.844901
H102	H	-0.204877	-1.817217	0.965762
H103	H	-0.242754	-1.570939	0.946875
H104	H	-0.262950	-1.653648	1.067655
H105	H	-0.553481	-1.717561	1.079535
H106	H	-0.635864	-1.105245	0.643615
H107	H	-0.459124	-0.972251	0.691850
