data_functionalizedCrystal
_audit_creation_method	'MofGen! by Chris Wilmer'
_symmetry_space_group_name_H-M	'P1'
_symmetry_Int_Tables_number	1
_symmetry_cell_setting	triclinic
loop_
_symmetry_equiv_pos_as_xyz
  x,y,z
_cell_length_a	12.645330
_cell_length_b	16.120490
_cell_length_c	16.120297
_cell_angle_alpha	90.129683
_cell_angle_beta	92.876762
_cell_angle_gamma	87.110278
loop_
_atom_site_label
_atom_site_type_symbol
_atom_site_fract_x
_atom_site_fract_y
_atom_site_fract_z
Zn1	Zn	-0.537167	1.247488	-0.534565
Zn2	Zn	-0.287167	1.497488	-0.284565
Zn3	Zn	-0.037167	1.747488	-0.034565
Zn4	Zn	0.212833	1.997488	0.215435
Zn5	Zn	-0.705929	1.254452	-0.395517
Zn6	Zn	-0.455929	1.504452	-0.145517
Zn7	Zn	-0.205929	1.754452	0.104483
Zn8	Zn	0.044071	2.004452	0.354483
Zn9	Zn	-0.519244	1.115476	-0.388485
Zn10	Zn	-0.269244	1.365476	-0.138485
Zn11	Zn	-0.019244	1.615476	0.111515
Zn12	Zn	0.230756	1.865476	0.361515
Zn13	Zn	-0.704943	1.108408	-0.527490
Zn14	Zn	-0.454943	1.358408	-0.277490
Zn15	Zn	-0.204943	1.608408	-0.027490
Zn16	Zn	0.045057	1.858408	0.222510
O17	O	-0.616821	1.181456	-0.461514
O18	O	-0.366821	1.431456	-0.211514
O19	O	-0.116821	1.681456	0.038486
O20	O	0.133179	1.931456	0.288486
O21	O	-0.567467	1.364779	-0.522024
O22	O	-0.317467	1.614779	-0.272024
O23	O	-0.067467	1.864779	-0.022024
O24	O	0.182533	2.114779	0.227976
O25	O	-0.674077	1.241889	-0.278218
O26	O	-0.424077	1.491889	-0.028218
O27	O	-0.174077	1.741889	0.221782
O28	O	0.075923	1.991889	0.471782
O29	O	-0.373278	1.133032	-0.407881
O30	O	-0.123278	1.383032	-0.157881
O31	O	0.126722	1.633032	0.092119
O32	O	0.376722	1.883032	0.342119
O33	O	-0.691456	1.369896	-0.419866
O34	O	-0.441456	1.619896	-0.169866
O35	O	-0.191456	1.869896	0.080134
O36	O	0.058544	2.119896	0.330134
O37	O	-0.386446	1.230021	-0.515206
O38	O	-0.136446	1.480021	-0.265206
O39	O	0.113554	1.730021	-0.015206
O40	O	0.363554	1.980021	0.234794
O41	O	-0.536920	1.139785	-0.273052
O42	O	-0.286920	1.389785	-0.023052
O43	O	-0.036920	1.639785	0.226948
O44	O	0.213080	1.889785	0.476948
O45	O	-0.535964	0.998171	-0.401021
O46	O	-0.285964	1.248171	-0.151021
O47	O	-0.035964	1.498171	0.098979
O48	O	0.214036	1.748171	0.348979
O49	O	-0.689775	1.120984	-0.644794
O50	O	-0.439775	1.370984	-0.394794
O51	O	-0.189775	1.620984	-0.144794
O52	O	0.060225	1.870984	0.105206
O53	O	-0.672396	0.992978	-0.503147
O54	O	-0.422396	1.242978	-0.253147
O55	O	-0.172396	1.492978	-0.003147
O56	O	0.077604	1.742978	0.246853
O57	O	-0.566511	1.223166	-0.649993
O58	O	-0.316511	1.473166	-0.399993
O59	O	-0.066511	1.723166	-0.149993
O60	O	0.183489	1.973166	0.100007
O61	O	-0.854142	1.235035	-0.413005
O62	O	-0.604142	1.485035	-0.163005
O63	O	-0.354142	1.735035	0.086995
O64	O	-0.104142	1.985035	0.336995
O65	O	-0.853417	1.127737	-0.509965
O66	O	-0.603417	1.377737	-0.259965
O67	O	-0.353417	1.627737	-0.009965
O68	O	-0.103417	1.877737	0.240035
C69	C	-0.602129	0.965402	-0.450553
C70	C	-0.352129	1.215402	-0.200553
C71	C	-0.102129	1.465402	0.049447
C72	C	0.147871	1.715402	0.299447
C73	C	-0.595870	0.872972	-0.445884
C74	C	-0.345870	1.122972	-0.195884
C75	C	-0.095870	1.372972	0.054116
C76	C	0.154130	1.622972	0.304116
C77	C	-0.892246	1.181396	-0.461500
C78	C	-0.642246	1.431396	-0.211500
C79	C	-0.392246	1.681396	0.038500
C80	C	-0.142246	1.931396	0.288500
C81	C	-1.010080	1.181445	-0.461525
C82	C	-0.760080	1.431445	-0.211525
C83	C	-0.510080	1.681445	0.038475
C84	C	-0.260080	1.931445	0.288475
C85	C	-0.649277	0.660014	-0.485737
C86	C	-0.399277	0.910014	-0.235737
C87	C	-0.149277	1.160014	0.014263
C88	C	0.100723	1.410014	0.264263
C89	C	-0.584453	0.703746	-0.437358
C90	C	-0.334453	0.953746	-0.187358
C91	C	-0.084453	1.203746	0.062642
C92	C	0.165547	1.453746	0.312642
C93	C	-0.590807	0.797912	-0.442103
C94	C	-0.340807	1.047912	-0.192103
C95	C	-0.090807	1.297912	0.057897
C96	C	0.159193	1.547912	0.307897
C97	C	-0.642924	0.565839	-0.480992
C98	C	-0.392924	0.815839	-0.230992
C99	C	-0.142924	1.065839	0.019008
C100	C	0.107076	1.315839	0.269008
C101	C	-1.177263	1.114198	-0.522734
C102	C	-0.927263	1.364198	-0.272734
C103	C	-0.677263	1.614198	-0.022734
C104	C	-0.427263	1.864198	0.227266
C105	C	-1.054668	1.113882	-0.522510
C106	C	-0.804668	1.363882	-0.272510
C107	C	-0.554668	1.613882	-0.022510
C108	C	-0.304668	1.863882	0.227490
C109	C	-1.047694	1.162167	-0.372689
C110	C	-0.797694	1.412167	-0.122689
C111	C	-0.547694	1.662167	0.127311
C112	C	-0.297694	1.912167	0.377311
C113	C	-1.170290	1.161757	-0.373060
C114	C	-0.920290	1.411757	-0.123060
C115	C	-0.670290	1.661757	0.126940
C116	C	-0.420290	1.911757	0.376940
C117	C	-1.184529	1.268397	-0.488461
C118	C	-0.934529	1.518397	-0.238461
C119	C	-0.684529	1.768397	0.011539
C120	C	-0.434529	2.018397	0.261539
C121	C	-1.062002	1.267760	-0.490350
C122	C	-0.812002	1.517760	-0.240350
C123	C	-0.562002	1.767760	0.009650
C124	C	-0.312002	2.017760	0.259650
C125	C	-0.340323	1.181538	-0.461548
C126	C	-0.090323	1.431538	-0.211548
C127	C	0.159677	1.681538	0.038452
C128	C	0.409677	1.931538	0.288452
C129	C	-0.222496	1.181573	-0.461563
C130	C	0.027504	1.431573	-0.211563
C131	C	0.277504	1.681573	0.038437
C132	C	0.527504	1.931573	0.288437
C133	C	-0.630032	1.170510	-0.678409
C134	C	-0.380032	1.420510	-0.428409
C135	C	-0.130032	1.670510	-0.178409
C136	C	0.119968	1.920510	0.071591
C137	C	-0.635662	1.165845	-0.770837
C138	C	-0.385662	1.415845	-0.520837
C139	C	-0.135662	1.665845	-0.270837
C140	C	0.114338	1.915845	-0.020837
C141	C	-0.631571	1.398354	-0.472518
C142	C	-0.381571	1.648354	-0.222518
C143	C	-0.131571	1.898354	0.027482
C144	C	0.118429	2.148354	0.277482
C145	C	-0.637857	1.490783	-0.477208
C146	C	-0.387857	1.740783	-0.227208
C147	C	-0.137857	1.990783	0.022792
C148	C	0.112143	2.240783	0.272792
C149	C	-0.645915	1.157298	-0.940063
C150	C	-0.395915	1.407298	-0.690063
C151	C	-0.145915	1.657298	-0.440063
C152	C	0.104085	1.907298	-0.190063
C153	C	-0.587420	1.205778	-0.983826
C154	C	-0.337420	1.455778	-0.733826
C155	C	-0.087420	1.705778	-0.483826
C156	C	0.162580	1.955778	-0.233826
C157	C	-0.593125	1.201022	-1.077989
C158	C	-0.343125	1.451022	-0.827989
C159	C	-0.093125	1.701022	-0.577989
C160	C	0.156875	1.951022	-0.327989
C161	C	-0.640212	1.162053	-0.845891
C162	C	-0.390212	1.412053	-0.595891
C163	C	-0.140212	1.662053	-0.345891
C164	C	0.109788	1.912053	-0.095891
C165	C	-0.603587	1.192408	-0.245465
C166	C	-0.353587	1.442408	0.004535
C167	C	-0.103587	1.692408	0.254535
C168	C	0.146413	1.942408	0.504535
C169	C	-0.597670	1.197233	-0.153046
C170	C	-0.347670	1.447233	0.096954
C171	C	-0.097670	1.697233	0.346954
C172	C	0.152330	1.947233	0.596954
H173	H	-0.524183	0.670466	-0.392375
H174	H	-0.274183	0.920466	-0.142375
H175	H	-0.024183	1.170466	0.107625
H176	H	0.225817	1.420466	0.357625
H177	H	-0.709543	0.693292	-0.530715
H178	H	-0.459543	0.943292	-0.280715
H179	H	-0.209543	1.193292	-0.030715
H180	H	0.040457	1.443292	0.219285
H181	H	-1.029504	1.125428	-0.588242
H182	H	-0.779504	1.375428	-0.338242
H183	H	-0.529504	1.625428	-0.088242
H184	H	-0.279504	1.875428	0.161758
Br185	Br	-1.219713	1.240390	-0.294101
Br186	Br	-0.969713	1.490390	-0.044101
Br187	Br	-0.719713	1.740390	0.205899
Br188	Br	-0.469713	1.990390	0.455899
H189	H	-1.032101	1.320244	-0.449395
H190	H	-0.782101	1.570244	-0.199395
H191	H	-0.532101	1.820244	0.050605
H192	H	-0.282101	2.070244	0.300605
H193	H	-1.220691	1.286851	-0.552374
H194	H	-0.970691	1.536851	-0.302374
H195	H	-0.720691	1.786851	-0.052374
H196	H	-0.470691	2.036851	0.197626
Br197	Br	-0.496833	1.280928	-0.928410
Br198	Br	-0.246833	1.530928	-0.678410
Br199	Br	0.003167	1.780928	-0.428410
Br200	Br	0.253167	2.030928	-0.178410
H201	H	-1.211668	1.125598	-0.588672
H202	H	-0.961668	1.375598	-0.338672
H203	H	-0.711668	1.625598	-0.088672
H204	H	-0.461668	1.875598	0.161328
H205	H	-1.020095	1.049425	-0.504339
H206	H	-0.770095	1.299425	-0.254339
H207	H	-0.520095	1.549425	-0.004339
H208	H	-0.270095	1.799425	0.245661
Br209	Br	-1.219961	1.007430	-0.492821
Br210	Br	-0.969961	1.257430	-0.242821
Br211	Br	-0.719961	1.507430	0.007179
Br212	Br	-0.469961	1.757430	0.257179
Br213	Br	-1.208898	1.056193	-0.335942
Br214	Br	-0.958898	1.306193	-0.085942
Br215	Br	-0.708898	1.556193	0.164058
Br216	Br	-0.458898	1.806193	0.414058
H217	H	-0.700276	1.112226	-0.973312
H218	H	-0.450276	1.362226	-0.723312
H219	H	-0.200276	1.612226	-0.473312
H220	H	0.049724	1.862226	-0.223312
H221	H	-1.018584	1.209880	-0.325671
H222	H	-0.768584	1.459880	-0.075671
H223	H	-0.518584	1.709880	0.174329
H224	H	-0.268584	1.959880	0.424329
Br225	Br	-0.987503	1.057747	-0.335052
Br226	Br	-0.737503	1.307747	-0.085052
Br227	Br	-0.487503	1.557747	0.164948
Br228	Br	-0.237503	1.807747	0.414948
H229	H	-1.213885	1.318538	-0.443962
H230	H	-0.963885	1.568538	-0.193962
H231	H	-0.713885	1.818538	0.056038
H232	H	-0.463885	2.068538	0.306038
Br233	Br	-1.022033	1.292129	-0.599357
Br234	Br	-0.772033	1.542129	-0.349357
Br235	Br	-0.522033	1.792129	-0.099357
Br236	Br	-0.272033	2.042129	0.150643
