data_functionalizedCrystal
_audit_creation_method	'MofGen! by Chris Wilmer'
_symmetry_space_group_name_H-M	'P1'
_symmetry_Int_Tables_number	1
_symmetry_cell_setting	triclinic
loop_
_symmetry_equiv_pos_as_xyz
  x,y,z
_cell_length_a	10.654541
_cell_length_b	10.654545
_cell_length_c	11.892095
_cell_angle_alpha	93.929293
_cell_angle_beta	86.064598
_cell_angle_gamma	84.484678
loop_
_atom_site_label
_atom_site_type_symbol
_atom_site_fract_x
_atom_site_fract_y
_atom_site_fract_z
O1	O	1.675801	0.168429	-0.093962
O2	O	1.310323	0.185237	-0.093972
O3	O	1.501465	-0.005906	-0.093966
O4	O	1.484660	0.359572	-0.093968
O5	O	1.485527	0.010006	0.094041
O6	O	1.294386	0.201150	0.094035
O7	O	1.659864	0.184341	0.094045
Zn8	Zn	1.474595	0.195272	0.123890
Zn9	Zn	1.495593	0.174306	-0.123817
O10	O	1.468723	0.375485	0.094039
C11	C	1.255557	0.191960	0.000031
C12	C	1.116114	0.188269	0.000027
C13	C	1.088145	0.416832	0.000011
C14	C	1.008652	0.529374	-0.000001
C15	C	0.877634	0.525898	-0.000002
C16	C	0.826107	0.409868	0.000013
C17	C	0.905600	0.297326	0.000025
C18	C	1.036620	0.300814	0.000023
C19	C	0.933568	0.068767	0.000048
C20	C	1.064587	0.072239	0.000041
C21	C	0.882041	-0.047263	0.000063
C22	C	0.961534	-0.159809	0.000067
C23	C	1.092560	-0.156328	0.000067
C24	C	1.144079	-0.040303	0.000054
C25	C	1.492262	-0.044748	0.000035
C26	C	1.488570	-0.184192	0.000029
C27	C	1.505960	-0.201549	-0.204942
C28	C	1.512925	-0.275737	-0.307427
C29	C	1.509456	-0.406756	-0.307429
C30	C	1.499017	-0.463588	-0.204934
C31	C	1.492052	-0.389400	-0.102449
C32	C	1.495526	-0.258379	-0.102459
C33	C	1.474653	-0.372042	0.102519
C34	C	1.478131	-0.241024	0.102523
C35	C	1.464215	-0.428875	0.205014
C36	C	1.457258	-0.354687	0.307502
C37	C	1.460729	-0.223661	0.307499
C38	C	1.471166	-0.166836	0.205008
C39	C	1.714631	0.177618	0.000040
C40	C	1.854075	0.181309	0.000036
C41	C	1.477926	0.414326	0.000035
C42	C	1.481618	0.553769	0.000034
N43	N	1.460273	0.209579	0.292944
N44	N	1.509924	0.159989	-0.292871
C45	C	1.609578	0.060358	0.529596
C46	C	1.599577	0.070368	0.647938
C47	C	1.430264	0.239603	0.647971
C48	C	1.440265	0.229593	0.529629
C49	C	1.529927	0.139969	0.470446
C50	C	1.539933	0.129966	0.352102
C51	C	1.370615	0.299193	0.352137
C52	C	1.360614	0.309203	0.470479
H53	H	1.157276	-0.247974	0.000081
H54	H	1.194827	0.419671	-0.000013
N55	N	1.263913	0.405857	0.534324
H56	H	1.308242	0.466057	0.583418
H57	H	1.214997	0.454683	0.478824
H58	H	1.250760	-0.037460	0.000040
H59	H	1.050620	0.623844	-0.000010
N60	N	1.685498	-0.015484	0.711738
H61	H	1.672008	-0.106500	0.691146
H62	H	1.776456	-0.001821	0.691094
H63	H	1.357256	0.312564	0.696173
N64	N	1.509725	-0.060239	-0.204940
H65	H	1.517399	-0.035494	-0.285417
H66	H	1.429422	-0.015856	-0.164663
H67	H	0.919570	-0.254271	0.000078
N68	N	1.524021	-0.214422	-0.417972
H69	H	1.525112	-0.120159	-0.402425
H70	H	1.604889	-0.250556	-0.462814
N71	N	0.791901	0.647289	0.000005
H72	H	0.814489	0.691961	-0.069690
H73	H	0.701113	0.627386	0.000053
N74	N	1.460487	-0.570188	0.205024
H75	H	1.533955	-0.607820	0.245281
H76	H	1.378476	-0.588738	0.245233
N77	N	0.684794	0.406118	0.000044
H78	H	0.642254	0.495019	0.000046
H79	H	0.664717	0.354451	-0.069643
H80	H	1.515116	-0.467159	-0.390881
N81	N	1.495294	-0.604902	-0.204932
H82	H	1.501296	-0.643277	-0.285407
H83	H	1.568773	-0.642431	-0.164635
N84	N	1.636610	0.033278	0.288268
H85	H	1.630858	0.039009	0.204323
H86	H	1.724090	0.050333	0.308930
N87	N	0.740728	-0.051018	0.000084
H88	H	0.698186	0.037881	0.000076
H89	H	0.720664	-0.102692	-0.069603
H90	H	1.305761	0.364021	0.303964
N91	N	1.474907	-0.025523	0.205018
H92	H	1.556873	-0.006867	0.164791
H93	H	1.401385	0.012038	0.164793
H94	H	1.448751	-0.400970	0.390944
N95	N	1.453207	-0.143645	0.418038
H96	H	1.446067	-0.199533	0.482960
H97	H	1.531988	-0.098412	0.422516
N98	N	1.706290	-0.036287	0.465754
H99	H	1.755238	-0.085198	0.521183
H100	H	1.661882	-0.096411	0.416659
