data_functionalizedCrystal
_audit_creation_method	'MofGen! by Chris Wilmer'
_symmetry_space_group_name_H-M	'P1'
_symmetry_Int_Tables_number	1
_symmetry_cell_setting	triclinic
loop_
_symmetry_equiv_pos_as_xyz
  x,y,z
_cell_length_a	12.759401
_cell_length_b	12.594516
_cell_length_c	12.759393
_cell_angle_alpha	89.970876
_cell_angle_beta	89.981504
_cell_angle_gamma	90.016214
loop_
_atom_site_label
_atom_site_type_symbol
_atom_site_fract_x
_atom_site_fract_y
_atom_site_fract_z
Zn1	Zn	1.606246	-0.423675	-0.593999
Zn2	Zn	2.106246	0.076325	-0.093999
Zn3	Zn	1.606136	-0.601694	-0.418327
Zn4	Zn	2.106136	-0.101694	0.081673
Zn5	Zn	1.430547	-0.423730	-0.418339
Zn6	Zn	1.930547	0.076270	0.081661
Zn7	Zn	1.430532	-0.601612	-0.593968
Zn8	Zn	1.930532	-0.101612	-0.093968
O9	O	1.518365	-0.512678	-0.506158
O10	O	2.018365	-0.012678	-0.006158
O11	O	1.753252	-0.447300	-0.570704
O12	O	2.253252	0.052700	-0.070704
O13	O	1.582804	-0.578144	-0.271307
O14	O	2.082804	-0.078144	0.228693
O15	O	1.453907	-0.274777	-0.441658
O16	O	1.953907	0.225223	0.058342
O17	O	1.753171	-0.578090	-0.441638
O18	O	2.253171	-0.078090	0.058362
O19	O	1.582991	-0.274736	-0.570715
O20	O	2.082991	0.225264	-0.070715
O21	O	1.453800	-0.447395	-0.271316
O22	O	1.953800	0.052605	0.228684
O23	O	1.283524	-0.447316	-0.441628
O24	O	1.783524	0.052684	0.058372
O25	O	1.453880	-0.577951	-0.740993
O26	O	1.953880	-0.077951	-0.240993
O27	O	1.283513	-0.578005	-0.570663
O28	O	1.783513	-0.078005	-0.070663
O29	O	1.582976	-0.447221	-0.741016
O30	O	2.082976	0.052779	-0.241016
O31	O	1.582789	-0.750629	-0.441608
O32	O	2.082789	-0.250629	0.058392
O33	O	1.453774	-0.750569	-0.570651
O34	O	1.953774	-0.250569	-0.070651
C35	C	1.245398	-0.512658	-0.506144
C36	C	1.745398	-0.012658	-0.006144
C37	C	1.128621	-0.512676	-0.506163
C38	C	1.628621	-0.012676	-0.006163
C39	C	1.518296	-0.789219	-0.506148
C40	C	2.018296	-0.289219	-0.006148
C41	C	1.518363	-0.907524	-0.506179
C42	C	2.018363	-0.407524	-0.006179
C43	C	1.073781	-0.580834	-0.573240
C44	C	1.573781	-0.080834	-0.073240
C45	C	0.964057	-0.580848	-0.573251
C46	C	1.464057	-0.080848	-0.073251
C47	C	0.964023	-0.444541	-0.439099
C48	C	1.464023	0.055459	0.060901
C49	C	1.073745	-0.444523	-0.439094
C50	C	1.573745	0.055477	0.060906
C51	C	1.128657	-0.648987	-0.640308
C52	C	1.628657	-0.148987	-0.140308
C53	C	1.073816	-0.717152	-0.707390
C54	C	1.573816	-0.217152	-0.207390
C55	C	0.964092	-0.717165	-0.707402
C56	C	1.464092	-0.217165	-0.207402
C57	C	0.909209	-0.649014	-0.640331
C58	C	1.409209	-0.149014	-0.140331
C59	C	1.448185	-0.976783	-0.576316
C60	C	1.948185	-0.476783	-0.076316
C61	C	1.422585	-1.047654	-0.480449
C62	C	1.922585	-0.547654	0.019551
C63	C	1.544058	-1.047453	-0.602062
C64	C	2.044058	-0.547453	-0.102062
C65	C	1.492713	-0.976836	-0.410261
C66	C	1.992713	-0.476836	0.089739
C67	C	1.614230	-0.976629	-0.531938
C68	C	2.114230	-0.476629	-0.031938
C69	C	1.588667	-1.047468	-0.436006
C70	C	2.088667	-0.547468	0.063994
C71	C	1.792398	-0.512698	-0.506173
C72	C	2.292398	-0.012698	-0.006173
C73	C	1.909175	-0.512707	-0.506179
C74	C	2.409175	-0.012707	-0.006179
C75	C	1.518439	-0.512570	-0.780192
C76	C	2.018439	-0.012570	-0.280192
C77	C	1.518470	-0.512525	-0.896968
C78	C	2.018470	-0.012525	-0.396968
C79	C	1.518463	-0.235057	-0.506192
C80	C	2.018463	0.264943	-0.006192
C81	C	1.518505	-0.116752	-0.506206
C82	C	2.018505	0.383248	-0.006206
C83	C	1.585700	-0.444447	-0.951844
C84	C	2.085700	0.055553	-0.451844
C85	C	1.585725	-0.444409	-1.061568
C86	C	2.085725	0.055591	-0.561568
C87	C	1.451288	-0.580534	-1.061531
C88	C	1.951288	-0.080534	-0.561531
C89	C	1.451258	-0.580567	-0.951809
C90	C	1.951258	-0.080567	-0.451809
C91	C	1.652912	-0.376405	-0.897003
C92	C	2.152912	0.123595	-0.397003
C93	C	1.720147	-0.308323	-0.951879
C94	C	2.220147	0.191677	-0.451879
C95	C	1.720172	-0.308284	-1.061603
C96	C	2.220172	0.191716	-0.561603
C97	C	1.652962	-0.376328	-1.116451
C98	C	2.152962	0.123672	-0.616451
C99	C	1.518352	-0.512708	-0.233191
C100	C	2.018352	-0.012708	0.266809
C101	C	1.518525	-0.512454	-0.116415
C102	C	2.018525	-0.012454	0.383585
H103	H	1.217999	-0.648985	-0.640305
H104	H	1.717999	-0.148985	-0.140305
O105	O	1.315278	-1.088974	-0.451589
O106	O	1.815278	-0.588974	0.048411
H107	H	1.316517	-1.177093	-0.451122
H108	H	1.816517	-0.677093	0.048878
H109	H	1.652975	-0.376279	-1.205796
H110	H	2.152975	0.123721	-0.705796
O111	O	1.792631	-0.234935	-0.892722
O112	O	2.292631	0.265065	-0.392722
H113	H	1.839376	-0.187582	-0.949318
H114	H	2.339376	0.312418	-0.449318
O115	O	1.792685	-0.234859	-1.120796
O116	O	2.292685	0.265141	-0.620796
H117	H	1.839419	-0.187560	-1.064225
H118	H	2.339419	0.312440	-0.564225
O119	O	1.378799	-0.653921	-1.120684
O120	O	1.878799	-0.153921	-0.620684
H121	H	1.425814	-0.708070	-1.170658
H122	H	1.925814	-0.208070	-0.670658
H123	H	1.118397	-0.389014	-0.384482
H124	H	1.618397	0.110986	0.115518
H125	H	1.388731	-0.945746	-0.635542
H126	H	1.888731	-0.445746	-0.135542
H127	H	1.648075	-1.078309	-0.376636
H128	H	2.148075	-0.578309	0.123364
O129	O	1.378747	-0.653989	-0.892610
O130	O	1.878747	-0.153989	-0.392610
H131	H	1.332025	-0.701308	-0.949175
H132	H	1.832025	-0.201308	-0.449175
H133	H	0.919444	-0.772661	-0.762030
H134	H	1.419444	-0.272661	-0.262030
H135	H	0.819864	-0.649021	-0.640355
H136	H	1.319864	-0.149021	-0.140355
O137	O	1.133002	-0.790634	-0.779750
O138	O	1.633002	-0.290634	-0.279750
H139	H	1.218512	-0.779176	-0.768476
H140	H	1.718512	-0.279176	-0.268476
H141	H	1.470943	-0.945945	-0.329163
H142	H	1.970943	-0.445945	0.170837
H143	H	0.919328	-0.389056	-0.384493
H144	H	1.419328	0.110944	0.115507
H145	H	1.695219	-0.945412	-0.553750
H146	H	2.195219	-0.445412	-0.053750
H147	H	1.565734	-1.078472	-0.683138
H148	H	2.065734	-0.578472	-0.183138
H149	H	1.652901	-0.376431	-0.807660
H150	H	2.152901	0.123569	-0.307660
