data_functionalizedCrystal
_audit_creation_method	'MofGen! by Chris Wilmer'
_symmetry_space_group_name_H-M	'P1'
_symmetry_Int_Tables_number	1
_symmetry_cell_setting	triclinic
loop_
_symmetry_equiv_pos_as_xyz
  x,y,z
_cell_length_a	16.992694
_cell_length_b	16.992695
_cell_length_c	15.455322
_cell_angle_alpha	92.854257
_cell_angle_beta	92.858183
_cell_angle_gamma	89.331778
loop_
_atom_site_label
_atom_site_type_symbol
_atom_site_fract_x
_atom_site_fract_y
_atom_site_fract_z
O1	O	-1.054080	0.163695	-0.072002
O2	O	-0.825681	0.161863	-0.072028
O3	O	-0.938965	0.048579	-0.072022
O4	O	-0.940796	0.276979	-0.072007
O5	O	-0.932484	0.055029	0.072239
O6	O	-0.819200	0.168313	0.072234
O7	O	-1.047599	0.170145	0.072260
Cu8	Cu	-0.932808	0.169818	0.085419
Cu9	Cu	-0.940472	0.162190	-0.085187
O10	O	-0.934315	0.283429	0.072255
C11	C	-0.793081	0.162732	0.000100
C12	C	-0.705596	0.155703	0.000089
C13	C	-0.933369	0.022443	0.000104
C14	C	-0.926341	-0.065042	0.000092
C15	C	-1.080200	0.169276	0.000131
C16	C	-1.167684	0.176305	0.000135
N17	N	-0.927423	0.175183	0.205415
C18	C	-0.659605	0.223521	0.000095
C19	C	-0.577404	0.216912	0.000106
C20	C	-0.541196	0.142485	0.000106
C21	C	-0.587193	0.074662	0.000104
C22	C	-0.669392	0.081271	0.000098
C23	C	-0.295880	0.115091	0.000128
C24	C	-0.213675	0.108487	0.000130
C25	C	-0.203892	0.250738	0.000134
C26	C	-0.286094	0.257341	0.000124
C27	C	-0.332083	0.189518	0.000126
N28	N	-0.457173	0.135728	0.000115
N29	N	-0.416104	0.196276	0.000123
C30	C	-0.939911	0.309565	0.000126
C31	C	-0.946939	0.397050	0.000132
C32	C	-0.879122	0.443040	0.000124
C33	C	-0.885731	0.525240	0.000114
C34	C	-0.960159	0.561449	0.000118
C35	C	-1.027981	0.515452	0.000124
C36	C	-1.021372	0.433253	0.000128
C37	C	-0.987554	0.806762	0.000102
C38	C	-0.994159	0.888968	0.000100
C39	C	-0.851908	0.898750	0.000089
C40	C	-0.845304	0.816549	0.000098
C41	C	-0.913127	0.770560	0.000099
N42	N	-0.966916	0.645471	0.000111
N43	N	-0.906369	0.686539	0.000101
C44	C	-0.975569	0.127076	0.250811
C45	C	-0.971504	0.131141	0.341619
C46	C	-0.919297	0.183318	0.387028
C47	C	-0.871146	0.231427	0.341626
C48	C	-0.875207	0.227357	0.250820
C49	C	-0.901767	0.200862	0.658609
C50	C	-0.897711	0.204930	0.749421
C51	C	-0.998069	0.104643	0.749408
C52	C	-1.002129	0.100581	0.658600
C53	C	-0.953974	0.148687	0.613206
N54	N	-0.915143	0.187476	0.479848
N55	N	-0.958125	0.144525	0.520387
N56	N	-0.945857	0.156823	0.794818
H57	H	-0.689080	0.284128	0.000094
O58	O	-1.066400	0.924270	0.000140
C59	C	-1.057687	1.006682	0.000120
H60	H	-0.996238	1.023331	0.027429
H61	H	-1.103740	1.036674	0.042005
H62	H	-1.066037	1.026680	-0.069089
O63	O	-0.714160	0.015445	-0.000026
C64	C	-0.765333	0.011659	-0.074753
H65	H	-0.774513	0.073288	-0.099661
H66	H	-0.824455	-0.013042	-0.057953
H67	H	-0.738414	-0.028328	-0.127071
H68	H	-0.818515	0.413566	0.000131
O69	O	-1.100242	0.550709	0.000011
C70	C	-1.111683	0.594602	-0.074714
H71	H	-1.052039	0.610047	-0.099630
H72	H	-1.145677	0.651087	-0.057909
H73	H	-1.146585	0.558166	-0.127029
O74	O	-0.159098	0.316539	0.000178
C75	C	-0.078783	0.294750	0.000161
H76	H	-0.070538	0.233943	0.027468
H77	H	-0.042544	0.339535	0.042050
H78	H	-0.058323	0.293153	-0.069047
H79	H	-1.076596	0.395808	0.000131
H80	H	-1.018085	0.084592	0.213844
H81	H	-0.539961	0.272137	0.000109
O82	O	-0.321393	0.329577	0.000057
C83	C	-0.403807	0.320868	0.000054
H84	H	-0.420453	0.259411	-0.027231
H85	H	-0.433789	0.366907	-0.041865
H86	H	-0.423820	0.329243	0.069253
O87	O	-0.772946	0.781504	0.000056
C88	C	-0.714503	0.839725	0.000071
H89	H	-0.741288	0.895660	-0.027246
H90	H	-0.664727	0.817518	-0.041810
H91	H	-0.690233	0.853075	0.069280
H92	H	-0.830507	0.562683	0.000105
O93	O	-1.053512	0.762214	0.000152
C94	C	-1.120619	0.811802	0.000139
H95	H	-1.103247	0.873054	0.027444
H96	H	-1.166571	0.786510	0.042032
H97	H	-1.146303	0.815939	-0.069067
H98	H	-1.010708	0.091968	0.378580
H99	H	-1.044640	0.058095	0.621630
H100	H	-0.184197	0.047876	0.000129
O101	O	-1.044797	0.057795	0.793412
C102	C	-1.028093	-0.021933	0.771243
H103	H	-1.000708	-0.026704	0.705314
H104	H	-1.084971	-0.057104	0.768133
H105	H	-0.985094	-0.046461	0.822353
H106	H	-0.855195	0.247422	0.786390
O107	O	-0.854965	0.247675	0.614655
C108	C	-0.808006	0.294586	0.674210
H109	H	-0.837445	0.300415	0.738933
H110	H	-0.801104	0.355518	0.647973
H111	H	-0.747497	0.265760	0.683881
H112	H	-0.828634	0.273907	0.378603
O113	O	-0.828524	0.274205	0.206757
C114	C	-0.845191	0.353936	0.228954
H115	H	-0.907123	0.359427	0.253907
H116	H	-0.841279	0.390192	0.169234
H117	H	-0.800650	0.376660	0.281667
O118	O	-0.340433	0.049129	0.000087
C119	C	-0.290844	-0.017976	0.000108
H120	H	-0.232040	-0.003054	-0.027204
H121	H	-0.319890	-0.067687	-0.041776
H122	H	-0.280502	-0.037450	0.069317
H123	H	-0.557705	0.014061	0.000116
H124	H	-0.796690	0.936204	0.000088
