data_functionalizedCrystal
_audit_creation_method	'MofGen! by Chris Wilmer'
_symmetry_space_group_name_H-M	'P1'
_symmetry_Int_Tables_number	1
_symmetry_cell_setting	triclinic
loop_
_symmetry_equiv_pos_as_xyz
  x,y,z
_cell_length_a	20.299480
_cell_length_b	20.298645
_cell_length_c	20.294903
_cell_angle_alpha	60.007695
_cell_angle_beta	60.015306
_cell_angle_gamma	59.991039
loop_
_atom_site_label
_atom_site_type_symbol
_atom_site_fract_x
_atom_site_fract_y
_atom_site_fract_z
O1	O	0.091305	-0.962534	0.804873
O2	O	0.034397	-0.749399	0.648508
O3	O	0.169355	-0.884263	0.648401
O4	O	-0.043654	-0.827670	0.804979
O5	O	0.214132	-0.839502	0.693072
O6	O	0.079173	-0.704639	0.693178
O7	O	0.136081	-0.917774	0.849544
Zn8	Zn	0.114736	-0.804099	0.778453
Zn9	Zn	0.055742	-0.863073	0.719598
O10	O	0.001122	-0.782910	0.849650
N11	N	0.155000	-0.763857	0.818624
N12	N	0.015485	-0.903322	0.679427
C13	C	0.179343	-0.615641	0.842971
C14	C	0.179443	-0.739552	0.966834
C15	C	0.303264	-0.739536	0.842917
C16	C	0.179356	-0.739528	0.842952
C17	C	0.210353	-0.708565	0.873918
C18	C	-0.132622	-0.927446	0.654695
C19	C	-0.008595	-0.927622	0.530981
C20	C	-0.008820	-1.051459	0.654914
C21	C	-0.008800	-0.927618	0.654995
C22	C	-0.039709	-0.958538	0.623897
N23	N	0.376268	-0.763873	0.818558
O24	O	0.652281	-0.777347	0.619856
O25	O	0.652556	-0.934198	0.832777
O26	O	0.652445	-0.933836	0.697731
O27	O	0.652392	-0.777709	0.754902
O28	O	0.518259	-0.889182	0.742556
O29	O	0.518369	-0.889544	0.877602
O30	O	0.518095	-0.732693	0.664680
Zn31	Zn	0.496927	-0.804029	0.778258
Zn32	Zn	0.673724	-0.862862	0.719200
O33	O	0.518205	-0.733055	0.799726
N34	N	0.794383	-0.903019	0.678891
N35	N	0.154981	-0.542636	0.818657
O36	O	-0.043628	-0.266455	0.805024
O37	O	0.169291	-0.266451	0.648191
O38	O	0.034217	-0.266468	0.648577
O39	O	0.091446	-0.266438	0.804638
O40	O	0.078998	-0.400670	0.693303
O41	O	0.214071	-0.400653	0.692918
O42	O	0.001152	-0.400657	0.849750
Zn43	Zn	0.114722	-0.421963	0.778435
Zn44	Zn	0.055722	-0.245145	0.719506
O45	O	0.136226	-0.400640	0.849364
N46	N	0.015453	-0.124472	0.679286
N47	N	0.155155	-0.763898	1.039838
O48	O	0.141555	-0.962488	1.315987
O49	O	-0.015254	-0.749480	1.316022
O50	O	-0.014890	-0.884527	1.315962
O51	O	0.141192	-0.827441	1.316047
O52	O	0.029815	-0.839777	1.181768
O53	O	0.029452	-0.704730	1.181828
O54	O	0.186261	-0.917739	1.181793
Zn55	Zn	0.114954	-0.804130	1.160504
Zn56	Zn	0.056053	-0.863089	1.337311
O57	O	0.185897	-0.782692	1.181853
N58	N	0.015850	-0.903330	1.457977
C59	C	0.051451	-0.700162	0.649301
C60	C	0.218580	-0.867175	0.649169
C61	C	0.119026	-0.967011	0.848750
C62	C	-0.048103	-0.799998	0.848882
C63	C	0.585495	-0.933471	0.882014
C64	C	0.585361	-0.933023	0.714775
C65	C	0.585151	-0.733419	0.615444
C66	C	0.585291	-0.733869	0.782682
C67	C	0.218449	-0.333386	0.648902
C68	C	0.051232	-0.333573	0.649435
C69	C	-0.048061	-0.333556	0.848984
C70	C	0.119212	-0.333537	0.848507
C71	C	-0.014496	-0.700269	1.248929
C72	C	-0.014037	-0.867500	1.248828
C73	C	0.185503	-0.966949	1.248886
C74	C	0.185054	-0.799709	1.248957
H75	H	0.279759	-0.879241	0.599998
C76	C	0.585388	-0.999286	0.698253
C77	C	0.585494	-1.082071	0.764472
C78	C	0.585521	-1.148334	0.747949
C79	C	0.585441	-1.131812	0.665208
C80	C	0.585335	-1.049023	0.598984
C81	C	0.585308	-0.982760	0.615506
H82	H	0.585552	-1.094305	0.825727
H83	H	0.585599	-1.209620	0.796973
H84	H	0.585461	-1.180864	0.652977
H85	H	0.585277	-1.036789	0.537729
H86	H	0.585230	-0.921474	0.566482
H87	H	0.038975	-0.333574	0.600406
C88	C	0.135760	-0.333530	0.914746
C89	C	0.069553	-0.333529	0.997515
C90	C	0.086101	-0.333522	1.063754
C91	C	0.168855	-0.333517	1.047224
C92	C	0.235068	-0.333518	0.964452
C93	C	0.218520	-0.333525	0.898213
H94	H	0.008288	-0.333533	1.009754
H95	H	0.037085	-0.333521	1.125027
H96	H	0.181105	-0.333512	1.096258
H97	H	0.296332	-0.333514	0.952212
H98	H	0.267535	-0.333525	0.836939
C99	C	-0.081008	-0.617626	1.248942
C100	C	-0.115736	-0.565650	1.179249
C101	C	-0.182249	-0.483007	1.179262
C102	C	-0.214032	-0.452340	1.248966
C103	C	-0.179303	-0.504317	1.318664
C104	C	-0.112791	-0.586960	1.318651
H105	H	-0.092209	-0.588351	1.127645
H106	H	-0.207957	-0.444531	1.127667
H107	H	-0.263268	-0.391163	1.248976
H108	H	-0.202831	-0.481616	1.370268
H109	H	-0.087083	-0.625437	1.370246
C110	C	0.585037	-0.666888	0.532839
C111	C	0.584991	-0.683008	0.466343
C112	C	0.584877	-0.616477	0.383738
C113	C	0.584809	-0.533825	0.367628
C114	C	0.584855	-0.517701	0.434127
C115	C	0.584969	-0.584232	0.516732
H116	H	0.585041	-0.744196	0.478266
H117	H	0.584843	-0.628414	0.334511
H118	H	0.584724	-0.484575	0.306479
H119	H	0.584804	-0.456514	0.422203
H120	H	0.585003	-0.572295	0.565958
H121	H	-0.063051	-0.879692	1.248749
H122	H	0.039295	-0.638935	0.600193
C123	C	0.300882	-0.332876	0.582213
C124	C	0.316885	-0.332631	0.499504
C125	C	0.399318	-0.332121	0.432815
C126	C	0.465747	-0.331855	0.448834
C127	C	0.449746	-0.332100	0.531547
C128	C	0.367313	-0.332610	0.598236
H129	H	0.267708	-0.332828	0.487642
H130	H	0.411163	-0.331940	0.371585
H131	H	0.526769	-0.331478	0.399467
H132	H	0.498923	-0.331903	0.543409
H133	H	0.355468	-0.332792	0.659466
H134	H	-0.109285	-0.787936	0.898049
H135	H	0.585279	-0.684826	0.794916
C136	C	0.585596	-0.999998	0.964624
C137	C	0.585658	-1.082647	0.980735
C138	C	0.585759	-1.149174	1.063345
C139	C	0.585799	-1.133051	1.129843
C140	C	0.585737	-1.050398	1.113734
C141	C	0.585636	-0.983871	1.031124
H142	H	0.585629	-1.094586	0.931508
H143	H	0.585805	-1.210360	1.075270
H144	H	0.585873	-1.182298	1.190996
H145	H	0.585766	-1.038459	1.162962
H146	H	0.585590	-0.922685	1.019199
H147	H	0.234089	-0.787495	1.248972
H148	H	0.131184	-1.028235	0.897860
H149	H	-0.109209	-0.333558	0.898221
H150	H	0.234736	-1.028122	1.248866
