data_functionalizedCrystal
_audit_creation_method	'MofGen! by Chris Wilmer'
_symmetry_space_group_name_H-M	'P1'
_symmetry_Int_Tables_number	1
_symmetry_cell_setting	triclinic
loop_
_symmetry_equiv_pos_as_xyz
  x,y,z
_cell_length_a	27.732064
_cell_length_b	13.330367
_cell_length_c	14.853567
_cell_angle_alpha	89.991237
_cell_angle_beta	83.142177
_cell_angle_gamma	89.999195
loop_
_atom_site_label
_atom_site_type_symbol
_atom_site_fract_x
_atom_site_fract_y
_atom_site_fract_z
O1	O	0.641426	0.083237	0.107328
O2	O	1.141426	0.583237	0.607328
O3	O	0.500710	0.083277	0.123623
O4	O	1.000710	0.583277	0.623623
O5	O	0.574827	0.083259	-0.015815
O6	O	1.074827	0.583259	0.484185
O7	O	0.567310	0.083255	0.246766
O8	O	1.067310	0.583255	0.746766
O9	O	0.574816	-0.083588	-0.015793
O10	O	1.074816	0.416412	0.484207
O11	O	0.500699	-0.083570	0.123645
O12	O	1.000699	0.416430	0.623645
O13	O	0.641415	-0.083610	0.107350
O14	O	1.141415	0.416390	0.607350
Cu15	Cu	0.571056	-0.098825	0.115500
Cu16	Cu	1.071056	0.401175	0.615500
Cu17	Cu	0.571069	0.098491	0.115473
Cu18	Cu	1.071069	0.598491	0.615473
O19	O	0.567298	-0.083592	0.246788
O20	O	1.067298	0.416408	0.746788
C21	C	0.482696	-0.000141	0.123290
C22	C	0.982696	0.499859	0.623290
C23	C	0.429037	-0.000126	0.122253
C24	C	0.929037	0.499874	0.622253
N25	N	0.571050	-0.237606	0.115518
N26	N	1.071050	0.262394	0.615518
C27	C	0.051546	-0.000182	0.032793
C28	C	0.551546	0.499818	0.532793
C29	C	0.253224	-0.000155	0.036610
C30	C	0.753224	0.499845	0.536610
O31	O	0.284152	-0.000192	-0.032808
O32	O	0.784152	0.499808	0.467192
N33	N	0.272738	-0.000152	0.119294
N34	N	0.772738	0.499848	0.619294
C35	C	0.241829	-0.000162	0.201029
C36	C	0.741829	0.499838	0.701029
O37	O	0.263055	-0.000169	0.271445
O38	O	0.763055	0.499831	0.771445
C39	C	0.040152	-0.000195	0.197212
C40	C	0.540152	0.499805	0.697212
C41	C	0.020641	-0.000188	0.114523
C42	C	0.520641	0.499812	0.614523
C43	C	0.032034	-0.000176	-0.049890
C44	C	0.532034	0.499824	0.450110
C45	C	-0.018382	-0.000177	-0.050843
C46	C	0.481618	0.499823	0.449157
C47	C	-0.049287	-0.000184	0.030887
C48	C	0.450713	0.499816	0.530887
C49	C	-0.029776	-0.000189	0.113570
C50	C	0.470224	0.499811	0.613570
C51	C	0.009244	-0.000212	0.278947
C52	C	0.509244	0.499788	0.778947
C53	C	-0.041178	-0.000223	0.277986
C54	C	0.458822	0.499777	0.777986
C55	C	-0.060689	-0.000216	0.195296
C56	C	0.439311	0.499784	0.695296
C57	C	-0.111097	-0.000197	0.194346
C58	C	0.388903	0.499803	0.694346
N59	N	-0.130611	-0.000201	0.111662
N60	N	0.369389	0.499799	0.611662
C61	C	-0.099706	-0.000194	0.029932
C62	C	0.400294	0.499806	0.529932
C63	C	0.347713	-0.000143	0.203028
C64	C	0.847713	0.499857	0.703028
C65	C	0.398132	-0.000133	0.203982
C66	C	0.898132	0.499867	0.703982
C67	C	0.409523	-0.000128	0.039562
C68	C	0.909523	0.499872	0.539562
C69	C	0.359103	-0.000131	0.038608
C70	C	0.859103	0.499869	0.538608
C71	C	0.328199	-0.000146	0.120344
C72	C	0.828199	0.499854	0.620344
C73	C	-0.205585	-0.000195	0.027937
C74	C	0.294415	0.499805	0.527937
C75	C	-0.256007	-0.000192	0.026991
C76	C	0.243993	0.499808	0.526991
C77	C	-0.267394	-0.000202	0.191411
C78	C	0.232606	0.499798	0.691411
C79	C	-0.216977	-0.000200	0.192357
C80	C	0.283023	0.499800	0.692357
C81	C	-0.186073	-0.000200	0.110613
C82	C	0.313927	0.499800	0.610613
O83	O	-0.142054	-0.000172	0.263727
O84	O	0.357946	0.499828	0.763727
O85	O	-0.120941	-0.000209	-0.040473
O86	O	0.379059	0.499791	0.459527
C87	C	0.101962	-0.000180	0.033746
C88	C	0.601962	0.499820	0.533746
C89	C	0.121474	-0.000186	0.116429
C90	C	0.621474	0.499814	0.616429
C91	C	0.090569	-0.000193	0.198159
C92	C	0.590569	0.499807	0.698159
C93	C	0.171893	-0.000176	0.117384
C94	C	0.671893	0.499824	0.617384
C95	C	0.202798	-0.000169	0.035654
C96	C	0.702798	0.499831	0.535654
C97	C	0.183284	-0.000173	-0.047030
C98	C	0.683284	0.499827	0.452970
C99	C	0.132867	-0.000174	-0.047983
C100	C	0.632867	0.499826	0.452017
C101	C	0.110083	-0.000190	0.280843
C102	C	0.610083	0.499810	0.780843
C103	C	0.160500	-0.000188	0.281789
C104	C	0.660500	0.499812	0.781789
C105	C	0.191405	-0.000181	0.200060
C106	C	0.691405	0.499819	0.700060
C107	C	0.600426	-0.710228	0.169762
C108	C	1.100426	-0.210228	0.669762
C109	C	0.541727	-0.710198	0.061148
C110	C	1.041727	-0.210198	0.561148
C111	C	0.541720	-0.605180	0.061162
C112	C	1.041720	-0.105180	0.561162
C113	C	0.571067	-0.552681	0.115476
C114	C	1.071067	-0.052681	0.615476
C115	C	0.600421	-0.605200	0.169776
C116	C	1.100421	-0.105200	0.669776
C117	C	0.512370	-0.552652	0.006856
C118	C	1.012370	-0.052652	0.506856
C119	C	0.512362	-0.447628	0.006867
C120	C	1.012362	0.052372	0.506867
C121	C	0.541707	-0.395127	0.061187
C122	C	1.041707	0.104873	0.561187
C123	C	0.571062	-0.447653	0.115490
C124	C	1.071062	0.052347	0.615490
C125	C	0.600409	-0.395154	0.169804
C126	C	1.100409	0.104846	0.669804
C127	C	0.629762	-0.447678	0.224112
C128	C	1.129762	0.052322	0.724112
C129	C	0.629766	-0.552699	0.224096
C130	C	1.129766	-0.052699	0.724096
C131	C	0.541703	-0.290105	0.061204
C132	C	1.041703	0.209895	0.561204
C133	C	0.600404	-0.290126	0.169818
C134	C	1.100404	0.209874	0.669818
C135	C	0.659429	-0.000190	0.107684
C136	C	1.159429	0.499810	0.607684
C137	C	0.713088	-0.000199	0.108720
C138	C	1.213088	0.499801	0.608720
C139	C	0.574481	-0.000162	-0.049387
C140	C	1.074481	0.499838	0.450613
C141	C	0.573460	-0.000153	-0.149454
C142	C	1.073460	0.499847	0.350546
N143	N	0.571079	0.237273	0.115448
N144	N	1.071079	0.737273	0.615448
C145	C	0.525118	-0.000158	-0.561207
C146	C	1.025118	0.499842	-0.061207
C147	C	0.613171	-0.000183	-0.583911
C148	C	1.113171	0.499817	-0.083911
C149	C	0.614130	-0.000177	-0.489892
C150	C	1.114130	0.499823	0.010108
C151	C	0.570583	-0.000164	-0.431527
C152	C	1.070583	0.499836	0.068473
C153	C	0.526077	-0.000155	-0.467180
C154	C	1.026077	0.499845	0.032820
C155	C	0.658636	-0.000196	-0.454232
C156	C	1.158636	0.499804	0.045768
C157	C	0.659598	-0.000191	-0.360209
C158	C	1.159598	0.499809	0.139791
C159	C	0.616050	-0.000170	-0.301842
C160	C	1.116050	0.499830	0.198158
C161	C	0.571542	-0.000161	-0.337500
C162	C	1.071542	0.499839	0.162500
C163	C	0.527995	-0.000147	-0.279134
C164	C	1.027995	0.499853	0.220866
C165	C	0.483486	-0.000131	-0.314791
C166	C	0.983486	0.499869	0.185209
C167	C	0.482529	-0.000134	-0.408813
C168	C	0.982529	0.499866	0.091187
C169	C	0.617007	-0.000166	-0.207820
C170	C	1.117007	0.499834	0.292180
C171	C	0.528953	-0.000145	-0.185107
C172	C	1.028953	0.499855	0.314893
C173	C	0.567644	-0.000169	0.280360
C174	C	1.067644	0.499831	0.780360
C175	C	0.568665	-0.000172	0.380427
C176	C	1.068665	0.499828	0.880427
H177	H	-0.271890	-0.000184	-0.040348
H178	H	0.228110	0.499816	0.459652
H179	H	-0.180429	-0.000195	-0.038627
H180	H	0.319571	0.499805	0.461373
Cl181	Cl	0.308868	-0.000153	0.305792
Cl182	Cl	0.808868	0.499847	0.805792
H183	H	0.488461	-0.404871	-0.037353
H184	H	0.988461	0.095129	0.462647
Cl185	Cl	0.185022	-0.000190	0.385753
Cl186	Cl	0.685022	0.499810	0.885753
Cl187	Cl	0.667912	-0.000217	-0.657284
Cl188	Cl	1.167912	0.499783	-0.157284
Cl189	Cl	0.504815	-0.224080	-0.007081
Cl190	Cl	1.004815	0.275920	0.492919
H191	H	0.414013	-0.000124	0.271316
H192	H	0.914013	0.499876	0.771316
Cl193	Cl	0.033760	-0.000222	0.382906
Cl194	Cl	0.533760	0.499778	0.882906
H195	H	0.084925	-0.000197	0.347399
H196	H	0.584925	0.499803	0.847399
H197	H	0.694090	-0.000216	-0.501760
H198	H	1.194090	0.499784	-0.001760
H199	H	0.695840	-0.000203	-0.331186
H200	H	1.195840	0.499797	0.168814
Cl201	Cl	0.666657	-0.381667	0.292384
Cl202	Cl	1.166657	0.118333	0.792384
Cl203	Cl	0.504837	-0.776197	-0.007130
Cl204	Cl	1.004837	-0.276197	0.492870
Cl205	Cl	0.637297	-0.224136	0.238108
Cl206	Cl	1.137297	0.275864	0.738108
H207	H	-0.066338	-0.000240	0.344546
H208	H	0.433662	0.499760	0.844546
H209	H	0.653664	-0.595474	0.268309
H210	H	1.153664	-0.095474	0.768309
H211	H	0.624323	-0.752998	0.213982
H212	H	1.124323	-0.252998	0.713982
Cl213	Cl	0.474205	-0.000119	-0.111740
Cl214	Cl	0.974205	0.499881	0.388260
H215	H	0.057192	-0.000173	-0.116447
H216	H	0.557192	0.499827	0.383553
H217	H	0.448030	-0.000126	-0.267257
H218	H	0.948030	0.499874	0.232743
Cl219	Cl	0.475478	-0.618655	-0.061418
Cl220	Cl	0.975478	-0.118655	0.438582
Cl221	Cl	0.426580	-0.000111	-0.453644
Cl222	Cl	0.926580	0.499889	0.046356
H223	H	0.488880	-0.000141	-0.590243
H224	H	0.988880	0.499859	-0.090243
H225	H	-0.034263	-0.000175	-0.118177
H226	H	0.465737	0.499825	0.381823
Cl227	Cl	0.334580	-0.000127	-0.065348
Cl228	Cl	0.834580	0.499873	0.434652
H229	H	0.434695	-0.000119	-0.026985
H230	H	0.934695	0.499881	0.473015
Cl231	Cl	-0.192447	-0.000196	0.296311
Cl232	Cl	0.307553	0.499804	0.796311
Cl233	Cl	0.108347	-0.000161	-0.151941
Cl234	Cl	0.608347	0.499839	0.348059
H235	H	0.653246	-0.000186	-0.178792
H236	H	1.153246	0.499814	0.321208
H237	H	-0.292565	-0.000203	0.257953
H238	H	0.207435	0.499797	0.757953
H239	H	0.208456	-0.000161	-0.113577
H240	H	0.708456	0.499839	0.386423
