data_functionalizedCrystal
_audit_creation_method	'MofGen! by Chris Wilmer'
_symmetry_space_group_name_H-M	'P1'
_symmetry_Int_Tables_number	1
_symmetry_cell_setting	triclinic
loop_
_symmetry_equiv_pos_as_xyz
  x,y,z
_cell_length_a	21.395362
_cell_length_b	21.395361
_cell_length_c	21.395355
_cell_angle_alpha	90.019049
_cell_angle_beta	89.956060
_cell_angle_gamma	89.953589
loop_
_atom_site_label
_atom_site_type_symbol
_atom_site_fract_x
_atom_site_fract_y
_atom_site_fract_z
Zn1	Zn	0.957860	0.249246	-0.354583
Zn2	Zn	1.291194	0.582579	-0.021250
Zn3	Zn	1.624527	0.915912	0.312083
Zn4	Zn	0.957763	0.354005	-0.249805
Zn5	Zn	1.291096	0.687339	0.083529
Zn6	Zn	1.624430	1.020672	0.416862
Zn7	Zn	0.853075	0.249275	-0.249785
Zn8	Zn	1.186409	0.582608	0.083549
Zn9	Zn	1.519742	0.915941	0.416882
Zn10	Zn	0.853045	0.354018	-0.354510
Zn11	Zn	1.186378	0.687352	-0.021176
Zn12	Zn	1.519711	1.020685	0.312157
O13	O	0.905436	0.301636	-0.302171
O14	O	1.238769	0.634969	0.031163
O15	O	1.572102	0.968303	0.364496
O16	O	1.045525	0.263125	-0.340724
O17	O	1.378859	0.596458	-0.007390
O18	O	1.712192	0.929791	0.325943
O19	O	0.943848	0.340119	-0.162124
O20	O	1.277181	0.673453	0.171209
O21	O	1.610515	1.006786	0.504542
O22	O	0.867029	0.161593	-0.263709
O23	O	1.200362	0.494926	0.069625
O24	O	1.533695	0.828260	0.402958
O25	O	1.045454	0.340091	-0.263743
O26	O	1.378787	0.673425	0.069590
O27	O	1.712121	1.006758	0.402923
O28	O	0.944014	0.161572	-0.340704
O29	O	1.277347	0.494905	-0.007371
O30	O	1.610680	0.828238	0.325963
O31	O	0.866934	0.263174	-0.162109
O32	O	1.200268	0.596508	0.171224
O33	O	1.533601	0.929841	0.504557
O34	O	0.765393	0.263187	-0.263637
O35	O	1.098727	0.596520	0.069696
O36	O	1.432060	0.929853	0.403029
O37	O	0.866977	0.340113	-0.442197
O38	O	1.200310	0.673447	-0.108864
O39	O	1.533643	1.006780	0.224469
O40	O	0.765371	0.340141	-0.340578
O41	O	1.098704	0.673475	-0.007245
O42	O	1.432037	1.006808	0.326088
O43	O	0.943984	0.263137	-0.442251
O44	O	1.277317	0.596470	-0.108918
O45	O	1.610651	0.929804	0.224415
O46	O	0.943819	0.441685	-0.263672
O47	O	1.277152	0.775018	0.069662
O48	O	1.610485	1.108352	0.402995
O49	O	0.866882	0.441695	-0.340598
O50	O	1.200216	0.775028	-0.007265
O51	O	1.533549	1.108361	0.326069
C52	C	0.742648	0.301669	-0.302098
C53	C	1.075981	0.635002	0.031235
C54	C	1.409315	0.968336	0.364569
C55	C	0.673007	0.301698	-0.302082
C56	C	1.006340	0.635032	0.031252
C57	C	1.339673	0.968365	0.364585
C58	C	0.905354	0.464424	-0.302143
C59	C	1.238687	0.797757	0.031191
C60	C	1.572020	1.131090	0.364524
C61	C	0.905376	0.534065	-0.302152
C62	C	1.238709	0.867398	0.031182
C63	C	1.572042	1.200732	0.364515
C64	C	0.640298	0.341822	-0.342085
C65	C	0.973632	0.675155	-0.008751
C66	C	1.306965	1.008488	0.324582
C67	C	0.574863	0.341806	-0.342113
C68	C	0.908196	0.675140	-0.008779
C69	C	1.241530	1.008473	0.324554
C70	C	0.542139	0.301674	-0.302126
C71	C	0.875472	0.635008	0.031207
C72	C	1.208805	0.968341	0.364540
C73	C	0.574855	0.261543	-0.262120
C74	C	0.908188	0.594876	0.071213
C75	C	1.241522	0.928210	0.404546
C76	C	0.640289	0.261555	-0.262098
C77	C	0.973622	0.594889	0.071235
C78	C	1.306956	0.928222	0.404569
C79	C	0.438414	0.296627	-0.245721
C80	C	0.771747	0.629960	0.087612
C81	C	1.105080	0.963293	0.420946
C82	C	0.372981	0.296619	-0.245742
C83	C	0.706314	0.629952	0.087591
C84	C	1.039648	0.963286	0.420924
C85	C	0.340318	0.301633	-0.302195
C86	C	0.673651	0.634967	0.031138
C87	C	1.006985	0.968300	0.364471
C88	C	0.373096	0.306668	-0.358629
C89	C	0.706429	0.640002	-0.025296
C90	C	1.039763	0.973335	0.308038
C91	C	0.438530	0.306681	-0.358607
C92	C	0.771863	0.640014	-0.025273
C93	C	1.105197	0.973347	0.308060
C94	C	0.471186	0.301656	-0.302146
C95	C	0.804520	0.634990	0.031187
C96	C	1.137853	0.968323	0.364520
C97	C	0.236657	0.341742	-0.342232
C98	C	0.569990	0.675076	-0.008899
C99	C	0.903324	1.008409	0.324434
C100	C	0.171220	0.341723	-0.342261
C101	C	0.504554	0.675056	-0.008928
C102	C	0.837887	1.008389	0.324405
C103	C	0.171213	0.261462	-0.262263
C104	C	0.504547	0.594796	0.071070
C105	C	0.837880	0.928129	0.404403
C106	C	0.236649	0.261479	-0.262240
C107	C	0.569982	0.594812	0.071093
C108	C	0.903315	0.928146	0.404427
C109	C	0.269367	0.301622	-0.302223
C110	C	0.602700	0.634956	0.031110
C111	C	0.936033	0.968289	0.364443
C112	C	0.945472	0.566752	-0.262139
C113	C	1.278805	0.900086	0.071195
C114	C	1.612139	1.233419	0.404528
C115	C	0.945501	0.632188	-0.262156
C116	C	1.278835	0.965521	0.071178
C117	C	1.612168	1.298854	0.404511
C118	C	0.905423	0.664933	-0.302179
C119	C	1.238757	0.998267	0.031155
C120	C	1.572090	1.331600	0.364488
C121	C	0.865324	0.632238	-0.342200
C122	C	1.198658	0.965571	-0.008866
C123	C	1.531991	1.298905	0.324467
C124	C	0.865300	0.566804	-0.342186
C125	C	1.198634	0.900137	-0.008853
C126	C	1.531967	1.233470	0.324481
C127	C	0.849009	0.768664	-0.307074
C128	C	1.182342	1.101997	0.026259
C129	C	1.515676	1.435331	0.359593
C130	C	0.849032	0.834097	-0.307083
C131	C	1.182365	1.167430	0.026250
C132	C	1.515698	1.500764	0.359583
C133	C	0.905497	0.866754	-0.302224
C134	C	1.238830	1.200087	0.031109
C135	C	1.572164	1.533421	0.364442
C136	C	0.961941	0.833970	-0.297343
C137	C	1.295274	1.167303	0.035990
C138	C	1.628608	1.500637	0.369324
C139	C	0.961917	0.768536	-0.297329
C140	C	1.295251	1.101869	0.036004
C141	C	1.628584	1.435202	0.369337
C142	C	0.905445	0.735886	-0.302198
C143	C	1.238778	1.069219	0.031135
C144	C	1.572111	1.402552	0.364468
C145	C	0.945628	0.970394	-0.262227
C146	C	1.278962	1.303727	0.071106
C147	C	1.612295	1.637060	0.404439
C148	C	0.945659	1.035830	-0.262249
C149	C	1.278992	1.369164	0.071085
C150	C	1.612325	1.702497	0.404418
C151	C	0.865476	1.035879	-0.342289
C152	C	1.198809	1.369213	-0.008956
C153	C	1.532143	1.702546	0.324377
C154	C	0.865451	0.970444	-0.342271
C155	C	1.198784	1.303777	-0.008938
C156	C	1.532118	1.637111	0.324395
C157	C	0.905526	0.937705	-0.302237
C158	C	1.238860	1.271039	0.031096
C159	C	1.572193	1.604372	0.364430
C160	C	1.068859	0.301603	-0.302244
C161	C	1.402192	0.634937	0.031089
C162	C	1.735526	0.968270	0.364423
C163	C	1.138500	0.301589	-0.302275
C164	C	1.471834	0.634923	0.031058
C165	C	1.805167	0.968256	0.364392
C166	C	0.905488	0.301623	-0.465594
C167	C	1.238821	0.634957	-0.132261
C168	C	1.572154	0.968290	0.201073
C169	C	0.905510	0.301618	-0.535235
C170	C	1.238843	0.634951	-0.201902
C171	C	1.572177	0.968285	0.131431
C172	C	0.905536	1.138213	-0.302223
C173	C	1.238870	1.471546	0.031110
C174	C	1.572203	1.804879	0.364444
C175	C	0.905581	1.068571	-0.302273
C176	C	1.238914	1.401905	0.031060
C177	C	1.572248	1.735238	0.364394
C178	C	0.945606	0.261535	-0.567978
C179	C	1.278939	0.594868	-0.234644
C180	C	1.612273	0.928201	0.098689
C181	C	0.945605	0.261508	-0.633413
C182	C	1.278939	0.594841	-0.300080
C183	C	1.612272	0.928174	0.033254
C184	C	0.905515	0.301575	-0.666104
C185	C	1.238848	0.634909	-0.332770
C186	C	1.572182	0.968242	0.000563
C187	C	0.865411	0.341661	-0.633353
C188	C	1.198744	0.674994	-0.300020
C189	C	1.532078	1.008328	0.033313
C190	C	0.865409	0.341682	-0.567919
C191	C	1.198742	0.675016	-0.234586
C192	C	1.532075	1.008349	0.098748
C193	C	0.900539	0.357992	-0.769767
C194	C	1.233872	0.691325	-0.436434
C195	C	1.567206	1.024659	-0.103100
C196	C	0.900546	0.357972	-0.835200
C197	C	1.233879	0.691305	-0.501867
C198	C	1.567213	1.024638	-0.168533
C199	C	0.905519	0.301509	-0.867924
C200	C	1.238852	0.634842	-0.534591
C201	C	1.572185	0.968176	-0.201258
C202	C	0.910498	0.245065	-0.835208
C203	C	1.243831	0.578398	-0.501875
C204	C	1.577165	0.911732	-0.168541
C205	C	0.910495	0.245086	-0.769774
C206	C	1.243829	0.578420	-0.436440
C207	C	1.577162	0.911753	-0.103107
C208	C	0.905513	0.301556	-0.737056
C209	C	1.238846	0.634890	-0.403723
C210	C	1.572179	0.968223	-0.070389
C211	C	0.945616	0.261393	-0.971619
C212	C	1.278949	0.594727	-0.638286
C213	C	1.612283	0.928060	-0.304953
C214	C	0.945611	0.261365	-1.037056
C215	C	1.278944	0.594699	-0.703723
C216	C	1.612277	0.928032	-0.370389
C217	C	0.865420	0.341524	-1.036995
C218	C	1.198753	0.674858	-0.703662
C219	C	1.532087	1.008191	-0.370328
C220	C	0.865422	0.341547	-0.971560
C221	C	1.198755	0.674880	-0.638226
C222	C	1.532088	1.008213	-0.304893
C223	C	0.905523	0.301482	-0.938876
C224	C	1.238857	0.634815	-0.605542
C225	C	1.572190	0.968149	-0.272209
C226	C	0.905420	0.301603	-0.139383
C227	C	1.238753	0.634937	0.193950
C228	C	1.572087	0.968270	0.527284
C229	C	0.905519	0.301432	-0.069742
C230	C	1.238853	0.634766	0.263591
C231	C	1.572186	0.968099	0.596925
H232	H	0.666933	0.374509	-0.374644
H233	H	1.000267	0.707842	-0.041310
H234	H	1.333600	1.041175	0.292023
H235	H	0.832775	0.374190	-0.944901
H236	H	1.166108	0.707524	-0.611567
H237	H	1.499442	1.040857	-0.278234
H238	H	0.914548	0.199088	-0.861851
H239	H	1.247882	0.532421	-0.528517
H240	H	1.581215	0.865754	-0.195184
H241	H	0.978266	0.228767	-0.945007
H242	H	1.311599	0.562100	-0.611673
H243	H	1.644932	0.895433	-0.278340
H244	H	0.978259	0.228910	-0.541370
H245	H	1.311592	0.562244	-0.208037
H246	H	1.644926	0.895577	0.125296
H247	H	0.803024	0.742081	-0.311033
H248	H	1.136358	1.075414	0.022300
H249	H	1.469691	1.408748	0.355633
Cl250	Cl	0.996003	0.211101	-0.674584
Cl251	Cl	1.329336	0.544434	-0.341250
Cl252	Cl	1.662670	0.877768	-0.007917
Cl253	Cl	0.996075	1.076924	-0.211946
Cl254	Cl	1.329408	1.410257	0.121387
Cl255	Cl	1.662742	1.743590	0.454720
H256	H	0.263297	0.374426	-0.374793
H257	H	0.596631	0.707759	-0.041459
H258	H	0.929964	1.041093	0.291874
Cl259	Cl	0.277770	0.211037	-0.211945
Cl260	Cl	0.611104	0.544370	0.121388
Cl261	Cl	0.944437	0.877704	0.454721
Cl262	Cl	0.894292	0.428929	-0.876322
Cl263	Cl	1.227626	0.762262	-0.542989
Cl264	Cl	1.560959	1.095596	-0.209656
H265	H	0.144590	0.374395	-0.374841
H266	H	0.477924	0.707728	-0.041507
H267	H	0.811257	1.041061	0.291826
Cl268	Cl	0.331781	0.290289	-0.174799
Cl269	Cl	0.665114	0.623622	0.158535
Cl270	Cl	0.998448	0.956955	0.491868
H271	H	0.832846	1.062540	-0.374880
H272	H	1.166180	1.395873	-0.041547
H273	H	1.499513	1.729207	0.291787
H274	H	0.144570	0.228783	-0.229708
H275	H	0.477903	0.562116	0.103625
H276	H	0.811236	0.895450	0.436958
Cl277	Cl	0.996032	0.210980	-1.078219
Cl278	Cl	1.329365	0.544313	-0.744885
Cl279	Cl	1.662699	0.877647	-0.411552
H280	H	0.465215	0.310779	-0.404557
H281	H	0.798549	0.644112	-0.071224
H282	H	1.131882	0.977445	0.262110
Cl283	Cl	0.479469	0.290325	-0.174744
Cl284	Cl	0.812802	0.623658	0.158589
Cl285	Cl	1.146136	0.956992	0.491923
H286	H	0.803071	0.860785	-0.311052
H287	H	1.136404	1.194118	0.022282
H288	H	1.469738	1.527451	0.355615
Cl289	Cl	0.533717	0.211088	-0.211855
Cl290	Cl	0.867050	0.544421	0.121479
Cl291	Cl	1.200383	0.877755	0.454812
Cl292	Cl	0.814998	0.392078	-0.526755
Cl293	Cl	1.148331	0.725411	-0.193422
Cl294	Cl	1.481665	1.058744	0.139912
H295	H	0.978155	0.658807	-0.229572
H296	H	1.311488	0.992140	0.103761
H297	H	1.644821	1.325474	0.437094
H298	H	1.007876	0.741844	-0.293357
H299	H	1.341209	1.075178	0.039977
H300	H	1.674542	1.408511	0.373310
H301	H	0.666920	0.228880	-0.229522
H302	H	1.000253	0.562213	0.103811
H303	H	1.333587	0.895547	0.437144
Cl304	Cl	0.815009	0.392029	-0.674449
Cl305	Cl	1.148343	0.725363	-0.341116
Cl306	Cl	1.481676	1.058696	-0.007782
Cl307	Cl	0.814943	0.673403	-0.392517
Cl308	Cl	1.148276	1.006736	-0.059184
Cl309	Cl	1.481610	1.340069	0.274149
Cl310	Cl	0.995861	0.525598	-0.211819
Cl311	Cl	1.329195	0.858932	0.121514
Cl312	Cl	1.662528	1.192265	0.454848
Cl313	Cl	0.815038	0.929349	-0.392574
Cl314	Cl	1.148372	1.262682	-0.059240
Cl315	Cl	1.481705	1.596016	0.274093
H316	H	0.978262	0.943737	-0.229631
H317	H	1.311595	1.277070	0.103702
H318	H	1.644929	1.610403	0.437036
Cl319	Cl	0.814889	0.525709	-0.392492
Cl320	Cl	1.148222	0.859042	-0.059158
Cl321	Cl	1.481556	1.192376	0.274175
H322	H	0.896322	0.403959	-0.743128
H323	H	1.229655	0.737292	-0.409795
H324	H	1.562989	1.070626	-0.076461
H325	H	0.914548	0.199128	-0.743139
H326	H	1.247881	0.532461	-0.409805
H327	H	1.581215	0.865794	-0.076472
Cl328	Cl	0.332041	0.312969	-0.429604
Cl329	Cl	0.665375	0.646302	-0.096271
Cl330	Cl	0.998708	0.979635	0.237062
Cl331	Cl	0.533735	0.392251	-0.392406
Cl332	Cl	0.867069	0.725585	-0.059073
Cl333	Cl	1.200402	1.058918	0.274261
H334	H	0.832771	0.374141	-1.063611
H335	H	1.166104	0.707475	-0.730278
H336	H	1.499438	1.040808	-0.396944
Cl337	Cl	1.032931	0.875017	-0.291227
Cl338	Cl	1.366264	1.208350	0.042106
Cl339	Cl	1.699597	1.541683	0.375439
