data_functionalizedCrystal
_audit_creation_method	'MofGen! by Chris Wilmer'
_symmetry_space_group_name_H-M	'P1'
_symmetry_Int_Tables_number	1
_symmetry_cell_setting	triclinic
loop_
_symmetry_equiv_pos_as_xyz
  x,y,z
_cell_length_a	12.759401
_cell_length_b	16.625546
_cell_length_c	12.759393
_cell_angle_alpha	90.036194
_cell_angle_beta	90.018496
_cell_angle_gamma	90.022629
loop_
_atom_site_label
_atom_site_type_symbol
_atom_site_fract_x
_atom_site_fract_y
_atom_site_fract_z
Zn1	Zn	1.606199	-0.320951	0.593948
Zn2	Zn	1.606069	-0.455807	0.418253
Zn3	Zn	1.430501	-0.320993	0.418287
Zn4	Zn	1.430465	-0.455745	0.593895
O5	O	1.518308	-0.388374	0.506096
O6	O	1.753203	-0.338848	0.570649
O7	O	1.582740	-0.437968	0.271237
O8	O	1.453876	-0.208155	0.441625
O9	O	1.753107	-0.437927	0.441568
O10	O	1.582961	-0.208124	0.570682
O11	O	1.453751	-0.338920	0.271261
O12	O	1.283475	-0.338860	0.441574
O13	O	1.453816	-0.437821	0.740923
O14	O	1.283449	-0.437862	0.570592
O15	O	1.582927	-0.338788	0.740962
O16	O	1.582706	-0.568632	0.441517
O17	O	1.453691	-0.568586	0.570560
C18	C	1.245341	-0.388359	0.506081
C19	C	1.128564	-0.388372	0.506100
C20	C	1.073717	-0.440005	0.573169
C21	C	0.963992	-0.440015	0.573180
C22	C	0.963974	-0.336758	0.439045
C23	C	1.073696	-0.336744	0.439040
C24	C	1.128585	-0.491634	0.640229
C25	C	1.073737	-0.543271	0.707303
C26	C	0.964013	-0.543282	0.707314
C27	C	0.909137	-0.491654	0.640252
C28	C	1.518209	-0.597865	0.506052
C29	C	1.518263	-0.687486	0.506068
C30	C	1.518446	-1.015662	0.506177
C31	C	1.518392	-0.924353	0.506150
C32	C	1.518353	-0.851577	0.506122
C33	C	1.518301	-0.760262	0.506096
C34	C	1.792342	-0.388390	0.506111
C35	C	1.909118	-0.388396	0.506117
C36	C	1.518382	-0.388293	0.780129
C37	C	1.518413	-0.388258	0.896906
C38	C	1.518437	-0.178065	0.506163
C39	C	1.518492	-0.088444	0.506191
C40	C	1.518296	-0.388397	0.233128
C41	C	1.518468	-0.388204	0.116352
C42	C	1.585650	-0.336687	0.951790
C43	C	1.585675	-0.336657	1.061514
C44	C	1.451223	-0.439778	1.061461
C45	C	1.451194	-0.439803	0.951739
C46	C	1.652870	-0.285142	0.896957
C47	C	1.720113	-0.233567	0.951841
C48	C	1.720138	-0.233538	1.061565
C49	C	1.652920	-0.285084	1.116405
H50	H	1.652859	-0.285162	0.807614
H51	H	1.118424	-0.585299	0.761909
O52	O	1.792614	-0.177978	0.892697
H53	H	1.745611	-0.136968	0.842709
O54	O	0.904858	-0.598970	0.779662
H55	H	0.819342	-0.590301	0.768413
O56	O	1.246929	-0.491629	0.640209
H57	H	1.275909	-0.475404	0.719485
H58	H	1.774883	-0.191537	1.106249
O59	O	0.904801	-0.281079	0.366707
H60	H	0.925842	-0.294832	0.284221
H61	H	1.652934	-0.285046	1.205750
O62	O	0.790790	-0.491670	0.640249
H63	H	0.761867	-0.536253	0.698146
O64	O	1.132866	-0.281063	0.366695
H65	H	1.076281	-0.245175	0.320051
H66	H	1.396497	-0.481744	1.106120
O67	O	1.378675	-0.495423	0.892530
H68	H	1.331948	-0.531269	0.949090
