data_functionalizedCrystal
_audit_creation_method	'MofGen! by Chris Wilmer'
_symmetry_space_group_name_H-M	'P1'
_symmetry_Int_Tables_number	1
_symmetry_cell_setting	triclinic
loop_
_symmetry_equiv_pos_as_xyz
  x,y,z
_cell_length_a	23.532407
_cell_length_b	23.532357
_cell_length_c	18.266242
_cell_angle_alpha	89.988103
_cell_angle_beta	89.993638
_cell_angle_gamma	82.838519
loop_
_atom_site_label
_atom_site_type_symbol
_atom_site_fract_x
_atom_site_fract_y
_atom_site_fract_z
O1	O	0.755251	0.069138	-0.060843
O2	O	1.088584	0.402471	0.272490
O3	O	1.421917	0.735804	0.605823
O4	O	0.589386	0.079141	-0.060856
O5	O	0.922719	0.412475	0.272477
O6	O	1.256052	0.745808	0.605810
O7	O	0.677335	-0.008794	-0.060834
O8	O	1.010668	0.324539	0.272499
O9	O	1.344001	0.657872	0.605832
O10	O	0.667302	0.157073	-0.060865
O11	O	1.000635	0.490407	0.272468
O12	O	1.333968	0.823740	0.605801
O13	O	0.677320	-0.008799	0.060928
O14	O	1.010653	0.324535	0.394261
O15	O	1.343986	0.657868	0.727594
O16	O	0.589371	0.079137	0.060906
O17	O	0.922704	0.412470	0.394239
O18	O	1.256037	0.745803	0.727572
O19	O	0.755236	0.069133	0.060918
O20	O	1.088569	0.402467	0.394252
O21	O	1.421903	0.735800	0.727585
Zn22	Zn	0.672301	0.074134	0.080244
Zn23	Zn	1.005634	0.407468	0.413578
Zn24	Zn	1.338968	0.740801	0.746911
Zn25	Zn	0.672320	0.074140	-0.080182
Zn26	Zn	1.005654	0.407474	0.253151
Zn27	Zn	1.338987	0.740807	0.586484
O28	O	0.667287	0.157069	0.060897
O29	O	1.000620	0.490402	0.394230
O30	O	1.333953	0.823735	0.727563
C31	C	0.677076	-0.030013	0.000049
C32	C	1.010410	0.303320	0.333382
C33	C	1.343743	0.636654	0.666715
C34	C	0.676322	-0.093232	0.000056
C35	C	1.009655	0.240102	0.333389
C36	C	1.342988	0.573435	0.666722
C37	C	0.568162	0.078884	0.000023
C38	C	0.901495	0.412218	0.333357
C39	C	1.234829	0.745551	0.666690
C40	C	0.504945	0.078118	0.000019
C41	C	0.838279	0.411452	0.333352
C42	C	1.171612	0.744785	0.666686
C43	C	0.671593	-0.485240	-0.066357
C44	C	1.004926	-0.151907	0.266977
C45	C	1.338260	0.181426	0.600310
C46	C	0.670876	-0.544640	-0.066361
C47	C	1.004209	-0.211307	0.266972
C48	C	1.337542	0.122027	0.600306
O49	O	0.670492	-0.575354	-0.122808
O50	O	1.003826	-0.242021	0.210525
O51	O	1.337159	0.091312	0.543858
N52	N	0.670512	-0.574354	0.000011
N53	N	1.003845	-0.241020	0.333344
N54	N	1.337179	0.092313	0.666677
C55	C	0.670860	-0.544664	0.066391
C56	C	1.004193	-0.211330	0.399724
C57	C	1.337526	0.122003	0.733057
O58	O	0.670484	-0.575392	0.122844
O59	O	1.003817	-0.242058	0.456178
O60	O	1.337151	0.091275	0.789511
C61	C	0.671573	-0.485265	0.066394
C62	C	1.004906	-0.151932	0.399727
C63	C	1.338240	0.181402	0.733061
C64	C	0.671942	-0.455555	0.000018
C65	C	1.005276	-0.122222	0.333352
C66	C	1.338609	0.211112	0.666685
C67	C	0.671962	-0.455531	-0.132727
C68	C	1.005295	-0.122197	0.200606
C69	C	1.338629	0.211136	0.533939
C70	C	0.672680	-0.396135	-0.132723
C71	C	1.006014	-0.062802	0.200611
C72	C	1.339347	0.270531	0.533944
C73	C	0.673030	-0.366450	-0.066348
C74	C	1.006363	-0.033117	0.266986
C75	C	1.339696	0.300217	0.600319
C76	C	0.672661	-0.396160	0.000023
C77	C	1.005994	-0.062827	0.333356
C78	C	1.339327	0.270507	0.666689
C79	C	0.671917	-0.455576	0.132773
C80	C	1.005250	-0.122242	0.466107
C81	C	1.338583	0.211091	0.799440
C82	C	0.672629	-0.396173	0.132771
C83	C	1.005963	-0.062839	0.466105
C84	C	1.339296	0.270494	0.799438
C85	C	0.672999	-0.366463	0.066395
C86	C	1.006332	-0.033130	0.399729
C87	C	1.339665	0.300204	0.733062
C88	C	0.673728	-0.307079	0.066402
C89	C	1.007062	0.026254	0.399736
C90	C	1.340395	0.359587	0.733069
N91	N	0.674092	-0.277366	0.000031
N92	N	1.007425	0.055968	0.333364
N93	N	1.340759	0.389301	0.666697
C94	C	0.673743	-0.307051	-0.066344
C95	C	1.007076	0.026282	0.266989
C96	C	1.340409	0.359616	0.600322
C97	C	0.669361	-0.669405	0.066378
C98	C	1.002694	-0.336072	0.399712
C99	C	1.336028	-0.002739	0.733045
C100	C	0.668652	-0.728804	0.066376
C101	C	1.001985	-0.395470	0.399709
C102	C	1.335319	-0.062137	0.733042
C103	C	0.668667	-0.728776	-0.066376
C104	C	1.002000	-0.395442	0.266957
C105	C	1.335334	-0.062109	0.600290
C106	C	0.669380	-0.669377	-0.066373
C107	C	1.002714	-0.336043	0.266961
C108	C	1.336047	-0.002710	0.600294
C109	C	0.669725	-0.639692	0.000007
C110	C	1.003058	-0.306358	0.333340
C111	C	1.336392	0.026975	0.666673
C112	C	0.675252	-0.182317	-0.066330
C113	C	1.008585	0.151016	0.267004
C114	C	1.341918	0.484350	0.600337
C115	C	0.675972	-0.122917	-0.066319
C116	C	1.009306	0.210416	0.267014
C117	C	1.342639	0.543750	0.600347
C118	C	0.675954	-0.122950	0.066432
C119	C	1.009288	0.210384	0.399765
C120	C	1.342621	0.543717	0.733099
C121	C	0.675237	-0.182345	0.066422
C122	C	1.008570	0.150988	0.399755
C123	C	1.341903	0.484322	0.733089
C124	C	0.674883	-0.212027	0.000035
C125	C	1.008217	0.121306	0.333369
C126	C	1.341550	0.454640	0.666702
O127	O	0.674110	-0.276327	0.122821
O128	O	1.007443	0.057006	0.456154
O129	O	1.340777	0.390340	0.789487
O130	O	0.674111	-0.276315	-0.122789
O131	O	1.007444	0.057018	0.210545
O132	O	1.340778	0.390352	0.543878
C133	C	0.238788	0.022922	0.000049
C134	C	0.572121	0.356255	0.333383
C135	C	0.905454	0.689588	0.666716
C136	C	0.298188	0.023633	0.000049
C137	C	0.631521	0.356966	0.333382
C138	C	0.964854	0.690300	0.666716
O139	O	0.334940	-0.020154	0.000082
O140	O	0.668274	0.313179	0.333416
O141	O	1.001607	0.646513	0.666749
N142	N	0.320805	0.075911	0.000034
N143	N	0.654138	0.409244	0.333368
N144	N	0.987471	0.742577	0.666701
C145	C	0.284018	0.127480	0.000027
C146	C	0.617351	0.460813	0.333361
C147	C	0.950684	0.794147	0.666694
O148	O	0.308710	0.172012	0.000015
O149	O	0.642043	0.505345	0.333349
O150	O	0.975376	0.838678	0.666682
C151	C	0.224619	0.126768	0.000033
C152	C	0.557952	0.460101	0.333366
C153	C	0.891286	0.793435	0.666700
C154	C	0.202006	0.074487	0.000040
C155	C	0.535339	0.407820	0.333373
C156	C	0.868672	0.741154	0.666707
C157	C	0.216174	-0.029355	0.000057
C158	C	0.549507	0.303978	0.333391
C159	C	0.882840	0.637311	0.666724
C160	C	0.156778	-0.030066	0.000056
C161	C	0.490111	0.303267	0.333390
C162	C	0.823444	0.636600	0.666723
C163	C	0.119996	0.021499	0.000047
C164	C	0.453329	0.354832	0.333380
C165	C	0.786662	0.688166	0.666714
C166	C	0.142610	0.073776	0.000039
C167	C	0.475943	0.407109	0.333372
C168	C	0.809276	0.740443	0.666706
C169	C	0.187833	0.178337	0.000031
C170	C	0.521167	0.511670	0.333364
C171	C	0.854500	0.845004	0.666698
C172	C	0.128431	0.177620	0.000037
C173	C	0.461764	0.510954	0.333371
C174	C	0.795098	0.844287	0.666704
C175	C	0.105818	0.125339	0.000045
C176	C	0.439151	0.458673	0.333378
C177	C	0.772484	0.792006	0.666711
C178	C	0.046431	0.124630	0.000029
C179	C	0.379765	0.457963	0.333362
C180	C	0.713098	0.791297	0.666696
N181	N	0.023815	0.072353	0.000044
N182	N	0.357148	0.405686	0.333377
N183	N	0.690481	0.739019	0.666710
C184	C	0.060597	0.020787	0.000053
C185	C	0.393930	0.354120	0.333386
C186	C	0.727263	0.687454	0.666719
C187	C	0.408760	0.128971	0.000017
C188	C	0.742093	0.462305	0.333350
C189	C	1.075427	0.795638	0.666684
C190	C	0.468158	0.129684	0.000006
C191	C	0.801491	0.463017	0.333339
C192	C	1.134825	0.796351	0.666673
C193	C	0.482324	0.025837	0.000029
C194	C	0.815657	0.359170	0.333362
C195	C	1.148990	0.692503	0.666696
C196	C	0.422925	0.025125	0.000035
C197	C	0.756258	0.358458	0.333368
C198	C	1.089592	0.691791	0.666701
C199	C	0.386143	0.076694	0.000032
C200	C	0.719477	0.410027	0.333365
C201	C	1.052810	0.743361	0.666698
C202	C	-0.064140	0.019297	0.000050
C203	C	0.269194	0.352631	0.333383
C204	C	0.602527	0.685964	0.666717
C205	C	-0.123542	0.018591	0.000046
C206	C	0.209792	0.351924	0.333379
C207	C	0.543125	0.685257	0.666713
C208	C	-0.137702	0.122438	0.000027
C209	C	0.195631	0.455771	0.333360
C210	C	0.528964	0.789104	0.666693
C211	C	-0.078306	0.123145	0.000027
C212	C	0.255028	0.456478	0.333360
C213	C	0.588361	0.789811	0.666694
C214	C	-0.041525	0.071570	0.000041
C215	C	0.291808	0.404903	0.333374
C216	C	0.625141	0.738237	0.666708
O217	O	0.009644	0.168394	-0.000002
O218	O	0.342978	0.501727	0.333332
O219	O	0.676311	0.835061	0.666665
O220	O	0.035897	-0.023737	0.000074
O221	O	0.369230	0.309596	0.333408
O222	O	0.702563	0.642930	0.666741
C223	C	0.776459	0.069390	0.000037
C224	C	1.109793	0.402724	0.333371
C225	C	1.443126	0.736057	0.666704
C226	C	0.839676	0.070156	0.000037
C227	C	1.173009	0.403490	0.333370
C228	C	1.506343	0.736823	0.666703
C229	C	0.667545	0.178288	0.000012
C230	C	1.000878	0.511621	0.333345
C231	C	1.334212	0.844954	0.666678
C232	C	0.668300	0.241506	0.000000
C233	C	1.001633	0.574839	0.333333
C234	C	1.334966	0.908173	0.666667
N235	N	0.672292	0.074130	0.189731
N236	N	1.005625	0.407463	0.523065
N237	N	1.338958	0.740797	0.856398
N238	N	0.672334	0.074140	-0.189669
N239	N	1.005667	0.407473	0.143664
N240	N	1.339001	0.740807	0.476997
C241	C	0.711248	0.035211	0.228050
C242	C	1.044582	0.368545	0.561383
C243	C	1.377915	0.701878	0.894717
C244	C	0.711252	0.035208	0.304695
C245	C	1.044585	0.368542	0.638028
C246	C	1.377919	0.701875	0.971361
C247	C	0.672304	0.074134	0.343018
C248	C	1.005638	0.407468	0.676352
C249	C	1.338971	0.740801	1.009685
C250	C	0.633341	0.113056	0.304690
C251	C	0.966674	0.446390	0.638024
C252	C	1.300007	0.779723	0.971357
C253	C	0.633334	0.113054	0.228047
C254	C	0.966668	0.446387	0.561380
C255	C	1.300001	0.779721	0.894714
N256	N	0.664761	0.124571	0.463341
N257	N	0.998095	0.457904	0.796674
N258	N	1.331428	0.791237	1.130008
N259	N	0.664771	0.124571	0.536149
N260	N	0.998104	0.457904	0.869482
N261	N	1.331437	0.791238	1.202816
C262	C	0.672320	0.074143	0.573941
C263	C	1.005654	0.407476	0.907274
C264	C	1.338987	0.740809	1.240607
N265	N	0.679871	0.023712	0.536174
N266	N	1.013205	0.357046	0.869507
N267	N	1.346538	0.690379	1.202840
N268	N	0.679865	0.023713	0.463359
N269	N	1.013198	0.357046	0.796692
N270	N	1.346532	0.690379	1.130026
C271	C	0.672307	0.074141	0.426125
C272	C	1.005640	0.407474	0.759459
C273	C	1.338973	0.740808	1.092792
C274	C	0.711283	0.035218	0.695366
C275	C	1.044616	0.368551	1.028700
C276	C	1.377950	0.701884	1.362033
C277	C	0.711283	0.035214	0.772013
C278	C	1.044616	0.368548	1.105346
C279	C	1.377949	0.701881	1.438679
C280	C	0.633374	0.113067	0.772007
C281	C	0.966707	0.446400	1.105340
C282	C	1.300041	0.779734	1.438674
C283	C	0.633372	0.113066	0.695362
C284	C	0.966705	0.446399	1.028695
C285	C	1.300038	0.779732	1.362029
C286	C	0.672329	0.074141	0.657046
C287	C	1.005662	0.407475	0.990380
C288	C	1.338996	0.740808	1.323713
H289	H	0.674961	-0.206477	-0.120388
H290	H	1.008295	0.126857	0.212945
H291	H	1.341628	0.460190	0.546278
O292	O	0.676363	-0.090870	-0.137913
O293	O	1.009696	0.242463	0.195421
O294	O	1.343030	0.575797	0.528754
H295	H	0.675991	-0.121494	-0.184066
H296	H	1.009324	0.211839	0.149267
H297	H	1.342658	0.545173	0.482601
H298	H	0.669680	-0.645191	-0.120422
H299	H	1.003014	-0.311857	0.212911
H300	H	1.336347	0.021476	0.546245
H301	H	0.601652	0.144759	0.664161
H302	H	0.934985	0.478093	0.997494
H303	H	1.268319	0.811426	1.330828
H304	H	-0.034199	-0.022700	0.000061
H305	H	0.299134	0.310633	0.333394
H306	H	0.632467	0.643967	0.666728
H307	H	0.672979	-0.371951	-0.186773
H308	H	1.006312	-0.038617	0.146561
H309	H	1.339646	0.294716	0.479894
H310	H	0.138372	-0.072639	0.000065
H311	H	0.471705	0.260694	0.333399
H312	H	0.805039	0.594028	0.666732
H313	H	0.743003	0.003522	0.664168
H314	H	1.076336	0.336855	0.997502
H315	H	1.409669	0.670188	1.330835
O316	O	0.088757	0.233242	0.000035
O317	O	0.422090	0.566575	0.333368
O318	O	0.755423	0.899908	0.666702
H319	H	0.096761	0.258278	-0.049599
H320	H	0.430094	0.591611	0.283734
H321	H	0.763427	0.924944	0.617067
O322	O	0.669741	-0.637391	0.137978
O323	O	1.003075	-0.304057	0.471312
O324	O	1.336408	0.029276	0.804645
H325	H	0.708887	-0.615626	0.141156
H326	H	1.042221	-0.282292	0.474490
H327	H	1.375554	0.051041	0.807823
O328	O	0.671571	-0.487542	-0.204323
O329	O	1.004904	-0.154209	0.129010
O330	O	1.338238	0.179124	0.462344
H331	H	0.671945	-0.456894	-0.250466
H332	H	1.005278	-0.123561	0.082867
H333	H	1.338612	0.209772	0.416201
O334	O	-0.147930	-0.037802	0.000065
O335	O	0.185404	0.295532	0.333398
O336	O	0.518737	0.628865	0.666731
H337	H	-0.133122	-0.062566	-0.049553
H338	H	0.200211	0.270767	0.283781
H339	H	0.533544	0.604101	0.617114
O340	O	0.668282	-0.760797	-0.137971
O341	O	1.001615	-0.427464	0.195362
O342	O	1.334948	-0.094130	0.528696
H343	H	0.667716	-0.807090	-0.126816
H344	H	1.001049	-0.473757	0.206517
H345	H	1.334383	-0.140423	0.539850
O346	O	0.591337	0.155050	0.346015
O347	O	0.924670	0.488383	0.679349
O348	O	1.258003	0.821716	1.012682
H349	H	0.563803	0.131223	0.380959
H350	H	0.897136	0.464556	0.714293
H351	H	1.230469	0.797889	1.047626
O352	O	0.668259	-0.760847	0.137966
O353	O	1.001592	-0.427514	0.471299
O354	O	1.334925	-0.094180	0.804632
H355	H	0.668618	-0.730219	0.184117
H356	H	1.001952	-0.396886	0.517450
H357	H	1.335285	-0.063553	0.850784
H358	H	0.676241	-0.098770	0.120473
H359	H	1.009575	0.234564	0.453806
H360	H	1.342908	0.567897	0.787140
O361	O	0.492546	0.186072	-0.000001
O362	O	0.825880	0.519405	0.333332
O363	O	1.159213	0.852739	0.666665
H364	H	0.456985	0.221806	-0.000000
H365	H	0.790318	0.555139	0.333333
H366	H	1.123652	0.888473	0.666667
O367	O	0.671512	-0.487611	0.204365
O368	O	1.004846	-0.154278	0.537698
O369	O	1.338179	0.179056	0.871032
H370	H	0.671867	-0.456979	0.250513
H371	H	1.005200	-0.123646	0.583846
H372	H	1.338533	0.209687	0.917179
O373	O	0.673008	-0.364155	0.204368
O374	O	1.006341	-0.030822	0.537701
O375	O	1.339675	0.302512	0.871034
H376	H	0.672637	-0.394798	0.250516
H377	H	1.005970	-0.061465	0.583850
H378	H	1.339303	0.271869	0.917183
H379	H	0.674941	-0.206537	0.120471
H380	H	1.008274	0.126797	0.453804
H381	H	1.341608	0.460130	0.787137
O382	O	0.255842	-0.084977	0.000066
O383	O	0.589176	0.248357	0.333399
O384	O	0.922509	0.581690	0.666733
H385	H	0.230128	-0.121442	0.000068
H386	H	0.563462	0.211892	0.333402
H387	H	0.896795	0.545225	0.666735
O388	O	0.369088	0.184596	0.000001
O389	O	0.702422	0.517929	0.333335
O390	O	1.035755	0.851262	0.666668
H391	H	0.394799	0.221063	-0.000017
H392	H	0.728133	0.554396	0.333317
H393	H	1.061466	0.887730	0.666650
H394	H	0.404518	-0.017447	0.000041
H395	H	0.737851	0.315886	0.333374
H396	H	1.071184	0.649220	0.666708
H397	H	0.512283	-0.016151	0.000037
H398	H	0.845616	0.317183	0.333370
H399	H	1.178950	0.650516	0.666703
H400	H	0.206234	0.220910	0.000022
H401	H	0.539567	0.554243	0.333355
H402	H	0.872901	0.887576	0.666689
H403	H	-0.167661	0.164421	0.000016
H404	H	0.165672	0.497754	0.333349
H405	H	0.499006	0.831088	0.666682
O406	O	-0.053909	0.179531	0.000017
O407	O	0.279424	0.512864	0.333350
O408	O	0.612757	0.846198	0.666683
H409	H	-0.089468	0.215268	0.000013
H410	H	0.243865	0.548601	0.333347
H411	H	0.577199	0.881934	0.666680
H412	H	0.742968	0.003516	0.196855
H413	H	1.076302	0.336849	0.530189
H414	H	1.409635	0.670182	0.863522
O415	O	0.753276	-0.006764	0.346039
O416	O	1.086609	0.326570	0.679372
O417	O	1.419943	0.659903	1.012706
H418	H	0.780367	-0.033826	0.306519
H419	H	1.113701	0.299507	0.639852
H420	H	1.447034	0.632840	0.973186
O421	O	0.591320	0.155037	0.186710
O422	O	0.924653	0.488370	0.520043
O423	O	1.257987	0.821703	0.853377
H424	H	0.564238	0.182107	0.226232
H425	H	0.897572	0.515440	0.559565
H426	H	1.230905	0.848774	0.892898
H427	H	0.743004	0.003519	0.803212
H428	H	1.076337	0.336852	1.136546
H429	H	1.409671	0.670185	1.469879
H430	H	0.601660	0.144759	0.803209
H431	H	0.934994	0.478092	1.136543
H432	H	1.268327	0.811426	1.469876
