data_functionalizedCrystal
_audit_creation_method	'MofGen! by Chris Wilmer'
_symmetry_space_group_name_H-M	'P1'
_symmetry_Int_Tables_number	1
_symmetry_cell_setting	triclinic
loop_
_symmetry_equiv_pos_as_xyz
  x,y,z
_cell_length_a	18.215407
_cell_length_b	13.897447
_cell_length_c	18.215399
_cell_angle_alpha	90.025056
_cell_angle_beta	90.019833
_cell_angle_gamma	90.019978
loop_
_atom_site_label
_atom_site_type_symbol
_atom_site_fract_x
_atom_site_fract_y
_atom_site_fract_z
Zn1	Zn	1.125099	-0.384013	0.416131
Zn2	Zn	1.458433	-0.050680	0.749464
Zn3	Zn	1.791766	0.282653	1.082797
Zn4	Zn	1.125019	-0.545323	0.293071
Zn5	Zn	1.458353	-0.211990	0.626404
Zn6	Zn	1.791686	0.121344	0.959737
Zn7	Zn	1.002032	-0.384045	0.293078
Zn8	Zn	1.335365	-0.050711	0.626411
Zn9	Zn	1.668699	0.282622	0.959745
Zn10	Zn	1.002009	-0.545269	0.416096
Zn11	Zn	1.335343	-0.211936	0.749429
Zn12	Zn	1.668676	0.121397	1.082762
O13	O	1.063540	-0.464663	0.354594
O14	O	1.396873	-0.131329	0.687927
O15	O	1.730207	0.202004	1.021260
O16	O	1.228073	-0.405421	0.399818
O17	O	1.561406	-0.072087	0.733151
O18	O	1.894740	0.261246	1.066485
O19	O	1.108681	-0.523965	0.190087
O20	O	1.442014	-0.190631	0.523421
O21	O	1.775347	0.142702	0.856754
O22	O	1.018400	-0.249059	0.309419
O23	O	1.351733	0.084274	0.642752
O24	O	1.685067	0.417608	0.976086
O25	O	1.228014	-0.523934	0.309406
O26	O	1.561347	-0.190601	0.642740
O27	O	1.894681	0.142733	0.976073
O28	O	1.108817	-0.249036	0.399825
O29	O	1.442151	0.084298	0.733159
O30	O	1.775484	0.417631	1.066492
O31	O	1.018322	-0.405474	0.190093
O32	O	1.351656	-0.072141	0.523426
O33	O	1.684989	0.261192	0.856759
O34	O	0.899045	-0.405422	0.309385
O35	O	1.232378	-0.072089	0.642718
O36	O	1.565711	0.261244	0.976052
O37	O	1.018361	-0.523843	0.519084
O38	O	1.351695	-0.190509	0.852418
O39	O	1.685028	0.142824	1.185751
O40	O	0.899028	-0.523873	0.399765
O41	O	1.232361	-0.190540	0.733099
O42	O	1.565695	0.142793	1.066432
O43	O	1.108795	-0.405369	0.519110
O44	O	1.442129	-0.072035	0.852444
O45	O	1.775462	0.261298	1.185777
O46	O	1.108659	-0.680297	0.309372
O47	O	1.441992	-0.346964	0.642706
O48	O	1.775325	-0.013631	0.976039
O49	O	1.018284	-0.680258	0.399758
O50	O	1.351617	-0.346925	0.733091
O51	O	1.684951	-0.013591	1.066425
C52	C	0.872334	-0.464646	0.354573
C53	C	1.205667	-0.131313	0.687906
C54	C	1.539000	0.202021	1.021239
C55	C	0.790535	-0.464662	0.354581
C56	C	1.123868	-0.131329	0.687914
C57	C	1.457201	0.202004	1.021248
C58	C	1.063480	-0.715277	0.354577
C59	C	1.396813	-0.381944	0.687910
C60	C	1.730147	-0.048610	1.021243
C61	C	1.063522	-0.822491	0.354594
C62	C	1.396855	-0.489157	0.687927
C63	C	1.730189	-0.155824	1.021261
C64	C	0.602351	-0.526437	0.401583
C65	C	0.935685	-0.193103	0.734916
C66	C	1.269018	0.140230	1.068250
C67	C	0.525493	-0.526440	0.401592
C68	C	0.858826	-0.193106	0.734926
C69	C	1.192159	0.140227	1.068259
C70	C	0.525480	-0.402906	0.307620
C71	C	0.858814	-0.069573	0.640954
C72	C	1.192147	0.263761	0.974287
C73	C	0.602338	-0.402899	0.307616
C74	C	0.935671	-0.069566	0.640949
C75	C	1.269004	0.263768	0.974282
C76	C	0.640771	-0.464670	0.354596
C77	C	0.974105	-0.131336	0.687929
C78	C	1.307438	0.201997	1.021262
C79	C	0.487055	-0.464680	0.354610
C80	C	0.820389	-0.131346	0.687943
C81	C	1.153722	0.201987	1.021276
C82	C	0.403722	-0.464683	0.354619
C83	C	0.737055	-0.131349	0.687953
C84	C	1.070388	0.201984	1.021286
C85	C	0.724110	-0.464666	0.354587
C86	C	1.057444	-0.131332	0.687921
C87	C	1.390777	0.202001	1.021254
C88	C	1.063557	-0.909561	0.354611
C89	C	1.396891	-0.576227	0.687944
C90	C	1.730224	-0.242894	1.021277
C91	C	1.063609	-1.018793	0.354630
C92	C	1.396942	-0.685460	0.687963
C93	C	1.730276	-0.352126	1.021296
C94	C	1.255493	-0.464680	0.354615
C95	C	1.588826	-0.131346	0.687949
C96	C	1.922160	0.201987	1.021282
C97	C	1.337292	-0.464687	0.354625
C98	C	1.670625	-0.131354	0.687958
C99	C	2.003958	0.201979	1.021291
C100	C	1.063585	-0.464596	0.546547
C101	C	1.396918	-0.131263	0.879880
C102	C	1.730251	0.202071	1.213213
C103	C	1.063604	-0.464568	0.628346
C104	C	1.396937	-0.131234	0.961679
C105	C	1.730271	0.202099	1.295012
C106	C	1.063620	-0.213070	0.354627
C107	C	1.396953	0.120264	0.687960
C108	C	1.730287	0.453597	1.021294
C109	C	1.063654	-0.105856	0.354641
C110	C	1.396988	0.227478	0.687974
C111	C	1.730321	0.560811	1.021308
C112	C	1.063538	-0.464659	0.163387
C113	C	1.396871	-0.131326	0.496721
C114	C	1.730204	0.202007	0.830054
C115	C	1.063661	-0.464416	0.081589
C116	C	1.396994	-0.131082	0.414922
C117	C	1.730328	0.202251	0.748256
C118	C	1.110710	-0.402821	0.816554
C119	C	1.444043	-0.069487	1.149888
C120	C	1.777376	0.263846	1.483221
C121	C	1.110718	-0.402792	0.893413
C122	C	1.444052	-0.069459	1.226746
C123	C	1.777385	0.263874	1.560080
C124	C	1.016550	-0.526166	0.893375
C125	C	1.349883	-0.192832	1.226708
C126	C	1.683217	0.140501	1.560042
C127	C	1.016538	-0.526188	0.816518
C128	C	1.349872	-0.192855	1.149851
C129	C	1.683205	0.140478	1.483184
C130	C	1.063622	-0.464517	0.778109
C131	C	1.396955	-0.131184	1.111443
C132	C	1.730289	0.202150	1.444776
C133	C	1.063643	-0.464466	0.931825
C134	C	1.396976	-0.131133	1.265159
C135	C	1.730310	0.202200	1.598492
C136	C	1.063652	-0.464436	1.015159
C137	C	1.396985	-0.131103	1.348492
C138	C	1.730319	0.202230	1.681826
C139	C	1.063612	-0.464546	0.694770
C140	C	1.396946	-0.131212	1.028104
C141	C	1.730279	0.202121	1.361437
H142	H	0.494215	-0.576735	0.439855
H143	H	0.827548	-0.243402	0.773188
H144	H	1.160881	0.089932	1.106522
H145	H	1.149061	-0.352551	0.924712
H146	H	1.482394	-0.019218	1.258045
H147	H	1.815727	0.314115	1.591378
H148	H	0.978218	-0.576378	0.924656
H149	H	1.311551	-0.243045	1.257990
H150	H	1.644884	0.090288	1.591323
O151	O	0.965744	-0.592735	0.775049
O152	O	1.299078	-0.259402	1.108382
O153	O	1.632411	0.073931	1.441716
H154	H	0.973640	-0.582380	0.715153
H155	H	1.306974	-0.249046	1.048486
H156	H	1.640307	0.084287	1.381820
H157	H	0.633620	-0.352595	0.269353
H158	H	0.966953	-0.019261	0.602686
H159	H	1.300287	0.314072	0.936019
H160	H	0.633642	-0.576732	0.439839
H161	H	0.966975	-0.243399	0.773173
H162	H	1.300308	0.089935	1.106506
H163	H	0.494178	-0.352616	0.269370
H164	H	0.827512	-0.019283	0.602703
H165	H	1.160845	0.314051	0.936036
H166	H	1.149046	-0.352601	0.785285
H167	H	1.482380	-0.019268	1.118618
H168	H	1.815713	0.314065	1.451951
