data_functionalizedCrystal
_audit_creation_method	'MofGen! by Chris Wilmer'
_symmetry_space_group_name_H-M	'P1'
_symmetry_Int_Tables_number	1
_symmetry_cell_setting	triclinic
loop_
_symmetry_equiv_pos_as_xyz
  x,y,z
_cell_length_a	14.560438
_cell_length_b	14.560438
_cell_length_c	14.560438
_cell_angle_alpha	60.000095
_cell_angle_beta	90.001034
_cell_angle_gamma	59.997876
loop_
_atom_site_label
_atom_site_type_symbol
_atom_site_fract_x
_atom_site_fract_y
_atom_site_fract_z
Zr1	Zr	0.884688	1.005342	-0.120551
O2	O	0.738027	1.196952	-0.267202
O3	O	0.929656	0.813732	-0.075592
O4	O	0.929640	1.005345	-0.267200
O5	O	0.738047	1.005336	0.075546
O6	O	1.080778	1.005348	-0.267201
O7	O	0.738043	1.005339	-0.075594
O8	O	1.080807	0.662586	0.075550
O9	O	0.738018	1.348098	-0.267205
O10	O	1.061617	0.892546	-0.056422
O11	O	0.948827	0.892542	0.056374
O12	O	0.948808	1.118142	-0.169220
O13	O	0.836018	1.118138	-0.056424
Zr14	Zr	1.125743	1.005342	0.120499
Zr15	Zr	1.125736	1.005346	-0.120553
Zr16	Zr	0.884695	1.005338	0.120501
Zr17	Zr	0.884674	1.246402	-0.120556
Zr18	Zr	1.125757	0.764282	0.120504
O19	O	1.080775	1.196952	0.075540
O20	O	1.080766	1.196958	-0.267205
O21	O	0.738036	1.196947	0.075543
O22	O	1.272404	0.813732	0.267150
O23	O	1.272395	0.813738	-0.075595
O24	O	0.929665	0.813726	0.267153
O25	O	1.272384	1.005348	-0.075598
O26	O	1.080791	1.005339	0.267148
O27	O	0.929653	1.005336	0.267149
O28	O	1.272388	1.005345	0.075542
O29	O	0.929619	1.348101	-0.267206
O30	O	1.080812	0.662583	0.267154
O31	O	1.272413	0.662586	0.267153
O32	O	1.272409	0.662589	0.075549
O33	O	0.738023	1.348095	-0.075601
O34	O	0.929624	1.348098	-0.075602
O35	O	1.061623	0.892542	0.169168
O36	O	1.174413	0.892546	0.056372
O37	O	1.061604	1.118142	-0.056426
O38	O	0.948814	1.118138	0.056370
C39	C	1.005234	0.703813	-0.000020
C40	C	1.005240	0.601477	-0.000019
C41	C	0.703701	1.005337	-0.000024
C42	C	0.601370	1.005335	-0.000023
C43	C	1.088475	0.373985	0.083238
C44	C	1.088502	0.470120	0.083244
C45	C	0.921951	0.636699	-0.083298
C46	C	0.921930	0.540564	-0.083308
C47	C	0.612177	0.887578	0.058852
C48	C	0.516022	0.887584	0.058853
C49	C	0.398256	1.123115	-0.058906
C50	C	0.494410	1.123107	-0.058899
C51	C	1.306730	1.005347	-0.000028
C52	C	1.409061	1.005349	-0.000029
C53	C	1.005208	1.005347	-0.301545
C54	C	1.005205	1.005349	-0.403878
C55	C	1.005197	1.306871	-0.000032
C56	C	1.005191	1.409207	-0.000033
C57	C	0.946321	1.123106	-0.510834
C58	C	0.946334	1.123100	-0.606983
C59	C	1.064117	0.887569	-0.489207
C60	C	1.064110	0.887577	-0.393060
C61	C	1.005223	1.005337	0.301493
C62	C	1.005226	1.005335	0.403826
C63	C	1.306748	0.703818	-0.000023
C64	C	1.409086	0.601484	-0.000021
C65	C	1.005242	0.703808	0.301499
C66	C	1.005250	0.601470	0.403834
C67	C	1.306756	0.703813	0.301497
C68	C	1.409096	0.601477	0.403831
C69	C	0.703675	1.306871	-0.301549
C70	C	0.601335	1.409207	-0.403883
C71	C	0.703683	1.306866	-0.000029
C72	C	0.601345	1.409200	-0.000030
C73	C	1.005189	1.306876	-0.301551
C74	C	1.005181	1.409214	-0.403886
C75	C	1.398289	0.553404	-0.058896
C76	C	1.494450	0.457258	-0.058899
C77	C	1.612201	0.457275	0.058856
C78	C	1.516041	0.553426	0.058852
C79	C	1.064132	0.553390	0.510788
C80	C	1.064127	0.457241	0.606939
C81	C	0.946358	0.457259	0.489167
C82	C	0.946357	0.553412	0.393019
C83	C	1.516051	0.553399	0.393033
C84	C	1.612206	0.457252	0.489190
C85	C	1.494438	0.457265	0.606941
C86	C	1.398285	0.553417	0.510785
H87	H	1.156273	0.267031	0.151044
O88	O	0.832152	0.778377	-0.173107
H89	H	0.774243	0.786715	-0.231021
O90	O	0.727540	0.760558	0.122352
H91	H	0.774173	0.754919	0.187426
H92	H	1.485649	0.418118	-0.106842
H93	H	1.485650	0.418121	0.694033
O94	O	0.482728	1.250142	-0.122454
H95	H	0.523720	1.255743	-0.187523
O96	O	1.127662	0.760556	-0.277692
H97	H	1.117782	0.780350	-0.212655
H98	H	1.311205	0.592541	-0.106846
H99	H	0.898412	0.418116	0.480375
H100	H	1.156322	0.441430	0.151051
O101	O	0.527687	0.760569	0.122348
H102	H	0.486714	0.754918	0.187436
O103	O	0.883013	0.605116	0.277647
H104	H	0.842134	0.555472	0.286278
H105	H	1.524859	0.592529	0.305949
H106	H	1.699291	0.418111	0.480390
H107	H	0.898357	1.219003	-0.519649
H108	H	0.898386	1.218989	-0.694068
O109	O	1.282913	0.605269	0.522423
H110	H	1.291548	0.555679	0.612947
H111	H	0.311160	1.219001	-0.106842
H112	H	0.854108	0.569255	-0.151124
O113	O	1.127640	0.760557	-0.477556
H114	H	1.218137	0.704102	-0.430877
H115	H	1.524841	0.592577	0.106794
H116	H	1.699294	0.418134	0.106790
O117	O	1.127641	0.605236	0.522444
H118	H	1.168576	0.555653	0.612974
H119	H	1.112072	0.418100	0.694023
