data_functionalizedCrystal
_audit_creation_method	'MofGen! by Chris Wilmer'
_symmetry_space_group_name_H-M	'P1'
_symmetry_Int_Tables_number	1
_symmetry_cell_setting	triclinic
loop_
_symmetry_equiv_pos_as_xyz
  x,y,z
_cell_length_a	12.645331
_cell_length_b	29.839131
_cell_length_c	29.839125
_cell_angle_alpha	89.988394
_cell_angle_beta	89.985903
_cell_angle_gamma	90.040399
loop_
_atom_site_label
_atom_site_type_symbol
_atom_site_fract_x
_atom_site_fract_y
_atom_site_fract_z
Zn1	Zn	1.620467	-0.178956	-0.254011
Zn2	Zn	1.620301	-0.254060	-0.178881
Zn3	Zn	1.443208	-0.178943	-0.178893
Zn4	Zn	1.443089	-0.254058	-0.253982
O5	O	1.531766	-0.216504	-0.216441
O6	O	1.768792	-0.188924	-0.244052
O7	O	1.596790	-0.244091	-0.116015
O8	O	1.466840	-0.116078	-0.188875
O9	O	1.768671	-0.244103	-0.188854
O10	O	1.597071	-0.116087	-0.244063
O11	O	1.466680	-0.188903	-0.116024
O12	O	1.294845	-0.188901	-0.188846
O13	O	1.466639	-0.244100	-0.316853
O14	O	1.294758	-0.244088	-0.244014
O15	O	1.596957	-0.188923	-0.316874
O16	O	1.596675	-0.316927	-0.188826
O17	O	1.466478	-0.316925	-0.244002
C18	C	1.256337	-0.216493	-0.216428
C19	C	1.138507	-0.216500	-0.216434
C20	C	0.970962	-0.181622	-0.181919
C21	C	1.093522	-0.181712	-0.181767
C22	C	1.093945	-0.263821	-0.203495
C23	C	0.971346	-0.263630	-0.203260
C24	C	0.971352	-0.204507	-0.264019
C25	C	1.093959	-0.203449	-0.263755
C26	C	1.531575	-0.333227	-0.216419
C27	C	1.531590	-0.383161	-0.216425
C28	C	1.599683	-0.692792	-0.187753
C29	C	1.599814	-0.880466	-0.187771
O30	O	1.657557	-0.904720	-0.163376
N31	N	1.531986	-0.903946	-0.216475
C32	C	1.464126	-0.880506	-0.245180
O33	O	1.406445	-0.904784	-0.269599
C34	C	1.464001	-0.692833	-0.245164
C35	C	1.531826	-0.669355	-0.216455
C36	C	1.667503	-0.669314	-0.159046
C37	C	1.667465	-0.622399	-0.159040
C38	C	1.599608	-0.598962	-0.187742
C39	C	1.531788	-0.622440	-0.216449
C40	C	1.396147	-0.669394	-0.273871
C41	C	1.396123	-0.622473	-0.273865
C42	C	1.463948	-0.598995	-0.245155
C43	C	1.463893	-0.552087	-0.245144
N44	N	1.531721	-0.528607	-0.216440
C45	C	1.599578	-0.552044	-0.187738
C46	C	1.464194	-0.979036	-0.245185
C47	C	1.464224	-1.025954	-0.245189
C48	C	1.599914	-1.025911	-0.187780
C49	C	1.599878	-0.978992	-0.187775
C50	C	1.532022	-0.955556	-0.216481
C51	C	1.599494	-0.453518	-0.187728
C52	C	1.599447	-0.406598	-0.187723
C53	C	1.463762	-0.406646	-0.245134
C54	C	1.463804	-0.453561	-0.245137
C55	C	1.531679	-0.476996	-0.216432
O56	O	1.406189	-0.527804	-0.269530
O57	O	1.657267	-0.527758	-0.163330
C58	C	1.599720	-0.739708	-0.187759
C59	C	1.531901	-0.763186	-0.216466
C60	C	1.464043	-0.739749	-0.245167
C61	C	1.531930	-0.810104	-0.216470
C62	C	1.599788	-0.833541	-0.187768
C63	C	1.667615	-0.810061	-0.159063
C64	C	1.667578	-0.763145	-0.159058
C65	C	1.396215	-0.763230	-0.273872
C66	C	1.396258	-0.810145	-0.273875
C67	C	1.464115	-0.833582	-0.245174
C68	C	1.808271	-0.216515	-0.216455
C69	C	1.926102	-0.216520	-0.216460
C70	C	1.531803	-0.216513	-0.333620
C71	C	1.531819	-0.216516	-0.383554
C72	C	1.531987	-0.099326	-0.216474
C73	C	1.532082	-0.049391	-0.216487
C74	C	1.464035	-0.245144	-0.740130
C75	C	1.463997	-0.245196	-0.552457
O76	O	1.406261	-0.269621	-0.528183
N77	N	1.531842	-0.216475	-0.528999
C78	C	1.599696	-0.187736	-0.552463
O79	O	1.657394	-0.163305	-0.528204
C80	C	1.599728	-0.187683	-0.740135
C81	C	1.531887	-0.216409	-0.763590
C82	C	1.396198	-0.273868	-0.763586
C83	C	1.396213	-0.273856	-0.810501
C84	C	1.464064	-0.245121	-0.833961
C85	C	1.531901	-0.216397	-0.810506
C86	C	1.667576	-0.158942	-0.763598
C87	C	1.667576	-0.158931	-0.810519
C88	C	1.599735	-0.187657	-0.833974
C89	C	1.599766	-0.187651	-0.880881
N90	N	1.531922	-0.216372	-0.904339
C91	C	1.464070	-0.245107	-0.880879
C92	C	1.599676	-0.187767	-0.453932
C93	C	1.599670	-0.187781	-0.407014
C94	C	1.463969	-0.245240	-0.407012
C95	C	1.463982	-0.245228	-0.453931
C96	C	1.531831	-0.216488	-0.477390
C97	C	1.464106	-0.245081	-0.979405
C98	C	1.464130	-0.245068	-1.026325
C99	C	1.599826	-0.187608	-1.026323
C100	C	1.599807	-0.187622	-0.979407
C101	C	1.531938	-0.216360	-0.955950
O102	O	1.657463	-0.163235	-0.905184
O103	O	1.406365	-0.269528	-0.905146
C104	C	1.464021	-0.245155	-0.693215
C105	C	1.531858	-0.216432	-0.669760
C106	C	1.599709	-0.187697	-0.693220
C107	C	1.531852	-0.216446	-0.622842
C108	C	1.464000	-0.245181	-0.599382
C109	C	1.396156	-0.273902	-0.622839
C110	C	1.396170	-0.273891	-0.669755
C111	C	1.667554	-0.158976	-0.669762
C112	C	1.667535	-0.158990	-0.622846
C113	C	1.599684	-0.187725	-0.599386
C114	C	1.531791	-0.216463	-0.099719
C115	C	1.531981	-0.216333	-0.049785
H116	H	1.123094	-0.168627	-0.273511
Br117	Br	1.304032	-0.590669	-0.312827
H118	H	0.942703	-0.273820	-0.168492
H119	H	1.408738	-0.268619	-0.473025
Br120	Br	1.759649	-0.119918	-0.842353
Br121	Br	1.304077	-0.312901	-0.590992
H122	H	1.654678	-0.387484	-0.164343
Br123	Br	1.759633	-0.731289	-0.120093
Br124	Br	1.691928	-0.947134	-0.148810
Br125	Br	1.144994	-0.242727	-0.308947
Br126	Br	1.692002	-1.057727	-0.148827
H127	H	0.941667	-0.290511	-0.227321
Br128	Br	0.922998	-0.246871	-0.306915
Br129	Br	1.759534	-0.590543	-0.120081
H130	H	1.341017	-0.829257	-0.297254
H131	H	0.940484	-0.170604	-0.275785
H132	H	1.123079	-0.290516	-0.227864
H133	H	1.654766	-0.472593	-0.164355
Br134	Br	1.304115	-0.731429	-0.312829
Br135	Br	1.372157	-1.057812	-0.284147
Br136	Br	1.304097	-0.312880	-0.701580
H137	H	1.408884	-0.268462	-1.045420
H138	H	0.940119	-0.189473	-0.146884
H139	H	1.722766	-0.688392	-0.135674
Br140	Br	1.372094	-0.947236	-0.284147
Br141	Br	1.371730	-0.485426	-0.284089
Br142	Br	1.371678	-0.374829	-0.284085
H143	H	0.941529	-0.146426	-0.189942
Br144	Br	1.759702	-0.841878	-0.120110
H145	H	1.340911	-0.688502	-0.297247
H146	H	1.124602	-0.274185	-0.169100
Br147	Br	1.759621	-0.120003	-0.591020
H148	H	1.122804	-0.189651	-0.146524
Br149	Br	1.371999	-0.284083	-0.947577
H150	H	1.340966	-0.297247	-0.829595
H151	H	1.340939	-0.297267	-0.744490
Br152	Br	1.371888	-0.284239	-0.375165
H153	H	1.654924	-0.164394	-0.387921
H154	H	1.654932	-0.164363	-0.473028
Br155	Br	1.691908	-0.148613	-1.058170
H156	H	1.722821	-0.135551	-0.744508
H157	H	1.655056	-0.164234	-0.960309
H158	H	1.123654	-0.146622	-0.189877
Br159	Br	1.759672	-0.119984	-0.701593
