data_functionalizedCrystal
_audit_creation_method	'MofGen! by Chris Wilmer'
_symmetry_space_group_name_H-M	'P1'
_symmetry_Int_Tables_number	1
_symmetry_cell_setting	triclinic
loop_
_symmetry_equiv_pos_as_xyz
  x,y,z
_cell_length_a	17.019294
_cell_length_b	19.288864
_cell_length_c	17.766277
_cell_angle_alpha	90.023209
_cell_angle_beta	86.114664
_cell_angle_gamma	96.735399
loop_
_atom_site_label
_atom_site_type_symbol
_atom_site_fract_x
_atom_site_fract_y
_atom_site_fract_z
O1	O	0.098406	-0.921527	-0.069213
O2	O	0.111681	-0.719290	-0.070022
O3	O	-0.009809	-0.826050	-0.062171
O4	O	0.219897	-0.814768	-0.077064
O5	O	-0.009815	-0.826031	0.063018
O6	O	0.111675	-0.719271	0.055167
O7	O	0.098400	-0.921508	0.055976
Cu8	Cu	0.105037	-0.820388	0.067002
Cu9	Cu	0.105044	-0.820410	-0.081048
O10	O	0.219891	-0.814749	0.048125
C11	C	0.111251	-0.693403	-0.007393
C12	C	0.109969	-0.616298	-0.007290
C13	C	-0.039200	-0.825612	0.002328
C14	C	-0.126766	-0.824328	0.008002
C15	C	0.098830	-0.947395	-0.006654
C16	C	0.100113	-1.024501	-0.006762
C17	C	-0.167897	-0.823737	-0.057572
C18	C	-0.250174	-0.822526	-0.052239
C19	C	-0.291319	-0.821912	0.018670
C20	C	-0.250182	-0.822501	0.084249
C21	C	-0.167906	-0.823707	0.078915
C22	C	-0.539739	-0.818265	0.038191
C23	C	-0.622022	-0.817062	0.043520
C24	C	-0.622008	-0.817085	-0.092968
C25	C	-0.539730	-0.818296	-0.098297
C26	C	-0.498600	-0.818881	-0.032717
C27	C	-0.375420	-0.820676	0.024124
C28	C	-0.414500	-0.820112	-0.038172
C29	C	0.249281	-0.815186	-0.016375
C30	C	0.336847	-0.816470	-0.022054
N31	N	0.105031	-0.820378	0.171133
C32	C	0.181254	-0.571728	-0.011924
C33	C	0.180049	-0.499278	-0.011854
C34	C	0.107555	-0.471402	-0.007165
C35	C	0.036261	-0.515982	-0.002527
C36	C	0.037468	-0.588430	-0.002589
C37	C	0.050570	-0.363046	-0.047355
C38	C	0.049366	-0.290600	-0.047297
C39	C	0.103831	-0.247950	-0.006969
C40	C	0.159513	-0.277755	0.033291
C41	C	0.160720	-0.350203	0.033228
C42	C	0.106239	-0.392846	-0.007097
C43	C	0.173815	-0.124822	-0.011527
C44	C	0.172607	-0.052372	-0.011452
C45	C	0.028817	-0.069077	-0.002132
C46	C	0.030026	-0.141526	-0.002200
C47	C	0.102528	-0.169394	-0.006900
N48	N	0.105044	-0.820426	-0.185178
C49	C	0.051262	-0.867666	0.213995
C50	C	0.051258	-0.867670	0.292797
C51	C	0.105038	-0.820392	0.328733
C52	C	0.158812	-0.773095	0.285862
C53	C	0.158808	-0.773088	0.207062
C54	C	0.176913	-0.811221	0.448913
C55	C	0.176917	-0.811233	0.527711
C56	C	0.105047	-0.820411	0.571779
C57	C	0.033170	-0.829591	0.537039
C58	C	0.033167	-0.829584	0.458239
C59	C	0.105047	-0.820395	0.414178
C60	C	0.051269	-0.867706	0.700087
C61	C	0.051264	-0.867705	0.778891
C62	C	0.158825	-0.773134	0.771954
C63	C	0.158823	-0.773131	0.693152
C64	C	0.105046	-0.820421	0.657224
H65	H	-0.283659	-0.822047	-0.105636
H66	H	0.007472	-0.906171	0.184744
N67	N	-0.497709	-0.818934	-0.170730
N68	N	-0.514342	-0.867745	-0.215355
H69	H	-0.484666	-0.868199	-0.266513
N70	N	0.250343	-0.801848	0.563178
N71	N	0.296918	-0.747271	0.551378
H72	H	0.348778	-0.740641	0.576423
N73	N	-0.037797	-0.487524	0.002269
N74	N	-0.085800	-0.501178	0.058155
H75	H	-0.138107	-0.481081	0.061547
N76	N	-0.003704	-0.916002	0.663424
N77	N	0.021120	-0.959127	0.617818
H78	H	-0.017723	-0.993236	0.591946
N79	N	0.213739	-0.724775	0.163287
N80	N	0.261749	-0.682560	0.195378
H81	H	0.300546	-0.648438	0.164461
H82	H	0.238100	-0.462982	-0.015625
H83	H	0.007471	-0.906179	0.327701
H84	H	0.203863	-0.243031	0.066130
H85	H	0.007474	-0.906211	0.813790
N86	N	-0.417439	-0.820056	0.096560
N87	N	-0.380711	-0.820587	0.155108
H88	H	-0.410388	-0.820147	0.206267
N89	N	-0.125871	-0.824351	-0.130006
N90	N	-0.072517	-0.776086	-0.148679
H91	H	-0.042837	-0.776516	-0.199838
N92	N	0.247875	-0.153282	-0.016324
N93	N	0.311520	-0.113475	-0.020452
H94	H	0.363827	-0.133572	-0.023839
H95	H	0.202610	-0.734636	0.801213
H96	H	-0.020583	-0.624720	0.001184
H97	H	0.202610	-0.734627	0.658252
H98	H	0.235442	-0.803735	0.413038
N99	N	0.213736	-0.724802	0.322579
N100	N	0.213732	-0.724815	0.392935
H101	H	0.252522	-0.690704	0.418867
N102	N	-0.007520	-0.260173	-0.088420
N103	N	-0.079993	-0.276696	-0.072656
H104	H	-0.120172	-0.255211	-0.101700
N105	N	-0.664034	-0.816489	-0.159944
N106	N	-0.737494	-0.815414	-0.155176
H107	H	-0.767177	-0.814991	-0.202480
H108	H	-0.655519	-0.816558	0.101265
H109	H	-0.506263	-0.818756	0.091590
H110	H	-0.283688	-0.821996	0.141985
H111	H	0.230658	-0.016083	-0.015221
N112	N	-0.125900	-0.824303	0.145905
N113	N	-0.162643	-0.823751	0.209212
H114	H	-0.132977	-0.824168	0.256527
H115	H	-0.380996	-0.820607	-0.095905
H116	H	-0.028022	-0.177816	0.001570
H117	H	0.240290	-0.594412	-0.015753
N118	N	-0.040255	-0.838961	0.422764
N119	N	-0.104422	-0.847157	0.462110
H120	H	-0.156278	-0.853778	0.437057
N121	N	0.217598	-0.380637	0.074353
N122	N	0.266228	-0.342557	0.110356
H123	H	0.306398	-0.364050	0.139403
H124	H	-0.030209	-0.046382	0.001638
N125	N	-0.040244	-0.838957	0.582053
N126	N	-0.040235	-0.838949	0.652409
H127	H	-0.092081	-0.845560	0.684205
N128	N	-0.005082	-0.406599	-0.088548
N129	N	-0.054788	-0.379981	-0.124493
H130	H	-0.094093	-0.410739	-0.153583
