data_functionalizedCrystal
_audit_creation_method	'MofGen! by Chris Wilmer'
_symmetry_space_group_name_H-M	'P1'
_symmetry_Int_Tables_number	1
_symmetry_cell_setting	triclinic
loop_
_symmetry_equiv_pos_as_xyz
  x,y,z
_cell_length_a	9.730223
_cell_length_b	19.288864
_cell_length_c	19.288865
_cell_angle_alpha	83.136245
_cell_angle_beta	89.993453
_cell_angle_gamma	89.985960
loop_
_atom_site_label
_atom_site_type_symbol
_atom_site_fract_x
_atom_site_fract_y
_atom_site_fract_z
O1	O	0.114746	-0.921344	-0.086645
O2	O	0.614746	-0.421344	0.413355
O3	O	0.114654	-0.719084	-0.098333
O4	O	0.614654	-0.219084	0.401667
O5	O	0.114676	-0.826058	0.008641
O6	O	0.614676	-0.326058	0.508641
O7	O	0.114725	-0.814370	-0.193619
O8	O	0.614725	-0.314370	0.306381
O9	O	-0.113904	-0.826057	0.008639
O10	O	0.386096	-0.326057	0.508639
O11	O	-0.113926	-0.719082	-0.098336
O12	O	0.386074	-0.219082	0.401664
O13	O	-0.113834	-0.921343	-0.086647
O14	O	0.386166	-0.421343	0.413353
Zn15	Zn	-0.150172	-0.820213	-0.092492
Zn16	Zn	0.349828	-0.320213	0.407508
Zn17	Zn	0.150992	-0.820214	-0.092489
Zn18	Zn	0.650992	-0.320214	0.407511
O19	O	-0.113855	-0.814368	-0.193622
O20	O	0.386145	-0.314368	0.306378
C21	C	0.000352	-0.693207	-0.097959
C22	C	0.500352	-0.193207	0.402041
C23	C	0.000316	-0.616103	-0.096830
C24	C	0.500316	-0.116103	0.403170
N25	N	-0.355708	-0.820216	-0.092494
N26	N	0.144292	-0.320216	0.407506
C27	C	0.000382	-0.825682	0.034516
C28	C	0.500382	-0.325682	0.534516
C29	C	0.000369	-0.824553	0.111620
C30	C	0.500369	-0.324553	0.611620
C31	C	-0.427625	-0.867597	-0.045142
C32	C	0.072375	-0.367597	0.454858
C33	C	-0.571508	-0.867595	-0.045133
C34	C	-0.071508	-0.367595	0.454867
C35	C	-0.571545	-0.772830	-0.139836
C36	C	-0.071545	-0.272830	0.360164
C37	C	-0.427664	-0.772829	-0.139841
C38	C	0.072336	-0.272829	0.360159
C39	C	-0.355668	-0.914984	0.002205
C40	C	0.144332	-0.414984	0.502205
C41	C	-0.427585	-0.962369	0.049561
C42	C	0.072415	-0.462369	0.549561
C43	C	-0.571468	-0.962367	0.049569
C44	C	-0.071468	-0.462367	0.549569
C45	C	-0.643434	-0.914980	0.002222
C46	C	-0.143434	-0.414980	0.502222
N47	N	0.356529	-0.820216	-0.092481
N48	N	0.856529	-0.320216	0.407519
C49	C	0.000471	-0.947220	-0.087022
C50	C	0.500471	-0.447220	0.412978
C51	C	0.000517	-1.024324	-0.088151
C52	C	0.500517	-0.524324	0.411849
C53	C	0.000353	-0.571407	-0.159598
C54	C	0.500353	-0.071407	0.340402
C55	C	0.000368	-0.498960	-0.158537
C56	C	0.500368	0.001040	0.341463
C57	C	0.000373	-0.471212	-0.094705
C58	C	0.500373	0.028788	0.405295
C59	C	0.000329	-0.515918	-0.031929
C60	C	0.500329	-0.015918	0.468071
C61	C	0.000300	-0.588364	-0.032991
C62	C	0.500300	-0.088364	0.467009
C63	C	0.080489	-0.362951	-0.044525
C64	C	0.580489	0.137049	0.455475
C65	C	0.080526	-0.290506	-0.043465
C66	C	0.580526	0.209494	0.456535
C67	C	0.000456	-0.247767	-0.091425
C68	C	0.500456	0.252233	0.408575
C69	C	-0.079634	-0.277479	-0.140457
C70	C	0.420366	0.222521	0.359543
C71	C	-0.079663	-0.349924	-0.141520
C72	C	0.420337	0.150076	0.358480
C73	C	0.000404	-0.392658	-0.093546
C74	C	0.500404	0.107342	0.406454
C75	C	0.000507	-0.124514	-0.153047
C76	C	0.500507	0.375486	0.346953
C77	C	0.000513	-0.052066	-0.151984
C78	C	0.500513	0.447934	0.348016
C79	C	0.000488	-0.069026	-0.025374
C80	C	0.500488	0.430974	0.474626
C81	C	0.000468	-0.141473	-0.026439
C82	C	0.500468	0.358527	0.473561
C83	C	0.000484	-0.169212	-0.090278
C84	C	0.500484	0.330788	0.409722
C85	C	0.000442	-0.814745	-0.219497
C86	C	0.500442	-0.314745	0.280503
C87	C	0.000464	-0.815874	-0.296601
C88	C	0.500464	-0.315874	0.203399
C89	C	0.000391	-0.887321	0.156316
C90	C	0.500391	-0.387321	0.656316
C91	C	0.000412	-0.886260	0.228763
C92	C	0.500412	-0.386260	0.728763
C93	C	0.000384	-0.822428	0.256511
C94	C	0.500384	-0.322428	0.756511
C95	C	0.000370	-0.759652	0.211805
C96	C	0.500370	-0.259652	0.711805
C97	C	0.000362	-0.760714	0.139359
C98	C	0.500362	-0.260714	0.639359
C99	C	-0.079706	-0.772248	0.364797
C100	C	0.420294	-0.272248	0.864797
C101	C	-0.079707	-0.771188	0.437242
C102	C	0.420293	-0.271188	0.937242
C103	C	0.000413	-0.819148	0.479956
C104	C	0.500413	-0.319148	0.979956
C105	C	0.080516	-0.868180	0.450219
C106	C	0.580516	-0.368180	0.950219
C107	C	0.080509	-0.869242	0.377774
C108	C	0.580509	-0.369242	0.877774
C109	C	0.000393	-0.821269	0.335065
C110	C	0.500393	-0.321269	0.835065
C111	C	0.000460	-0.880770	0.603209
C112	C	0.500460	-0.380770	1.103209
C113	C	0.000490	-0.879707	0.675657
C114	C	0.500490	-0.379707	1.175657
C115	C	0.000434	-0.753097	0.658697
C116	C	0.500434	-0.253097	1.158697
C117	C	0.000418	-0.754162	0.586250
C118	C	0.500418	-0.254162	1.086250
C119	C	0.000424	-0.818000	0.558511
C120	C	0.500424	-0.318000	1.058511
H121	H	-0.238512	-0.914991	0.002201
H122	H	0.261488	-0.414991	0.502201
H123	H	-0.368983	-1.000946	0.088113
H124	H	0.131017	-0.500946	0.588113
H125	H	0.145746	-0.266320	-0.003543
H126	H	0.645746	0.233680	0.496457
Cl127	Cl	0.000430	-0.197666	0.052474
Cl128	Cl	0.500430	0.302334	0.552474
Cl129	Cl	0.181159	-0.416673	0.015775
Cl130	Cl	0.681159	0.083327	0.515775
H131	H	0.000352	-0.493322	0.020044
H132	H	0.500352	0.006678	0.520044
Cl133	Cl	-0.337253	-0.713261	-0.199370
Cl134	Cl	0.162747	-0.213261	0.300630
Cl135	Cl	0.000460	-0.961023	0.568333
Cl136	Cl	0.500460	-0.461023	1.068333
Cl137	Cl	-0.661876	-1.021929	0.109106
Cl138	Cl	-0.161876	-0.521929	0.609106
Cl139	Cl	0.000255	-0.644557	0.045924
Cl140	Cl	0.500255	-0.144557	0.545924
H141	H	-0.760593	-0.914978	0.002237
H142	H	-0.260593	-0.414978	0.502237
H143	H	0.000368	-0.593987	-0.211580
H144	H	0.500368	-0.093987	0.288420
H145	H	0.000401	-0.939303	0.133736
H146	H	0.500401	-0.439303	0.633736
H147	H	0.000392	-0.703049	0.549857
H148	H	0.500392	-0.203049	1.049857
Cl149	Cl	-0.662016	-0.713265	-0.199357
Cl150	Cl	-0.162016	-0.213265	0.300643
Cl151	Cl	0.000441	-0.965174	0.284963
Cl152	Cl	0.500441	-0.465174	0.784963
Cl153	Cl	-0.180301	-0.223757	-0.200755
Cl154	Cl	0.319699	0.276243	0.299245
Cl155	Cl	0.000526	-0.958623	0.731848
Cl156	Cl	0.500526	-0.458623	1.231848
Cl157	Cl	0.181214	-0.930875	0.340391
Cl158	Cl	0.681214	-0.430875	0.840391
Cl159	Cl	0.000346	-0.679405	0.246686
Cl160	Cl	0.500346	-0.179405	0.746686
H161	H	0.145758	-0.907233	0.484997
H162	H	0.645758	-0.407233	0.984997
H163	H	0.000394	-0.462561	-0.209652
H164	H	0.500394	0.037439	0.290348
Cl165	Cl	0.000479	-0.034151	0.054873
Cl166	Cl	0.500479	0.465849	0.554873
Cl167	Cl	0.000406	-0.672850	0.693572
Cl168	Cl	0.500406	-0.172850	1.193572
H169	H	-0.144923	-0.731260	0.461447
H170	H	0.355077	-0.231260	0.961447
Cl171	Cl	-0.180442	-0.711950	0.311106
Cl172	Cl	0.319558	-0.211950	0.811106
H173	H	-0.144879	-0.374113	-0.181441
H174	H	0.355121	0.125887	0.318559
Cl175	Cl	0.000513	-0.159390	-0.233300
Cl176	Cl	0.500513	0.340610	0.266700
H177	H	0.000535	-0.015674	-0.203099
H178	H	0.500535	0.484326	0.296901
H179	H	0.000344	-0.709599	0.102967
H180	H	0.500344	-0.209599	0.602967
