data_functionalizedCrystal
_audit_creation_method	'MofGen! by Chris Wilmer'
_symmetry_space_group_name_H-M	'P1'
_symmetry_Int_Tables_number	1
_symmetry_cell_setting	triclinic
loop_
_symmetry_equiv_pos_as_xyz
  x,y,z
_cell_length_a	13.032831
_cell_length_b	18.215405
_cell_length_c	18.215399
_cell_angle_alpha	90.030551
_cell_angle_beta	82.809197
_cell_angle_gamma	97.170997
loop_
_atom_site_label
_atom_site_type_symbol
_atom_site_fract_x
_atom_site_fract_y
_atom_site_fract_z
Zn1	Zn	1.597611	0.436094	-0.558719
Zn2	Zn	1.597481	0.559154	-0.435635
Zn3	Zn	1.422854	0.420464	-0.420066
Zn4	Zn	1.422806	0.543466	-0.543067
O5	O	1.510188	0.489795	-0.489372
O6	O	1.743832	0.465525	-0.555458
O7	O	1.574282	0.540781	-0.330583
O8	O	1.446111	0.319560	-0.438493
O9	O	1.743737	0.555937	-0.465029
O10	O	1.574504	0.331043	-0.540361
O11	O	1.445985	0.438886	-0.319144
O12	O	1.276609	0.423674	-0.423316
O13	O	1.446028	0.529199	-0.648131
O14	O	1.276574	0.514043	-0.513685
O15	O	1.574457	0.450313	-0.659630
O16	O	1.574235	0.660051	-0.449852
O17	O	1.445902	0.648525	-0.528782
C18	C	1.238674	0.465460	-0.465113
C19	C	1.122519	0.455068	-0.454753
C20	C	1.510078	0.680991	-0.489327
C21	C	1.510126	0.762794	-0.489340
C22	C	1.510252	0.489750	-0.681331
C23	C	1.510279	0.489730	-0.763132
C24	C	1.070743	0.495219	-0.494779
C25	C	0.950691	0.484478	-0.484072
C26	C	1.782763	0.514225	-0.513726
C27	C	1.898918	0.524635	-0.524104
C28	C	1.510327	0.297854	-0.489436
C29	C	1.510387	0.216061	-0.489463
C30	C	1.577106	0.956979	-0.448342
C31	C	1.577153	1.033842	-0.448364
C32	C	1.443404	1.021870	-0.530466
C33	C	1.443363	0.945009	-0.530448
C34	C	1.510213	0.912565	-0.489382
C35	C	1.510300	1.066289	-0.489422
C36	C	1.510350	1.149627	-0.489446
C37	C	1.510164	0.829222	-0.489358
C38	C	1.577176	0.448613	-0.957317
C39	C	1.577188	0.448593	-1.034177
C40	C	1.443456	0.530741	-1.022192
C41	C	1.443439	0.530756	-0.945333
C42	C	1.510305	0.489694	-0.912898
C43	C	1.510334	0.489658	-1.066617
C44	C	1.510347	0.489636	-1.149952
C45	C	1.510291	0.489715	-0.829558
C46	C	1.510185	0.489792	-0.298165
C47	C	1.510360	0.489622	-0.216383
H48	H	1.115294	0.537542	-0.536977
H49	H	1.388977	0.564208	-0.909164
H50	H	0.943464	0.566960	-0.566307
O51	O	1.063503	0.399006	-0.398857
H52	H	1.084409	0.343117	-0.413434
O53	O	1.649216	0.921984	-0.404062
H54	H	1.695747	0.965785	-0.375536
H55	H	1.631639	0.415139	-1.070340
O56	O	1.371346	0.575032	-1.057178
H57	H	1.289334	0.555058	-1.035102
H58	H	1.388976	1.048295	-0.563900
O59	O	0.891697	0.428419	-0.428161
H60	H	0.806661	0.428790	-0.428514
H61	H	1.631625	1.070001	-0.414947
H62	H	1.631619	0.415175	-0.930911
O63	O	1.371195	0.897095	-0.574702
H64	H	1.324701	0.932565	-0.603248
