data_functionalizedCrystal
_audit_creation_method	'MofGen! by Chris Wilmer'
_symmetry_space_group_name_H-M	'P1'
_symmetry_Int_Tables_number	1
_symmetry_cell_setting	triclinic
loop_
_symmetry_equiv_pos_as_xyz
  x,y,z
_cell_length_a	10.654550
_cell_length_b	16.956995
_cell_length_c	15.455301
_cell_angle_alpha	93.170672
_cell_angle_beta	92.975489
_cell_angle_gamma	80.269687
loop_
_atom_site_label
_atom_site_type_symbol
_atom_site_fract_x
_atom_site_fract_y
_atom_site_fract_z
O1	O	0.056602	1.061468	0.072190
O2	O	0.100663	0.829554	0.072178
O3	O	-0.104734	0.950843	0.072181
O4	O	0.261998	0.940179	0.072187
O5	O	-0.113899	0.944550	-0.072082
O6	O	0.091498	0.823261	-0.072085
O7	O	0.047437	1.055175	-0.072073
Cu8	Cu	0.068631	0.938644	-0.085251
Cu9	Cu	0.079469	0.946086	0.085357
O10	O	0.252834	0.933886	-0.072076
C11	C	0.098336	0.796712	0.000045
C12	C	0.105043	0.708229	0.000041
C13	C	0.155223	0.209207	0.000074
C14	C	0.148911	0.292348	0.000073
C15	C	0.030431	0.342780	0.000065
C16	C	-0.081743	0.310069	0.000066
C17	C	-0.075429	0.226931	0.000073
C18	C	-0.000817	0.592379	0.000049
C19	C	-0.007122	0.675523	0.000039
C20	C	0.223532	0.657795	0.000048
C21	C	0.229835	0.574656	0.000050
C22	C	0.117661	0.541952	0.000056
N23	N	0.023976	0.427763	0.000061
N24	N	0.124118	0.456971	0.000066
C25	C	-0.156022	0.946914	0.000051
C26	C	-0.295190	0.944571	0.000054
C27	C	-0.383068	1.015984	0.000055
C28	C	-0.513830	1.013779	0.000061
C29	C	-0.468820	0.868740	0.000061
C30	C	-0.338061	0.870947	0.000061
C31	C	-0.340197	1.089608	0.000047
C32	C	-0.428077	1.161027	0.000048
C33	C	-0.558839	1.158822	0.000053
C34	C	-0.601719	1.085197	0.000059
C35	C	0.304122	0.937816	0.000057
C36	C	0.443290	0.940159	0.000060
C37	C	0.049763	1.088018	0.000062
C38	C	0.043057	1.176501	0.000073
N39	N	0.061006	0.933415	-0.205247
C40	C	0.129276	0.980191	-0.250634
C41	C	0.123501	0.976247	-0.341443
C42	C	0.049462	0.925524	-0.386863
C43	C	-0.018816	0.878746	-0.341470
C44	C	-0.013047	0.882694	-0.250663
C45	C	0.024573	0.908492	-0.658447
C46	C	0.018813	0.904545	-0.749260
C47	C	0.161129	1.002048	-0.749227
C48	C	0.166897	1.005988	-0.658418
C49	C	0.098613	0.959214	-0.613033
N50	N	0.043561	0.921490	-0.479684
N51	N	0.104509	0.963253	-0.520214
N52	N	0.087083	0.951321	0.205353
H53	H	0.240249	0.318972	0.000082
H54	H	0.326314	0.533598	0.000060
Br55	Br	-0.779186	1.082203	0.000027
Br56	Br	-0.162738	1.092606	0.000033
H57	H	-0.393153	1.220971	0.000064
Br58	Br	0.375760	0.702183	0.000046
H59	H	-0.503745	0.808799	0.000065
Br60	Br	-0.167927	0.743968	0.000026
H61	H	0.251701	0.168150	0.000074
H62	H	-0.092157	0.565762	0.000051
Br63	Br	-0.227660	0.182544	0.000074
Br64	Br	-0.678101	1.255745	0.000066
Br65	Br	0.229768	1.049031	-0.189001
Br66	Br	0.216158	1.039732	-0.403036
H67	H	0.227183	1.047295	-0.621443
H68	H	0.216720	1.040129	-0.786189
Br69	Br	-0.081673	0.835700	-0.810902
H70	H	-0.178211	0.351139	0.000064
H71	H	-0.266507	0.812796	0.000059
Br72	Br	-0.068043	0.844979	-0.596864
Br73	Br	-0.119304	0.809909	-0.403110
H74	H	-0.068640	0.844604	-0.213710
