data_functionalizedCrystal
_audit_creation_method	'MofGen! by Chris Wilmer'
_symmetry_space_group_name_H-M	'P1'
_symmetry_Int_Tables_number	1
_symmetry_cell_setting	triclinic
loop_
_symmetry_equiv_pos_as_xyz
  x,y,z
_cell_length_a	25.639242
_cell_length_b	19.805405
_cell_length_c	19.805399
_cell_angle_alpha	90.030709
_cell_angle_beta	90.018568
_cell_angle_gamma	90.017340
loop_
_atom_site_label
_atom_site_type_symbol
_atom_site_fract_x
_atom_site_fract_y
_atom_site_fract_z
Zn1	Zn	-0.799283	0.269633	-0.382742
Zn2	Zn	-0.299283	0.769633	0.117258
Zn3	Zn	-0.799221	0.382824	-0.269550
Zn4	Zn	-0.299221	0.882824	0.230450
Zn5	Zn	-0.711855	0.269637	-0.269563
Zn6	Zn	-0.211855	0.769637	0.230437
Zn7	Zn	-0.711823	0.382768	-0.382694
Zn8	Zn	-0.211823	0.882768	0.117306
O9	O	-0.755545	0.326216	-0.326137
O10	O	-0.255545	0.826216	0.173863
O11	O	-0.872440	0.284671	-0.367741
O12	O	-0.372440	0.784671	0.132259
O13	O	-0.787619	0.367835	-0.174835
O14	O	-0.287619	0.867835	0.325165
O15	O	-0.723492	0.174920	-0.284602
O16	O	-0.223492	0.674920	0.215398
O17	O	-0.872394	0.367832	-0.284580
O18	O	-0.372394	0.867832	0.215420
O19	O	-0.787725	0.174917	-0.367754
O20	O	-0.287725	0.674917	0.132246
O21	O	-0.723432	0.284677	-0.174845
O22	O	-0.223432	0.784677	0.325155
O23	O	-0.638686	0.284622	-0.284555
O24	O	-0.138686	0.784622	0.215445
O25	O	-0.723437	0.367735	-0.477417
O26	O	-0.223437	0.867735	0.022583
O27	O	-0.638662	0.367738	-0.367672
O28	O	-0.138662	0.867738	0.132328
O29	O	-0.787693	0.284616	-0.477452
O30	O	-0.287693	0.784616	0.022548
O31	O	-0.787588	0.477533	-0.284533
O32	O	-0.287588	0.977533	0.215467
O33	O	-0.723377	0.477492	-0.367659
O34	O	-0.223377	0.977492	0.132341
C35	C	-0.619703	0.326175	-0.326110
C36	C	-0.119703	0.826175	0.173890
C37	C	-0.561589	0.326174	-0.326115
C38	C	-0.061589	0.826174	0.173885
C39	C	-0.310427	0.282977	-0.369501
C40	C	0.189573	0.782977	0.130499
C41	C	-0.365031	0.282972	-0.369500
C42	C	0.134969	0.782972	0.130500
O43	O	-0.393295	0.246222	-0.406393
O44	O	0.106705	0.746222	0.093607
N45	N	-0.392315	0.326196	-0.326131
N46	N	0.107685	0.826196	0.173869
C47	C	-0.364991	0.369434	-0.282766
C48	C	0.135009	0.869434	0.217234
O49	O	-0.393212	0.406200	-0.245878
O50	O	0.106788	0.906200	0.254122
C51	C	-0.310388	0.369442	-0.282772
C52	C	0.189612	0.869442	0.217228
C53	C	-0.283107	0.326209	-0.326139
C54	C	0.216893	0.826209	0.173861
C55	C	-0.283146	0.239748	-0.412865
C56	C	0.216854	0.739748	0.087135
C57	C	-0.228546	0.239753	-0.412866
C58	C	0.271454	0.739753	0.087134
C59	C	-0.201226	0.282985	-0.369503
C60	C	0.298774	0.782985	0.130497
C61	C	-0.228507	0.326214	-0.326139
C62	C	0.271493	0.826214	0.173861
C63	C	-0.283066	0.412682	-0.239411
C64	C	0.216934	0.912682	0.260589
C65	C	-0.228459	0.412687	-0.239421
C66	C	0.271541	0.912687	0.260579
C67	C	-0.201178	0.369454	-0.282788
C68	C	0.298822	0.869454	0.217212
C69	C	-0.146587	0.369450	-0.282777
C70	C	0.353413	0.869450	0.217223
N71	N	-0.119303	0.326226	-0.326146
N72	N	0.380697	0.826226	0.173854
C73	C	-0.146623	0.282993	-0.369509
C74	C	0.353377	0.782993	0.130491
C75	C	-0.479662	0.369415	-0.282759
C76	C	0.020338	0.869415	0.217241
C77	C	-0.534264	0.369404	-0.282749
C78	C	-0.034264	0.869404	0.217251
C79	C	-0.534301	0.282943	-0.369483
C80	C	-0.034301	0.782943	0.130517
C81	C	-0.479697	0.282950	-0.369489
C82	C	0.020303	0.782950	0.130511
C83	C	-0.452378	0.326190	-0.326127
C84	C	0.047622	0.826190	0.173873
C85	C	-0.031958	0.283005	-0.369506
C86	C	0.468042	0.783005	0.130494
C87	C	0.022648	0.283011	-0.369501
C88	C	0.522648	0.783011	0.130499
C89	C	0.022679	0.369475	-0.282770
C90	C	0.522679	0.869475	0.217230
C91	C	-0.031921	0.369466	-0.282772
C92	C	0.468079	0.869466	0.217228
C93	C	-0.059238	0.326229	-0.326146
C94	C	0.440762	0.826229	0.173854
O95	O	-0.118288	0.406183	-0.245905
O96	O	0.381712	0.906183	0.254095
O97	O	-0.118395	0.246240	-0.406397
O98	O	0.381605	0.746240	0.093603
C99	C	0.108082	0.326249	-0.326155
C100	C	0.608082	0.826249	0.173845
C101	C	0.049968	0.326244	-0.326139
C102	C	0.549968	0.826244	0.173861
C103	C	-0.755487	0.502072	-0.326104
C104	C	-0.255487	1.002072	0.173896
C105	C	-0.755509	0.577304	-0.326113
C106	C	-0.255509	1.077304	0.173887
C107	C	-0.755568	0.326169	-0.502680
C108	C	-0.255568	0.826169	-0.002680
C109	C	-0.755578	0.326149	-0.577912
C110	C	-0.255578	0.826149	-0.077912
C111	C	-0.755619	0.149673	-0.326185
C112	C	-0.255619	0.649673	0.173815
C113	C	-0.755650	0.074441	-0.326205
C114	C	-0.255650	0.574441	0.173795
C115	C	-0.788976	0.612647	-0.282875
C116	C	-0.288976	1.112647	0.217125
C117	C	-0.788999	0.683335	-0.282890
C118	C	-0.288999	1.183335	0.217110
C119	C	-0.755551	0.718679	-0.326140
C120	C	-0.255551	1.218679	0.173860
C121	C	-0.722082	0.683331	-0.369383
C122	C	-0.222082	1.183331	0.130617
C123	C	-0.722063	0.612644	-0.369371
C124	C	-0.222063	1.112644	0.130629
C125	C	-0.722159	0.968404	-0.369433
C126	C	-0.222159	1.468404	0.130567
C127	C	-0.722180	1.039096	-0.369441
C128	C	-0.222180	1.539096	0.130559
C129	C	-0.789095	1.039096	-0.282952
C130	C	-0.289095	1.539096	0.217048
C131	C	-0.789076	0.968409	-0.282940
C132	C	-0.289076	1.468409	0.217060
C133	C	-0.755609	0.933066	-0.326185
C134	C	-0.255609	1.433066	0.173815
C135	C	-0.755586	0.856418	-0.326169
C136	C	-0.255586	1.356418	0.173831
C137	C	-0.755571	0.795326	-0.326153
C138	C	-0.255571	1.295326	0.173847
C139	C	-0.722165	0.282844	-0.613261
C140	C	-0.222165	0.782844	-0.113261
C141	C	-0.722173	0.282831	-0.683949
C142	C	-0.222173	0.782831	-0.183949
C143	C	-0.755596	0.326119	-0.719288
C144	C	-0.255596	0.826119	-0.219288
C145	C	-0.789010	0.369429	-0.683934
C146	C	-0.289010	0.869429	-0.183934
C147	C	-0.789000	0.369445	-0.613247
C148	C	-0.289000	0.869445	-0.113247
C149	C	-0.789051	0.369365	-0.969008
C150	C	-0.289051	0.869365	-0.469008
C151	C	-0.789060	0.369345	-1.039700
C152	C	-0.289060	0.869345	-0.539700
C153	C	-0.722224	0.282751	-1.039710
C154	C	-0.222224	0.782751	-0.539710
C155	C	-0.722214	0.282767	-0.969023
C156	C	-0.222214	0.782767	-0.469023
C157	C	-0.755626	0.326079	-0.933675
C158	C	-0.255626	0.826079	-0.433675
C159	C	-0.755617	0.326094	-0.857027
C160	C	-0.255617	0.826094	-0.357027
C161	C	-0.755608	0.326102	-0.795935
C162	C	-0.255608	0.826102	-0.295935
C163	C	-0.755553	0.326213	-0.150281
C164	C	-0.255553	0.826213	0.349719
C165	C	-0.755644	0.326043	-0.075050
C166	C	-0.255644	0.826043	0.424950
H167	H	-0.054135	0.404664	-0.247454
H168	H	0.445865	0.904664	0.252546
C169	C	-0.685372	0.929537	-0.417039
C170	C	-0.185372	1.429537	0.082961
N171	N	-0.657671	0.900260	-0.452911
N172	N	-0.157671	1.400260	0.047089
H173	H	-0.694951	0.247589	-0.584493
H174	H	-0.194951	0.747589	-0.084493
C175	C	-0.449616	0.416975	-0.235044
C176	C	0.050384	0.916975	0.264956
N177	N	-0.426989	0.452796	-0.199104
N178	N	0.073011	0.952796	0.300896
C179	C	-0.564363	0.235391	-0.417189
C180	C	-0.064363	0.735391	0.082811
N181	N	-0.587007	0.199578	-0.453119
N182	N	-0.087007	0.699578	0.046881
H183	H	-0.694943	1.067871	-0.404665
H184	H	-0.194943	1.567871	0.095335
C185	C	-0.685421	0.235185	-0.722829
C186	C	-0.185421	0.735185	-0.222829
N187	N	-0.657740	0.199294	-0.752113
N188	N	-0.157740	0.699294	-0.252113
H189	H	-0.816221	0.404679	-0.712712
H190	H	-0.316221	0.904679	-0.212712
H191	H	-0.695017	0.247487	-1.068498
H192	H	-0.195017	0.747487	-0.568498
H193	H	-0.694850	0.712113	-0.404601
H194	H	-0.194850	1.212113	0.095399
C195	C	-0.061998	0.235438	-0.417216
C196	C	0.438002	0.735438	0.082784
N197	N	-0.084625	0.199606	-0.453146
N198	N	0.415375	0.699606	0.046854
C199	C	0.052741	0.417029	-0.235074
C200	C	0.552741	0.917029	0.264926
N201	N	0.075386	0.452851	-0.199153
N202	N	0.575386	0.952851	0.300847
C203	C	-0.825826	0.416972	-1.078571
C204	C	-0.325826	0.916972	-0.578571
N205	N	-0.853517	0.452844	-1.107848
N206	N	-0.353517	0.952844	-0.607848
H207	H	-0.206339	0.204551	-0.448182
H208	H	0.293661	0.704551	0.051818
H209	H	-0.816310	0.939634	-0.247719
H210	H	-0.316310	1.439634	0.252281
C211	C	-0.825835	0.416972	-0.930135
C212	C	-0.325835	0.916972	-0.430135
N213	N	-0.853552	0.452818	-0.900853
N214	N	-0.353552	0.952818	-0.400853
C215	C	-0.825759	0.417080	-0.574364
C216	C	-0.325759	0.917080	-0.074364
N217	N	-0.853447	0.452962	-0.545078
N218	N	-0.353447	0.952962	-0.045078
C219	C	-0.685446	0.235147	-0.930154
C220	C	-0.185446	0.735147	-0.430154
N221	N	-0.657749	0.199281	-0.900879
N222	N	-0.157749	0.699281	-0.400879
C223	C	0.052653	0.235452	-0.417212
C224	C	0.552653	0.735452	0.082788
N225	N	0.075252	0.199633	-0.453148
N226	N	0.575252	0.699633	0.046852
H227	H	-0.694811	0.583868	-0.404581
H228	H	-0.194811	1.083868	0.095419
H229	H	-0.305384	0.204543	-0.448180
H230	H	0.194616	0.704543	0.051820
H231	H	-0.556472	0.404601	-0.247428
H232	H	-0.056472	0.904601	0.252572
C233	C	-0.313062	0.460245	-0.191706
C234	C	0.186938	0.960245	0.308294
N235	N	-0.335655	0.496073	-0.155774
N236	N	0.164345	0.996073	0.344226
C237	C	-0.198411	0.460252	-0.191716
C238	C	0.301589	0.960252	0.308284
N239	N	-0.175781	0.496077	-0.155782
N240	N	0.324219	0.996077	0.344218
C241	C	-0.449694	0.235396	-0.417200
C242	C	0.050306	0.735396	0.082800
N243	N	-0.427097	0.199579	-0.453139
N244	N	0.072903	0.699579	0.046861
H245	H	-0.816211	0.583875	-0.247652
H246	H	-0.316211	1.083875	0.252348
H247	H	-0.816251	0.712109	-0.247680
H248	H	-0.316251	1.212109	0.252320
H249	H	-0.816347	1.067880	-0.247742
H250	H	-0.316347	1.567880	0.252258
