data_functionalizedCrystal
_audit_creation_method	'MofGen! by Chris Wilmer'
_symmetry_space_group_name_H-M	'P1'
_symmetry_Int_Tables_number	1
_symmetry_cell_setting	triclinic
loop_
_symmetry_equiv_pos_as_xyz
  x,y,z
_cell_length_a	17.077404
_cell_length_b	17.077402
_cell_length_c	17.077396
_cell_angle_alpha	89.970216
_cell_angle_beta	89.980499
_cell_angle_gamma	90.023108
loop_
_atom_site_label
_atom_site_type_symbol
_atom_site_fract_x
_atom_site_fract_y
_atom_site_fract_z
Zn1	Zn	1.200055	-0.312503	-0.443836
Zn2	Zn	1.533388	0.020830	-0.110502
Zn3	Zn	1.866721	0.354163	0.222831
Zn4	Zn	1.199962	-0.443778	-0.312567
Zn5	Zn	1.533295	-0.110445	0.020767
Zn6	Zn	1.866628	0.222888	0.354100
Zn7	Zn	1.068786	-0.312531	-0.312584
Zn8	Zn	1.402120	0.020802	0.020750
Zn9	Zn	1.735453	0.354136	0.354083
Zn10	Zn	1.068754	-0.443732	-0.443790
Zn11	Zn	1.402088	-0.110398	-0.110457
Zn12	Zn	1.735421	0.222935	0.222876
O13	O	1.134389	-0.378136	-0.378194
O14	O	1.467723	-0.044803	-0.044861
O15	O	1.801056	0.288531	0.288473
O16	O	1.309889	-0.329925	-0.426434
O17	O	1.643223	0.003408	-0.093101
O18	O	1.976556	0.336741	0.240232
O19	O	1.182536	-0.426399	-0.202722
O20	O	1.515869	-0.093066	0.130611
O21	O	1.849202	0.240268	0.463945
O22	O	1.086252	-0.202680	-0.330021
O23	O	1.419585	0.130653	0.003313
O24	O	1.752918	0.463986	0.336646
O25	O	1.309821	-0.426372	-0.329992
O26	O	1.643154	-0.093039	0.003342
O27	O	1.976488	0.240294	0.336675
O28	O	1.182694	-0.202660	-0.426451
O29	O	1.516027	0.130673	-0.093118
O30	O	1.849361	0.464007	0.240216
O31	O	1.086162	-0.329972	-0.202734
O32	O	1.419495	0.003361	0.130599
O33	O	1.752828	0.336694	0.463932
O34	O	0.958935	-0.329927	-0.329976
O35	O	1.292269	0.003406	0.003357
O36	O	1.625602	0.336740	0.336690
O37	O	1.086197	-0.426293	-0.553643
O38	O	1.419531	-0.092960	-0.220310
O39	O	1.752864	0.240374	0.113023
O40	O	0.958912	-0.426320	-0.426373
O41	O	1.292245	-0.092986	-0.093040
O42	O	1.625578	0.240347	0.240293
O43	O	1.182663	-0.329880	-0.553677
O44	O	1.515996	0.003453	-0.220343
O45	O	1.849330	0.336787	0.112990
O46	O	1.182505	-0.553619	-0.329948
O47	O	1.515838	-0.220286	0.003386
O48	O	1.849171	0.113048	0.336719
O49	O	1.086107	-0.553585	-0.426357
O50	O	1.419440	-0.220251	-0.093024
O51	O	1.752774	0.113082	0.240310
C52	C	0.930441	-0.378122	-0.378172
C53	C	1.263775	-0.044789	-0.044839
C54	C	1.597108	0.288545	0.288494
C55	C	0.843192	-0.378135	-0.378182
C56	C	1.176525	-0.044801	-0.044848
C57	C	1.509858	0.288532	0.288485
C58	C	0.802210	-0.428402	-0.428295
C59	C	1.135543	-0.095069	-0.094962
C60	C	1.468876	0.238265	0.238372
C61	C	0.720229	-0.428404	-0.428308
C62	C	1.053563	-0.095070	-0.094974
C63	C	1.386896	0.238263	0.238359
C64	C	0.679232	-0.378141	-0.378202
C65	C	1.012566	-0.044808	-0.044869
C66	C	1.345899	0.288525	0.288464
C67	C	0.720220	-0.327869	-0.328087
C68	C	1.053553	0.005465	0.005247
C69	C	1.386887	0.338798	0.338580
C70	C	0.802199	-0.327863	-0.328079
C71	C	1.135532	0.005470	0.005255
C72	C	1.468865	0.338803	0.338588
C73	C	0.549350	-0.327884	-0.328106
C74	C	0.882683	0.005449	0.005228
C75	C	1.216016	0.338783	0.338561
C76	C	0.467365	-0.327890	-0.328112
C77	C	0.800699	0.005443	0.005221
C78	C	1.134032	0.338777	0.338554
C79	C	0.467380	-0.428424	-0.428335
C80	C	0.800714	-0.095091	-0.095001
C81	C	1.134047	0.238242	0.238332
C82	C	0.549359	-0.428419	-0.428327
C83	C	0.882693	-0.095086	-0.094993
C84	C	1.216026	0.238247	0.238340
C85	C	0.590341	-0.378147	-0.378210
C86	C	0.923675	-0.044814	-0.044876
C87	C	1.257008	0.288520	0.288457
C88	C	1.134314	-0.582084	-0.378163
C89	C	1.467647	-0.248751	-0.044829
C90	C	1.800980	0.084583	0.288504
C91	C	1.134353	-0.669334	-0.378176
C92	C	1.467686	-0.336000	-0.044842
C93	C	1.801020	-0.002667	0.288491
C94	C	1.184598	-0.710316	-0.328029
C95	C	1.517932	-0.376982	0.005304
C96	C	1.851265	-0.043649	0.338638
C97	C	1.184637	-0.792296	-0.328049
C98	C	1.517970	-0.458963	0.005284
C99	C	1.851303	-0.125629	0.338618
C100	C	1.134425	-0.833293	-0.378212
C101	C	1.467759	-0.499960	-0.044879
C102	C	1.801092	-0.166626	0.288454
C103	C	1.084178	-0.792305	-0.428364
C104	C	1.417511	-0.458972	-0.095031
C105	C	1.750844	-0.125639	0.238302
C106	C	1.084144	-0.710327	-0.428348
C107	C	1.417477	-0.376993	-0.095014
C108	C	1.750810	-0.043660	0.238319
C109	C	1.084250	-0.963175	-0.428394
C110	C	1.417584	-0.629842	-0.095061
C111	C	1.750917	-0.296509	0.238273
C112	C	1.084283	-1.045160	-0.428410
C113	C	1.417616	-0.711827	-0.095076
C114	C	1.750950	-0.378493	0.238257
C115	C	1.184743	-1.045145	-0.328096
C116	C	1.518077	-0.711812	0.005238
C117	C	1.851410	-0.378478	0.338571
C118	C	1.184709	-0.963166	-0.328079
C119	C	1.518043	-0.629833	0.005254
C120	C	1.851376	-0.296499	0.338588
C121	C	1.134461	-0.922184	-0.378230
C122	C	1.467794	-0.588851	-0.044897
C123	C	1.801127	-0.255517	0.288437
C124	C	1.339134	-0.378151	-0.378216
C125	C	1.672467	-0.044818	-0.044883
C126	C	2.005800	0.288516	0.288450
C127	C	1.426383	-0.378157	-0.378226
C128	C	1.759717	-0.044824	-0.044892
C129	C	2.093050	0.288509	0.288441
C130	C	1.134437	-0.378078	-0.582938
C131	C	1.467770	-0.044745	-0.249605
C132	C	1.801103	0.288588	0.083728
C133	C	1.134457	-0.378054	-0.670188
C134	C	1.467790	-0.044720	-0.336855
C135	C	1.801124	0.288613	-0.003522
C136	C	1.134487	-0.173392	-0.378243
C137	C	1.467820	0.159942	-0.044909
C138	C	1.801153	0.493275	0.288424
C139	C	1.134528	-0.086142	-0.378263
C140	C	1.467862	0.247191	-0.044930
C141	C	1.801195	0.580525	0.288403
C142	C	1.184689	-0.327847	-0.711197
C143	C	1.518022	0.005486	-0.377864
C144	C	1.851355	0.338819	-0.044530
C145	C	1.184698	-0.327821	-0.793178
C146	C	1.518031	0.005512	-0.459844
C147	C	1.851365	0.338846	-0.126511
C148	C	1.134479	-0.378006	-0.834148
C149	C	1.467813	-0.044673	-0.500814
C150	C	1.801146	0.288661	-0.167481
C151	C	1.084242	-0.428214	-0.793133
C152	C	1.417576	-0.094881	-0.459800
C153	C	1.750909	0.238452	-0.126467
C154	C	1.084229	-0.428236	-0.711154
C155	C	1.417563	-0.094903	-0.377821
C156	C	1.750896	0.238431	-0.044488
C157	C	1.084274	-0.428167	-0.964003
C158	C	1.417607	-0.094834	-0.630670
C159	C	1.750941	0.238499	-0.297337
C160	C	1.084288	-0.428147	-1.045988
C161	C	1.417621	-0.094814	-0.712655
C162	C	1.750954	0.238520	-0.379321
C163	C	1.184742	-0.327752	-1.046027
C164	C	1.518076	0.005581	-0.712693
C165	C	1.851409	0.338914	-0.379360
C166	C	1.184730	-0.327774	-0.964048
C167	C	1.518063	0.005559	-0.630714
C168	C	1.851396	0.338893	-0.297381
C169	C	1.134493	-0.377984	-0.923039
C170	C	1.467827	-0.044650	-0.589705
C171	C	1.801160	0.288683	-0.256372
C172	C	1.134387	-0.378137	-0.174246
C173	C	1.467721	-0.044804	0.159087
C174	C	1.801054	0.288530	0.492421
C175	C	1.134519	-0.377941	-0.086997
C176	C	1.467852	-0.044607	0.246337
C177	C	1.801186	0.288726	0.579670
H178	H	0.835565	-0.286927	-0.287275
H179	H	1.168899	0.046407	0.046058
H180	H	1.502232	0.379740	0.379391
C181	C	1.239834	-0.665226	-0.272843
C182	C	1.573168	-0.331893	0.060491
C183	C	1.906501	0.001440	0.393824
N184	N	1.281441	-0.631268	-0.231277
N185	N	1.614775	-0.297934	0.102057
N186	N	1.948108	0.035399	0.435390
C187	C	0.675120	-0.272577	-0.272972
C188	C	1.008453	0.060756	0.060361
C189	C	1.341787	0.394089	0.393695
N190	N	0.641152	-0.230933	-0.231457
N191	N	0.974485	0.102401	0.101877
N192	N	1.307818	0.435734	0.435210
H193	H	1.225660	-1.078516	-0.287263
H194	H	1.558994	-0.745183	0.046070
H195	H	1.892327	-0.411850	0.379404
H196	H	0.835584	-0.469334	-0.469094
H197	H	1.168917	-0.136001	-0.135761
H198	H	1.502250	0.197333	0.197572
C199	C	1.239906	-0.837372	-0.272879
C200	C	1.573239	-0.504039	0.060454
C201	C	1.906572	-0.170706	0.393788
N202	N	1.281536	-0.871324	-0.231321
N203	N	1.614869	-0.537990	0.102012
N204	N	1.948202	-0.204657	0.435346
H205	H	1.225591	-0.929786	-0.287228
H206	H	1.558925	-0.596453	0.046105
H207	H	1.892258	-0.263120	0.379438
C208	C	1.029056	-1.090255	-0.483600
C209	C	1.362389	-0.756922	-0.150267
C210	C	1.695723	-0.423589	0.183067
N211	N	0.987460	-1.124221	-0.525173
N212	N	1.320794	-0.790888	-0.191839
N213	N	1.654127	-0.457554	0.141494
H214	H	1.043335	-0.929811	-0.469235
H215	H	1.376668	-0.596477	-0.135902
H216	H	1.710002	-0.263144	0.197431
H217	H	1.043298	-0.825692	-0.469211
H218	H	1.376631	-0.492358	-0.135878
H219	H	1.709964	-0.159025	0.197455
C220	C	0.422270	-0.272596	-0.272997
C221	C	0.755603	0.060737	0.060337
C222	C	1.088937	0.394071	0.393670
N223	N	0.388304	-0.230947	-0.231483
N224	N	0.721638	0.102386	0.101850
N225	N	1.054971	0.435719	0.435183
C226	C	1.028870	-0.665247	-0.483513
C227	C	1.362204	-0.331914	-0.150180
C228	C	1.695537	0.001420	0.183154
N229	N	0.987239	-0.631294	-0.525068
N230	N	1.320572	-0.297961	-0.191734
N231	N	1.653905	0.035373	0.141599
C232	C	0.675153	-0.483717	-0.483421
C233	C	1.008486	-0.150384	-0.150088
C234	C	1.341820	0.182950	0.183245
N235	N	0.641202	-0.525386	-0.524931
N236	N	0.974535	-0.192053	-0.191597
N237	N	1.307869	0.141280	0.141736
C238	C	1.239933	-0.272638	-0.666137
C239	C	1.573267	0.060695	-0.332804
C240	C	1.906600	0.394028	0.000529
N241	N	1.281543	-0.231050	-0.632201
N242	N	1.614876	0.102283	-0.298867
N243	N	1.948209	0.435616	0.034466
C244	C	1.239958	-0.272591	-0.838283
C245	C	1.573291	0.060742	-0.504950
C246	C	1.906625	0.394075	-0.171617
N247	N	1.281582	-0.230990	-0.872257
N248	N	1.614916	0.102343	-0.538923
N249	N	1.948249	0.435677	-0.205590
C250	C	1.240002	-0.272520	-1.091138
C251	C	1.573336	0.060813	-0.757805
C252	C	1.906669	0.394146	-0.424471
N253	N	1.281625	-0.230924	-1.125119
N254	N	1.614958	0.102410	-0.791786
N255	N	1.948292	0.435743	-0.458453
C256	C	1.029040	-0.483348	-1.091054
C257	C	1.362373	-0.150014	-0.757720
C258	C	1.695706	0.183319	-0.424387
N259	N	0.987425	-0.524925	-1.124997
N260	N	1.320758	-0.191592	-0.791664
N261	N	1.654092	0.141742	-0.458330
C262	C	1.029014	-0.483404	-0.918896
C263	C	1.362347	-0.150070	-0.585562
C264	C	1.695680	0.183263	-0.252229
N265	N	0.987397	-0.525011	-0.884920
N266	N	1.320730	-0.191678	-0.551587
N267	N	1.654063	0.141656	-0.218254
H268	H	0.434009	-0.469355	-0.469144
H269	H	0.767342	-0.136022	-0.135810
H270	H	1.100676	0.197311	0.197523
C271	C	1.028972	-0.483468	-0.666045
C272	C	1.362306	-0.150135	-0.332712
C273	C	1.695639	0.183198	0.000622
N274	N	0.987349	-0.525070	-0.632070
N275	N	1.320683	-0.191736	-0.298736
N276	N	1.654016	0.141597	0.034597
H277	H	1.225627	-0.286913	-0.930692
H278	H	1.558960	0.046420	-0.597359
H279	H	1.892293	0.379753	-0.264025
H280	H	0.582737	-0.469352	-0.469122
H281	H	0.916070	-0.136018	-0.135789
H282	H	1.249404	0.197315	0.197544
H283	H	0.582715	-0.286940	-0.287302
H284	H	0.916048	0.046393	0.046031
H285	H	1.249381	0.379727	0.379365
H286	H	1.043350	-0.469073	-0.826498
H287	H	1.376684	-0.135740	-0.493164
H288	H	1.710017	0.197594	-0.159831
