data_functionalizedCrystal
_audit_creation_method	'MofGen! by Chris Wilmer'
_symmetry_space_group_name_H-M	'P1'
_symmetry_Int_Tables_number	1
_symmetry_cell_setting	triclinic
loop_
_symmetry_equiv_pos_as_xyz
  x,y,z
_cell_length_a	12.594517
_cell_length_b	12.594516
_cell_length_c	12.594509
_cell_angle_alpha	90.026199
_cell_angle_beta	90.022214
_cell_angle_gamma	90.015485
loop_
_atom_site_label
_atom_site_type_symbol
_atom_site_fract_x
_atom_site_fract_y
_atom_site_fract_z
Zn1	Zn	1.627267	-0.423726	0.601900
Zn2	Zn	1.627158	-0.601736	0.423928
Zn3	Zn	1.449271	-0.423771	0.423926
Zn4	Zn	1.449253	-0.601661	0.601855
O5	O	1.538237	-0.512724	0.512902
O6	O	1.776198	-0.447352	0.578311
O7	O	1.603523	-0.578179	0.274982
O8	O	1.472936	-0.274819	0.447553
O9	O	1.776118	-0.578136	0.447556
O10	O	1.603709	-0.274786	0.578310
O11	O	1.472830	-0.447428	0.274981
O12	O	1.300323	-0.447355	0.447509
O13	O	1.472905	-0.578008	0.750807
O14	O	1.300310	-0.578051	0.578233
O15	O	1.603691	-0.447280	0.750840
O16	O	1.603505	-0.750672	0.447512
O17	O	1.472799	-0.750617	0.578235
C18	C	1.261696	-0.512700	0.512867
C19	C	1.143391	-0.512716	0.512877
C20	C	1.003350	-0.441553	0.441939
C21	C	1.074209	-0.415620	0.539064
C22	C	1.074104	-0.538602	0.415762
C23	C	1.003464	-0.486775	0.610131
C24	C	1.003352	-0.609802	0.486764
C25	C	1.074179	-0.583905	0.583956
C26	C	1.538167	-0.789265	0.512892
C27	C	1.538235	-0.907570	0.512923
C28	C	1.467137	-0.976832	0.583973
C29	C	1.441204	-1.047697	0.486850
C30	C	1.564265	-1.047504	0.610063
C31	C	1.512250	-0.976877	0.415748
C32	C	1.635357	-0.976678	0.539027
C33	C	1.609460	-1.047511	0.441837
C34	C	1.815858	-0.512748	0.512939
C35	C	1.934163	-0.512758	0.512954
C36	C	1.538308	-0.512630	0.790524
C37	C	1.538339	-0.512591	0.908829
C38	C	1.538336	-0.235103	0.512936
C39	C	1.538378	-0.116797	0.512951
C40	C	1.538227	-0.512740	0.236361
C41	C	1.538403	-0.512479	0.118057
C42	C	1.467227	-0.583653	0.978064
C43	C	1.564347	-0.609660	1.048857
C44	C	1.441294	-0.486519	1.048835
C45	C	1.635510	-0.538649	0.978064
C46	C	1.512391	-0.415463	0.978036
C47	C	1.609579	-0.441433	1.048797
H48	H	0.972254	-0.381309	0.381990
H49	H	0.972563	-0.464802	0.692317
C50	C	1.115918	-0.665239	0.665133
N51	N	1.147353	-0.726499	0.726278
H52	H	1.359198	-0.464514	1.079923
C53	C	1.330329	-1.089840	0.457029
N54	N	1.246815	-1.121579	0.434575
C55	C	1.116260	-0.304727	0.568954
N56	N	1.147929	-0.221200	0.591460
C57	C	1.690950	-0.360182	1.090492
N58	N	1.752242	-0.298988	1.121899
C59	C	1.594041	-0.720561	1.090889
N60	N	1.616399	-0.804093	1.122545
H61	H	1.586224	-1.078528	0.692203
C62	C	1.482451	-0.935142	0.304751
N63	N	1.460002	-0.903704	0.221152
C64	C	1.746450	-0.568513	0.936246
N65	N	1.830006	-0.591011	0.904746
H66	H	1.490382	-0.333394	0.946904
H67	H	0.972206	-0.691864	0.464610
C68	C	1.116022	-0.568160	0.304765
N69	N	1.147590	-0.590416	0.221159
C70	C	1.386063	-0.664967	0.936082
N71	N	1.324940	-0.726215	0.904452
H72	H	1.406905	-0.945797	0.643970
H73	H	1.717406	-0.945462	0.561131
C74	C	1.690766	-1.089182	0.360589
N75	N	1.752001	-1.120572	0.299390
