data_functionalizedCrystal
_audit_creation_method	'MofGen! by Chris Wilmer'
_symmetry_space_group_name_H-M	'P1'
_symmetry_Int_Tables_number	1
_symmetry_cell_setting	triclinic
loop_
_symmetry_equiv_pos_as_xyz
  x,y,z
_cell_length_a	10.654550
_cell_length_b	15.995350
_cell_length_c	9.730223
_cell_angle_alpha	89.997832
_cell_angle_beta	89.999957
_cell_angle_gamma	83.988653
loop_
_atom_site_label
_atom_site_type_symbol
_atom_site_fract_x
_atom_site_fract_y
_atom_site_fract_z
O1	O	1.666303	0.117602	-0.114180
O2	O	1.300678	0.128807	-0.114204
O3	O	1.493485	0.001375	-0.114190
O4	O	1.473496	0.245034	-0.114194
O5	O	1.493473	0.001371	0.114390
O6	O	1.300666	0.128803	0.114375
O7	O	1.666290	0.117599	0.114400
Zn8	Zn	1.483476	0.123201	0.150680
Zn9	Zn	1.483492	0.123205	-0.150484
O10	O	1.473483	0.245031	0.114386
C11	C	1.253884	0.127982	0.000082
C12	C	1.114473	0.125521	0.000073
C13	C	1.492652	-0.029826	0.000097
C14	C	1.490175	-0.122791	0.000089
C15	C	1.034008	0.200551	0.000075
C16	C	0.903017	0.198233	0.000099
C17	C	0.932971	0.045849	0.000112
C18	C	1.063959	0.048168	0.000098
C19	C	1.481277	-0.460590	0.000093
C20	C	1.343964	-0.413954	-0.000429
C21	C	1.346442	-0.317249	0.000087
C22	C	1.485691	-0.293004	0.000090
C23	C	1.553412	-0.333690	0.130623
C24	C	1.549962	-0.430346	0.130732
C25	C	1.552813	-0.430684	-0.129206
C26	C	1.552780	-0.333739	-0.130931
C27	C	1.488192	-0.198292	0.000093
C28	C	1.478780	-0.555303	0.000099
C29	C	1.713084	0.118423	0.000110
C30	C	1.852495	0.120885	0.000111
C31	C	1.474316	0.276232	0.000095
C32	C	1.476793	0.369197	0.000094
N33	N	1.483474	0.123197	0.356216
N34	N	1.483504	0.123202	-0.356021
C35	C	1.568878	0.066794	0.428148
C36	C	1.568890	0.066794	0.572031
C37	C	1.398091	0.179608	0.572037
C38	C	1.398074	0.179603	0.428157
H39	H	0.837506	0.259330	0.000104
H40	H	1.506366	-0.305584	0.227758
C41	C	1.270138	-0.440841	0.125321
C42	C	1.132468	-0.403666	0.148060
C43	C	1.058647	-0.430553	0.273813
C44	C	1.122496	-0.494615	0.376827
C45	C	1.260174	-0.531793	0.354090
C46	C	1.333995	-0.504906	0.228337
H47	H	1.085196	-0.356241	0.071800
H48	H	0.956729	-0.403031	0.290643
H49	H	1.067850	-0.514518	0.469916
H50	H	1.307446	-0.579219	0.430350
H51	H	1.435913	-0.532428	0.211507
H52	H	1.075132	0.263537	0.000065
H53	H	0.891826	-0.017129	0.000141
C54	C	1.152482	-0.034371	0.000093
C55	C	1.146838	-0.097547	0.118793
C56	C	1.235360	-0.180082	0.118794
C57	C	1.329525	-0.199440	0.000094
C58	C	1.335172	-0.136262	-0.118616
C59	C	1.246650	-0.053728	-0.118616
H60	H	1.077128	-0.083218	0.206670
H61	H	1.231179	-0.226850	0.206671
H62	H	1.395054	-0.260537	0.000094
H63	H	1.404882	-0.150591	-0.206492
H64	H	1.250831	-0.006960	-0.206493
C65	C	1.274505	-0.279265	-0.126307
C66	C	1.318835	-0.305946	-0.271952
C67	C	1.246883	-0.267968	-0.398344
C68	C	1.130600	-0.203309	-0.379091
C69	C	1.086263	-0.176623	-0.233440
C70	C	1.158216	-0.214601	-0.107048
H71	H	1.404921	-0.353814	-0.286209
H72	H	1.279704	-0.287723	-0.506164
H73	H	1.077336	-0.175195	-0.472654
H74	H	1.000178	-0.128755	-0.219182
H75	H	1.125394	-0.194847	0.000773
C76	C	1.483224	-0.455465	0.262535
C77	C	1.553836	-0.516387	0.365790
C78	C	1.487092	-0.541499	0.497595
C79	C	1.349737	-0.505691	0.526143
C80	C	1.279117	-0.444765	0.422885
C81	C	1.345861	-0.419652	0.291080
H82	H	1.655521	-0.542898	0.344660
H83	H	1.539370	-0.586601	0.574033
H84	H	1.300329	-0.524281	0.623712
H85	H	1.177432	-0.418254	0.444015
H86	H	1.293583	-0.374551	0.214642
C87	C	1.686146	-0.473127	0.138772
C88	C	1.797688	-0.419311	0.145078
C89	C	1.933869	-0.462088	0.153133
C90	C	1.958507	-0.558681	0.154882
C91	C	1.846962	-0.612503	0.148576
C92	C	1.710782	-0.569726	0.140520
H93	H	1.779452	-0.347802	0.143784
H94	H	2.016441	-0.422245	0.157802
H95	H	2.059316	-0.590347	0.160845
H96	H	1.865199	-0.684011	0.149870
H97	H	1.628209	-0.609569	0.135852
H98	H	1.289086	-0.432803	-0.094036
C99	C	1.485993	-0.297244	-0.261395
C100	C	1.371077	-0.230768	-0.249078
C101	C	1.304288	-0.194267	-0.379539
C102	C	1.352415	-0.224241	-0.522316
C103	C	1.467336	-0.290720	-0.534639
C104	C	1.534125	-0.327222	-0.404178
H105	H	1.335446	-0.208576	-0.143380
H106	H	1.219215	-0.145055	-0.370416
H107	H	1.302973	-0.197221	-0.618891
H108	H	1.502968	-0.312912	-0.640336
H109	H	1.619198	-0.376434	-0.413301
H110	H	1.292840	-0.289697	0.093810
C111	C	1.662839	0.004753	0.651159
C112	C	1.756792	-0.057276	0.572023
C113	C	1.850743	-0.119321	0.651151
C114	C	1.850742	-0.119337	0.809414
C115	C	1.756786	-0.057306	0.888558
C116	C	1.662835	0.004739	0.809430
H117	H	1.756796	-0.057266	0.454860
H118	H	1.920296	-0.165240	0.592562
H119	H	1.920291	-0.165266	0.867988
H120	H	1.756782	-0.057316	1.005721
H121	H	1.593282	0.050659	0.868019
H122	H	1.655714	-0.318971	0.135480
C123	C	1.689970	-0.312199	-0.141579
C124	C	1.773415	-0.345862	-0.262800
C125	C	1.910611	-0.324326	-0.273433
C126	C	1.964363	-0.269127	-0.162845
C127	C	1.880916	-0.235461	-0.041616
C128	C	1.743720	-0.256997	-0.030983
H129	H	1.733626	-0.386727	-0.344671
H130	H	1.972384	-0.349248	-0.363175
H131	H	2.065924	-0.253185	-0.170717
H132	H	1.920705	-0.194596	0.040255
H133	H	1.681948	-0.232074	0.058760
C134	C	1.304163	0.241659	0.651173
C135	C	1.304247	0.241720	0.809435
C136	C	1.210319	0.303775	0.888566
C137	C	1.116307	0.365769	0.809434
C138	C	1.116219	0.365710	0.651162
C139	C	1.210147	0.303655	0.572032
H140	H	1.373844	0.195826	0.868022
H141	H	1.210385	0.303818	1.005729
H142	H	1.046776	0.411706	0.868011
H143	H	1.046622	0.411604	0.592576
H144	H	1.210081	0.303612	0.454868
C145	C	1.662806	0.004743	0.349013
C146	C	1.660706	-0.090618	0.368814
C147	C	1.754634	-0.152673	0.289683
C148	C	1.850662	-0.119367	0.190752
C149	C	1.852766	-0.024002	0.170947
C150	C	1.758838	0.038054	0.250077
H151	H	1.589617	-0.115277	0.442052
H152	H	1.753076	-0.223269	0.304345
H153	H	1.920193	-0.165304	0.132175
H154	H	1.923855	0.000658	0.097708
H155	H	1.760396	0.108650	0.235416
H156	H	1.507924	-0.451483	-0.228142
H157	H	1.654054	-0.461857	-0.130081
H158	H	1.328522	0.225533	0.369586
