data_functionalizedCrystal
_audit_creation_method	'MofGen! by Chris Wilmer'
_symmetry_space_group_name_H-M	'P1'
_symmetry_Int_Tables_number	1
_symmetry_cell_setting	triclinic
loop_
_symmetry_equiv_pos_as_xyz
  x,y,z
_cell_length_a	10.654550
_cell_length_b	15.455313
_cell_length_c	10.654550
_cell_angle_alpha	87.308851
_cell_angle_beta	84.484931
_cell_angle_gamma	92.703897
loop_
_atom_site_label
_atom_site_type_symbol
_atom_site_fract_x
_atom_site_fract_y
_atom_site_fract_z
O1	O	1.673293	0.072066	0.170958
O2	O	1.307816	0.072082	0.187763
O3	O	1.498957	0.072068	-0.003378
O4	O	1.482152	0.072079	0.362100
O5	O	1.488027	-0.072194	0.007507
O6	O	1.296885	-0.072180	0.198648
O7	O	1.662363	-0.072196	0.181843
Cu8	Cu	1.478626	-0.085360	0.191240
Cu9	Cu	1.491553	0.085246	0.178367
O10	O	1.471221	-0.072182	0.372985
C11	C	1.255553	-0.000047	0.191972
C12	C	1.116110	-0.000041	0.188279
N13	N	1.469543	-0.205355	0.200293
C14	C	1.036625	-0.000040	0.300821
C15	C	0.905603	-0.000055	0.297345
C16	C	0.933565	-0.000069	0.068777
C17	C	1.064584	-0.000060	0.072254
C18	C	1.550775	-0.250755	0.119120
C19	C	1.543918	-0.341562	0.125978
C20	C	1.455833	-0.386968	0.214016
C21	C	1.374593	-0.341562	0.295193
C22	C	1.381445	-0.250756	0.288328
C23	C	1.426257	-0.658547	0.243615
C24	C	1.419413	-0.749359	0.250477
C25	C	1.588738	-0.749354	0.081260
C26	C	1.595587	-0.658546	0.074407
C27	C	1.514342	-0.613148	0.155579
N28	N	1.448825	-0.479788	0.221031
N29	N	1.521345	-0.520330	0.148557
C30	C	1.714626	-0.000065	0.177635
C31	C	1.854069	-0.000065	0.181327
C32	C	1.492258	-0.000062	-0.044733
C33	C	1.488566	-0.000061	-0.184177
N34	N	1.500645	0.205241	0.169304
C35	C	1.601107	-0.000065	-0.263662
C36	C	1.597632	-0.000055	-0.394684
C37	C	1.369063	-0.000038	-0.366722
C38	C	1.372541	-0.000043	-0.235703
C39	C	1.477921	-0.000050	0.414340
C40	C	1.481613	-0.000046	0.553783
H41	H	0.840890	-0.000056	0.388988
H42	H	1.280891	-0.000037	-0.170983
N43	N	0.877999	-0.000076	-0.056365
H44	H	0.902872	-0.053555	-0.101684
H45	H	0.782950	-0.000045	-0.041399
N46	N	1.150326	-0.000071	-0.049135
H47	H	1.097806	-0.000080	-0.123164
H48	H	1.209341	0.053409	-0.056711
H49	H	1.610063	-0.378526	0.059880
N50	N	1.645789	-0.201784	0.024171
H51	H	1.696206	-0.244328	-0.026212
H52	H	1.600073	-0.164120	-0.034648
H53	H	1.360106	-0.621591	0.309711
H54	H	1.695583	-0.000078	-0.221714
H55	H	1.667312	-0.621579	0.002720
H56	H	1.654882	-0.786325	0.015172
N57	N	1.279577	-0.390530	0.390142
H58	H	1.287562	-0.454945	0.382177
H59	H	1.296050	-0.374645	0.478174
H60	H	1.689274	-0.000057	-0.459396
H61	H	1.274599	-0.000026	-0.408691
H62	H	1.347681	-0.786325	0.322174
N63	N	1.293824	-0.201784	0.375871
H64	H	1.236983	-0.244326	0.432686
H65	H	1.345222	-0.164093	0.428994
H66	H	1.078572	-0.000031	0.395296
