data_functionalizedCrystal
_audit_creation_method	'MofGen! by Chris Wilmer'
_symmetry_space_group_name_H-M	'P1'
_symmetry_Int_Tables_number	1
_symmetry_cell_setting	triclinic
loop_
_symmetry_equiv_pos_as_xyz
  x,y,z
_cell_length_a	16.625548
_cell_length_b	16.120531
_cell_length_c	16.120256
_cell_angle_alpha	95.612324
_cell_angle_beta	87.121741
_cell_angle_gamma	87.066624
loop_
_atom_site_label
_atom_site_type_symbol
_atom_site_fract_x
_atom_site_fract_y
_atom_site_fract_z
Zn1	Zn	1.191118	0.356739	0.489435
Zn2	Zn	1.524451	0.690072	0.822768
Zn3	Zn	1.857784	1.023406	1.156102
Zn4	Zn	1.191002	0.489424	0.356737
Zn5	Zn	1.524335	0.822758	0.690070
Zn6	Zn	1.857668	1.156091	1.023403
Zn7	Zn	1.063483	0.349673	0.349681
Zn8	Zn	1.396816	0.683007	0.683014
Zn9	Zn	1.730149	1.016340	1.016347
Zn10	Zn	1.049030	0.496472	0.496460
Zn11	Zn	1.382363	0.829806	0.829793
Zn12	Zn	1.715696	1.163139	1.163126
O13	O	1.123658	0.423077	0.423078
O14	O	1.456991	0.756411	0.756411
O15	O	1.790325	1.089744	1.089745
O16	O	1.303934	0.374347	0.471846
O17	O	1.637267	0.707681	0.805179
O18	O	1.970600	1.041014	1.138512
O19	O	1.180086	0.464979	0.238839
O20	O	1.513419	0.798313	0.572172
O21	O	1.846753	1.131646	0.905505
O22	O	1.086511	0.233645	0.362327
O23	O	1.419844	0.566979	0.695660
O24	O	1.753178	0.900312	1.028993
O25	O	1.303848	0.471831	0.374353
O26	O	1.637182	0.805164	0.707686
O27	O	1.970515	1.138497	1.041019
O28	O	1.180284	0.238837	0.465004
O29	O	1.513617	0.572170	0.798337
O30	O	1.846951	0.905503	1.131670
O31	O	1.086399	0.362305	0.233655
O32	O	1.419732	0.695638	0.566988
O33	O	1.753065	1.028971	0.900321
O34	O	0.948734	0.369139	0.369138
O35	O	1.282068	0.702472	0.702471
O36	O	1.615401	1.035806	1.035805
O37	O	1.061878	0.483843	0.612490
O38	O	1.395211	0.817177	0.945823
O39	O	1.728544	1.150510	1.279157
O40	O	0.938116	0.476992	0.476976
O41	O	1.271449	0.810325	0.810309
O42	O	1.604782	1.143658	1.143643
O43	O	1.166269	0.381182	0.607329
O44	O	1.499603	0.714515	0.940662
O45	O	1.832936	1.047848	1.273996
O46	O	1.166071	0.607324	0.381164
O47	O	1.499405	0.940658	0.714497
O48	O	1.832738	1.273991	1.047831
O49	O	1.061765	0.612503	0.483818
O50	O	1.395099	0.945836	0.817151
O51	O	1.728432	1.279169	1.150484
C52	C	0.914169	0.423064	0.423054
C53	C	1.247502	0.756397	0.756387
C54	C	1.580836	1.089731	1.089721
C55	C	0.824546	0.423080	0.423065
C56	C	1.157880	0.756413	0.756398
C57	C	1.491213	1.089746	1.089731
C58	C	0.496369	0.423087	0.423101
C59	C	0.829702	0.756420	0.756434
C60	C	1.163035	1.089754	1.089767
C61	C	0.587678	0.423082	0.423088
C62	C	0.921011	0.756416	0.756421
C63	C	1.254345	1.089749	1.089755
C64	C	0.660455	0.423084	0.423082
C65	C	0.993788	0.756417	0.756415
C66	C	1.327121	1.089750	1.089749
C67	C	0.751770	0.423078	0.423071
C68	C	1.085103	0.756412	0.756404
C69	C	1.418436	1.089745	1.089737
C70	C	1.112358	0.640242	0.434037
C71	C	1.445692	0.973576	0.767370
C72	C	1.779025	1.306909	1.100704
C73	C	1.107597	0.733148	0.438753
C74	C	1.440930	1.066481	0.772087
C75	C	1.774263	1.399814	1.105420
C76	C	1.098907	0.903248	0.447381
C77	C	1.432240	1.236581	0.780714
C78	C	1.765573	1.569914	1.114048
C79	C	1.148442	0.942064	0.398728
C80	C	1.481775	1.275397	0.732061
C81	C	1.815108	1.608731	1.065395
C82	C	1.143607	1.036713	0.403528
C83	C	1.476940	1.370047	0.736862
C84	C	1.810273	1.703380	1.070195
C85	C	1.103741	0.808590	0.442582
C86	C	1.437074	1.141923	0.775915
C87	C	1.770407	1.475256	1.109248
C88	C	1.333965	0.423091	0.423103
C89	C	1.667298	0.756424	0.756436
C90	C	2.000632	1.089758	1.089769
C91	C	1.423585	0.423097	0.423113
C92	C	1.756919	0.756430	0.756446
C93	C	2.090252	1.089764	1.089780
C94	C	1.112474	0.434087	0.641084
C95	C	1.445808	0.767420	0.974418
C96	C	1.779141	1.100754	1.307751
C97	C	1.107708	0.438778	0.733986
C98	C	1.441042	0.772112	1.067319
C99	C	1.774375	1.105445	1.400652
C100	C	1.134995	1.205064	0.412079
C101	C	1.468328	1.538398	0.745413
C102	C	1.801661	1.871731	1.078746
C103	C	1.139755	1.112158	0.407353
C104	C	1.473088	1.445492	0.740686
C105	C	1.806421	1.778825	1.074020
C106	C	1.134848	0.412050	0.205917
C107	C	1.468181	0.745383	0.539250
C108	C	1.801514	1.078717	0.872583
C109	C	1.139782	0.407123	0.113004
C110	C	1.473115	0.740456	0.446337
C111	C	1.806448	1.073790	0.779671
C112	C	1.148511	0.398589	0.942914
C113	C	1.481844	0.731923	1.276247
C114	C	1.815177	1.065256	1.609581
C115	C	1.098982	0.447310	0.904070
C116	C	1.432315	0.780643	1.237404
C117	C	1.765649	1.113976	1.570737
C118	C	1.103839	0.442561	0.809426
C119	C	1.437172	0.775895	1.142760
C120	C	1.770506	1.109228	1.476093
C121	C	1.143655	0.403336	1.037566
C122	C	1.476988	0.736670	1.370900
C123	C	1.810322	1.070003	1.704233
H124	H	1.052870	0.941098	0.492635
H125	H	1.386204	1.274431	0.825969
H126	H	1.719537	1.607764	1.159302
F127	F	1.208617	0.892591	0.339569
F128	F	1.541951	1.225924	0.672902
F129	F	1.875284	1.559257	1.006236
F130	F	1.038791	0.506491	0.953507
F131	F	1.372124	0.839824	1.286841
F132	F	1.705458	1.173157	1.620174
F133	F	1.208690	0.339405	0.893477
F134	F	1.542024	0.672738	1.226811
F135	F	1.875357	1.006071	1.560144
