data_functionalizedCrystal
_audit_creation_method	'MofGen! by Chris Wilmer'
_symmetry_space_group_name_H-M	'P1'
_symmetry_Int_Tables_number	1
_symmetry_cell_setting	triclinic
loop_
_symmetry_equiv_pos_as_xyz
  x,y,z
_cell_length_a	10.489741
_cell_length_b	10.489741
_cell_length_c	9.616153
_cell_angle_alpha	89.995808
_cell_angle_beta	89.998678
_cell_angle_gamma	95.460826
loop_
_atom_site_label
_atom_site_type_symbol
_atom_site_fract_x
_atom_site_fract_y
_atom_site_fract_z
O1	O	-0.179963	1.694059	-0.115548
O2	O	-0.196856	1.322863	-0.115568
O3	O	-0.002811	1.516907	-0.115561
O4	O	-0.374007	1.500014	-0.115555
O5	O	-0.002815	1.516880	0.115731
O6	O	-0.196860	1.322836	0.115723
O7	O	-0.179967	1.694032	0.115744
Zn8	Zn	-0.188414	1.508430	0.152456
Zn9	Zn	-0.188409	1.508465	-0.152280
O10	O	-0.374011	1.499988	0.115736
C11	C	-0.195582	1.275318	0.000075
C12	C	-0.191765	1.133688	0.000066
C13	C	-0.068300	1.065548	0.000078
C14	C	-0.126621	0.973435	-0.113957
C15	C	-0.126655	0.973442	0.114078
C16	C	-0.250137	1.043440	-0.114063
C17	C	-0.250153	1.043457	0.114075
C18	C	-0.308564	0.951371	0.000012
C19	C	-0.421541	1.501277	0.000091
C20	C	-0.563170	1.505094	0.000094
C21	C	-0.631310	1.628559	0.000090
C22	C	-0.723433	1.570222	0.114124
C23	C	-0.723407	1.570219	-0.113911
C24	C	-0.653428	1.446706	0.114222
C25	C	-0.653392	1.446721	-0.113915
C26	C	-0.745487	1.388294	0.000147
C27	C	0.044718	1.515618	0.000081
C28	C	0.186348	1.511801	0.000070
C29	C	-0.181241	1.741577	0.000098
C30	C	-0.185058	1.883206	0.000097
N31	N	-0.188417	1.508415	0.360431
N32	N	-0.188396	1.508490	-0.360255
C33	C	-0.291869	1.404297	0.580797
C34	C	-0.292257	1.404526	0.419629
C35	C	-0.218712	1.641783	0.418888
C36	C	-0.219444	1.641216	0.580106
C37	C	-0.054330	1.480493	0.580338
C38	C	-0.055199	1.477431	0.419111
H39	H	-0.074379	0.942432	-0.210369
C40	C	-0.445821	0.884590	-0.000071
N41	N	-0.549201	0.834285	-0.000142
C42	C	-0.765256	1.640835	-0.244154
N43	N	-0.796769	1.694032	-0.342249
H44	H	-0.147116	1.721235	0.619098
H45	H	-0.145405	1.721211	0.380539
H46	H	0.033196	1.115238	-0.000066
C47	C	-0.320643	1.085099	-0.244461
N48	N	-0.373742	1.116481	-0.342678
H49	H	-0.274026	1.305431	0.380108
H50	H	-0.581662	1.730072	0.000209
C51	C	-0.349366	1.675591	0.364346
N52	N	-0.447782	1.701045	0.323273
C53	C	-0.015410	1.351855	0.635313
N54	N	0.013891	1.254959	0.676719
C55	C	-0.812275	1.251040	0.000231
N56	N	-0.862585	1.147663	0.000303
C57	C	-0.611433	1.376230	-0.244174
N58	N	-0.579820	1.323149	-0.342297
H59	H	-0.302353	1.074492	0.210491
C60	C	-0.056055	0.931580	0.244323
N61	N	-0.002870	0.900054	0.342418
C62	C	-0.611779	1.376182	0.244616
N63	N	-0.580405	1.323071	0.342831
C64	C	-0.765321	1.640777	0.244382
N65	N	-0.796863	1.693925	0.342491
C66	C	-0.267643	1.270005	0.633252
N67	N	-0.249400	1.168854	0.672780
H68	H	-0.390770	1.422061	0.621298
H69	H	-0.391721	1.422524	0.381052
C70	C	-0.351591	1.674268	0.630893
N71	N	-0.451130	1.699153	0.669139
H72	H	-0.032236	1.379318	0.380905
H73	H	0.025501	1.548289	0.378819
H74	H	0.022686	1.556461	0.618457
