data_functionalizedCrystal
_audit_creation_method	'MofGen! by Chris Wilmer'
_symmetry_space_group_name_H-M	'P1'
_symmetry_Int_Tables_number	1
_symmetry_cell_setting	triclinic
loop_
_symmetry_equiv_pos_as_xyz
  x,y,z
_cell_length_a	13.897449
_cell_length_b	16.625545
_cell_length_c	13.897441
_cell_angle_alpha	90.031284
_cell_angle_beta	89.976606
_cell_angle_gamma	89.975137
loop_
_atom_site_label
_atom_site_type_symbol
_atom_site_fract_x
_atom_site_fract_y
_atom_site_fract_z
Zn1	Zn	1.474660	0.320958	-0.545445
Zn2	Zn	1.974660	0.820958	-0.045445
Zn3	Zn	1.474536	0.455808	-0.384145
Zn4	Zn	1.974536	0.955808	0.115855
Zn5	Zn	1.313349	0.320995	-0.384156
Zn6	Zn	1.813349	0.820995	0.115844
Zn7	Zn	1.313313	0.455754	-0.545390
Zn8	Zn	1.813313	0.955754	-0.045390
O9	O	1.393965	0.388379	-0.464784
O10	O	1.893965	0.888379	0.035216
O11	O	1.609625	0.338853	-0.524067
O12	O	2.109625	0.838853	-0.024067
O13	O	1.453118	0.437963	-0.249164
O14	O	1.953118	0.937963	0.250836
O15	O	1.334814	0.208158	-0.405579
O16	O	1.834814	0.708158	0.094421
O17	O	1.609534	0.437927	-0.405560
O18	O	2.109534	0.937927	0.094440
O19	O	1.453329	0.208131	-0.524078
O20	O	1.953329	0.708131	-0.024078
O21	O	1.334694	0.338917	-0.249173
O22	O	1.834694	0.838917	0.250827
O23	O	1.178363	0.338864	-0.405526
O24	O	1.678363	0.838864	0.094474
O25	O	1.334753	0.437835	-0.680379
O26	O	1.834753	0.937835	-0.180379
O27	O	1.178336	0.437871	-0.523983
O28	O	1.678336	0.937871	-0.023983
O29	O	1.453294	0.338801	-0.680419
O30	O	1.953294	0.838801	-0.180419
O31	O	1.453083	0.568634	-0.405506
O32	O	1.953083	1.068634	0.094494
O33	O	1.334633	0.568594	-0.523972
O34	O	1.834633	1.068594	-0.023972
C35	C	1.143350	0.388367	-0.464750
C36	C	1.643350	0.888367	0.035250
C37	C	1.036136	0.388381	-0.464759
C38	C	1.536136	0.888381	0.035241
C39	C	0.949067	0.388383	-0.464775
C40	C	1.449067	0.888383	0.035225
C41	C	0.839834	0.388389	-0.464804
C42	C	1.339834	0.888389	0.035196
C43	C	1.393867	0.597870	-0.464753
C44	C	1.893867	1.097870	0.035247
C45	C	1.393913	0.687491	-0.464772
C46	C	1.893913	1.187491	0.035228
C47	C	1.394070	1.015667	-0.464887
C48	C	1.894070	1.515667	0.035113
C49	C	1.394023	0.924358	-0.464858
C50	C	1.894023	1.424358	0.035142
C51	C	1.393991	0.851582	-0.464829
C52	C	1.893991	1.351582	0.035171
C53	C	1.393945	0.760267	-0.464801
C54	C	1.893945	1.260267	0.035199
C55	C	1.645558	0.388392	-0.464818
C56	C	2.145558	0.888392	0.035182
C57	C	1.752772	0.388398	-0.464833
C58	C	2.252772	0.888398	0.035167
C59	C	1.394033	0.388308	-0.716377
C60	C	1.894033	0.888308	-0.216377
C61	C	1.394062	0.388277	-0.823591
C62	C	1.894062	0.888277	-0.323591
C63	C	1.394081	1.178070	-0.464847
C64	C	1.894081	1.678070	0.035153
C65	C	1.394110	1.088449	-0.464903
C66	C	1.894110	1.588449	0.035097
C67	C	1.394088	0.388223	-1.019886
C68	C	1.894088	0.888223	-0.519886
C69	C	1.394071	0.388255	-0.910654
C70	C	1.894071	0.888255	-0.410654
C71	C	1.393952	0.388392	-0.214169
C72	C	1.893952	0.888392	0.285831
C73	C	1.394110	0.388195	-0.106956
C74	C	1.894110	0.888195	0.393044
