data_functionalizedCrystal
_audit_creation_method	'MofGen! by Chris Wilmer'
_symmetry_space_group_name_H-M	'P1'
_symmetry_Int_Tables_number	1
_symmetry_cell_setting	triclinic
loop_
_symmetry_equiv_pos_as_xyz
  x,y,z
_cell_length_a	15.944551
_cell_length_b	15.944551
_cell_length_c	14.421503
_cell_angle_alpha	89.996660
_cell_angle_beta	89.996859
_cell_angle_gamma	96.501262
loop_
_atom_site_label
_atom_site_type_symbol
_atom_site_fract_x
_atom_site_fract_y
_atom_site_fract_z
O1	O	1.114529	-0.108320	-0.077017
O2	O	0.869980	-0.121677	-0.077040
O3	O	0.998933	0.007276	-0.077020
O4	O	0.985576	-0.237273	-0.077038
O5	O	0.998911	0.007257	0.077204
O6	O	0.869958	-0.121696	0.077183
O7	O	1.114508	-0.108340	0.077206
Cu8	Cu	0.992231	-0.115020	0.091277
Cu9	Cu	0.992256	-0.114997	-0.091110
O10	O	0.985555	-0.237293	0.077186
C11	C	0.838675	-0.121132	0.000069
C12	C	0.745429	-0.119470	0.000060
C13	C	0.530572	-0.035565	0.000084
C14	C	0.469563	-0.074518	-0.075959
C15	C	0.574703	-0.116462	0.000071
C16	C	0.469564	-0.074556	0.076093
C17	C	0.409790	-0.113551	0.000086
C18	C	0.514922	-0.155437	-0.076035
C19	C	0.514929	-0.155464	0.076086
C20	C	0.453937	-0.194476	0.000024
C21	C	0.669705	-0.118137	0.000062
C22	C	0.314789	-0.111883	0.000089
C23	C	0.998367	0.038561	0.000092
C24	C	0.996705	0.131807	0.000093
C25	C	1.145813	-0.108885	0.000096
C26	C	1.239059	-0.110547	0.000098
C27	C	0.986120	-0.268577	0.000072
C28	C	0.987782	-0.361823	0.000066
N29	N	0.992219	-0.115035	0.219558
C30	C	0.912801	0.346663	0.000072
C31	C	0.951753	0.407671	0.076117
C32	C	0.993698	0.302533	0.000085
C33	C	0.951793	0.407674	-0.075935
C34	C	0.990787	0.467445	0.000074
C35	C	1.032672	0.362312	0.076193
C36	C	1.032701	0.362308	-0.075927
C37	C	1.071711	0.423298	0.000136
C38	C	0.995372	0.207530	0.000092
C39	C	0.989119	0.562446	0.000073
N40	N	0.992275	-0.114975	-0.219392
C41	C	0.932581	-0.174636	0.469202
C42	C	1.008481	-0.190943	0.531011
C43	C	0.992240	-0.115015	0.408719
C44	C	0.916359	-0.098727	0.531005
C45	C	0.992253	-0.114997	0.591441
C46	C	1.068178	-0.131360	0.469167
C47	C	0.976007	-0.039111	0.469156
C48	C	1.051961	-0.055386	0.530936
C49	C	0.992231	-0.115027	0.303458
C50	C	0.992270	-0.114985	0.696700
H51	H	0.449461	-0.040294	-0.140243
C52	C	0.598838	-0.146873	0.214711
C53	C	0.542109	-0.201626	0.162866
H54	H	0.615623	-0.175370	0.268288
H55	H	0.572297	-0.099079	0.232968
H56	H	0.647073	-0.129048	0.178041
H57	H	0.493871	-0.219447	0.199535
H58	H	0.568649	-0.249436	0.144611
C59	C	0.779396	0.325565	-0.078666
C60	C	0.822154	0.301699	0.000160
H61	H	0.723435	0.297810	-0.078603
H62	H	0.808013	0.310143	-0.132739
H63	H	0.777733	0.384930	-0.078104
H64	H	0.823823	0.242335	-0.000405
H65	H	0.793530	0.317116	0.054248
C66	C	0.902588	-0.300331	0.377835
C67	C	0.864546	-0.242749	0.432594
H68	H	0.860587	-0.342377	0.355229
H69	H	0.942252	-0.326180	0.414085
H70	H	0.930715	-0.271486	0.327043
H71	H	0.836424	-0.271593	0.483389
H72	H	0.824867	-0.216898	0.396342
H73	H	1.066897	0.342186	-0.140214
H74	H	1.102474	-0.004956	0.557872
C75	C	0.776031	-0.069415	0.492817
C76	C	0.829727	-0.080126	0.567670
H77	H	0.722549	-0.057930	0.515452
H78	H	0.769367	-0.119480	0.456601
H79	H	0.799757	-0.023559	0.455643
H80	H	0.806005	-0.125986	0.604840
H81	H	0.836389	-0.030055	0.603902
C82	C	0.822355	0.395747	0.162752
C83	C	0.905554	0.434814	0.162896
H84	H	0.793831	0.412507	0.216321
H85	H	0.822631	0.336210	0.163093
H86	H	0.794176	0.412043	0.108748
H87	H	0.933735	0.418513	0.216896
H88	H	0.905282	0.494365	0.162563
C89	C	0.581709	-0.271645	-0.136129
C90	C	0.541910	-0.201577	-0.162923
H91	H	0.598375	-0.300122	-0.189771
H92	H	0.543668	-0.308928	-0.100596
H93	H	0.630084	-0.253399	-0.099860
H94	H	0.493531	-0.219823	-0.199187
H95	H	0.579953	-0.164286	-0.198471
C96	C	0.958387	0.046777	0.335353
C97	C	0.957426	0.047504	0.432437
H98	H	0.946913	0.100251	0.312685
H99	H	0.916556	0.004314	0.313305
H100	H	1.012351	0.035286	0.314230
H101	H	0.903459	0.058988	0.453560
H102	H	0.999259	0.089980	0.454493
H103	H	1.022224	-0.255126	0.558180
H104	H	0.563905	0.031573	-0.000005
H105	H	1.132368	-0.145205	0.442119
C106	C	1.160178	0.555589	-0.000606
C107	C	1.162440	0.468057	0.000166
H108	H	1.216191	0.583216	-0.000599
H109	H	1.131254	0.571818	0.052904
H110	H	1.131566	0.571095	-0.054655
H111	H	1.191047	0.452550	0.054219
H112	H	1.191376	0.451821	-0.053349
H113	H	0.420779	-0.261683	-0.000023
H114	H	1.066850	0.342314	0.140554
C115	C	0.481514	0.054832	0.162728
C116	C	0.442436	-0.028363	0.162881
H117	H	0.464770	0.083351	0.216306
H118	H	0.465217	0.083018	0.108738
H119	H	0.541058	0.054546	0.163051
H120	H	0.382891	-0.028076	0.162551
H121	H	0.458727	-0.056556	0.216885
C122	C	0.947180	0.410784	-0.242304
C123	C	0.905604	0.434804	-0.162726
H124	H	0.918663	0.427536	-0.295880
H125	H	0.947449	0.351246	-0.242623
H126	H	1.003621	0.437293	-0.242384
H127	H	0.849165	0.408290	-0.162642
H128	H	0.905326	0.494354	-0.162407
