data_functionalizedCrystal
_audit_creation_method	'MofGen! by Chris Wilmer'
_symmetry_space_group_name_H-M	'P1'
_symmetry_Int_Tables_number	1
_symmetry_cell_setting	triclinic
loop_
_symmetry_equiv_pos_as_xyz
  x,y,z
_cell_length_a	19.805407
_cell_length_b	14.908178
_cell_length_c	19.805399
_cell_angle_alpha	86.675724
_cell_angle_beta	89.982197
_cell_angle_gamma	93.311253
loop_
_atom_site_label
_atom_site_type_symbol
_atom_site_fract_x
_atom_site_fract_y
_atom_site_fract_z
Zn1	Zn	1.019222	-0.359271	-0.367131
Zn2	Zn	1.519222	0.140729	0.132869
Zn3	Zn	1.012622	-0.510147	-0.247410
Zn4	Zn	1.512622	-0.010147	0.252590
Zn5	Zn	0.906036	-0.359289	-0.253958
Zn6	Zn	1.406036	0.140711	0.246042
Zn7	Zn	0.899488	-0.510092	-0.360562
Zn8	Zn	1.399488	-0.010092	0.139438
O9	O	0.959342	-0.434700	-0.307265
O10	O	1.459342	0.065300	0.192735
O11	O	1.113062	-0.379300	-0.351258
O12	O	1.613062	0.120700	0.148742
O13	O	0.998461	-0.490166	-0.153560
O14	O	1.498461	0.009834	0.346440
O15	O	0.926553	-0.233032	-0.274460
O16	O	1.426553	0.266968	0.225540
O17	O	1.108213	-0.490148	-0.263299
O18	O	1.608213	0.009852	0.236701
O19	O	1.009710	-0.233019	-0.357608
O20	O	1.509710	0.266981	0.142392
O21	O	0.920153	-0.379331	-0.158372
O22	O	1.420153	0.120669	0.341628
O23	O	0.810451	-0.379277	-0.268091
O24	O	1.310451	0.120723	0.231909
O25	O	0.915392	-0.490055	-0.456151
O26	O	1.415392	0.009945	0.043849
O27	O	0.805640	-0.490072	-0.346413
O28	O	1.305640	0.009928	0.153587
O29	O	1.003361	-0.379247	-0.460977
O30	O	1.503361	0.120753	0.039023
O31	O	0.992112	-0.636394	-0.256930
O32	O	1.492112	-0.136394	0.243070
O33	O	0.908993	-0.636353	-0.340063
O34	O	1.408993	-0.136353	0.159937
C35	C	0.783487	-0.434671	-0.307250
C36	C	1.283487	0.065329	0.192750
C37	C	0.708255	-0.434681	-0.307259
C38	C	1.208255	0.065319	0.192741
C39	C	0.675432	-0.377064	-0.353120
C40	C	1.175432	0.122936	0.146880
C41	C	0.604743	-0.377069	-0.353123
C42	C	1.104743	0.122931	0.146877
C43	C	0.566879	-0.434696	-0.307266
C44	C	1.066879	0.065304	0.192734
C45	C	0.599706	-0.492315	-0.261400
C46	C	1.099706	0.007685	0.238600
C47	C	0.670394	-0.492305	-0.261395
C48	C	1.170394	0.007695	0.238605
C49	C	0.314631	-0.492355	-0.261419
C50	C	0.814631	0.007645	0.238581
C51	C	0.243939	-0.492363	-0.261429
C52	C	0.743939	0.007637	0.238571
C53	C	0.248980	-0.377120	-0.353147
C54	C	0.748980	0.122880	0.146853
C55	C	0.319668	-0.377110	-0.353142
C56	C	0.819668	0.122890	0.146858
C57	C	0.352490	-0.434725	-0.307273
C58	C	0.852490	0.065275	0.192727
C59	C	0.429139	-0.434718	-0.307270
C60	C	0.929139	0.065282	0.192730
C61	C	0.490231	-0.434708	-0.307272
C62	C	0.990231	0.065292	0.192728
C63	C	0.949144	-0.669110	-0.297088
C64	C	1.449144	-0.169110	0.202912
C65	C	0.944843	-0.769391	-0.292756
C66	C	1.444843	-0.269391	0.207244
C67	C	1.023287	-0.957668	-0.371291
C68	C	1.523287	-0.457668	0.128709
C69	C	1.019248	-1.051891	-0.367224
C70	C	1.519248	-0.551891	0.132776
C71	C	0.932724	-1.052064	-0.280558
C72	C	1.432724	-0.552064	0.219442
C73	C	0.936762	-0.957840	-0.284625
C74	C	1.436762	-0.457840	0.215375
C75	C	0.982046	-0.910645	-0.329993
C76	C	1.482046	-0.410645	0.170007
C77	C	0.986088	-0.816420	-0.334056
C78	C	1.486088	-0.316420	0.165944
C79	C	0.899560	-0.816594	-0.247394
C80	C	1.399560	-0.316594	0.252606
C81	C	0.895522	-0.910818	-0.243326
C82	C	1.395522	-0.410818	0.256674
C83	C	1.135883	-0.434729	-0.307281
C84	C	1.635883	0.065271	0.192719
C85	C	1.211115	-0.434741	-0.307287
C86	C	1.711115	0.065259	0.192713
C87	C	0.959382	-0.434643	-0.483810
C88	C	1.459382	0.065357	0.016190
C89	C	0.959400	-0.434619	-0.559044
C90	C	1.459400	0.065381	-0.059044
C91	C	0.969598	-0.199374	-0.317497
C92	C	1.469598	0.300626	0.182503
C93	C	0.973969	-0.099092	-0.321858
C94	C	1.473969	0.400908	0.178142
C95	C	1.005206	-0.376918	-0.596902
C96	C	1.505206	0.123082	-0.096902
C97	C	1.005214	-0.376892	-0.667591
C98	C	1.505214	0.123108	-0.167591
C99	C	0.959418	-0.434571	-0.700421
C100	C	1.459418	0.065429	-0.200421
C101	C	0.913607	-0.492274	-0.662558
C102	C	1.413607	0.007726	-0.162558
C103	C	0.913597	-0.492295	-0.591870
C104	C	1.413597	0.007705	-0.091870
C105	C	0.913649	-0.492190	-0.947635
C106	C	1.413649	0.007810	-0.447635
C107	C	0.913665	-0.492167	-1.018328
C108	C	1.413665	0.007833	-0.518328
C109	C	1.005266	-0.376787	-1.023357
C110	C	1.505266	0.123213	-0.523357
C111	C	1.005256	-0.376808	-0.952668
C112	C	1.505256	0.123192	-0.452668
C113	C	0.959443	-0.434507	-0.914811
C114	C	1.459443	0.065493	-0.414811
C115	C	0.959433	-0.434533	-0.838162
C116	C	1.459433	0.065467	-0.338162
C117	C	0.959430	-0.434550	-0.777069
C118	C	1.459430	0.065450	-0.277069
C119	C	0.959343	-0.434691	-0.131410
C120	C	1.459343	0.065309	0.368590
C121	C	0.959468	-0.434461	-0.056188
C122	C	1.459468	0.065539	0.443812
H123	H	0.697117	-0.539221	-0.224049
H124	H	1.197117	-0.039221	0.275951
H125	H	0.876318	-0.539235	-0.689294
H126	H	1.376318	-0.039235	-0.189294
O127	O	0.346616	-0.548245	-0.216896
O128	O	0.846616	-0.048245	0.283104
C129	C	0.417126	-0.535902	-0.226731
C130	C	0.917126	-0.035902	0.273269
H131	H	0.429815	-0.466310	-0.251998
H132	H	0.929815	0.033690	0.248002
H133	H	0.434873	-0.589474	-0.260385
H134	H	0.934873	-0.089474	0.239615
C135	C	0.437449	-0.629531	-0.126844
C136	C	0.937449	-0.129531	0.373156
C137	C	0.453034	-0.544054	-0.157874
C138	C	0.953034	-0.044054	0.342126
H139	H	0.459600	-0.634564	-0.084371
H140	H	0.959600	-0.134564	0.415629
H141	H	0.389945	-0.637851	-0.120220
H142	H	0.889945	-0.137851	0.379780
H143	H	0.452238	-0.674166	-0.154896
H144	H	0.952238	-0.174166	0.345104
H145	H	0.438237	-0.499423	-0.129826
H146	H	0.938237	0.000577	0.370174
H147	H	0.500536	-0.535728	-0.164492
H148	H	1.000536	-0.035728	0.335508
O149	O	0.851479	-0.956527	-0.199242
O150	O	1.351479	-0.456527	0.300758
C151	C	0.815959	-0.894815	-0.163649
C152	C	1.315959	-0.394815	0.336351
H153	H	0.816476	-0.827627	-0.194270
H154	H	1.316476	-0.327627	0.305730
H155	H	0.841211	-0.884814	-0.112701
H156	H	1.341211	-0.384814	0.387299
C157	C	0.741712	-1.014197	-0.114620
C158	C	1.241712	-0.514197	0.385380
C159	C	0.742343	-0.931678	-0.152231
C160	C	1.242343	-0.431678	0.347769
H161	H	0.696304	-1.036937	-0.107574
H162	H	1.196304	-0.536937	0.392426
H163	H	0.765644	-1.055775	-0.138597
H164	H	1.265644	-0.555775	0.361403
H165	H	0.762759	-1.005852	-0.072167
H166	H	1.262759	-0.505852	0.427833
H167	H	0.721304	-0.940027	-0.194686
H168	H	1.221304	-0.440027	0.305314
H169	H	0.718406	-0.890103	-0.128260
H170	H	1.218406	-0.390103	0.371740
O171	O	0.356550	-0.321216	-0.397661
O172	O	0.856550	0.178784	0.102339
C173	C	0.425980	-0.333547	-0.387810
C174	C	0.925980	0.166453	0.112190
H175	H	0.432603	-0.403135	-0.362536
H176	H	0.932603	0.096865	0.137464
H177	H	0.448351	-0.279967	-0.354155
H178	H	0.948351	0.220033	0.145845
C179	C	0.454519	-0.239923	-0.487696
C180	C	0.954519	0.260077	0.012304
C181	C	0.462654	-0.325395	-0.456659
C182	C	0.962654	0.174605	0.043341
H183	H	0.477143	-0.234891	-0.530165
H184	H	0.977143	0.265109	-0.030165
H185	H	0.407743	-0.231613	-0.494332
H186	H	0.907743	0.268387	0.005668
H187	H	0.473161	-0.195283	-0.459643
H188	H	0.973161	0.304717	0.040357
H189	H	0.444005	-0.370033	-0.484708
H190	H	0.944005	0.129967	0.015292
H191	H	0.509428	-0.333713	-0.450030
H192	H	1.009428	0.166287	0.049970
H193	H	0.222249	-0.330203	-0.390493
H194	H	0.722249	0.169797	0.109507
H195	H	0.876355	-0.539186	-0.916820
H196	H	1.376355	-0.039186	-0.416820
O197	O	0.207259	-0.548369	-0.216813
O198	O	0.707259	-0.048369	0.283187
C199	C	0.251385	-0.599235	-0.176337
C200	C	0.751385	-0.099235	0.323663
H201	H	0.303378	-0.562271	-0.175637
H202	H	0.803378	-0.062271	0.324363
H203	H	0.255936	-0.667803	-0.198056
H204	H	0.755936	-0.167803	0.301944
C205	C	0.159345	-0.657506	-0.104588
C206	C	0.659345	-0.157506	0.395412
C207	C	0.223202	-0.612103	-0.103724
C208	C	0.723202	-0.112103	0.396276
H209	H	0.141960	-0.665448	-0.059797
H210	H	0.641960	-0.165448	0.440203
H211	H	0.129616	-0.623240	-0.131858
H212	H	0.629616	-0.123240	0.368142
H213	H	0.163147	-0.714641	-0.122690
H214	H	0.663147	-0.214641	0.377310
H215	H	0.219399	-0.554965	-0.085630
H216	H	0.719399	-0.054965	0.414370
H217	H	0.252930	-0.646360	-0.076448
H218	H	0.752930	-0.146360	0.423552
H219	H	1.042568	-0.329802	-1.054189
H220	H	1.542568	0.170198	-0.554189
O221	O	1.067199	-0.911855	-0.415452
O222	O	1.567199	-0.411855	0.084548
C223	C	1.051391	-0.934853	-0.481905
C224	C	1.551391	-0.434853	0.018095
H225	H	0.996205	-0.960818	-0.484151
H226	H	1.496205	-0.460818	0.015849
H227	H	1.085329	-0.989485	-0.497274
H228	H	1.585329	-0.489485	0.002726
C229	C	1.130603	-0.819209	-0.527939
C230	C	1.630603	-0.319209	-0.027939
C231	C	1.062822	-0.851093	-0.530699
C232	C	1.562822	-0.351093	-0.030699
H233	H	1.137657	-0.767545	-0.558039
H234	H	1.637657	-0.267545	-0.058039
H235	H	1.141256	-0.803717	-0.483169
H236	H	1.641256	-0.303717	0.016831
H237	H	1.158878	-0.864744	-0.540746
H238	H	1.658878	-0.364744	-0.040746
H239	H	1.034549	-0.805563	-0.517885
H240	H	1.534549	-0.305563	-0.017885
H241	H	1.052165	-0.866576	-0.575469
H242	H	1.552165	-0.366576	-0.075469
H243	H	1.052828	-1.090173	-0.400857
H244	H	1.552828	-0.590173	0.099143
H245	H	0.876290	-0.539272	-0.561047
H246	H	1.376290	-0.039272	-0.061047
H247	H	0.876370	-0.539138	-1.045056
H248	H	1.376370	-0.039138	-0.545056
H249	H	0.706256	-0.330141	-0.390464
H250	H	1.206256	0.169859	0.109536
H251	H	0.578022	-0.330154	-0.390469
H252	H	1.078022	0.169846	0.109531
H253	H	0.865981	-0.778298	-0.213764
H254	H	1.365981	-0.278298	0.286236
O255	O	1.029998	-0.770612	-0.378222
O256	O	1.529998	-0.270612	0.121778
C257	C	1.014180	-0.793612	-0.444671
C258	C	1.514180	-0.293612	0.055329
H259	H	0.958993	-0.819572	-0.446910
H260	H	1.458993	-0.319572	0.053090
H261	H	1.048114	-0.848248	-0.460043
H262	H	1.548114	-0.348248	0.039957
C263	C	1.093393	-0.677978	-0.490718
C264	C	1.593393	-0.177978	0.009282
C265	C	1.025609	-0.709856	-0.493469
C266	C	1.525609	-0.209856	0.006531
H267	H	1.100446	-0.626315	-0.520821
H268	H	1.600446	-0.126315	-0.020821
H269	H	1.104052	-0.662484	-0.445950
H270	H	1.604052	-0.162484	0.054050
H271	H	1.121663	-0.723516	-0.503527
H272	H	1.621663	-0.223516	-0.003527
H273	H	0.997341	-0.664322	-0.480653
H274	H	1.497341	-0.164322	0.019347
H275	H	1.014946	-0.725340	-0.538237
H276	H	1.514946	-0.225340	-0.038237
O277	O	0.888703	-1.098020	-0.236581
O278	O	1.388703	-0.598020	0.263419
C279	C	0.842616	-1.152519	-0.272726
C280	C	1.342616	-0.652519	0.227274
H281	H	0.865850	-1.166550	-0.323440
H282	H	1.365850	-0.666550	0.176560
H283	H	0.794003	-1.116260	-0.281672
H284	H	1.294003	-0.616260	0.218328
C285	C	0.798018	-1.224844	-0.169328
C286	C	1.298018	-0.724844	0.330672
C287	C	0.826557	-1.242083	-0.231614
C288	C	1.326557	-0.742083	0.268386
H289	H	0.788109	-1.280090	-0.143968
H290	H	1.288109	-0.780090	0.356032
H291	H	0.829065	-1.188125	-0.144976
H292	H	1.329065	-0.688125	0.355024
H293	H	0.757510	-1.194626	-0.176793
H294	H	1.257510	-0.694626	0.323207
H295	H	0.867068	-1.272290	-0.224149
H296	H	1.367068	-0.772290	0.275851
H297	H	0.795515	-1.278810	-0.255964
H298	H	1.295515	-0.778810	0.244036
H299	H	0.568872	-0.539231	-0.224059
H300	H	1.068872	-0.039231	0.275941
O301	O	1.049718	-0.320802	-0.565122
O302	O	1.549718	0.179198	-0.065122
C303	C	1.090159	-0.269884	-0.613698
C304	C	1.590159	0.230116	-0.113698
H305	H	1.062579	-0.266743	-0.664218
H306	H	1.562579	0.233257	-0.164218
H307	H	1.140126	-0.302929	-0.619788
H308	H	1.640126	0.197071	-0.119788
C309	C	1.137970	-0.177729	-0.528241
C310	C	1.637970	0.322271	-0.028241
C311	C	1.104092	-0.173864	-0.590289
C312	C	1.604092	0.326136	-0.090289
H313	H	1.146568	-0.118500	-0.513800
H314	H	1.646568	0.381500	-0.013800
H315	H	1.110726	-0.212035	-0.495513
H316	H	1.610726	0.287965	0.004487
H317	H	1.179605	-0.205270	-0.533324
H318	H	1.679605	0.294730	-0.033324
H319	H	1.062455	-0.146334	-0.585203
H320	H	1.562455	0.353666	-0.085203
H321	H	1.131330	-0.139551	-0.623015
H322	H	1.631330	0.360449	-0.123015
O323	O	1.049616	-0.320738	-0.704396
O324	O	1.549616	0.179262	-0.204396
C325	C	1.013624	-0.262455	-0.747818
C326	C	1.513624	0.237545	-0.247818
H327	H	0.960554	-0.256891	-0.726748
H328	H	1.460554	0.243109	-0.226748
H329	H	1.010089	-0.290320	-0.800182
H330	H	1.510089	0.209680	-0.300182
C331	C	1.115955	-0.175497	-0.778851
C332	C	1.615955	0.324503	-0.278851
C333	C	1.050775	-0.168658	-0.752970
C334	C	1.550775	0.331342	-0.252970
H335	H	1.138872	-0.117640	-0.782033
H336	H	1.638872	0.382360	-0.282033
H337	H	1.140204	-0.214765	-0.749600
H338	H	1.640204	0.285235	-0.249600
H339	H	1.112999	-0.198722	-0.822486
H340	H	1.612999	0.301278	-0.322486
H341	H	1.053732	-0.145445	-0.709334
H342	H	1.553732	0.354555	-0.209334
H343	H	1.026527	-0.129384	-0.782215
H344	H	1.526527	0.370616	-0.282215
H345	H	1.042549	-0.329842	-0.925942
H346	H	1.542549	0.170158	-0.425942
