data_functionalizedCrystal
_audit_creation_method	'MofGen! by Chris Wilmer'
_symmetry_space_group_name_H-M	'P1'
_symmetry_Int_Tables_number	1
_symmetry_cell_setting	triclinic
loop_
_symmetry_equiv_pos_as_xyz
  x,y,z
_cell_length_a	10.540539
_cell_length_b	14.421503
_cell_length_c	10.540539
_cell_angle_alpha	89.993528
_cell_angle_beta	84.525492
_cell_angle_gamma	90.005653
loop_
_atom_site_label
_atom_site_type_symbol
_atom_site_fract_x
_atom_site_fract_y
_atom_site_fract_z
O1	O	1.685895	0.077063	0.178883
O2	O	1.316482	0.077074	0.195739
O3	O	1.509616	0.077067	0.002604
O4	O	1.492760	0.077070	0.372017
O5	O	1.509584	-0.077156	0.002633
O6	O	1.316450	-0.077149	0.195768
O7	O	1.685863	-0.077160	0.178912
Cu8	Cu	1.501153	-0.091237	0.187342
Cu9	Cu	1.501191	0.091151	0.187308
O10	O	1.492728	-0.077153	0.372046
C11	C	1.269163	-0.000036	0.194489
C12	C	1.128215	-0.000032	0.190707
N13	N	1.501136	-0.219518	0.187365
C14	C	0.944788	-0.000393	0.045790
C15	C	1.091406	-0.000036	0.049624
C16	C	1.066560	0.088034	0.258586
C17	C	0.920016	0.088099	0.253771
C18	C	0.919491	-0.087282	0.256674
C19	C	1.066473	-0.088437	0.257974
C20	C	1.411814	-0.469168	0.276630
C21	C	1.526746	-0.530974	0.302309
C22	C	1.501167	-0.408679	0.187335
C23	C	1.386265	-0.530967	0.161686
C24	C	1.501186	-0.591401	0.187309
C25	C	1.616157	-0.469124	0.213072
C26	C	1.475599	-0.469112	0.072399
C27	C	1.590614	-0.530890	0.098030
C28	C	1.501154	-0.303418	0.187354
C29	C	1.501212	-0.696660	0.187290
C30	C	1.733182	-0.000048	0.180161
C31	C	1.874130	-0.000046	0.183943
C32	C	1.508336	-0.000043	-0.044684
C33	C	1.504554	-0.000038	-0.185632
N34	N	1.501219	0.219432	0.187275
C35	C	1.359637	0.000313	-0.369059
C36	C	1.363471	-0.000034	-0.222441
C37	C	1.572432	-0.088109	-0.247274
C38	C	1.567617	-0.088183	-0.393818
C39	C	1.570522	0.087198	-0.394369
C40	C	1.571822	0.088362	-0.247387
C41	C	1.494008	-0.000041	0.419335
C42	C	1.497790	-0.000040	0.560283
H43	H	1.134007	-0.063166	-0.003787
N44	N	1.264353	-0.565051	0.134503
N45	N	1.167103	-0.545277	0.206699
H46	H	1.080999	-0.569348	0.187513
N47	N	1.119966	0.170268	0.199411
N48	N	1.083170	0.248156	0.239844
H49	H	1.120884	0.306233	0.198046
H50	H	1.676039	-0.091386	-0.224919
N51	N	0.879889	-0.171018	0.199407
N52	N	0.817744	-0.167416	0.104282
H53	H	0.789772	-0.226550	0.063825
H54	H	1.522157	0.153515	-0.206541
N55	N	0.860225	-0.088047	0.384501
N56	N	0.790913	-0.154615	0.422886
H57	H	0.749049	-0.155151	0.513159
N58	N	1.317123	-0.435178	0.371444
N59	N	1.323305	-0.455034	0.486127
H60	H	1.256434	-0.431030	0.553092
N61	N	1.117776	-0.170181	0.195749
N62	N	1.080858	-0.248371	0.234905
H63	H	1.117081	-0.306103	0.190945
N64	N	1.513240	-0.170319	-0.193813
N65	N	1.421080	-0.164275	-0.110334
H66	H	1.379268	-0.222334	-0.072578
H67	H	1.310060	0.063099	-0.179849
N68	N	1.094625	0.092167	0.388552
N69	N	1.154138	0.159943	0.427087
H70	H	1.173962	0.162862	0.518875
H71	H	1.548390	-0.558147	0.399498
H72	H	1.303919	0.063470	-0.397671
H73	H	0.914594	0.062412	-0.009722
N74	N	1.096871	-0.095100	0.387009
N75	N	1.164831	-0.034528	0.431697
H76	H	1.186300	-0.039228	0.522833
N77	N	1.738093	-0.435183	0.240408
N78	N	1.757750	-0.349821	0.244872
H79	H	1.843865	-0.325847	0.264180
N80	N	1.143801	0.079289	-0.017892
N81	N	1.128685	0.089592	-0.133233
H82	H	1.165687	0.145619	-0.180919
H83	H	1.666267	-0.557820	0.022501
N84	N	1.289998	-0.078470	-0.406948
N85	N	1.341673	-0.134876	-0.485763
H86	H	1.292494	-0.190518	-0.512526
N87	N	1.448395	-0.435005	-0.049486
N88	N	1.345022	-0.454783	-0.091992
H89	H	1.325796	-0.430695	-0.178075
H90	H	0.872048	0.092097	0.355235
N91	N	1.504631	-0.170751	-0.429208
N92	N	1.489685	-0.185732	-0.543632
H93	H	1.445196	-0.244046	-0.568623
N94	N	1.295964	-0.079365	-0.170052
N95	N	1.245878	-0.134652	-0.241791
H96	H	1.198200	-0.190684	-0.204794
H97	H	1.674684	0.093677	-0.223167
H98	H	0.891819	0.153928	0.203578
H99	H	1.669081	-0.092181	-0.441786
H100	H	0.916189	-0.063550	-0.009934
H101	H	1.524875	0.153950	-0.425934
N102	N	1.698363	0.087920	-0.453601
N103	N	1.735893	0.024534	-0.528903
H104	H	1.826179	0.025033	-0.570736
