data_functionalizedCrystal
_audit_creation_method	'MofGen! by Chris Wilmer'
_symmetry_space_group_name_H-M	'P1'
_symmetry_Int_Tables_number	1
_symmetry_cell_setting	triclinic
loop_
_symmetry_equiv_pos_as_xyz
  x,y,z
_cell_length_a	18.101398
_cell_length_b	29.839131
_cell_length_c	18.101390
_cell_angle_alpha	89.956564
_cell_angle_beta	89.974845
_cell_angle_gamma	90.032958
loop_
_atom_site_label
_atom_site_type_symbol
_atom_site_fract_x
_atom_site_fract_y
_atom_site_fract_z
Zn1	Zn	1.132102	-0.178863	-0.418794
Zn2	Zn	1.465436	0.154470	-0.085461
Zn3	Zn	1.798769	0.487803	0.247873
Zn4	Zn	1.131989	-0.253999	-0.294930
Zn5	Zn	1.465322	0.079334	0.038404
Zn6	Zn	1.798655	0.412668	0.371737
Zn7	Zn	1.008261	-0.178881	-0.294954
Zn8	Zn	1.341594	0.154452	0.038379
Zn9	Zn	1.674927	0.487786	0.371713
Zn10	Zn	1.008203	-0.253964	-0.418717
Zn11	Zn	1.341536	0.079369	-0.085384
Zn12	Zn	1.674870	0.412703	0.247949
O13	O	1.070139	-0.216427	-0.356849
O14	O	1.403472	0.116906	-0.023515
O15	O	1.736805	0.450240	0.309818
O16	O	1.235720	-0.188838	-0.402385
O17	O	1.569054	0.144496	-0.069052
O18	O	1.902387	0.477829	0.264282
O19	O	1.115552	-0.244057	-0.191300
O20	O	1.448886	0.089277	0.142033
O21	O	1.782219	0.422610	0.475367
O22	O	1.024760	-0.116011	-0.311424
O23	O	1.358093	0.217322	0.021909
O24	O	1.691427	0.550655	0.355243
O25	O	1.235637	-0.244039	-0.311382
O26	O	1.568970	0.089294	0.021951
O27	O	1.902303	0.422627	0.355284
O28	O	1.115746	-0.115999	-0.402409
O29	O	1.449080	0.217335	-0.069075
O30	O	1.782413	0.550668	0.264258
O31	O	1.024650	-0.188868	-0.191318
O32	O	1.357983	0.144466	0.142015
O33	O	1.691316	0.477799	0.475349
O34	O	0.904620	-0.188834	-0.311350
O35	O	1.237953	0.144500	0.021984
O36	O	1.571287	0.477833	0.355317
O37	O	1.024662	-0.243980	-0.522360
O38	O	1.357996	0.089354	-0.189027
O39	O	1.691329	0.422687	0.144306
O40	O	0.904578	-0.243997	-0.402278
O41	O	1.237911	0.089336	-0.068945
O42	O	1.571245	0.422670	0.264389
O43	O	1.115691	-0.188804	-0.522417
O44	O	1.449024	0.144530	-0.189083
O45	O	1.782357	0.477863	0.144250
O46	O	1.115497	-0.316862	-0.311308
O47	O	1.448830	0.016472	0.022025
O48	O	1.782163	0.349805	0.355359
O49	O	1.024552	-0.316836	-0.402254
O50	O	1.357885	0.016497	-0.068921
O51	O	1.691219	0.349831	0.264412
C52	C	0.877728	-0.216414	-0.356809
C53	C	1.211061	0.116920	-0.023475
C54	C	1.544395	0.450253	0.309858
C55	C	0.795414	-0.216419	-0.356809
C56	C	1.128747	0.116915	-0.023476
C57	C	1.462081	0.450248	0.309858
C58	C	0.644706	-0.216428	-0.356842
C59	C	0.978039	0.116905	-0.023509
C60	C	1.311372	0.450239	0.309825
C61	C	0.613354	-0.181671	-0.299728
C62	C	0.946687	0.151662	0.033605
C63	C	1.280020	0.484996	0.366939
C64	C	0.527736	-0.181540	-0.299915
C65	C	0.861069	0.151793	0.033418
C66	C	1.194402	0.485126	0.366751
C67	C	0.496323	-0.216437	-0.356874
C68	C	0.829656	0.116896	-0.023540
C69	C	1.162990	0.450230	0.309793
C70	C	0.527465	-0.203795	-0.435013
C71	C	0.860798	0.129538	-0.101679
C72	C	1.194132	0.462871	0.231654
C73	C	0.613110	-0.203538	-0.434664
C74	C	0.946443	0.129795	-0.101331
C75	C	1.279777	0.463129	0.232002
C76	C	0.613096	-0.263916	-0.336506
C77	C	0.946429	0.069417	-0.003173
C78	C	1.279763	0.402750	0.330160
C79	C	0.527445	-0.263666	-0.334804
C80	C	0.860778	0.069667	-0.001470
C81	C	1.194111	0.403000	0.331863
C82	C	0.412464	-0.216443	-0.356896
C83	C	0.745797	0.116890	-0.023563
C84	C	1.079130	0.450224	0.309770
C85	C	0.728565	-0.216421	-0.356825
C86	C	1.061898	0.116912	-0.023491
C87	C	1.395232	0.450246	0.309842
C88	C	1.070026	-0.333149	-0.356786
C89	C	1.403359	0.000184	-0.023453
C90	C	1.736692	0.333517	0.309880
C91	C	1.070045	-0.383084	-0.356784
C92	C	1.403378	-0.049751	-0.023451
C93	C	1.736712	0.283583	0.309882
C94	C	1.117505	-0.692686	-0.404292
C95	C	1.450838	-0.359352	-0.070959
C96	C	1.784171	-0.026019	0.262375
C97	C	1.117585	-0.880359	-0.404336
C98	C	1.450919	-0.547025	-0.071003
C99	C	1.784252	-0.213692	0.262330
O100	O	1.157826	-0.904588	-0.444683
O101	O	1.491160	-0.571255	-0.111349
O102	O	1.824493	-0.237921	0.221984
N103	N	1.070264	-0.903869	-0.356931
N104	N	1.403598	-0.570536	-0.023598
N105	N	1.736931	-0.237202	0.309736
C106	C	1.022917	-0.880458	-0.309514
C107	C	1.356250	-0.547125	0.023819
C108	C	1.689583	-0.213791	0.357152
O109	O	0.982664	-0.904761	-0.269199
O110	O	1.315997	-0.571428	0.064134
O111	O	1.649331	-0.238095	0.397467
C112	C	1.022833	-0.692786	-0.309474
C113	C	1.356167	-0.359453	0.023859
C114	C	1.689500	-0.026119	0.357193
C115	C	1.070162	-0.669278	-0.356877
C116	C	1.403496	-0.335945	-0.023544
C117	C	1.736829	-0.002611	0.309789
C118	C	1.164829	-0.669178	-0.451692
C119	C	1.498163	-0.335844	-0.118359
C120	C	1.831496	-0.002511	0.214975
C121	C	1.164812	-0.622262	-0.451678
C122	C	1.498145	-0.288929	-0.118344
C123	C	1.831478	0.044404	0.214989
C124	C	1.117469	-0.598855	-0.404263
C125	C	1.450803	-0.265521	-0.070930
C126	C	1.784136	0.067812	0.262404
C127	C	1.070145	-0.622363	-0.356863
C128	C	1.403478	-0.289029	-0.023530
C129	C	1.736811	0.044304	0.309804
C130	C	0.975482	-0.669376	-0.262062
C131	C	1.308816	-0.336042	0.071271
C132	C	1.642149	-0.002709	0.404605
C133	C	0.975464	-0.622455	-0.262057
C134	C	1.308798	-0.289121	0.071276
C135	C	1.642131	0.044212	0.404609
C136	C	1.022794	-0.598947	-0.309461
C137	C	1.356127	-0.265614	0.023873
C138	C	1.689460	0.067720	0.357206
C139	C	1.022785	-0.552040	-0.309434
C140	C	1.356118	-0.218706	0.023899
C141	C	1.689451	0.114627	0.357233
N142	N	1.070105	-0.528529	-0.356840
N143	N	1.403439	-0.195196	-0.023506
N144	N	1.736772	0.138137	0.309827
C145	C	1.117448	-0.551937	-0.404254
C146	C	1.450781	-0.218604	-0.070921
C147	C	1.784114	0.114730	0.262413
C148	C	1.022965	-0.978989	-0.309538
C149	C	1.356298	-0.645655	0.023796
C150	C	1.689632	-0.312322	0.357129
C151	C	1.022987	-1.025906	-0.309547
C152	C	1.356320	-0.692573	0.023787
C153	C	1.689653	-0.359240	0.357120
C154	C	1.117654	-1.025804	-0.404370
C155	C	1.450988	-0.692470	-0.071037
C156	C	1.784321	-0.359137	0.262297
C157	C	1.117636	-0.978885	-0.404357
C158	C	1.450969	-0.645552	-0.071023
C159	C	1.784302	-0.312218	0.262310
C160	C	1.070286	-0.955478	-0.356943
C161	C	1.403619	-0.622145	-0.023610
C162	C	1.736952	-0.288812	0.309723
C163	C	1.117407	-0.453411	-0.404220
C164	C	1.450741	-0.120078	-0.070886
C165	C	1.784074	0.213256	0.262447
C166	C	1.117388	-0.406491	-0.404199
C167	C	1.450721	-0.073158	-0.070866
C168	C	1.784054	0.260175	0.262468
C169	C	1.022718	-0.406598	-0.309379
C170	C	1.356051	-0.073265	0.023955
C171	C	1.689384	0.260068	0.357288
C172	C	1.022740	-0.453514	-0.309396
C173	C	1.356073	-0.120180	0.023937
C174	C	1.689406	0.213153	0.357270
C175	C	1.070087	-0.476919	-0.356823
C176	C	1.403420	-0.143586	-0.023490
C177	C	1.736754	0.189748	0.309844
O178	O	0.982559	-0.527781	-0.269115
O179	O	1.315892	-0.194448	0.064219
O180	O	1.649225	0.138886	0.397552
O181	O	1.157683	-0.527626	-0.444575
O182	O	1.491016	-0.194292	-0.111241
O183	O	1.824349	0.139041	0.222092
C184	C	1.117523	-0.739601	-0.404306
C185	C	1.450856	-0.406268	-0.070973
C186	C	1.784189	-0.072934	0.262360
C187	C	1.070198	-0.763109	-0.356906
C188	C	1.403531	-0.429776	-0.023573
C189	C	1.736864	-0.096442	0.309760
C190	C	1.022855	-0.739701	-0.309492
C191	C	1.356189	-0.406368	0.023841
C192	C	1.689522	-0.073035	0.357175
C193	C	1.070220	-0.810027	-0.356915
C194	C	1.403553	-0.476693	-0.023582
C195	C	1.736886	-0.143360	0.309751
C196	C	1.117562	-0.833434	-0.404330
C197	C	1.450895	-0.500101	-0.070996
C198	C	1.784229	-0.166768	0.262337
C199	C	1.164883	-0.809924	-0.451735
C200	C	1.498216	-0.476591	-0.118402
C201	C	1.831549	-0.143257	0.214931
C202	C	1.164865	-0.763009	-0.451721
C203	C	1.498198	-0.429675	-0.118388
C204	C	1.831532	-0.096342	0.214946
C205	C	0.975535	-0.763212	-0.262086
C206	C	1.308868	-0.429878	0.071247
C207	C	1.642201	-0.096545	0.404580
C208	C	0.975557	-0.810127	-0.262104
C209	C	1.308890	-0.476794	0.071229
C210	C	1.642224	-0.143460	0.404563
C211	C	1.022899	-0.833535	-0.309519
C212	C	1.356233	-0.500201	0.023815
C213	C	1.689566	-0.166868	0.357148
C214	C	1.263301	-0.216440	-0.356890
C215	C	1.596634	0.116893	-0.023556
C216	C	1.929967	0.450226	0.309777
C217	C	1.345615	-0.216446	-0.356907
C218	C	1.678948	0.116887	-0.023574
C219	C	2.012281	0.450220	0.309760
C220	C	1.070183	-0.216386	-0.550011
C221	C	1.403516	0.116947	-0.216677
C222	C	1.736849	0.450281	0.116656
C223	C	1.070201	-0.216368	-0.632325
C224	C	1.403535	0.116965	-0.298992
C225	C	1.736868	0.450298	0.034342
C226	C	1.070272	-0.099248	-0.356928
C227	C	1.403606	0.234085	-0.023594
C228	C	1.736939	0.567418	0.309739
C229	C	1.070329	-0.049314	-0.356961
C230	C	1.403662	0.284019	-0.023628
C231	C	1.736996	0.617353	0.309705
C232	C	1.070241	-0.216340	-0.931416
C233	C	1.403575	0.116993	-0.598083
C234	C	1.736908	0.450326	-0.264749
C235	C	1.127702	-0.181747	-0.900126
C236	C	1.461036	0.151586	-0.566793
C237	C	1.794369	0.484919	-0.233460
C238	C	1.127523	-0.181619	-0.814508
C239	C	1.460857	0.151715	-0.481175
C240	C	1.794190	0.485048	-0.147841
C241	C	1.070222	-0.216354	-0.783033
C242	C	1.403556	0.116979	-0.449700
C243	C	1.736889	0.450312	-0.116367
C244	C	0.992207	-0.203490	-0.814103
C245	C	1.325540	0.129844	-0.480770
C246	C	1.658874	0.463177	-0.147437
C247	C	0.992551	-0.203230	-0.899749
C248	C	1.325884	0.130103	-0.566415
C249	C	1.659218	0.463436	-0.233082
C250	C	1.090108	-0.263887	-0.899816
C251	C	1.423442	0.069446	-0.566482
C252	C	1.756775	0.402780	-0.233149
C253	C	1.091821	-0.263645	-0.814166
C254	C	1.425154	0.069689	-0.480833
C255	C	1.758487	0.403022	-0.147499
C256	C	1.070207	-0.216363	-0.699174
C257	C	1.403540	0.116970	-0.365841
C258	C	1.736873	0.450304	-0.032507
C259	C	1.070252	-0.216331	-1.015276
C260	C	1.403585	0.117003	-0.681942
C261	C	1.736919	0.450336	-0.348609
C262	C	1.070137	-0.216435	-0.164438
C263	C	1.403471	0.116898	0.168895
C264	C	1.736804	0.450231	0.502228
C265	C	1.070262	-0.216326	-0.082125
C266	C	1.403596	0.117007	0.251209
C267	C	1.736929	0.450340	0.584542
H268	H	0.506677	-0.189428	-0.241986
H269	H	0.840010	0.143906	0.091347
H270	H	1.173344	0.477239	0.424680
F271	F	0.972376	-0.478533	-0.258936
F272	F	1.305710	-0.145200	0.074397
F273	F	1.639043	0.188133	0.407731
H274	H	0.984455	-1.045043	-0.270938
H275	H	1.317788	-0.711709	0.062395
H276	H	1.651121	-0.378376	0.395728
F277	F	1.168009	-0.953871	-0.454810
F278	F	1.501342	-0.620537	-0.121477
F279	F	1.834675	-0.287204	0.211857
H280	H	1.155931	-0.387353	-0.442800
H281	H	1.489265	-0.054019	-0.109467
H282	H	1.822598	0.279314	0.223866
H283	H	0.975708	-0.168474	-0.919748
H284	H	1.309042	0.164859	-0.586415
H285	H	1.642375	0.498192	-0.253082
H286	H	0.975058	-0.169120	-0.792674
H287	H	1.308391	0.164214	-0.459340
H288	H	1.641724	0.497547	-0.126007
H289	H	0.948282	-0.227330	-0.920445
H290	H	1.281616	0.106003	-0.587111
H291	H	1.614949	0.439336	-0.253778
H292	H	0.937017	-0.829263	-0.223496
H293	H	1.270350	-0.495930	0.109838
H294	H	1.603684	-0.162596	0.443171
F295	F	1.167801	-0.478314	-0.454695
F296	F	1.501134	-0.144981	-0.121362
F297	F	1.834467	0.188353	0.211971
H298	H	0.633893	-0.189469	-0.241606
H299	H	0.967227	0.143865	0.091727
H300	H	1.300560	0.477198	0.425060
H301	H	1.048260	-0.289663	-0.920054
H302	H	1.381594	0.043671	-0.586721
H303	H	1.714927	0.377004	-0.253387
F304	F	0.639612	-0.297764	-0.390864
F305	F	0.972945	0.035569	-0.057530
F306	F	1.306279	0.368903	0.275803
H307	H	0.936942	-0.688508	-0.223461
H308	H	1.270275	-0.355175	0.109873
H309	H	1.603609	-0.021841	0.443206
F310	F	0.500992	-0.135550	-0.317566
F311	F	0.834325	0.197784	0.015768
F312	F	1.167659	0.531117	0.349101
H313	H	0.633119	-0.168831	-0.451851
H314	H	0.966452	0.164502	-0.118518
H315	H	1.299785	0.497836	0.214815
F316	F	0.641272	-0.279004	-0.263272
F317	F	0.974606	0.054329	0.070062
F318	F	1.307939	0.387663	0.403395
H319	H	1.203381	-0.688231	-0.490307
H320	H	1.536715	-0.354898	-0.156974
H321	H	1.870048	-0.021565	0.176360
F322	F	0.641521	-0.135937	-0.317149
F323	F	0.974854	0.197396	0.016185
F324	F	1.308188	0.530730	0.349518
F325	F	1.203140	-0.192143	-0.787051
F326	F	1.536473	0.141190	-0.453718
F327	F	1.869806	0.474523	-0.120384
H328	H	0.984406	-0.959934	-0.270926
H329	H	1.317739	-0.626601	0.062407
H330	H	1.651073	-0.293267	0.395740
F331	F	1.215182	-0.597249	-0.502136
F332	F	1.548515	-0.263916	-0.168802
F333	F	1.881849	0.069417	0.164531
H334	H	0.633853	-0.227763	-0.478693
H335	H	0.967187	0.105570	-0.145360
H336	H	1.300520	0.438904	0.187974
H337	H	0.507122	-0.228340	-0.478746
H338	H	0.840455	0.104994	-0.145413
H339	H	1.173788	0.438327	0.187920
F340	F	0.499473	-0.158933	-0.457876
F341	F	0.832806	0.174400	-0.124543
F342	F	1.166140	0.507733	0.208791
F343	F	0.500835	-0.276132	-0.259638
F344	F	0.834168	0.057201	0.073695
F345	F	1.167501	0.390534	0.407028
F346	F	0.499517	-0.299307	-0.385198
F347	F	0.832851	0.034026	-0.051865
F348	F	1.166184	0.367359	0.281469
H349	H	1.053012	-0.290804	-0.792737
H350	H	1.386345	0.042529	-0.459403
H351	H	1.719678	0.375863	-0.126070
H352	H	1.203405	-0.743872	-0.490321
H353	H	1.536738	-0.410539	-0.156988
H354	H	1.870071	-0.077205	0.176345
F355	F	1.168040	-1.050724	-0.454832
F356	F	1.501374	-0.717390	-0.121499
F357	F	1.834707	-0.384057	0.211835
F358	F	1.163191	-0.279181	-0.928058
F359	F	1.496524	0.054152	-0.594725
F360	F	1.829857	0.387485	-0.261391
H361	H	1.185742	-0.189704	-0.920732
H362	H	1.519075	0.143629	-0.587398
H363	H	1.852409	0.476963	-0.254065
F364	F	0.934728	-0.235410	-0.787459
F365	F	1.268061	0.097923	-0.454126
F366	F	1.601395	0.431256	-0.120792
H367	H	0.936982	-0.744157	-0.223477
H368	H	1.270315	-0.410823	0.109857
H369	H	1.603648	-0.077490	0.443190
F370	F	1.166865	-0.276324	-0.787629
F371	F	1.500199	0.057010	-0.454296
F372	F	1.833532	0.390343	-0.120962
F373	F	0.925066	-0.597546	-0.211592
F374	F	1.258399	-0.264213	0.121741
F375	F	1.591733	0.069120	0.455074
F376	F	1.110735	-0.135964	-0.928289
F377	F	1.444068	0.197370	-0.594956
F378	F	1.777402	0.530703	-0.261622
F379	F	0.972336	-0.381678	-0.258918
F380	F	1.305669	-0.048345	0.074415
F381	F	1.639003	0.284989	0.407748
H382	H	1.203433	-0.828991	-0.490339
H383	H	1.536767	-0.495657	-0.157006
H384	H	1.870100	-0.162324	0.176327
F385	F	1.110335	-0.135579	-0.787758
F386	F	1.443668	0.197754	-0.454424
F387	F	1.777002	0.531087	-0.121091
