data_functionalizedCrystal
_audit_creation_method	'MofGen! by Chris Wilmer'
_symmetry_space_group_name_H-M	'P1'
_symmetry_Int_Tables_number	1
_symmetry_cell_setting	triclinic
loop_
_symmetry_equiv_pos_as_xyz
  x,y,z
_cell_length_a	22.610064
_cell_length_b	23.532407
_cell_length_c	23.532407
_cell_angle_alpha	82.848713
_cell_angle_beta	90.019125
_cell_angle_gamma	89.987421
loop_
_atom_site_label
_atom_site_type_symbol
_atom_site_fract_x
_atom_site_fract_y
_atom_site_fract_z
O1	O	-0.049122	-0.755249	-0.069141
O2	O	0.450878	-0.255249	0.430859
O3	O	-0.049140	-0.589386	-0.079144
O4	O	0.450860	-0.089386	0.420856
O5	O	-0.049114	-0.677319	0.008789
O6	O	0.450886	-0.177319	0.508789
O7	O	-0.049148	-0.667316	-0.157074
O8	O	0.450852	-0.167316	0.342926
O9	O	0.049255	-0.677332	0.008804
O10	O	0.549255	-0.177332	0.508804
O11	O	0.049229	-0.589399	-0.079129
O12	O	0.549229	-0.089399	0.420871
O13	O	0.049248	-0.755262	-0.069126
O14	O	0.549248	-0.255262	0.430874
Zn15	Zn	0.064856	-0.672333	-0.074125
Zn16	Zn	0.564856	-0.172333	0.425875
Zn17	Zn	-0.064749	-0.672315	-0.074145
Zn18	Zn	0.435251	-0.172315	0.425855
O19	O	0.049221	-0.667329	-0.157059
O20	O	0.549221	-0.167329	0.342941
C21	C	0.000042	-0.568176	-0.078882
C22	C	0.500042	-0.068176	0.421118
C23	C	0.000036	-0.504959	-0.078116
C24	C	0.500036	-0.004959	0.421884
N25	N	-0.153202	-0.672304	-0.074154
N26	N	0.346798	-0.172304	0.425846
C27	C	0.000074	-0.677071	0.030013
C28	C	0.500074	-0.177071	0.530013
C29	C	0.000083	-0.676305	0.093230
C30	C	0.500083	-0.176305	0.593230
C31	C	-0.561831	-0.711350	-0.035273
C32	C	-0.061831	-0.211350	0.464727
C33	C	-0.623751	-0.711354	-0.035270
C34	C	-0.123751	-0.211354	0.464730
O35	O	-0.655760	-0.744544	-0.002236
O36	O	-0.155760	-0.244544	0.497764
N37	N	-0.654739	-0.672345	-0.074126
N38	N	-0.154739	-0.172345	0.425874
C39	C	-0.623803	-0.633332	-0.112990
C40	C	-0.123803	-0.133332	0.387010
O41	O	-0.655846	-0.600152	-0.146040
O42	O	-0.155846	-0.100152	0.353960
C43	C	-0.561884	-0.633331	-0.112995
C44	C	-0.061884	-0.133331	0.387005
C45	C	-0.530900	-0.672339	-0.074133
C46	C	-0.030900	-0.172339	0.425867
C47	C	-0.530847	-0.750356	0.003585
C48	C	-0.030847	-0.250356	0.503585
C49	C	-0.468931	-0.750351	0.003583
C50	C	0.031069	-0.250351	0.503583
C51	C	-0.438000	-0.711340	-0.035278
C52	C	0.062000	-0.211340	0.464722
C53	C	-0.468984	-0.672334	-0.074136
C54	C	0.031016	-0.172334	0.425864
C55	C	-0.530950	-0.594321	-0.151862
C56	C	-0.030950	-0.094321	0.348138
C57	C	-0.469027	-0.594324	-0.151864
C58	C	0.030973	-0.094324	0.348136
C59	C	-0.438043	-0.633332	-0.113002
C60	C	0.061957	-0.133332	0.386998
C61	C	-0.376138	-0.633318	-0.112998
C62	C	0.123862	-0.133318	0.387002
N63	N	-0.345150	-0.672328	-0.074143
N64	N	0.154850	-0.172328	0.425857
C65	C	-0.376081	-0.711339	-0.035283
C66	C	0.123919	-0.211339	0.464717
C67	C	-0.753837	-0.633338	-0.112977
C68	C	-0.253837	-0.133338	0.387023
C69	C	-0.815755	-0.633336	-0.112970
C70	C	-0.315755	-0.133336	0.387030
C71	C	-0.815698	-0.711359	-0.035251
C72	C	-0.315698	-0.211359	0.464749
C73	C	-0.753779	-0.711358	-0.035256
C74	C	-0.253779	-0.211358	0.464744
C75	C	-0.722849	-0.672348	-0.074122
C76	C	-0.222849	-0.172348	0.425878
C77	C	-0.246054	-0.711325	-0.035290
C78	C	0.253946	-0.211325	0.464710
C79	C	-0.184133	-0.711315	-0.035294
C80	C	0.315867	-0.211315	0.464706
C81	C	-0.184195	-0.633293	-0.113015
C82	C	0.315805	-0.133293	0.386985
C83	C	-0.246110	-0.633301	-0.113009
C84	C	0.253890	-0.133301	0.386991
C85	C	-0.277038	-0.672322	-0.074144
C86	C	0.222962	-0.172322	0.425856
O87	O	-0.344090	-0.600147	-0.146017
O88	O	0.155910	-0.100147	0.353983
O89	O	-0.344031	-0.744518	-0.002244
O90	O	0.155969	-0.244518	0.497756
N91	N	0.153309	-0.672349	-0.074111
N92	N	0.653309	-0.172349	0.425889
C93	C	0.000064	-0.776472	-0.069388
C94	C	0.500064	-0.276472	0.430612
C95	C	0.000066	-0.839689	-0.070154
C96	C	0.500066	-0.339689	0.429846
C97	C	0.000053	-0.105856	-0.125350
C98	C	0.500053	0.394144	0.374650
C99	C	0.000056	-0.046456	-0.124638
C100	C	0.500056	0.453544	0.375362
O101	O	0.000069	-0.009712	-0.168424
O102	O	0.500069	0.490288	0.331576
N103	N	0.000066	-0.023830	-0.072362
N104	N	0.500066	0.476170	0.427638
C105	C	0.000078	-0.060607	-0.020794
C106	C	0.500078	0.439393	0.479206
O107	O	0.000088	-0.035908	0.023737
O108	O	0.500088	0.464092	0.523737
C109	C	0.000079	-0.120007	-0.021506
C110	C	0.500079	0.379993	0.478494
C111	C	0.000063	-0.142629	-0.073785
C112	C	0.500063	0.357371	0.426215
C113	C	0.000037	-0.128480	-0.177625
C114	C	0.500037	0.371520	0.322375
C115	C	0.000033	-0.187876	-0.178336
C116	C	0.500033	0.312124	0.321664
C117	C	0.000043	-0.224649	-0.126772
C118	C	0.500043	0.275351	0.373228
C119	C	0.000058	-0.202025	-0.074496
C120	C	0.500058	0.297975	0.425504
C121	C	0.000095	-0.156783	0.030062
C122	C	0.500095	0.343217	0.530062
C123	C	0.000096	-0.216185	0.029345
C124	C	0.500096	0.283815	0.529345
C125	C	0.000080	-0.238808	-0.022934
C126	C	0.500080	0.261192	0.477066
C127	C	0.000063	-0.298194	-0.023643
C128	C	0.500063	0.201806	0.476357
N129	N	0.000054	-0.320821	-0.075920
N130	N	0.500054	0.179179	0.424080
C131	C	0.000043	-0.284048	-0.127484
C132	C	0.500043	0.215952	0.372516
C133	C	0.000078	0.064135	-0.019302
C134	C	0.500078	0.564135	0.480698
C135	C	0.000074	0.123533	-0.018589
C136	C	0.500074	0.623533	0.481411
C137	C	0.000053	0.137680	-0.122434
C138	C	0.500053	0.637680	0.377566
C139	C	0.000053	0.078281	-0.123146
C140	C	0.500053	0.578281	0.376854
C141	C	0.000069	0.041509	-0.071578
C142	C	0.500069	0.541509	0.428422
C143	C	0.000033	-0.408784	-0.128974
C144	C	0.500033	0.091216	0.371026
C145	C	0.000025	-0.468186	-0.129680
C146	C	0.500025	0.031814	0.370320
C147	C	0.000049	-0.482329	-0.025836
C148	C	0.500049	0.017671	0.474164
C149	C	0.000053	-0.422932	-0.025129
C150	C	0.500053	0.077068	0.474871
C151	C	0.000047	-0.386161	-0.076702
C152	C	0.500047	0.113839	0.423298
O153	O	0.000053	-0.334974	0.020119
O154	O	0.500053	0.165026	0.520119
O155	O	0.000042	-0.308756	-0.172007
O156	O	0.500042	0.191244	0.327993
C157	C	0.000032	-0.667577	-0.178283
C158	C	0.500032	-0.167577	0.321717
C159	C	0.000019	-0.668343	-0.241500
C160	C	0.500019	-0.168343	0.258500
C161	C	0.000039	-0.621110	0.359397
C162	C	0.500039	-0.121110	0.859397
C163	C	0.000044	-0.621821	0.299997
C164	C	0.500044	-0.121821	0.799997
O165	O	0.000020	-0.578035	0.263252
O166	O	0.500020	-0.078035	0.763252
N167	N	0.000057	-0.674097	0.277371
N168	N	0.500057	-0.174097	0.777371
C169	C	0.000059	-0.725666	0.314148
C170	C	0.500059	-0.225666	0.814148
O171	O	0.000070	-0.770196	0.289449
O172	O	0.500070	-0.270196	0.789449
C173	C	0.000050	-0.724954	0.373547
C174	C	0.500050	-0.224954	0.873547
C175	C	0.000043	-0.672674	0.396170
C176	C	0.500043	-0.172674	0.896170
C177	C	0.000032	-0.568834	0.382020
C178	C	0.500032	-0.068834	0.882020
C179	C	0.000029	-0.568123	0.441417
C180	C	0.500029	-0.068123	0.941417
C181	C	0.000032	-0.619687	0.478189
C182	C	0.500032	-0.119687	0.978189
C183	C	0.000040	-0.671963	0.455566
C184	C	0.500040	-0.171963	0.955566
C185	C	0.000048	-0.776521	0.410324
C186	C	0.500048	-0.276521	0.910324
C187	C	0.000039	-0.775805	0.469726
C188	C	0.500039	-0.275805	0.969726
C189	C	0.000032	-0.723525	0.492349
C190	C	0.500032	-0.223525	0.992349
C191	C	0.000040	-0.722816	0.551735
C192	C	0.500040	-0.222816	1.051735
N193	N	0.000027	-0.670539	0.574361
N194	N	0.500027	-0.170539	1.074361
C195	C	0.000024	-0.618975	0.537589
C196	C	0.500024	-0.118975	1.037589
C197	C	0.000077	-0.727157	0.189406
C198	C	0.500077	-0.227157	0.689406
C199	C	0.000090	-0.727870	0.130008
C200	C	0.500090	-0.227870	0.630008
C201	C	0.000074	-0.624025	0.115861
C202	C	0.500074	-0.124025	0.615861
C203	C	0.000065	-0.623313	0.175260
C204	C	0.500065	-0.123313	0.675260
C205	C	0.000064	-0.674881	0.212032
C206	C	0.500064	-0.174881	0.712032
C207	C	0.000017	-0.617486	0.662325
C208	C	0.500017	-0.117486	1.162325
C209	C	0.000016	-0.616779	0.721727
C210	C	0.500016	-0.116779	1.221727
C211	C	0.000028	-0.720623	0.735869
C212	C	0.500028	-0.220623	1.235869
C213	C	0.000033	-0.721330	0.676473
C214	C	0.500033	-0.221330	1.176473
C215	C	0.000025	-0.669757	0.639701
C216	C	0.500025	-0.169757	1.139701
O217	O	0.000061	-0.766579	0.588514
O218	O	0.500061	-0.266579	1.088514
O219	O	0.000005	-0.574452	0.562296
O220	O	0.500005	-0.074452	1.062296
H221	H	-0.158907	-0.743080	-0.003646
H222	H	0.341093	-0.243080	0.496354
H223	H	0.000058	-0.404512	0.017441
H224	H	0.500058	0.095488	0.517441
Br225	Br	-0.288018	-0.764282	0.017455
Br226	Br	0.211982	-0.264282	0.517455
Br227	Br	0.000033	-0.845794	0.519629
Br228	Br	0.500033	-0.345794	1.019629
Br229	Br	0.000104	-0.126096	0.101018
Br230	Br	0.500104	0.373904	0.601018
H231	H	-0.159001	-0.601530	-0.144653
H232	H	0.340999	-0.101530	0.355347
H233	H	0.000012	-0.486602	-0.172255
H234	H	0.500012	0.013398	0.327745
H235	H	-0.443847	-0.562557	-0.183515
H236	H	0.056153	-0.062557	0.316485
H237	H	0.000029	-0.378852	-0.170970
H238	H	0.500029	0.121148	0.329030
Br239	Br	0.000040	0.187598	-0.192415
Br240	Br	0.500040	0.687598	0.307585
Br241	Br	-0.426888	-0.803295	0.056322
Br242	Br	0.073112	-0.303295	0.556322
H243	H	0.000019	-0.206289	-0.220908
H244	H	0.500019	0.293711	0.279092
H245	H	0.000047	-0.763901	0.658053
H246	H	0.500047	-0.263901	1.158053
H247	H	0.000080	-0.769152	0.219343
H248	H	0.500080	-0.269152	0.719343
H249	H	-0.840978	-0.601566	-0.144609
H250	H	-0.340978	-0.101566	0.355391
Br251	Br	0.000065	-0.532246	0.044141
Br252	Br	0.500065	-0.032246	0.544141
Br253	Br	0.000077	0.154227	0.052364
Br254	Br	0.500077	0.654227	0.552364
Br255	Br	0.000120	-0.266088	0.099335
Br256	Br	0.500120	0.233912	0.599335
Br257	Br	0.000009	-0.545823	0.752425
Br258	Br	0.500009	-0.045823	1.252425
H259	H	-0.556169	-0.562558	-0.183507
H260	H	-0.056169	-0.062558	0.316493
Br261	Br	-0.288159	-0.580352	-0.165744
Br262	Br	0.211841	-0.080352	0.334256
H263	H	-0.840894	-0.743125	-0.003609
H264	H	-0.340894	-0.243125	0.496391
H265	H	0.000053	-0.819093	0.391915
H266	H	0.500053	-0.319093	0.891915
Br267	Br	0.000023	-0.078583	-0.247615
Br268	Br	0.500023	0.421417	0.252385
Br269	Br	0.000013	-0.497168	0.472109
Br270	Br	0.500013	0.002832	0.972109
H271	H	-0.556026	-0.782126	0.035230
H272	H	-0.056026	-0.282126	0.535230
Br273	Br	0.000006	-0.547492	0.612431
Br274	Br	0.500006	-0.047492	1.112431
H275	H	-0.728657	-0.601566	-0.144625
H276	H	-0.228657	-0.101566	0.355375
H277	H	0.000034	-0.762606	0.765820
H278	H	0.500034	-0.262606	1.265820
H279	H	0.000044	0.059866	-0.165717
H280	H	0.500044	0.559866	0.334283
H281	H	0.000027	-0.526842	0.352085
H282	H	0.500027	-0.026842	0.852085
Br283	Br	0.000094	0.014235	0.050690
Br284	Br	0.500094	0.514235	0.550690
H285	H	-0.728556	-0.743122	-0.003612
H286	H	-0.228556	-0.243122	0.496388
H287	H	0.000062	-0.580742	0.193674
H288	H	0.500062	-0.080742	0.693674
Br289	Br	0.000110	-0.798823	0.099313
Br290	Br	0.500110	-0.298823	0.599313
H291	H	0.000071	-0.582038	0.085909
H292	H	0.500071	-0.082038	0.585909
