data_functionalizedCrystal
_audit_creation_method	'MofGen! by Chris Wilmer'
_symmetry_space_group_name_H-M	'P1'
_symmetry_Int_Tables_number	1
_symmetry_cell_setting	triclinic
loop_
_symmetry_equiv_pos_as_xyz
  x,y,z
_cell_length_a	16.959455
_cell_length_b	16.959453
_cell_length_c	16.959447
_cell_angle_alpha	90.031064
_cell_angle_beta	90.020374
_cell_angle_gamma	90.017008
loop_
_atom_site_label
_atom_site_type_symbol
_atom_site_fract_x
_atom_site_fract_y
_atom_site_fract_z
Zn1	Zn	1.208384	-0.314729	0.447032
Zn2	Zn	1.708384	0.185271	0.947032
Zn3	Zn	1.208307	-0.446921	0.314852
Zn4	Zn	1.708307	0.053079	0.814852
Zn5	Zn	1.076213	-0.314754	0.314856
Zn6	Zn	1.576213	0.185246	0.814856
Zn7	Zn	1.076178	-0.446862	0.446977
Zn8	Zn	1.576178	0.053138	0.946977
O9	O	1.142270	-0.380816	0.380929
O10	O	1.642270	0.119184	0.880929
O11	O	1.318985	-0.332279	0.429520
O12	O	1.818985	0.167721	0.929520
O13	O	1.190767	-0.429424	0.204242
O14	O	1.690767	0.070576	0.704242
O15	O	1.093793	-0.204140	0.332414
O16	O	1.593793	0.295860	0.832414
O17	O	1.318928	-0.429400	0.332408
O18	O	1.818928	0.070600	0.832408
O19	O	1.190899	-0.204121	0.429524
O20	O	1.690899	0.295879	0.929524
O21	O	1.093718	-0.332321	0.204244
O22	O	1.593718	0.167679	0.704244
O23	O	0.965597	-0.332264	0.332360
O24	O	1.465597	0.167736	0.832360
O25	O	1.093733	-0.429299	0.557595
O26	O	1.593733	0.070701	1.057595
O27	O	0.965571	-0.429324	0.429429
O28	O	1.465571	0.070676	0.929429
O29	O	1.190864	-0.332221	0.557636
O30	O	1.690864	0.167779	1.057636
O31	O	1.190733	-0.557524	0.332354
O32	O	1.690733	-0.057524	0.832354
O33	O	1.093658	-0.557481	0.429425
O34	O	1.593658	-0.057481	0.929425
C35	C	0.936904	-0.380791	0.380889
C36	C	1.436904	0.119209	0.880889
C37	C	0.849048	-0.380799	0.380891
C38	C	1.349048	0.119201	0.880891
C39	C	0.477532	-0.431337	0.330337
C40	C	0.977532	0.068663	0.830337
C41	C	0.477612	-0.330361	0.431617
C42	C	0.977612	0.169639	0.931617
C43	C	0.560158	-0.330348	0.431598
C44	C	1.060158	0.169652	0.931598
C45	C	0.601395	-0.380831	0.380948
C46	C	1.101395	0.119169	0.880948
C47	C	0.560085	-0.431328	0.330318
C48	C	1.060085	0.068672	0.830318
C49	C	0.601474	-0.279859	0.482234
C50	C	1.101474	0.220141	0.982234
C51	C	0.684025	-0.279844	0.482217
C52	C	1.184025	0.220156	0.982217
C53	C	0.725263	-0.330324	0.431563
C54	C	1.225263	0.169676	0.931563
C55	C	0.683948	-0.380822	0.380929
C56	C	1.183948	0.119178	0.880929
C57	C	0.725185	-0.431305	0.330280
C58	C	1.225185	0.068695	0.830280
C59	C	0.683872	-0.481799	0.279642
C60	C	1.183872	0.018201	0.779642
C61	C	0.601323	-0.481807	0.279663
C62	C	1.101323	0.018193	0.779663
C63	C	0.807811	-0.330315	0.431541
C64	C	1.307811	0.169685	0.931541
C65	C	0.807738	-0.431295	0.330260
C66	C	1.307738	0.068705	0.830260
C67	C	1.142205	-0.586183	0.380900
C68	C	1.642205	-0.086183	0.880900
C69	C	1.142249	-0.674039	0.380914
C70	C	1.642249	-0.174039	0.880914
C71	C	1.192898	-1.045447	0.431589
C72	C	1.692898	-0.545447	0.931589
C73	C	1.091863	-1.045583	0.330386
C74	C	1.591863	-0.545583	0.830386
C75	C	1.091834	-0.963037	0.330368
C76	C	1.591834	-0.463037	0.830368
C77	C	1.142337	-0.921692	0.380962
C78	C	1.642337	-0.421692	0.880962
C79	C	1.192869	-0.962893	0.431575
C80	C	1.692869	-0.462893	0.931575
C81	C	1.041297	-0.921830	0.279762
C82	C	1.541297	-0.421830	0.779762
C83	C	1.041265	-0.839279	0.279743
C84	C	1.541265	-0.339279	0.779743
C85	C	1.091773	-0.797933	0.330334
C86	C	1.591773	-0.297933	0.830334
C87	C	1.142307	-0.839139	0.380947
C88	C	1.642307	-0.339139	0.880947
C89	C	1.192810	-0.797794	0.431541
C90	C	1.692810	-0.297794	0.931541
C91	C	1.243349	-0.838999	0.482152
C92	C	1.743349	-0.338999	0.982152
C93	C	1.243376	-0.921547	0.482165
C94	C	1.743376	-0.421547	0.982165
C95	C	1.091746	-0.715384	0.330320
C96	C	1.591746	-0.215384	0.830320
C97	C	1.192781	-0.715240	0.431527
C98	C	1.692781	-0.215240	0.931527
C99	C	1.348439	-0.380843	0.380970
C100	C	1.848439	0.119157	0.880970
C101	C	1.436295	-0.380854	0.380987
C102	C	1.936295	0.119146	0.880987
C103	C	1.142303	-0.380751	0.587097
C104	C	1.642303	0.119249	1.087097
C105	C	1.142317	-0.380723	0.674954
C106	C	1.642317	0.119277	1.174954
C107	C	1.142358	-0.174648	0.380976
C108	C	1.642358	0.325352	0.880976
C109	C	1.142395	-0.086792	0.380995
C110	C	1.642395	0.413208	0.880995
C111	C	1.142283	-0.380825	0.175563
C112	C	1.642283	0.119175	0.675563
C113	C	1.142422	-0.380630	0.087707
C114	C	1.642422	0.119370	0.587707
C115	C	1.091840	-0.431184	1.046411
C116	C	1.591840	0.068816	1.546411
C117	C	1.192984	-0.330096	1.046449
C118	C	1.692984	0.169904	1.546449
C119	C	1.192963	-0.330113	0.963903
C120	C	1.692963	0.169887	1.463903
C121	C	1.142380	-0.380667	0.922607
C122	C	1.642380	0.119333	1.422607
C123	C	1.091819	-0.431204	0.963858
C124	C	1.591819	0.068796	1.463858
C125	C	1.243529	-0.279582	0.922646
C126	C	1.743529	0.220418	1.422646
C127	C	1.243511	-0.279597	0.840095
C128	C	1.743511	0.220403	1.340095
C129	C	1.192923	-0.330148	0.798798
C130	C	1.692923	0.169852	1.298798
C131	C	1.142359	-0.380686	0.840054
C132	C	1.642359	0.119314	1.340054
C133	C	1.091777	-0.431240	0.798758
C134	C	1.591777	0.068760	1.298758
C135	C	1.041208	-0.481776	0.840012
C136	C	1.541208	0.018224	1.340012
C137	C	1.041232	-0.481754	0.922560
C138	C	1.541232	0.018246	1.422560
C139	C	1.192900	-0.330169	0.716250
C140	C	1.692900	0.169831	1.216250
C141	C	1.091756	-0.431260	0.716204
C142	C	1.591756	0.068740	1.216204
H143	H	0.717655	-0.238728	0.523449
H144	H	1.217655	0.261272	1.023449
C145	C	1.282103	-0.145741	0.948111
C146	C	1.782103	0.354259	1.448111
C147	C	1.299128	-0.224019	0.968041
C148	C	1.799128	0.275981	1.468041
H149	H	1.316432	-0.111439	0.976136
H150	H	1.816432	0.388561	1.476136
H151	H	1.229009	-0.134166	0.961635
H152	H	1.729009	0.365834	1.461635
H153	H	1.289336	-0.138528	0.893043
H154	H	1.789336	0.361472	1.393043
H155	H	1.291889	-0.231233	1.023107
H156	H	1.791889	0.268767	1.523107
H157	H	1.352235	-0.235597	0.954521
H158	H	1.852235	0.264403	1.454521
H159	H	1.050558	-0.472421	0.682587
H160	H	1.550558	0.027579	1.182587
H161	H	1.000027	-0.522940	0.806378
H162	H	1.500027	-0.022940	1.306378
C163	C	1.237600	-0.588638	0.476444
C164	C	1.737600	-0.088638	0.976444
C165	C	1.248297	-0.669796	0.487141
C166	C	1.748297	-0.169796	0.987141
H167	H	1.271878	-0.560585	0.510776
H168	H	1.771878	-0.060585	1.010776
H169	H	1.184486	-0.575143	0.487961
H170	H	1.684486	-0.075143	0.987961
H171	H	1.249197	-0.575146	0.423343
H172	H	1.749197	-0.075146	0.923343
H173	H	1.236694	-0.683289	0.540242
H174	H	1.736694	-0.183289	1.040242
H175	H	1.301423	-0.683297	0.475630
H176	H	1.801423	-0.183297	0.975630
H177	H	1.000115	-0.805735	0.238533
H178	H	1.500115	-0.305735	0.738533
H179	H	1.000064	-0.522900	0.956157
H180	H	1.500064	-0.022900	1.456157
H181	H	1.050594	-0.681839	0.289118
H182	H	1.550594	-0.181839	0.789118
H183	H	1.050666	-0.472326	1.080004
H184	H	1.550666	0.027674	1.580004
H185	H	1.234048	-1.078999	0.472793
H186	H	1.734048	-0.578999	0.972793
C187	C	1.237928	-0.285189	1.173006
C188	C	1.737928	0.214811	1.673006
C189	C	1.248585	-0.274532	1.091839
C190	C	1.748585	0.225468	1.591839
H191	H	1.272252	-0.250880	1.201029
H192	H	1.772252	0.249120	1.701029
H193	H	1.249478	-0.338290	1.186511
H194	H	1.749478	0.161710	1.686511
H195	H	1.184826	-0.273609	1.186527
H196	H	1.684826	0.226391	1.686527
H197	H	1.301686	-0.286117	1.078317
H198	H	1.801686	0.213883	1.578317
H199	H	1.237040	-0.221418	1.078329
H200	H	1.737040	0.278582	1.578329
H201	H	1.284686	-0.238448	0.806513
H202	H	1.784686	0.261552	1.306513
C203	C	0.799595	-0.230517	0.531664
C204	C	1.299595	0.269483	1.031664
C205	C	0.853222	-0.274821	0.487199
C206	C	1.353222	0.225179	0.987199
H207	H	0.827631	-0.196252	0.566023
H208	H	1.327631	0.303748	1.066023
H209	H	0.767412	-0.265001	0.561839
H210	H	1.267412	0.234999	1.061839
H211	H	0.767381	-0.200241	0.497282
H212	H	1.267381	0.299759	0.997282
H213	H	0.885432	-0.305102	0.521580
H214	H	1.385432	0.194898	1.021580
H215	H	0.885418	-0.240332	0.457021
H216	H	1.385418	0.259668	0.957021
H217	H	1.284465	-0.805326	0.523350
H218	H	1.784465	-0.305326	1.023350
C219	C	1.047054	-1.172184	0.285473
C220	C	1.547054	-0.672184	0.785473
C221	C	1.036356	-1.091027	0.274772
C222	C	1.536356	-0.591027	0.774772
H223	H	1.012789	-1.200240	0.251132
H224	H	1.512789	-0.700240	0.751132
H225	H	1.035449	-1.185676	0.338565
H226	H	1.535449	-0.685676	0.838565
H227	H	1.100179	-1.185677	0.273965
H228	H	1.600179	-0.685677	0.773965
H229	H	0.983232	-1.077533	0.286285
H230	H	1.483232	-0.577533	0.786285
H231	H	1.047956	-1.077530	0.221668
H232	H	1.547956	-0.577530	0.721668
C233	C	1.231460	-0.196341	0.690874
C234	C	1.731460	0.303659	1.190874
C235	C	1.248478	-0.274628	0.670901
C236	C	1.748478	0.225372	1.170901
H237	H	1.265770	-0.162051	0.662873
H238	H	1.765770	0.337949	1.162873
H239	H	1.238718	-0.189100	0.745940
H240	H	1.738718	0.310900	1.245940
H241	H	1.178351	-0.184775	0.677342
H242	H	1.678351	0.315225	1.177342
H243	H	1.301585	-0.286195	0.684438
H244	H	1.801585	0.213805	1.184438
H245	H	1.241226	-0.281872	0.615823
H246	H	1.741226	0.218128	1.115823
C247	C	0.799366	-0.531111	0.230150
C248	C	1.299366	-0.031111	0.730150
C249	C	0.853062	-0.486792	0.274586
C250	C	1.353062	0.013208	0.774586
H251	H	0.827349	-0.565376	0.195784
H252	H	1.327349	-0.065376	0.695784
H253	H	0.767164	-0.496637	0.199983
H254	H	1.267164	0.003363	0.699983
H255	H	0.767179	-0.561388	0.264550
H256	H	1.267179	-0.061388	0.764550
H257	H	0.885247	-0.456510	0.240186
H258	H	1.385247	0.043490	0.740186
H259	H	0.885279	-0.521270	0.304755
H260	H	1.385279	-0.021270	0.804755
H261	H	0.443891	-0.472446	0.289107
H262	H	0.943891	0.027554	0.789107
H263	H	1.000179	-0.955499	0.238574
H264	H	1.500179	-0.455499	0.738574
C265	C	0.474748	-0.526664	0.234733
C266	C	0.974748	-0.026664	0.734733
C267	C	0.555911	-0.537313	0.224012
C268	C	1.055911	-0.037313	0.724012
H269	H	0.446712	-0.560936	0.200380
H270	H	0.946712	-0.060936	0.700380
H271	H	0.461225	-0.473550	0.223259
H272	H	0.961225	0.026450	0.723259
H273	H	0.461262	-0.538299	0.287828
H274	H	0.961262	-0.038299	0.787828
H275	H	0.569398	-0.525673	0.170918
H276	H	1.069398	-0.025673	0.670918
H277	H	0.569439	-0.590439	0.235480
H278	H	1.069439	-0.090439	0.735480
C279	C	0.384842	-0.319528	0.537976
C280	C	0.884842	0.180472	1.037976
C281	C	0.432283	-0.274874	0.487289
C282	C	0.932283	0.225126	0.987289
H283	H	0.356852	-0.285269	0.572342
H284	H	0.856852	0.214731	1.072342
H285	H	0.417060	-0.353988	0.568143
H286	H	0.917060	0.146012	1.068143
H287	H	0.348430	-0.349602	0.507817
H288	H	0.848430	0.150398	1.007817
H289	H	0.468699	-0.244805	0.517448
H290	H	0.968699	0.255195	1.017448
H291	H	0.400063	-0.240401	0.457119
H292	H	0.900063	0.259599	0.957119
C293	C	0.508692	-0.269027	0.588582
C294	C	1.008692	0.230973	1.088582
C295	C	0.556141	-0.224372	0.537903
C296	C	1.056141	0.275628	1.037903
H297	H	0.480699	-0.234768	0.622946
H298	H	0.980699	0.265232	1.122946
H299	H	0.540904	-0.303489	0.618751
H300	H	1.040904	0.196511	1.118751
H301	H	0.472283	-0.299098	0.558417
H302	H	0.972283	0.200902	1.058417
H303	H	0.592555	-0.194306	0.568068
H304	H	1.092555	0.305694	1.068068
H305	H	0.523926	-0.189896	0.507731
H306	H	1.023926	0.310104	1.007731
H307	H	0.717457	-0.522907	0.238407
H308	H	1.217457	-0.022907	0.738407
H309	H	1.284522	-0.955103	0.523370
H310	H	1.784522	-0.455103	1.023370
