data_functionalizedCrystal
_audit_creation_method	'MofGen! by Chris Wilmer'
_symmetry_space_group_name_H-M	'P1'
_symmetry_Int_Tables_number	1
_symmetry_cell_setting	triclinic
loop_
_symmetry_equiv_pos_as_xyz
  x,y,z
_cell_length_a	16.974800
_cell_length_b	10.967829
_cell_length_c	15.455313
_cell_angle_alpha	80.579194
_cell_angle_beta	90.973911
_cell_angle_gamma	84.835183
loop_
_atom_site_label
_atom_site_type_symbol
_atom_site_fract_x
_atom_site_fract_y
_atom_site_fract_z
O1	O	1.051052	0.157298	-0.021832
O2	O	0.821856	0.176142	-0.040745
O3	O	0.940468	-0.012885	-0.004157
O4	O	0.932441	0.346325	-0.058420
O5	O	0.933684	-0.002120	0.138019
O6	O	0.815073	0.186907	0.101431
O7	O	1.044269	0.168062	0.120344
Cu8	Cu	0.929052	0.178467	0.123870
Cu9	Cu	0.937074	0.165737	-0.044271
O10	O	0.925658	0.357089	0.083756
C11	C	0.789094	0.180610	0.028417
C12	C	0.701578	0.177872	0.022680
C13	C	0.656770	0.182451	0.097487
C14	C	0.574540	0.179859	0.092102
C15	C	0.537120	0.172696	0.011908
C16	C	0.581935	0.168114	-0.062905
C17	C	0.664163	0.170697	-0.057518
C18	C	0.291591	0.164332	-0.012514
C19	C	0.209356	0.161753	-0.017896
C20	C	0.201968	0.173495	0.137113
C21	C	0.284197	0.176086	0.142492
C22	C	0.329005	0.171497	0.067680
N23	N	0.453068	0.170050	0.006401
N24	N	0.413056	0.174134	0.073189
C25	C	0.935979	-0.053476	0.073725
C26	C	0.932703	-0.190464	0.093968
C27	C	0.934756	-0.257108	0.029340
C28	C	0.931369	-0.398691	0.050261
C29	C	1.077031	0.163594	0.051180
C30	C	1.164548	0.166332	0.056912
C31	C	0.930146	0.397681	0.005872
C32	C	0.933423	0.534668	-0.014376
N33	N	0.923415	0.187421	0.242131
N34	N	0.942716	0.156774	-0.162530
C35	C	0.973824	0.107145	0.303066
C36	C	0.969568	0.113928	0.392561
C37	C	0.914908	0.200992	0.421119
C38	C	0.864494	0.281271	0.360177
C39	C	0.868746	0.274482	0.270684
C40	C	0.896554	0.230264	0.687035
C41	C	0.892308	0.237049	0.776535
C42	C	0.997382	0.069703	0.808914
C43	C	1.001632	0.062927	0.719417
C44	C	0.951215	0.143201	0.658483
N45	N	0.910559	0.207930	0.512596
N46	N	0.955561	0.136257	0.567008
H47	H	0.314659	0.181912	0.207796
H48	H	0.538062	0.183566	0.153022
H49	H	0.939017	-0.209344	-0.041478
H50	H	0.927099	-0.446448	0.121083
H51	H	0.928433	-0.238225	0.164785
H52	H	1.038428	0.004346	0.858533
C53	C	1.077250	-0.057595	0.344069
C54	C	1.033907	0.011437	0.271680
H55	H	1.114338	-0.116689	0.324694
H56	H	1.104582	-0.003460	0.373299
H57	H	1.042221	-0.099470	0.383301
H58	H	1.068935	0.053319	0.232451
H59	H	1.006574	-0.042706	0.242436
C60	C	0.764467	0.440588	0.247662
C61	C	0.813339	0.362729	0.203700
H62	H	0.730262	0.495072	0.206307
H63	H	0.733819	0.391749	0.288238
H64	H	0.796177	0.487764	0.278243
H65	H	0.781629	0.315547	0.173123
H66	H	0.843990	0.411575	0.163108
H67	H	0.847794	0.307953	0.799780
C68	C	0.555392	0.263293	-0.213054
C69	C	0.540804	0.160247	-0.151059
H70	H	0.530003	0.258435	-0.267479
H71	H	0.535288	0.337157	-0.193194
H72	H	0.610779	0.264159	-0.220544
H73	H	0.485416	0.159387	-0.143564
H74	H	0.560903	0.086364	-0.170923
H75	H	1.010614	0.048560	0.442175
C76	C	0.941292	-0.273069	-0.112222
C77	C	0.939091	-0.400858	-0.109996
H78	H	0.944769	-0.233263	-0.171255
H79	H	0.894491	-0.240437	-0.087998
H80	H	0.986118	-0.258842	-0.078932
H81	H	0.894261	-0.415085	-0.143281
H82	H	0.985896	-0.433500	-0.134232
C83	C	0.113639	0.258017	-0.130250
C84	C	0.168218	0.153878	-0.106051
H85	H	0.088245	0.253160	-0.184672
H86	H	0.075193	0.260372	-0.086467
H87	H	0.140468	0.331147	-0.136037
H88	H	0.141388	0.080749	-0.100257
H89	H	0.206669	0.151512	-0.149844
C90	C	1.105058	-0.101819	0.760416
C91	C	1.061712	-0.032785	0.688030
H92	H	1.142146	-0.160910	0.741037
H93	H	1.132391	-0.047685	0.789646
H94	H	1.070031	-0.143698	0.799649
H95	H	1.096738	0.009101	0.648800
H96	H	1.034378	-0.086927	0.658786
H97	H	0.855504	0.295629	0.637429
H98	H	0.819984	0.352157	0.383434
C99	C	0.793497	0.169437	-0.118084
C100	C	0.713420	0.165665	-0.139748
H101	H	0.823905	0.166317	-0.168851
H102	H	0.800343	0.244158	-0.096471
H103	H	0.810553	0.100377	-0.074248
H104	H	0.696363	0.234730	-0.183580
H105	H	0.706571	0.090935	-0.161374
C106	C	0.641200	0.193779	0.250166
C107	C	0.697898	0.190317	0.185642
H108	H	0.666592	0.198624	0.304592
H109	H	0.604176	0.264415	0.233739
H110	H	0.614389	0.120633	0.255937
H111	H	0.724706	0.263468	0.179867
H112	H	0.734936	0.119674	0.202074
H113	H	0.165477	0.177230	0.198020
H114	H	0.328064	0.160591	-0.073430
