data_functionalizedCrystal
_audit_creation_method	'MofGen! by Chris Wilmer'
_symmetry_space_group_name_H-M	'P1'
_symmetry_Int_Tables_number	1
_symmetry_cell_setting	triclinic
loop_
_symmetry_equiv_pos_as_xyz
  x,y,z
_cell_length_a	12.759401
_cell_length_b	16.120484
_cell_length_c	12.759393
_cell_angle_alpha	87.136129
_cell_angle_beta	90.018713
_cell_angle_gamma	92.926992
loop_
_atom_site_label
_atom_site_type_symbol
_atom_site_fract_x
_atom_site_fract_y
_atom_site_fract_z
Zn1	Zn	1.584961	-0.331832	0.615183
Zn2	Zn	1.575916	-0.471267	0.448395
Zn3	Zn	1.409263	-0.331876	0.439521
Zn4	Zn	1.400312	-0.471209	0.624029
O5	O	1.492613	-0.401546	0.531782
O6	O	1.730781	-0.350334	0.593070
O7	O	1.553770	-0.452820	0.300200
O8	O	1.440101	-0.215205	0.455406
O9	O	1.724136	-0.452777	0.470532
O10	O	1.569186	-0.215172	0.584465
O11	O	1.431331	-0.350410	0.293680
O12	O	1.261055	-0.350353	0.463984
O13	O	1.424845	-0.452677	0.769874
O14	O	1.254479	-0.452721	0.599541
O15	O	1.560506	-0.350278	0.763374
O16	O	1.545090	-0.587925	0.479110
O17	O	1.416075	-0.587882	0.608147
C18	C	1.219646	-0.401536	0.531760
C19	C	1.102869	-0.401552	0.531777
C20	C	1.044605	-0.454935	0.602261
C21	C	0.934880	-0.454939	0.602282
C22	C	0.941694	-0.348172	0.461326
C23	C	1.051416	-0.348165	0.461311
C24	C	0.783061	-0.484853	0.728051
C25	C	0.724792	-0.538250	0.798526
C26	C	0.755171	-0.619611	0.819663
C27	C	0.843816	-0.647592	0.770310
C28	C	0.902078	-0.594200	0.699827
C29	C	0.871702	-0.512827	0.678709
C30	C	1.203237	-0.318259	0.335542
C31	C	1.261502	-0.264870	0.265053
C32	C	1.231125	-0.183508	0.243905
C33	C	1.142477	-0.155530	0.293240
C34	C	1.084212	-0.208918	0.363729
C35	C	1.114597	-0.290280	0.384878
C36	C	1.478658	-0.618154	0.545574
C37	C	1.472784	-0.710819	0.551509
C38	C	1.462066	-0.880481	0.562368
C39	C	1.523348	-0.921771	0.501213
C40	C	1.517384	-1.016177	0.507255
C41	C	1.468028	-0.786067	0.556327
C42	C	1.766645	-0.401557	0.531804
C43	C	1.883422	-0.401562	0.531814
C44	C	1.492686	-0.401466	0.805810
C45	C	1.492717	-0.401432	0.922585
C46	C	1.506651	-0.184093	0.517959
C47	C	1.512633	-0.091427	0.512068
C48	C	1.492604	-0.401566	0.258816
C49	C	1.492792	-0.401365	0.142027
C50	C	1.422103	-0.454727	0.980831
C51	C	1.422142	-0.454696	1.090553
C52	C	1.563414	-0.348068	1.083773
C53	C	1.563378	-0.348104	0.974053
C54	C	1.378303	-0.552967	1.246755
C55	C	1.307673	-0.606255	1.305004
C56	C	1.204321	-0.619061	1.270205
C57	C	1.171579	-0.578567	1.177158
C58	C	1.242204	-0.525273	1.118914
C59	C	1.345569	-0.512483	1.153712
C60	C	1.607207	-0.249831	0.817849
C61	C	1.677828	-0.196533	0.759603
C62	C	1.781182	-0.183718	0.794399
C63	C	1.813921	-0.224197	0.887449
C64	C	1.743301	-0.277496	0.945695
C65	C	1.639947	-0.290311	0.910892
H66	H	1.333683	-0.287658	0.224881
O67	O	1.591185	-0.879238	0.433355
C68	C	1.582121	-0.793082	0.442359
H69	H	1.501754	-0.781332	0.475970
H70	H	1.645950	-0.768282	0.496797
C71	C	1.693269	-0.762775	0.291973
C72	C	1.594557	-0.748343	0.333247
H73	H	1.700944	-0.735177	0.224669
H74	H	1.699379	-0.820820	0.285909
H75	H	1.746449	-0.742108	0.337348
H76	H	1.541379	-0.769019	0.287879
H77	H	1.588438	-0.690300	0.339301
O78	O	1.394155	-0.923013	0.630141
C79	C	1.403259	-1.009167	0.621163
H80	H	1.436993	-1.020977	0.540858
H81	H	1.457640	-1.033802	0.685081
C82	C	1.252740	-1.039542	0.732125
C83	C	1.294165	-1.054048	0.633489
H84	H	1.185447	-1.067228	0.739733
H85	H	1.246608	-0.981498	0.738177
H86	H	1.298067	-1.060071	0.785378
H87	H	1.248844	-1.033510	0.580238
H88	H	1.300286	-1.112090	0.627428
H89	H	1.227985	-0.384509	0.352764
H90	H	1.364560	-0.498145	0.938929
O91	O	1.631944	-0.296291	1.133935
C92	C	1.616852	-0.307699	1.243268
H93	H	1.534013	-0.334993	1.259988
H94	H	1.676311	-0.352089	1.277232
C95	C	1.733689	-0.189803	1.273696
C96	C	1.631942	-0.223320	1.294232
H97	H	1.743002	-0.137756	1.305135
H98	H	1.743861	-0.182119	1.200036
H99	H	1.783227	-0.226803	1.302000
H100	H	1.582407	-0.186326	1.265916
H101	H	1.621762	-0.230997	1.367888
O102	O	1.210263	-0.486057	1.028513
C103	C	1.103888	-0.508776	1.010291
H104	H	1.082548	-0.570948	1.053498
H105	H	1.052473	-0.459127	1.040088
C106	C	1.112183	-0.440316	0.838704
C107	C	1.085975	-0.516680	0.891764
H108	H	1.101131	-0.445189	0.765591
H109	H	1.183849	-0.425007	0.850981
H110	H	1.069334	-0.398950	0.863546
H111	H	1.128832	-0.558042	0.866931
H112	H	1.014315	-0.531997	0.879480
O113	O	1.071143	-0.591103	1.143502
C114	C	1.015816	-0.646796	1.214885
H115	H	1.073713	-0.686134	1.260661
H116	H	0.969609	-0.610210	1.271711
C117	C	0.868480	-0.655599	1.098036
C118	C	0.939589	-0.703920	1.154253
H119	H	0.821455	-0.690834	1.060637
H120	H	0.905752	-0.618075	1.049945
H121	H	0.829985	-0.625114	1.145401
H122	H	0.978092	-0.734397	1.106887
H123	H	0.902322	-0.741451	1.202334
O124	O	1.135856	-0.670878	1.326889
C125	C	1.186905	-0.703849	1.416489
H126	H	1.275204	-0.701123	1.402028
H127	H	1.169099	-0.665857	1.486753
C128	C	1.038994	-0.798219	1.456742
C129	C	1.147444	-0.794876	1.438978
H130	H	1.014650	-0.854367	1.470618
H131	H	1.004599	-0.776003	1.396379
H132	H	1.024169	-0.766554	1.515293
H133	H	1.162266	-0.826532	1.380419
H134	H	1.181841	-0.817099	1.499331
H135	H	1.334341	-0.639224	1.380764
O136	O	1.775283	-0.316778	1.036042
C137	C	1.881642	-0.294020	1.054288
H138	H	1.921112	-0.272124	0.976941
H139	H	1.887083	-0.241557	1.111044
C140	C	1.888678	-0.396505	1.197034
C141	C	1.937157	-0.369617	1.102033
H142	H	1.922922	-0.443134	1.226490
H143	H	1.817021	-0.411835	1.184745
H144	H	1.893216	-0.352778	1.244319
H145	H	1.932607	-0.413340	1.054747
H146	H	2.008815	-0.354296	1.114316
O147	O	1.914371	-0.211690	0.921084
C148	C	1.969675	-0.155955	0.849735
H149	H	1.929910	-0.156931	0.769754
H150	H	1.969955	-0.090442	0.879537
C151	C	2.132265	-0.181051	0.937813
C152	C	2.083430	-0.182255	0.839577
H153	H	2.202436	-0.197271	0.931550
H154	H	2.095006	-0.218598	0.985885
H155	H	2.132488	-0.126455	0.962638
H156	H	2.083195	-0.236852	0.814760
H157	H	2.120692	-0.144717	0.791500
O158	O	0.698483	-0.671362	0.888187
C159	C	0.613716	-0.629228	0.927189
H160	H	0.632506	-0.559293	0.919427
H161	H	0.539976	-0.645284	0.880345
C162	C	0.572271	-0.741884	1.053088
C163	C	0.595353	-0.655987	1.043563
H164	H	0.560939	-0.758392	1.124871
H165	H	0.629377	-0.770272	1.026810
H166	H	0.510823	-0.755252	1.014045
H167	H	0.656806	-0.642622	1.082594
H168	H	0.538256	-0.627598	1.069850
H169	H	1.838677	-0.140308	0.746971
H170	H	1.462463	-0.542554	1.275090
O171	O	1.506829	-0.262160	0.783921
C172	C	1.493081	-0.215012	0.689296
H173	H	1.554299	-0.160933	0.683606
H174	H	1.502651	-0.256130	0.620139
C175	C	1.307253	-0.247440	0.694029
C176	C	1.382436	-0.181014	0.687045
H177	H	1.239001	-0.226471	0.692637
H178	H	1.316515	-0.279207	0.757778
H179	H	1.315241	-0.281699	0.636396
H180	H	1.374456	-0.146763	0.744684
H181	H	1.373170	-0.149240	0.623306
O182	O	0.873200	-0.726646	0.790989
C183	C	0.802754	-0.767778	0.863761
H184	H	0.762567	-0.719875	0.910378
H185	H	0.741113	-0.806320	0.820078
C186	C	0.912710	-0.884187	0.882033
C187	C	0.863359	-0.825352	0.939296
H188	H	0.950092	-0.919705	0.928624
H189	H	0.960170	-0.856478	0.833002
H190	H	0.861334	-0.916297	0.845633
H191	H	0.914736	-0.793236	0.975683
H192	H	0.815909	-0.853057	0.988335
O193	O	1.646236	-0.157247	0.669106
C194	C	1.707862	-0.180733	0.584889
H195	H	1.785763	-0.203147	0.616143
H196	H	1.664455	-0.233027	0.543035
C197	C	1.632905	-0.077942	0.468830
C198	C	1.728588	-0.105464	0.507215
H199	H	1.645687	-0.031514	0.420913
H200	H	1.591383	-0.062121	0.525567
H201	H	1.596742	-0.121527	0.433958
H202	H	1.764743	-0.061883	0.542097
H203	H	1.770117	-0.121276	0.450481
H204	H	1.086494	-0.498404	0.659642
H205	H	1.012036	-0.186129	0.403907
H206	H	0.652619	-0.515460	0.838710
H207	H	0.758325	-0.418600	0.710858
O208	O	0.988172	-0.621496	0.651999
C209	C	1.002470	-0.704772	0.685731
H210	H	0.962415	-0.718601	0.764982
H211	H	0.966631	-0.748053	0.625871
C212	C	1.169803	-0.701608	0.599049
C213	C	1.120615	-0.718591	0.696390
H214	H	1.242680	-0.710134	0.605620
H215	H	1.160169	-0.645505	0.576319
H216	H	1.139926	-0.737677	0.549176
H217	H	1.150483	-0.682515	0.746258
H218	H	1.130256	-0.774689	0.719129
H219	H	1.117731	-0.089283	0.276005
O220	O	1.287863	-0.131743	0.175432
C221	C	1.372598	-0.173888	0.136385
H222	H	1.391641	-0.227402	0.193886
H223	H	1.350482	-0.199442	0.057199
C224	C	1.445919	-0.047392	0.052404
C225	C	1.469315	-0.113115	0.123032
H226	H	1.505578	-0.009905	0.044162
H227	H	1.388830	-0.018998	0.078706
H228	H	1.427488	-0.068697	-0.013577
H229	H	1.487733	-0.091811	0.189014
H230	H	1.526410	-0.141504	0.096740
H231	H	0.899788	-0.304708	0.403953
