data_functionalizedCrystal
_audit_creation_method	'MofGen! by Chris Wilmer'
_symmetry_space_group_name_H-M	'P1'
_symmetry_Int_Tables_number	1
_symmetry_cell_setting	triclinic
loop_
_symmetry_equiv_pos_as_xyz
  x,y,z
_cell_length_a	10.654545
_cell_length_b	10.654550
_cell_length_c	9.730223
_cell_angle_alpha	89.998521
_cell_angle_beta	89.997167
_cell_angle_gamma	84.484004
loop_
_atom_site_label
_atom_site_type_symbol
_atom_site_fract_x
_atom_site_fract_y
_atom_site_fract_z
O1	O	1.667842	0.176372	-0.114266
O2	O	2.167842	0.676372	0.385734
O3	O	1.302363	0.193184	-0.114271
O4	O	1.802363	0.693184	0.385729
O5	O	1.493506	0.002038	-0.114270
O6	O	1.993506	0.502038	0.385730
O7	O	1.476700	0.367517	-0.114268
O8	O	1.976700	0.867517	0.385732
O9	O	1.493493	0.002033	0.114310
O10	O	1.993493	0.502033	0.614310
O11	O	1.302351	0.193178	0.114309
O12	O	1.802351	0.693178	0.614309
O13	O	1.667830	0.176366	0.114313
O14	O	2.167830	0.676366	0.614313
Zn15	Zn	1.485088	0.184771	0.150603
Zn16	Zn	1.985088	0.684771	0.650603
Zn17	Zn	1.485105	0.184778	-0.150561
Zn18	Zn	1.985105	0.684778	0.349439
O19	O	1.476687	0.367512	0.114312
O20	O	1.976687	0.867512	0.614312
C21	C	1.255559	0.191948	0.000018
C22	C	1.755559	0.691948	0.500018
C23	C	1.116115	0.188258	0.000016
C24	C	1.616115	0.688258	0.500016
C25	C	1.492266	-0.044762	0.000017
C26	C	1.992266	0.455238	0.500017
C27	C	1.488574	-0.184206	0.000007
C28	C	1.988574	0.315794	0.500007
C29	C	1.483364	-0.380743	-0.124581
C30	C	1.983364	0.119257	0.375419
C31	C	1.486845	-0.249723	-0.124590
C32	C	1.986845	0.250277	0.375410
C33	C	1.486833	-0.249717	0.124621
C34	C	1.986833	0.250283	0.624621
C35	C	1.483360	-0.380736	0.124628
C36	C	1.983360	0.119264	0.624628
C37	C	1.050604	0.186518	0.124615
C38	C	1.550604	0.686518	0.624615
C39	C	0.919585	0.183031	0.124615
C40	C	1.419585	0.683031	0.624615
C41	C	0.919599	0.183028	-0.124595
C42	C	1.419599	0.683028	0.375405
C43	C	1.050617	0.186507	-0.124594
C44	C	1.550617	0.686507	0.375406
C45	C	1.714634	0.177602	0.000021
C46	C	2.214634	0.677602	0.500021
C47	C	1.854078	0.181292	0.000014
C48	C	2.354078	0.681292	0.500014
C49	C	1.477927	0.414312	0.000022
C50	C	1.977927	0.914312	0.500022
C51	C	1.481619	0.553755	0.000023
C52	C	1.981619	1.053755	0.500023
N53	N	1.485086	0.184766	0.356139
N54	N	1.985086	0.684766	0.856139
N55	N	1.485117	0.184774	-0.356097
N56	N	1.985117	0.684774	0.143903
C57	C	1.569753	0.100163	0.428066
C58	C	2.069753	0.600163	0.928066
C59	C	1.569766	0.100163	0.571949
C60	C	2.069766	0.600163	1.071949
C61	C	1.400440	0.269381	0.571966
C62	C	1.900440	0.769381	1.071966
C63	C	1.400423	0.269374	0.428086
C64	C	1.900423	0.769374	0.928086
H65	H	1.481945	-0.434076	-0.226043
H66	H	1.981945	0.065924	0.273957
F67	F	1.659857	0.010113	0.351501
F68	F	2.159857	0.510113	0.851501
F69	F	0.849868	0.181180	0.257232
F70	F	1.349868	0.681180	0.757232
H71	H	1.638708	0.031270	0.630508
H72	H	2.138708	0.531270	1.130508
H73	H	1.488248	-0.196363	0.226070
H74	H	1.988248	0.303637	0.726070
H75	H	1.481944	-0.434069	0.226101
H76	H	1.981944	0.065931	0.726101
H77	H	1.103929	0.187944	0.226080
H78	H	1.603929	0.687944	0.726080
H79	H	1.331511	0.338269	0.630559
H80	H	1.831511	0.838269	1.130559
F81	F	0.849883	0.181139	-0.257205
F82	F	1.349883	0.681139	0.242795
H83	H	1.103958	0.187920	-0.226064
H84	H	1.603958	0.687920	0.273936
H85	H	1.488267	-0.196398	-0.226055
H86	H	1.988267	0.303602	0.273945
F87	F	1.310299	0.359419	0.351530
F88	F	1.810299	0.859419	0.851530
