data_functionalizedCrystal
_audit_creation_method	'MofGen! by Chris Wilmer'
_symmetry_space_group_name_H-M	'P1'
_symmetry_Int_Tables_number	1
_symmetry_cell_setting	triclinic
loop_
_symmetry_equiv_pos_as_xyz
  x,y,z
_cell_length_a	16.109302
_cell_length_b	13.596369
_cell_length_c	16.109304
_cell_angle_alpha	90.003178
_cell_angle_beta	83.462209
_cell_angle_gamma	90.007269
loop_
_atom_site_label
_atom_site_type_symbol
_atom_site_fract_x
_atom_site_fract_y
_atom_site_fract_z
O1	O	1.103133	0.081829	0.106871
O2	O	0.861072	0.081821	0.120170
O3	O	0.988751	0.081826	-0.007510
O4	O	0.975454	0.081824	0.234551
O5	O	0.988738	-0.081757	-0.007517
O6	O	0.861059	-0.081762	0.120163
O7	O	1.103121	-0.081754	0.106865
Zn8	Zn	0.982088	-0.107730	0.113513
Zn9	Zn	0.982105	0.107797	0.113522
O10	O	0.975441	-0.081759	0.234545
C11	C	0.830090	0.000028	0.119628
C12	C	0.737795	0.000025	0.118012
C13	C	0.525447	-0.089134	0.114274
C14	C	0.438727	-0.089130	0.112747
C15	C	0.438752	0.089217	0.112758
C16	C	0.525471	0.089212	0.114279
C17	C	0.568816	0.000034	0.115041
C18	C	0.395377	0.000042	0.111994
C19	C	0.301351	0.000046	0.110338
C20	C	0.662848	0.000029	0.116695
N21	N	0.982082	-0.254822	0.113506
C22	C	0.982103	-0.656113	0.113523
C23	C	0.982095	-0.544462	0.113521
C24	C	0.982093	-0.455471	0.113515
C25	C	0.982084	-0.343813	0.113512
C26	C	1.134102	0.000041	0.107407
C27	C	1.226397	0.000050	0.109022
C28	C	0.988206	0.000037	-0.038488
C29	C	0.986590	0.000043	-0.130784
N30	N	0.982116	0.254889	0.113522
C31	C	0.982863	0.089209	-0.343117
C32	C	0.981337	0.089208	-0.429837
C33	C	0.981327	-0.089140	-0.429842
C34	C	0.982847	-0.089138	-0.343122
C35	C	0.983619	0.000039	-0.299763
C36	C	0.980573	0.000036	-0.473202
C37	C	0.978918	0.000035	-0.567228
C38	C	0.985272	0.000042	-0.205731
C39	C	0.975987	0.000033	0.265523
C40	C	0.977603	0.000033	0.357818
H41	H	0.560736	-0.161749	0.114894
O42	O	0.396585	0.175813	0.112175
C43	C	0.289215	0.279285	0.182431
C44	C	0.336915	0.181189	0.183202
H45	H	0.240950	0.283655	0.239841
H46	H	0.335064	0.343057	0.183293
H47	H	0.256278	0.283736	0.123546
H48	H	0.369854	0.176643	0.242077
H49	H	0.291027	0.117464	0.182296
O50	O	0.980566	0.175739	-0.472075
C51	C	0.978277	0.254782	-0.605673
C52	C	0.979129	0.156711	-0.557941
H53	H	0.977132	0.239433	-0.675106
H54	H	0.920416	0.298768	-0.581054
H55	H	1.036717	0.298756	-0.596197
H56	H	0.920729	0.112658	-0.567397
H57	H	1.037028	0.112800	-0.582569
O58	O	0.983470	-0.175824	-0.301079
C59	C	0.911914	-0.328231	-0.265061
C60	C	0.911118	-0.230111	-0.312730
H61	H	0.853416	-0.372140	-0.274449
H62	H	0.969722	-0.372272	-0.289744
H63	H	0.913170	-0.312884	-0.195642
H64	H	0.909833	-0.245369	-0.382156
H65	H	0.853316	-0.186100	-0.287978
H66	H	0.983489	0.161822	-0.307816
H67	H	0.403420	-0.161740	0.112122
H68	H	0.560783	0.161828	0.114902
H69	H	0.980700	-0.161744	-0.465156
