data_functionalizedCrystal
_audit_creation_method	'MofGen! by Chris Wilmer'
_symmetry_space_group_name_H-M	'P1'
_symmetry_Int_Tables_number	1
_symmetry_cell_setting	triclinic
loop_
_symmetry_equiv_pos_as_xyz
  x,y,z
_cell_length_a	14.971486
_cell_length_b	15.944493
_cell_length_c	13.448316
_cell_angle_alpha	89.999270
_cell_angle_beta	89.998199
_cell_angle_gamma	83.544586
loop_
_atom_site_label
_atom_site_type_symbol
_atom_site_fract_x
_atom_site_fract_y
_atom_site_fract_z
O1	O	1.186805	0.109466	-0.082564
O2	O	1.686805	0.609466	0.417436
O3	O	0.926388	0.122575	-0.082590
O4	O	1.426388	0.622575	0.417410
O5	O	1.063735	-0.006251	-0.082585
O6	O	1.563735	0.493749	0.417415
O7	O	1.049458	0.238292	-0.082569
O8	O	1.549458	0.738292	0.417431
O9	O	1.063718	-0.006259	0.082799
O10	O	1.563718	0.493741	0.582799
O11	O	0.926371	0.122567	0.082794
O12	O	1.426371	0.622567	0.582794
O13	O	1.186788	0.109458	0.082820
O14	O	1.686788	0.609458	0.582820
Cu15	Cu	1.056578	0.116012	0.097908
Cu16	Cu	1.556578	0.616012	0.597908
Cu17	Cu	1.056598	0.116022	-0.097678
Cu18	Cu	1.556598	0.616022	0.402322
O19	O	1.049441	0.238284	0.082814
O20	O	1.549441	0.738284	0.582814
C21	C	0.893055	0.121985	0.000099
C22	C	1.393055	0.621985	0.500099
C23	C	0.793760	0.120228	0.000088
C24	C	1.293760	0.620228	0.500088
C25	C	0.736437	0.195910	0.000094
C26	C	1.236437	0.695910	0.500094
C27	C	0.643139	0.194254	0.000109
C28	C	1.143139	0.694254	0.500109
C29	C	0.607168	0.116916	0.000111
C30	C	1.107168	0.616916	0.500111
C31	C	0.664499	0.041228	0.000108
C32	C	1.164499	0.541228	0.500108
C33	C	0.757794	0.042885	0.000100
C34	C	1.257794	0.542885	0.500100
C35	C	0.470041	0.037781	0.000121
C36	C	0.970041	0.537781	0.500121
C37	C	0.376739	0.036124	0.000127
C38	C	0.876739	0.536124	0.500127
C39	C	0.355386	0.189150	0.000130
C40	C	0.855386	0.689150	0.500130
C41	C	0.448681	0.190807	0.000123
C42	C	0.948681	0.690807	0.500123
C43	C	0.506006	0.115119	0.000118
C44	C	1.006006	0.615119	0.500118
C45	C	1.063143	-0.037550	0.000103
C46	C	1.563143	0.462450	0.500103
C47	C	1.061393	-0.130800	0.000090
C48	C	1.561393	0.369200	0.500090
C49	C	1.142239	-0.366483	0.000117
C50	C	1.642239	0.133517	0.500117
C51	C	1.098650	-0.417089	-0.081430
C52	C	1.598650	0.082911	0.418570
C53	C	1.058152	-0.301524	0.000102
C54	C	1.558152	0.198476	0.500102
C55	C	1.098614	-0.417073	0.081626
C56	C	1.598614	0.082927	0.581626
C57	C	1.055027	-0.466437	0.000118
C58	C	1.555027	0.033563	0.500118
C59	C	1.014586	-0.350902	-0.081512
C60	C	1.514586	0.149098	0.418488
C61	C	1.014562	-0.350882	0.081617
C62	C	1.514562	0.149118	0.581617
C63	C	0.970911	-0.401455	0.000050
C64	C	1.470911	0.098545	0.500050
C65	C	1.059954	-0.206523	0.000092
C66	C	1.559954	0.293477	0.500092
C67	C	1.053218	-0.561436	0.000121
C68	C	1.553218	-0.061436	0.500121
C69	C	1.220120	0.110049	0.000129
C70	C	1.720120	0.610049	0.500129
C71	C	1.319415	0.111805	0.000133
C72	C	1.819415	0.611805	0.500133
C73	C	1.050033	0.269584	0.000125
C74	C	1.550033	0.769584	0.500125
C75	C	1.051782	0.362834	0.000131
C76	C	1.551782	0.862834	0.500131
N77	N	1.056570	0.116005	0.235472
N78	N	1.556570	0.616005	0.735472
N79	N	1.056613	0.116022	-0.235242
N80	N	1.556613	0.616022	0.264758
C81	C	1.117406	0.058984	0.287515
C82	C	1.617406	0.558984	0.787515
C83	C	1.117411	0.058984	0.391618
C84	C	1.617411	0.558984	0.891618
C85	C	1.056585	0.116008	0.443677
C86	C	1.556585	0.616008	0.943677
C87	C	0.995742	0.173032	0.391627
C88	C	1.495742	0.673032	0.891627
C89	C	0.995733	0.173028	0.287525
C90	C	1.495733	0.673028	0.787525
C91	C	0.995767	0.173037	0.608607
C92	C	1.495767	0.673037	1.108607
C93	C	0.995777	0.173043	0.712715
C94	C	1.495777	0.673043	1.212715
C95	C	1.117445	0.058993	0.712699
C96	C	1.617445	0.558993	1.212699
C97	C	1.117436	0.058989	0.608598
C98	C	1.617436	0.558989	1.108598
C99	C	1.056595	0.116014	0.556555
C100	C	1.556595	0.616014	1.056555
H101	H	0.804467	-0.018743	0.000094
H102	H	1.304467	0.481257	0.500094
H103	H	1.166948	0.012553	0.433991
H104	H	1.666948	0.512553	0.933991
O105	O	0.337942	-0.047292	0.000147
O106	O	0.837942	0.452708	0.500147
H107	H	0.263438	-0.035725	0.000145
H108	H	0.763438	0.464275	0.500145
H109	H	0.635203	-0.021742	0.000123
H110	H	1.135203	0.478258	0.500123
O111	O	0.874897	-0.422037	-0.000015
O112	O	1.374897	0.077963	0.499985
H113	H	0.862631	-0.458852	0.067708
H114	H	1.362631	0.041148	0.567708
O115	O	0.531866	-0.043857	0.000115
O116	O	1.031866	0.456143	0.500115
H117	H	0.574879	-0.046770	0.067525
H118	H	1.074879	0.453230	0.567525
H119	H	1.166970	0.012560	0.566212
H120	H	1.666970	0.512560	1.066212
O121	O	0.293560	0.270786	0.000141
O122	O	0.793560	0.770786	0.500141
H123	H	0.306359	0.307793	0.067543
H124	H	0.806359	0.807793	0.567543
H125	H	1.166942	0.012552	0.245135
H126	H	1.666942	0.512552	0.745135
H127	H	1.214669	-0.350786	0.000042
H128	H	1.714669	0.149214	0.500042
O129	O	1.145693	-0.455402	-0.172734
O130	O	1.645693	0.044598	0.327266
H131	H	1.216760	-0.441705	-0.172559
H132	H	1.716760	0.058295	0.327441
H133	H	0.979102	-0.322112	-0.150527
H134	H	1.479102	0.177888	0.349473
O135	O	1.183073	-0.002517	0.768815
O136	O	1.683073	0.497483	1.268815
H137	H	1.145444	-0.043414	0.816243
H138	H	1.645444	0.456586	1.316243
O139	O	0.967556	-0.312554	0.172928
O140	O	1.467556	0.187446	0.672928
H141	H	1.002607	-0.339184	0.240525
H142	H	1.502607	0.160816	0.740525
O143	O	0.775232	0.279326	0.000090
O144	O	1.275232	0.779326	0.500090
H145	H	0.817235	0.283733	0.067491
H146	H	1.317235	0.783733	0.567491
O147	O	1.145652	-0.455346	0.172952
O148	O	1.645652	0.044654	0.672952
H149	H	1.216711	-0.441626	0.172780
H150	H	1.716711	0.058374	0.672780
H151	H	0.946244	0.219477	0.755096
H152	H	1.446244	0.719477	1.255096
H153	H	0.946211	0.219459	0.434019
H154	H	1.446211	0.719459	0.934019
O155	O	0.930151	0.234545	0.552469
O156	O	1.430151	0.734545	1.052469
H157	H	0.887863	0.274206	0.606155
H158	H	1.387863	0.774206	1.106155
H159	H	0.946193	0.219458	0.245153
H160	H	1.446193	0.719458	0.745153
H161	H	0.477966	0.253782	0.000112
H162	H	0.977966	0.753782	0.500112
H163	H	0.596469	0.255882	0.000113
H164	H	1.096469	0.755882	0.500113
