data_functionalizedCrystal
_audit_creation_method	'MofGen! by Chris Wilmer'
_symmetry_space_group_name_H-M	'P1'
_symmetry_Int_Tables_number	1
_symmetry_cell_setting	triclinic
loop_
_symmetry_equiv_pos_as_xyz
  x,y,z
_cell_length_a	21.295420
_cell_length_b	21.295412
_cell_length_c	21.295418
_cell_angle_alpha	90.026512
_cell_angle_beta	89.975831
_cell_angle_gamma	89.976453
loop_
_atom_site_label
_atom_site_type_symbol
_atom_site_fract_x
_atom_site_fract_y
_atom_site_fract_z
Zn1	Zn	0.962358	-0.355930	0.250696
Zn2	Zn	1.462358	0.144070	0.750696
Zn3	Zn	0.962266	-0.250663	0.355964
Zn4	Zn	1.462266	0.249337	0.855964
Zn5	Zn	0.857083	-0.250675	0.250705
Zn6	Zn	1.357083	0.249325	0.750705
Zn7	Zn	0.857055	-0.355895	0.355923
Zn8	Zn	1.357055	0.144105	0.855923
O9	O	0.909691	-0.303291	0.303322
O10	O	1.409691	0.196709	0.803322
O11	O	1.050435	-0.341976	0.264673
O12	O	1.550435	0.158024	0.764673
O13	O	0.948287	-0.162575	0.342022
O14	O	1.448287	0.337425	0.842022
O15	O	0.871099	-0.264657	0.162614
O16	O	1.371099	0.235343	0.662614
O17	O	1.050368	-0.264637	0.342013
O18	O	1.550368	0.235363	0.842013
O19	O	0.948444	-0.341988	0.162608
O20	O	1.448444	0.158012	0.662608
O21	O	0.871010	-0.162584	0.264689
O22	O	1.371010	0.337416	0.764689
O23	O	0.768990	-0.264623	0.264649
O24	O	1.268990	0.235377	0.764649
O25	O	0.871050	-0.443989	0.341944
O26	O	1.371050	0.056011	0.841944
O27	O	0.768969	-0.341927	0.341953
O28	O	1.268969	0.158073	0.841953
O29	O	0.948416	-0.444015	0.264633
O30	O	1.448416	0.055985	0.764633
O31	O	0.948259	-0.264603	0.444048
O32	O	1.448259	0.235397	0.944048
O33	O	0.870961	-0.341916	0.444018
O34	O	1.370961	0.158084	0.944018
C35	C	0.746139	-0.303273	0.303298
C36	C	1.246139	0.196727	0.803298
C37	C	0.676171	-0.303280	0.303303
C38	C	1.176171	0.196720	0.803303
C39	C	0.176747	-0.343636	0.263146
C40	C	0.676747	0.156364	0.763146
C41	C	0.242490	-0.343636	0.263141
C42	C	0.742490	0.156364	0.763141
C43	C	0.275331	-0.303305	0.303341
C44	C	0.775331	0.196695	0.803341
C45	C	0.242425	-0.262983	0.343560
C46	C	0.742425	0.237017	0.843560
C47	C	0.176684	-0.262989	0.343568
C48	C	0.676684	0.237011	0.843568
N49	N	0.378522	-0.248186	0.308085
N50	N	0.878522	0.251814	0.808085
N51	N	0.440974	-0.248183	0.308074
N52	N	0.940974	0.251817	0.808074
C53	C	0.473406	-0.303287	0.303320
C54	C	0.973406	0.196713	0.803320
N55	N	0.441028	-0.358396	0.298566
N56	N	0.941028	0.141604	0.798566
N57	N	0.378570	-0.358399	0.298574
N58	N	0.878570	0.141601	0.798574
C59	C	0.346617	-0.303295	0.303337
C60	C	0.846617	0.196705	0.803337
C61	C	0.577590	-0.343610	0.263102
C62	C	1.077590	0.156390	0.763102
C63	C	0.643334	-0.343611	0.263102
C64	C	1.143334	0.156389	0.763102
C65	C	0.643268	-0.262952	0.343517
C66	C	1.143268	0.237048	0.843517
C67	C	0.577525	-0.262957	0.343521
C68	C	1.077525	0.237043	0.843521
C69	C	0.544690	-0.303285	0.303310
C70	C	1.044690	0.196715	0.803310
C71	C	0.909740	-0.467481	0.303283
C72	C	1.409740	0.032519	0.803283
C73	C	0.909761	-0.537449	0.303266
C74	C	1.409761	-0.037449	0.803266
C75	C	0.869533	-0.570311	0.262994
C76	C	1.369533	-0.070311	0.762994
C77	C	0.869531	-0.636053	0.262982
C78	C	1.369531	-0.136053	0.762982
C79	C	0.909768	-0.668932	0.303236
C80	C	1.409768	-0.168932	0.803236
C81	C	0.949998	-0.636063	0.343516
C82	C	1.449998	-0.136063	0.843516
C83	C	0.949995	-0.570321	0.343531
C84	C	1.449995	-0.070321	0.843531
N85	N	0.964872	-0.772170	0.308048
N86	N	1.464872	-0.272170	0.808048
N87	N	0.964874	-0.834622	0.308030
N88	N	1.464874	-0.334622	0.808030
C89	C	0.909779	-0.867007	0.303194
C90	C	1.409779	-0.367007	0.803194
N91	N	0.854682	-0.834581	0.298365
N92	N	1.354682	-0.334581	0.798365
N93	N	0.854681	-0.772123	0.298380
N94	N	1.354681	-0.272123	0.798380
C95	C	0.909775	-0.740217	0.303225
C96	C	1.409775	-0.240217	0.803225
C97	C	0.869546	-0.971154	0.262907
C98	C	1.369546	-0.471154	0.762907
C99	C	0.869542	-1.036897	0.262900
C100	C	1.369542	-0.536897	0.762900
C101	C	0.950015	-1.036905	0.343430
C102	C	1.450015	-0.536905	0.843430
C103	C	0.950013	-0.971163	0.343441
C104	C	1.450013	-0.471163	0.843441
C105	C	0.909779	-0.938291	0.303176
C106	C	1.409779	-0.438291	0.803176
C107	C	1.073881	-0.303309	0.303347
C108	C	1.573881	0.196691	0.803347
C109	C	1.143849	-0.303317	0.303357
C110	C	1.643849	0.196683	0.803357
C111	C	0.909614	-0.303268	0.466874
C112	C	1.409614	0.196732	0.966874
C113	C	0.909639	-0.303279	0.536842
C114	C	1.409639	0.196721	1.036842
C115	C	0.909678	-0.139739	0.303316
C116	C	1.409678	0.360261	0.803316
C117	C	0.909779	-0.069771	0.303155
C118	C	1.409779	0.430229	0.803155
C119	C	0.909785	-0.303328	0.139132
C120	C	1.409785	0.196672	0.639132
C121	C	0.909825	-0.303343	0.069164
C122	C	1.409825	0.196657	0.569164
C123	C	0.950043	-0.343637	1.036243
C124	C	1.450043	0.156363	1.536243
C125	C	0.950024	-0.343627	0.970500
C126	C	1.450024	0.156373	1.470500
C127	C	0.909776	-0.303330	0.937681
C128	C	1.409776	0.196670	1.437681
C129	C	0.869556	-0.263028	0.970610
C130	C	1.369556	0.236972	1.470610
C131	C	0.869580	-0.263035	1.036351
C132	C	1.369580	0.236965	1.536351
N133	N	0.854639	-0.298439	0.834507
N134	N	1.354639	0.201561	1.334507
N135	N	0.854618	-0.298437	0.772056
N136	N	1.354618	0.201563	1.272056
C137	C	0.909702	-0.303307	0.739606
C138	C	1.409702	0.196693	1.239606
N139	N	0.964810	-0.308192	0.771968
N140	N	1.464810	0.191808	1.271968
N141	N	0.964830	-0.308197	0.834425
N142	N	1.464830	0.191803	1.334425
C143	C	0.909746	-0.303318	0.866396
C144	C	1.409746	0.196682	1.366396
C145	C	0.949904	-0.343592	0.635400
C146	C	1.449904	0.156408	1.135400
C147	C	0.949886	-0.343578	0.569656
C148	C	1.449886	0.156422	1.069656
C149	C	0.869412	-0.262982	0.569767
C150	C	1.369412	0.237018	1.069767
C151	C	0.869435	-0.262993	0.635510
C152	C	1.369435	0.237007	1.135510
C153	C	0.909680	-0.303301	0.668322
C154	C	1.409680	0.196699	1.168322
H155	H	0.150017	-0.376477	0.230405
H156	H	0.650017	0.123523	0.730405
H157	H	0.836784	-0.944388	0.230122
H158	H	1.336784	-0.444388	0.730122
C159	C	0.860845	-1.110859	0.178219
C160	C	1.360845	-0.610859	0.678219
C161	C	0.825317	-1.073027	0.218638
C162	C	1.325317	-0.573027	0.718638
H163	H	0.833539	-1.133168	0.150898
H164	H	1.333539	-0.633168	0.650898
H165	H	0.888277	-1.085232	0.154146
H166	H	1.388277	-0.585232	0.654146
H167	H	0.884805	-1.139841	0.202203
H168	H	1.384805	-0.639841	0.702203
H169	H	0.801359	-1.044042	0.194654
H170	H	1.301359	-0.544042	0.694654
H171	H	0.797873	-1.098656	0.242713
H172	H	1.297873	-0.598656	0.742713
H173	H	0.982640	-0.376388	0.542852
H174	H	1.482640	0.123612	1.042852
C175	C	0.183223	-0.183261	0.423054
C176	C	0.683223	0.316739	0.923054
C177	C	0.140518	-0.218662	0.387767
C178	C	0.640518	0.281338	0.887767
H179	H	0.160894	-0.155893	0.450336
H180	H	0.660894	0.344107	0.950336
H181	H	0.208867	-0.210644	0.447165
H182	H	0.708867	0.289356	0.947165
H183	H	0.208865	-0.159230	0.395588
H184	H	0.708865	0.340770	0.895588
H185	H	0.114879	-0.242697	0.415233
H186	H	0.614879	0.257303	0.915233
H187	H	0.114863	-0.191275	0.363654
H188	H	0.614863	0.308725	0.863654
H189	H	0.836644	-0.230168	0.543046
H190	H	1.336644	0.269832	1.043046
C191	C	0.789992	-0.576911	0.183391
C192	C	1.289992	-0.076911	0.683391
C193	C	0.825303	-0.534179	0.218741
C194	C	1.325303	-0.034179	0.718741
H195	H	0.762684	-0.554602	0.156075
H196	H	1.262684	-0.054602	0.656075
H197	H	0.817435	-0.602565	0.159313
H198	H	1.317435	-0.102565	0.659313
H199	H	0.765900	-0.602540	0.210815
H200	H	1.265900	-0.102540	0.710815
H201	H	0.849399	-0.508553	0.191317
H202	H	1.349399	-0.008553	0.691317
H203	H	0.797857	-0.508513	0.242821
H204	H	1.297857	-0.008513	0.742821
C205	C	0.784869	-0.709964	0.254194
C206	C	1.284869	-0.209964	0.754194
C207	C	0.825313	-0.672185	0.218709
C208	C	1.325313	-0.172185	0.718709
H209	H	0.757571	-0.732266	0.226859
H210	H	1.257571	-0.232266	0.726859
H211	H	0.808832	-0.738947	0.278164
H212	H	1.308832	-0.238947	0.778164
H213	H	0.760768	-0.684298	0.281616
H214	H	1.260768	-0.184298	0.781616
H215	H	0.849418	-0.697852	0.191290
H216	H	1.349418	-0.197852	0.691290
H217	H	0.801348	-0.643199	0.194728
H218	H	1.301348	-0.143199	0.694728
H219	H	0.982818	-0.376455	1.062955
H220	H	1.482818	0.123545	1.562955
C221	C	1.029552	-0.423314	0.976988
C222	C	1.529552	0.076686	1.476988
C223	C	0.994226	-0.387931	0.934304
C224	C	1.494226	0.112069	1.434304
H225	H	1.056835	-0.450669	0.954641
H226	H	1.556835	0.049331	1.454641
H227	H	1.053665	-0.395919	1.002619
H228	H	1.553665	0.104081	1.502619
H229	H	1.002111	-0.447359	1.002643
H230	H	1.502111	0.052641	1.502643
H231	H	1.021666	-0.363882	0.908651
H232	H	1.521666	0.136118	1.408651
H233	H	0.970111	-0.415329	0.908661
H234	H	1.470111	0.084671	1.408661
H235	H	0.982759	-0.662837	0.376291
H236	H	1.482759	-0.162837	0.876291
C237	C	1.034699	-1.110851	0.352164
C238	C	1.534699	-0.610851	0.852164
C239	C	0.994253	-1.073033	0.387676
C240	C	1.494253	-0.573033	0.887676
H241	H	1.062013	-1.133151	0.379481
H242	H	1.562013	-0.633151	0.879481
H243	H	1.010738	-1.139834	0.328189
H244	H	1.510738	-0.639834	0.828189
H245	H	1.058783	-1.085211	0.324745
H246	H	1.558783	-0.585211	0.824745
H247	H	0.970165	-1.098673	0.415092
H248	H	1.470165	-0.598673	0.915092
H249	H	1.018216	-1.044046	0.411661
H250	H	1.518216	-0.544046	0.911661
C251	C	0.235959	-0.423355	0.183645
C252	C	0.735959	0.076645	0.683645
C253	C	0.278662	-0.387957	0.218937
C254	C	0.778662	0.112043	0.718937
H255	H	0.258290	-0.450714	0.156354
H256	H	0.758290	0.049286	0.656354
H257	H	0.210323	-0.447391	0.211103
H258	H	0.710323	0.052609	0.711103
H259	H	0.210309	-0.395965	0.159537
H260	H	0.710309	0.104035	0.659537
H261	H	0.304309	-0.415347	0.243048
H262	H	0.804309	0.084653	0.743048
H263	H	0.304309	-0.363919	0.191476
H264	H	0.804309	0.136081	0.691476
C265	C	0.343173	-0.227155	0.379246
C266	C	0.843173	0.272845	0.879246
C267	C	0.278522	-0.218649	0.387747
C268	C	0.778522	0.281351	0.887747
H269	H	0.365456	-0.199782	0.406525
H270	H	0.865456	0.300218	0.906525
H271	H	0.353964	-0.269428	0.388512
H272	H	0.853964	0.230572	0.888512
H273	H	0.353947	-0.218013	0.336935
H274	H	0.853947	0.281987	0.836935
H275	H	0.267748	-0.227795	0.430057
H276	H	0.767748	0.272205	0.930057
H277	H	0.267728	-0.176366	0.378486
H278	H	0.767728	0.323634	0.878486
H279	H	0.550739	-0.230122	0.376263
H280	H	1.050739	0.269878	0.876263
H281	H	0.550855	-0.376447	0.230360
H282	H	1.050855	0.123553	0.730360
H283	H	0.836786	-0.230216	0.943885
H284	H	1.336786	0.269784	1.443885
H285	H	0.670119	-0.376448	0.230359
H286	H	1.170119	0.123552	0.730359
C287	C	0.744011	-0.227129	0.379211
C288	C	1.244011	0.272871	0.879211
C289	C	0.679360	-0.218620	0.387708
C290	C	1.179360	0.281380	0.887708
H291	H	0.766294	-0.199758	0.406493
H292	H	1.266294	0.300242	0.906493
H293	H	0.754798	-0.269403	0.388477
H294	H	1.254798	0.230597	0.888477
H295	H	0.754789	-0.217987	0.336902
H296	H	1.254789	0.282013	0.836902
H297	H	0.668582	-0.227767	0.430016
H298	H	1.168582	0.272233	0.930016
H299	H	0.668568	-0.176337	0.378446
H300	H	1.168568	0.323663	0.878446
C301	C	0.833735	-0.227226	0.736334
C302	C	1.333735	0.272774	1.236334
C303	C	0.825216	-0.218709	0.671701
C304	C	1.325216	0.281291	1.171701
H305	H	0.806437	-0.199883	0.758676
H306	H	1.306437	0.300117	1.258676
H307	H	0.824506	-0.269510	0.747085
H308	H	1.324506	0.230490	1.247085
H309	H	0.876040	-0.218050	0.747076
H310	H	1.376040	0.281950	1.247076
H311	H	0.782913	-0.227890	0.660959
H312	H	1.282913	0.272110	1.160959
H313	H	0.834441	-0.176416	0.660946
H314	H	1.334441	0.323584	1.160946
C315	C	0.790032	-0.183370	1.029856
C316	C	1.290032	0.316630	1.529856
C317	C	0.825364	-0.218745	1.072542
C318	C	1.325364	0.281255	1.572542
H319	H	0.762732	-0.156032	1.052200
H320	H	1.262732	0.343968	1.552200
H321	H	0.817463	-0.159314	1.004211
H322	H	1.317463	0.340686	1.504211
H323	H	0.765931	-0.210776	1.004213
H324	H	1.265931	0.289224	1.504213
H325	H	0.849468	-0.191339	1.098181
H326	H	1.349468	0.308661	1.598181
H327	H	0.797929	-0.242803	1.098197
H328	H	1.297929	0.257197	1.598197
H329	H	0.982756	-0.543566	0.376325
H330	H	1.482756	-0.043566	0.876325
C331	C	0.980502	-0.450221	0.655557
C332	C	1.480502	0.049779	1.155557
C333	C	0.994136	-0.387898	0.671478
C334	C	1.494136	0.112102	1.171478
H335	H	1.007809	-0.477573	0.677828
H336	H	1.507809	0.022427	1.177828
H337	H	0.938208	-0.459382	0.666353
H338	H	1.438208	0.040618	1.166353
H339	H	0.986254	-0.455974	0.611691
H340	H	1.486254	0.044026	1.111691
H341	H	0.988379	-0.382143	0.715342
H342	H	1.488379	0.117857	1.215342
H343	H	1.036440	-0.378733	0.660686
H344	H	1.536440	0.121267	1.160686
C345	C	1.029562	-0.977777	0.423030
C346	C	1.529562	-0.477777	0.923030
C347	C	0.994242	-0.935038	0.387702
C348	C	1.494242	-0.435038	0.887702
H349	H	1.056869	-0.955473	0.450353
H350	H	1.556869	-0.455473	0.950353
H351	H	1.002123	-1.003399	0.447101
H352	H	1.502123	-0.503399	0.947101
H353	H	1.053654	-1.003436	0.395594
H354	H	1.553654	-0.503436	0.895594
H355	H	0.970146	-0.909381	0.415138
H356	H	1.470146	-0.409381	0.915138
H357	H	1.021683	-0.909404	0.363629
H358	H	1.521683	-0.409404	0.863629
