data_functionalizedCrystal
_audit_creation_method	'MofGen! by Chris Wilmer'
_symmetry_space_group_name_H-M	'P1'
_symmetry_Int_Tables_number	1
_symmetry_cell_setting	triclinic
loop_
_symmetry_equiv_pos_as_xyz
  x,y,z
_cell_length_a	14.519709
_cell_length_b	9.065215
_cell_length_c	7.540329
_cell_angle_alpha	89.997574
_cell_angle_beta	89.995460
_cell_angle_gamma	84.347421
loop_
_atom_site_label
_atom_site_type_symbol
_atom_site_fract_x
_atom_site_fract_y
_atom_site_fract_z
O1	O	0.135213	1.957867	-0.147466
O2	O	0.635213	2.457867	0.352534
O3	O	0.146307	1.528374	-0.147475
O4	O	0.646307	2.028374	0.352525
O5	O	0.006605	1.754508	-0.147454
O6	O	0.506605	2.254508	0.352546
O7	O	0.274915	1.731733	-0.147487
O8	O	0.774915	2.231733	0.352513
O9	O	0.006603	1.754494	0.147511
O10	O	0.506603	2.254494	0.647511
O11	O	0.146305	1.528360	0.147490
O12	O	0.646305	2.028360	0.647490
O13	O	0.135211	1.957853	0.147499
O14	O	0.635211	2.457853	0.647499
Cu15	Cu	0.140758	1.743106	0.174427
Cu16	Cu	0.640758	2.243106	0.674427
Cu17	Cu	0.140760	1.743121	-0.174403
Cu18	Cu	0.640760	2.243121	0.325597
O19	O	0.274913	1.731719	0.147478
O20	O	0.774913	2.231719	0.647478
C21	C	0.145241	1.473400	0.000007
C22	C	0.645241	1.973400	0.500007
C23	C	0.142054	1.309617	0.000004
C24	C	0.642054	1.809617	0.500004
C25	C	-0.027764	1.753439	0.000028
C26	C	0.472236	2.253439	0.500028
C27	C	-0.130168	1.750259	0.000029
C28	C	0.369832	2.250259	0.500029
C29	C	-0.505150	1.738550	-0.000017
C30	C	-0.005150	2.238550	0.499983
C31	C	-0.400818	1.741801	-0.000004
C32	C	0.099182	2.241801	0.499996
C33	C	-0.317662	1.744404	0.000008
C34	C	0.182338	2.244404	0.500008
C35	C	-0.213324	1.747656	0.000018
C36	C	0.286676	2.247656	0.500018
C37	C	0.309282	1.732788	-0.000008
C38	C	0.809282	2.232788	0.499992
C39	C	0.411686	1.735968	-0.000021
C40	C	0.911686	2.235968	0.499979
C41	C	0.136277	2.012827	0.000013
C42	C	0.636277	2.512827	0.500013
C43	C	0.139464	2.176610	0.000004
C44	C	0.639464	2.676610	0.500004
N45	N	0.140756	1.743105	0.419776
N46	N	0.640756	2.243105	0.919776
N47	N	0.140755	1.743134	-0.419752
N48	N	0.640755	2.243134	0.080248
