data_functionalizedCrystal
_audit_creation_method	'MofGen! by Chris Wilmer'
_symmetry_space_group_name_H-M	'P1'
_symmetry_Int_Tables_number	1
_symmetry_cell_setting	triclinic
loop_
_symmetry_equiv_pos_as_xyz
  x,y,z
_cell_length_a	10.908878
_cell_length_b	13.101039
_cell_length_c	11.026607
_cell_angle_alpha	85.898113
_cell_angle_beta	84.335404
_cell_angle_gamma	92.522246
loop_
_atom_site_label
_atom_site_type_symbol
_atom_site_fract_x
_atom_site_fract_y
_atom_site_fract_z
O1	O	1.667728	0.085198	-0.186835
O2	O	1.314794	0.085202	-0.096295
O3	O	1.462010	0.085197	-0.312315
O4	O	1.520512	0.085203	0.029184
O5	O	1.451452	-0.085233	-0.296795
O6	O	1.304236	-0.085227	-0.080775
O7	O	1.657170	-0.085232	-0.171315
Zn8	Zn	1.479027	-0.112289	-0.123581
Zn9	Zn	1.492937	0.112259	-0.144030
O10	O	1.509954	-0.085226	0.044705
C11	C	1.263629	-0.000012	-0.080074
C12	C	1.126902	-0.000010	-0.054876
N13	N	1.469542	-0.265537	-0.109628
C14	C	1.456641	-0.474579	-0.090633
C15	C	1.515328	-0.525457	-0.176984
C16	C	1.508149	-0.641775	-0.166415
C17	C	1.463818	-0.358250	-0.101200
C18	C	1.056639	-0.000011	-0.146820
C19	C	0.915323	-0.000009	-0.120778
C20	C	1.708335	-0.000015	-0.187537
C21	C	1.845063	-0.000010	-0.212736
N22	N	1.502429	0.265508	-0.157994
C23	C	1.445938	-0.000017	-0.347588
C24	C	1.413766	-0.000013	-0.475810
C25	C	1.502601	-0.000012	-0.567543
C26	C	1.469351	-0.000008	-0.700067
C27	C	1.526026	-0.000010	0.079977
C28	C	1.558199	-0.000008	0.208198
H29	H	1.401010	-0.518374	-0.008774
O30	O	1.109870	-0.000059	-0.263656
C31	C	1.239117	-0.000033	-0.263648
H32	H	1.262958	-0.032296	-0.170588
H33	H	1.278722	-0.049515	-0.337436
H34	H	1.280184	0.081731	-0.282915
H35	H	1.658881	0.000068	-0.772242
H36	H	1.313095	-0.000004	-0.495386
H37	H	1.603271	-0.000020	-0.547967
O38	O	1.581722	-0.473371	-0.274752
C39	C	1.634911	-0.543586	-0.352944
H40	H	1.579659	-0.620102	-0.337214
H41	H	1.633966	-0.512485	-0.452066
H42	H	1.734115	-0.554947	-0.332782
H43	H	1.368674	0.000000	-0.719637
H44	H	0.870864	-0.000003	-0.022776
O45	O	0.898238	0.000125	-0.329618
C46	C	0.977421	0.088405	-0.357769
H47	H	1.006872	0.117834	-0.269682
H48	H	1.062455	0.068554	-0.418464
H49	H	0.926968	0.150212	-0.407924
H50	H	1.082436	-0.000003	0.043120
