data_functionalizedCrystal
_audit_creation_method	'MofGen! by Chris Wilmer'
_symmetry_space_group_name_H-M	'P1'
_symmetry_Int_Tables_number	1
_symmetry_cell_setting	triclinic
loop_
_symmetry_equiv_pos_as_xyz
  x,y,z
_cell_length_a	14.044220
_cell_length_b	15.995350
_cell_length_c	13.101039
_cell_angle_alpha	93.364563
_cell_angle_beta	86.340132
_cell_angle_gamma	88.340626
loop_
_atom_site_label
_atom_site_type_symbol
_atom_site_fract_x
_atom_site_fract_y
_atom_site_fract_z
O1	O	1.262914	0.197637	-0.085096
O2	O	0.986946	0.190352	-0.085122
O3	O	1.132474	0.072670	-0.085107
O4	O	1.117386	0.315319	-0.085111
O5	O	1.122032	0.081129	0.085321
O6	O	0.976505	0.198810	0.085307
O7	O	1.252472	0.206096	0.085333
Zn8	Zn	1.112831	0.203796	0.112379
Zn9	Zn	1.126588	0.192651	-0.112168
O10	O	1.106945	0.323777	0.085318
C11	C	0.946411	0.191392	0.000089
C12	C	0.841186	0.181881	0.000079
C13	C	1.126629	0.045658	0.000105
C14	C	1.124760	-0.047432	0.000099
C15	C	0.648524	0.164494	0.000099
C16	C	0.590890	0.231950	0.000102
C17	C	0.483686	0.222275	0.000114
C18	C	0.755738	0.174167	0.000088
C19	C	1.118044	-0.385681	0.000102
C20	C	1.014425	-0.346007	-0.000290
C21	C	1.016272	-0.249158	0.000094
C22	C	1.121375	-0.217872	0.000100
C23	C	1.166533	-0.250301	0.097426
C24	C	1.163924	-0.347127	0.097507
C25	C	1.177939	-0.356944	-0.096302
C26	C	1.177993	-0.260065	-0.097588
C27	C	1.123263	-0.123033	0.000102
C28	C	1.116159	-0.480519	0.000106
C29	C	1.293008	0.205055	0.000120
C30	C	1.398233	0.214566	0.000123
C31	C	1.112789	0.350789	0.000103
C32	C	1.114659	0.443879	0.000103
N33	N	1.103449	0.211402	0.265626
N34	N	1.135977	0.185039	-0.265416
C35	C	1.090685	0.221758	0.474668
C36	C	1.148739	0.174686	0.525549
C37	C	1.141636	0.180448	0.641867
C38	C	1.097786	0.215997	0.358340
H39	H	0.622062	0.296967	0.000097
C40	C	0.606421	0.076667	0.000094
H41	H	0.538846	0.081605	0.000090
H42	H	0.623579	0.050049	0.059519
H43	H	0.630845	0.044166	-0.059353
C44	C	1.223116	0.114426	0.466392
H45	H	1.218212	0.118423	0.394840
H46	H	1.211696	0.058633	0.483897
H47	H	1.285341	0.129068	0.483928
C48	C	0.967749	-0.219489	-0.094144
H49	H	0.946724	-0.266654	-0.133006
H50	H	1.012037	-0.190123	-0.135321
H51	H	0.914527	-0.183398	-0.072237
H52	H	0.977276	-0.371097	-0.070085
H53	H	0.968933	-0.365237	0.069108
C54	C	1.133548	-0.231771	-0.194862
H55	H	1.168111	-0.257505	-0.253695
H56	H	1.136209	-0.172596	-0.196649
H57	H	1.068905	-0.247765	-0.194258
C58	C	1.016320	0.282025	0.533821
H59	H	0.980816	0.310795	0.486603
H60	H	1.047955	0.321434	0.575689
H61	H	0.974292	0.251013	0.575661
H62	H	1.239746	-0.373472	0.101927
H63	H	0.971537	-0.220847	0.069973
H64	H	1.122190	-0.364602	0.170256
C65	C	1.270542	-0.223181	0.102333
H66	H	1.287389	-0.191762	0.044934
H67	H	1.311697	-0.271443	0.101434
H68	H	1.276700	-0.189590	0.163656
H69	H	1.126590	-0.220977	0.169849
C70	C	1.138267	-0.393049	-0.195956
H71	H	1.084797	-0.425989	-0.179697
H72	H	1.186327	-0.426993	-0.233955
H73	H	1.119175	-0.348430	-0.235685
H74	H	1.254999	-0.239269	-0.103460
C75	C	1.281218	-0.392190	-0.097191
H76	H	1.287846	-0.424266	-0.039131
H77	H	1.323911	-0.347223	-0.095053
H78	H	1.295604	-0.426844	-0.157930
