data_functionalizedCrystal
_audit_creation_method	'MofGen! by Chris Wilmer'
_symmetry_space_group_name_H-M	'P1'
_symmetry_Int_Tables_number	1
_symmetry_cell_setting	triclinic
loop_
_symmetry_equiv_pos_as_xyz
  x,y,z
_cell_length_a	16.992694
_cell_length_b	8.965430
_cell_length_c	16.992695
_cell_angle_alpha	89.999842
_cell_angle_beta	90.668223
_cell_angle_gamma	89.998442
loop_
_atom_site_label
_atom_site_type_symbol
_atom_site_fract_x
_atom_site_fract_y
_atom_site_fract_z
O1	O	1.050850	0.123854	0.166911
O2	O	0.822450	0.123898	0.165079
O3	O	0.935734	0.123864	0.051795
O4	O	0.937566	0.123887	0.280195
O5	O	0.935725	-0.124215	0.051802
O6	O	0.822440	-0.124181	0.165087
O7	O	1.050840	-0.124225	0.166918
Cu8	Cu	0.936640	-0.146855	0.166003
Cu9	Cu	0.936651	0.146527	0.165994
O10	O	0.937556	-0.124191	0.280203
C11	C	0.793085	-0.000136	0.162727
C12	C	0.705600	-0.000120	0.155699
N13	N	0.936637	-0.353204	0.166009
C14	C	0.659610	-0.000114	0.223517
C15	C	0.577409	-0.000135	0.216908
C16	C	0.541201	-0.000152	0.142480
C17	C	0.587198	-0.000162	0.074657
C18	C	0.669397	-0.000151	0.081267
C19	C	0.295886	-0.000194	0.115086
C20	C	0.213681	-0.000200	0.108481
C21	C	0.203898	-0.000177	0.250732
C22	C	0.286099	-0.000157	0.257336
C23	C	0.332089	-0.000175	0.189512
N24	N	0.457178	-0.000169	0.135723
N25	N	0.416110	-0.000169	0.196270
C26	C	0.884229	-0.450494	0.218380
C27	C	0.956320	-0.549920	0.238112
C28	C	0.864576	-0.549906	0.146285
C29	C	1.008767	-0.450441	0.185779
C30	C	0.916974	-0.450417	0.093918
C31	C	0.989115	-0.549798	0.113624
C32	C	1.080205	-0.000188	0.169270
C33	C	1.167690	-0.000195	0.176299
C34	C	0.933374	-0.000175	0.022439
C35	C	0.926345	-0.000173	-0.065046
N36	N	0.936659	0.352876	0.165983
C37	C	0.994163	-0.000188	-0.111037
C38	C	0.987554	-0.000172	-0.193238
C39	C	0.913127	-0.000153	-0.229446
C40	C	0.845303	-0.000134	-0.183449
C41	C	0.851913	-0.000138	-0.101250
C42	C	0.885732	-0.000127	-0.474760
C43	C	0.879127	-0.000127	-0.556966
C44	C	1.021379	-0.000162	-0.566749
C45	C	1.027982	-0.000176	-0.484547
C46	C	0.960159	-0.000149	-0.438558
N47	N	0.906369	-0.000142	-0.313468
N48	N	0.966917	-0.000150	-0.354537
C49	C	0.939917	-0.000149	0.309559
C50	C	0.946945	-0.000141	0.397044
H51	H	0.689084	-0.000100	0.284124
H52	H	0.166444	-0.000165	0.305950
H53	H	1.054770	-0.000212	-0.081563
O54	O	1.041947	-0.601570	0.060683
C55	C	1.002507	-0.688126	0.003271
H56	H	0.937832	-0.654517	0.000506
H57	H	1.007400	-0.811222	0.019426
C58	C	1.119614	-0.703070	-0.074138
C59	C	1.040181	-0.661782	-0.077538
H60	H	1.142854	-0.686827	-0.123985
H61	H	1.146187	-0.644761	-0.035457
H62	H	1.123681	-0.805648	-0.060672
H63	H	1.036115	-0.559202	-0.090995
H64	H	1.013608	-0.720074	-0.116224
O65	O	0.321294	0.000157	0.329623
C66	C	0.368542	0.128651	0.337675
H67	H	0.346544	0.218405	0.295295
H68	H	0.432162	0.099621	0.323598
C69	C	0.390946	0.076744	0.474786
C70	C	0.363924	0.186986	0.422739
H71	H	0.388102	0.112726	0.527258
H72	H	0.359117	-0.009828	0.469362
H73	H	0.443961	0.052563	0.463046
H74	H	0.310908	0.211152	0.434473
H75	H	0.395745	0.273564	0.428167
H76	H	0.900307	-0.406677	0.032982
H77	H	0.539966	-0.000129	0.272133
O78	O	0.178594	-0.000021	0.036136
C79	C	0.201635	0.128471	-0.005521
H80	H	0.259929	0.171309	0.019490
H81	H	0.154695	0.218442	0.000620
C82	C	0.139872	0.036810	-0.123828
C83	C	0.211472	0.089417	-0.093112
H84	H	0.145936	0.012724	-0.177859
H85	H	0.124345	-0.049755	-0.095762
H86	H	0.100761	0.111794	-0.118703
H87	H	0.250578	0.014427	-0.098229
H88	H	0.227005	0.175969	-0.121181
O89	O	0.340634	0.000005	0.049260
C90	C	0.388453	0.128512	0.048809
H91	H	0.396526	0.171348	0.111551
H92	H	0.359179	0.218477	0.011167
C93	C	0.459414	0.036881	-0.062648
C94	C	0.469334	0.089486	0.014413
H95	H	0.509305	0.012813	-0.083868
H96	H	0.427196	-0.049694	-0.062347
H97	H	0.435017	0.111861	-0.094006
H98	H	0.493722	0.014501	0.045772
H99	H	0.501559	0.176049	0.014117
H100	H	0.706842	-0.000155	0.026042
O101	O	1.053412	0.000079	-0.237943
C102	C	1.053847	0.128550	-0.285791
H103	H	1.015480	0.218357	-0.258242
H104	H	1.029734	0.099519	-0.346777
C105	C	1.185846	0.076488	-0.326726
C106	C	1.138728	0.186794	-0.292886
H107	H	1.238204	0.112413	-0.331106
H108	H	1.185552	-0.010069	-0.294493
H109	H	1.165742	0.052305	-0.377544
H110	H	1.158826	0.210962	-0.242065
H111	H	1.139027	0.273357	-0.325111
O112	O	1.100262	-0.000448	-0.449337
C113	C	1.108325	-0.128914	-0.402067
H114	H	1.065972	-0.218709	-0.424066
H115	H	1.094220	-0.099865	-0.338456
C116	C	1.245418	-0.076899	-0.379622
C117	C	1.193403	-0.187191	-0.406646
H118	H	1.297898	-0.112844	-0.382443
H119	H	1.239985	0.009655	-0.411466
H120	H	1.233653	-0.052701	-0.326615
H121	H	1.205162	-0.211373	-0.459655
H122	H	1.198840	-0.273750	-0.374811
O123	O	0.831501	-0.398529	0.271374
C124	C	0.852534	-0.449263	0.347288
H125	H	0.917983	-0.477144	0.349176
H126	H	0.817009	-0.553330	0.361854
C127	C	0.754701	-0.292195	0.405667
C128	C	0.835088	-0.326428	0.407988
H129	H	0.743936	-0.216429	0.443111
H130	H	0.740528	-0.258018	0.354523
H131	H	0.725106	-0.378928	0.417804
H132	H	0.864681	-0.239700	0.395842
H133	H	0.849266	-0.360588	0.459132
O134	O	0.819910	-0.000309	-0.430007
C135	C	0.819460	-0.128807	-0.382179
H136	H	0.882201	-0.171656	-0.374112
H137	H	0.781810	-0.218768	-0.411441
C138	C	0.708018	-0.037137	-0.311208
C139	C	0.785077	-0.089758	-0.301295
H140	H	0.686805	-0.013054	-0.261316
H141	H	0.708318	0.049432	-0.343432
H142	H	0.676652	-0.112114	-0.335596
H143	H	0.816443	-0.014776	-0.276917
H144	H	0.784781	-0.176314	-0.269065
H145	H	0.557710	-0.000196	0.014056
H146	H	0.972966	-0.593625	0.299067
H147	H	1.069734	-0.406933	0.202522
O148	O	0.791805	-0.601847	0.126481
C149	C	0.736737	-0.551278	0.181880
H150	H	0.760271	-0.446589	0.212086
H151	H	0.726676	-0.641873	0.227753
C152	C	0.629476	-0.643658	0.102523
C153	C	0.658379	-0.515069	0.139618
H154	H	0.581140	-0.621329	0.076455
H155	H	0.666577	-0.677732	0.065200
H156	H	0.621099	-0.719141	0.140757
H157	H	0.666766	-0.439595	0.101382
H158	H	0.621278	-0.480981	0.176933
H159	H	1.076596	-0.000181	-0.604202
H160	H	0.818517	-0.000135	-0.586443
H161	H	0.784703	-0.000109	-0.212936
H162	H	0.796688	-0.000126	-0.063804
