data_functionalizedCrystal
_audit_creation_method	'MofGen! by Chris Wilmer'
_symmetry_space_group_name_H-M	'P1'
_symmetry_Int_Tables_number	1
_symmetry_cell_setting	triclinic
loop_
_symmetry_equiv_pos_as_xyz
  x,y,z
_cell_length_a	12.759401
_cell_length_b	18.215405
_cell_length_c	12.759401
_cell_angle_alpha	90.013481
_cell_angle_beta	90.002249
_cell_angle_gamma	90.021776
loop_
_atom_site_label
_atom_site_type_symbol
_atom_site_fract_x
_atom_site_fract_y
_atom_site_fract_z
Zn1	Zn	1.606027	-0.293113	0.593961
Zn2	Zn	2.106027	0.206887	1.093961
Zn3	Zn	1.605947	-0.416154	0.418272
Zn4	Zn	2.105947	0.083846	0.918272
Zn5	Zn	1.430380	-0.293104	0.418300
Zn6	Zn	1.930380	0.206896	0.918300
Zn7	Zn	1.430293	-0.416140	0.593913
Zn8	Zn	1.930293	0.083860	1.093913
O9	O	1.518162	-0.354628	0.506112
O10	O	2.018162	0.145372	1.006112
O11	O	1.753038	-0.309444	0.570664
O12	O	2.253038	0.190556	1.070664
O13	O	1.582660	-0.399833	0.271255
O14	O	2.082660	0.100167	0.771255
O15	O	1.453749	-0.190121	0.441634
O16	O	1.953749	0.309879	0.941634
O17	O	1.752979	-0.399842	0.441586
O18	O	2.252979	0.100158	0.941586
O19	O	1.582797	-0.190127	0.570691
O20	O	2.082797	0.309873	1.070691
O21	O	1.453671	-0.309428	0.271276
O22	O	1.953671	0.190572	0.771276
O23	O	1.283347	-0.309415	0.441588
O24	O	1.783347	0.190585	0.941588
O25	O	1.453603	-0.399818	0.740940
O26	O	1.953603	0.100182	1.240940
O27	O	1.283284	-0.399809	0.570610
O28	O	1.783284	0.100191	1.070610
O29	O	1.582714	-0.309431	0.740976
O30	O	2.082714	0.190569	1.240976
O31	O	1.582577	-0.519136	0.441539
O32	O	2.082577	-0.019136	0.941539
O33	O	1.453525	-0.519126	0.570582
O34	O	1.953525	-0.019126	1.070582
C35	C	1.245195	-0.354610	0.506097
C36	C	1.745195	0.145390	1.006097
C37	C	1.128418	-0.354621	0.506116
C38	C	1.628418	0.145379	1.006116
C39	C	1.073580	-0.307639	0.573431
C40	C	1.573580	0.192361	1.073431
C41	C	0.963856	-0.307653	0.573437
C42	C	1.463856	0.192347	1.073437
C43	C	0.963818	-0.401636	0.438811
C44	C	1.463818	0.098364	0.938811
C45	C	1.073540	-0.401618	0.438800
C46	C	1.573540	0.098382	0.938800
C47	C	1.073600	-0.253381	0.651159
C48	C	1.573600	0.246619	1.151159
C49	C	0.963876	-0.253395	0.651166
C50	C	1.463876	0.246605	1.151166
C51	C	1.518061	-0.545834	0.506075
C52	C	2.018061	-0.045834	1.006075
C53	C	1.518114	-0.627633	0.506095
C54	C	2.018114	-0.127633	1.006095
C55	C	1.585341	-0.815769	0.573386
C56	C	2.085341	-0.315769	1.073386
C57	C	1.585380	-0.892628	0.573406
C58	C	2.085380	-0.392628	1.073406
C59	C	1.451112	-0.892734	0.438902
C60	C	1.951112	-0.392734	0.938902
C61	C	1.451070	-0.815877	0.438889
C62	C	1.951070	-0.315877	0.938889
C63	C	1.518190	-0.777396	0.506129
C64	C	2.018190	-0.277396	1.006129
C65	C	1.518271	-0.931112	0.506162
C66	C	2.018271	-0.431112	1.006162
C67	C	1.518312	-1.014446	0.506183
C68	C	2.018312	-0.514446	1.006183
C69	C	1.518148	-0.694057	0.506110
C70	C	2.018148	-0.194057	1.006110
C71	C	1.792195	-0.354645	0.506127
C72	C	2.292195	0.145355	1.006127
C73	C	1.908972	-0.354653	0.506133
C74	C	2.408972	0.145347	1.006133
C75	C	1.518157	-0.354624	0.780145
C76	C	2.018157	0.145376	1.280145
C77	C	1.518156	-0.354622	0.896921
C78	C	2.018156	0.145378	1.396921
C79	C	1.518292	-0.162675	0.506171
C80	C	2.018292	0.337325	1.006171
C81	C	1.518347	-0.080876	0.506196
C82	C	2.018347	0.419124	1.006196
C83	C	1.585377	-0.307567	0.951803
C84	C	2.085377	0.192433	1.451803
C85	C	1.585371	-0.307569	1.061528
C86	C	2.085371	0.192431	1.561528
C87	C	1.450918	-0.401687	1.061478
C88	C	1.950918	0.098313	1.561478
C89	C	1.450920	-0.401681	0.951756
C90	C	1.950920	0.098319	1.451756
C91	C	1.663006	-0.253231	0.951833
C92	C	2.163006	0.246769	1.451833
C93	C	1.662999	-0.253233	1.061557
C94	C	2.162999	0.246767	1.561557
C95	C	1.518155	-0.354643	1.233144
C96	C	2.018155	0.145357	1.733144
C97	C	1.518147	-0.354630	1.116368
C98	C	2.018147	0.145370	1.616368
H99	H	0.919123	-0.439900	0.384005
H100	H	1.419123	0.060100	0.884005
H101	H	1.640058	-0.923868	0.628176
H102	H	2.140058	-0.423868	1.128176
O103	O	1.378741	-0.934236	0.366358
O104	O	1.878741	-0.434236	0.866358
H105	H	1.390064	-0.994127	0.377652
H106	H	1.890064	-0.494127	0.877652
O107	O	1.378635	-0.774486	0.366341
O108	O	1.878635	-0.274486	0.866341
H109	H	1.389874	-0.714578	0.377639
H110	H	1.889874	-0.214578	0.877639
H111	H	1.396175	-0.439999	1.106137
H112	H	1.896175	0.060001	1.606137
O113	O	1.770758	-0.273472	1.101016
O114	O	2.270758	0.226528	1.601016
H115	H	1.823516	-0.283387	1.033317
H116	H	2.323516	0.216613	1.533317
O117	O	1.657736	-0.774265	0.645904
O118	O	2.157736	-0.274265	1.145904
H119	H	1.639653	-0.788999	0.728349
H120	H	2.139653	-0.288999	1.228349
O121	O	0.924429	-0.273740	0.758896
O122	O	1.424429	0.226260	1.258896
H123	H	0.876085	-0.324272	0.753521
H124	H	1.376085	0.175728	1.253521
O125	O	1.634201	-0.177728	0.912416
O126	O	2.134201	0.322272	1.412416
H127	H	1.562059	-0.181389	0.864081
H128	H	2.062059	0.318611	1.364081
O129	O	1.378364	-0.452395	0.892556
O130	O	1.878364	0.047605	1.392556
H131	H	1.331603	-0.485109	0.949122
H132	H	1.831603	0.014891	1.449122
H133	H	1.740283	-0.273655	0.917796
H134	H	2.240283	0.226345	1.417796
O135	O	1.624460	-0.181511	1.106679
O136	O	2.124460	0.318489	1.606679
H137	H	1.604038	-0.143483	1.041868
H138	H	2.104038	0.356517	1.541868
H139	H	1.103385	-0.196355	0.629510
H140	H	1.603385	0.303645	1.129510
O141	O	1.132688	-0.452278	0.366178
O142	O	1.632688	0.047722	0.866178
H143	H	1.111630	-0.510064	0.384039
H144	H	1.611630	-0.010064	0.884039
O145	O	1.118699	-0.280519	0.753470
O146	O	1.618699	0.219481	1.253470
H147	H	1.091782	-0.337576	0.767921
H148	H	1.591782	0.162424	1.267921
O149	O	0.918793	-0.181642	0.612760
O150	O	1.418793	0.318358	1.112760
H151	H	0.983625	-0.143586	0.592398
H152	H	1.483625	0.356414	1.092398
