data_functionalizedCrystal
_audit_creation_method	'MofGen! by Chris Wilmer'
_symmetry_space_group_name_H-M	'P1'
_symmetry_Int_Tables_number	1
_symmetry_cell_setting	triclinic
loop_
_symmetry_equiv_pos_as_xyz
  x,y,z
_cell_length_a	14.519709
_cell_length_b	14.044220
_cell_length_c	12.996460
_cell_angle_alpha	89.993022
_cell_angle_beta	90.000034
_cell_angle_gamma	88.434511
loop_
_atom_site_label
_atom_site_type_symbol
_atom_site_fract_x
_atom_site_fract_y
_atom_site_fract_z
O1	O	1.233893	0.124273	-0.085435
O2	O	1.733893	0.624273	0.414565
O3	O	0.966596	0.138907	-0.085466
O4	O	1.466596	0.638907	0.414534
O5	O	1.096232	-0.006401	-0.085441
O6	O	1.596232	0.493599	0.414559
O7	O	1.104256	0.269581	-0.085460
O8	O	1.604256	0.769581	0.414540
O9	O	1.096217	-0.006409	0.085693
O10	O	1.596217	0.493591	0.585693
O11	O	0.966581	0.138899	0.085667
O12	O	1.466581	0.638899	0.585667
O13	O	1.233877	0.124265	0.085699
O14	O	1.733877	0.624265	0.585699
Cu15	Cu	1.100228	0.131581	0.101309
Cu16	Cu	1.600228	0.631581	0.601309
Cu17	Cu	1.100246	0.131591	-0.101076
Cu18	Cu	1.600246	0.631591	0.398924
O19	O	1.104241	0.269573	0.085674
O20	O	1.604241	0.769573	0.585674
C21	C	0.932174	0.138221	0.000097
C22	C	1.432174	0.638221	0.500097
C23	C	0.829628	0.136177	0.000085
C24	C	1.329628	0.636177	0.500085
C25	C	0.454125	0.128653	0.000132
C26	C	0.954125	0.628653	0.500132
C27	C	0.558601	0.130743	0.000119
C28	C	1.058601	0.630743	0.500119
C29	C	0.641873	0.132415	0.000107
C30	C	1.141873	0.632415	0.500107
C31	C	0.746356	0.134505	0.000096
C32	C	1.246356	0.634505	0.500096
C33	C	1.092712	-0.041726	0.000126
C34	C	1.592712	0.458274	0.500126
C35	C	1.082235	-0.146969	0.000126
C36	C	1.582235	0.353031	0.500126
C37	C	1.063081	-0.339663	0.000109
C38	C	1.563081	0.160337	0.500109
C39	C	1.137389	-0.397170	0.000115
C40	C	1.637389	0.102830	0.500115
C41	C	1.126731	-0.504392	0.000105
C42	C	1.626731	-0.004392	0.500105
C43	C	1.073737	-0.232432	0.000118
C44	C	1.573737	0.267568	0.500118
C45	C	1.268300	0.124951	0.000134
C46	C	1.768300	0.624951	0.500134
C47	C	1.370846	0.126995	0.000139
C48	C	1.870846	0.626995	0.500139
C49	C	1.107761	0.304898	0.000104
C50	C	1.607761	0.804898	0.500104
C51	C	1.118238	0.410141	0.000098
C52	C	1.618238	0.910141	0.500098
N53	N	1.100221	0.131574	0.243656
N54	N	1.600221	0.631574	0.743656
N55	N	1.100259	0.131591	-0.243424
N56	N	1.600259	0.631591	0.256576
C57	C	1.100245	0.131592	0.663470
C58	C	1.600245	0.631592	1.163470
C59	C	1.100236	0.131590	0.546665
C60	C	1.600236	0.631590	1.046665
C61	C	1.100233	0.131584	0.453567
C62	C	1.600233	0.631584	0.953567
C63	C	1.100224	0.131580	0.336754
C64	C	1.600224	0.631580	0.836754
H65	H	1.209010	-0.365878	0.000054
H66	H	1.709010	0.134122	0.500054
N67	N	0.968215	-0.381107	0.000114
N68	N	1.468215	0.118893	0.500114
H69	H	0.920103	-0.327791	0.000116
H70	H	1.420103	0.172209	0.500116
H71	H	0.960573	-0.421656	-0.063328
H72	H	1.460573	0.078344	0.436672
