data_functionalizedCrystal
_audit_creation_method	'MofGen! by Chris Wilmer'
_symmetry_space_group_name_H-M	'P1'
_symmetry_Int_Tables_number	1
_symmetry_cell_setting	triclinic
loop_
_symmetry_equiv_pos_as_xyz
  x,y,z
_cell_length_a	20.919287
_cell_length_b	20.919309
_cell_length_c	19.902436
_cell_angle_alpha	57.447876
_cell_angle_beta	86.847793
_cell_angle_gamma	60.708769
loop_
_atom_site_label
_atom_site_type_symbol
_atom_site_fract_x
_atom_site_fract_y
_atom_site_fract_z
Zr1	Zr	0.644068	0.700750	-0.154089
O2	O	0.547048	0.834300	-0.261217
O3	O	0.670200	0.567191	-0.117253
O4	O	0.675405	0.700738	-0.263182
O5	O	0.541843	0.700766	-0.004723
O6	O	0.780762	0.700737	-0.269277
O7	O	0.541842	0.700754	-0.115288
O8	O	0.771450	0.461848	-0.008238
O9	O	0.551155	0.939656	-0.265763
O10	O	0.764333	0.622129	-0.110920
O11	O	0.685706	0.622138	-0.023857
O12	O	0.691835	0.779371	-0.195669
O13	O	0.613209	0.779381	-0.108607
Zr14	Zr	0.812101	0.700769	0.012527
Zr15	Zr	0.812100	0.700749	-0.163811
Zr16	Zr	0.644069	0.700769	0.022249
Zr17	Zr	0.650618	0.868780	-0.161339
Zr18	Zr	0.805551	0.532739	0.019777
O19	O	0.785969	0.834327	-0.024309
O20	O	0.785968	0.834299	-0.275040
O21	O	0.547049	0.834328	-0.010486
O22	O	0.909121	0.567219	0.119655
O23	O	0.909120	0.567191	-0.131076
O24	O	0.670200	0.567220	0.133478
O25	O	0.914326	0.700753	-0.136839
O26	O	0.780764	0.700781	0.121620
O27	O	0.675407	0.700781	0.127715
O28	O	0.914327	0.700765	-0.026274
O29	O	0.684718	0.939655	-0.273490
O30	O	0.771451	0.461863	0.131928
O31	O	0.905014	0.461863	0.124200
O32	O	0.905014	0.461847	-0.015965
O33	O	0.551155	0.939671	-0.125597
O34	O	0.684719	0.939671	-0.133324
O35	O	0.764334	0.622147	0.054107
O36	O	0.842960	0.622138	-0.032956
O37	O	0.770463	0.779381	-0.117705
O38	O	0.691836	0.779390	-0.030642
C39	C	0.719892	0.490579	-0.061712
C40	C	0.717111	0.419246	-0.058634
C41	C	0.517902	0.700760	-0.058620
C42	C	0.446567	0.700760	-0.054493
C43	C	0.413054	0.700756	-0.113467
C44	C	0.346030	0.700751	-0.109585
C45	C	0.312518	0.700758	-0.046732
C46	C	0.346037	0.700759	0.012248
C47	C	0.413063	0.700757	0.008369
C48	C	0.110147	0.700758	-0.031968
C49	C	0.043115	0.700763	-0.028095
C50	C	0.043113	0.700753	-0.149928
C51	C	0.110138	0.700757	-0.153804
C52	C	0.143653	0.700754	-0.094822
C53	C	0.244007	0.700756	-0.042764
C54	C	0.212166	0.700749	-0.098787
C55	C	0.756845	0.385728	-0.102634
C56	C	0.754234	0.318698	-0.099734
C57	C	0.711885	0.285191	-0.052839
C58	C	0.672150	0.318712	-0.008834
C59	C	0.674766	0.385736	-0.011729
C60	C	0.701938	0.082818	-0.041818
C61	C	0.699324	0.015791	-0.038928
C62	C	0.781410	0.015781	-0.129827
C63	C	0.784018	0.082810	-0.132723
C64	C	0.744286	0.116321	-0.088714
C65	C	0.709213	0.216678	-0.049876
C66	C	0.746963	0.184829	-0.091673
C67	C	0.938267	0.700759	-0.082942
C68	C	1.009601	0.700759	-0.087069
C69	C	0.728084	0.700735	-0.291354
C70	C	0.728083	0.700726	-0.366214
C71	C	0.736277	0.910940	-0.079850
C72	C	0.739058	0.982273	-0.082928
C73	C	0.728084	0.700771	-0.638265
C74	C	0.774054	0.601579	-0.556327
C75	C	0.773835	0.601517	-0.478408
C76	C	0.728085	0.700748	-0.503297
C77	C	0.644570	0.750009	-0.554599
C78	C	0.644819	0.749375	-0.632150
C79	C	0.764968	0.751412	-0.640324
C80	C	0.766625	0.749547	-0.561466
C81	C	0.728080	0.700740	-0.427022
C82	C	0.728083	0.700781	-0.714542
C83	C	0.728085	0.700784	0.149792
C84	C	0.728086	0.700793	0.224652
C85	C	0.930075	0.490578	-0.073873
C86	C	0.998628	0.419245	-0.074922
C87	C	0.719893	0.490604	0.158861
C88	C	0.717112	0.419279	0.236799
C89	C	0.930075	0.490603	0.146700
C90	C	0.998629	0.419278	0.220511
C91	C	0.526093	0.910916	-0.288262
C92	C	0.457540	0.982241	-0.362073
C93	C	0.526094	0.910940	-0.067689
C94	C	0.457541	0.982274	-0.066640
C95	C	0.736276	0.910915	-0.300423
C96	C	0.739057	0.982240	-0.378361
C97	C	0.989779	0.385741	-0.116119
C98	C	1.054187	0.318725	-0.117122
C99	C	1.127442	0.285209	-0.076922
C100	C	1.136290	0.318720	-0.035724
C101	C	1.071883	0.385739	-0.034727
C102	C	0.756849	0.385789	0.314104
C103	C	0.754234	0.318781	0.387341
C104	C	0.711886	0.285259	0.383273
C105	C	0.672145	0.318756	0.305960
C106	C	0.674756	0.385768	0.232724
C107	C	1.071872	0.385778	0.209727
C108	C	1.136293	0.318770	0.279073
C109	C	1.127468	0.285258	0.359202
C110	C	1.054218	0.318765	0.369984
C111	C	0.989799	0.385776	0.300639
C112	C	0.384297	1.015749	-0.351289
C113	C	0.319877	1.082778	-0.420636
C114	C	0.328702	1.116293	-0.500765
C115	C	0.401952	1.082782	-0.511548
C116	C	0.466370	1.015759	-0.442202
C117	C	0.466390	1.015785	-0.025450
C118	C	0.401983	1.082819	-0.024468
C119	C	0.328728	1.116337	-0.064670
C120	C	0.319880	1.082824	-0.105865
C121	C	0.384286	1.015795	-0.106852
C122	C	0.781412	1.015740	-0.374265
C123	C	0.784039	1.082748	-0.447490
C124	C	0.744306	1.116260	-0.524810
C125	C	0.701950	1.082754	-0.528904
C126	C	0.699327	1.015742	-0.455680
H127	H	0.440333	0.700756	-0.164652
F128	F	0.796537	0.283141	0.469615
F129	F	0.654246	-0.019866	0.010985
H130	H	0.137429	0.700758	0.016056
F131	F	1.214260	0.283038	0.007059
F132	F	0.411332	1.118459	-0.596834
H133	H	0.642399	0.413026	0.169782
F134	F	0.632477	0.421405	0.035103
F135	F	0.823705	0.980086	-0.291983
F136	F	0.310363	0.700745	-0.172351
H137	H	0.669601	1.110050	-0.591867
F138	F	1.044754	0.283070	-0.160969
F139	F	0.792035	0.220487	-0.141578
F140	F	0.260135	1.187625	-0.574563
F141	F	0.664151	0.181004	0.000041
F142	F	0.801927	0.421450	0.318453
F143	F	0.145802	0.700752	-0.220700
F144	F	0.007441	0.700754	-0.212695
H145	H	0.015832	0.700769	0.023091
H146	H	0.825693	0.719666	-0.645526
H147	H	1.079099	0.413009	-0.001175
F148	F	1.044838	0.283090	0.455270
F149	F	0.854096	0.550992	-0.429488
F150	F	0.747103	1.187583	-0.602736
F151	F	0.854512	0.550683	-0.556681
F152	F	1.195983	0.213879	-0.077989
H153	H	0.318750	0.700758	0.063429
F154	F	0.544348	0.980126	0.017340
H155	H	0.409202	1.110095	0.009080
F156	F	0.597355	0.844496	-0.707845
F157	F	0.544319	0.980099	-0.453691
H158	H	0.377070	0.988512	-0.140390
H159	H	1.179929	0.230693	0.415660
F160	F	0.721473	0.846922	-0.715915
H161	H	0.709767	0.230695	0.442912
H162	H	0.748552	0.562841	-0.552518
H163	H	0.440350	0.700759	0.056393
F164	F	0.241910	1.118504	-0.148646
F165	F	0.847065	0.702601	-0.515416
H166	H	0.276291	1.170917	-0.063861
F167	F	0.829118	1.118400	-0.443116
F168	F	0.911850	0.421418	0.312129
H169	H	0.239455	0.700739	-0.149960
F170	F	0.801915	0.421387	-0.152552
F171	F	0.208336	0.700765	0.024128
F172	F	0.796511	0.283043	-0.146580
H173	H	0.664834	0.988474	-0.459026
H174	H	0.377097	0.988464	-0.286050
F175	F	0.829088	0.118470	-0.182640
H176	H	0.930137	0.413029	-0.148865
H177	H	0.813758	-0.011511	-0.165656
H178	H	0.669589	0.110091	-0.005980
H179	H	1.079072	0.413053	0.144488
F180	F	0.627089	0.283039	0.041087
F181	F	0.627078	0.283071	0.301642
H182	H	0.260240	1.110051	-0.411841
F183	F	0.740161	0.550726	-0.423380
F184	F	0.606506	0.703618	-0.627809
H185	H	0.608670	0.822970	-0.575271
H186	H	0.615091	0.715798	-0.514040
F187	F	0.727798	0.844175	-0.587305
H188	H	1.195931	0.291496	0.270279
