data_functionalizedCrystal
_audit_creation_method	'MofGen! by Chris Wilmer'
_symmetry_space_group_name_H-M	'P1'
_symmetry_Int_Tables_number	1
_symmetry_cell_setting	triclinic
loop_
_symmetry_equiv_pos_as_xyz
  x,y,z
_cell_length_a	12.645331
_cell_length_b	12.827892
_cell_length_c	12.827885
_cell_angle_alpha	90.029786
_cell_angle_beta	89.978553
_cell_angle_gamma	89.985629
loop_
_atom_site_label
_atom_site_type_symbol
_atom_site_fract_x
_atom_site_fract_y
_atom_site_fract_z
Zn1	Zn	1.620735	0.416011	-0.590909
Zn2	Zn	2.120735	0.916011	-0.090909
Zn3	Zn	1.620628	0.590788	-0.416170
Zn4	Zn	2.120628	1.090788	0.083830
Zn5	Zn	1.443454	0.416059	-0.416176
Zn6	Zn	1.943454	0.916059	0.083824
Zn7	Zn	1.443439	0.590707	-0.590863
Zn8	Zn	1.943439	1.090707	-0.090863
O9	O	1.532064	0.503391	-0.503530
O10	O	2.032064	1.003391	-0.003530
O11	O	1.769068	0.439209	-0.567746
O12	O	2.269068	0.939209	-0.067746
O13	O	1.597087	0.567664	-0.269934
O14	O	2.097087	1.067664	0.230066
O15	O	1.467022	0.269816	-0.439377
O16	O	1.967022	0.769816	0.060623
O17	O	1.768989	0.567617	-0.439366
O18	O	2.268989	1.067617	0.060634
O19	O	1.597270	0.269781	-0.567753
O20	O	2.097270	0.769781	-0.067753
O21	O	1.466918	0.439291	-0.269939
O22	O	1.966918	0.939291	0.230061
O23	O	1.295105	0.439212	-0.439332
O24	O	1.795105	0.939212	0.060668
O25	O	1.466996	0.567480	-0.737105
O26	O	1.966996	1.067480	-0.237105
O27	O	1.295094	0.567526	-0.567674
O28	O	1.795094	1.067526	-0.067674
O29	O	1.597255	0.439131	-0.737139
O30	O	2.097255	0.939131	-0.237139
O31	O	1.597072	0.737014	-0.439321
O32	O	2.097072	1.237014	0.060679
O33	O	1.466892	0.736954	-0.567667
O34	O	1.966892	1.236954	-0.067667
C35	C	1.256634	0.503366	-0.503499
C36	C	1.756634	1.003366	-0.003499
C37	C	1.138804	0.503381	-0.503511
C38	C	1.638804	1.003381	-0.003511
C39	C	1.531998	0.774901	-0.503511
C40	C	2.031998	1.274901	-0.003511
C41	C	1.532066	0.891054	-0.503538
C42	C	2.032066	1.391054	-0.003538
C43	C	1.532136	0.503291	-0.776100
C44	C	2.032136	1.003291	-0.276100
C45	C	1.532167	0.503248	-0.892253
C46	C	2.032167	1.003248	-0.392253
C47	C	0.971212	0.422288	-0.423217
C48	C	1.471212	0.922288	0.076783
C49	C	1.093771	0.422497	-0.422863
C50	C	1.593771	0.922497	0.077137
C51	C	1.094289	0.613468	-0.473429
C52	C	1.594289	1.113468	0.026571
C53	C	0.971691	0.613025	-0.472881
C54	C	1.471691	1.113025	0.027119
C55	C	0.971651	0.475435	-0.614198
C56	C	1.471651	0.975435	-0.114198
C57	C	1.094257	0.472976	-0.613583
C58	C	1.594257	0.972976	-0.113583
C59	C	1.808569	0.503417	-0.503560
C60	C	2.308569	1.003417	-0.003560
C61	C	1.926399	0.503428	-0.503574
C62	C	2.426399	1.003428	-0.003574
C63	C	1.532159	0.230821	-0.503571
C64	C	2.032159	0.730821	-0.003571
C65	C	1.532200	0.114668	-0.503589
C66	C	2.032200	0.614668	-0.003589
C67	C	1.596560	0.942834	-0.440099
C68	C	2.096560	1.442834	0.059901
C69	C	1.596632	1.062884	-0.440125
C70	C	2.096632	1.562884	0.059875
C71	C	1.596630	0.439725	-0.944055
C72	C	2.096630	0.939725	-0.444055
C73	C	1.596663	0.439679	-1.064105
C74	C	2.096663	0.939679	-0.564105
C75	C	1.532053	0.503416	-0.232020
C76	C	2.032053	1.003416	0.267980
C77	C	1.532228	0.503164	-0.115867
C78	C	2.032228	1.003164	0.384133
H79	H	1.123868	0.340864	-0.441718
H80	H	1.623868	0.840864	0.058282
H81	H	0.940751	0.396561	-0.641555
H82	H	1.440751	0.896561	-0.141555
Cl83	Cl	1.446986	0.587161	-0.960991
Cl84	Cl	1.946986	1.087161	-0.460991
H85	H	1.651791	0.385370	-0.899527
H86	H	2.151791	0.885370	-0.399527
H87	H	1.651856	0.385298	-1.108653
H88	H	2.151856	0.885298	-0.608653
Cl89	Cl	0.925716	0.295867	-0.452011
Cl90	Cl	1.425716	0.795867	0.047989
H91	H	1.123052	0.441000	-0.340886
H92	H	1.623052	0.941000	0.159114
H93	H	0.940366	0.440585	-0.341722
H94	H	1.440366	0.940585	0.158278
H95	H	1.476909	0.935601	-0.557875
H96	H	1.976909	1.435601	-0.057875
Cl97	Cl	1.447018	0.587144	-1.047101
Cl98	Cl	1.947018	1.087144	-0.547101
Cl99	Cl	1.681880	1.131628	-0.356260
Cl100	Cl	2.181880	1.631628	0.143740
H101	H	1.123357	0.391965	-0.636266
H102	H	1.623357	0.891965	-0.136266
H103	H	0.943048	0.636763	-0.392009
H104	H	1.443048	1.136763	0.107991
H105	H	0.942047	0.675528	-0.528857
H106	H	1.442047	1.175528	-0.028857
H107	H	1.124947	0.637613	-0.393426
H108	H	1.624947	1.137613	0.106574
Cl109	Cl	1.139311	0.709305	-0.560961
Cl110	Cl	1.639311	1.209305	-0.060961
Cl111	Cl	1.141582	0.557568	-0.710968
Cl112	Cl	1.641582	1.057568	-0.210968
H113	H	1.651727	0.898290	-0.385769
H114	H	2.151727	1.398290	0.114231
Cl115	Cl	0.926911	0.566677	-0.706638
Cl116	Cl	1.426911	1.066677	-0.206638
H117	H	1.476977	1.070147	-0.557901
H118	H	1.976977	1.570147	-0.057901
