data_functionalizedCrystal
_audit_creation_method	'MofGen! by Chris Wilmer'
_symmetry_space_group_name_H-M	'P1'
_symmetry_Int_Tables_number	1
_symmetry_cell_setting	triclinic
loop_
_symmetry_equiv_pos_as_xyz
  x,y,z
_cell_length_a	10.489741
_cell_length_b	14.044220
_cell_length_c	12.503552
_cell_angle_alpha	86.160109
_cell_angle_beta	86.444084
_cell_angle_gamma	91.135974
loop_
_atom_site_label
_atom_site_type_symbol
_atom_site_fract_x
_atom_site_fract_y
_atom_site_fract_z
O1	O	0.300997	-1.265226	0.089205
O2	O	0.289890	-0.989183	0.089232
O3	O	0.110483	-1.133486	0.089212
O4	O	0.480403	-1.120924	0.089226
O5	O	0.123987	-1.122621	-0.089429
O6	O	0.303394	-0.978318	-0.089409
O7	O	0.314501	-1.254362	-0.089436
Cu8	Cu	0.310180	-1.115348	-0.105734
Cu9	Cu	0.294210	-1.128197	0.105530
O10	O	0.493907	-1.110059	-0.089415
C11	C	0.291780	-0.948403	-0.000085
C12	C	0.277280	-0.843079	-0.000074
C13	C	0.069607	-1.127104	-0.000108
C14	C	-0.072311	-1.124266	-0.000106
C15	C	0.312610	-1.295142	-0.000116
C16	C	0.327110	-1.400466	-0.000120
C17	C	-0.149764	-1.032451	-0.000089
C18	C	-0.230829	-1.070467	-0.088172
C19	C	-0.244116	-1.081200	0.087954
C20	C	-0.151501	-1.162315	-0.088262
C21	C	-0.164785	-1.173041	0.087943
C22	C	-0.245814	-1.211122	-0.000162
C23	C	0.534783	-1.116440	-0.000093
C24	C	0.676700	-1.119279	-0.000088
N25	N	0.321413	-1.106317	-0.254325
C26	C	0.250773	-0.650235	-0.000097
C27	C	0.353611	-0.593304	-0.000097
C28	C	0.338862	-0.485999	-0.000110
C29	C	0.265520	-0.757550	-0.000084
C30	C	0.266441	-1.150514	-0.526764
C31	C	0.337937	-1.093041	-0.473432
C32	C	0.328740	-1.100430	-0.351510
C33	C	0.275635	-1.143126	-0.648698
N34	N	0.282969	-1.137235	0.254122
H35	H	-0.107764	-0.956955	-0.000170
Cl36	Cl	0.443108	-1.008510	-0.544308
Cl37	Cl	0.161283	-1.235047	-0.455893
H38	H	0.151662	-0.618389	-0.000106
H39	H	-0.260152	-1.027088	-0.162633
Cl40	Cl	0.506645	-0.642471	-0.000085
Cl41	Cl	-0.089128	-1.215246	-0.203364
H42	H	-0.135432	-1.216386	0.162408
Cl43	Cl	-0.310289	-1.327772	-0.000245
H44	H	-0.284651	-1.046869	0.162429
