data_functionalizedCrystal
_audit_creation_method	'MofGen! by Chris Wilmer'
_symmetry_space_group_name_H-M	'P1'
_symmetry_Int_Tables_number	1
_symmetry_cell_setting	triclinic
loop_
_symmetry_equiv_pos_as_xyz
  x,y,z
_cell_length_a	6.817900
_cell_length_b	12.840946
_cell_length_c	17.982959
_cell_angle_alpha	81.772463
_cell_angle_beta	76.724534
_cell_angle_gamma	88.344365
loop_
_atom_site_label
_atom_site_type_symbol
_atom_site_fract_x
_atom_site_fract_y
_atom_site_fract_z
V1	V	-3.894555	0.281457	0.107221
O2	O	-3.888434	0.320370	-0.003294
O3	O	-3.843275	0.236955	0.210814
O4	O	-3.790184	0.423635	0.106387
O5	O	-3.941893	0.132397	0.101856
V6	V	-4.385809	0.268801	0.093906
O7	O	-4.138856	0.309220	0.136429
O8	O	-4.591706	0.241037	0.064698
O9	O	-4.213883	0.313303	-0.009687
O10	O	-4.509327	0.229888	0.204421
O11	O	-4.455869	0.417861	0.099271
O12	O	-4.266974	0.126622	0.094740
C13	C	-3.689386	0.221528	0.236042
C14	C	-3.728372	0.186090	0.320736
C15	C	-3.926616	0.173062	0.364423
C16	C	-3.963276	0.139779	0.444005
C17	C	-3.801689	0.119518	0.479897
C18	C	-3.603428	0.132551	0.436204
C19	C	-3.566771	0.165840	0.356625
C20	C	-3.621675	0.459658	0.102832
C21	C	-3.617527	0.577789	0.102835
C22	C	-4.081852	-0.027541	0.098324
C23	C	-4.098853	0.090594	0.098308
V24	V	-3.877525	0.767616	0.107243
O25	O	-3.914258	0.921009	0.101887
O26	O	-3.783288	0.620775	0.106400
O27	O	-3.824708	0.766742	0.210836
O28	O	-3.872551	0.774031	-0.003272
V29	V	-4.366836	0.810493	0.093934
O30	O	-4.123761	0.740169	0.136452
O31	O	-4.570004	0.860624	0.064731
O32	O	-4.238259	0.946087	0.094775
O33	O	-4.447293	0.663015	0.099292
O34	O	-4.489000	0.809992	0.204451
O35	O	-4.196839	0.800120	-0.009661
C36	C	-4.031115	0.328725	-0.034911
C37	C	-3.971365	0.364170	-0.119604
C38	C	-3.670371	0.763982	0.236059
C39	C	-3.708023	0.766409	0.320753
C40	C	-4.015111	0.785914	-0.034892
C41	C	-3.956734	0.782451	-0.119588
C42	C	-3.905619	0.771397	0.364454
C43	C	-3.940985	0.773683	0.444032
C44	C	-3.778753	0.770974	0.479908
C45	C	-3.581140	0.765989	0.436201
C46	C	-3.545776	0.763711	0.356624
C47	C	-3.723755	0.775180	0.757127
C48	C	-3.759136	0.777456	0.836711
C49	C	-4.118964	0.785153	0.844536
C50	C	-4.083600	0.782874	0.764958
C51	C	-3.885991	0.777895	0.721257
C52	C	-3.847645	0.775418	0.634970
C53	C	-3.817097	0.773444	0.566195
C54	C	-4.118107	0.377200	-0.163291
C55	C	-4.061989	0.410488	-0.242872
C56	C	-3.859129	0.430752	-0.278763
C57	C	-3.712377	0.417716	-0.235071
C58	C	-3.768494	0.384422	-0.155493
H59	H	-3.405337	0.176440	0.321060
H60	H	-3.384875	0.759655	0.321042
O61	O	-3.446540	0.112668	0.471088
C62	C	-3.277216	-0.015484	0.545618
C63	C	-3.454948	0.006895	0.506127
H64	H	-3.283978	-0.100993	0.573970
H65	H	-3.129143	-0.000541	0.500755
H66	H	-3.287029	0.038551	0.591412
H67	H	-3.445329	-0.047124	0.460337
H68	H	-3.602947	-0.008015	0.551035
O69	O	-4.240967	0.785453	0.729993
C70	C	-4.345951	0.785423	0.610860
C71	C	-4.167549	0.782468	0.650362
H72	H	-4.286656	0.783033	0.546470
H73	H	-4.448283	0.714587	0.637140
H74	H	-4.435000	0.860921	0.619725
H75	H	-4.078346	0.707017	0.641511
H76	H	-4.065361	0.853355	0.624076
O77	O	-4.063165	0.773840	0.329594
C78	C	-4.240236	0.685193	0.255098
C79	C	-4.061758	0.682278	0.294557
H80	H	-4.239133	0.611184	0.226746
H81	H	-4.387610	0.689086	0.299979
H82	H	-4.226013	0.757517	0.209307
H83	H	-4.075787	0.609961	0.340343
H84	H	-3.914455	0.678440	0.249630
H85	H	-3.449050	0.763790	0.465417
O86	O	-4.204711	0.422984	-0.285239
C87	C	-4.465803	0.340634	-0.327117
C88	C	-4.304278	0.326342	-0.279096
H89	H	-4.546320	0.262507	-0.322180
H90	H	-4.579721	0.402016	-0.304625
H91	H	-4.390837	0.367954	-0.390151
H92	H	-4.379068	0.298986	-0.216053
H93	H	-4.190377	0.264991	-0.301652
H94	H	-3.813462	0.457861	-0.343562
O95	O	-4.315074	0.357348	-0.128366
C96	C	-4.560840	0.229175	-0.053950
C97	C	-4.337700	0.251526	-0.093444
H98	H	-4.579212	0.143614	-0.025719
H99	H	-4.612511	0.283094	-0.008084
H100	H	-4.656024	0.244261	-0.098862
H101	H	-4.242359	0.236430	-0.048589
H102	H	-4.286190	0.197614	-0.139325
O103	O	-3.515426	0.437502	-0.270057
C104	C	-3.274069	0.491970	-0.389211
C105	C	-3.497187	0.469611	-0.349683
H106	H	-3.259246	0.517914	-0.453597
H107	H	-3.215425	0.557013	-0.362936
H108	H	-3.182332	0.417453	-0.380362
H109	H	-3.589085	0.544067	-0.358518
H110	H	-3.555671	0.404527	-0.375964
O111	O	-4.310852	0.789860	0.887085
C112	C	-4.567888	0.706293	0.992285
C113	C	-4.350533	0.700849	0.944174
H114	H	-4.600052	0.634326	1.038442
H115	H	-4.586865	0.780671	1.021034
H116	H	-4.677715	0.707882	0.952951
H117	H	-4.240572	0.699218	0.983454
H118	H	-4.331723	0.626480	0.915416
H119	H	-3.648989	0.373824	-0.119928
H120	H	-4.124721	0.129170	0.479568
O121	O	-4.083524	0.192581	0.329509
C122	C	-4.248944	0.148059	0.233328
C123	C	-4.071165	0.125826	0.272809
H124	H	-4.238988	0.094116	0.187467
H125	H	-4.396985	0.132983	0.278190
H126	H	-4.242395	0.233605	0.205062
H127	H	-4.077520	0.040287	0.301073
H128	H	-3.923201	0.140973	0.227914
H129	H	-3.831565	0.092412	0.544695
H130	H	-4.101885	0.777747	0.479610
O131	O	-3.601682	0.774976	0.871630
C132	C	-3.424509	0.863689	0.946056
C133	C	-3.602916	0.866621	0.906559
H134	H	-3.425423	0.937786	0.974292
H135	H	-3.438697	0.791446	0.991919
H136	H	-3.277229	0.859691	0.901145
H137	H	-3.750281	0.870658	0.951413
H138	H	-3.588550	0.938854	0.860682
H139	H	-3.562856	0.771118	0.721556
