data_functionalizedCrystal
_audit_creation_method	'MofGen! by Chris Wilmer'
_symmetry_space_group_name_H-M	'P1'
_symmetry_Int_Tables_number	1
_symmetry_cell_setting	triclinic
loop_
_symmetry_equiv_pos_as_xyz
  x,y,z
_cell_length_a	18.101395
_cell_length_b	16.120530
_cell_length_c	18.101390
_cell_angle_alpha	92.916565
_cell_angle_beta	90.034180
_cell_angle_gamma	87.127367
loop_
_atom_site_label
_atom_site_type_symbol
_atom_site_fract_x
_atom_site_fract_y
_atom_site_fract_z
Zn1	Zn	-0.352281	1.274485	0.476062
Zn2	Zn	-0.018947	1.607818	0.809395
Zn3	Zn	0.314386	1.941151	1.142728
Zn4	Zn	-0.476132	1.274365	0.352212
Zn5	Zn	-0.142799	1.607698	0.685545
Zn6	Zn	0.190534	1.941031	1.018879
Zn7	Zn	-0.346027	1.135070	0.345963
Zn8	Zn	-0.012694	1.468403	0.679296
Zn9	Zn	0.320640	1.801736	1.012629
Zn10	Zn	-0.469795	1.135013	0.469743
Zn11	Zn	-0.136462	1.468346	0.803077
Zn12	Zn	0.196872	1.801680	1.136410
O13	O	-0.411059	1.204733	0.410995
O14	O	-0.077725	1.538066	0.744328
O15	O	0.255608	1.871400	1.077662
O16	O	-0.373980	1.391134	0.464893
O17	O	-0.040646	1.724467	0.798226
O18	O	0.292687	2.057800	1.131559
O19	O	-0.458909	1.255860	0.247749
O20	O	-0.125575	1.589193	0.581082
O21	O	0.207758	1.922527	0.914416
O22	O	-0.243227	1.153637	0.363249
O23	O	0.090106	1.486971	0.696583
O24	O	0.423440	1.820304	1.029916
O25	O	-0.464973	1.391045	0.373901
O26	O	-0.131639	1.724379	0.707234
O27	O	0.201694	2.057712	1.040568
O28	O	-0.247822	1.256065	0.458833
O29	O	0.085512	1.589398	0.792166
O30	O	0.418845	1.922732	1.125499
O31	O	-0.363321	1.153521	0.243158
O32	O	-0.029988	1.486854	0.576491
O33	O	0.303346	1.820187	0.909824
O34	O	-0.357176	1.018397	0.357123
O35	O	-0.023842	1.351731	0.690456
O36	O	0.309491	1.685064	1.023789
O37	O	-0.454171	1.153541	0.574216
O38	O	-0.120838	1.486874	0.907549
O39	O	0.212495	1.820207	1.240882
O40	O	-0.448107	1.018356	0.448064
O41	O	-0.114774	1.351689	0.781397
O42	O	0.218559	1.685022	1.114730
O43	O	-0.367834	1.256010	0.578858
O44	O	-0.034501	1.589343	0.912191
O45	O	0.298832	1.922677	1.245524
O46	O	-0.578921	1.255805	0.367774
O47	O	-0.245588	1.589139	0.701107
O48	O	0.087745	1.922472	1.034441
O49	O	-0.574265	1.153424	0.454124
O50	O	-0.240932	1.486758	0.787457
O51	O	0.092402	1.820091	1.120790
C52	C	-0.401276	0.988127	0.401230
C53	C	-0.067942	1.321460	0.734563
C54	C	0.265391	1.654793	1.067896
C55	C	-0.397108	0.895461	0.397070
C56	C	-0.063775	1.228795	0.730403
C57	C	0.269558	1.562128	1.063736
C58	C	-0.389482	0.725801	0.389481
C59	C	-0.056149	1.059134	0.722814
C60	C	0.277184	1.392468	1.056148
C61	C	-0.432690	0.684505	0.432563
C62	C	-0.099357	1.017839	0.765896
C63	C	0.233977	1.351172	1.099230
C64	C	-0.428447	0.590100	0.428341
C65	C	-0.095113	0.923434	0.761674
C66	C	0.238220	1.256767	1.095007
C67	C	-0.393724	0.820214	0.393703
C68	C	-0.060391	1.153548	0.727036
C69	C	0.272942	1.486881	1.060369
C70	C	-0.603464	1.204618	0.410958
C71	C	-0.270131	1.537952	0.744292
C72	C	0.063202	1.871285	1.077625
C73	C	-0.685780	1.204645	0.410971
C74	C	-0.352446	1.537979	0.744304
C75	C	-0.019113	1.871312	1.077638
C76	C	-0.836492	1.204741	0.411005
C77	C	-0.503159	1.538074	0.744338
C78	C	-0.169826	1.871408	1.077671
C79	C	-0.864946	1.140293	0.465288
C80	C	-0.531613	1.473626	0.798621
C81	C	-0.198279	1.806959	1.131955
C82	C	-0.950575	1.140536	0.465540
C83	C	-0.617242	1.473869	0.798874
C84	C	-0.283908	1.807203	1.132207
C85	C	-0.984879	1.204834	0.411038
C86	C	-0.651546	1.538167	0.744371
C87	C	-0.318212	1.871501	1.077705
C88	C	-0.957658	1.292727	0.435988
C89	C	-0.624325	1.626060	0.769321
C90	C	-0.290992	1.959394	1.102654
C91	C	-0.871994	1.292300	0.436367
C92	C	-0.538661	1.625634	0.769700
C93	C	-0.205327	1.958967	1.103034
C94	C	-0.867114	1.182085	0.331670
C95	C	-0.533781	1.515418	0.665003
C96	C	-0.200447	1.848751	0.998337
C97	C	-0.952681	1.180200	0.332019
C98	C	-0.619348	1.513533	0.665353
C99	C	-0.286014	1.846866	0.998686
C100	C	-1.068741	1.204892	0.411056
C101	C	-0.735408	1.538225	0.744389
C102	C	-0.402074	1.871558	1.077722
C103	C	-0.752630	1.204689	0.410989
C104	C	-0.419297	1.538022	0.744322
C105	C	-0.085964	1.871356	1.077656
C106	C	-0.217903	1.204871	0.411049
C107	C	0.115430	1.538204	0.744382
C108	C	0.448764	1.871538	1.077716
C109	C	-0.135592	1.204930	0.411072
C110	C	0.197742	1.538263	0.744405
C111	C	0.531075	1.871596	1.077738
C112	C	-0.410993	1.204782	0.604159
C113	C	-0.077660	1.538116	0.937493
C114	C	0.255673	1.871449	1.270826
C115	C	-0.410966	1.204804	0.686474
C116	C	-0.077632	1.538137	1.019808
C117	C	0.255701	1.871470	1.353141
C118	C	-0.420881	1.422185	0.420799
C119	C	-0.087547	1.755518	0.754132
C120	C	0.245786	2.088852	1.087465
C121	C	-0.425066	1.514850	0.424976
C122	C	-0.091733	1.848184	0.758310
C123	C	0.241600	2.181517	1.091643
C124	C	-0.411073	1.204732	0.218584
C125	C	-0.077739	1.538065	0.551918
C126	C	0.255594	1.871398	0.885251
C127	C	-0.410899	1.204872	0.136277
C128	C	-0.077566	1.538205	0.469610
C129	C	0.255768	1.871539	0.802944
C130	C	-0.410921	1.204849	0.985567
C131	C	-0.077588	1.538182	1.318901
C132	C	0.255745	1.871515	1.652234
C133	C	-0.356811	1.269532	0.957173
C134	C	-0.023478	1.602865	1.290506
C135	C	0.309855	1.936198	1.623839
C136	C	-0.356591	1.269330	0.871545
C137	C	-0.023257	1.602663	1.204878
C138	C	0.310076	1.935997	1.538212
C139	C	-0.410943	1.204827	0.837184
C140	C	-0.077610	1.538160	1.170517
C141	C	0.255723	1.871494	1.503851
C142	C	-0.385779	1.117000	0.864307
C143	C	-0.052446	1.450333	1.197640
C144	C	0.280888	1.783667	1.530974
C145	C	-0.385369	1.117387	0.949970
C146	C	-0.052036	1.450720	1.283303
C147	C	0.281298	1.784054	1.616636
C148	C	-0.490307	1.227219	0.954984
C149	C	-0.156974	1.560552	1.288318
C150	C	0.176359	1.893886	1.621651
C151	C	-0.489995	1.229147	0.869421
C152	C	-0.156661	1.562480	1.202754
C153	C	0.176672	1.895813	1.536088
C154	C	-0.410957	1.204809	0.753324
C155	C	-0.077623	1.538143	1.086657
C156	C	0.255710	1.871476	1.419990
C157	C	-0.410906	1.204860	1.069427
C158	C	-0.077573	1.538194	1.402761
C159	C	0.255761	1.871527	1.736094
H160	H	-0.968725	1.075369	0.449485
H161	H	-0.635392	1.408703	0.782819
H162	H	-0.302059	1.742036	1.116152
H163	H	-0.298413	1.254912	0.978054
H164	H	0.034921	1.588245	1.311387
H165	H	0.368254	1.921579	1.644721
H166	H	-0.423803	1.067498	0.841700
H167	H	-0.090470	1.400831	1.175034
H168	H	0.242863	1.734165	1.508367
H169	H	-0.349308	0.690257	0.349429
H170	H	-0.015975	1.023591	0.682763
H171	H	0.317359	1.356924	1.016096
H172	H	-0.844040	1.155126	0.523655
H173	H	-0.510707	1.488459	0.856988
H174	H	-0.177374	1.821792	1.190321
H175	H	-0.841477	1.074893	0.449370
H176	H	-0.508144	1.408227	0.782703
H177	H	-0.174811	1.741560	1.116037
H178	H	-0.372872	1.334870	0.980713
H179	H	-0.039539	1.668204	1.314047
H180	H	0.293794	2.001537	1.647380
H181	H	-0.328252	1.097690	0.842001
H182	H	0.005082	1.431024	1.175335
H183	H	0.338415	1.764357	1.508668
H184	H	-0.422851	1.067554	0.968435
H185	H	-0.089517	1.400887	1.301768
H186	H	0.243816	1.734221	1.635102
H187	H	-0.530674	1.180111	0.973114
H188	H	-0.197341	1.513444	1.306448
H189	H	0.135992	1.846778	1.639781
H190	H	-0.472867	0.720051	0.472619
H191	H	-0.139534	1.053385	0.805952
H192	H	0.193800	1.386718	1.139285
H193	H	-0.971688	1.155604	0.524250
H194	H	-0.638355	1.488938	0.857583
H195	H	-0.305021	1.822271	1.190916
H196	H	-0.852824	1.311478	0.494473
H197	H	-0.519491	1.644811	0.827806
H198	H	-0.186157	1.978144	1.161139
H199	H	-0.853483	1.341970	0.398754
H200	H	-0.520150	1.675304	0.732087
H201	H	-0.186816	2.008637	1.065420
H202	H	-0.848942	1.229020	0.291178
H203	H	-0.515608	1.562353	0.624511
H204	H	-0.182275	1.895686	0.957844
H205	H	-0.327221	1.098423	0.969109
H206	H	0.006113	1.431756	1.302442
H207	H	0.339446	1.765089	1.635776
H208	H	-0.372806	1.334456	0.853466
H209	H	-0.039473	1.667789	1.186800
H210	H	0.293861	2.001122	1.520133
H211	H	-0.980220	1.342084	0.397848
H212	H	-0.646887	1.675417	0.731181
H213	H	-0.313553	2.008751	1.064515
H214	H	-0.979930	1.312263	0.493489
H215	H	-0.646597	1.645596	0.826822
H216	H	-0.313263	1.978929	1.160156
H217	H	-0.842742	1.119059	0.309679
H218	H	-0.509408	1.452392	0.643012
H219	H	-0.176075	1.785725	0.976346
H220	H	-0.970156	1.115516	0.313272
H221	H	-0.636823	1.448849	0.646605
H222	H	-0.303490	1.782183	0.979939
H223	H	-0.976032	1.223720	0.289113
H224	H	-0.642698	1.557053	0.622447
H225	H	-0.309365	1.890386	0.955780
H226	H	-0.297860	1.254523	0.850408
H227	H	0.035474	1.587856	1.183741
H228	H	0.368807	1.921189	1.517074
H229	H	-0.512452	1.290139	0.979458
H230	H	-0.179119	1.623473	1.312792
H231	H	0.154215	1.956806	1.646125
H232	H	-0.508898	1.293779	0.852018
H233	H	-0.175565	1.627113	1.185351
H234	H	0.157768	1.960446	1.518685
H235	H	-0.532797	1.185460	0.846038
H236	H	-0.199464	1.518793	1.179371
H237	H	0.133870	1.852127	1.512704
