data_functionalizedCrystal
_audit_creation_method	'MofGen! by Chris Wilmer'
_symmetry_space_group_name_H-M	'P1'
_symmetry_Int_Tables_number	1
_symmetry_cell_setting	triclinic
loop_
_symmetry_equiv_pos_as_xyz
  x,y,z
_cell_length_a	16.109301
_cell_length_b	16.109301
_cell_length_c	14.586319
_cell_angle_alpha	90.000846
_cell_angle_beta	90.000787
_cell_angle_gamma	96.538519
loop_
_atom_site_label
_atom_site_type_symbol
_atom_site_fract_x
_atom_site_fract_y
_atom_site_fract_z
O1	O	-1.103131	0.106866	-0.076173
O2	O	-0.769797	0.440199	0.257161
O3	O	-0.436464	0.773533	0.590494
O4	O	-0.861069	0.120165	-0.076186
O5	O	-0.527735	0.453499	0.257147
O6	O	-0.194402	0.786832	0.590480
O7	O	-0.988749	-0.007515	-0.076184
O8	O	-0.655416	0.325818	0.257149
O9	O	-0.322083	0.659151	0.590483
O10	O	-0.975450	0.234547	-0.076175
O11	O	-0.642117	0.567880	0.257158
O12	O	-0.308783	0.901213	0.590492
O13	O	-0.988741	-0.007517	0.076297
O14	O	-0.655407	0.325816	0.409630
O15	O	-0.322074	0.659150	0.742964
O16	O	-0.861060	0.120164	0.076295
O17	O	-0.527727	0.453497	0.409628
O18	O	-0.194393	0.786830	0.742961
O19	O	-1.103122	0.106864	0.076308
O20	O	-0.769789	0.440198	0.409641
O21	O	-0.436455	0.773531	0.742975
Cu22	Cu	-0.982090	0.113514	0.090224
Cu23	Cu	-0.648757	0.446847	0.423557
Cu24	Cu	-0.315423	0.780180	0.756891
Cu25	Cu	-0.982101	0.113516	-0.090102
Cu26	Cu	-0.648767	0.446849	0.243231
Cu27	Cu	-0.315434	0.780183	0.576564
O28	O	-0.975441	0.234545	0.076306
O29	O	-0.642108	0.567878	0.409639
O30	O	-0.308775	0.901212	0.742972
C31	C	-0.830090	0.119626	0.000052
C32	C	-0.496756	0.452959	0.333386
C33	C	-0.163423	0.786292	0.666719
C34	C	-0.737794	0.118011	0.000047
C35	C	-0.404461	0.451344	0.333380
C36	C	-0.071128	0.784677	0.666713
C37	C	-0.988206	-0.038491	0.000053
C38	C	-0.654873	0.294842	0.333387
C39	C	-0.321540	0.628176	0.666720
C40	C	-0.986591	-0.130786	0.000044
C41	C	-0.653258	0.202547	0.333377
C42	C	-0.319925	0.535880	0.666710
C43	C	-1.134101	0.107404	0.000067
C44	C	-0.800768	0.440737	0.333401
C45	C	-0.467435	0.774071	0.666734
C46	C	-1.226397	0.109019	0.000067
C47	C	-0.893063	0.442352	0.333400
C48	C	-0.559730	0.775686	0.666734
C49	C	-0.975984	0.265521	0.000066
C50	C	-0.642651	0.598854	0.333400
C51	C	-0.309318	0.932187	0.666733
C52	C	-0.977600	0.357816	0.000070
C53	C	-0.644266	0.691149	0.333403
C54	C	-0.310933	1.024483	0.666737
C55	C	-0.515522	0.190018	0.000060
C56	C	-0.182188	0.523352	0.333393
C57	C	0.151145	0.856685	0.666727
C58	C	-0.428801	0.188494	0.000066
C59	C	-0.095468	0.521828	0.333399
C60	C	0.237865	0.855161	0.666732
C61	C	-0.448676	0.037006	0.000057
C62	C	-0.115342	0.370339	0.333390
C63	C	0.217991	0.703672	0.666723
C64	C	-0.535394	0.038530	0.000057
C65	C	-0.202061	0.371864	0.333391
C66	C	0.131272	0.705197	0.666724
C67	C	-0.568815	0.115039	0.000054
C68	C	-0.235482	0.448373	0.333388
C69	C	0.097852	0.781706	0.666721
C70	C	-0.395376	0.111990	0.000059
C71	C	-0.062042	0.445324	0.333393
C72	C	0.271291	0.778657	0.666726
C73	C	-0.301350	0.110337	0.000066
C74	C	0.031984	0.443671	0.333399
C75	C	0.365317	0.777004	0.666732
C76	C	-0.662847	0.116693	0.000050
C77	C	-0.329514	0.450026	0.333383
C78	C	0.003820	0.783359	0.666716
N79	N	-0.982089	0.113512	0.217056
N80	N	-0.648755	0.446845	0.550389
N81	N	-0.315422	0.780178	0.883722
C82	C	-0.905592	0.580088	0.000053
C83	C	-0.572259	0.913422	0.333386
C84	C	-0.238925	1.246755	0.666719
C85	C	-0.907116	0.666809	0.000046
C86	C	-0.573783	1.000142	0.333379
C87	C	-0.240449	1.333475	0.666713
C88	C	-1.058605	0.646934	0.000058
C89	C	-0.725271	0.980268	0.333392
C90	C	-0.391938	1.313601	0.666725
C91	C	-1.057080	0.560216	0.000059
C92	C	-0.723746	0.893549	0.333392
C93	C	-0.390413	1.226882	0.666725
C94	C	-0.980571	0.526795	0.000060
C95	C	-0.647238	0.860129	0.333394
C96	C	-0.313904	1.193462	0.666727
C97	C	-0.983620	0.700234	0.000053
C98	C	-0.650287	1.033568	0.333387
C99	C	-0.316953	1.366901	0.666720
C100	C	-0.985273	0.794260	0.000046
C101	C	-0.651940	1.127594	0.333379
C102	C	-0.318606	1.460927	0.666713
C103	C	-0.978917	0.432763	0.000066
C104	C	-0.645584	0.766097	0.333399
C105	C	-0.312251	1.099430	0.666733
N106	N	-0.982109	0.113511	-0.216934
N107	N	-0.648775	0.446845	0.116399
N108	N	-0.315442	0.780178	0.449733
C109	C	-1.038644	0.056994	0.452063
C110	C	-0.705311	0.390327	0.785397
C111	C	-0.371978	0.723660	1.118730
C112	C	-1.038647	0.056992	0.548044
C113	C	-0.705314	0.390325	0.881378
C114	C	-0.371980	0.723658	1.214711
C115	C	-0.925547	0.170032	0.548052
C116	C	-0.592213	0.503366	0.881385
C117	C	-0.258880	0.836699	1.214719
C118	C	-0.925541	0.170030	0.452072
C119	C	-0.592208	0.503363	0.785406
C120	C	-0.258874	0.836696	1.118739
C121	C	-0.982095	0.113511	0.404081
C122	C	-0.648761	0.446845	0.737414
C123	C	-0.315428	0.780178	1.070747
C124	C	-0.982103	0.113512	0.596041
C125	C	-0.648769	0.446845	0.929375
C126	C	-0.315436	0.780178	1.262708
C127	C	-0.982105	0.113510	0.700108
C128	C	-0.648772	0.446843	1.033442
C129	C	-0.315438	0.780177	1.366775
C130	C	-0.982092	0.113512	0.300007
C131	C	-0.648758	0.446845	0.633340
C132	C	-0.315425	0.780178	0.966673
H133	H	-0.542730	0.252317	0.000065
H134	H	-0.209396	0.585650	0.333398
H135	H	0.123937	0.918983	0.666731
H136	H	-1.084694	0.010969	0.587109
H137	H	-0.751361	0.344302	0.920443
H138	H	-0.418027	0.677635	1.253776
Cl139	Cl	-0.812852	0.733803	0.000032
Cl140	Cl	-0.479519	1.067136	0.333365
Cl141	Cl	-0.146185	1.400470	0.666698
Cl142	Cl	-0.809410	0.538077	0.000050
Cl143	Cl	-0.476076	0.871410	0.333384
Cl144	Cl	-0.142743	1.204744	0.666717
H145	H	-0.385413	0.249550	0.000072
H146	H	-0.052080	0.582883	0.333406
H147	H	0.281254	0.916217	0.666739
Cl148	Cl	-1.154782	0.688955	0.000060
Cl149	Cl	-0.821449	1.022289	0.333394
Cl150	Cl	-0.488115	1.355622	0.666727
Cl151	Cl	-0.406655	-0.059172	0.000054
Cl152	Cl	-0.073322	0.274162	0.333388
Cl153	Cl	0.260012	0.607495	0.666721
H154	H	-0.879503	0.216049	0.587136
H155	H	-0.546170	0.549383	0.920470
H156	H	-0.212837	0.882716	1.253803
H157	H	-1.118140	0.516822	0.000061
H158	H	-0.784807	0.850155	0.333395
H159	H	-0.451474	1.183488	0.666728
Cl160	Cl	-0.854440	0.241082	0.391745
Cl161	Cl	-0.521107	0.574415	0.725079
Cl162	Cl	-0.187774	0.907749	1.058412
H163	H	-0.578788	-0.022530	0.000055
H164	H	-0.245455	0.310803	0.333389
H165	H	0.087878	0.644136	0.666722
H166	H	-1.084693	0.010972	0.412990
H167	H	-0.751359	0.344305	0.746324
H168	H	-0.418026	0.677638	1.079657
