data_functionalizedCrystal
_audit_creation_method	'MofGen! by Chris Wilmer'
_symmetry_space_group_name_H-M	'P1'
_symmetry_Int_Tables_number	1
_symmetry_cell_setting	triclinic
loop_
_symmetry_equiv_pos_as_xyz
  x,y,z
_cell_length_a	12.645331
_cell_length_b	12.645330
_cell_length_c	12.759393
_cell_angle_alpha	89.971026
_cell_angle_beta	89.984002
_cell_angle_gamma	90.016927
loop_
_atom_site_label
_atom_site_type_symbol
_atom_site_fract_x
_atom_site_fract_y
_atom_site_fract_z
Zn1	Zn	1.620734	-0.422010	-0.593893
Zn2	Zn	1.620615	-0.599310	-0.418217
Zn3	Zn	1.443448	-0.422059	-0.418243
Zn4	Zn	1.443430	-0.599229	-0.593870
O5	O	1.532057	-0.510652	-0.506056
O6	O	1.769065	-0.445542	-0.570588
O7	O	1.597071	-0.575852	-0.271200
O8	O	1.467022	-0.273705	-0.441564
O9	O	1.768978	-0.575804	-0.441520
O10	O	1.597274	-0.273669	-0.570613
O11	O	1.466907	-0.445626	-0.271219
O12	O	1.295098	-0.445548	-0.441541
O13	O	1.466993	-0.575666	-0.740894
O14	O	1.295085	-0.575714	-0.570574
O15	O	1.597257	-0.445464	-0.740911
O16	O	1.597054	-0.747647	-0.441498
O17	O	1.466877	-0.747587	-0.570549
C18	C	1.256627	-0.510628	-0.506058
C19	C	1.138797	-0.510643	-0.506085
C20	C	0.971260	-0.592980	-0.586835
C21	C	1.093820	-0.592714	-0.587173
C22	C	1.094319	-0.398986	-0.536333
C23	C	0.971721	-0.399489	-0.536902
C24	C	0.971551	-0.539065	-0.394829
C25	C	1.094157	-0.541506	-0.395429
C26	C	1.531979	-0.786082	-0.506041
C27	C	1.532043	-0.903912	-0.506070
C28	C	1.450487	-1.071482	-0.587506
C29	C	1.450070	-0.948923	-0.587244
C30	C	1.501797	-0.948514	-0.395350
C31	C	1.501299	-1.071112	-0.395845
C32	C	1.644344	-1.071001	-0.534455
C33	C	1.643656	-0.948394	-0.536876
C34	C	1.808562	-0.510677	-0.506054
C35	C	1.926392	-0.510688	-0.506053
C36	C	1.532136	-0.510550	-0.780089
C37	C	1.532170	-0.510507	-0.896866
C38	C	1.532163	-0.234147	-0.506094
C39	C	1.532209	-0.116317	-0.506110
C40	C	1.600003	-0.442700	-0.951738
C41	C	1.600021	-0.442654	-1.061462
C42	C	1.464369	-0.578232	-1.061432
C43	C	1.464347	-0.578272	-0.951710
C44	C	1.637979	-0.317581	-1.211434
C45	C	1.705829	-0.249783	-1.266310
C46	C	1.809268	-0.233531	-1.230710
C47	C	1.844877	-0.285093	-1.140235
C48	C	1.777032	-0.352899	-1.085364
C49	C	1.673579	-0.369130	-1.120963
C50	C	1.426400	-0.703346	-0.801737
C51	C	1.358560	-0.771158	-0.746864
C52	C	1.255119	-0.787421	-0.782463
C53	C	1.219514	-0.735878	-0.872941
C54	C	1.287354	-0.668066	-0.927814
C55	C	1.390793	-0.651802	-0.892207
C56	C	1.532039	-0.510677	-0.233088
C57	C	1.532210	-0.510422	-0.116312
H58	H	0.942040	-0.335977	-0.480761
H59	H	1.468993	-0.918763	-0.669343
H60	H	1.123170	-0.573934	-0.669586
C61	C	1.666651	-0.193058	-1.365824
N62	N	1.637147	-0.150333	-1.440777
H63	H	1.123239	-0.623670	-0.372615
H64	H	1.553749	-0.330799	-1.240424
C65	C	1.578209	-1.111188	-0.311111
N66	N	1.636131	-1.141368	-0.247285
H67	H	1.135286	-0.749123	-0.901929
C68	C	1.681614	-1.112655	-0.641676
N69	N	1.709674	-1.144028	-0.722440
C70	C	1.726599	-1.110175	-0.454370
N71	N	1.788545	-1.139689	-0.394048
H72	H	1.707750	-0.917748	-0.481908
H73	H	0.940470	-0.574442	-0.668769
H74	H	1.258355	-0.626097	-1.001486
C75	C	1.338876	-1.113214	-0.562455
N76	N	1.254811	-1.144643	-0.543579
C77	C	1.674601	-0.368148	-0.891414
N78	N	1.730787	-0.311989	-0.845980
C79	C	1.958671	-0.267215	-1.101083
N80	N	2.044381	-0.253745	-1.071590
H81	H	1.419327	-1.099804	-0.371831
H82	H	0.942533	-0.479123	-0.334638
H83	H	1.510627	-0.690102	-0.772738
C84	C	1.816194	-0.409609	-0.985843
N85	N	1.845692	-0.452316	-0.910877
H86	H	1.864512	-0.178328	-1.275397
H87	H	1.409152	-0.633406	-1.106100
H88	H	1.559432	-0.919360	-0.333047
H89	H	1.123892	-0.675514	-0.568216
C90	C	0.933115	-0.366953	-0.646741
N91	N	0.904043	-0.342439	-0.729473
H92	H	0.941769	-0.676054	-0.568087
C93	C	1.475808	-1.111217	-0.698783
N94	N	1.494881	-1.141155	-0.782599
H95	H	1.199889	-0.842649	-0.737780
C96	C	1.337743	-0.909424	-0.561953
N97	N	1.253128	-0.879674	-0.542928
H98	H	1.387563	-0.813137	-0.673198
C99	C	1.392205	-0.907172	-0.362324
N100	N	1.309657	-0.876036	-0.337456
H101	H	0.940629	-0.619097	-0.367335
C102	C	1.135501	-0.466396	-0.309754
N103	N	1.166638	-0.409811	-0.245226
H104	H	1.666466	-0.919238	-0.618360
C105	C	1.133635	-0.313907	-0.459302
N106	N	1.163234	-0.249830	-0.401270
H107	H	1.125044	-0.374480	-0.616762
