data_functionalizedCrystal
_audit_creation_method	'MofGen! by Chris Wilmer'
_symmetry_space_group_name_H-M	'P1'
_symmetry_Int_Tables_number	1
_symmetry_cell_setting	triclinic
loop_
_symmetry_equiv_pos_as_xyz
  x,y,z
_cell_length_a	15.995350
_cell_length_b	15.995350
_cell_length_c	15.072220
_cell_angle_alpha	89.998899
_cell_angle_beta	89.991149
_cell_angle_gamma	96.507625
loop_
_atom_site_label
_atom_site_type_symbol
_atom_site_fract_x
_atom_site_fract_y
_atom_site_fract_z
O1	O	1.110996	-0.107921	-0.073703
O2	O	0.867221	-0.121249	-0.073721
O3	O	0.995772	0.007303	-0.073710
O4	O	0.982444	-0.236472	-0.073713
O5	O	0.995740	0.007296	0.073855
O6	O	0.867189	-0.121256	0.073844
O7	O	1.110964	-0.107928	0.073862
Zn8	Zn	0.989071	-0.114593	0.097283
Zn9	Zn	0.989113	-0.114584	-0.097141
O10	O	0.982413	-0.236480	0.073852
C11	C	0.836010	-0.120701	0.000060
C12	C	0.743060	-0.119049	0.000053
C13	C	0.405312	-0.113117	0.000071
C14	C	0.452746	-0.021565	0.000401
C15	C	0.549436	-0.023217	0.000063
C16	C	0.572873	-0.116060	0.000063
C17	C	0.531804	-0.161212	-0.084201
C18	C	0.435168	-0.158912	-0.084266
C19	C	0.434793	-0.160812	0.083543
C20	C	0.531738	-0.160790	0.084651
C21	C	0.667570	-0.117727	0.000055
C22	C	0.310614	-0.111452	0.000073
C23	C	0.995205	0.038494	0.000070
C24	C	0.993553	0.131444	0.000065
C25	C	1.142175	-0.108476	0.000080
C26	C	1.235125	-0.110127	0.000081
C27	C	0.982980	-0.267671	0.000069
C28	C	0.984631	-0.360621	0.000069
N29	N	0.989049	-0.114599	0.229971
C30	C	0.987621	0.469192	0.000068
C31	C	0.896069	0.421758	-0.000270
C32	C	0.897721	0.325068	0.000063
C33	C	0.990564	0.301631	0.000066
C34	C	1.035702	0.342705	0.084335
C35	C	1.033402	0.439341	0.084405
C36	C	1.035330	0.439707	-0.083404
C37	C	1.035308	0.342761	-0.084518
C38	C	0.992231	0.206934	0.000068
C39	C	0.985956	0.563890	0.000072
N40	N	0.989142	-0.114571	-0.229830
C41	C	0.989112	-0.114580	0.589173
C42	C	0.920095	-0.183135	0.551560
C43	C	0.920254	-0.183385	0.448735
C44	C	0.989080	-0.114590	0.410969
C45	C	1.076445	-0.133671	0.448266
C46	C	1.076058	-0.134159	0.551124
C47	C	0.971542	-0.026741	0.551272
C48	C	0.969537	-0.027327	0.448409
C49	C	0.989067	-0.114593	0.310255
C50	C	0.989130	-0.114579	0.689886
H51	H	0.433165	0.014865	-0.059694
F52	F	1.096294	-0.217890	0.582473
F53	F	1.121255	0.481493	0.089415
F54	F	1.030979	0.042479	0.414821
F55	F	0.585844	0.023306	-0.079152
H56	H	0.909219	-0.008392	0.577258
H57	H	0.547102	-0.228494	0.089741
H58	H	1.103014	0.327400	-0.089603
H59	H	0.931160	-0.247952	0.577399
F60	F	0.393280	-0.249040	0.084289
F61	F	0.851342	0.287919	-0.078893
F62	F	1.037326	0.039941	0.583063
H63	H	1.129029	-0.085068	0.423801
H64	H	0.855314	-0.172016	0.423519
H65	H	0.854945	-0.171953	0.576317
H66	H	0.861974	0.297200	0.060568
H67	H	0.434211	0.015027	0.060830
H68	H	0.931473	-0.248570	0.424121
H69	H	0.545929	-0.229421	-0.087335
F70	F	0.568906	-0.120215	-0.166171
F71	F	1.145141	-0.071311	0.583646
F72	F	0.411253	-0.115866	-0.166596
F73	F	0.393015	-0.246766	-0.089265
H74	H	1.092297	-0.197002	0.422498
F75	F	1.123557	0.481221	-0.084143
H76	H	0.859490	0.440293	-0.060701
H77	H	0.577852	0.012275	0.060467
F78	F	0.567342	-0.117640	0.166131
F79	F	0.407938	-0.121693	0.167027
F80	F	0.848312	0.447646	0.078055
F81	F	0.992504	0.306761	-0.166012
H82	H	0.905271	-0.012846	0.424032
H83	H	1.000460	0.457639	0.147395
H84	H	1.103910	0.328579	0.087471
F85	F	0.994691	0.305607	0.166300
H86	H	1.005411	0.460250	-0.147274
