data_functionalizedCrystal
_audit_creation_method	'MofGen! by Chris Wilmer'
_symmetry_space_group_name_H-M	'P1'
_symmetry_Int_Tables_number	1
_symmetry_cell_setting	triclinic
loop_
_symmetry_equiv_pos_as_xyz
  x,y,z
_cell_length_a	19.288840
_cell_length_b	23.532407
_cell_length_c	17.766277
_cell_angle_alpha	89.985132
_cell_angle_beta	89.983415
_cell_angle_gamma	82.987380
loop_
_atom_site_label
_atom_site_type_symbol
_atom_site_fract_x
_atom_site_fract_y
_atom_site_fract_z
O1	O	0.921145	0.070977	-0.062734
O2	O	0.718853	0.080576	-0.062710
O3	O	0.826099	-0.007143	-0.062701
O4	O	0.813899	0.158696	-0.062742
O5	O	0.826080	-0.007147	0.062487
O6	O	0.718834	0.080572	0.062479
O7	O	0.921127	0.070973	0.062455
Cu8	Cu	0.819979	0.075772	0.073898
Cu9	Cu	0.820001	0.075777	-0.074152
O10	O	0.813880	0.158692	0.062446
C11	C	0.692967	0.080267	-0.000112
C12	C	0.615866	0.079347	-0.000102
C13	C	0.825779	-0.028362	-0.000103
C14	C	0.824845	-0.091581	-0.000092
C15	C	0.579674	0.078908	-0.068344
C16	C	0.507230	0.078037	-0.068353
C17	C	0.470982	0.077594	-0.000116
C18	C	0.507182	0.078037	0.068135
C19	C	0.579624	0.078914	0.068142
C20	C	0.361754	0.042846	0.052161
C21	C	0.289314	0.041966	0.052151
C22	C	0.247547	0.074894	-0.000135
C23	C	0.278230	0.108694	-0.052424
C24	C	0.350672	0.109570	-0.052417
C25	C	0.392431	0.076644	-0.000116
C26	C	0.132802	0.073511	-0.068391
C27	C	0.060356	0.072643	-0.068397
C28	C	0.060311	0.072638	0.068093
C29	C	0.132755	0.073511	0.068097
C30	C	0.168997	0.073944	-0.000147
C31	C	0.757527	-0.357883	-0.000131
C32	C	0.758394	-0.298481	-0.000125
O33	O	0.704992	-0.261843	-0.000142
N34	N	0.822152	-0.275727	-0.000124
C35	C	0.885047	-0.312379	-0.000136
O36	O	0.939358	-0.287570	-0.000136
C37	C	0.884178	-0.371780	-0.000147
C38	C	0.820416	-0.394530	-0.000141
C39	C	0.693770	-0.380633	-0.000125
C40	C	0.692902	-0.440031	-0.000129
C41	C	0.755792	-0.476678	-0.000139
C42	C	0.819549	-0.453928	-0.000145
C43	C	0.947072	-0.408430	-0.000165
C44	C	0.946198	-0.467834	-0.000177
C45	C	0.882436	-0.490585	-0.000170
C46	C	0.881571	-0.549973	-0.000159
N47	N	0.817813	-0.572726	-0.000160
C48	C	0.754923	-0.536079	-0.000150
C49	C	0.886866	-0.187633	-0.000114
C50	C	0.887735	-0.128233	-0.000098
C51	C	0.761082	-0.114339	-0.000088
C52	C	0.760214	-0.173740	-0.000099
C53	C	0.823108	-0.210386	-0.000115
C54	C	0.753107	-0.660820	-0.000159
C55	C	0.752245	-0.720223	-0.000160
C56	C	0.878897	-0.734112	-0.000174
C57	C	0.879759	-0.674714	-0.000168
C58	C	0.816858	-0.638068	-0.000163
O59	O	0.934946	-0.586645	-0.000145
O60	O	0.700622	-0.560896	-0.000161
C61	C	0.947012	0.071282	-0.000145
C62	C	1.024113	0.072202	-0.000160
C63	C	0.814200	0.179911	-0.000153
C64	C	0.815134	0.243130	-0.000170
N65	N	0.819968	0.075768	0.178028
N66	N	0.820017	0.075777	-0.178283
C67	C	0.867472	0.036945	0.217418
C68	C	0.867476	0.036942	0.296220
C69	C	0.819983	0.075772	0.335628
C70	C	0.772470	0.114598	0.296228
C71	C	0.772463	0.114596	0.217428
C72	C	0.810524	0.127664	0.460454
C73	C	0.810536	0.127667	0.539253
C74	C	0.820001	0.075779	0.578675
C75	C	0.829469	0.023886	0.539288
C76	C	0.829462	0.023884	0.460487
C77	C	0.819985	0.075779	0.421074
C78	C	0.867512	0.036950	0.703511
C79	C	0.867511	0.036947	0.782315
C80	C	0.772508	0.114608	0.782321
C81	C	0.772506	0.114606	0.703519
C82	C	0.820011	0.075778	0.664119
H83	H	0.477756	0.077680	-0.123925
O84	O	0.171797	0.073993	0.141701
H85	H	0.134423	0.073541	0.189150
O86	O	0.956506	-0.103697	-0.000105
H87	H	1.000087	-0.139165	-0.000121
H88	H	0.609091	0.079272	0.123715
H89	H	0.477665	0.077678	0.123694
O90	O	0.691443	-0.198277	-0.000099
H91	H	0.647862	-0.162809	-0.000093
O92	O	0.021308	0.072169	-0.142001
H93	H	-0.005234	0.032964	-0.145241
H94	H	0.395755	0.016031	0.094743
O95	O	0.800328	0.183636	0.581728
H96	H	0.801934	0.174922	0.643145
H97	H	0.906193	0.005329	0.814387
H98	H	0.837169	-0.018369	0.428422
O99	O	0.683471	-0.744762	-0.000155
H100	H	0.639887	-0.709296	-0.000155
O101	O	0.800305	0.183638	0.417950
H102	H	0.753022	0.185048	0.382079
O103	O	0.693252	-0.074801	-0.000082
H104	H	0.662711	-0.082875	0.050947
H105	H	0.733827	0.146222	0.671445
H106	H	0.609177	0.079261	-0.123913
H107	H	0.938085	-0.217468	-0.000122
O108	O	0.948530	-0.650172	-0.000176
H109	H	0.978726	-0.664916	0.050842
O110	O	0.171902	0.073976	-0.141991
H111	H	0.198452	0.113178	-0.145260
O112	O	0.721217	0.156469	0.174941
H113	H	0.729188	0.149940	0.113526
H114	H	0.998994	-0.389918	-0.000171
O115	O	0.721254	0.156490	0.338726
H116	H	0.667155	0.149353	0.323638
O117	O	1.014037	-0.507359	-0.000191
H118	H	1.016663	-0.534768	0.050830
H119	H	0.375651	0.137093	-0.094990
H120	H	0.244224	0.135509	-0.094998
O121	O	0.021210	0.072268	0.141695
H122	H	-0.035251	0.071621	0.130226
O123	O	0.839695	-0.032087	0.581787
H124	H	0.797423	-0.058051	0.566683
O125	O	0.256220	0.005516	0.108548
H126	H	0.297429	-0.017223	0.144919
H127	H	0.906161	0.005327	0.328298
O128	O	0.685266	-0.621299	-0.000141
H129	H	0.640792	-0.647106	-0.000129
H130	H	0.642554	-0.350800	-0.000119
O131	O	0.624131	-0.464566	-0.000129
H132	H	0.580552	-0.429096	-0.000128
H133	H	0.930100	-0.763961	-0.000178
O134	O	0.918721	-0.004950	0.661012
H135	H	0.910735	0.001569	0.599599
H136	H	0.906152	0.005327	0.185341
H137	H	0.733836	0.146222	0.814407
