data_functionalizedCrystal
_audit_creation_method	'MofGen! by Chris Wilmer'
_symmetry_space_group_name_H-M	'P1'
_symmetry_Int_Tables_number	1
_symmetry_cell_setting	triclinic
loop_
_symmetry_equiv_pos_as_xyz
  x,y,z
_cell_length_a	18.426585
_cell_length_b	20.016444
_cell_length_c	18.426585
_cell_angle_alpha	60.004067
_cell_angle_beta	90.000127
_cell_angle_gamma	60.000550
loop_
_atom_site_label
_atom_site_type_symbol
_atom_site_fract_x
_atom_site_fract_y
_atom_site_fract_z
Zr1	Zr	0.699114	0.731273	-0.095213
O2	O	0.583240	0.870636	-0.211079
O3	O	0.734635	0.591903	-0.059699
O4	O	0.734638	0.731270	-0.211090
O5	O	0.583235	0.731274	0.059738
O6	O	0.854064	0.731274	-0.211093
O7	O	0.583237	0.731270	-0.059688
O8	O	0.854059	0.481972	0.059718
O9	O	0.583240	0.980576	-0.211073
O10	O	0.838911	0.649233	-0.044549
O11	O	0.749784	0.649233	0.044579
O12	O	0.749787	0.813320	-0.133664
O13	O	0.660659	0.813320	-0.044536
Zr14	Zr	0.889582	0.731288	0.095253
Zr15	Zr	0.889585	0.731280	-0.095218
Zr16	Zr	0.699111	0.731280	0.095257
Zr17	Zr	0.699114	0.906614	-0.095204
Zr18	Zr	0.889581	0.555947	0.095243
O19	O	0.854060	0.870657	0.059739
O20	O	0.854064	0.870647	-0.211086
O21	O	0.583236	0.870647	0.059746
O22	O	1.005456	0.591924	0.211118
O23	O	1.005460	0.591913	-0.059706
O24	O	0.734631	0.591913	0.211125
O25	O	1.005460	0.731286	-0.059699
O26	O	0.854058	0.731291	0.211130
O27	O	0.734632	0.731286	0.211133
O28	O	1.005459	0.731291	0.059727
O29	O	0.734639	0.980582	-0.211077
O30	O	0.854057	0.481978	0.211116
O31	O	1.005456	0.481984	0.211112
O32	O	1.005458	0.481978	0.059714
O33	O	0.583238	0.980582	-0.059674
O34	O	0.734636	0.980588	-0.059678
O35	O	0.838909	0.649240	0.133703
O36	O	0.928036	0.649240	0.044575
O37	O	0.838912	0.813327	-0.044540
O38	O	0.749784	0.813327	0.044588
C39	C	0.794347	0.511955	0.000008
C40	C	0.794347	0.437518	0.000004
C41	C	0.556098	0.731271	0.000026
C42	C	0.475239	0.731268	0.000028
C43	C	0.840874	0.266249	-0.046506
C44	C	0.840876	0.196301	-0.046499
C45	C	0.747821	0.196315	0.046551
C46	C	0.747824	0.266256	0.046549
C47	C	0.794348	0.301225	0.000015
C48	C	0.794348	0.161336	0.000024
C49	C	0.794350	0.085495	0.000032
C50	C	0.794347	0.377068	0.000008
C51	C	0.179124	0.731296	0.000012
C52	C	0.261510	0.731292	0.000014
C53	C	0.327179	0.731282	0.000019
C54	C	0.409570	0.731278	0.000023
C55	C	1.032597	0.731289	0.000014
C56	C	1.113457	0.731293	0.000012
C57	C	0.794351	0.731271	-0.238230
C58	C	0.794353	0.731268	-0.319090
C59	C	0.794348	0.950605	0.000032
C60	C	0.794349	1.025042	0.000036
C61	C	0.794353	0.731264	-0.384756
C62	C	0.794353	0.731268	-0.467142
C63	C	0.794349	0.731278	-0.532811
C64	C	0.794347	0.731282	-0.615202
C65	C	0.794344	0.731289	0.238269
C66	C	0.794343	0.731293	0.319129
C67	C	1.032597	0.511965	0.000002
C68	C	1.113456	0.437531	-0.000004
C69	C	0.794344	0.511965	0.238257
C70	C	0.794342	0.437531	0.319113
C71	C	1.032593	0.511974	0.238251
C72	C	1.113452	0.437543	0.319105
C73	C	0.556102	0.950586	-0.238212
C74	C	0.475244	1.025017	-0.319065
C75	C	0.556099	0.950596	0.000038
C76	C	0.475239	1.025029	0.000044
C77	C	0.794352	0.950596	-0.238218
C78	C	0.794353	1.025029	-0.319074
C79	C	1.104907	0.402572	-0.046537
C80	C	1.180875	0.332644	-0.046561
C81	C	1.265393	0.297670	-0.000046
C82	C	1.273941	0.332635	0.046488
C83	C	1.197973	0.402568	0.046506
C84	C	0.840864	0.402580	0.403613
C85	C	0.840859	0.332651	0.479593
C86	C	0.794338	0.297670	0.471071
C87	C	0.747810	0.332628	0.386561
C88	C	0.747810	0.402560	0.310583
C89	C	1.197955	0.402590	0.310550
C90	C	1.273938	0.332664	0.386514
C91	C	1.265414	0.297689	0.471031
C92	C	1.180902	0.332649	0.479583
C93	C	1.104921	0.402578	0.403621
C94	C	0.390741	1.059979	-0.310511
C95	C	0.314758	1.129926	-0.386474
C96	C	0.323281	1.164906	-0.470991
C97	C	0.407794	1.129941	-0.479544
C98	C	0.483774	1.060000	-0.403581
C99	C	0.483789	1.059995	0.046569
C100	C	0.407820	1.129943	0.046571
C101	C	0.323303	1.164919	0.000054
C102	C	0.314755	1.129951	-0.046477
C103	C	0.390723	1.060009	-0.046484
C104	C	0.840884	1.059988	-0.310522
C105	C	0.840903	1.129917	-0.386488
C106	C	0.794385	1.164891	-0.471003
C107	C	0.747853	1.129925	-0.479552
C108	C	0.747840	1.059993	-0.403588
H109	H	0.878758	0.294717	-0.084395
H110	H	0.878763	0.167824	-0.084379
H111	H	0.709979	1.158412	-0.548375
H112	H	0.709941	0.167836	0.084436
C113	C	1.348998	0.220761	0.554581
H114	H	1.400543	0.204951	0.537374
H115	H	1.349015	0.243675	0.588960
H116	H	1.349009	0.166183	0.588946
C117	C	1.011970	0.441016	0.413037
H118	H	0.967933	0.487677	0.355697
H119	H	1.005321	0.390796	0.444610
H120	H	1.005309	0.468304	0.444607
C121	C	1.366911	0.294146	0.097668
H122	H	1.361132	0.324978	0.125387
H123	H	1.398465	0.228117	0.141677
H124	H	1.398489	0.305608	0.057511
H125	H	0.709936	0.294733	0.084435
C126	C	0.381347	1.021524	-0.217553
H127	H	0.320133	1.052381	-0.223350
H128	H	0.409042	0.955496	-0.185976
H129	H	0.409056	1.032997	-0.185988
C130	C	0.696641	1.021557	-0.413005
H131	H	0.668934	1.052414	-0.474221
H132	H	0.736780	0.955528	-0.385311
H133	H	0.652604	1.033038	-0.385309
H134	H	1.342744	0.304207	0.379534
C135	C	1.011947	0.441036	-0.097713
H136	H	1.017748	0.410201	-0.125434
H137	H	0.980369	0.429573	-0.057562
H138	H	0.980381	0.507069	-0.141735
H139	H	1.204912	0.431057	0.241739
H140	H	1.173898	0.304183	-0.084454
C141	C	0.417163	1.168412	-0.572513
H142	H	0.478371	1.137580	-0.566737
H143	H	0.389446	1.156947	-0.604074
H144	H	0.389459	1.234445	-0.604079
H145	H	1.204947	0.431022	0.084404
H146	H	1.327244	0.240726	-0.000067
H147	H	0.878748	0.431053	0.410570
C148	C	1.171538	0.294161	0.572554
H149	H	1.228896	0.247500	0.616562
H150	H	1.139971	0.344355	0.579241
H151	H	1.139981	0.266858	0.579221
H152	H	0.245952	1.158383	-0.379493
C153	C	0.576749	1.021533	0.097743
H154	H	0.570948	1.052389	0.125441
H155	H	0.608320	0.955506	0.141768
H156	H	0.608322	1.032998	0.057582
C157	C	0.892050	0.294202	0.572541
H158	H	0.919768	0.325042	0.566729
H159	H	0.851903	0.305669	0.604123
H160	H	0.936079	0.228169	0.604110
H161	H	0.261406	1.221856	-0.532837
H162	H	0.552579	1.031534	-0.410557
H163	H	0.794345	0.240727	0.532944
C164	C	0.417239	1.168387	0.097766
H165	H	0.478456	1.137523	0.125480
H166	H	0.389550	1.234414	0.057624
H167	H	0.389533	1.156921	0.141795
C168	C	0.696653	0.294133	0.377198
H169	H	0.703331	0.247470	0.434554
H170	H	0.635442	0.344323	0.345635
H171	H	0.719644	0.266831	0.345640
C172	C	0.696640	0.440993	0.217638
H173	H	0.668944	0.410133	0.223452
H174	H	0.652612	0.507022	0.186057
H175	H	0.736804	0.429515	0.186068
C176	C	0.221783	1.168424	-0.097634
H177	H	0.177771	1.215077	-0.090952
H178	H	0.215102	1.195711	-0.158843
H179	H	0.215113	1.118213	-0.074649
H180	H	0.261452	1.221870	0.000067
H181	H	0.383749	1.031541	-0.084368
H182	H	0.878764	1.031523	-0.241713
H183	H	0.878793	1.158379	-0.379509
H184	H	0.794402	1.221835	-0.532851
