data_functionalizedCrystal
_audit_creation_method	'MofGen! by Chris Wilmer'
_symmetry_space_group_name_H-M	'P1'
_symmetry_Int_Tables_number	1
_symmetry_cell_setting	triclinic
loop_
_symmetry_equiv_pos_as_xyz
  x,y,z
_cell_length_a	18.215407
_cell_length_b	18.050589
_cell_length_c	18.215399
_cell_angle_alpha	89.976397
_cell_angle_beta	89.980167
_cell_angle_gamma	90.028669
loop_
_atom_site_label
_atom_site_type_symbol
_atom_site_fract_x
_atom_site_fract_y
_atom_site_fract_z
Zn1	Zn	1.125055	-0.295658	-0.416138
Zn2	Zn	1.375055	-0.045658	-0.166138
Zn3	Zn	1.625055	0.204342	0.083862
Zn4	Zn	1.875055	0.454342	0.333862
Zn5	Zn	1.124956	-0.419853	-0.293081
Zn6	Zn	1.374956	-0.169853	-0.043081
Zn7	Zn	1.624956	0.080147	0.206919
Zn8	Zn	1.874956	0.330147	0.456919
Zn9	Zn	1.001987	-0.295682	-0.293085
Zn10	Zn	1.251987	-0.045682	-0.043085
Zn11	Zn	1.501987	0.204318	0.206915
Zn12	Zn	1.751987	0.454318	0.456915
Zn13	Zn	1.001946	-0.419812	-0.416106
Zn14	Zn	1.251946	-0.169812	-0.166106
Zn15	Zn	1.501946	0.080188	0.083894
Zn16	Zn	1.751946	0.330188	0.333894
O17	O	1.063486	-0.357751	-0.354603
O18	O	1.313486	-0.107751	-0.104603
O19	O	1.563486	0.142249	0.145397
O20	O	1.813486	0.392249	0.395397
O21	O	1.228026	-0.312140	-0.399826
O22	O	1.478026	-0.062140	-0.149826
O23	O	1.728026	0.187860	0.100174
O24	O	1.978026	0.437860	0.350174
O25	O	1.108620	-0.403409	-0.190097
O26	O	1.358620	-0.153409	0.059903
O27	O	1.608620	0.096591	0.309903
O28	O	1.858620	0.346591	0.559903
O29	O	1.018371	-0.191755	-0.309424
O30	O	1.268371	0.058245	-0.059424
O31	O	1.518371	0.308245	0.190576
O32	O	1.768371	0.558245	0.440576
O33	O	1.227953	-0.403386	-0.309417
O34	O	1.477953	-0.153386	-0.059417
O35	O	1.727953	0.096614	0.190583
O36	O	1.977953	0.346614	0.440583
O37	O	1.108788	-0.191737	-0.399830
O38	O	1.358788	0.058263	-0.149830
O39	O	1.608788	0.308263	0.100170
O40	O	1.858788	0.558263	0.350170
O41	O	1.018275	-0.312181	-0.190101
O42	O	1.268275	-0.062181	0.059899
O43	O	1.518275	0.187819	0.309899
O44	O	1.768275	0.437819	0.559899
O45	O	0.898998	-0.312141	-0.309393
O46	O	1.148998	-0.062141	-0.059393
O47	O	1.398998	0.187859	0.190607
O48	O	1.648998	0.437859	0.440607
O49	O	1.018301	-0.403315	-0.519095
O50	O	1.268301	-0.153315	-0.269095
O51	O	1.518301	0.096685	-0.019095
O52	O	1.768301	0.346685	0.230905
O53	O	0.898967	-0.403339	-0.399775
O54	O	1.148967	-0.153339	-0.149775
O55	O	1.398967	0.096661	0.100225
O56	O	1.648967	0.346661	0.350225
O57	O	1.108748	-0.312100	-0.519118
O58	O	1.358748	-0.062100	-0.269118
O59	O	1.608748	0.187900	-0.019118
O60	O	1.858748	0.437900	0.230882
O61	O	1.108580	-0.523772	-0.309385
O62	O	1.358580	-0.273772	-0.059385
O63	O	1.608580	-0.023772	0.190615
O64	O	1.858580	0.226228	0.440615
O65	O	1.018205	-0.523742	-0.399771
O66	O	1.268205	-0.273742	-0.149771
O67	O	1.518205	-0.023742	0.100229
O68	O	1.768205	0.226258	0.350229
C69	C	0.872280	-0.357739	-0.354582
C70	C	1.122280	-0.107739	-0.104582
C71	C	1.372280	0.142261	0.145418
C72	C	1.622280	0.392261	0.395418
C73	C	0.790481	-0.357751	-0.354590
C74	C	1.040481	-0.107751	-0.104590
C75	C	1.290481	0.142249	0.145410
C76	C	1.540481	0.392249	0.395410
C77	C	1.063397	-0.550704	-0.354590
C78	C	1.313397	-0.300704	-0.104590
C79	C	1.563397	-0.050704	0.145410
C80	C	1.813397	0.199296	0.395410
C81	C	1.063427	-0.633249	-0.354610
C82	C	1.313427	-0.383249	-0.104610
C83	C	1.563427	-0.133249	0.145390
C84	C	1.813427	0.116751	0.395390
C85	C	0.602291	-0.405312	-0.401593
C86	C	0.852291	-0.155312	-0.151593
C87	C	1.102291	0.094688	0.098407
C88	C	1.352291	0.344688	0.348407
C89	C	0.525432	-0.405315	-0.401602
C90	C	0.775432	-0.155315	-0.151602
C91	C	1.025432	0.094685	0.098398
C92	C	1.275432	0.344685	0.348398
C93	C	0.525434	-0.310204	-0.307628
C94	C	0.775434	-0.060204	-0.057628
C95	C	1.025434	0.189796	0.192372
C96	C	1.275434	0.439796	0.442372
C97	C	0.602291	-0.310199	-0.307623
C98	C	0.852291	-0.060199	-0.057623
C99	C	1.102291	0.189801	0.192377
C100	C	1.352291	0.439801	0.442377
C101	C	0.640718	-0.357757	-0.354605
C102	C	0.890718	-0.107757	-0.104605
C103	C	1.140718	0.142243	0.145395
C104	C	1.390718	0.392243	0.395395
C105	C	0.487001	-0.357765	-0.354619
C106	C	0.737001	-0.107765	-0.104619
C107	C	0.987001	0.142235	0.145381
C108	C	1.237001	0.392235	0.395381
C109	C	0.403668	-0.357767	-0.354628
C110	C	0.653668	-0.107767	-0.104628
C111	C	0.903668	0.142233	0.145372
C112	C	1.153668	0.392233	0.395372
C113	C	0.724056	-0.357754	-0.354596
C114	C	0.974056	-0.107754	-0.104596
C115	C	1.224056	0.142246	0.145404
C116	C	1.474056	0.392246	0.395404
C117	C	1.014329	-0.832710	-0.403744
C118	C	1.264329	-0.582710	-0.153744
C119	C	1.514329	-0.332710	0.096256
C120	C	1.764329	-0.082710	0.346256
C121	C	0.996389	-0.882151	-0.336590
C122	C	1.246389	-0.632151	-0.086590
C123	C	1.496389	-0.382151	0.163410
C124	C	1.746389	-0.132151	0.413410
C125	C	1.063499	-0.784380	-0.354619
C126	C	1.313499	-0.534380	-0.104619
C127	C	1.563499	-0.284380	0.145381
C128	C	1.813499	-0.034380	0.395381
C129	C	1.081475	-0.882021	-0.421781
C130	C	1.331475	-0.632021	-0.171781
C131	C	1.581475	-0.382021	0.078219
C132	C	1.831475	-0.132021	0.328219
C133	C	1.063567	-0.930365	-0.354635
C134	C	1.313567	-0.680365	-0.104635
C135	C	1.563567	-0.430365	0.145365
C136	C	1.813567	-0.180365	0.395365
C137	C	1.045524	-0.832733	-0.287430
C138	C	1.295524	-0.582733	-0.037430
C139	C	1.545524	-0.332733	0.212570
C140	C	1.795524	-0.082733	0.462570
C141	C	1.130641	-0.832599	-0.372666
C142	C	1.380641	-0.582599	-0.122666
C143	C	1.630641	-0.332599	0.127334
C144	C	1.880641	-0.082599	0.377334
C145	C	1.112726	-0.882017	-0.305466
C146	C	1.362726	-0.632017	-0.055466
C147	C	1.612726	-0.382017	0.194534
C148	C	1.862726	-0.132017	0.444534
C149	C	1.063458	-0.700281	-0.354612
C150	C	1.313458	-0.450281	-0.104612
C151	C	1.563458	-0.200281	0.145388
C152	C	1.813458	0.049719	0.395388
C153	C	1.063609	-1.014461	-0.354635
C154	C	1.313609	-0.764461	-0.104635
C155	C	1.563609	-0.514461	0.145365
C156	C	1.813609	-0.264461	0.395365
C157	C	1.255439	-0.357765	-0.354624
C158	C	1.505439	-0.107765	-0.104624
C159	C	1.755439	0.142235	0.145376
C160	C	2.005439	0.392235	0.395376
C161	C	1.337238	-0.357770	-0.354634
C162	C	1.587238	-0.107770	-0.104634
C163	C	1.837238	0.142230	0.145366
C164	C	2.087238	0.392230	0.395366
C165	C	1.063531	-0.357700	-0.546556
C166	C	1.313531	-0.107700	-0.296556
C167	C	1.563531	0.142300	-0.046556
C168	C	1.813531	0.392300	0.203444
C169	C	1.063550	-0.357678	-0.628355
C170	C	1.313550	-0.107678	-0.378355
C171	C	1.563550	0.142322	-0.128355
C172	C	1.813550	0.392322	0.121645
C173	C	1.063595	-0.164046	-0.354631
C174	C	1.313595	0.085954	-0.104631
C175	C	1.563595	0.335954	0.145369
C176	C	1.813595	0.585954	0.395369
C177	C	1.063642	-0.081500	-0.354643
C178	C	1.313642	0.168500	-0.104643
C179	C	1.563642	0.418500	0.145357
C180	C	1.813642	0.668500	0.395357
C181	C	1.110663	-0.310138	-0.816562
C182	C	1.360663	-0.060138	-0.566562
C183	C	1.610663	0.189862	-0.316562
C184	C	1.860663	0.439862	-0.066562
C185	C	1.110672	-0.310117	-0.893421
C186	C	1.360672	-0.060117	-0.643421
C187	C	1.610672	0.189883	-0.393421
C188	C	1.860672	0.439883	-0.143421
C189	C	1.016489	-0.405104	-0.893385
C190	C	1.266489	-0.155104	-0.643385
C191	C	1.516489	0.094896	-0.393385
C192	C	1.766489	0.344896	-0.143385
C193	C	1.016477	-0.405121	-0.816528
C194	C	1.266477	-0.155121	-0.566528
C195	C	1.516477	0.094879	-0.316528
C196	C	1.766477	0.344879	-0.066528
C197	C	1.063568	-0.357639	-0.778118
C198	C	1.313568	-0.107639	-0.528118
C199	C	1.563568	0.142361	-0.278118
C200	C	1.813568	0.392361	-0.028118
C201	C	1.063589	-0.357600	-0.931834
C202	C	1.313589	-0.107600	-0.681834
C203	C	1.563589	0.142400	-0.431834
C204	C	1.813589	0.392400	-0.181834
C205	C	1.063598	-0.357577	-1.015168
C206	C	1.313598	-0.107577	-0.765168
C207	C	1.563598	0.142423	-0.515168
C208	C	1.813598	0.392423	-0.265168
C209	C	1.063558	-0.357661	-0.694779
C210	C	1.313558	-0.107661	-0.444779
C211	C	1.563558	0.142339	-0.194779
C212	C	1.813558	0.392339	0.055221
C213	C	1.063484	-0.357749	-0.163396
C214	C	1.313484	-0.107749	0.086604
C215	C	1.563484	0.142251	0.336604
C216	C	1.813484	0.392251	0.586604
C217	C	1.063607	-0.357561	-0.081598
C218	C	1.313607	-0.107561	0.168402
C219	C	1.563607	0.142439	0.418402
C220	C	1.813607	0.392439	0.668402
H221	H	0.633575	-0.444035	-0.439850
H222	H	0.883575	-0.194035	-0.189850
H223	H	1.133575	0.055965	0.060150
H224	H	1.383575	0.305965	0.310150
C225	C	0.644567	-0.257885	-0.255936
C226	C	0.894567	-0.007885	-0.005936
C227	C	1.144567	0.242115	0.244064
C228	C	1.394567	0.492115	0.494064
H229	H	0.695844	-0.264688	-0.262669
H230	H	0.945844	-0.014688	-0.012669
H231	H	1.195844	0.235312	0.237331
H232	H	1.445844	0.485312	0.487331
H233	H	0.631950	-0.268688	-0.206471
H234	H	0.881950	-0.018688	0.043529
H235	H	1.131950	0.231312	0.293529
H236	H	1.381950	0.481312	0.543529
H237	H	0.631997	-0.207999	-0.266797
H238	H	0.881997	0.042001	-0.016797
H239	H	1.131997	0.292001	0.233203
H240	H	1.381997	0.542001	0.483203
H241	H	1.030282	-0.811172	-0.230622
H242	H	1.280282	-0.561172	0.019378
H243	H	1.530282	-0.311172	0.269378
H244	H	1.780282	-0.061172	0.519378
H245	H	0.978151	-0.443763	-0.924667
H246	H	1.228151	-0.193763	-0.674667
H247	H	1.478151	0.056237	-0.424667
H248	H	1.728151	0.306237	-0.174667
H249	H	1.154337	-0.903530	-0.263881
H250	H	1.404337	-0.653530	-0.013881
H251	H	1.654337	-0.403530	0.236119
H252	H	1.904337	-0.153530	0.486119
H253	H	0.978122	-0.443802	-0.785226
H254	H	1.228122	-0.193802	-0.535226
H255	H	1.478122	0.056198	-0.285226
H256	H	1.728122	0.306198	-0.035226
C257	C	1.101982	-0.911267	-0.498500
C258	C	1.351982	-0.661267	-0.248500
C259	C	1.601982	-0.411267	0.001500
C260	C	1.851982	-0.161267	0.251500
H261	H	1.066973	-0.894376	-0.533335
H262	H	1.316973	-0.644376	-0.283335
H263	H	1.566973	-0.394376	-0.033335
H264	H	1.816973	-0.144376	0.216665
H265	H	1.102300	-0.963888	-0.497850
H266	H	1.352300	-0.713888	-0.247850
H267	H	1.602300	-0.463888	0.002150
H268	H	1.852300	-0.213888	0.252150
H269	H	1.149318	-0.893565	-0.511650
H270	H	1.399318	-0.643565	-0.261650
H271	H	1.649318	-0.393565	-0.011650
H272	H	1.899318	-0.143565	0.238350
C273	C	1.162451	-0.257902	-0.774314
C274	C	1.412451	-0.007902	-0.524314
C275	C	1.662451	0.242098	-0.274314
C276	C	1.912451	0.492098	-0.024314
H277	H	1.190494	-0.229603	-0.808220
H278	H	1.440494	0.020397	-0.558220
H279	H	1.690494	0.270397	-0.308220
H280	H	1.940494	0.520397	-0.058220
H281	H	1.194500	-0.286312	-0.744330
H282	H	1.444500	-0.036312	-0.494330
H283	H	1.694500	0.213688	-0.244330
H284	H	1.944500	0.463688	0.005670
H285	H	1.134303	-0.225548	-0.744336
H286	H	1.384303	0.024452	-0.494336
H287	H	1.634303	0.274452	-0.244336
H288	H	1.884303	0.524452	0.005664
C289	C	1.207296	-0.803198	-0.393296
C290	C	1.457296	-0.553198	-0.143296
C291	C	1.707296	-0.303198	0.106704
C292	C	1.957296	-0.053198	0.356704
H293	H	1.219977	-0.820051	-0.441046
H294	H	1.469977	-0.570051	-0.191046
H295	H	1.719977	-0.320051	0.058954
H296	H	1.969977	-0.070051	0.308954
H297	H	1.242353	-0.820832	-0.358882
H298	H	1.492353	-0.570832	-0.108882
H299	H	1.742353	-0.320832	0.141118
H300	H	1.992353	-0.070832	0.391118
H301	H	1.206849	-0.750574	-0.392702
H302	H	1.456849	-0.500574	-0.142702
H303	H	1.706849	-0.250574	0.107298
H304	H	1.956849	-0.000574	0.357298
C305	C	1.162479	-0.257869	-0.935706
C306	C	1.412479	-0.007869	-0.685706
C307	C	1.662479	0.242131	-0.435706
C308	C	1.912479	0.492131	-0.185706
H309	H	1.190525	-0.229599	-0.901821
H310	H	1.440525	0.020401	-0.651821
H311	H	1.690525	0.270401	-0.401821
H312	H	1.940525	0.520401	-0.151821
H313	H	1.134353	-0.225500	-0.965689
H314	H	1.384353	0.024500	-0.715689
H315	H	1.634353	0.274500	-0.465689
H316	H	1.884353	0.524500	-0.215689
H317	H	1.194536	-0.286278	-0.965689
H318	H	1.444536	-0.036278	-0.715689
H319	H	1.694536	0.213722	-0.465689
H320	H	1.944536	0.463722	-0.215689
C321	C	0.483163	-0.257903	-0.255945
C322	C	0.733163	-0.007903	-0.005945
C323	C	0.983163	0.242097	0.244055
C324	C	1.233163	0.492097	0.494055
H325	H	0.431885	-0.264722	-0.262671
H326	H	0.681885	-0.014722	-0.012671
H327	H	0.931885	0.235278	0.237329
H328	H	1.181885	0.485278	0.487329
H329	H	0.495781	-0.208016	-0.266792
H330	H	0.745781	0.041984	-0.016792
H331	H	0.995781	0.291984	0.233208
H332	H	1.245781	0.541984	0.483208
H333	H	0.495736	-0.268717	-0.206478
H334	H	0.745736	-0.018717	0.043522
H335	H	0.995736	0.231283	0.293522
H336	H	1.245736	0.481283	0.543522
H337	H	0.939642	-0.903933	-0.321340
H338	H	1.189642	-0.653933	-0.071340
H339	H	1.439642	-0.403933	0.178660
H340	H	1.689642	-0.153933	0.428660
C341	C	0.483162	-0.457625	-0.453287
C342	C	0.733162	-0.207625	-0.203287
C343	C	0.983162	0.042375	0.046713
C344	C	1.233162	0.292375	0.296713
H345	H	0.431884	-0.450813	-0.446569
H346	H	0.681884	-0.200813	-0.196569
H347	H	0.931884	0.049187	0.053431
H348	H	1.181884	0.299187	0.303431
H349	H	0.495730	-0.507509	-0.442434
H350	H	0.745730	-0.257509	-0.192434
H351	H	0.995730	-0.007509	0.057566
H352	H	1.245730	0.242491	0.307566
H353	H	0.495786	-0.446814	-0.502753
H354	H	0.745786	-0.196814	-0.252753
H355	H	0.995786	0.053186	-0.002753
H356	H	1.245786	0.303186	0.247247
C357	C	0.958078	-0.803455	-0.459784
C358	C	1.208078	-0.553455	-0.209784
C359	C	1.458078	-0.303455	0.040216
C360	C	1.708078	-0.053455	0.290216
H361	H	0.910419	-0.820424	-0.446844
H362	H	1.160419	-0.570424	-0.196844
H363	H	1.410419	-0.320424	0.053156
H364	H	1.660419	-0.070424	0.303156
H365	H	0.970355	-0.821055	-0.507368
H366	H	1.220355	-0.571055	-0.257368
H367	H	1.470355	-0.321055	-0.007368
H368	H	1.720355	-0.071055	0.242632
H369	H	0.958749	-0.750829	-0.459699
H370	H	1.208749	-0.500829	-0.209699
H371	H	1.458749	-0.250829	0.040301
H372	H	1.708749	-0.000829	0.290301
