data_functionalizedCrystal
_audit_creation_method	'MofGen! by Chris Wilmer'
_symmetry_space_group_name_H-M	'P1'
_symmetry_Int_Tables_number	1
_symmetry_cell_setting	triclinic
loop_
_symmetry_equiv_pos_as_xyz
  x,y,z
_cell_length_a	16.994747
_cell_length_b	11.169417
_cell_length_c	11.169409
_cell_angle_alpha	90.019824
_cell_angle_beta	89.986221
_cell_angle_gamma	89.988064
loop_
_atom_site_label
_atom_site_type_symbol
_atom_site_fract_x
_atom_site_fract_y
_atom_site_fract_z
Zn1	Zn	0.313946	1.834956	0.678697
Zn2	Zn	0.445878	1.834843	0.478079
Zn3	Zn	0.313994	1.634242	0.478032
Zn4	Zn	0.445814	1.634247	0.678724
O5	O	0.379908	1.734572	0.578383
O6	O	0.331453	2.002891	0.652094
O7	O	0.428430	1.808184	0.310123
O8	O	0.203606	1.660913	0.504619
O9	O	0.428383	2.002808	0.504701
O10	O	0.203571	1.808376	0.652048
O11	O	0.331535	1.660803	0.310088
O12	O	0.331473	1.466293	0.504645
O13	O	0.428274	1.660921	0.846670
O14	O	0.428321	1.466297	0.652093
O15	O	0.331391	1.808381	0.846651
O16	O	0.556250	1.808189	0.504726
O17	O	0.556203	1.660812	0.652139
C18	C	0.379896	1.422748	0.578368
C19	C	0.379910	1.289348	0.578390
C20	C	0.584848	1.734503	0.578437
C21	C	0.674170	1.734511	0.578434
C22	C	0.174168	1.734648	0.578322
C23	C	0.084845	1.734685	0.578297
Zn24	Zn	0.945080	1.634277	0.477998
Zn25	Zn	0.945011	1.835010	0.678645
Zn26	Zn	0.813206	1.634288	0.678704
Zn27	Zn	0.813133	1.834865	0.478040
O28	O	0.879107	1.734610	0.578347
O29	O	1.055452	1.660960	0.504572
O30	O	0.927528	1.808449	0.846602
O31	O	0.830759	1.466337	0.652087
O32	O	1.055401	1.808438	0.651986
O33	O	0.927647	1.466329	0.504629
O34	O	0.830691	1.660980	0.846646
O35	O	0.702815	1.660839	0.652128
O36	O	0.830635	1.808191	0.310085
O37	O	0.702761	1.808202	0.504701
O38	O	0.927576	1.660820	0.310054
O39	O	0.927457	2.002940	0.652027
O40	O	0.830567	2.002834	0.504644
C41	C	0.379820	1.734664	0.891426
C42	C	0.379783	1.734704	1.024826
C43	C	0.379920	2.047615	0.578399
C44	C	0.379926	2.181015	0.578406
C45	C	0.379938	1.734550	0.266559
C46	C	0.379753	1.734743	0.133159
C47	C	0.878999	2.046435	0.578337
C48	C	0.878975	2.179835	0.578367
C49	C	0.879105	1.734488	0.265304
C50	C	0.879104	1.734436	0.131904
C51	C	0.879219	1.421568	0.578360
C52	C	0.879266	1.288168	0.578366
C53	C	0.879155	1.734646	0.890171
C54	C	0.879307	1.734363	1.023571
