data_functionalizedCrystal
_audit_creation_method	'MofGen! by Chris Wilmer'
_symmetry_space_group_name_H-M	'P1'
_symmetry_Int_Tables_number	1
_symmetry_cell_setting	triclinic
loop_
_symmetry_equiv_pos_as_xyz
  x,y,z
_cell_length_a	35.277628
_cell_length_b	35.288095
_cell_length_c	35.277682
_cell_angle_alpha	59.997929
_cell_angle_beta	89.998958
_cell_angle_gamma	60.000166
loop_
_atom_site_label
_atom_site_type_symbol
_atom_site_fract_x
_atom_site_fract_y
_atom_site_fract_z
O1	O	-0.323087	-0.271234	0.011271
O2	O	-0.267964	-0.193634	-0.011228
O3	O	-0.267962	-0.271233	0.066395
O4	O	-0.323089	-0.193635	-0.066351
O5	O	-0.204915	-0.334261	0.066394
O6	O	-0.204918	-0.256661	-0.011228
O7	O	-0.260040	-0.334261	0.011271
Zn8	Zn	-0.222469	-0.305468	0.000022
Zn9	Zn	-0.305535	-0.222427	0.000022
O10	O	-0.260043	-0.256662	-0.066351
C11	C	-0.163481	-0.071298	-0.023519
C12	C	-0.186872	-0.024531	-0.020298
C13	C	-0.117860	-0.093995	-0.023838
C14	C	-0.163483	-0.139918	-0.023524
C15	C	-0.186875	-0.166518	-0.020308
C16	C	-0.117862	-0.162510	-0.023843
C17	C	-0.094838	-0.139921	-0.023519
C18	C	-0.044836	-0.166525	-0.020298
C19	C	-0.186401	-0.093991	-0.023843
C20	C	-0.004439	-0.188019	-0.017694
C21	C	-0.205769	0.013252	-0.017695
C22	C	-0.205774	-0.188010	-0.017709
C23	C	0.046241	-0.214983	-0.014429
C24	C	-0.229477	0.060653	-0.014430
C25	C	-0.229483	-0.214971	-0.014450
C26	C	-0.500364	-0.466062	0.034181
C27	C	-0.477341	-0.511990	0.034503
C28	C	-0.431722	-0.466060	0.034178
C29	C	-0.408804	-0.511988	0.034500
C30	C	-0.431721	-0.534685	0.034181
C31	C	-0.477342	-0.443470	0.034500
C32	C	-0.665895	-0.342485	0.021756
C33	C	-0.712772	-0.317221	0.018243
C34	C	-0.736287	-0.338907	0.016481
C35	C	-0.787116	-0.311512	0.012664
C36	C	-0.712921	-0.385861	0.018236
C37	C	-0.666047	-0.411125	0.021755
C38	C	-0.642533	-0.389434	0.023515
C39	C	-0.389805	-0.687746	0.021758
C40	C	-0.368199	-0.731097	0.018245
C41	C	-0.322995	-0.752841	0.016478
C42	C	-0.299567	-0.799839	0.012662
C43	C	-0.299393	-0.731235	0.018230
C44	C	-0.320995	-0.687892	0.021751
C45	C	-0.366205	-0.666148	0.023512
C46	C	-0.389808	-0.342477	0.021744
C47	C	-0.368205	-0.317208	0.018222
C48	C	-0.322998	-0.338892	0.016457
C49	C	-0.299573	-0.311495	0.012637
C50	C	-0.299398	-0.385842	0.018210
C51	C	-0.321003	-0.411107	0.021730
C52	C	-0.366208	-0.389423	0.023501
C53	C	-0.591706	-0.416830	0.027326
C54	C	-0.551191	-0.438667	0.030366
C55	C	-0.408299	-0.438663	0.030360
C56	C	-0.389629	-0.416824	0.027317
C57	C	-0.408298	-0.581682	0.030365
C58	C	-0.389627	-0.619146	0.027325
C59	C	-0.432024	-0.061845	-0.438511
C60	C	-0.477645	-0.015917	-0.461431
C61	C	-0.432025	-0.061844	-0.369869
C62	C	-0.477645	-0.015916	-0.392892
C63	C	-0.500668	0.006779	-0.438513
C64	C	-0.409106	-0.084435	-0.392891
C65	C	-0.320834	-0.185425	-0.480424
C66	C	-0.299076	-0.210690	-0.502029
C67	C	-0.322531	-0.189005	-0.547237
C68	C	-0.298945	-0.216401	-0.570661
C69	C	-0.367745	-0.142051	-0.570839
C70	C	-0.389497	-0.116787	-0.549237
C71	C	-0.366040	-0.138476	-0.504027
C72	C	-0.666200	0.159838	-0.549704
C73	C	-0.713077	0.203188	-0.571462
C74	C	-0.736595	0.224934	-0.548009
C75	C	-0.787423	0.271931	-0.571594
C76	C	-0.713230	0.203329	-0.502796
C77	C	-0.666353	0.159987	-0.481041
C78	C	-0.642841	0.138241	-0.504500
C79	C	-0.320836	-0.185423	-0.204335
C80	C	-0.299080	-0.210691	-0.157455
C81	C	-0.322536	-0.189006	-0.133940
C82	C	-0.298950	-0.216402	-0.083110
C83	C	-0.367748	-0.142056	-0.157305
C84	C	-0.389502	-0.116792	-0.204182
C85	C	-0.366040	-0.138478	-0.227695
C86	C	-0.389632	-0.111079	-0.480604
C87	C	-0.408436	-0.089241	-0.461934
C88	C	-0.408437	-0.089240	-0.319041
C89	C	-0.389634	-0.111078	-0.278525
C90	C	-0.551496	0.053776	-0.462102
C91	C	-0.592011	0.091239	-0.480906
O92	O	0.196122	-0.334274	0.011291
O93	O	0.063378	-0.256674	-0.011208
O94	O	0.140994	-0.334276	0.066414
O95	O	0.118506	-0.256671	-0.066331
O96	O	0.140996	-0.271251	0.066419
O97	O	0.063380	-0.193649	-0.011203
O98	O	0.196124	-0.271249	0.011296
Zn99	Zn	0.129752	-0.222442	0.000047
Zn100	Zn	0.129750	-0.305480	0.000041
O101	O	0.118508	-0.193647	-0.066327
O102	O	-0.260036	0.184774	0.011294
O103	O	-0.204910	0.074561	-0.011204
O104	O	-0.204913	0.074554	0.066418
O105	O	-0.260033	0.184781	-0.066328
O106	O	-0.267961	0.074557	0.066413
O107	O	-0.267958	0.074564	-0.011209
O108	O	-0.323083	0.184777	0.011289
Zn109	Zn	-0.305531	0.129671	0.000039
Zn110	Zn	-0.222463	0.129667	0.000046
O111	O	-0.323081	0.184784	-0.066333
O112	O	-0.936929	0.397535	-0.602582
O113	O	-0.804185	0.287317	-0.547454
O114	O	-0.881802	0.287315	-0.547452
O115	O	-0.859312	0.397537	-0.602584
O116	O	-0.881801	0.287314	-0.610498
O117	O	-0.804183	0.287316	-0.610500
O118	O	-0.936927	0.397533	-0.665628
Zn119	Zn	-0.870555	0.342425	-0.648073
Zn120	Zn	-0.870557	0.342426	-0.565008
O121	O	-0.859310	0.397536	-0.665629
O122	O	-0.267961	-0.271234	-0.665316
O123	O	-0.323086	-0.193638	-0.610192
O124	O	-0.323085	-0.271236	-0.610189
O125	O	-0.267962	-0.193636	-0.665319
O126	O	-0.260038	-0.334264	-0.547142
O127	O	-0.260039	-0.256666	-0.547145
O128	O	-0.204914	-0.334262	-0.602269
Zn129	Zn	-0.222466	-0.305471	-0.564697
Zn130	Zn	-0.305534	-0.222429	-0.647764
O131	O	-0.204915	-0.256664	-0.602272
C132	C	-0.094840	-0.456607	0.293255
C133	C	-0.044837	-0.503376	0.316647
C134	C	-0.117862	-0.433912	0.316174
C135	C	-0.163483	-0.387984	0.224612
C136	C	-0.186875	-0.361381	0.174609
C137	C	-0.186401	-0.365393	0.247634
C138	C	-0.163483	-0.387984	0.293255
C139	C	-0.186874	-0.361382	0.316646
C140	C	-0.117862	-0.433912	0.247635
C141	C	-0.205772	-0.339889	0.335543
C142	C	-0.004440	-0.541160	0.335545
C143	C	-0.205773	-0.339888	0.134212
C144	C	-0.229480	-0.312925	0.359250
C145	C	0.046239	-0.588562	0.359254
C146	C	-0.229481	-0.312924	0.083532
C147	C	0.153295	-0.388013	0.293279
C148	C	0.150076	-0.361413	0.316673
C149	C	0.153614	-0.433940	0.316196
C150	C	0.153297	-0.388008	0.224634
C151	C	0.150079	-0.361403	0.174632
C152	C	0.153616	-0.433935	0.247655
C153	C	0.153293	-0.456633	0.293275
C154	C	0.150072	-0.503401	0.316665
C155	C	0.153617	-0.365420	0.247659
C156	C	0.147469	-0.541185	0.335561
C157	C	0.147474	-0.339922	0.335572
C158	C	0.147479	-0.339908	0.134234
C159	C	0.144204	-0.588587	0.359267
C160	C	0.144211	-0.312962	0.359282
C161	C	0.144218	-0.312942	0.083555
C162	C	-0.163482	-0.139963	0.293267
C163	C	-0.186875	-0.166567	0.316654
C164	C	-0.117861	-0.162559	0.316187
C165	C	-0.163482	-0.071333	0.224628
C166	C	-0.186873	-0.024557	0.174627
C167	C	-0.117860	-0.094033	0.247653
C168	C	-0.094838	-0.139967	0.293272
C169	C	-0.044835	-0.166574	0.316665
C170	C	-0.186401	-0.094030	0.247648
C171	C	-0.004438	-0.188070	0.335563
C172	C	-0.205773	-0.188061	0.335549
C173	C	-0.205771	0.013233	0.134231
C174	C	0.046242	-0.215038	0.359273
C175	C	-0.229482	-0.215026	0.359253
C176	C	-0.229479	0.060643	0.083553
C177	C	0.095627	0.006487	-0.438489
C178	C	0.095306	-0.016206	-0.461409
C179	C	0.095623	-0.062137	-0.369847
C180	C	0.095303	-0.084726	-0.392871
C181	C	0.095625	-0.062133	-0.438492
C182	C	0.095305	-0.016210	-0.392868
C183	C	0.108059	0.159543	-0.480399
C184	C	0.111575	0.202893	-0.502003
C185	C	0.113340	0.224640	-0.547210
C186	C	0.117161	0.271637	-0.570634
C187	C	0.111587	0.203038	-0.570814
C188	C	0.108065	0.159695	-0.549212
C189	C	0.106302	0.137948	-0.504002
C190	C	0.108054	-0.116452	-0.549685
C191	C	0.111568	-0.141562	-0.571444
C192	C	0.113332	-0.188519	-0.547992
C193	C	0.117148	-0.215753	-0.571578
C194	C	0.111577	-0.210363	-0.502779
C195	C	0.108055	-0.185249	-0.481023
C196	C	0.106297	-0.138292	-0.504481
C197	C	0.108046	-0.116473	-0.204312
C198	C	0.111564	-0.141591	-0.157432
C199	C	0.113326	-0.188548	-0.133918
C200	C	0.117142	-0.215786	-0.083088
C201	C	0.111574	-0.210388	-0.157283
C202	C	0.108058	-0.185270	-0.204161
C203	C	0.106290	-0.138308	-0.227673
C204	C	0.102487	0.090947	-0.480580
C205	C	0.099445	0.053484	-0.461911
C206	C	0.099438	-0.089371	-0.319019
C207	C	0.102477	-0.111078	-0.278503
C208	C	0.099442	-0.089362	-0.462081
C209	C	0.102482	-0.111066	-0.480886
O210	O	0.118477	-0.256700	0.452885
O211	O	0.140984	-0.334299	0.397762
O212	O	0.063360	-0.256699	0.397752
O213	O	0.196101	-0.334300	0.452895
O214	O	0.063367	-0.193672	0.334708
O215	O	0.140992	-0.271271	0.334718
O216	O	0.118484	-0.193673	0.389842
Zn217	Zn	0.129739	-0.222465	0.352270
Zn218	Zn	0.129729	-0.305506	0.435333
O219	O	0.196108	-0.271272	0.389852
C220	C	-0.500364	0.533998	-0.438484
C221	C	-0.477341	0.556591	-0.461399
C222	C	-0.431721	0.465364	-0.369840
C223	C	-0.408802	0.488061	-0.392859
C224	C	-0.431720	0.533995	-0.438478
C225	C	-0.477342	0.488064	-0.392865
C226	C	-0.665898	0.588334	-0.480407
C227	C	-0.712776	0.613450	-0.502014
C228	C	-0.736291	0.660414	-0.547220
C229	C	-0.787122	0.687654	-0.570647
C230	C	-0.712926	0.682257	-0.570819
C231	C	-0.666050	0.657138	-0.549214
C232	C	-0.642536	0.610174	-0.504006
C233	C	-0.389802	0.657585	-0.549654
C234	C	-0.368196	0.682850	-0.571408
C235	C	-0.322990	0.661164	-0.547952
C236	C	-0.299561	0.688558	-0.571532
C237	C	-0.299388	0.614205	-0.502740
C238	C	-0.320990	0.588935	-0.480990
C239	C	-0.366202	0.610633	-0.504452
C240	C	-0.389804	0.312282	-0.204314
C241	C	-0.368201	0.268929	-0.157436
C242	C	-0.322993	0.247179	-0.133918
C243	C	-0.299567	0.200174	-0.083089
C244	C	-0.299392	0.268786	-0.157278
C245	C	-0.320998	0.312139	-0.204154
C246	C	-0.366204	0.333881	-0.227670
C247	C	-0.591708	0.582942	-0.480581
C248	C	-0.551193	0.561234	-0.461909
C249	C	-0.408297	0.418359	-0.319013
C250	C	-0.389626	0.380890	-0.278499
C251	C	-0.408296	0.561393	-0.462062
C252	C	-0.389624	0.583232	-0.480862
H253	H	-0.223885	-0.074993	-0.024363
O254	O	-0.297972	-0.206550	-0.436517
C255	C	-0.253407	-0.253412	-0.420315
H256	H	-0.242607	-0.252141	-0.451161
H257	H	-0.254114	-0.290013	-0.398452
C258	C	-0.231627	-0.258435	-0.352597
C259	C	-0.218360	-0.256872	-0.390482
H260	H	-0.210009	-0.260572	-0.334193
H261	H	-0.261652	-0.226865	-0.363511
H262	H	-0.232216	-0.288937	-0.334383
H263	H	-0.217777	-0.226368	-0.408698
H264	H	-0.188335	-0.288438	-0.379570
O265	O	-0.095894	-0.456526	0.360903
C266	C	-0.126017	-0.426625	0.376278
H267	H	-0.163519	-0.403369	0.354431
H268	H	-0.118350	-0.397377	0.372572
C269	C	-0.072559	-0.493450	0.454425
C270	C	-0.118619	-0.464890	0.427595
H271	H	-0.067994	-0.517052	0.486080
H272	H	-0.052263	-0.513594	0.444066
H273	H	-0.066175	-0.469071	0.451332
H274	H	-0.125000	-0.489268	0.430684
H275	H	-0.138916	-0.444751	0.437955
H276	H	0.154133	-0.328462	0.229178
H277	H	0.094791	0.002793	-0.498893
O278	O	-0.297998	0.333046	-0.226782
C279	C	-0.253469	0.304562	-0.195972
H280	H	-0.242795	0.262967	-0.166445
H281	H	-0.254170	0.327075	-0.181170
C282	C	-0.231409	0.350311	-0.258465
C283	C	-0.218297	0.299222	-0.222201
H284	H	-0.209713	0.347019	-0.274644
H285	H	-0.261409	0.369503	-0.279222
H286	H	-0.231992	0.369067	-0.246124
H287	H	-0.217720	0.280469	-0.234542
H288	H	-0.188296	0.280027	-0.201446
H289	H	-0.099381	-0.199518	0.353671
O290	O	-0.095854	-0.071300	0.225618
C291	C	-0.120703	-0.018253	0.212751
H292	H	-0.142672	-0.013846	0.235922
H293	H	-0.144264	0.010576	0.174987
C294	C	-0.059360	-0.010613	0.189949
C295	C	-0.086340	-0.005202	0.218411
H296	H	-0.038165	-0.002561	0.193438
H297	H	-0.042619	-0.046351	0.198617
H298	H	-0.079000	0.013411	0.158482
H299	H	-0.066702	-0.029231	0.249878
H300	H	-0.103077	0.030532	0.209749
O301	O	-0.231125	-0.071417	0.225668
C302	C	-0.246503	-0.101328	0.255776
H303	H	-0.224668	-0.124587	0.293284
H304	H	-0.242782	-0.130575	0.248101
C305	C	-0.324640	-0.034510	0.202299
C306	C	-0.297824	-0.063073	0.248367
H307	H	-0.356298	-0.010913	0.197727
H308	H	-0.314280	-0.014359	0.182013
H309	H	-0.321534	-0.058887	0.195908
H310	H	-0.300926	-0.038696	0.254756
H311	H	-0.308186	-0.083219	0.268653
H312	H	-0.426614	0.329984	-0.223458
H313	H	-0.426617	-0.324814	0.023182
O314	O	-0.735466	-0.271662	0.016613
C315	C	-0.752023	-0.280202	0.054457
H316	H	-0.730553	-0.324915	0.083398
H317	H	-0.789958	-0.264576	0.042772
C318	C	-0.774236	-0.195323	0.036939
C319	C	-0.747864	-0.250240	0.072487
H320	H	-0.771672	-0.176839	0.048060
H321	H	-0.763083	-0.189568	0.011442
H322	H	-0.805846	-0.182308	0.027205
H323	H	-0.716253	-0.263255	0.082216
H324	H	-0.759011	-0.255997	0.097986
H325	H	-0.496128	0.003076	-0.374407
H326	H	0.094785	-0.121682	-0.374387
H327	H	-0.262581	0.251075	-0.138127
O328	O	0.094664	0.006530	-0.370890
C329	C	0.094469	0.052006	-0.401001
H330	H	0.080226	0.067673	-0.438508
H331	H	0.131399	0.040618	-0.393327
C332	C	0.081106	0.076660	-0.347525
C333	C	0.063608	0.095905	-0.393592
H334	H	0.062072	0.103739	-0.342954
H335	H	0.081239	0.046021	-0.327238
H336	H	0.111880	0.067170	-0.341136
H337	H	0.032837	0.105388	-0.399979
H338	H	0.063470	0.126547	-0.413881
H339	H	0.113001	-0.123813	-0.138408
O340	O	-0.390611	-0.120931	-0.134528
C341	C	-0.435175	-0.074070	-0.165205
H342	H	-0.445972	-0.075341	-0.194780
H343	H	-0.434469	-0.037468	-0.179955
C344	C	-0.456963	-0.069047	-0.102513
C345	C	-0.470225	-0.070610	-0.138837
H346	H	-0.478584	-0.066911	-0.086248
H347	H	-0.426939	-0.100617	-0.081845
H348	H	-0.456375	-0.038545	-0.114811
H349	H	-0.470808	-0.101115	-0.126538
H350	H	-0.500250	-0.039045	-0.159502
H351	H	-0.732378	0.221040	-0.483702
H352	H	-0.099380	-0.199466	-0.024359
H353	H	0.106608	-0.078237	-0.223453
H354	H	-0.646757	0.550094	-0.443598
H355	H	0.113004	0.220477	-0.482781
O356	O	-0.095887	-0.071247	-0.024488
C357	C	-0.126017	-0.025736	-0.024737
H358	H	-0.153566	-0.029396	-0.009700
H359	H	-0.143542	0.011779	-0.061906
C360	C	-0.064206	-0.017259	-0.013581
C361	C	-0.098040	-0.021757	0.004891
H362	H	-0.046949	-0.014802	0.004693
H363	H	-0.043907	-0.047919	-0.013414
H364	H	-0.078815	0.014003	-0.044554
H365	H	-0.083430	-0.053022	0.035862
H366	H	-0.118336	0.008899	0.004731
H367	H	-0.646754	-0.324820	0.023190
O368	O	-0.255470	-0.752310	0.016547
C369	C	-0.239276	-0.723941	0.018838
H370	H	-0.259405	-0.703734	0.035925
H371	H	-0.244572	-0.692202	-0.017737
C372	C	-0.162518	-0.787940	0.026679
C373	C	-0.187239	-0.763125	0.047670
H374	H	-0.130419	-0.812109	0.044462
H375	H	-0.173428	-0.807052	0.025134
H376	H	-0.166936	-0.761486	-0.003799
H377	H	-0.182825	-0.789578	0.078145
H378	H	-0.176327	-0.744018	0.049221
O379	O	-0.364077	-0.534601	0.035144
C380	C	-0.348699	-0.504695	0.035341
H381	H	-0.370539	-0.481437	0.049581
H382	H	-0.352412	-0.475449	-0.001588
C383	C	-0.270559	-0.571518	0.048715
C384	C	-0.297381	-0.542955	0.066209
H385	H	-0.238903	-0.595118	0.067754
H386	H	-0.280919	-0.591666	0.048581
H387	H	-0.273658	-0.547141	0.017942
H388	H	-0.294286	-0.567332	0.096980
H389	H	-0.287019	-0.522813	0.066349
O390	O	0.113360	0.224069	-0.614704
C391	C	0.152396	0.184211	-0.615690
H392	H	0.163135	0.142947	-0.585333
H393	H	0.182306	0.188069	-0.612813
C394	C	0.126935	0.241881	-0.698944
C395	C	0.140123	0.191200	-0.661662
H396	H	0.119366	0.246193	-0.727302
H397	H	0.100637	0.268736	-0.698280
H398	H	0.151863	0.245091	-0.696541
H399	H	0.115194	0.187994	-0.664062
H400	H	0.166417	0.164345	-0.662327
O401	O	-0.499459	-0.534581	0.035114
C402	C	-0.544742	-0.504695	0.035342
H403	H	-0.556096	-0.462137	0.020342
H404	H	-0.545126	-0.524350	0.072499
C405	C	-0.564406	-0.555257	0.024080
C406	C	-0.578352	-0.502985	0.005654
H407	H	-0.585138	-0.554204	0.005769
H408	H	-0.533897	-0.575393	0.023928
H409	H	-0.564726	-0.571630	0.055044
H410	H	-0.578026	-0.486615	-0.025308
H411	H	-0.608861	-0.482846	0.005799
O412	O	-0.735795	-0.406915	0.016584
C413	C	-0.752337	-0.419586	0.054442
H414	H	-0.755772	-0.394412	0.067216
H415	H	-0.726909	-0.463917	0.083727
C416	C	-0.795900	-0.438468	0.023295
C417	C	-0.800122	-0.407546	0.038981
H418	H	-0.825374	-0.431043	0.013759
H419	H	-0.784754	-0.429933	-0.002210
H420	H	-0.774708	-0.475408	0.047702
H421	H	-0.821309	-0.370607	0.014573
H422	H	-0.811272	-0.416074	0.064482
H423	H	-0.223883	-0.328432	0.229146
H424	H	0.113009	-0.248624	-0.138135
H425	H	-0.495829	-0.406511	0.035012
H426	H	0.106619	-0.078217	-0.568789
H427	H	-0.387425	-0.278978	0.016792
O428	O	0.106423	0.138620	-0.572068
C429	C	0.144283	0.084244	-0.546973
H430	H	0.157045	0.067918	-0.508978
H431	H	0.173572	0.080461	-0.562009
C432	C	0.113160	0.072062	-0.597239
C433	C	0.128832	0.052009	-0.550572
H434	H	0.103630	0.052177	-0.599460
H435	H	0.087653	0.108696	-0.614147
H436	H	0.137570	0.068908	-0.609763
H437	H	0.104419	0.055168	-0.538050
H438	H	0.154333	0.015373	-0.533662
H439	H	-0.099372	-0.452898	0.229148
O440	O	0.113299	-0.120293	-0.615351
C441	C	0.110983	-0.073460	-0.631390
H442	H	0.123048	-0.074859	-0.600457
H443	H	0.073664	-0.036846	-0.653224
C444	C	0.127750	-0.068156	-0.699193
C445	C	0.142572	-0.069876	-0.661200
H446	H	0.147233	-0.065943	-0.717583
H447	H	0.129308	-0.099707	-0.688388
H448	H	0.096651	-0.037644	-0.717383
H449	H	0.173669	-0.100391	-0.643008
H450	H	0.141020	-0.038330	-0.672003
H451	H	0.154138	-0.452930	0.229170
O452	O	-0.433712	-0.666708	0.023490
C453	C	-0.449912	-0.695064	0.021181
H454	H	-0.419066	-0.736698	0.033253
H455	H	-0.471774	-0.672502	-0.016138
C456	C	-0.517630	-0.649141	0.037938
C457	C	-0.479744	-0.700279	0.052768
H458	H	-0.536033	-0.652356	0.057420
H459	H	-0.506716	-0.630035	0.039492
H460	H	-0.535842	-0.630345	0.006838
H461	H	-0.461529	-0.719072	0.083865
H462	H	-0.490655	-0.719388	0.051220
O463	O	0.113227	-0.255936	-0.480067
C464	C	0.075369	-0.247292	-0.505256
H465	H	0.062597	-0.212778	-0.543211
H466	H	0.046085	-0.236929	-0.490197
C467	C	0.106515	-0.340864	-0.455227
C468	C	0.090830	-0.298476	-0.501844
H469	H	0.116050	-0.372437	-0.453121
H470	H	0.132019	-0.346687	-0.438256
H471	H	0.082108	-0.332221	-0.442683
H472	H	0.115238	-0.307116	-0.514386
H473	H	0.065330	-0.292655	-0.518818
O474	O	0.106375	-0.206549	-0.437098
C475	C	0.108673	-0.253371	-0.421064
H476	H	0.125758	-0.270409	-0.441278
H477	H	0.072101	-0.243256	-0.426402
C478	C	0.116523	-0.274241	-0.344210
C479	C	0.137510	-0.295169	-0.369033
H480	H	0.134309	-0.300023	-0.312114
H481	H	0.114973	-0.242695	-0.355012
H482	H	0.086046	-0.265812	-0.348663
H483	H	0.167983	-0.303591	-0.364585
H484	H	0.139066	-0.326717	-0.358229
O485	O	0.106343	-0.206544	-0.226792
C486	C	0.108667	-0.253383	-0.195983
H487	H	0.096586	-0.251982	-0.166455
H488	H	0.145991	-0.289991	-0.181182
C489	C	0.091942	-0.258706	-0.258479
C490	C	0.077100	-0.256984	-0.222214
H491	H	0.072472	-0.260929	-0.274659
H492	H	0.090378	-0.227151	-0.279235
H493	H	0.123045	-0.289213	-0.246139
H494	H	0.045999	-0.226474	-0.234555
H495	H	0.078658	-0.288534	-0.201461
O496	O	-0.364110	0.465474	-0.370803
C497	C	-0.361566	0.502937	-0.368508
H498	H	-0.397064	0.534227	-0.371490
H499	H	-0.350500	0.523486	-0.398217
C500	C	-0.282183	0.435401	-0.318176
C501	C	-0.325782	0.473829	-0.321836
H502	H	-0.260108	0.417447	-0.289388
H503	H	-0.283896	0.410162	-0.319724
H504	H	-0.272968	0.452532	-0.342936
H505	H	-0.334999	0.456698	-0.297079
H506	H	-0.324069	0.499065	-0.320283
O507	O	-0.499758	0.006826	-0.506155
C508	C	-0.545048	0.052306	-0.521529
H509	H	-0.546462	0.067970	-0.499695
H510	H	-0.570590	0.040924	-0.517803
C511	C	-0.556367	0.076962	-0.599668
C512	C	-0.558103	0.096204	-0.572853
H513	H	-0.564422	0.104040	-0.631328
H514	H	-0.525855	0.046320	-0.589310
H515	H	-0.577653	0.067477	-0.596558
H516	H	-0.536814	0.105682	-0.575959
H517	H	-0.588612	0.126849	-0.583213
H518	H	0.106623	0.141841	-0.443588
O519	O	-0.391075	-0.752160	0.016619
C520	C	-0.365972	-0.806545	0.054464
H521	H	-0.342716	-0.814010	0.083402
H522	H	-0.343667	-0.832786	0.042779
C523	C	-0.428658	-0.811249	0.036956
C524	C	-0.400098	-0.820418	0.072500
H525	H	-0.449708	-0.819808	0.048081
H526	H	-0.445570	-0.774610	0.011458
H527	H	-0.410066	-0.833118	0.027222
H528	H	-0.418690	-0.798544	0.082230
H529	H	-0.383189	-0.857054	0.098000
O530	O	-0.255131	-0.256247	-0.479156
C531	C	-0.225839	-0.247696	-0.504264
H532	H	-0.241629	-0.202982	-0.527519
H533	H	-0.221897	-0.263318	-0.526571
C534	C	-0.158441	-0.332575	-0.441582
C535	C	-0.177834	-0.277656	-0.470141
H536	H	-0.128829	-0.351057	-0.420534
H537	H	-0.178176	-0.338336	-0.424667
H538	H	-0.155161	-0.345585	-0.460176
H539	H	-0.181119	-0.264645	-0.451547
H540	H	-0.158099	-0.271892	-0.487053
H541	H	0.154122	-0.452930	0.353678
H542	H	-0.495826	0.593550	-0.498882
H543	H	-0.495832	0.469078	-0.374381
H544	H	-0.647026	-0.449354	0.023185
O545	O	-0.391185	0.247992	-0.134819
C546	C	-0.435721	0.276489	-0.165624
H547	H	-0.435678	0.296659	-0.202880
H548	H	-0.462177	0.308269	-0.160842
C549	C	-0.448744	0.212673	-0.109649
C550	C	-0.448690	0.237441	-0.155408
H551	H	-0.456746	0.188587	-0.103346
H552	H	-0.418740	0.193474	-0.088894
H553	H	-0.470791	0.239160	-0.105669
H554	H	-0.426641	0.210955	-0.159385
H555	H	-0.478691	0.256635	-0.176163
O556	O	-0.735408	0.592178	-0.479017
C557	C	-0.704600	0.545336	-0.434488
H558	H	-0.675067	0.546731	-0.423812
H559	H	-0.689808	0.508730	-0.435194
C560	C	-0.767098	0.540024	-0.412428
C561	C	-0.730826	0.541738	-0.399314
H562	H	-0.783275	0.537802	-0.390731
H563	H	-0.787854	0.571581	-0.442429
H564	H	-0.754766	0.509518	-0.413016
H565	H	-0.743159	0.572247	-0.398732
H566	H	-0.710073	0.510186	-0.369313
O567	O	-0.735808	0.727929	-0.614696
C568	C	-0.773497	0.769726	-0.614586
H569	H	-0.766710	0.760250	-0.578301
H570	H	-0.806617	0.773825	-0.625037
C571	C	-0.787431	0.834282	-0.693928
C572	C	-0.779093	0.822646	-0.649363
H573	H	-0.790884	0.866927	-0.715381
H574	H	-0.762040	0.806123	-0.694003
H575	H	-0.815030	0.837695	-0.702631
H576	H	-0.751491	0.819227	-0.640658
H577	H	-0.804479	0.850806	-0.649287
O578	O	-0.298132	-0.666850	0.023469
C579	C	-0.326903	-0.623916	0.026933
H580	H	-0.354055	-0.628656	0.042009
H581	H	-0.344990	-0.584470	-0.009021
C582	C	-0.263869	-0.618076	0.040405
C583	C	-0.297216	-0.623901	0.058925
H584	H	-0.245558	-0.618065	0.060137
H585	H	-0.244487	-0.647000	0.038069
H586	H	-0.278948	-0.585205	0.010443
H587	H	-0.282137	-0.656775	0.088883
H588	H	-0.316595	-0.594982	0.061266
O589	O	-0.643430	0.678439	-0.572193
C590	C	-0.674231	0.725268	-0.616729
H591	H	-0.711487	0.742305	-0.616688
H592	H	-0.669451	0.715162	-0.643189
C593	C	-0.618249	0.746133	-0.629741
C594	C	-0.664008	0.767061	-0.629689
H595	H	-0.611942	0.771913	-0.637737
H596	H	-0.597497	0.714583	-0.599737
H597	H	-0.614271	0.737713	-0.651791
H598	H	-0.667984	0.775475	-0.607636
H599	H	-0.684761	0.798614	-0.659690
O600	O	-0.433421	-0.071190	-0.226944
C601	C	-0.447586	-0.053532	-0.273364
H602	H	-0.426415	-0.088795	-0.275967
H603	H	-0.441797	-0.021382	-0.296450
C604	C	-0.525478	0.013272	-0.286175
C605	C	-0.499479	-0.030039	-0.289371
H606	H	-0.557489	0.027766	-0.296049
H607	H	-0.515935	0.001378	-0.254901
H608	H	-0.520649	0.040058	-0.305412
H609	H	-0.504303	-0.056827	-0.270129
H610	H	-0.509024	-0.018148	-0.320642
H611	H	-0.426614	0.675254	-0.568760
H612	H	-0.262587	-0.403497	0.016771
H613	H	-0.301784	-0.449335	0.023157
O614	O	-0.391199	0.728479	-0.615312
C615	C	-0.435730	0.742203	-0.631355
H616	H	-0.446398	0.723336	-0.600424
H617	H	-0.435037	0.726730	-0.653195
C618	C	-0.457797	0.826753	-0.699149
C619	C	-0.470902	0.803585	-0.661159
H620	H	-0.479493	0.864617	-0.717535
H621	H	-0.427795	0.817507	-0.688342
H622	H	-0.457219	0.813854	-0.717344
H623	H	-0.471474	0.816479	-0.642962
H624	H	-0.500905	0.812835	-0.671964
O625	O	-0.735776	0.224090	-0.615346
C626	C	-0.734830	0.184134	-0.616249
H627	H	-0.729367	0.151773	-0.579929
H628	H	-0.705187	0.165557	-0.628347
C629	C	-0.787928	0.249045	-0.694563
C630	C	-0.781223	0.209301	-0.649956
H631	H	-0.816544	0.264569	-0.715357
H632	H	-0.788564	0.275964	-0.693956
H633	H	-0.763222	0.233559	-0.704638
H634	H	-0.805925	0.224789	-0.639879
H635	H	-0.780591	0.182385	-0.650562
H636	H	-0.262576	0.596543	-0.483644
H637	H	-0.301770	0.550701	-0.444180
H638	H	-0.386837	-0.124397	-0.607648
O639	O	-0.364373	-0.128490	-0.370800
C640	C	-0.336148	-0.116516	-0.357947
H641	H	-0.358393	-0.081300	-0.355502
H642	H	-0.318975	-0.105585	-0.385141
C643	C	-0.271143	-0.209025	-0.313478
C644	C	-0.298464	-0.165775	-0.310471
H645	H	-0.247897	-0.239411	-0.284194
H646	H	-0.290158	-0.217092	-0.322139
H647	H	-0.256837	-0.199909	-0.336141
H648	H	-0.312774	-0.174889	-0.287812
H649	H	-0.279451	-0.157710	-0.301805
H650	H	-0.301727	-0.203079	-0.223479
O651	O	-0.255133	-0.256243	-0.134803
C652	C	-0.224907	-0.245725	-0.156879
H653	H	-0.240733	-0.201073	-0.177108
H654	H	-0.219439	-0.258160	-0.181747
C655	C	-0.158461	-0.332600	-0.095231
C656	C	-0.177897	-0.277758	-0.120073
H657	H	-0.129462	-0.352361	-0.072527
H658	H	-0.178824	-0.339688	-0.080358
H659	H	-0.153908	-0.342955	-0.115959
H660	H	-0.182454	-0.267403	-0.099345
H661	H	-0.157533	-0.270669	-0.134941
O662	O	-0.433421	-0.071194	-0.572222
C663	C	-0.449455	-0.057461	-0.616760
H664	H	-0.429245	-0.094749	-0.616717
H665	H	-0.444115	-0.026237	-0.643215
C666	C	-0.526306	0.011528	-0.629786
C667	C	-0.501486	-0.034271	-0.629732
H668	H	-0.558401	0.025835	-0.637789
H669	H	-0.515503	0.002277	-0.599780
H670	H	-0.521851	0.037542	-0.651831
H671	H	-0.505936	-0.060286	-0.607683
H672	H	-0.512290	-0.025024	-0.659734
O673	O	-0.643732	0.139053	-0.437117
C674	C	-0.674533	0.167549	-0.421084
H675	H	-0.711789	0.187711	-0.441294
H676	H	-0.669754	0.199334	-0.426425
C677	C	-0.618549	0.103741	-0.344232
C678	C	-0.664307	0.128500	-0.369051
H679	H	-0.612240	0.079655	-0.312135
H680	H	-0.597796	0.084543	-0.355034
H681	H	-0.614572	0.130233	-0.348688
H682	H	-0.668282	0.102009	-0.364599
H683	H	-0.685060	0.147692	-0.358247
H684	H	-0.647059	0.142138	-0.568809
