data_functionalizedCrystal
_audit_creation_method	'MofGen! by Chris Wilmer'
_symmetry_space_group_name_H-M	'P1'
_symmetry_Int_Tables_number	1
_symmetry_cell_setting	triclinic
loop_
_symmetry_equiv_pos_as_xyz
  x,y,z
_cell_length_a	15.944545
_cell_length_b	15.944480
_cell_length_c	16.176319
_cell_angle_alpha	90.000701
_cell_angle_beta	89.995369
_cell_angle_gamma	96.516990
loop_
_atom_site_label
_atom_site_type_symbol
_atom_site_fract_x
_atom_site_fract_y
_atom_site_fract_z
O1	O	1.114503	-0.108313	-0.068682
O2	O	0.869950	-0.121675	-0.068694
O3	O	0.998936	0.007285	-0.068695
O4	O	0.985517	-0.237273	-0.068681
O5	O	0.998918	0.007294	0.068798
O6	O	0.869932	-0.121667	0.068799
O7	O	1.114486	-0.108304	0.068812
Cu8	Cu	0.992207	-0.114985	0.081360
Cu9	Cu	0.992228	-0.114994	-0.081242
O10	O	0.985499	-0.237265	0.068813
C11	C	0.838647	-0.121117	0.000051
C12	C	0.745401	-0.119457	0.000046
C13	C	0.474790	-0.034560	0.000050
C14	C	0.525352	-0.075486	0.067846
C15	C	0.409759	-0.113536	0.000060
C16	C	0.525350	-0.075516	-0.067712
C17	C	0.574671	-0.116441	0.000052
C18	C	0.459093	-0.154441	0.067912
C19	C	0.459087	-0.154459	-0.067707
C20	C	0.509617	-0.195443	0.000105
C21	C	0.314757	-0.111860	0.000065
C22	C	0.669670	-0.118122	0.000052
C23	C	0.998380	0.038584	0.000048
C24	C	0.996741	0.131833	0.000037
C25	C	1.072673	0.367597	0.000056
C26	C	1.031743	0.418160	-0.067737
C27	C	0.993705	0.302555	0.000047
C28	C	1.031707	0.418144	0.067820
C29	C	0.990778	0.467466	0.000059
C30	C	0.952796	0.351891	-0.067803
C31	C	0.952772	0.351871	0.067816
C32	C	0.911784	0.402402	0.000006
C33	C	0.995394	0.207555	0.000039
C34	C	0.989084	0.562464	0.000061
C35	C	1.145788	-0.108862	0.000065
C36	C	1.239034	-0.110523	0.000065
N37	N	0.992198	-0.114977	0.195725
C38	C	0.986066	0.731438	0.000067
C39	C	0.987739	0.638193	0.000069
N40	N	0.992243	-0.114995	-0.195607
C41	C	1.049331	-0.057897	0.238989
C42	C	1.049335	-0.057896	0.325536
C43	C	0.992210	-0.114980	0.368818
C44	C	0.935072	-0.172063	0.325548
C45	C	0.935064	-0.172059	0.239002
C46	C	0.935101	-0.172079	0.674576
C47	C	0.935114	-0.172080	0.761128
C48	C	1.049371	-0.057916	0.761110
C49	C	1.049364	-0.057912	0.674564
C50	C	0.992223	-0.114992	0.631302
C51	C	0.992218	-0.114991	0.537458
C52	C	0.992219	-0.114986	0.462660
H53	H	0.525092	-0.263510	0.000149
C54	C	0.407255	0.071756	-0.070908
C55	C	0.453682	0.057256	0.000123
H56	H	0.394231	0.128440	-0.070863
H57	H	0.356423	0.034400	-0.071427
H58	H	0.439633	0.062274	-0.118608
H59	H	0.421301	0.066732	0.047823
H60	H	0.504522	0.094624	0.000649
C61	C	0.332355	-0.198082	-0.143832
C62	C	0.419999	-0.199454	-0.145074
H63	H	0.308225	-0.225861	-0.191598
H64	H	0.319833	-0.141249	-0.143357
H65	H	0.309568	-0.226221	-0.095703
H66	H	0.442788	-0.171310	-0.193200
H67	H	0.432528	-0.256298	-0.145557
C68	C	0.884355	-0.222769	0.458222
C69	C	0.872281	-0.234814	0.373121
H70	H	0.845593	-0.261515	0.487589
H71	H	0.875245	-0.166710	0.472408
H72	H	0.940413	-0.231928	0.472384
H73	H	0.816224	-0.225649	0.358958
H74	H	0.881383	-0.290886	0.358929
H75	H	0.888540	-0.218539	0.203778
H76	H	1.140690	0.351970	-0.000009
C77	C	0.916842	-0.286390	0.577262
C78	C	0.872303	-0.234834	0.627033
H79	H	0.878071	-0.325134	0.547907
H80	H	0.951799	-0.316617	0.611019
H81	H	0.950850	-0.252384	0.539096
H82	H	0.838300	-0.268840	0.665202
H83	H	0.837331	-0.204605	0.593273
H84	H	0.554284	-0.042129	0.125157
C85	C	0.605289	-0.087362	-0.192135
C86	C	0.564409	-0.030484	-0.145084
H87	H	0.629404	-0.059554	-0.239895
H88	H	0.565643	-0.133380	-0.208427
H89	H	0.648554	-0.107715	-0.159993
H90	H	0.521140	-0.010135	-0.177224
H91	H	0.604059	0.015550	-0.128794
C92	C	1.160967	0.440071	-0.144978
C93	C	1.076770	0.457242	-0.145103
H94	H	1.188768	0.464202	-0.192736
H95	H	1.162796	0.380736	-0.145285
H96	H	1.188442	0.463642	-0.096832
H97	H	1.049293	0.433665	-0.193245
H98	H	1.074936	0.516588	-0.144803
H99	H	0.430267	-0.187766	0.125289
H100	H	0.919474	0.323066	-0.125177
C101	C	0.778271	0.388338	0.070270
C102	C	0.819895	0.423287	-0.000044
H103	H	0.721543	0.401230	0.070232
H104	H	0.806186	0.411249	0.118451
H105	H	0.778843	0.328829	0.069804
H106	H	0.819328	0.482797	0.000425
H107	H	0.791972	0.400380	-0.048238
H108	H	0.919444	0.322913	0.125129
H109	H	1.065065	0.447079	0.125130
H110	H	1.095851	-0.011416	0.203754
H111	H	1.095856	-0.011417	0.360761
C112	C	1.162300	0.054945	0.683241
C113	C	1.112154	0.004839	0.626990
H114	H	1.201058	0.093691	0.653870
H115	H	1.192509	0.019961	0.716986
H116	H	1.127338	0.085177	0.717009
H117	H	1.147115	-0.025398	0.593226
H118	H	1.081943	0.039828	0.593231
C119	C	0.822149	-0.284920	0.752457
C120	C	0.872310	-0.234824	0.808705
H121	H	0.783376	-0.323648	0.781831
H122	H	0.857092	-0.315163	0.718695
H123	H	0.791948	-0.249921	0.718707
H124	H	0.902516	-0.269822	0.842451
H125	H	0.837362	-0.204579	0.842481
H126	H	1.095896	-0.011436	0.796343
