data_functionalizedCrystal
_audit_creation_method	'MofGen! by Chris Wilmer'
_symmetry_space_group_name_H-M	'P1'
_symmetry_Int_Tables_number	1
_symmetry_cell_setting	triclinic
loop_
_symmetry_equiv_pos_as_xyz
  x,y,z
_cell_length_a	21.395364
_cell_length_b	18.215405
_cell_length_c	21.395355
_cell_angle_alpha	90.015775
_cell_angle_beta	90.024727
_cell_angle_gamma	90.020354
loop_
_atom_site_label
_atom_site_type_symbol
_atom_site_fract_x
_atom_site_fract_y
_atom_site_fract_z
Zn1	Zn	0.957897	-0.293102	0.354276
Zn2	Zn	0.957815	-0.416151	0.249504
Zn3	Zn	0.853112	-0.293099	0.249513
Zn4	Zn	0.853097	-0.416128	0.354244
O5	O	0.905480	-0.354620	0.301884
O6	O	1.045564	-0.309436	0.340388
O7	O	0.943898	-0.399835	0.161827
O8	O	0.867052	-0.190115	0.263427
O9	O	1.045504	-0.399839	0.263412
O10	O	0.944037	-0.190118	0.340397
O11	O	0.866973	-0.309430	0.161834
O12	O	0.765432	-0.309408	0.263396
O13	O	0.867027	-0.399800	0.441926
O14	O	0.765421	-0.399797	0.340341
O15	O	0.944023	-0.309414	0.441950
O16	O	0.943884	-0.519132	0.263380
O17	O	0.866948	-0.519115	0.340332
C18	C	0.742693	-0.354600	0.301866
C19	C	0.673051	-0.354610	0.301873
C20	C	0.171266	-0.401772	0.341911
C21	C	0.236701	-0.401772	0.341904
C22	C	0.269413	-0.354636	0.301904
C23	C	0.236684	-0.307510	0.261896
C24	C	0.171250	-0.307516	0.261899
C25	C	0.373093	-0.288313	0.297050
C26	C	0.438526	-0.288306	0.297051
C27	C	0.471234	-0.354617	0.301890
C28	C	0.438500	-0.420937	0.306741
C29	C	0.373066	-0.420944	0.306745
C30	C	0.340365	-0.354624	0.301896
C31	C	0.574908	-0.401744	0.341886
C32	C	0.640344	-0.401745	0.341875
C33	C	0.640326	-0.307476	0.261869
C34	C	0.574890	-0.307482	0.261877
C35	C	0.542185	-0.354614	0.301889
C36	C	0.905422	-0.545826	0.301866
C37	C	0.905455	-0.627625	0.301879
C38	C	0.945578	-0.892626	0.342018
C39	C	0.945557	-0.815768	0.342008
C40	C	0.865462	-0.815872	0.261787
C41	C	0.865487	-0.892730	0.261793
C42	C	0.905544	-0.931105	0.301913
C43	C	0.905498	-0.777389	0.301896
C44	C	0.905475	-0.694055	0.301886
C45	C	0.905568	-1.014444	0.301923
C46	C	1.068903	-0.354640	0.301903
C47	C	1.138545	-0.354649	0.301911
C48	C	0.905532	-0.354605	0.465307
C49	C	0.905554	-0.354599	0.534949
C50	C	0.905556	-0.162667	0.301916
C51	C	0.905588	-0.080868	0.301930
C52	C	0.905464	-0.354582	0.139097
C53	C	0.905564	-0.354381	0.069456
C54	C	0.945645	-0.307532	0.567675
C55	C	0.945644	-0.307501	0.633111
C56	C	0.905559	-0.354548	0.665817
C57	C	0.865461	-0.401618	0.633083
C58	C	0.865459	-0.401643	0.567648
C59	C	0.900592	-0.420812	0.769485
C60	C	0.900599	-0.420789	0.834918
C61	C	0.905563	-0.354471	0.867638
C62	C	0.910534	-0.288175	0.834917
C63	C	0.910531	-0.288200	0.769482
C64	C	0.905557	-0.354526	0.736770
C65	C	0.945654	-0.307366	0.971317
C66	C	0.945649	-0.307333	1.036754
C67	C	0.865470	-0.401457	1.036724
C68	C	0.865472	-0.401483	0.971289
C69	C	0.905568	-0.354439	0.938589
H70	H	0.346417	-0.474944	0.310693
O71	O	0.988747	-0.774269	0.385258
H72	H	0.977981	-0.788999	0.434425
O73	O	0.271965	-0.256677	0.218748
H74	H	0.238216	-0.223915	0.190927
O75	O	0.822254	-0.774483	0.218521
H76	H	0.828957	-0.714575	0.225257
H77	H	0.914577	-0.234172	0.861555
O78	O	0.822304	-0.934232	0.218532
H79	H	0.850380	-0.969230	0.186683
H80	H	0.978293	-0.269224	0.541055
O81	O	0.988885	-0.256560	1.072057
H82	H	1.020743	-0.289490	1.101892
O83	O	0.337822	-0.216786	0.291818
H84	H	0.286823	-0.227932	0.292625
O85	O	0.539618	-0.452580	0.385027
H86	H	0.509779	-0.489964	0.356923
H87	H	0.896555	-0.474771	0.861555
H88	H	0.978289	-0.269170	0.659762
H89	H	0.832826	-0.439757	1.063353
O90	O	0.473771	-0.492464	0.311960
H91	H	0.440017	-0.538577	0.315338
O92	O	0.675642	-0.452570	0.385022
H93	H	0.641904	-0.485336	0.412848
H94	H	0.896382	-0.474802	0.742851
O95	O	0.822204	-0.452393	0.532344
H96	H	0.794324	-0.485099	0.566077
O97	O	0.675597	-0.256633	0.218725
H98	H	0.726595	-0.264542	0.225445
O99	O	0.473821	-0.216773	0.291816
H100	H	0.503650	-0.209315	0.333800
O101	O	0.822223	-0.452360	0.668354
H102	H	0.850249	-0.489801	0.698175
H103	H	0.548248	-0.269107	0.229307
H104	H	0.914577	-0.234219	0.742843
H105	H	0.978299	-0.269056	0.944692
H106	H	0.978193	-0.923869	0.374688
H107	H	0.144641	-0.440153	0.374489
H108	H	0.263348	-0.440145	0.374479
H109	H	0.144609	-0.269141	0.229326
H110	H	0.832830	-0.439814	0.944643
