data_functionalizedCrystal
_audit_creation_method	'MofGen! by Chris Wilmer'
_symmetry_space_group_name_H-M	'P1'
_symmetry_Int_Tables_number	1
_symmetry_cell_setting	triclinic
loop_
_symmetry_equiv_pos_as_xyz
  x,y,z
_cell_length_a	14.908571
_cell_length_b	12.759394
_cell_length_c	14.908308
_cell_angle_alpha	93.268403
_cell_angle_beta	90.175053
_cell_angle_gamma	86.711101
loop_
_atom_site_label
_atom_site_type_symbol
_atom_site_fract_x
_atom_site_fract_y
_atom_site_fract_z
Zn1	Zn	1.345341	-0.548282	-0.587592
Zn2	Zn	1.353935	-0.714462	-0.437236
Zn3	Zn	1.203654	-0.528102	-0.428590
Zn4	Zn	1.194963	-0.713213	-0.578887
O5	O	1.274473	-0.626015	-0.508076
O6	O	1.472308	-0.579294	-0.574908
O7	O	1.341234	-0.681818	-0.310264
O8	O	1.222490	-0.383762	-0.449706
O9	O	1.478622	-0.701385	-0.464442
O10	O	1.326587	-0.398588	-0.566525
O11	O	1.230824	-0.544900	-0.303912
O12	O	1.076675	-0.543690	-0.441266
O13	O	1.207676	-0.699258	-0.705867
O14	O	1.070289	-0.679690	-0.551688
O15	O	1.318159	-0.578083	-0.712262
O16	O	1.332806	-0.861313	-0.456001
O17	O	1.216010	-0.860396	-0.560072
C18	C	1.040856	-0.609365	-0.494595
C19	C	0.940913	-0.602270	-0.488849
C20	C	0.746516	-0.730752	-0.592880
C21	C	0.652610	-0.724088	-0.587484
C22	C	0.659192	-0.582274	-0.472666
C23	C	0.753098	-0.588938	-0.478062
C24	C	0.796757	-0.663180	-0.538170
C25	C	0.890665	-0.669848	-0.543561
C26	C	0.897246	-0.528030	-0.428748
C27	C	0.803340	-0.521366	-0.423352
C28	C	1.274420	-0.898977	-0.508051
C29	C	1.274478	-1.015759	-0.508075
C30	C	1.396180	-1.016672	-0.399798
C31	C	1.457053	-1.071992	-0.345671
C32	C	1.457105	-1.181719	-0.345698
C33	C	1.396278	-1.236129	-0.399860
C34	C	1.335404	-1.180809	-0.453987
C35	C	1.335358	-1.071079	-0.453952
C36	C	1.213709	-1.179897	-0.562269
C37	C	1.213651	-1.070169	-0.562238
C38	C	1.152882	-1.234306	-0.616431
C39	C	1.092002	-1.178986	-0.670555
C40	C	1.091953	-1.069252	-0.670524
C41	C	1.152778	-1.014849	-0.616365
C42	C	1.509002	-0.642730	-0.521611
C43	C	1.608945	-0.649853	-0.527378
C44	C	1.260989	-0.640782	-0.742602
C45	C	1.255243	-0.647075	-0.842543
C46	C	1.274549	-0.351989	-0.508122
C47	C	1.274582	-0.235216	-0.508142
C48	C	1.359488	-0.532697	-1.037003
C49	C	1.354092	-0.538606	-1.130907
C50	C	1.239051	-0.664798	-1.124254
C51	C	1.244447	-0.658888	-1.030351
C52	C	1.304669	-0.592837	-0.986729
C53	C	1.310069	-0.586934	-0.892824
C54	C	1.195024	-0.713118	-0.886173
C55	C	1.189627	-0.719028	-0.980077
C56	C	1.287956	-0.611232	-0.274466
C57	C	1.293877	-0.604656	-0.174536
H58	H	0.611707	-0.779110	-0.632037
C59	C	0.937900	-0.750482	-0.608910
C60	C	0.873796	-0.808210	-0.655687
C61	C	0.917272	-0.882488	-0.715906
H62	H	0.976501	-0.796732	-0.576658
H63	H	0.972267	-0.715453	-0.650296
H64	H	0.839444	-0.843238	-0.614307
H65	H	0.835193	-0.761989	-0.687957
H66	H	0.951639	-0.847459	-0.757292
H67	H	0.955871	-0.928730	-0.683647
H68	H	0.873784	-0.921659	-0.747657
H69	H	0.938162	-0.473010	-0.384197
C70	C	1.152554	-0.895711	-0.616420
C71	C	1.086213	-0.858903	-0.675397
C72	C	1.085977	-0.749157	-0.675462
H73	H	1.209606	-0.875805	-0.635378
H74	H	1.140325	-0.866139	-0.557496
H75	H	1.098448	-0.888464	-0.734310
H76	H	1.029151	-0.878780	-0.656454
H77	H	1.073748	-0.719585	-0.616537
H78	H	1.143032	-0.729262	-0.694418
H79	H	1.040960	-0.724168	-0.715470
C80	C	0.611721	-0.501814	-0.407332
C81	C	0.561100	-0.553709	-0.346504
C82	C	0.517358	-0.479616	-0.286312
H83	H	0.573066	-0.455660	-0.439617
H84	H	0.655051	-0.462515	-0.375462
H85	H	0.517775	-0.592991	-0.378371
H86	H	0.599734	-0.599858	-0.314197
H87	H	0.560688	-0.440316	-0.254442
H88	H	0.478707	-0.433466	-0.318606
H89	H	0.483013	-0.514816	-0.245028
C90	C	1.375472	-0.515119	-0.845624
C91	C	1.422306	-0.463693	-0.909755
C92	C	1.482554	-0.397514	-0.866310
H93	H	1.416829	-0.555676	-0.811247
H94	H	1.343208	-0.464536	-0.807035
H95	H	1.454569	-0.514269	-0.948328
H96	H	1.380974	-0.423116	-0.944134
H97	H	1.450290	-0.346932	-0.827721
H98	H	1.523904	-0.438080	-0.831935
H99	H	1.514332	-0.362607	-0.909815
C100	C	1.135344	-0.778346	-0.831690
C101	C	1.045072	-0.750587	-0.849418
C102	C	0.990074	-0.810661	-0.799252
H103	H	1.147062	-0.765424	-0.769497
H104	H	1.147544	-0.850857	-0.847844
H105	H	1.032877	-0.678094	-0.833258
H106	H	1.033326	-0.763514	-0.911602
H107	H	1.002274	-0.883171	-0.815406
H108	H	1.001800	-0.797733	-0.737062
H109	H	0.928819	-0.791842	-0.811280
H110	H	1.398730	-0.489631	-1.171837
H111	H	1.506677	-1.226761	-0.301628
H112	H	1.190021	-0.718573	-1.159788
C113	C	1.522990	-1.012724	-0.286895
C114	C	1.509905	-0.904786	-0.298433
C115	C	1.570622	-0.850160	-0.244297
H116	H	1.582685	-1.035645	-0.303532
H117	H	1.513347	-1.025952	-0.225700
H118	H	1.519555	-0.891565	-0.359614
H119	H	1.450223	-0.881834	-0.281790
H120	H	1.560979	-0.863388	-0.183102
H121	H	1.630313	-0.873090	-0.260938
H122	H	1.561747	-0.776918	-0.252111
H123	H	0.767780	-0.460918	-0.374416
H124	H	1.408528	-0.478921	-1.001486
H125	H	1.152931	-1.323652	-0.616454
C126	C	1.396533	-1.355276	-0.399913
C127	C	1.480826	-1.399016	-0.427845
C128	C	1.481099	-1.508772	-0.427894
H129	H	1.351660	-1.379902	-0.439918
H130	H	1.384428	-1.375432	-0.340983
H131	H	1.492921	-1.378869	-0.486765
H132	H	1.525714	-1.374421	-0.387849
H133	H	1.468994	-1.528928	-0.368964
H134	H	1.436223	-1.533387	-0.467899
H135	H	1.538293	-1.538463	-0.446837
C136	C	1.026009	-1.238244	-0.729258
C137	C	1.039075	-1.346177	-0.717687
C138	C	0.978289	-1.400800	-0.771741
H139	H	1.035580	-1.225076	-0.790466
H140	H	0.966335	-1.215261	-0.712552
H141	H	1.098735	-1.369152	-0.734399
H142	H	1.029497	-1.359376	-0.656491
H143	H	0.918614	-1.377817	-0.755035
H144	H	0.987864	-1.387624	-0.832946
H145	H	0.987140	-1.474037	-0.763892
H146	H	1.140595	-0.772803	-1.015607
H147	H	0.782063	-0.791208	-0.641817
H148	H	1.396133	-0.927325	-0.399758
H149	H	1.042386	-1.024217	-0.714605
