data_functionalizedCrystal
_audit_creation_method	'MofGen! by Chris Wilmer'
_symmetry_space_group_name_H-M	'P1'
_symmetry_Int_Tables_number	1
_symmetry_cell_setting	triclinic
loop_
_symmetry_equiv_pos_as_xyz
  x,y,z
_cell_length_a	22.863218
_cell_length_b	22.862586
_cell_length_c	22.858745
_cell_angle_alpha	60.006856
_cell_angle_beta	60.013818
_cell_angle_gamma	59.991795
loop_
_atom_site_label
_atom_site_type_symbol
_atom_site_fract_x
_atom_site_fract_y
_atom_site_fract_z
O1	O	0.081006	-0.854581	0.714630
O2	O	0.030492	-0.665350	0.575795
O3	O	0.150314	-0.785089	0.575706
O4	O	-0.038816	-0.734841	0.714718
O5	O	0.190066	-0.745348	0.615369
O6	O	0.070244	-0.625609	0.615458
O7	O	0.120758	-0.814840	0.754293
Zn8	Zn	0.101812	-0.713914	0.691173
Zn9	Zn	0.049438	-0.766275	0.638915
O10	O	0.000936	-0.695100	0.754381
N11	N	0.137558	-0.678184	0.726840
N12	N	0.013698	-0.802011	0.603247
C13	C	0.187224	-0.518558	0.776483
C14	C	0.187235	-0.628552	0.776467
C15	C	0.214753	-0.601061	0.803961
C16	C	0.334724	-0.580392	0.740801
C17	C	0.409718	-0.605392	0.715784
C18	C	0.409746	-0.726732	0.762051
C19	C	0.334754	-0.701730	0.787070
C20	C	0.205297	-0.481049	0.702756
C21	C	0.180267	-0.406048	0.677779
C22	C	0.119099	-0.406071	0.800259
C23	C	0.144128	-0.481071	0.825236
C24	C	0.113501	-0.610437	0.794610
C25	C	0.088492	-0.635428	0.769607
C26	C	0.210943	-0.696652	0.708337
C27	C	0.235956	-0.671660	0.733331
C28	C	0.113585	-0.610461	0.923980
C29	C	0.088635	-0.635476	0.998978
C30	C	0.211128	-0.696714	0.998930
C31	C	0.236077	-0.671700	0.923930
C32	C	0.187303	-0.628571	0.886457
C33	C	0.297246	-0.628559	0.776441
C34	C	-0.117796	-0.823430	0.581283
C35	C	-0.007671	-0.823587	0.471446
C36	C	-0.007879	-0.933535	0.581483
C37	C	-0.007861	-0.823583	0.581554
C38	C	-0.035301	-0.851035	0.553942
N39	N	0.446162	-0.678198	0.726752
O40	O	0.691234	-0.690164	0.550341
O41	O	0.691462	-0.829422	0.739388
O42	O	0.691373	-0.829102	0.619485
O43	O	0.691323	-0.690484	0.670244
O44	O	0.572233	-0.789455	0.659278
O45	O	0.572322	-0.789775	0.779181
O46	O	0.572094	-0.650517	0.590134
Zn47	Zn	0.553292	-0.713851	0.690976
Zn48	Zn	0.710264	-0.766088	0.638547
O49	O	0.572183	-0.650837	0.710037
N50	N	0.817394	-0.801741	0.602763
N51	N	0.137538	-0.369628	0.726874
O52	O	-0.038795	-0.124419	0.714761
O53	O	0.150256	-0.124417	0.575522
O54	O	0.030331	-0.124432	0.575860
O55	O	0.081131	-0.124404	0.714423
O56	O	0.070086	-0.243584	0.615573
O57	O	0.190011	-0.243569	0.615236
O58	O	0.000960	-0.243571	0.754474
Zn59	Zn	0.101797	-0.262488	0.691160
Zn60	Zn	0.049419	-0.105500	0.638836
O61	O	0.120885	-0.243556	0.754137
N62	N	0.013669	0.001640	0.603123
N63	N	0.137749	-0.678230	1.035381
O64	O	0.125655	-0.854547	1.280566
O65	O	-0.013567	-0.665426	1.280590
O66	O	-0.013245	-0.785328	1.280537
O67	O	0.125333	-0.734644	1.280618
O68	O	0.026456	-0.745599	1.161392
O69	O	0.026134	-0.625697	1.161444
O70	O	0.165355	-0.814817	1.161420
Zn71	Zn	0.102048	-0.713949	1.142516
Zn72	Zn	0.049740	-0.766294	1.299495
O73	O	0.165033	-0.694915	1.161473
N74	N	0.014038	-0.802020	1.406629
C75	C	0.045634	-0.621635	0.576499
C76	C	0.194019	-0.769918	0.576389
C77	C	0.105616	-0.858555	0.753588
C78	C	-0.042769	-0.710272	0.753698
C79	C	0.631920	-0.828776	0.783102
C80	C	0.631811	-0.828380	0.634616
C81	C	0.631633	-0.651162	0.546422
C82	C	0.631745	-0.651559	0.694907
C83	C	0.193900	-0.183846	0.576155
C84	C	0.045437	-0.184012	0.576622
C85	C	-0.042734	-0.183994	0.753792
C86	C	0.105780	-0.183977	0.753375
C87	C	-0.012889	-0.621735	1.221020
C88	C	-0.012483	-0.770211	1.220931
C89	C	0.164678	-0.858508	1.220991
C90	C	0.164280	-0.710023	1.221052
H91	H	0.073862	-0.575336	0.893474
C92	C	0.267093	-0.183394	0.516947
C93	C	0.271553	-0.121302	0.445049
C94	C	0.344745	-0.120849	0.385841
C95	C	0.413477	-0.182490	0.398531
C96	C	0.409019	-0.244587	0.470432
C97	C	0.335827	-0.245039	0.529640
H98	H	0.220671	-0.075668	0.435653
H99	H	0.348045	-0.074881	0.332615
H100	H	0.467659	-0.182155	0.354702
H101	H	0.459901	-0.290221	0.479829
H102	H	0.332527	-0.291008	0.582866
C103	C	0.223099	-0.695381	1.221073
C104	C	0.296582	-0.754213	1.221074
C105	C	0.355401	-0.739571	1.221095
C106	C	0.340738	-0.666099	1.221116
C107	C	0.267252	-0.607263	1.221115
C108	C	0.208433	-0.621904	1.221094
H109	H	0.307439	-0.808606	1.221058
H110	H	0.409800	-0.783126	1.221095
H111	H	0.384279	-0.655260	1.221131
H112	H	0.256394	-0.552869	1.221131
H113	H	0.154034	-0.578349	1.221094
H114	H	0.116407	-0.912913	0.797192
C115	C	-0.071942	-0.548360	1.221028
C116	C	-0.144001	-0.543475	1.282887
C117	C	-0.203053	-0.470100	1.282895
C118	C	-0.190046	-0.401610	1.221044
C119	C	-0.117984	-0.406492	1.159180
C120	C	-0.058932	-0.479867	1.159172
H121	H	-0.153632	-0.594178	1.328676
H122	H	-0.256398	-0.466487	1.328690
H123	H	-0.233760	-0.347293	1.221050
H124	H	-0.108353	-0.355789	1.113391
H125	H	-0.005587	-0.483480	1.113377
C126	C	0.030751	-0.184022	0.517811
C127	C	0.035830	-0.122154	0.445745
C128	C	0.021143	-0.122164	0.386934
C129	C	0.001378	-0.184042	0.400189
C130	C	-0.003702	-0.245914	0.472259
C131	C	0.010984	-0.245904	0.531070
H132	H	0.050462	-0.076344	0.435929
H133	H	0.024904	-0.076361	0.333583
H134	H	-0.009494	-0.184049	0.356654
H135	H	-0.018334	-0.291724	0.482074
H136	H	0.007224	-0.291707	0.584420
C137	C	0.223730	-0.931883	1.220983
C138	C	0.209421	-0.990915	1.220951
C139	C	0.268473	-1.064291	1.220943
C140	C	0.341834	-1.078634	1.220968
C141	C	0.356147	-1.019600	1.221000
C142	C	0.297095	-0.946225	1.221007
H143	H	0.155111	-0.980299	1.220933
H144	H	0.257878	-1.107991	1.220919
H145	H	0.385548	-1.132951	1.220962
H146	H	0.410456	-1.030217	1.221018
H147	H	0.307690	-0.902525	1.221031
H148	H	0.250848	-0.731818	1.029432
C149	C	0.007538	-0.615539	1.040246
C150	C	-0.046106	-0.568095	0.999023
C151	C	-0.127201	-0.548158	1.040293
C152	C	-0.154652	-0.575665	1.122786
C153	C	-0.101008	-0.623112	1.164014
C154	C	-0.019912	-0.643049	1.122744
H155	H	-0.025786	-0.547730	0.937953
H156	H	-0.166912	-0.513034	1.009773
H157	H	-0.214684	-0.560906	1.153337
H158	H	-0.121328	-0.643476	1.225085
H159	H	0.019799	-0.678172	1.153264
C160	C	0.267401	-0.784382	0.517411
C161	C	0.272304	-0.779161	0.445364
C162	C	0.345687	-0.793625	0.386387
C163	C	0.414166	-0.813310	0.399455
C164	C	0.409266	-0.818532	0.471505
C165	C	0.335883	-0.804068	0.530483
H166	H	0.221609	-0.764588	0.435687
H167	H	0.349314	-0.789759	0.333050
H168	H	0.468488	-0.824017	0.355796
H169	H	0.459960	-0.833105	0.481183
H170	H	0.332256	-0.807934	0.583820
H171	H	0.034845	-0.567275	0.532897
C172	C	-0.116153	-0.695810	0.812674
C173	C	-0.175132	-0.622400	0.798233
C174	C	-0.248516	-0.607938	0.857210
C175	C	-0.262921	-0.666885	0.930627
C176	C	-0.203941	-0.740299	0.945071
C177	C	-0.130557	-0.754762	0.886095
H178	H	-0.164469	-0.578760	0.743883
H179	H	-0.292177	-0.553591	0.846517
H180	H	-0.317245	-0.656179	0.974285
H181	H	-0.214604	-0.783940	0.999422
H182	H	-0.086896	-0.809108	0.896787
H183	H	0.631977	-0.872492	0.837399
C184	C	-0.116079	-0.183992	0.812849
C185	C	-0.130369	-0.183981	0.886208
C186	C	-0.203714	-0.183979	0.945266
C187	C	-0.262769	-0.183988	0.930965
C188	C	-0.248480	-0.183999	0.857603
C189	C	-0.175135	-0.184001	0.798545
H190	H	-0.086652	-0.183974	0.896798
H191	H	-0.214292	-0.183971	0.999573
H192	H	-0.317064	-0.183986	0.974683
H193	H	-0.292198	-0.184005	0.847013
H194	H	-0.164558	-0.184009	0.744238
H195	H	0.116656	-0.183968	0.796904
C196	C	-0.071275	-0.784826	1.220829
C197	C	-0.056598	-0.858285	1.220767
C198	C	-0.115390	-0.872899	1.220664
C199	C	-0.188859	-0.814054	1.220623
C200	C	-0.203539	-0.740590	1.220685
C201	C	-0.144747	-0.725976	1.220788
H202	H	-0.002209	-0.901849	1.220797
H203	H	-0.104522	-0.927282	1.220619
H204	H	-0.232380	-0.824872	1.220547
H205	H	-0.257928	-0.697025	1.220655
H206	H	-0.155615	-0.671593	1.220833
C207	C	0.451012	-0.807222	0.773737
C208	C	0.409787	-0.860210	0.812943
C209	C	0.451052	-0.940698	0.824632
C210	C	0.533541	-0.968200	0.797114
C211	C	0.574771	-0.915211	0.757905
C212	C	0.533506	-0.834723	0.746216
H213	H	0.348719	-0.839852	0.833316
H214	H	0.420530	-0.979923	0.853657
H215	H	0.564088	-1.027782	0.805766
H216	H	0.635838	-0.935569	0.737532
H217	H	0.564027	-0.795497	0.717191
C218	C	0.631537	-0.592093	0.473079
C219	C	0.631478	-0.518710	0.458776
C220	C	0.631383	-0.459641	0.385433
C221	C	0.631346	-0.473955	0.326393
C222	C	0.631406	-0.547341	0.340695
C223	C	0.631501	-0.606410	0.414038
H224	H	0.631505	-0.508111	0.502482
H225	H	0.631339	-0.405316	0.374846
H226	H	0.631276	-0.430229	0.272100
H227	H	0.631379	-0.557940	0.296988
H228	H	0.631545	-0.660735	0.424624
H229	H	0.631832	-0.871926	0.623751
H230	H	0.296108	-0.686456	0.893383
C231	C	0.631723	-0.592728	0.709575
C232	C	0.631788	-0.607396	0.783038
C233	C	0.631766	-0.548565	0.797707
C234	C	0.631678	-0.475065	0.738912
C235	C	0.631612	-0.460393	0.665444
C236	C	0.631634	-0.519224	0.650776
H237	H	0.631854	-0.661809	0.826566
H238	H	0.631814	-0.559427	0.852093
H239	H	0.631661	-0.431514	0.749771
H240	H	0.631546	-0.405980	0.621917
H241	H	0.631586	-0.508363	0.596390
H242	H	0.073825	-0.575337	0.829731
H243	H	0.250621	-0.731757	0.673222
C244	C	0.007385	-0.615504	0.789551
C245	C	-0.026612	-0.674792	0.831286
C246	C	-0.107717	-0.654865	0.851224
C247	C	-0.154825	-0.575650	0.829427
C248	C	-0.120829	-0.516357	0.787690
C249	C	-0.039724	-0.536283	0.767751
H250	H	0.008261	-0.733437	0.847423
H251	H	-0.132883	-0.698759	0.882121
H252	H	-0.214864	-0.560899	0.844187
H253	H	-0.155702	-0.457712	0.771552
H254	H	-0.014558	-0.492390	0.736854
C255	C	0.450945	-0.552406	0.676577
C256	C	0.502526	-0.560824	0.707018
C257	C	0.543754	-0.507835	0.667810
C258	C	0.533401	-0.446428	0.598160
C259	C	0.481817	-0.438008	0.567715
C260	C	0.440589	-0.490996	0.606923
H261	H	0.510193	-0.606283	0.758580
H262	H	0.581940	-0.514069	0.690347
H263	H	0.563920	-0.407203	0.569136
H264	H	0.474151	-0.392549	0.516153
H265	H	0.402404	-0.484763	0.584386
C266	C	0.293524	-0.754717	0.826273
C267	C	0.242007	-0.762138	0.903838
C268	C	0.200777	-0.815125	0.943044
C269	C	0.211064	-0.860689	0.904685
C270	C	0.262583	-0.853269	0.827116
C271	C	0.303813	-0.800283	0.787910
H272	H	0.234390	-0.728407	0.932238
H273	H	0.162639	-0.820617	1.000466
H274	H	0.180543	-0.899913	0.933708
H275	H	0.270200	-0.887000	0.798717
H276	H	0.341951	-0.794790	0.730488
H277	H	0.304191	-0.520811	0.732143
C278	C	0.252700	-0.522286	0.649131
C279	C	0.272571	-0.481024	0.568031
C280	C	0.319975	-0.522261	0.514403
C281	C	0.347510	-0.604758	0.541875
C282	C	0.327640	-0.646024	0.622979
C283	C	0.280235	-0.604788	0.676607
H284	H	0.252187	-0.419951	0.547691
H285	H	0.334684	-0.491712	0.454364
H286	H	0.382602	-0.635284	0.502176
H287	H	0.348023	-0.707098	0.643319
H288	H	0.265526	-0.635336	0.736646
H289	H	0.295996	-0.686402	0.718551
H290	H	0.194981	-0.375507	0.617742
H291	H	0.129402	-0.511613	0.885274
C292	C	0.071707	-0.364830	0.853884
C293	C	0.051846	-0.406088	0.934985
C294	C	0.004457	-0.364849	0.988611
C295	C	-0.023072	-0.282352	0.961136
C296	C	-0.003211	-0.241089	0.880031
C297	C	0.044179	-0.282328	0.826406
H298	H	0.072225	-0.467162	0.955327
H299	H	-0.010245	-0.395396	1.048650
H300	H	-0.058152	-0.251824	1.000833
H301	H	-0.023590	-0.180015	0.859689
H302	H	0.058881	-0.251781	0.766366
