data_functionalizedCrystal
_audit_creation_method	'MofGen! by Chris Wilmer'
_symmetry_space_group_name_H-M	'P1'
_symmetry_Int_Tables_number	1
_symmetry_cell_setting	triclinic
loop_
_symmetry_equiv_pos_as_xyz
  x,y,z
_cell_length_a	18.101398
_cell_length_b	18.101395
_cell_length_c	12.759387
_cell_angle_alpha	89.966033
_cell_angle_beta	89.983453
_cell_angle_gamma	90.029256
loop_
_atom_site_label
_atom_site_type_symbol
_atom_site_fract_x
_atom_site_fract_y
_atom_site_fract_z
Zn1	Zn	1.132137	-0.294819	-0.593927
Zn2	Zn	1.132028	-0.418681	-0.418241
Zn3	Zn	1.008291	-0.294854	-0.418271
Zn4	Zn	1.008247	-0.418619	-0.593887
O5	O	1.070176	-0.356743	-0.506081
O6	O	1.235756	-0.311261	-0.570626
O7	O	1.115587	-0.402296	-0.271224
O8	O	1.024784	-0.191217	-0.441601
O9	O	1.235675	-0.402262	-0.441550
O10	O	1.115773	-0.191190	-0.570655
O11	O	1.024678	-0.311321	-0.271245
O12	O	0.904652	-0.311261	-0.441562
O13	O	1.024708	-0.402155	-0.740914
O14	O	0.904620	-0.402190	-0.570587
O15	O	1.115730	-0.311200	-0.740943
O16	O	1.115544	-0.522306	-0.441512
O17	O	1.024602	-0.522260	-0.570558
C18	C	0.877765	-0.356723	-0.506074
C19	C	0.795451	-0.356732	-0.506096
C20	C	0.644743	-0.356746	-0.506094
C21	C	0.613393	-0.414044	-0.587147
C22	C	0.527775	-0.414276	-0.586907
C23	C	0.496360	-0.356759	-0.506094
C24	C	0.527410	-0.377596	-0.395237
C25	C	0.613055	-0.378004	-0.395706
C26	C	0.613222	-0.278469	-0.534930
C27	C	0.527572	-0.278898	-0.537372
C28	C	0.412501	-0.356766	-0.506088
C29	C	0.728602	-0.356741	-0.506093
C30	C	1.070077	-0.549154	-0.506050
C31	C	1.070102	-0.631468	-0.506072
C32	C	1.070265	-0.930559	-0.506129
C33	C	1.013179	-0.899236	-0.587523
C34	C	1.012908	-0.813618	-0.587268
C35	C	1.070184	-0.782176	-0.506102
C36	C	1.049052	-0.813336	-0.395378
C37	C	1.048684	-0.898981	-0.395865
C38	C	1.148607	-0.898903	-0.534485
C39	C	1.148146	-0.813251	-0.536913
C40	C	1.070140	-0.698317	-0.506080
C41	C	1.070307	-1.014418	-0.506144
C42	C	1.263338	-0.356764	-0.506089
C43	C	1.345652	-0.356773	-0.506093
C44	C	1.070226	-0.356667	-0.780115
C45	C	1.070247	-0.356634	-0.896892
C46	C	1.070295	-0.163581	-0.506135
C47	C	1.070346	-0.081267	-0.506158
C48	C	0.975590	-0.261895	-0.896933
C49	C	0.928275	-0.214511	-0.951815
C50	C	0.928297	-0.214484	-1.061536
C51	C	0.975638	-0.261848	-1.116379
C52	C	1.022953	-0.309233	-1.061498
C53	C	1.022927	-0.309253	-0.951773
C54	C	1.117606	-0.403974	-1.061456
C55	C	1.117588	-0.403998	-0.951734
C56	C	1.164947	-0.451338	-1.116299
C57	C	1.212267	-0.498720	-1.061417
C58	C	1.212243	-0.498744	-0.951689
C59	C	1.164903	-0.451383	-0.896853
C60	C	1.070168	-0.356766	-0.233114
C61	C	1.070290	-0.356590	-0.116338
H62	H	0.634016	-0.401196	-0.669588
H63	H	0.634881	-0.471718	-0.568248
H64	H	1.026270	-0.919777	-0.669890
C65	C	0.876195	-0.162421	-0.891492
H66	H	0.848013	-0.134205	-0.939893
H67	H	0.904529	-0.130167	-0.848694
H68	H	0.843897	-0.190765	-0.848687
H69	H	0.975645	-0.261829	-1.205720
C70	C	1.164753	-0.451533	-1.236988
H71	H	1.199652	-0.486597	-1.261787
H72	H	1.177533	-0.403809	-1.262159
H73	H	1.116890	-0.464395	-1.261476
H74	H	0.954839	-0.793194	-0.568486
H75	H	1.164882	-0.451395	-0.807512
C76	C	0.971320	-0.926062	-0.363425
H77	H	0.940411	-0.884721	-0.350079
H78	H	0.975109	-0.955320	-0.301833
H79	H	0.950704	-0.954841	-0.418369
H80	H	0.506782	-0.401277	-0.669092
H81	H	1.088458	-0.919705	-0.333152
H82	H	1.026130	-0.792547	-0.669370
H83	H	1.250805	-0.537283	-1.106079
C84	C	0.972503	-0.784461	-0.362348
H85	H	0.953320	-0.753426	-0.415878
H86	H	0.976931	-0.757133	-0.299123
H87	H	0.940024	-0.825019	-0.351688
C88	C	0.935207	-0.928386	-0.562469
H89	H	0.937292	-0.959561	-0.502619
H90	H	0.917014	-0.955625	-0.620614
H91	H	0.903215	-0.887951	-0.548695
C92	C	1.174634	-0.927998	-0.641699
H93	H	1.137959	-0.959726	-0.670174
H94	H	1.219437	-0.954634	-0.633191
H95	H	1.182543	-0.887577	-0.687889
C96	C	1.103445	-0.785824	-0.311212
H97	H	1.139611	-0.755014	-0.342928
H98	H	1.126990	-0.826938	-0.279202
H99	H	1.077291	-0.758532	-0.259589
C100	C	0.498693	-0.218175	-0.463504
H101	H	0.518423	-0.171769	-0.484241
H102	H	0.513534	-0.228806	-0.393704
H103	H	0.446297	-0.216481	-0.467007
H104	H	0.889768	-0.175901	-1.106221
C105	C	0.500165	-0.257655	-0.647582
H106	H	0.519236	-0.210506	-0.666058
H107	H	0.447714	-0.255996	-0.647836
H108	H	0.516650	-0.293359	-0.696853
H109	H	1.164082	-0.792882	-0.618400
H110	H	1.192928	-0.791845	-0.481950
C111	C	1.206047	-0.926193	-0.454331
H112	H	1.182443	-0.956739	-0.403837
H113	H	1.227876	-0.884964	-0.420250
H114	H	1.243246	-0.953705	-0.489437
C115	C	1.264287	-0.550868	-0.891322
H116	H	1.257493	-0.544106	-0.818120
H117	H	1.314057	-0.540041	-0.909310
H118	H	1.253408	-0.600622	-0.909286
C119	C	0.500045	-0.492634	-0.561051
H120	H	0.541124	-0.524447	-0.550643
H121	H	0.470906	-0.510568	-0.617482
H122	H	0.471007	-0.491231	-0.499052
H123	H	0.633793	-0.338054	-0.333243
C124	C	0.639998	-0.455289	-0.362794
H125	H	0.598602	-0.486141	-0.349268
H126	H	0.669218	-0.451341	-0.301220
H127	H	0.668786	-0.476071	-0.417607
H128	H	0.975573	-0.261906	-0.807592
H129	H	0.505930	-0.434182	-0.370451
C130	C	0.499918	-0.322955	-0.311408
H131	H	0.469183	-0.286865	-0.343348
H132	H	0.541043	-0.299340	-0.279532
H133	H	0.472551	-0.348954	-0.259632
H134	H	0.634850	-0.259434	-0.614405
H135	H	0.633498	-0.235782	-0.475901
