data_functionalizedCrystal
_audit_creation_method	'MofGen! by Chris Wilmer'
_symmetry_space_group_name_H-M	'P1'
_symmetry_Int_Tables_number	1
_symmetry_cell_setting	triclinic
loop_
_symmetry_equiv_pos_as_xyz
  x,y,z
_cell_length_a	23.532407
_cell_length_b	17.699083
_cell_length_c	16.776229
_cell_angle_alpha	90.007545
_cell_angle_beta	90.001810
_cell_angle_gamma	83.065846
loop_
_atom_site_label
_atom_site_type_symbol
_atom_site_fract_x
_atom_site_fract_y
_atom_site_fract_z
O1	O	-0.755525	-0.091879	-0.066190
O2	O	-0.255525	0.408121	0.433810
O3	O	-0.589700	-0.105173	-0.066214
O4	O	-0.089700	0.394827	0.433786
O5	O	-0.677298	0.011687	-0.066194
O6	O	-0.177298	0.511687	0.433806
O7	O	-0.667928	-0.208739	-0.066210
O8	O	-0.167928	0.291261	0.433790
O9	O	-0.677286	0.011694	0.066382
O10	O	-0.177286	0.511694	0.566382
O11	O	-0.589689	-0.105166	0.066363
O12	O	-0.089689	0.394834	0.566363
O13	O	-0.755514	-0.091872	0.066386
O14	O	-0.255514	0.408128	0.566386
Zn15	Zn	-0.672599	-0.098518	0.087424
Zn16	Zn	-0.172599	0.401482	0.587424
Zn17	Zn	-0.672615	-0.098527	-0.087252
Zn18	Zn	-0.172615	0.401473	0.412748
O19	O	-0.667916	-0.208732	0.066367
O20	O	-0.167916	0.291268	0.566367
C21	C	-0.568478	-0.104831	0.000071
C22	C	-0.068478	0.395169	0.500071
C23	C	-0.505258	-0.103813	0.000063
C24	C	-0.005258	0.396187	0.500063
C25	C	-0.676956	0.039886	0.000094
C26	C	-0.176956	0.539886	0.500094
C27	C	-0.675949	0.123899	0.000094
C28	C	-0.175949	0.623899	0.500094
C29	C	-0.776737	-0.092214	0.000099
C30	C	-0.276737	0.407786	0.500099
C31	C	-0.839957	-0.093232	0.000103
C32	C	-0.339957	0.406768	0.500103
C33	C	-0.106335	-0.166585	0.000094
C34	C	0.393665	0.333415	0.500094
C35	C	-0.046932	-0.165639	0.000099
C36	C	0.453068	0.334361	0.500099
O37	O	-0.010354	-0.223829	0.000124
O38	O	0.489646	0.276171	0.500124
N39	N	-0.024106	-0.096166	0.000103
N40	N	0.475894	0.403834	0.500103
C41	C	-0.060687	-0.027634	0.000109
C42	C	0.439313	0.472366	0.500109
O43	O	-0.035817	0.031545	0.000114
O44	O	0.464183	0.531545	0.500114
C45	C	-0.120089	-0.028580	0.000110
C46	C	0.379911	0.471420	0.500110
C47	C	-0.142911	-0.098058	0.000099
C48	C	0.357089	0.401942	0.500099
C49	C	-0.129158	-0.236057	0.000084
C50	C	0.370842	0.263943	0.500084
C51	C	-0.188557	-0.237002	0.000077
C52	C	0.311443	0.262998	0.500077
C53	C	-0.225133	-0.168475	0.000081
C54	C	0.274867	0.331525	0.500081
C55	C	-0.202310	-0.099003	0.000092
C56	C	0.297690	0.400997	0.500092
C57	C	-0.156668	0.039951	0.000123
C58	C	0.343332	0.539951	0.500123
C59	C	-0.216073	0.038999	0.000124
C60	C	0.283927	0.538999	0.500124
C61	C	-0.238896	-0.030479	0.000112
C62	C	0.261104	0.469521	0.500112
C63	C	-0.298285	-0.031421	0.000090
C64	C	0.201715	0.468579	0.500090
N65	N	-0.321110	-0.100894	0.000086
N66	N	0.178890	0.399106	0.500086
C67	C	-0.284534	-0.169421	0.000082
C68	C	0.215466	0.330579	0.500082
C69	C	0.064061	-0.025652	0.000109
C70	C	0.564061	0.474348	0.500109
C71	C	0.123462	-0.024705	0.000103
C72	C	0.623462	0.475295	0.500103
C73	C	0.137213	-0.162710	0.000094
C74	C	0.637213	0.337290	0.500094
C75	C	0.077811	-0.163657	0.000095
C76	C	0.577811	0.336343	0.500095
C77	C	0.041236	-0.095125	0.000106
C78	C	0.541236	0.404875	0.500106
C79	C	-0.409277	-0.171401	0.000068
C80	C	0.090723	0.328599	0.500068
C81	C	-0.468682	-0.172340	0.000058
C82	C	0.031318	0.327660	0.500058
C83	C	-0.482427	-0.034335	0.000071
C84	C	0.017573	0.465665	0.500071
C85	C	-0.423028	-0.033395	0.000077
C86	C	0.076972	0.466605	0.500077
C87	C	-0.386453	-0.101935	0.000078
C88	C	0.113547	0.398065	0.500078
O89	O	-0.334897	0.026738	0.000068
O90	O	0.165103	0.526738	0.500068
O91	O	-0.309412	-0.228591	0.000088
O92	O	0.190588	0.271409	0.500088
C93	C	-0.668258	-0.236931	0.000077
C94	C	-0.168258	0.263069	0.500077
C95	C	-0.669265	-0.320944	0.000071
C96	C	-0.169265	0.179056	0.500071
N97	N	-0.672593	-0.098511	0.206635
N98	N	-0.172593	0.401489	0.706635
C99	C	-0.727367	0.172781	0.000102
C100	C	-0.227367	0.672781	0.500102
C101	C	-0.726417	0.251719	0.000095
C102	C	-0.226417	0.751719	0.500095
C103	C	-0.674049	0.281774	0.000085
C104	C	-0.174049	0.781774	0.500085
C105	C	-0.622627	0.232886	0.000074
C106	C	-0.122627	0.732886	0.500074
C107	C	-0.623577	0.153949	0.000076
C108	C	-0.123577	0.653949	0.500076
C109	C	-0.618793	0.551230	0.000067
C110	C	-0.118793	1.051230	0.500067
C111	C	-0.617847	0.630173	0.000068
C112	C	-0.117847	1.130173	0.500068
C113	C	-0.721633	0.649000	0.000087
C114	C	-0.221633	1.149000	0.500087
C115	C	-0.722583	0.570063	0.000088
C116	C	-0.222583	1.070063	0.500088
C117	C	-0.671162	0.521181	0.000073
C118	C	-0.171162	1.021181	0.500073
C119	C	-0.672192	0.435587	0.000079
C120	C	-0.172192	0.935587	0.500079
C121	C	-0.673018	0.367366	0.000085
C122	C	-0.173018	0.867366	0.500085
N123	N	-0.672626	-0.098528	-0.206463
N124	N	-0.172626	0.401472	0.293537
C125	C	-0.711393	-0.046787	0.248361
C126	C	-0.211393	0.453213	0.748361
C127	C	-0.711396	-0.046786	0.331813
C128	C	-0.211396	0.453214	0.831813
C129	C	-0.672602	-0.098514	0.373538
C130	C	-0.172602	0.401486	0.873538
C131	C	-0.633798	-0.150241	0.331806
C132	C	-0.133798	0.349759	0.831806
C133	C	-0.633792	-0.150237	0.248356
C134	C	-0.133792	0.349763	0.748356
C135	C	-0.633818	-0.150256	0.668353
C136	C	-0.133818	0.349744	1.168353
C137	C	-0.633828	-0.150257	0.751810
C138	C	-0.133828	0.349743	1.251810
C139	C	-0.711422	-0.046804	0.751811
C140	C	-0.211422	0.453196	1.251811
C141	C	-0.711417	-0.046801	0.668360
C142	C	-0.211417	0.453199	1.168360
C143	C	-0.672611	-0.098525	0.626636
C144	C	-0.172611	0.401475	1.126636
C145	C	-0.672607	-0.098524	0.536147
C146	C	-0.172607	0.401476	1.036147
C147	C	-0.672608	-0.098519	0.464025
C148	C	-0.172608	0.401481	0.964025
H149	H	-0.487260	-0.228920	0.000048
H150	H	0.012740	0.271080	0.500048
H151	H	-0.576922	0.511439	0.000055
H152	H	-0.076922	1.011439	0.500055
H153	H	-0.579988	0.257363	0.000061
H154	H	-0.079988	0.757363	0.500061
H155	H	-0.742990	-0.004667	0.365786
H156	H	-0.242990	0.495333	0.865786
H157	H	-0.602222	-0.192373	0.634388
H158	H	-0.102222	0.307627	1.134388
H159	H	-0.512218	0.021458	0.000072
H160	H	-0.012218	0.521458	0.500072
H161	H	-0.768287	0.291516	0.000104
H162	H	-0.268287	0.791516	0.500104
H163	H	-0.742986	-0.004667	0.214394
H164	H	-0.242986	0.495333	0.714394
H165	H	-0.581708	0.114149	0.000069
H166	H	-0.081708	0.614149	0.500069
H167	H	-0.743009	-0.004681	0.634390
H168	H	-0.243009	0.495319	1.134390
H169	H	0.034284	0.030159	0.000111
H170	H	0.534284	0.530159	0.500111
H171	H	-0.575200	0.654640	0.000062
H172	H	-0.075200	1.154640	0.500062
H173	H	-0.379504	-0.227212	0.000071
H174	H	0.120496	0.272788	0.500071
H175	H	-0.743019	-0.004685	0.785792
H176	H	-0.243019	0.495315	1.285792
H177	H	0.059234	-0.220231	0.000090
H178	H	0.559234	0.279769	0.500090
H179	H	-0.602197	-0.192356	0.214383
H180	H	-0.102197	0.307644	0.714383
H181	H	-0.602235	-0.192382	0.785781
H182	H	-0.102235	0.307618	1.285781
H183	H	-0.602208	-0.192357	0.365784
H184	H	-0.102208	0.307643	0.865784
H185	H	-0.207132	-0.293578	0.000067
H186	H	0.292868	0.206422	0.500067
H187	H	-0.770011	0.148316	0.000115
H188	H	-0.270011	0.648316	0.500115
H189	H	-0.099383	-0.291863	0.000083
H190	H	0.400617	0.208137	0.500083
H191	H	-0.245851	0.094807	0.000133
H192	H	0.254149	0.594807	0.500133
H193	H	0.167004	-0.218509	0.000094
H194	H	0.667004	0.281491	0.500094
H195	H	0.142038	0.031871	0.000100
H196	H	0.642038	0.531871	0.500100
H197	H	-0.404445	0.023179	0.000074
H198	H	0.095555	0.523179	0.500074
H199	H	-0.765227	0.545597	0.000100
H200	H	-0.265227	1.045597	0.500100
H201	H	-0.138097	0.096527	0.000133
H202	H	0.361903	0.596527	0.500133
H203	H	-0.763503	0.688809	0.000095
H204	H	-0.263503	1.188809	0.500095
