data_functionalizedCrystal
_audit_creation_method	'MofGen! by Chris Wilmer'
_symmetry_space_group_name_H-M	'P1'
_symmetry_Int_Tables_number	1
_symmetry_cell_setting	triclinic
loop_
_symmetry_equiv_pos_as_xyz
  x,y,z
_cell_length_a	6.817900
_cell_length_b	11.168130
_cell_length_c	13.563497
_cell_angle_alpha	107.740676
_cell_angle_beta	104.703674
_cell_angle_gamma	108.508653
loop_
_atom_site_label
_atom_site_type_symbol
_atom_site_fract_x
_atom_site_fract_y
_atom_site_fract_z
V1	V	-4.142663	-0.295309	-0.346184
O2	O	-4.101622	-0.109910	-0.339585
O3	O	-4.118728	-0.466193	-0.343826
O4	O	-4.133250	-0.345220	-0.497164
O5	O	-4.087000	-0.231720	-0.185186
V6	V	-4.618069	-0.266699	-0.326927
O7	O	-4.421727	-0.358067	-0.388428
O8	O	-4.789203	-0.203941	-0.284683
O9	O	-4.418798	-0.095816	-0.329286
O10	O	-4.776507	-0.452098	-0.333526
O11	O	-4.791130	-0.330288	-0.487925
O12	O	-4.404276	-0.216788	-0.175948
C13	C	-3.968419	-0.506149	-0.338367
C14	C	-4.030396	-0.646199	-0.337444
C15	C	-3.986942	-0.351835	-0.533963
C16	C	-4.060691	-0.393773	-0.657389
C17	C	-4.123990	-0.759437	-0.433661
C18	C	-4.188048	-0.904187	-0.432710
C19	C	-4.156620	-0.534644	-0.731232
C20	C	-4.225932	-0.574059	-0.847199
C21	C	-4.199306	-0.472605	-0.889334
C22	C	-4.103361	-0.331730	-0.815490
C23	C	-4.034058	-0.292313	-0.699512
C24	C	-4.076744	-0.230274	-0.857614
C25	C	-3.980799	-0.089399	-0.783770
C26	C	-3.911503	-0.049988	-0.667804
C27	C	-3.938129	-0.151441	-0.625670
C28	C	-4.146046	-0.269691	-0.973592
C29	C	-4.023485	-0.027359	-0.941872
C30	C	-3.954173	0.012055	-0.825905
C31	C	-4.232449	-0.055865	-0.334742
C32	C	-4.149713	0.084181	-0.335671
C33	C	-4.213925	-0.210176	-0.139142
C34	C	-4.119413	-0.168231	-0.015715
H35	H	-4.156685	-0.749221	-0.516739
O36	O	-4.054255	-0.799800	-0.237472
C37	C	-4.083409	-0.597098	-0.125836
C38	C	-4.191737	-0.728438	-0.237104
H39	H	-4.194539	-0.539380	-0.125492
H40	H	-3.911120	-0.526337	-0.116961
H41	H	-4.064435	-0.628403	-0.052641
H42	H	-4.210867	-0.697259	-0.310364
H43	H	-4.363956	-0.799165	-0.245880
H44	H	-4.178304	-0.617233	-0.696914
H45	H	-4.268290	-1.001375	-0.515083
H46	H	-4.001807	0.055253	-0.976177
H47	H	-3.997676	-0.656414	-0.254365
O48	O	-3.870593	-0.112910	-0.512982
C49	C	-3.704023	0.076606	-0.329157
C50	C	-3.780359	0.033169	-0.456748
H51	H	-3.631095	0.194711	-0.283656
H52	H	-3.570592	0.040066	-0.300290
H53	H	-3.854040	0.027175	-0.309076
H54	H	-3.630486	0.082583	-0.476925
H55	H	-3.913861	0.069686	-0.485549
H56	H	-4.224157	-0.384392	-1.033705
H57	H	-3.833406	0.064720	-0.607683
O58	O	-4.266649	-0.511122	-1.002011
C59	C	-4.433465	-0.700655	-1.185840
C60	C	-4.357256	-0.657218	-1.058253
H61	H	-4.506781	-0.818777	-1.231350
H62	H	-4.283498	-0.651407	-1.206023
H63	H	-4.566687	-0.663927	-1.214604
H64	H	-4.224083	-0.693937	-1.029399
H65	H	-4.507339	-0.706451	-1.038141
O66	O	-4.318977	-0.710949	-0.918766
C67	C	-4.433330	-0.947152	-0.937985
C68	C	-4.327879	-0.792163	-0.856807
H69	H	-4.440604	-1.012859	-0.887925
H70	H	-4.327170	-0.965386	-0.988712
H71	H	-4.610446	-0.977956	-0.997435
H72	H	-4.150777	-0.761253	-0.797289
H73	H	-4.434202	-0.774013	-0.806161
O74	O	-3.860941	0.148961	-0.754323
C75	C	-3.746816	0.385160	-0.735094
C76	C	-3.852383	0.230169	-0.816285
H77	H	-3.739906	0.450859	-0.785159
H78	H	-3.569588	0.416104	-0.675683
H79	H	-3.852956	0.403249	-0.684326
H80	H	-3.746421	0.211966	-0.867128
H81	H	-4.029634	0.199300	-0.875621
