data_functionalizedCrystal
_audit_creation_method	'MofGen! by Chris Wilmer'
_symmetry_space_group_name_H-M	'P1'
_symmetry_Int_Tables_number	1
_symmetry_cell_setting	triclinic
loop_
_symmetry_equiv_pos_as_xyz
  x,y,z
_cell_length_a	12.827893
_cell_length_b	16.120444
_cell_length_c	12.827885
_cell_angle_alpha	87.135329
_cell_angle_beta	90.019272
_cell_angle_gamma	92.926656
loop_
_atom_site_label
_atom_site_type_symbol
_atom_site_fract_x
_atom_site_fract_y
_atom_site_fract_z
Zn1	Zn	1.576496	-0.331863	0.611900
Zn2	Zn	1.567494	-0.471299	0.446006
Zn3	Zn	1.401735	-0.331905	0.437177
Zn4	Zn	1.392831	-0.471238	0.620702
O5	O	1.484639	-0.401576	0.528946
O6	O	1.721538	-0.350369	0.589906
O7	O	1.545465	-0.452851	0.298601
O8	O	1.432411	-0.215233	0.452976
O9	O	1.714924	-0.452811	0.468024
O10	O	1.560808	-0.215203	0.581344
O11	O	1.423683	-0.350438	0.292114
O12	O	1.254319	-0.350379	0.461510
O13	O	1.417235	-0.452706	0.765768
O14	O	1.247777	-0.452746	0.596345
O15	O	1.552174	-0.350309	0.759301
O16	O	1.536831	-0.587957	0.476558
O17	O	1.408506	-0.587912	0.604907
C18	C	1.213130	-0.401561	0.528925
C19	C	1.096976	-0.401574	0.528942
C20	C	0.921879	-0.452201	0.468561
C21	C	1.041930	-0.452188	0.468542
C22	C	1.470754	-0.618184	0.542668
C23	C	1.464909	-0.710850	0.548574
C24	C	1.515214	-0.921795	0.498537
C25	C	1.454258	-0.880507	0.559366
C26	C	1.460186	-0.786101	0.553359
C27	C	1.509287	-1.016209	0.504542
C28	C	1.757208	-0.401592	0.528968
C29	C	1.873361	-0.401599	0.528977
C30	C	1.484715	-0.401496	0.801511
C31	C	1.484748	-0.401462	0.917663
C32	C	1.498607	-0.184122	0.515193
C33	C	1.504559	-0.091456	0.509333
C34	C	1.484627	-0.401596	0.257438
C35	C	1.484812	-0.401395	0.141272
C36	C	1.551527	-0.350783	0.966247
C37	C	1.551562	-0.350746	1.086295
H38	H	1.055246	-0.358253	0.580673
O39	O	1.619565	-0.299012	0.909732
C40	C	1.563453	-0.245211	0.843208
H41	H	1.482347	-0.274623	0.828822
H42	H	1.555998	-0.183382	0.881294
C43	C	1.721404	-0.194107	0.756193
C44	C	1.621792	-0.230235	0.738517
H45	H	1.757391	-0.184865	0.691617
H46	H	1.759209	-0.230351	0.801015
H47	H	1.715178	-0.142587	0.787935
H48	H	1.628019	-0.281758	0.706789
H49	H	1.583989	-0.193999	0.693688
O50	O	1.091546	-0.503954	0.406804
C51	C	1.017048	-0.551001	0.350628
H52	H	0.939044	-0.553991	0.393554
H53	H	1.007399	-0.520406	0.269377
C54	C	1.149877	-0.636011	0.288314
C55	C	1.054074	-0.639689	0.341041
H56	H	1.172718	-0.690717	0.282395
H57	H	1.200069	-0.604313	0.326157
H58	H	1.141824	-0.610511	0.220610
H59	H	1.062131	-0.665179	0.408748
H60	H	1.003884	-0.671394	0.303209
O61	O	1.582683	-0.879260	0.431049
C62	C	1.573659	-0.793105	0.440015
H63	H	1.493718	-0.781363	0.473446
H64	H	1.637143	-0.768306	0.494167
C65	C	1.684214	-0.762779	0.290438
C66	C	1.586026	-0.748356	0.331490
H67	H	1.691847	-0.735174	0.223496
H68	H	1.690298	-0.820823	0.284399
H69	H	1.737107	-0.742113	0.335574
H70	H	1.533135	-0.769031	0.286361
H71	H	1.579933	-0.690315	0.337519
O72	O	1.386542	-0.922824	0.626815
C73	C	1.283702	-0.901729	0.602540
H74	H	1.285454	-0.838504	0.558426
H75	H	1.245522	-0.950774	0.551834
C76	C	1.218420	-0.975495	0.758292
C77	C	1.220572	-0.897838	0.704118
H78	H	1.179476	-0.973098	0.820948
H79	H	1.287705	-0.989711	0.774645
H80	H	1.186605	-1.016358	0.716026
H81	H	1.252398	-0.856979	0.746379
H82	H	1.151291	-0.883615	0.687774
O83	O	0.929710	-0.349944	0.590819
C84	C	0.902015	-0.368262	0.696124
H85	H	0.820694	-0.400264	0.700336
H86	H	0.960692	-0.411197	0.733886
C87	C	1.002230	-0.247740	0.749282
C88	C	0.902346	-0.287039	0.754455
H89	H	1.002439	-0.197638	0.785265
H90	H	1.020892	-0.235399	0.678336
H91	H	1.051117	-0.283527	0.780749
H92	H	0.853464	-0.251256	0.722977
H93	H	0.883676	-0.299371	0.825397
H94	H	1.608738	-0.307360	1.128089
O95	O	1.416745	-0.453204	1.091313
C96	C	1.472829	-0.507040	1.031609
H97	H	1.553923	-0.477633	1.013515
H98	H	1.480312	-0.568842	1.077520
C99	C	1.314837	-0.558207	0.951040
C100	C	1.414435	-0.522085	0.928809
H101	H	1.278815	-0.567491	0.887629
H102	H	1.277050	-0.521939	0.991266
H103	H	1.321087	-0.609704	0.989301
H104	H	1.408183	-0.470584	0.890560
H105	H	1.452219	-0.558345	0.888573
H106	H	0.874540	-0.495529	0.416846
O107	O	1.416427	-0.453107	0.974007
C108	C	1.313410	-0.434926	0.946238
H109	H	1.312371	-0.368354	0.911951
H110	H	1.283146	-0.479689	0.885797
C111	C	1.244445	-0.526288	1.085976
C112	C	1.243167	-0.444521	1.043873
H113	H	1.201113	-0.532210	1.146201
H114	H	1.313848	-0.538540	1.104683
H115	H	1.219226	-0.563581	1.035599
H116	H	1.268397	-0.407230	1.094246
H117	H	1.173765	-0.432263	1.025177
