data_functionalizedCrystal
_audit_creation_method	'MofGen! by Chris Wilmer'
_symmetry_space_group_name_H-M	'P1'
_symmetry_Int_Tables_number	1
_symmetry_cell_setting	triclinic
loop_
_symmetry_equiv_pos_as_xyz
  x,y,z
_cell_length_a	6.817900
_cell_length_b	9.582860
_cell_length_c	14.125465
_cell_angle_alpha	93.994443
_cell_angle_beta	100.398878
_cell_angle_gamma	111.206767
loop_
_atom_site_label
_atom_site_type_symbol
_atom_site_fract_x
_atom_site_fract_y
_atom_site_fract_z
V1	V	-4.031033	-0.205771	-0.299801
V2	V	-3.697700	0.127563	0.033532
V3	V	-3.364367	0.460896	0.366866
O4	O	-3.977344	0.011211	-0.294276
O5	O	-3.644011	0.344544	0.039058
O6	O	-3.310678	0.677878	0.372391
O7	O	-4.022070	-0.409281	-0.297576
O8	O	-3.688736	-0.075948	0.035757
O9	O	-3.355403	0.257385	0.369090
O10	O	-3.966452	-0.202025	-0.430634
O11	O	-3.633119	0.131308	-0.097301
O12	O	-3.299786	0.464641	0.236032
O13	O	-4.033347	-0.197480	-0.160296
O14	O	-3.700013	0.135854	0.173037
O15	O	-3.366680	0.469187	0.506370
V16	V	-4.511648	-0.179886	-0.283136
V17	V	-4.178314	0.153447	0.050197
V18	V	-3.844981	0.486781	0.383530
O19	O	-4.298671	-0.262552	-0.336357
O20	O	-3.965338	0.070782	-0.003023
O21	O	-3.632005	0.404115	0.330310
O22	O	-4.694207	-0.123105	-0.246581
O23	O	-4.360873	0.210228	0.086752
O24	O	-4.027540	0.543562	0.420086
O25	O	-4.297405	0.023625	-0.285361
O26	O	-3.964072	0.356958	0.047972
O27	O	-3.630738	0.690291	0.381305
O28	O	-4.682733	-0.396868	-0.288662
O29	O	-4.349400	-0.063534	0.044671
O30	O	-4.016067	0.269799	0.378005
O31	O	-4.626731	-0.188177	-0.422641
O32	O	-4.293398	0.145156	-0.089308
O33	O	-3.960065	0.478490	0.244025
O34	O	-4.353022	-0.183632	-0.152303
O35	O	-4.019689	0.149702	0.181030
O36	O	-3.686355	0.483035	0.514363
C37	C	-3.877188	-0.458911	-0.292802
C38	C	-3.543854	-0.125577	0.040532
C39	C	-3.210521	0.207756	0.373865
C40	C	-3.951038	-0.625279	-0.291855
C41	C	-3.617704	-0.291946	0.041479
C42	C	-3.284371	0.041387	0.374812
C43	C	-3.806241	-0.194533	-0.462529
C44	C	-3.472908	0.138800	-0.129196
C45	C	-3.139575	0.472133	0.204137
C46	C	-3.834984	-0.192817	-0.569485
C47	C	-3.501650	0.140516	-0.236152
C48	C	-3.168317	0.473849	0.097182
C49	C	-3.887667	-0.189671	-0.765311
C50	C	-3.554333	0.143663	-0.431977
C51	C	-3.221000	0.476996	-0.098644
C52	C	-4.074382	-0.195983	-0.817627
C53	C	-3.741049	0.137350	-0.484293
C54	C	-3.407716	0.470684	-0.150960
C55	C	-4.103698	-0.194232	-0.926591
C56	C	-3.770365	0.139101	-0.593258
C57	C	-3.437031	0.472435	-0.259924
C58	C	-3.858343	-0.191422	-0.656337
C59	C	-3.525010	0.141912	-0.323003
C60	C	-3.191677	0.475245	0.010330
C61	C	-4.105631	0.073246	-0.290133
C62	C	-3.772297	0.406580	0.043200
C63	C	-3.438964	0.739913	0.376533
C64	C	-4.011018	0.239613	-0.291087
C65	C	-3.677685	0.572947	0.042247
C66	C	-3.344352	0.906280	0.375580
C67	C	-4.176577	-0.191128	-0.120403
C68	C	-3.843244	0.142205	0.212930
C69	C	-3.509910	0.475538	0.546264
C70	C	-4.127071	-0.192837	-0.013447
C71	C	-3.793738	0.140497	0.319887
C72	C	-3.460405	0.473830	0.653220
H73	H	-4.212226	-0.202717	-0.780583
H74	H	-3.878892	0.130616	-0.447249
H75	H	-3.545559	0.463950	-0.113916
O76	O	-3.705023	-0.180882	-0.814300
O77	O	-3.371690	0.152451	-0.480966
O78	O	-3.038356	0.485784	-0.147633
H79	H	-3.659915	-0.077401	-0.849701
H80	H	-3.326582	0.255933	-0.516367
H81	H	-2.993248	0.589266	-0.183034
