data_functionalizedCrystal
_audit_creation_method	'MofGen! by Chris Wilmer'
_symmetry_space_group_name_H-M	'P1'
_symmetry_Int_Tables_number	1
_symmetry_cell_setting	triclinic
loop_
_symmetry_equiv_pos_as_xyz
  x,y,z
_cell_length_a	27.440280
_cell_length_b	16.704486
_cell_length_c	16.704493
_cell_angle_alpha	60.347015
_cell_angle_beta	94.167076
_cell_angle_gamma	57.656690
loop_
_atom_site_label
_atom_site_type_symbol
_atom_site_fract_x
_atom_site_fract_y
_atom_site_fract_z
Zr1	Zr	0.419928	0.947464	-0.174225
O2	O	0.327880	1.128084	-0.315557
O3	O	0.454084	0.766858	-0.121780
O4	O	0.438119	0.947462	-0.302385
O5	O	0.349683	0.947476	-0.002861
O6	O	0.518323	0.947445	-0.302367
O7	O	0.343844	0.947479	-0.134953
O8	O	0.546881	0.624377	0.020702
O9	O	0.321125	1.270544	-0.325930
O10	O	0.521332	0.841126	-0.110417
O11	O	0.465834	0.841137	-0.011852
O12	O	0.447038	1.053775	-0.224491
O13	O	0.391540	1.053785	-0.125926
Zr14	Zr	0.557157	0.947433	0.036474
Zr15	Zr	0.547845	0.947437	-0.174197
Zr16	Zr	0.429240	0.947459	0.036445
Zr17	Zr	0.409156	1.174672	-0.190768
Zr18	Zr	0.567929	0.720224	0.053017
O19	O	0.523001	1.128039	-0.015971
O20	O	0.509761	1.128046	-0.315517
O21	O	0.341121	1.128077	-0.016011
O22	O	0.649205	0.766813	0.177806
O23	O	0.635965	0.766820	-0.121740
O24	O	0.467324	0.766851	0.177766
O25	O	0.627402	0.947420	-0.134890
O26	O	0.538966	0.947434	0.164634
O27	O	0.458762	0.947451	0.164616
O28	O	0.633241	0.947417	-0.002799
O29	O	0.422802	1.270523	-0.325908
O30	O	0.554283	0.624373	0.188157
O31	O	0.655960	0.624352	0.188179
O32	O	0.648558	0.624356	0.020724
O33	O	0.328527	1.270540	-0.158475
O34	O	0.430204	1.270519	-0.158453
O35	O	0.530047	0.841122	0.086740
O36	O	0.585545	0.841112	-0.011825
O37	O	0.511251	1.053760	-0.125899
O38	O	0.455753	1.053770	-0.027334
C39	C	0.502017	0.663245	-0.048182
C40	C	0.506591	0.566789	-0.041159
C41	C	0.412931	0.542546	-0.184983
C42	C	0.417225	0.451922	-0.178390
C43	C	0.519474	0.294917	-0.021384
C44	C	0.515180	0.385541	-0.027977
C45	C	0.461907	0.509355	-0.109779
C46	C	0.457611	0.599980	-0.116367
C47	C	0.559862	0.442974	0.040634
C48	C	0.564156	0.352350	0.047227
C49	C	0.328538	0.947482	-0.068911
C50	C	0.274234	0.947493	-0.068923
C51	C	-0.023676	0.836428	-0.009302
C52	C	-0.074694	0.836421	-0.009292
O53	O	-0.068099	0.742020	0.041379
N54	N	-0.138991	0.947420	-0.068839
C55	C	-0.152271	1.058433	-0.128390
O56	O	-0.211646	1.152846	-0.179037
C57	C	-0.101253	1.058439	-0.128393
C58	C	-0.036956	0.947432	-0.068851
C59	C	0.040618	0.725430	0.050236
C60	C	0.091632	0.725438	0.050225
C61	C	0.078352	0.836442	-0.009324
C62	C	0.014058	0.947440	-0.068862
C63	C	-0.114533	1.169450	-0.187937
C64	C	-0.063509	1.169446	-0.187934
C65	C	0.000789	1.058440	-0.128392
C66	C	0.051792	1.058451	-0.128422
N67	N	0.116089	0.947452	-0.068875
C68	C	0.129369	0.836448	-0.009326
C69	C	-0.259408	1.058413	-0.128378
C70	C	-0.310425	1.058409	-0.128382
C71	C	-0.232845	0.836396	-0.009283
C72	C	-0.181827	0.836402	-0.009285
C73	C	-0.195110	0.947414	-0.068832
C74	C	0.236500	0.836471	-0.009354
C75	C	0.287515	0.836488	-0.009374
C76	C	0.209930	1.058500	-0.128469
C77	C	0.158919	1.058484	-0.128454
C78	C	0.172209	0.947459	-0.068889
O79	O	0.045246	1.152805	-0.179063
O80	O	0.188745	0.742051	0.041323
C81	C	0.648547	0.947415	-0.068840
C82	C	0.702851	0.947404	-0.068828
C83	C	0.476894	0.947454	-0.332392
C84	C	0.472941	0.947457	-0.421827
C85	C	0.475068	1.231651	-0.089569
C86	C	0.470495	1.328107	-0.096592
C87	C	0.553902	0.947420	-0.589855
C88	C	0.550190	0.947421	-0.673887
C89	C	0.461809	0.947453	-0.673921
C90	C	0.465521	0.947451	-0.589888
C91	C	0.511568	0.947436	-0.547860
C92	C	0.515277	0.947443	-0.463831
C93	C	0.426899	0.947466	-0.463861
C94	C	0.423187	0.947468	-0.547893
C95	C	0.500191	0.947442	0.194641
C96	C	0.504144	0.947440	0.284076
C97	C	0.662022	0.663212	-0.048147
C98	C	0.720899	0.566745	-0.041112
C99	C	0.513665	0.663239	0.215334
C100	C	0.522192	0.566781	0.311793
C101	C	0.673670	0.663206	0.215370
C102	C	0.736500	0.566736	0.311840
C103	C	0.303416	1.231691	-0.353121
C104	C	0.240585	1.328160	-0.449591
C105	C	0.315064	1.231685	-0.089604
C106	C	0.256187	1.328152	-0.096640
C107	C	0.463420	1.231658	-0.353086
C108	C	0.454893	1.328116	-0.449544
C109	C	0.715029	0.521450	-0.089280
C110	C	0.770344	0.430822	-0.082691
C111	C	0.831529	0.385483	-0.027925
C112	C	0.837397	0.430786	0.020244
C113	C	0.782082	0.521419	0.013648
C114	C	0.559715	0.521476	0.408563
C115	C	0.567724	0.430856	0.499203
C116	C	0.538213	0.385537	0.493071
C117	C	0.500685	0.430851	0.396290
C118	C	0.492673	0.521475	0.305652
C119	C	0.794981	0.521428	0.305694
C120	C	0.854021	0.430798	0.396329
C121	C	0.854579	0.385471	0.493110
C122	C	0.796091	0.430788	0.499254
C123	C	0.737053	0.521423	0.408619
C124	C	0.182104	1.373480	-0.443446
C125	C	0.123063	1.464138	-0.534083
C126	C	0.122505	1.509470	-0.630864
C127	C	0.180992	1.464147	-0.637008
C128	C	0.240031	1.373496	-0.546372
C129	C	0.262055	1.373456	-0.048480
C130	C	0.206738	1.464109	-0.055095
C131	C	0.145553	1.509451	-0.109863
C132	C	0.139686	1.464144	-0.158029
C133	C	0.195002	1.373498	-0.151420
C134	C	0.484413	1.373406	-0.443378
C135	C	0.476414	1.464026	-0.534002
C136	C	0.438891	1.509361	-0.630791
C137	C	0.409371	1.464062	-0.636954
C138	C	0.417374	1.373437	-0.546331
H139	H	0.377345	0.478957	-0.239630
O140	O	0.796705	0.381874	0.603648
H141	H	0.768710	0.457935	0.606680
O142	O	0.356866	0.716757	0.054850
H143	H	0.357526	0.639570	0.096266
H144	H	0.689438	0.558301	0.413638
O145	O	0.649041	0.570353	-0.148369
H146	H	0.627416	0.552957	-0.095167
H147	H	0.598284	0.393971	0.577997
O148	O	0.213081	1.512945	-0.003125
H149	H	0.164340	1.583604	-0.016923
O150	O	0.891189	0.287718	-0.020805
H151	H	0.876823	0.263837	-0.063494
H152	H	0.424322	0.947453	-0.708145
H153	H	0.562853	0.194096	0.045205
O154	O	0.903391	0.381870	0.079322
H155	H	0.940864	0.311227	0.075821
H156	H	0.385698	0.947476	-0.582120
O157	O	0.328043	1.324578	0.010576
H158	H	0.322818	1.371338	0.042932
O159	O	0.621615	0.218809	0.135453
H160	H	0.604355	0.173773	0.180684
O161	O	0.564943	0.947416	-0.418488
H162	H	0.593761	0.947389	-0.461803
H163	H	0.591391	0.947419	-0.555641
O164	O	-0.379771	1.178142	-0.192621
H165	H	-0.413022	1.159503	-0.182626
H166	H	0.765554	0.393947	-0.121917
H167	H	0.786870	0.558286	0.052880
O168	O	-0.112480	0.716674	0.054933
H169	H	-0.084969	0.711358	0.112194
H170	H	0.544742	0.311745	0.566882
O171	O	0.059991	1.512988	-0.527430
H172	H	0.028923	1.612963	-0.570506
H173	H	0.180530	1.501067	-0.715818
O174	O	0.089566	1.178206	-0.192689
H175	H	0.066874	1.183513	-0.141123
O176	O	0.058824	1.607242	-0.728619
H177	H	0.052979	1.689829	-0.778997
O178	O	0.303109	1.324601	-0.553004
H179	H	0.292795	1.371349	-0.635531
H180	H	0.599739	0.415953	0.101875
H181	H	0.392426	0.947485	-0.429661
O182	O	0.054952	0.605690	0.114458
H183	H	0.085761	0.552448	0.197423
H184	H	0.089862	1.501075	-0.202621
H185	H	0.583748	0.558364	0.413576
O186	O	0.400154	0.733522	-0.204592
H187	H	0.417419	0.778556	-0.249809
H188	H	0.794539	0.558320	0.226898
O189	O	0.468878	0.381933	0.389683
H190	H	0.480771	0.311286	0.468974
O191	O	0.452305	0.570168	0.201290
H192	H	0.433175	0.523355	0.212269
H193	H	-0.222039	0.746010	0.039202
H194	H	0.432380	1.583154	-0.704574
H195	H	0.247330	0.746065	0.039150
O196	O	0.182698	1.324602	-0.339066
H197	H	0.132108	1.371370	-0.350038
H198	H	0.100517	1.583261	-0.115237
O199	O	0.188670	1.324625	-0.203355
H200	H	0.136830	1.371381	-0.242536
H201	H	0.901637	0.393909	0.391308
O202	O	0.918259	0.287700	0.590865
H203	H	0.958828	0.263805	0.570322
H204	H	0.584662	0.947405	-0.708076
O205	O	0.524893	1.324505	-0.338988
H206	H	0.544080	1.371221	-0.349942
O207	O	0.368915	1.512924	-0.741341
H208	H	0.318556	1.554221	-0.752924
O209	O	0.508253	1.512879	-0.527344
H210	H	0.535679	1.466139	-0.444814
O211	O	0.385524	1.324605	-0.552987
H212	H	0.358083	1.371372	-0.635519
O213	O	-0.273738	1.178155	-0.192625
H214	H	-0.327021	1.255329	-0.234035
H215	H	0.143982	0.635045	0.098706
O216	O	0.355477	0.676091	-0.273205
H217	H	0.322143	0.683947	-0.324396
O218	O	-0.077808	1.289156	-0.252179
H219	H	-0.103790	1.342427	-0.226354
H220	H	0.199127	1.148877	-0.176955
O221	O	-0.183875	1.289180	-0.252153
H222	H	-0.184526	1.366356	-0.293544
