data_functionalizedCrystal
_audit_creation_method	'MofGen! by Chris Wilmer'
_symmetry_space_group_name_H-M	'P1'
_symmetry_Int_Tables_number	1
_symmetry_cell_setting	triclinic
loop_
_symmetry_equiv_pos_as_xyz
  x,y,z
_cell_length_a	6.394989
_cell_length_b	19.288840
_cell_length_c	17.766277
_cell_angle_alpha	89.983415
_cell_angle_beta	89.996862
_cell_angle_gamma	84.811864
loop_
_atom_site_label
_atom_site_type_symbol
_atom_site_fract_x
_atom_site_fract_y
_atom_site_fract_z
O1	O	0.260296	0.923914	-0.062715
O2	O	0.295498	0.721995	-0.062689
O3	O	-0.026195	0.825820	-0.062703
O4	O	0.581989	0.820088	-0.062701
O5	O	-0.026211	0.825802	0.062485
O6	O	0.295482	0.721976	0.062500
O7	O	0.260280	0.923895	0.062473
Cu8	Cu	0.277880	0.822934	0.073917
Cu9	Cu	0.277899	0.822956	-0.074133
O10	O	0.581973	0.820069	0.062488
C11	C	0.294366	0.696098	-0.000091
C12	C	0.290992	0.618960	-0.000081
N13	N	0.277865	0.822923	0.178048
C14	C	0.289380	0.582751	-0.068323
C15	C	0.286187	0.510273	-0.068333
C16	C	0.284563	0.474008	-0.000096
C17	C	0.286187	0.510226	0.068156
C18	C	0.289402	0.582702	0.068163
C19	C	0.157130	0.363425	0.052172
C20	C	0.153903	0.290950	0.052162
C21	C	0.274658	0.250468	-0.000115
C22	C	0.398614	0.282469	-0.052395
C23	C	0.401829	0.354945	-0.052388
C24	C	0.281079	0.395420	-0.000096
C25	C	0.269586	0.135669	-0.068372
C26	C	0.266406	0.063189	-0.068379
C27	C	0.266385	0.063144	0.068111
C28	C	0.269587	0.135622	0.068116
C29	C	0.271177	0.171881	-0.000128
C30	C	0.659792	0.821212	-0.000110
C31	C	0.895993	0.824676	-0.000113
C32	C	0.261412	0.949792	-0.000126
C33	C	0.264786	1.026929	-0.000141
N34	N	0.277897	0.822972	-0.178263
C35	C	0.135489	0.868913	0.217428
C36	C	0.135479	0.868917	0.296230
C37	C	0.277881	0.822938	0.335648
C38	C	0.420268	0.776939	0.296258
C39	C	0.420260	0.776932	0.217458
C40	C	0.468184	0.815503	0.460487
C41	C	0.468195	0.815515	0.539286
C42	C	0.277906	0.822957	0.578694
C43	C	0.087598	0.830401	0.539294
C44	C	0.087590	0.830393	0.460494
C45	C	0.277905	0.822941	0.421094
C46	C	0.135508	0.868953	0.703521
C47	C	0.135496	0.868952	0.782324
C48	C	0.420303	0.776978	0.782351
C49	C	0.420297	0.776976	0.703549
C50	C	0.277902	0.822967	0.664139
H51	H	0.290675	0.612269	-0.123893
Cl52	Cl	0.707437	0.806162	0.588810
Cl53	Cl	0.599264	0.719113	0.167947
H54	H	0.284877	0.480786	-0.123905
H55	H	0.536211	0.739502	0.328356
Cl56	Cl	0.707435	0.806212	0.410954
Cl57	Cl	-0.043523	0.926738	0.345745
Cl58	Cl	0.291426	0.628224	0.153960
Cl59	Cl	0.550442	0.231584	-0.118118
Cl60	Cl	-0.151643	0.839743	0.410964
H61	H	0.502763	0.380997	-0.094955
H62	H	0.270904	0.165192	-0.123940
H63	H	0.265106	0.033709	-0.123952
H64	H	0.265077	0.033618	0.123671
Cl65	Cl	0.271601	0.181145	0.153911
Cl66	Cl	-0.001875	0.250726	0.117900
Cl67	Cl	-0.151640	0.839762	0.588826
H68	H	0.019545	0.906400	0.814388
H69	H	0.058791	0.396380	0.094747
H70	H	0.019555	0.906400	0.671432
Cl71	Cl	0.284160	0.464636	0.153939
H72	H	0.536241	0.739539	0.814445
H73	H	0.536242	0.739530	0.671483
Cl74	Cl	-0.043529	0.926725	0.167884
