data_functionalizedCrystal
_audit_creation_method	'MofGen! by Chris Wilmer'
_symmetry_space_group_name_H-M	'P1'
_symmetry_Int_Tables_number	1
_symmetry_cell_setting	triclinic
loop_
_symmetry_equiv_pos_as_xyz
  x,y,z
_cell_length_a	18.050591
_cell_length_b	18.050590
_cell_length_c	18.050565
_cell_angle_alpha	89.906981
_cell_angle_beta	89.930112
_cell_angle_gamma	90.004047
loop_
_atom_site_label
_atom_site_type_symbol
_atom_site_fract_x
_atom_site_fract_y
_atom_site_fract_z
Zn1	Zn	1.135756	-0.295199	-0.420082
Zn2	Zn	1.135604	-0.419556	-0.295912
Zn3	Zn	1.011469	-0.295375	-0.295893
Zn4	Zn	1.011567	-0.419343	-0.420048
O5	O	1.073599	-0.357368	-0.357984
O6	O	1.239660	-0.311710	-0.403633
O7	O	1.119033	-0.403246	-0.191985
O8	O	1.027978	-0.191427	-0.312373
O9	O	1.239549	-0.403075	-0.312406
O10	O	1.119291	-0.191298	-0.403614
O11	O	1.027831	-0.312011	-0.191970
O12	O	0.907557	-0.311805	-0.312340
O13	O	1.028145	-0.402712	-0.523978
O14	O	0.907629	-0.402883	-0.403556
O15	O	1.119386	-0.311504	-0.524002
O16	O	1.119128	-0.523452	-0.312373
O17	O	1.027998	-0.523296	-0.403575
C18	C	0.880647	-0.357341	-0.357943
C19	C	0.798101	-0.357347	-0.357943
C20	C	1.073577	-0.550320	-0.357989
C21	C	1.073636	-0.632866	-0.358016
C22	C	1.073793	-0.357065	-0.551690
C23	C	1.073876	-0.356936	-0.634236
C24	C	0.598590	-0.307761	-0.308454
C25	C	0.549178	-0.375522	-0.290189
C26	C	0.646971	-0.357369	-0.357976
C27	C	0.549300	-0.289631	-0.376239
C28	C	0.500985	-0.357385	-0.358007
C29	C	0.598646	-0.425166	-0.339676
C30	C	0.598773	-0.339230	-0.425758
C31	C	0.549384	-0.407038	-0.407519
C32	C	0.731069	-0.357359	-0.357957
C33	C	0.416889	-0.357403	-0.358027
C34	C	1.267304	-0.357397	-0.358026
C35	C	1.349850	-0.357409	-0.358043
C36	C	1.073641	-0.163663	-0.357995
C37	C	1.073659	-0.081117	-0.358000
C38	C	1.123312	0.118404	-0.407632
C39	C	1.141408	0.167689	-0.339884
C40	C	1.073651	0.070013	-0.358004
C41	C	1.055582	0.167811	-0.425754
C42	C	1.073646	0.215999	-0.358013
C43	C	1.091783	0.118211	-0.290219
C44	C	1.005925	0.118328	-0.376136
C45	C	1.023996	0.167590	-0.308340
C46	C	1.073657	-0.014085	-0.357999
C47	C	1.073640	0.300095	-0.358010
C48	C	1.073448	-0.357617	-0.165031
C49	C	1.073509	-0.357537	-0.082486
C50	C	1.123635	-0.406529	0.116994
C51	C	1.056051	-0.425111	0.166577
C52	C	1.073631	-0.357335	0.068644
C53	C	1.141333	-0.338590	0.166143
C54	C	1.073755	-0.357140	0.214629
C55	C	1.006010	-0.375954	0.117140
C56	C	1.091338	-0.289401	0.116701
C57	C	1.023707	-0.307957	0.166262
C58	C	1.073560	-0.357448	-0.015454
C59	C	1.073818	-0.357026	0.298725
H60	H	0.620197	-0.265853	-0.266528
H61	H	0.981997	0.189053	-0.266327
H62	H	0.527913	-0.449046	-0.449412
H63	H	1.165816	-0.448247	0.095361
C64	C	0.966595	-0.251644	0.195310
H65	H	0.991112	-0.215121	0.224122
H66	H	0.930975	-0.276521	0.225091
H67	H	0.942473	-0.228538	0.154631
H68	H	0.948791	-0.391790	0.095700
C69	C	1.111532	-0.211928	0.087085
H70	H	1.159632	-0.198752	0.103827
H71	H	1.076547	-0.176784	0.104685
H72	H	1.110895	-0.212460	0.034463
C73	C	0.928582	0.089006	-0.396882
H74	H	0.915818	0.105960	-0.445058
H75	H	0.893177	0.106579	-0.362124
H76	H	0.929042	0.036380	-0.396283
H77	H	0.527397	-0.390876	-0.232880
H78	H	1.107134	0.096518	-0.232912
C79	C	1.034928	0.197227	-0.503150
H80	H	1.070262	0.180376	-0.538345
H81	H	1.034625	0.249847	-0.502500
H82	H	0.987157	0.179588	-0.516361
C83	C	1.035886	-0.502605	0.196171
H84	H	1.071418	-0.537570	0.179309
H85	H	0.988179	-0.516193	0.178673
H86	H	1.035638	-0.501860	0.248795
C87	C	1.218604	-0.317273	0.195230
H88	H	1.214960	-0.273440	0.224068
H89	H	1.251011	-0.308870	0.154573
H90	H	1.237508	-0.356365	0.225009
C91	C	0.627796	-0.502585	-0.318733
H92	H	0.587156	-0.534906	-0.310028
H93	H	0.657030	-0.499159	-0.275149
H94	H	0.657180	-0.521457	-0.358112
C95	C	0.628166	-0.318496	-0.503184
H96	H	0.657125	-0.358136	-0.522128
H97	H	0.657864	-0.275191	-0.499766
H98	H	0.587618	-0.309384	-0.535441
C99	C	0.520021	-0.212238	-0.397095
H100	H	0.536877	-0.177049	-0.361849
H101	H	0.467400	-0.212905	-0.397402
H102	H	0.537739	-0.199007	-0.444898
H103	H	1.198681	0.189371	-0.324546
C104	C	1.180088	0.089214	-0.464248
H105	H	1.228184	0.106115	-0.451243
H106	H	1.167729	0.106923	-0.512253
H107	H	1.179387	0.036589	-0.464161
