data_functionalizedCrystal
_audit_creation_method	'MofGen! by Chris Wilmer'
_symmetry_space_group_name_H-M	'P1'
_symmetry_Int_Tables_number	1
_symmetry_cell_setting	triclinic
loop_
_symmetry_equiv_pos_as_xyz
  x,y,z
_cell_length_a	19.902436
_cell_length_b	14.560438
_cell_length_c	19.902436
_cell_angle_alpha	120.005866
_cell_angle_beta	90.002400
_cell_angle_gamma	59.996467
loop_
_atom_site_label
_atom_site_type_symbol
_atom_site_fract_x
_atom_site_fract_y
_atom_site_fract_z
Zr1	Zr	0.647318	1.005191	0.088118
O2	O	0.540025	1.196830	0.195418
O3	O	0.680209	0.813578	0.055226
O4	O	0.680209	1.005206	0.195408
O5	O	0.540027	1.005182	-0.055344
O6	O	0.790787	1.005188	0.195399
O7	O	0.540026	1.005203	0.055235
O8	O	0.790789	0.662401	-0.055361
O9	O	0.540025	1.347969	0.195416
O10	O	0.776761	0.892369	0.041190
O11	O	0.694237	0.892367	-0.041328
O12	O	0.694236	1.117984	0.123719
O13	O	0.611713	1.117982	0.041201
Zr14	Zr	0.823679	1.005130	-0.088258
Zr15	Zr	0.823679	1.005163	0.088104
Zr16	Zr	0.647319	1.005159	-0.088244
Zr17	Zr	0.647318	1.246240	0.088115
Zr18	Zr	0.823680	0.764082	-0.088256
O19	O	0.790788	1.196743	-0.055367
O20	O	0.790787	1.196790	0.195397
O21	O	0.540026	1.196784	-0.055346
O22	O	0.930972	0.813491	-0.195558
O23	O	0.930971	0.813538	0.055206
O24	O	0.680210	0.813532	-0.195538
O25	O	0.930971	1.005140	0.055204
O26	O	0.790789	1.005116	-0.195549
O27	O	0.680210	1.005133	-0.195540
O28	O	0.930971	1.005119	-0.055376
O29	O	0.680208	1.347946	0.195405
O30	O	0.790790	0.662375	-0.195545
O31	O	0.930973	0.662353	-0.195557
O32	O	0.930972	0.662379	-0.055372
O33	O	0.540025	1.347943	0.055232
O34	O	0.680208	1.347920	0.055220
O35	O	0.776761	0.892338	-0.123859
O36	O	0.859285	0.892340	-0.041341
O37	O	0.776760	1.117955	0.041187
O38	O	0.694237	1.117953	-0.041330
C39	C	0.735499	0.703646	-0.000067
C40	C	0.735500	0.601314	-0.000066
C41	C	0.778573	0.553241	0.043009
C42	C	0.778575	0.457083	0.043002
C43	C	0.692423	0.457085	-0.043155
C44	C	0.692427	0.553234	-0.043153
C45	C	0.821646	0.601321	0.086095
C46	C	0.864722	0.553249	0.129174
C47	C	0.864724	0.457091	0.129168
C48	C	0.821649	0.409006	0.086082
C49	C	0.514899	1.005196	-0.000052
C50	C	0.440029	1.005208	-0.000046
C51	C	0.168027	1.005145	-0.000078
C52	C	0.144460	1.147467	0.051733
C53	C	0.222297	1.147556	0.052021
C54	C	0.302970	1.005177	-0.000062
C55	C	0.300559	0.934509	0.037901
C56	C	0.222331	0.935419	0.038284
C57	C	0.223319	0.932472	-0.089877
C58	C	0.300240	0.935147	-0.089738
C59	C	0.379237	1.005188	-0.000054
C60	C	0.091762	1.005130	-0.000084
C61	C	0.956099	1.005125	-0.000088
C62	C	1.030968	1.005113	-0.000094
C63	C	0.735498	1.005202	0.220532
C64	C	0.735498	1.005216	0.295402
C65	C	0.735498	1.306676	-0.000073
C66	C	0.735498	1.409008	-0.000075
C67	C	0.735493	1.005201	0.432467
C68	C	0.683439	1.147515	0.513041
C69	C	0.683158	1.147576	0.590934
C70	C	0.735489	1.005189	0.567417
C71	C	0.697798	0.934113	0.513138
C72	C	0.697406	0.935049	0.435585
C73	C	0.825267	0.932933	0.434736
C74	C	0.825129	0.935587	0.513607
C75	C	0.735487	1.005174	0.643683
C76	C	0.735492	1.005212	0.356200
C77	C	0.735496	1.005137	0.779334
C78	C	0.735484	1.005174	0.704482
C79	C	0.956099	0.703610	-0.000085
C80	C	1.030969	0.601267	-0.000090
C81	C	0.735500	0.703605	-0.220669
C82	C	0.735501	0.601259	-0.295538
C83	C	0.956100	0.703569	-0.220687
C84	C	1.030970	0.601212	-0.295562
C85	C	0.514897	1.306753	0.220546
C86	C	0.440027	1.409110	0.295422
C87	C	0.514898	1.306712	-0.000056
C88	C	0.440028	1.409055	-0.000051
C89	C	0.735497	1.306717	0.220529
C90	C	0.735497	1.409062	0.295398
C91	C	1.023052	0.553220	0.042995
C92	C	1.093394	0.457071	0.043007
C93	C	1.171651	0.408963	-0.000072
C94	C	1.179567	0.457019	-0.043159
C95	C	1.109226	0.553173	-0.043165
C96	C	0.778578	0.553182	-0.373786
C97	C	0.778575	0.457031	-0.444140
C98	C	0.735500	0.408953	-0.436245
C99	C	0.692417	0.457039	-0.357990
C100	C	0.692416	0.553195	-0.287637
C101	C	1.109214	0.553145	-0.287651
C102	C	1.179569	0.456982	-0.357998
C103	C	1.171679	0.408882	-0.436255
C104	C	1.093427	0.456959	-0.444164
C105	C	1.023074	0.553126	-0.373819
C106	C	0.361784	1.457189	0.287511
C107	C	0.291428	1.553381	0.357857
C108	C	0.299319	1.601486	0.436114
C109	C	0.377570	1.553403	0.444024
C110	C	0.447924	1.457220	0.373678
C111	C	0.447945	1.457112	-0.043129
C112	C	0.377604	1.553288	-0.043121
C113	C	0.299346	1.601399	-0.000040
C114	C	0.291431	1.553338	0.043044
C115	C	0.361771	1.457170	0.043041
C116	C	0.778580	1.457110	0.287477
C117	C	0.778596	1.553262	0.357818
C118	C	0.735523	1.601370	0.436079
C119	C	0.692438	1.553313	0.443998
C120	C	0.692427	1.457157	0.373658
H121	H	0.899804	0.417943	0.164238
H122	H	1.243293	0.417836	-0.078232
H123	H	1.087015	0.417782	-0.507891
H124	H	0.511631	1.418075	0.380129
H125	H	0.708421	1.203308	0.630443
C126	C	0.205362	1.606243	0.349142
H127	H	0.210746	1.563796	0.292459
H128	H	0.176123	1.697025	0.374781
H129	H	0.176127	1.590492	0.374799
H130	H	0.657348	0.592383	-0.078223
H131	H	0.821647	0.679620	0.086107
H132	H	0.959367	0.592250	-0.380271
H133	H	0.104548	1.203061	0.117575
H134	H	1.115654	0.592294	-0.223937
C135	C	0.745354	0.793979	0.358489
H136	H	0.745451	0.793594	0.310614
H137	H	0.719810	0.754401	0.360044
H138	H	0.800397	0.746916	0.357243
H139	H	0.867157	0.831739	0.495076
H140	H	0.384065	1.592403	-0.078208
H141	H	0.242077	1.679704	-0.000044
H142	H	0.221019	1.203285	0.026754
H143	H	0.821659	0.330702	0.086077
C144	C	0.250230	0.790841	-0.142274
H145	H	0.227897	0.776016	-0.109629
H146	H	0.308584	0.733706	-0.161774
H147	H	0.230790	0.775438	-0.187738
C148	C	0.645038	0.404205	-0.090535
H149	H	0.651198	0.340067	-0.084360
H150	H	0.666308	0.366681	-0.147210
H151	H	0.588362	0.473255	-0.069250
C152	C	0.863194	1.005555	0.564194
H153	H	0.917418	0.962989	0.531310
H154	H	0.865045	1.003666	0.611209
H155	H	0.830606	1.093169	0.581268
C156	C	0.877908	0.791318	0.358009
H157	H	0.845377	0.776255	0.324735
H158	H	0.897515	0.734154	0.374541
H159	H	0.923298	0.776192	0.327404
H160	H	0.813656	1.417955	0.223759
C161	C	0.353053	1.404302	0.090418
H162	H	0.296369	1.446724	0.116065
H163	H	0.378700	1.420049	0.131184
H164	H	0.378695	1.313513	0.053225
C165	C	0.746569	0.792667	0.486395
H166	H	0.790453	0.775665	0.508152
H167	H	0.768225	0.735360	0.428027
H168	H	0.711114	0.779724	0.506526
H169	H	0.657347	0.417880	-0.351574
H170	H	0.105293	1.203320	0.026399
H171	H	0.242026	1.679805	0.493387
C172	C	1.265635	0.404103	-0.349283
H173	H	1.260252	0.446511	-0.292599
H174	H	1.294876	0.419858	-0.374924
H175	H	1.294868	0.313311	-0.374937
C176	C	0.353093	1.404291	0.201435
H177	H	0.406194	1.340112	0.160665
H178	H	0.323868	1.473322	0.195267
H179	H	0.323858	1.366788	0.195269
H180	H	0.383985	1.592583	0.507749
H181	H	0.813660	0.417890	-0.507852
C182	C	0.377306	0.793089	-0.010617
H183	H	0.374588	0.752172	0.013373
H184	H	0.425307	0.792235	-0.009015
H185	H	0.379361	0.747603	-0.066145
H186	H	0.220522	1.203354	0.118260
C187	C	0.534019	1.404206	-0.090523
H188	H	0.528648	1.446621	-0.116168
H189	H	0.563253	1.313419	-0.131292
H190	H	0.563253	1.419970	-0.053339
H191	H	0.959337	0.592388	0.078086
H192	H	0.227704	1.592524	0.078120
C193	C	0.645053	1.606252	0.530087
H194	H	0.651227	1.670411	0.570838
H195	H	0.666313	1.537244	0.536275
H196	H	0.588375	1.643794	0.536265
C197	C	1.084672	0.404213	0.090394
H198	H	1.027989	0.446623	0.116034
H199	H	1.110310	0.419980	0.131167
H200	H	1.110325	0.313420	0.053206
H201	H	1.228972	0.330577	-0.493528
C202	C	0.645021	1.404330	0.382381
H203	H	0.619365	1.446770	0.439066
H204	H	0.682188	1.313542	0.356732
H205	H	0.604247	1.420116	0.356742
H206	H	0.813680	1.592380	0.351353
C207	C	0.867845	0.994883	0.430873
H208	H	0.921933	0.949836	0.432318
H209	H	0.837270	1.083406	0.476610
H210	H	0.870607	0.989612	0.381297
H211	H	0.735538	1.679668	0.493347
H212	H	0.735508	0.330657	-0.493538
C213	C	0.172957	1.003294	0.127549
H214	H	0.200800	1.030059	0.163238
H215	H	0.167832	0.944642	0.131608
H216	H	0.119778	1.077082	0.142879
H217	H	0.899797	0.592397	0.164248
C218	C	0.248457	0.794368	-0.009388
H219	H	0.200870	0.793968	-0.009480
H220	H	0.278874	0.755092	0.016341
H221	H	0.281739	0.747030	-0.064442
C222	C	0.302645	1.000834	0.126321
H223	H	0.304981	1.071582	0.140234
H224	H	0.349806	0.939939	0.129864
H225	H	0.254417	1.031931	0.163418
C226	C	1.117945	0.606000	-0.090573
H227	H	1.174628	0.563561	-0.116233
H228	H	1.092297	0.696787	-0.053405
H229	H	1.092303	0.590211	-0.131346
H230	H	0.299863	0.986673	-0.118099
C231	C	0.174275	0.993987	-0.132719
H232	H	0.208767	0.948700	-0.186817
H233	H	0.155238	1.082501	-0.102300
H234	H	0.128564	0.988694	-0.135477
C235	C	0.377856	0.794815	-0.146279
H236	H	0.413096	0.777015	-0.115797
H237	H	0.405889	0.784681	-0.190715
H238	H	0.362464	0.736163	-0.167193
C239	C	0.717373	1.223392	0.515502
H240	H	0.763587	1.168967	0.467412
H241	H	0.733573	1.250801	0.562803
H242	H	0.675893	1.297214	0.517793
H243	H	0.657340	0.592327	-0.223927
H244	H	0.617608	1.202816	0.513700
C245	C	0.593698	1.222549	0.643546
H246	H	0.593220	1.222853	0.691391
H247	H	0.569032	1.181661	0.612438
H248	H	0.563652	1.309401	0.659282
H249	H	0.631354	0.984977	0.435684
C250	C	0.609420	1.000011	0.563592
H251	H	0.595358	1.070827	0.617724
H252	H	0.606044	0.938939	0.566125
H253	H	0.572327	1.030951	0.538059
C254	C	1.249018	0.303185	-0.000067
H255	H	1.233088	0.281456	0.031758
H256	H	1.280850	0.334683	0.022993
H257	H	1.280840	0.228138	-0.054954
C258	C	0.825952	0.606067	-0.382486
H259	H	0.851592	0.563666	-0.439168
H260	H	0.866721	0.590312	-0.356844
H261	H	0.788755	0.696859	-0.356828
