data_functionalizedCrystal
_audit_creation_method	'MofGen! by Chris Wilmer'
_symmetry_space_group_name_H-M	'P1'
_symmetry_Int_Tables_number	1
_symmetry_cell_setting	triclinic
loop_
_symmetry_equiv_pos_as_xyz
  x,y,z
_cell_length_a	19.805405
_cell_length_b	19.805407
_cell_length_c	19.805398
_cell_angle_alpha	90.017356
_cell_angle_beta	89.972363
_cell_angle_gamma	89.974605
loop_
_atom_site_label
_atom_site_type_symbol
_atom_site_fract_x
_atom_site_fract_y
_atom_site_fract_z
Zn1	Zn	-0.269508	-1.034711	-0.382738
Zn2	Zn	-0.382693	-1.034633	-0.269547
Zn3	Zn	-0.269522	-0.921533	-0.269560
Zn4	Zn	-0.382659	-0.921489	-0.382691
O5	O	-0.326096	-0.978091	-0.326134
O6	O	-0.284531	-1.129417	-0.367738
O7	O	-0.367701	-1.019616	-0.174832
O8	O	-0.174803	-0.936597	-0.284599
O9	O	-0.367688	-1.129360	-0.284576
O10	O	-0.174793	-1.019748	-0.367751
O11	O	-0.284554	-0.936522	-0.174842
O12	O	-0.284521	-0.826810	-0.284553
O13	O	-0.367629	-0.936522	-0.477414
O14	O	-0.367642	-0.826778	-0.367669
O15	O	-0.284498	-1.019706	-0.477449
O16	O	-0.477405	-1.019573	-0.284530
O17	O	-0.477380	-0.936447	-0.367656
C18	C	-0.326079	-0.802235	-0.326108
C19	C	-0.326089	-0.727003	-0.326112
C20	C	-0.501952	-0.978015	-0.326101
C21	C	-0.577184	-0.978045	-0.326110
C22	C	-0.369435	-0.691660	-0.369320
C23	C	-0.369435	-0.620972	-0.369328
C24	C	-0.326092	-0.585628	-0.326124
C25	C	-0.282741	-0.620976	-0.282914
C26	C	-0.282738	-0.691663	-0.282910
C27	C	-0.282751	-0.335903	-0.282929
C28	C	-0.282759	-0.265211	-0.282935
C29	C	-0.369447	-0.265211	-0.369346
C30	C	-0.369445	-0.335899	-0.369343
C31	C	-0.326092	-0.371241	-0.326136
C32	C	-0.326091	-0.447889	-0.326129
C33	C	-0.326095	-0.508981	-0.326127
C34	C	-0.612518	-1.021371	-0.282871
C35	C	-0.683207	-1.021399	-0.282886
C36	C	-0.718559	-0.978098	-0.326137
C37	C	-0.683219	-0.934770	-0.369380
C38	C	-0.612532	-0.934746	-0.369368
C39	C	-0.968292	-0.934870	-0.369430
C40	C	-1.038985	-0.934897	-0.369438
C41	C	-1.038967	-1.021524	-0.282949
C42	C	-0.968280	-1.021499	-0.282936
C43	C	-0.932946	-0.978174	-0.326182
C44	C	-0.856298	-0.978144	-0.326166
C45	C	-0.795206	-0.978124	-0.326150
C46	C	-0.149553	-0.978186	-0.326182
C47	C	-0.074321	-0.978227	-0.326202
C48	C	-0.326058	-0.978118	-0.502677
C49	C	-0.326042	-0.978129	-0.577909
C50	C	-0.326108	-0.154634	-0.326154
C51	C	-0.326102	-0.229866	-0.326146
C52	C	-0.282636	-1.021525	-1.039719
C53	C	-0.282657	-1.021514	-0.969031
C54	C	-0.325948	-0.978199	-0.933671
C55	C	-0.369226	-0.934896	-0.969003
C56	C	-0.369208	-0.934911	-1.039690
C57	C	-0.369300	-0.934837	-0.683929
C58	C	-0.369313	-0.934825	-0.613237
C59	C	-0.282748	-1.021441	-0.613270
C60	C	-0.282730	-1.021455	-0.683958
C61	C	-0.326010	-0.978155	-0.719283
C62	C	-0.325988	-0.978168	-0.795932
C63	C	-0.325967	-0.978182	-0.857024
C64	C	-0.326084	-0.978104	-0.150278
C65	C	-0.325909	-0.978224	-0.075046
H66	H	-0.404732	-0.592199	-0.404511
H67	H	-1.067745	-1.056804	-0.247739
O68	O	-0.240668	-0.370333	-0.241017
C69	C	-0.249966	-0.440302	-0.250262
H70	H	-0.272198	-0.449971	-0.302457
H71	H	-0.285957	-0.460333	-0.210049
C72	C	-0.154164	-0.464740	-0.180068
C73	C	-0.181465	-0.476616	-0.244177
H74	H	-0.111911	-0.487141	-0.176312
H75	H	-0.147901	-0.417601	-0.173837
H76	H	-0.184164	-0.481432	-0.146565
H77	H	-0.151470	-0.459916	-0.277679
H78	H	-0.187722	-0.523754	-0.250413
O79	O	-1.073222	-0.892814	-0.411522
C80	C	-1.026879	-0.854558	-0.449679
H81	H	-0.976466	-0.882260	-0.452041
H82	H	-1.019418	-0.803163	-0.424848
C83	C	-1.116352	-0.810749	-0.518808
C84	C	-1.054435	-0.844777	-0.521715
H85	H	-1.133350	-0.804713	-0.563243
H86	H	-1.147575	-0.836521	-0.493100
H87	H	-1.110126	-0.767924	-0.498113
H88	H	-1.060663	-0.887604	-0.542402
H89	H	-1.023214	-0.819012	-0.547429
H90	H	-0.247448	-0.592193	-0.247740
H91	H	-0.404741	-0.364672	-0.404522
O92	O	-0.240562	-0.726027	-0.241032
C93	C	-0.196906	-0.766958	-0.279644
H94	H	-0.192798	-0.745677	-0.332961
H95	H	-0.217832	-0.820524	-0.281933
C96	C	-0.131543	-0.794195	-0.181219
C97	C	-0.126494	-0.768055	-0.246703
H98	H	-0.088111	-0.794875	-0.160899
H99	H	-0.160957	-0.766621	-0.155205
H100	H	-0.148985	-0.838831	-0.183136
H101	H	-0.109060	-0.723417	-0.244785
H102	H	-0.097076	-0.795622	-0.272716
H103	H	-0.404565	-0.899548	-0.584449
O104	O	-0.411610	-0.726020	-0.411193
C105	C	-0.455264	-0.766891	-0.372580
H106	H	-0.459377	-0.745569	-0.319264
H107	H	-0.434333	-0.820471	-0.370284
C108	C	-0.520619	-0.794145	-0.471005
C109	C	-0.525675	-0.767955	-0.405523
H110	H	-0.564051	-0.794805	-0.491327
H111	H	-0.491208	-0.766612	-0.497020
H112	H	-0.503174	-0.838793	-0.469083
H113	H	-0.543112	-0.723305	-0.407447
H114	H	-0.555091	-0.795480	-0.379509
H115	H	-0.247509	-1.056699	-0.584500
H116	H	-0.247421	-1.056776	-0.940271
O117	O	-0.578107	-1.063467	-0.240950
C118	C	-0.537170	-1.107155	-0.279520
H119	H	-0.526564	-1.083246	-0.330788
H120	H	-0.564369	-1.157319	-0.287011
C121	C	-0.483068	-1.148779	-0.179308
C122	C	-0.470036	-1.119411	-0.242275
H123	H	-0.441658	-1.156342	-0.156333
H124	H	-0.510649	-1.119348	-0.153322
H125	H	-0.505735	-1.190579	-0.185560
H126	H	-0.447378	-1.077608	-0.236023
H127	H	-0.442450	-1.148836	-0.268259
H128	H	-0.404540	-0.899579	-0.712683
O129	O	-0.240750	-0.230850	-0.240887
C130	C	-0.279233	-0.189926	-0.197112
H131	H	-0.332534	-0.211210	-0.192838
H132	H	-0.281597	-0.136358	-0.218032
C133	C	-0.180610	-0.162693	-0.132056
C134	C	-0.246074	-0.188837	-0.126803
H135	H	-0.160156	-0.162019	-0.088687
H136	H	-0.154683	-0.190263	-0.161550
H137	H	-0.182590	-0.118055	-0.149492
H138	H	-0.244093	-0.233477	-0.109375
H139	H	-0.272001	-0.161275	-0.097304
H140	H	-0.711974	-1.056679	-0.247677
H141	H	-0.939499	-1.056757	-0.247716
O142	O	-0.240656	-1.063596	-0.718201
C143	C	-0.202453	-1.101802	-0.671862
H144	H	-0.230188	-1.104120	-0.621466
H145	H	-0.151046	-1.077044	-0.664355
C146	C	-0.158637	-1.171003	-0.761356
C147	C	-0.192704	-1.173855	-0.699461
H148	H	-0.152619	-1.215448	-0.778381
H149	H	-0.184372	-1.145262	-0.792577
H150	H	-0.115801	-1.150368	-0.755092
H151	H	-0.235541	-1.194482	-0.705728
H152	H	-0.166975	-1.199602	-0.668242
O153	O	-0.411354	-0.892808	-0.934761
C154	C	-0.449539	-0.854587	-0.981102
H155	H	-0.451860	-0.882315	-1.031495
H156	H	-0.424761	-0.803188	-0.988613
C157	C	-0.518738	-0.810755	-0.891609
C158	C	-0.521593	-0.844814	-0.953501
H159	H	-0.563184	-0.804723	-0.874583
H160	H	-0.493011	-0.836503	-0.860387
H161	H	-0.498087	-0.767926	-0.897876
H162	H	-0.542236	-0.887645	-0.947231
H163	H	-0.547326	-0.819073	-0.984721
O164	O	-0.411316	-0.892944	-1.074039
C165	C	-0.455013	-0.931466	-1.114931
H166	H	-0.459202	-0.984768	-1.093632
H167	H	-0.434074	-0.933820	-1.168509
C168	C	-0.520230	-0.832898	-1.142157
C169	C	-0.525379	-0.898363	-1.115994
H170	H	-0.563634	-0.812478	-1.142816
H171	H	-0.490789	-0.806944	-1.114609
H172	H	-0.502778	-0.834869	-1.186803
H173	H	-0.542823	-0.896391	-1.071346
H174	H	-0.554825	-0.924316	-1.143534
H175	H	-0.404745	-0.236427	-0.404530
H176	H	-0.939529	-0.899592	-0.404641
H177	H	-0.712009	-0.899517	-0.404598
H178	H	-0.583763	-0.899466	-0.404578
H179	H	-0.247379	-1.056793	-1.068505
