data_functionalizedCrystal
_audit_creation_method	'MofGen! by Chris Wilmer'
_symmetry_space_group_name_H-M	'P1'
_symmetry_Int_Tables_number	1
_symmetry_cell_setting	triclinic
loop_
_symmetry_equiv_pos_as_xyz
  x,y,z
_cell_length_a	6.817900
_cell_length_b	12.840946
_cell_length_c	9.582860
_cell_angle_alpha	82.176558
_cell_angle_beta	111.206767
_cell_angle_gamma	88.344365
loop_
_atom_site_label
_atom_site_type_symbol
_atom_site_fract_x
_atom_site_fract_y
_atom_site_fract_z
V1	V	-3.939061	0.325022	-0.210601
O2	O	-3.887067	0.319031	0.006470
O3	O	-3.930780	0.322610	-0.414075
O4	O	-3.834343	0.466861	-0.208963
O5	O	-3.984171	0.173781	-0.200062
V6	V	-4.424788	0.306955	-0.184447
O7	O	-4.195485	0.364652	-0.267971
O8	O	-4.618561	0.267324	-0.127078
O9	O	-4.209862	0.309367	0.019027
O10	O	-4.594178	0.312945	-0.401518
O11	O	-4.497074	0.458196	-0.194986
O12	O	-4.306299	0.165116	-0.186085
C13	C	-3.787362	0.317433	-0.463628
C14	C	-3.861503	0.316407	-0.629982
C15	C	-3.664359	0.501439	-0.201980
C16	C	-3.660212	0.619572	-0.201985
C17	C	-4.122664	0.012409	-0.193126
C18	C	-4.139659	0.130537	-0.193093
V19	V	-3.922040	0.811189	-0.210644
O20	O	-3.956549	0.962406	-0.200124
O21	O	-3.827453	0.664006	-0.208988
O22	O	-3.912222	0.852406	-0.414119
O23	O	-3.871193	0.772702	0.006427
V24	V	-4.405826	0.848659	-0.184503
O25	O	-4.180399	0.795609	-0.268015
O26	O	-4.596873	0.886925	-0.127142
O27	O	-4.277599	0.984594	-0.186155
O28	O	-4.488507	0.703358	-0.195026
O29	O	-4.573864	0.893062	-0.401577
O30	O	-4.192829	0.796194	0.018977
C31	C	-4.016624	0.314540	0.068572
C32	C	-3.921719	0.315574	0.234924
C33	C	-3.768354	0.859894	-0.463661
C34	C	-3.841161	0.896733	-0.630015
C35	C	-4.000628	0.771737	0.068534
C36	C	-3.907096	0.733862	0.234891
C37	C	-4.056905	0.919479	-0.715824
C38	C	-4.125341	0.954108	-0.872129
C39	C	-3.978031	0.965983	-0.942622
C40	C	-3.762269	0.943237	-0.856800
C41	C	-3.693835	0.908615	-0.700497
C42	C	-3.690595	0.703645	0.305355
C43	C	-3.602679	0.668070	0.461667
C44	C	-3.731271	0.662705	0.547510
C45	C	-3.947790	0.692928	0.477036
C46	C	-4.035700	0.728510	0.320729
H47	H	-4.176882	0.909812	-0.658451
F48	F	-4.354979	0.978307	-0.963440
F49	F	-3.553697	0.709349	0.214021
H50	H	-4.033783	0.994174	-1.069896
H51	H	-4.211995	0.753107	0.263369
H52	H	-3.426377	0.643463	0.519022
F53	F	-3.605514	0.955876	-0.931848
H54	H	-3.518156	0.890092	-0.630643
F55	F	-4.084624	0.687210	0.568418
H56	H	-3.659663	0.633728	0.674784
