data_functionalizedCrystal
_audit_creation_method	'MofGen! by Chris Wilmer'
_symmetry_space_group_name_H-M	'P1'
_symmetry_Int_Tables_number	1
_symmetry_cell_setting	triclinic
loop_
_symmetry_equiv_pos_as_xyz
  x,y,z
_cell_length_a	16.992694
_cell_length_b	16.992695
_cell_length_c	8.140239
_cell_angle_alpha	89.996131
_cell_angle_beta	90.002898
_cell_angle_gamma	90.668223
loop_
_atom_site_label
_atom_site_type_symbol
_atom_site_fract_x
_atom_site_fract_y
_atom_site_fract_z
O1	O	1.050849	0.166915	-0.136409
O2	O	1.550849	0.666915	0.363591
O3	O	0.822449	0.165084	-0.136457
O4	O	1.322449	0.665084	0.363543
O5	O	0.935733	0.051800	-0.136420
O6	O	1.435733	0.551800	0.363580
O7	O	0.937564	0.280200	-0.136446
O8	O	1.437564	0.780200	0.363554
O9	O	0.935726	0.051798	0.136807
O10	O	1.435726	0.551798	0.636807
O11	O	0.822442	0.165082	0.136770
O12	O	1.322442	0.665082	0.636770
O13	O	1.050842	0.166914	0.136818
O14	O	1.550842	0.666914	0.636818
Zn15	Zn	0.936641	0.165998	0.180175
Zn16	Zn	1.436641	0.665998	0.680175
Zn17	Zn	0.936650	0.166000	-0.179814
Zn18	Zn	1.436650	0.666000	0.320186
O19	O	0.937557	0.280198	0.136781
O20	O	1.437557	0.780198	0.636781
C21	C	0.793085	0.162727	0.000150
C22	C	1.293085	0.662727	0.500150
C23	C	0.705600	0.155699	0.000132
C24	C	1.205600	0.655699	0.500132
C25	C	0.659610	0.223517	0.000126
C26	C	1.159610	0.723517	0.500126
C27	C	0.577409	0.216908	0.000149
C28	C	1.077409	0.716908	0.500149
C29	C	0.541201	0.142480	0.000167
C30	C	1.041201	0.642480	0.500167
C31	C	0.587198	0.074657	0.000178
C32	C	1.087198	0.574657	0.500178
C33	C	0.669397	0.081267	0.000167
C34	C	1.169397	0.581267	0.500167
C35	C	0.295886	0.115086	0.000214
C36	C	0.795886	0.615086	0.500214
C37	C	0.213681	0.108481	0.000221
C38	C	0.713681	0.608481	0.500221
C39	C	0.203898	0.250732	0.000194
C40	C	0.703898	0.750732	0.500194
C41	C	0.286099	0.257336	0.000173
C42	C	0.786099	0.757336	0.500173
C43	C	0.332089	0.189512	0.000193
C44	C	0.832089	0.689512	0.500193
N45	N	0.457178	0.135723	0.000186
N46	N	0.957178	0.635723	0.500186
N47	N	0.416110	0.196270	0.000186
N48	N	0.916110	0.696270	0.500186
C49	C	0.933374	0.022439	0.000192
C50	C	1.433374	0.522439	0.500192
C51	C	0.926345	-0.065046	0.000191
C52	C	1.426345	0.434954	0.500191
C53	C	0.994163	-0.111037	0.000207
C54	C	1.494163	0.388963	0.500207
C55	C	0.987554	-0.193238	0.000190
C56	C	1.487554	0.306762	0.500190
C57	C	0.913127	-0.229446	0.000168
C58	C	1.413127	0.270554	0.500168
C59	C	0.845303	-0.183449	0.000147
C60	C	1.345303	0.316551	0.500147
C61	C	0.851913	-0.101250	0.000153
C62	C	1.351913	0.398750	0.500153
C63	C	0.885732	-0.474760	0.000140
C64	C	1.385732	0.025240	0.500140
C65	C	0.879127	-0.556966	0.000140
C66	C	1.379127	-0.056966	0.500140
C67	C	1.021379	-0.566749	0.000179
C68	C	1.521379	-0.066749	0.500179
C69	C	1.027982	-0.484547	0.000194
C70	C	1.527982	0.015453	0.500194
C71	C	0.960159	-0.438558	0.000164
C72	C	1.460159	0.061442	0.500164
N73	N	0.906369	-0.313468	0.000156
N74	N	1.406369	0.186532	0.500156
N75	N	0.966917	-0.354537	0.000165
N76	N	1.466917	0.145463	0.500165
C77	C	1.080205	0.169270	0.000207
C78	C	1.580205	0.669270	0.500207
C79	C	1.167690	0.176299	0.000214
C80	C	1.667690	0.676299	0.500214
C81	C	0.939917	0.309559	0.000164
C82	C	1.439917	0.809559	0.500164
C83	C	0.946945	0.397044	0.000156
C84	C	1.446945	0.897044	0.500156
N85	N	0.936640	0.165996	0.425857
N86	N	1.436640	0.665996	0.925857
N87	N	0.936656	0.165996	-0.425497
N88	N	1.436656	0.665996	0.074503
H89	H	0.689084	0.284124	0.000110
H90	H	1.189084	0.784124	0.500110
H91	H	1.054770	-0.081563	0.000234
H92	H	1.554770	0.418437	0.500234
H93	H	0.830505	-0.437325	0.000116
H94	H	1.330505	0.062675	0.500116
H95	H	0.184203	0.047870	0.000234
H96	H	0.684203	0.547870	0.500234
H97	H	1.042779	-0.230680	0.000206
H98	H	1.542779	0.269320	0.500206
O99	O	0.527803	0.290055	0.000149
O100	O	1.027803	0.790055	0.500149
H101	H	0.541220	0.325424	-0.111231
H102	H	1.041220	0.825424	0.388769
O103	O	0.719008	0.008122	0.000168
O104	O	1.219008	0.508122	0.500168
H105	H	0.680022	-0.044744	0.000168
H106	H	1.180022	0.455256	0.500168
O107	O	0.325153	0.337611	0.000195
O108	O	0.825153	0.837611	0.500195
H109	H	0.279362	0.383660	0.000220
H110	H	0.779362	0.883660	0.500220
H111	H	1.088589	-0.455073	0.000212
H112	H	1.588589	0.044927	0.500212
O113	O	0.345486	0.041938	0.000235
O114	O	0.845486	0.541938	0.500235
H115	H	0.306495	-0.010925	0.000235
H116	H	0.806495	0.489075	0.500235
O117	O	1.094529	-0.616349	0.000200
O118	O	1.594529	-0.116349	0.500200
H119	H	1.077433	-0.679591	0.000182
H120	H	1.577433	-0.179591	0.500182
O121	O	0.765028	-0.222502	0.000143
O122	O	1.265028	0.277498	0.500143
H123	H	0.758616	-0.259722	-0.111209
H124	H	1.258616	0.240278	0.388791
O125	O	0.798849	-0.596024	0.000098
O126	O	1.298849	-0.096024	0.500098
H127	H	0.752796	-0.550235	0.000060
H128	H	1.252796	-0.050235	0.500060
H129	H	0.166444	0.305950	0.000182
H130	H	0.666444	0.805950	0.500182
H131	H	0.557710	0.014056	0.000216
H132	H	1.057710	0.514056	0.500216
O133	O	0.778768	-0.051639	0.000153
O134	O	1.278768	0.448361	0.500153
H135	H	0.725903	-0.090625	0.000156
H136	H	1.225903	0.409375	0.500156
