data_functionalizedCrystal
_audit_creation_method	'MofGen! by Chris Wilmer'
_symmetry_space_group_name_H-M	'P1'
_symmetry_Int_Tables_number	1
_symmetry_cell_setting	triclinic
loop_
_symmetry_equiv_pos_as_xyz
  x,y,z
_cell_length_a	6.817900
_cell_length_b	7.190334
_cell_length_c	16.305597
_cell_angle_alpha	89.328684
_cell_angle_beta	103.455834
_cell_angle_gamma	60.611776
loop_
_atom_site_label
_atom_site_type_symbol
_atom_site_fract_x
_atom_site_fract_y
_atom_site_fract_z
V1	V	-4.223035	0.665724	-0.115369
O2	O	-4.206725	0.652298	0.006928
O3	O	-4.173293	0.661894	-0.230089
O4	O	-4.260197	0.955738	-0.112987
O5	O	-4.119219	0.356420	-0.110984
V6	V	-4.695749	0.628640	-0.100813
O7	O	-4.508002	0.747068	-0.147300
O8	O	-4.860980	0.547296	-0.068882
O9	O	-4.522285	0.632470	0.013907
O10	O	-4.829456	0.642066	-0.223111
O11	O	-4.916962	0.937944	-0.105198
O12	O	-4.435380	0.338626	-0.103195
C13	C	-4.015199	0.651579	-0.258075
C14	C	-4.056386	0.650381	-0.351856
C15	C	-4.126065	1.026403	-0.108695
C16	C	-4.239821	1.267953	-0.107483
C17	C	-4.206257	0.646131	-0.692623
C18	C	-3.967093	0.634485	-0.651816
C19	C	-3.923674	0.634885	-0.554216
C20	C	-4.131903	0.648241	-0.523564
C21	C	-4.156115	0.449513	-0.549335
C22	C	-4.197485	0.448043	-0.646870
C23	C	-4.406318	0.855935	-0.671377
C24	C	-4.360575	0.859614	-0.573857
C25	C	-4.089890	0.649427	-0.428020
C26	C	-4.248269	0.644931	-0.788167
C27	C	-4.343719	0.642779	0.041888
C28	C	-4.281774	0.643991	0.135669
H29	H	-3.899425	0.776891	-0.537012
N30	N	-4.340209	1.054407	-0.552697
H31	H	-4.183525	1.005961	-0.510707
H32	H	-4.469632	1.151351	-0.526773
H33	H	-3.991852	0.293041	-0.514039
N34	N	-3.961839	0.821965	-0.691732
H35	H	-4.114418	0.916252	-0.736667
H36	H	-3.828148	0.765628	-0.718859
N37	N	-4.571041	0.888897	-0.547531
H38	H	-4.520918	0.764999	-0.502431
H39	H	-4.689775	0.892185	-0.598775
H40	H	-4.582086	0.866540	-0.698353
N41	N	-3.696281	0.433865	-0.509021
H42	H	-3.727380	0.346389	-0.470437
H43	H	-3.585281	0.476013	-0.473898
N44	N	-3.768675	0.434047	-0.670087
H45	H	-3.793806	0.437974	-0.733768
H46	H	-3.763702	0.302176	-0.645035
N47	N	-4.004563	0.238962	-0.662534
H48	H	-3.894090	0.148197	-0.606134
H49	H	-3.915854	0.271227	-0.696636
H50	H	-4.367461	0.447909	-0.673714
H51	H	-4.306784	0.451682	-0.529478
N52	N	-4.428701	1.055576	-0.714041
H53	H	-4.309369	1.012032	-0.747579
H54	H	-4.400613	1.142067	-0.669216
