data_functionalizedCrystal
_audit_creation_method	'MofGen! by Chris Wilmer'
_symmetry_space_group_name_H-M	'P1'
_symmetry_Int_Tables_number	1
_symmetry_cell_setting	triclinic
loop_
_symmetry_equiv_pos_as_xyz
  x,y,z
_cell_length_a	10.654562
_cell_length_b	19.188925
_cell_length_c	9.130313
_cell_angle_alpha	89.999117
_cell_angle_beta	89.996930
_cell_angle_gamma	83.816326
loop_
_atom_site_label
_atom_site_type_symbol
_atom_site_fract_x
_atom_site_fract_y
_atom_site_fract_z
O1	O	1.665745	0.098101	-0.121894
O2	O	1.300071	0.107435	-0.121876
O3	O	1.493465	0.001181	-0.121877
O4	O	1.472352	0.204354	-0.121893
O5	O	1.493462	0.001184	0.121721
O6	O	1.300069	0.107437	0.121723
O7	O	1.665743	0.098104	0.121704
Cu8	Cu	1.482906	0.102771	0.143956
Cu9	Cu	1.482909	0.102768	-0.144128
O10	O	1.472350	0.204357	0.121706
C11	C	1.253287	0.106749	-0.000074
C12	C	1.113888	0.104693	-0.000067
C13	C	1.048376	0.103736	0.132707
C14	C	0.917395	0.101809	0.132683
C15	C	0.917448	0.101801	-0.132902
C16	C	1.048428	0.103722	-0.132876
C17	C	1.048344	0.103743	0.286041
C18	C	0.917363	0.101817	0.286016
C19	C	1.492781	-0.024833	-0.000079
C20	C	1.490732	-0.102351	-0.000082
C21	C	1.590489	-0.663466	-0.000124
C22	C	1.592425	-0.590630	-0.000111
C23	C	1.478948	-0.546441	-0.000106
C24	C	1.363526	-0.575093	-0.000076
C25	C	1.361594	-0.647928	-0.000074
N26	N	1.396796	-0.426301	-0.083016
N27	N	1.398640	-0.357111	-0.083021
C28	C	1.484765	-0.326994	-0.000107
N29	N	1.568995	-0.368680	0.082793
N30	N	1.567155	-0.437876	0.082791
C31	C	1.481031	-0.467463	-0.000106
C32	C	1.602279	-0.219373	-0.000112
C33	C	1.604210	-0.146535	-0.000090
C34	C	1.375308	-0.130999	-0.000069
C35	C	1.373380	-0.203835	-0.000077
C36	C	1.486869	-0.248018	-0.000105
C37	C	1.712527	0.098790	-0.000101
C38	C	1.851926	0.100846	-0.000117
C39	C	1.473034	0.230371	-0.000096
C40	C	1.475082	0.307890	-0.000103
N41	N	1.482913	0.102773	0.346579
N42	N	1.482911	0.102760	-0.346750
C43	C	1.568569	0.055740	0.423230
C44	C	1.568566	0.055732	0.576567
C45	C	1.397246	0.149795	0.576588
C46	C	1.397244	0.149800	0.423254
C47	C	1.667483	0.001435	0.423219
C48	C	1.667480	0.001427	0.576556
H49	H	1.101765	0.104491	-0.240994
C50	C	1.797503	0.017593	0.632787
H51	H	1.797497	0.017580	0.736840
H52	H	1.814438	0.062311	0.598124
H53	H	1.860786	-0.017150	0.598105
H54	H	1.095626	0.055494	0.344928
H55	H	1.647177	-0.052229	0.381605
C56	C	1.719377	-0.559114	-0.000143
H57	H	1.786688	-0.595859	-0.000167
H58	H	1.724898	-0.531022	0.084800
H59	H	1.724872	-0.531025	-0.085107
H60	H	1.271133	-0.539109	-0.000067
C61	C	1.246435	-0.235349	-0.000076
H62	H	1.261535	-0.285055	-0.000066
H63	H	1.199725	-0.220220	-0.085020
H64	H	1.199730	-0.220222	0.084887
C65	C	1.086850	0.172523	0.350326
H66	H	1.013361	0.201822	0.378942
H67	H	1.131450	0.195843	0.278459
H68	H	1.139482	0.162336	0.433262
C69	C	0.853436	0.166999	0.365517
H70	H	0.764555	0.165684	0.365511
H71	H	0.873264	0.208080	0.316481
H72	H	0.883040	0.167434	0.463624
C73	C	1.303026	0.201524	0.660934
H74	H	1.315298	0.194789	0.763233
H75	H	1.219263	0.193508	0.635807
H76	H	1.316409	0.248196	0.635811
C77	C	1.715321	-0.712063	-0.000130
H78	H	1.784331	-0.684568	-0.000126
H79	H	1.719329	-0.740802	-0.085073
H80	H	1.719324	-0.740795	0.084835
C81	C	1.790176	0.024402	0.358952
H82	H	1.844817	0.034623	0.436438
H83	H	1.770803	0.065057	0.300393
H84	H	1.830614	-0.012315	0.300392
H85	H	1.267613	-0.671248	-0.000054
C86	C	1.627735	-0.067082	0.640808
H87	H	1.610043	-0.097587	0.563316
H88	H	1.554380	-0.056831	0.699379
H89	H	1.694285	-0.089100	0.699353
H90	H	1.327486	0.188091	0.360845
H91	H	0.864134	0.101011	-0.241030
C92	C	1.727108	-0.267976	-0.000124
H93	H	1.796120	-0.240483	-0.000112
H94	H	1.731113	-0.296711	-0.085074
H95	H	1.731110	-0.296713	0.084834
H96	H	1.698191	-0.123216	-0.000098
H97	H	0.888853	0.050900	0.333600
C98	C	1.250485	-0.082400	-0.000071
H99	H	1.268163	-0.034919	-0.000085
H100	H	1.203140	-0.091144	0.084877
H101	H	1.203150	-0.091145	-0.085030
