data_functionalizedCrystal
_audit_creation_method	'MofGen! by Chris Wilmer'
_symmetry_space_group_name_H-M	'P1'
_symmetry_Int_Tables_number	1
_symmetry_cell_setting	triclinic
loop_
_symmetry_equiv_pos_as_xyz
  x,y,z
_cell_length_a	10.489741
_cell_length_b	10.489741
_cell_length_c	22.610064
_cell_angle_alpha	89.986620
_cell_angle_beta	89.998827
_cell_angle_gamma	95.460826
loop_
_atom_site_label
_atom_site_type_symbol
_atom_site_fract_x
_atom_site_fract_y
_atom_site_fract_z
O1	O	1.694047	-0.179985	0.049148
O2	O	1.322851	-0.196878	0.049157
O3	O	1.516895	-0.002834	0.049148
O4	O	1.500002	-0.374029	0.049156
O5	O	1.516892	-0.002793	-0.049221
O6	O	1.322848	-0.196837	-0.049212
O7	O	1.694044	-0.179945	-0.049222
Zn8	Zn	1.508446	-0.188385	-0.064835
Zn9	Zn	1.508449	-0.188438	0.064770
O10	O	1.500000	-0.373989	-0.049213
C11	C	1.275318	-0.195582	-0.000027
C12	C	1.133688	-0.191765	-0.000023
C13	C	1.065548	-0.068300	-0.000031
C14	C	0.973423	-0.126643	0.048470
C15	C	0.973454	-0.126633	-0.048514
C16	C	1.043428	-0.250159	0.048518
C17	C	1.043469	-0.250131	-0.048510
C18	C	0.951371	-0.308564	0.000003
C19	C	1.515618	0.044718	-0.000036
C20	C	1.511801	0.186348	-0.000035
C21	C	1.741577	-0.181241	-0.000037
C22	C	1.883206	-0.185058	-0.000036
N23	N	1.508452	-0.188347	-0.153288
C24	C	1.501277	-0.421541	-0.000028
C25	C	1.505094	-0.563170	-0.000025
C26	C	1.388336	0.254488	-0.000027
C27	C	1.446658	0.346630	-0.048530
C28	C	1.446690	0.346565	0.048455
C29	C	1.570174	0.276625	-0.048577
C30	C	1.570189	0.276550	0.048451
C31	C	1.628600	0.368665	-0.000064
N32	N	1.508452	-0.188465	0.153223
C33	C	1.586382	-0.266691	0.438066
C34	C	1.586383	-0.266699	0.376147
O35	O	1.652669	-0.333245	0.344124
N36	N	1.508471	-0.188425	0.345175
C37	C	1.430564	-0.110128	0.376127
O38	O	1.364295	-0.043550	0.344098
C39	C	1.430571	-0.110114	0.438046
C40	C	1.508478	-0.188403	0.469014
C41	C	1.664284	-0.344973	0.469035
C42	C	1.664281	-0.344966	0.530950
C43	C	1.586377	-0.266678	0.561898
C44	C	1.508475	-0.188397	0.530930
C45	C	1.352670	-0.031811	0.468996
C46	C	1.352685	-0.031803	0.530919
C47	C	1.430592	-0.110092	0.561888
C48	C	1.430567	-0.110102	0.623793
N49	N	1.508479	-0.188376	0.654764
C50	C	1.586384	-0.266664	0.623817
C51	C	1.430557	-0.110162	0.246093
C52	C	1.430542	-0.110181	0.184176
C53	C	1.586364	-0.266751	0.184200
C54	C	1.586371	-0.266737	0.246118
C55	C	1.508468	-0.188436	0.277065
C56	C	1.586371	-0.266645	0.753844
C57	C	1.586357	-0.266635	0.815765
C58	C	1.430541	-0.110061	0.815736
C59	C	1.430549	-0.110075	0.753820
C60	C	1.508474	-0.188371	0.722876
O61	O	1.364319	-0.043586	0.655854
O62	O	1.652654	-0.333219	0.655853
H63	H	1.115238	0.033196	0.000027
H64	H	1.074257	-0.302376	0.089568
H65	H	1.394435	0.377512	0.089464
Cl66	Cl	1.762234	-0.443408	0.430140
H67	H	1.649809	-0.330488	0.271329
H68	H	0.901947	-0.410168	0.000031
H69	H	1.649796	-0.330499	0.158991
H70	H	1.286824	0.204837	-0.000074
H71	H	1.649826	-0.330400	0.728656
H72	H	1.367087	-0.046446	0.158967
H73	H	1.074514	-0.302312	-0.089515
H74	H	1.394416	0.377659	-0.089533
H75	H	1.367107	-0.046404	0.271286
Cl76	Cl	1.650761	0.229057	-0.111957
H77	H	1.730204	0.418089	-0.000093
H78	H	0.942475	-0.074353	-0.089519
H79	H	1.622386	0.245488	0.089456
Cl80	Cl	1.684296	-0.365072	0.854692
Cl81	Cl	1.762208	-0.443412	0.569872
Cl82	Cl	1.254723	0.066616	0.430080
H83	H	1.289247	0.031962	0.556113
H84	H	1.367095	-0.046342	0.728604
H85	H	1.367109	-0.046325	0.840944
H86	H	0.942410	-0.074420	0.089473
