data_functionalizedCrystal
_audit_creation_method	'MofGen! by Chris Wilmer'
_symmetry_space_group_name_H-M	'P1'
_symmetry_Int_Tables_number	1
_symmetry_cell_setting	triclinic
loop_
_symmetry_equiv_pos_as_xyz
  x,y,z
_cell_length_a	6.817900
_cell_length_b	15.866870
_cell_length_c	16.305550
_cell_angle_alpha	112.498803
_cell_angle_beta	103.455250
_cell_angle_gamma	102.655915
loop_
_atom_site_label
_atom_site_type_symbol
_atom_site_fract_x
_atom_site_fract_y
_atom_site_fract_z
V1	V	-4.051892	-0.133572	-0.304568
O2	O	-4.012769	0.005585	-0.256287
O3	O	-4.028396	-0.264050	-0.343343
O4	O	-4.002974	-0.131883	-0.418760
O5	O	-4.038366	-0.127496	-0.180349
V6	V	-4.532361	-0.116884	-0.284747
O7	O	-4.319852	-0.170179	-0.348047
O8	O	-4.714598	-0.080277	-0.241268
O9	O	-4.332650	0.013593	-0.245972
O10	O	-4.688881	-0.256042	-0.333028
O11	O	-4.663283	-0.122960	-0.408966
O12	O	-4.358072	-0.118573	-0.170555
C13	C	-3.879472	-0.295846	-0.349082
C14	C	-3.941544	-0.402515	-0.381546
C15	C	-3.847043	-0.127253	-0.445281
C16	C	-3.888495	-0.126736	-0.538902
C17	C	-3.931812	-0.683673	-0.080408
C18	C	-3.990147	-0.783910	-0.110942
C19	C	-4.075699	-0.811764	-0.274110
C20	C	-4.017359	-0.711528	-0.243590
C21	C	-3.945421	-0.647489	-0.146738
C22	C	-4.030968	-0.675344	-0.309919
C23	C	-3.972644	-0.575116	-0.279401
C24	C	-3.900711	-0.511072	-0.182553
C25	C	-3.887097	-0.547262	-0.116220
C26	C	-4.102922	-0.739384	-0.406771
C27	C	-4.116531	-0.703201	-0.473100
C28	C	-4.058192	-0.602971	-0.442582
C29	C	-3.986259	-0.538927	-0.345735
C30	C	-4.071807	-0.566781	-0.508916
C31	C	-4.013483	-0.466554	-0.478398
C32	C	-3.927935	-0.438699	-0.315217
C33	C	-4.039197	-0.124730	-0.879024
C34	C	-3.802006	-0.118776	-0.836244
C35	C	-3.758992	-0.119712	-0.739040
C36	C	-3.964430	-0.125724	-0.710285
C37	C	-4.149659	-0.220491	-0.790381
C38	C	-4.191420	-0.219955	-0.887764
C39	C	-4.077045	-0.036675	-0.805798
C40	C	-4.028971	-0.035924	-0.707722
C41	C	-3.922189	-0.126290	-0.614923
C42	C	-4.081448	-0.124171	-0.974389
C43	C	-4.144918	0.045385	-0.240233
C44	C	-4.062084	0.152053	-0.207774
C45	C	-4.177347	-0.123206	-0.144030
C46	C	-4.115132	-0.123719	-0.050407
H47	H	-3.853231	-0.429461	-0.157708
N48	N	-3.976274	-0.820892	-0.043199
N49	N	-4.140834	-0.877507	-0.046468
H50	H	-4.131047	-0.903630	0.001371
H51	H	-4.176033	-0.034745	-0.686008
N52	N	-3.583886	-0.034247	-0.668502
N53	N	-3.611207	0.024315	-0.598559
H54	H	-3.487526	0.084674	-0.548741
H55	H	-3.704853	-0.183706	-0.742647
N56	N	-4.149204	-0.877195	-0.373035
N57	N	-4.201284	-0.966682	-0.400274
H58	H	-4.253196	-1.012892	-0.470141
H59	H	-4.150412	-0.820995	-0.431616
N60	N	-3.813572	-0.481852	-0.017282
N61	N	-3.801398	-0.514166	0.041938
H62	H	-3.749469	-0.467971	0.111810
N63	N	-4.190036	-0.768631	-0.572025
N64	N	-4.242117	-0.858118	-0.599264
H65	H	-4.294028	-0.904328	-0.669131
H66	H	-3.894466	0.034171	-0.651547
H67	H	-3.873200	-0.631528	-0.001541
N68	N	-4.411488	-0.230366	-0.926108
N69	N	-4.533773	-0.238010	-0.880927
H70	H	-4.689197	-0.245367	-0.908005
N71	N	-4.145330	-0.632214	-0.607841
N72	N	-4.197423	-0.721701	-0.635077
H73	H	-4.249355	-0.767914	-0.704945
H74	H	-3.682722	-0.050317	-0.827319
H75	H	-3.769062	-0.182040	-0.887429
N76	N	-4.027401	-0.429602	-0.546161
N77	N	-4.091630	-0.486788	-0.632631
H78	H	-4.101469	-0.460692	-0.680492
H79	H	-4.168074	-0.286616	-0.938875
N80	N	-4.343671	-0.230302	-0.769705
N81	N	-4.347595	-0.167409	-0.695529
H82	H	-4.484614	-0.174335	-0.680923
N83	N	-4.096168	-0.304134	-0.795293
N84	N	-3.921813	-0.294190	-0.739923
H85	H	-3.884022	-0.353260	-0.743391
H86	H	-3.971856	0.035130	-0.796837
N87	N	-4.293745	-0.041095	-0.840820
N88	N	-4.419948	-0.108734	-0.919340
H89	H	-4.572994	-0.111864	-0.944082
N90	N	-3.854461	-0.373264	-0.216288
N91	N	-3.802409	-0.283779	-0.189058
H92	H	-3.750525	-0.237564	-0.119193
