data_functionalizedCrystal
_audit_creation_method	'MofGen! by Chris Wilmer'
_symmetry_space_group_name_H-M	'P1'
_symmetry_Int_Tables_number	1
_symmetry_cell_setting	triclinic
loop_
_symmetry_equiv_pos_as_xyz
  x,y,z
_cell_length_a	29.917948
_cell_length_b	29.917021
_cell_length_c	29.913391
_cell_angle_alpha	60.005297
_cell_angle_beta	60.010472
_cell_angle_gamma	59.993667
loop_
_atom_site_label
_atom_site_type_symbol
_atom_site_fract_x
_atom_site_fract_y
_atom_site_fract_z
O1	O	0.061938	-0.653075	0.546110
O2	O	0.023328	-0.508466	0.440017
O3	O	0.114898	-0.599963	0.439941
O4	O	-0.029633	-0.561578	0.546186
O5	O	0.145278	-0.569587	0.470242
O6	O	0.053708	-0.478090	0.470318
O7	O	0.092318	-0.622699	0.576411
Zn8	Zn	0.077836	-0.545572	0.528175
Zn9	Zn	0.037809	-0.585593	0.488253
O10	O	0.000747	-0.531202	0.576487
N11	N	0.105154	-0.518262	0.555424
N12	N	0.010496	-0.612908	0.461004
C13	C	0.164136	-0.309209	0.614352
C14	C	0.164251	-0.459335	0.764424
C15	C	0.164150	-0.459313	0.614341
C16	C	0.314282	-0.459305	0.614278
C17	C	0.180666	-0.358742	0.630849
C18	C	0.180732	-0.442815	0.714891
C19	C	0.264747	-0.442797	0.630809
C20	C	0.180676	-0.442802	0.630843
C21	C	0.143097	-0.246161	0.593354
C22	C	0.143120	-0.480326	0.593337
C23	C	0.201706	-0.421790	0.651848
C24	C	0.405963	-0.443499	0.565998
C25	C	0.463273	-0.462598	0.546874
C26	C	0.463297	-0.555329	0.582235
C27	C	0.405988	-0.536228	0.601360
C28	C	0.156905	-0.217495	0.537012
C29	C	0.137776	-0.160180	0.517926
C30	C	0.091035	-0.160201	0.611524
C31	C	0.110164	-0.217516	0.630611
C32	C	0.086772	-0.466488	0.607209
C33	C	0.067659	-0.485590	0.588108
C34	C	0.161236	-0.532368	0.541277
C35	C	0.180352	-0.513266	0.560371
C36	C	0.086942	-0.466529	0.856152
C37	C	0.067877	-0.485647	0.913465
C38	C	0.161489	-0.532436	0.913415
C39	C	0.180552	-0.513318	0.856101
C40	C	0.143277	-0.480363	0.827471
C41	C	0.377323	-0.480313	0.593239
C42	C	-0.111377	-0.650681	0.422736
C43	C	-0.027364	-0.650787	0.422929
C44	C	-0.048335	-0.671770	0.401835
C45	C	-0.064214	-0.763416	0.450041
C46	C	-0.045160	-0.820731	0.469172
C47	C	0.047573	-0.820841	0.433980
C48	C	0.028517	-0.763527	0.414847
C49	C	-0.140115	-0.664483	0.479060
C50	C	-0.197425	-0.645309	0.498058
C51	C	-0.197256	-0.598535	0.404405
C52	C	-0.139946	-0.617709	0.385407
C53	C	-0.041168	-0.594444	0.409067
C54	C	-0.022104	-0.575374	0.428250
C55	C	0.024568	-0.668986	0.475143
C56	C	0.005504	-0.688059	0.455967
C57	C	-0.041000	-0.594453	0.310105
C58	C	-0.021803	-0.575386	0.252792
C59	C	0.024951	-0.669004	0.252854
C60	C	0.005755	-0.688070	0.310168
C61	C	-0.027222	-0.650793	0.338792
C62	C	-0.027377	-0.734817	0.422881
N63	N	0.491125	-0.518235	0.555255
O64	O	0.678406	-0.527360	0.420422
O65	O	0.678588	-0.633782	0.564887
O66	O	0.678516	-0.633539	0.473265
O67	O	0.678478	-0.527602	0.512044
O68	O	0.587469	-0.603251	0.503685
O69	O	0.587541	-0.603493	0.595307
O70	O	0.587359	-0.497071	0.450842
Zn71	Zn	0.572994	-0.545473	0.527905
Zn72	Zn	0.692953	-0.585380	0.487825
O73	O	0.587431	-0.497313	0.542465
N74	N	0.774821	-0.612618	0.460470
N75	N	0.105125	-0.132348	0.555445
O76	O	-0.029633	0.055031	0.546198
O77	O	0.114837	0.055047	0.439777
O78	O	0.023189	0.055024	0.440050
O79	O	0.062016	0.055054	0.545925
O80	O	0.053572	-0.036031	0.470398
O81	O	0.145220	-0.036008	0.470125
O82	O	0.000750	-0.036024	0.576546
Zn83	Zn	0.077809	-0.050473	0.528154
Zn84	Zn	0.037778	0.069496	0.488169
O85	O	0.092399	-0.036001	0.576273
N86	N	0.010456	0.151371	0.460879
N87	N	0.105414	-0.518315	0.941279
O88	O	0.096182	-0.653057	1.128644
O89	O	-0.010215	-0.508539	1.128670
O90	O	-0.009968	-0.600172	1.128636
O91	O	0.095935	-0.561424	1.128678
O92	O	0.020367	-0.569808	1.037586
O93	O	0.020121	-0.478175	1.037620
O94	O	0.126517	-0.622693	1.037594
Zn95	Zn	0.078135	-0.545613	1.023151
Zn96	Zn	0.038167	-0.585619	1.143113
O97	O	0.126270	-0.531061	1.037628
N98	N	0.010887	-0.612923	1.224985
C99	C	0.034899	-0.475056	0.440551
C100	C	0.148298	-0.588365	0.440456
C101	C	0.080746	-0.656109	0.575876
C102	C	-0.032653	-0.542801	0.575971
C103	C	0.633086	-0.633292	0.598298
C104	C	0.632998	-0.632993	0.484834
C105	C	0.632857	-0.497559	0.417433
C106	C	0.632949	-0.497860	0.530895
C107	C	0.148191	0.009634	0.440259
C108	C	0.034733	0.009493	0.440634
C109	C	-0.032641	0.009502	0.576027
C110	C	0.080854	0.009529	0.575690
C111	C	-0.009699	-0.475150	1.083148
C112	C	-0.009388	-0.588620	1.083088
C113	C	0.126001	-0.656082	1.083116
C114	C	0.125697	-0.542605	1.083155
H115	H	0.022003	-0.474373	0.936811
N116	N	0.169771	-0.531626	1.083160
H117	H	0.203659	-0.565262	1.083154
H118	H	0.156303	-0.522372	1.116919
N119	N	0.633015	-0.677080	0.473851
H120	H	0.666792	-0.710179	0.478158
H121	H	0.632954	-0.662830	0.435323
H122	H	0.089168	0.009538	0.608950
H123	H	-0.043102	-0.433644	1.083156
H124	H	0.632798	-0.464146	0.375944
N125	N	0.633152	-0.677554	0.653254
H126	H	0.599413	-0.664248	0.682902
H127	H	0.666937	-0.686691	0.660304
N128	N	0.632937	-0.453776	0.541879
H129	H	0.632979	-0.467981	0.580408
H130	H	0.599160	-0.420691	0.537543
H131	H	-0.074131	0.009496	0.609437
H132	H	0.159407	-0.697586	1.083101
N133	N	-0.053445	-0.599571	1.083020
H134	H	-0.062529	-0.631322	1.116753
H135	H	-0.039964	-0.608775	1.049226
N136	N	0.023976	-0.420031	0.396415
H137	H	-0.007769	-0.412947	0.387327
H138	H	0.057652	-0.419883	0.362582
N139	N	0.203285	-0.599201	0.396264
H140	H	0.220748	-0.572309	0.385644
H141	H	0.198181	-0.594840	0.363209
H142	H	-0.074166	-0.534620	0.609333
N143	N	0.046736	-0.430962	0.825274
H144	H	0.008155	-0.425093	0.852141
H145	H	0.052595	-0.449554	0.801485
H146	H	0.191844	-0.559260	0.936723
H147	H	0.189596	0.009891	0.406765
H148	H	0.026418	0.009490	0.407371
H149	H	0.226428	-0.524588	0.832752
H150	H	0.056452	-0.439666	0.634048
H151	H	0.021776	-0.474310	0.599390
H152	H	0.191560	-0.559196	0.514439
H153	H	0.382671	-0.566208	0.623544
N154	N	0.241127	-0.528185	0.545410
H155	H	0.261812	-0.551951	0.521628
H156	H	0.251118	-0.548843	0.579866
H157	H	0.486634	-0.600858	0.588843
H158	H	0.382624	-0.397967	0.559385
N159	N	0.494170	-0.422894	0.517495
H160	H	0.467315	-0.384572	0.515252
H161	H	0.517928	-0.424480	0.479331
H162	H	0.183721	-0.240813	0.506671
H163	H	0.149018	-0.136838	0.472047
H164	H	0.098918	-0.240852	0.676488
N165	N	0.055527	-0.129301	0.651707
H166	H	0.049689	-0.156160	0.690296
H167	H	0.019006	-0.105525	0.645845
H168	H	-0.033030	-0.529506	0.229442
H169	H	-0.067855	-0.564093	0.333408
H170	H	0.051792	-0.699362	0.229554
N171	N	-0.109299	-0.700047	0.519318
H172	H	-0.136202	-0.705877	0.557883
H173	H	-0.085517	-0.681472	0.513488
N174	N	0.091669	-0.711132	0.620016
H175	H	0.100891	-0.740733	0.606639
H176	H	0.058007	-0.711264	0.653863
H177	H	-0.067926	-0.564092	0.382165
N178	N	0.020623	-0.748841	0.341105
H179	H	0.006639	-0.765954	0.331082
H180	H	0.003461	-0.755221	0.381746
N181	N	-0.036999	-0.514603	0.413314
H182	H	-0.060715	-0.493884	0.389476
H183	H	-0.002517	-0.504682	0.392731
H184	H	0.051334	-0.699339	0.502037
H185	H	0.058518	-0.740243	0.392731
N186	N	0.020387	-0.748827	0.470904
H187	H	0.006318	-0.765943	0.512013
H188	H	0.061499	-0.765963	0.456934
H189	H	-0.075156	-0.844016	0.491279
N190	N	0.107858	-0.851813	0.425325
H191	H	0.128305	-0.824998	0.405215
H192	H	0.122148	-0.875603	0.403015
H193	H	-0.109727	-0.740044	0.456586
H194	H	-0.220518	-0.571693	0.374008
N195	N	-0.228430	-0.660190	0.558810
H196	H	-0.218492	-0.646202	0.575994
H197	H	-0.218489	-0.701301	0.575915
N198	N	-0.108945	-0.602820	0.324654
H199	H	-0.135740	-0.579022	0.303890
H200	H	-0.085168	-0.637304	0.314713
