data_functionalizedCrystal
_audit_creation_method	'MofGen! by Chris Wilmer'
_symmetry_space_group_name_H-M	'P1'
_symmetry_Int_Tables_number	1
_symmetry_cell_setting	triclinic
loop_
_symmetry_equiv_pos_as_xyz
  x,y,z
_cell_length_a	19.188930
_cell_length_b	9.065218
_cell_length_c	8.140239
_cell_angle_alpha	90.001686
_cell_angle_beta	90.016597
_cell_angle_gamma	84.080333
loop_
_atom_site_label
_atom_site_type_symbol
_atom_site_fract_x
_atom_site_fract_y
_atom_site_fract_z
O1	O	-0.927574	-0.184174	-0.137136
O2	O	-0.724455	-0.208967	-0.137023
O3	O	-0.830213	0.018217	-0.137078
O4	O	-0.821816	-0.411359	-0.137080
O5	O	-0.830207	0.018220	0.136149
O6	O	-0.724449	-0.208965	0.136205
O7	O	-0.927568	-0.184172	0.136091
Zn8	Zn	-0.826008	-0.196568	0.179529
Zn9	Zn	-0.826016	-0.196571	-0.180460
O10	O	-0.821810	-0.411356	0.136147
C11	C	-0.698435	-0.208163	-0.000395
C12	C	-0.620912	-0.205753	-0.000351
C13	C	-0.829403	0.073177	-0.000467
C14	C	-0.826990	0.236936	-0.000473
C15	C	-0.953588	-0.184976	-0.000540
C16	C	-1.031112	-0.187386	-0.000594
C17	C	-0.577024	-0.339058	-0.000378
C18	C	-0.504182	-0.336793	-0.000396
C19	C	-0.475232	-0.201217	-0.000421
C20	C	-0.519130	-0.067895	-0.000385
C21	C	-0.591970	-0.070163	-0.000350
N22	N	-0.366449	-0.097586	-0.093477
N23	N	-0.297254	-0.095441	-0.093514
C24	C	-0.255771	-0.194375	-0.000521
N25	N	-0.286095	-0.295558	0.092489
N26	N	-0.355297	-0.297708	0.092518
C27	C	-0.396251	-0.198742	-0.000457
C28	C	-0.132899	-0.325234	-0.000565
C29	C	-0.060056	-0.322964	-0.000572
C30	C	-0.075006	-0.054061	-0.000578
C31	C	-0.147847	-0.056335	-0.000554
C32	C	-0.176789	-0.191925	-0.000555
C33	C	-0.822620	-0.466316	-0.000468
C34	C	-0.825033	-0.630075	-0.000472
N35	N	-0.826008	-0.196565	0.425211
N36	N	-0.826021	-0.196563	-0.426143
H37	H	-0.600583	-0.449466	-0.000382
O38	O	-0.461639	-0.466427	-0.000509
C39	C	-0.454493	-0.733376	-0.000454
C40	C	-0.502750	-0.586679	-0.000357
H41	H	-0.487712	-0.830638	-0.000296
H42	H	-0.420059	-0.739118	-0.114848
H43	H	-0.419975	-0.738966	0.113842
H44	H	-0.537311	-0.580991	-0.114575
H45	H	-0.537136	-0.580999	0.114114
H46	H	-0.183582	0.052216	-0.000541
O47	O	-0.634507	0.059472	-0.000409
C48	C	-0.641648	0.326420	-0.000316
C49	C	-0.593393	0.179720	-0.000282
H50	H	-0.608427	0.423679	-0.000178
H51	H	-0.676130	0.332180	-0.114677
H52	H	-0.676117	0.331998	0.114013
H53	H	-0.558880	0.174044	-0.114534
H54	H	-0.558958	0.174021	0.114155
H55	H	-0.024323	-0.431521	-0.000585
H56	H	-0.495555	0.042493	-0.000427
O57	O	-0.160903	-0.457068	-0.000476
C58	C	-0.138389	-0.723537	-0.000566
C59	C	-0.106585	-0.574342	-0.000629
H60	H	-0.094489	-0.818392	-0.000725
H61	H	-0.172072	-0.731419	0.113817
H62	H	-0.172161	-0.731244	-0.114873
H63	H	-0.072781	-0.566534	0.113601
H64	H	-0.072943	-0.566524	-0.115088
O65	O	-0.046778	0.077510	-0.000678
C66	C	0.058810	0.200180	-0.000635
C67	C	0.026931	0.051068	-0.000566
H68	H	0.118408	0.178853	-0.000510
H69	H	0.040831	0.266051	-0.115004
H70	H	0.040784	0.266037	0.113686
H71	H	0.044942	-0.014909	-0.114810
H72	H	0.044908	-0.014690	0.113879
