data_functionalizedCrystal
_audit_creation_method	'MofGen! by Chris Wilmer'
_symmetry_space_group_name_H-M	'P1'
_symmetry_Int_Tables_number	1
_symmetry_cell_setting	triclinic
loop_
_symmetry_equiv_pos_as_xyz
  x,y,z
_cell_length_a	27.731994
_cell_length_b	27.731993
_cell_length_c	26.809956
_cell_angle_alpha	90.002784
_cell_angle_beta	89.987196
_cell_angle_gamma	97.379399
loop_
_atom_site_label
_atom_site_type_symbol
_atom_site_fract_x
_atom_site_fract_y
_atom_site_fract_z
O1	O	-0.057386	0.640937	-0.041337
O2	O	0.275947	0.974271	0.291997
O3	O	0.609281	1.307604	0.625330
O4	O	-0.066159	0.500138	-0.041366
O5	O	0.267174	0.833472	0.291967
O6	O	0.600507	1.166805	0.625301
O7	O	0.008627	0.574924	-0.041358
O8	O	0.341960	0.908258	0.291975
O9	O	0.675293	1.241591	0.625309
O10	O	-0.132172	0.566151	-0.041345
O11	O	0.201161	0.899485	0.291989
O12	O	0.534494	1.232818	0.625322
O13	O	0.008615	0.574910	0.041601
O14	O	0.341949	0.908243	0.374935
O15	O	0.675282	1.241577	0.708268
O16	O	-0.066171	0.500124	0.041593
O17	O	0.267162	0.833458	0.374927
O18	O	0.600496	1.166791	0.708260
O19	O	-0.057398	0.640923	0.041622
O20	O	0.275936	0.974257	0.374956
O21	O	0.609269	1.307590	0.708289
Zn22	Zn	-0.061786	0.570521	0.054779
Zn23	Zn	0.271547	0.903855	0.388113
Zn24	Zn	0.604881	1.237188	0.721446
Zn25	Zn	-0.061771	0.570540	-0.054523
Zn26	Zn	0.271562	0.903873	0.278810
Zn27	Zn	0.604896	1.237207	0.612144
O28	O	-0.132184	0.566137	0.041615
O29	O	0.201150	0.899471	0.374948
O30	O	0.534483	1.232804	0.708281
C31	C	-0.065985	0.482124	0.000110
C32	C	0.267348	0.815457	0.333443
C33	C	0.600682	1.148791	0.666777
C34	C	-0.065443	0.428468	0.000098
C35	C	0.267891	0.761801	0.333432
C36	C	0.601224	1.095134	0.666765
C37	C	-0.061506	0.045316	-0.045099
C38	C	0.271828	0.378649	0.288234
C39	C	0.605161	0.711983	0.621568
C40	C	-0.063573	0.246973	-0.045112
C41	C	0.269760	0.580306	0.288221
C42	C	0.603094	0.913640	0.621554
O43	O	-0.063815	0.273053	-0.083572
O44	O	0.269518	0.606386	0.249761
O45	O	0.602851	0.939719	0.583095
N46	N	-0.063838	0.272186	0.000108
N47	N	0.269496	0.605519	0.333441
N48	N	0.602829	0.938852	0.666774
C49	C	-0.063583	0.246981	0.045334
C50	C	0.269751	0.580315	0.378668
C51	C	0.603084	0.913648	0.712001
O52	O	-0.063850	0.273054	0.083797
O53	O	0.269483	0.606387	0.417130
O54	O	0.602816	0.939720	0.750463
C55	C	-0.061512	0.045326	0.045347
C56	C	0.271821	0.378659	0.378681
C57	C	0.605155	0.711992	0.712014
C58	C	-0.061252	0.020115	0.000124
C59	C	0.272081	0.353448	0.333457
C60	C	0.605414	0.686782	0.666791
C61	C	-0.061245	0.020105	-0.090318
C62	C	0.272088	0.353439	0.243015
C63	C	0.605421	0.686772	0.576348
C64	C	-0.060731	-0.030306	-0.090315
C65	C	0.272602	0.303027	0.243019
C66	C	0.605935	0.636360	0.576352
C67	C	-0.060478	-0.055507	-0.045091
C68	C	0.272856	0.277826	0.288242
C69	C	0.606189	0.611159	0.621575
C70	C	-0.060738	-0.030297	0.000128
C71	C	0.272595	0.303037	0.333461
C72	C	0.605929	0.636370	0.666795
C73	C	-0.061253	0.020123	0.090573
C74	C	0.272080	0.353456	0.423907
C75	C	0.605413	0.686789	0.757240
C76	C	-0.060735	-0.030294	0.090572
C77	C	0.272599	0.303039	0.423906
C78	C	0.605932	0.636372	0.757239
C79	C	-0.060475	-0.055505	0.045349
C80	C	0.272859	0.277828	0.378683
C81	C	0.606192	0.611162	0.712016
C82	C	-0.059970	-0.105909	0.045355
C83	C	0.273363	0.227424	0.378688
C84	C	0.606696	0.560757	0.712022
N85	N	-0.059705	-0.131122	0.000135
N86	N	0.273628	0.202212	0.333468
N87	N	0.606961	0.535545	0.666801
C88	C	-0.059959	-0.105921	-0.045088
C89	C	0.273374	0.227413	0.288245
C90	C	0.606708	0.560746	0.621578
C91	C	-0.064671	0.352853	0.045324
C92	C	0.268663	0.686186	0.378658
C93	C	0.601996	1.019520	0.711991
C94	C	-0.065189	0.403267	0.045321
C95	C	0.268144	0.736600	0.378655
C96	C	0.601478	1.069933	0.711988
C97	C	-0.065178	0.403255	-0.045126
C98	C	0.268155	0.736588	0.288208
C99	C	0.601488	1.069922	0.621541
C100	C	-0.064663	0.352840	-0.045122
C101	C	0.268670	0.686174	0.288211
C102	C	0.602003	1.019507	0.621545
C103	C	-0.064406	0.327641	0.000104
C104	C	0.268928	0.660974	0.333438
C105	C	0.602261	0.994307	0.666771
C106	C	-0.058880	-0.211789	-0.045077
C107	C	0.274453	0.121545	0.288256
C108	C	0.607787	0.454878	0.621590
C109	C	-0.058368	-0.262205	-0.045069
C110	C	0.274966	0.071128	0.288264
C111	C	0.608299	0.404462	0.621597
C112	C	-0.058376	-0.262189	0.045377
C113	C	0.274957	0.071144	0.378711
C114	C	0.608291	0.404478	0.712044
C115	C	-0.058891	-0.211777	0.045370
C116	C	0.274443	0.121556	0.378703
C117	C	0.607776	0.454889	0.712037
C118	C	-0.059141	-0.186578	0.000139
C119	C	0.274192	0.146755	0.333472
C120	C	0.607526	0.480088	0.666805
O121	O	-0.059722	-0.132019	0.083794
O122	O	0.273611	0.201314	0.417128
O123	O	0.606945	0.534647	0.750461
O124	O	-0.059681	-0.132001	-0.083545
O125	O	0.273653	0.201333	0.249789
O126	O	0.606986	0.534666	0.583122
C127	C	-0.062020	0.095728	-0.045103
C128	C	0.271313	0.429061	0.288231
C129	C	0.604647	0.762394	0.621564
C130	C	-0.062280	0.120938	0.000117
C131	C	0.271053	0.454271	0.333450
C132	C	0.604386	0.787605	0.666783
C133	C	-0.062027	0.095737	0.045340
C134	C	0.271307	0.429070	0.378673
C135	C	0.604640	0.762404	0.712006
C136	C	-0.062799	0.171352	0.000113
C137	C	0.270534	0.504685	0.333447
C138	C	0.603868	0.838018	0.666780
C139	C	-0.063052	0.196553	-0.045110
C140	C	0.270281	0.529886	0.288224
C141	C	0.603614	0.863219	0.621557
C142	C	-0.062788	0.171340	-0.090330
C143	C	0.270546	0.504674	0.243004
C144	C	0.603879	0.838007	0.576337
C145	C	-0.062274	0.120929	-0.090326
C146	C	0.271060	0.454262	0.243007
C147	C	0.604393	0.787595	0.576341
C148	C	-0.062292	0.120950	0.090560
C149	C	0.271042	0.454283	0.423893
C150	C	0.604375	0.787616	0.757226
C151	C	-0.062806	0.171361	0.090552
C152	C	0.270527	0.504695	0.423886
C153	C	0.603860	0.838028	0.757219
C154	C	-0.063060	0.196562	0.045329
C155	C	0.270273	0.529896	0.378663
C156	C	0.603607	0.863229	0.711996
C157	C	-0.150185	0.566324	0.000137
C158	C	0.183148	0.899658	0.333470
C159	C	0.516481	1.232991	0.666804
C160	C	-0.203841	0.566867	0.000143
C161	C	0.129492	0.900200	0.333476
C162	C	0.462825	1.233534	0.666809
C163	C	-0.536553	0.570290	-0.045100
C164	C	-0.203220	0.903624	0.288234
C165	C	0.130114	1.236957	0.621567
C166	C	-0.738211	0.572352	-0.045107
C167	C	-0.404877	0.905685	0.288227
C168	C	-0.071544	1.239018	0.621560
O169	O	-0.764278	0.572646	-0.083566
O170	O	-0.430945	0.905979	0.249768
O171	O	-0.097611	1.239312	0.583101
N172	N	-0.763432	0.572600	0.000114
N173	N	-0.430099	0.905933	0.333447
N174	N	-0.096765	1.239267	0.666781
C175	C	-0.738235	0.572336	0.045340
C176	C	-0.404902	0.905669	0.378673
C177	C	-0.071568	1.239003	0.712007
O178	O	-0.764313	0.572600	0.083803
O179	O	-0.430980	0.905933	0.417136
O180	O	-0.097647	1.239266	0.750470
C181	C	-0.536578	0.570278	0.045346
C182	C	-0.203244	0.903611	0.378680
C183	C	0.130089	1.236945	0.712013
C184	C	-0.511360	0.570025	0.000123
C185	C	-0.178027	0.903358	0.333456
C186	C	0.155307	1.236692	0.666789
C187	C	-0.511335	0.570038	-0.090320
C188	C	-0.178002	0.903371	0.243013
C189	C	0.155331	1.236704	0.576347
C190	C	-0.460924	0.569520	-0.090318
C191	C	-0.127591	0.902853	0.243016
C192	C	0.205743	1.236186	0.576349
C193	C	-0.435731	0.569254	-0.045095
C194	C	-0.102398	0.902588	0.288238
C195	C	0.230936	1.235921	0.621571
C196	C	-0.460949	0.569507	0.000125
C197	C	-0.127615	0.902840	0.333458
C198	C	0.205718	1.236174	0.666791
C199	C	-0.511381	0.570018	0.090572
C200	C	-0.178048	0.903351	0.423905
C201	C	0.155286	1.236684	0.757238
C202	C	-0.460963	0.569504	0.090569
C203	C	-0.127630	0.902838	0.423903
C204	C	0.205703	1.236171	0.757236
C205	C	-0.435746	0.569251	0.045345
C206	C	-0.102412	0.902585	0.378679
C207	C	0.230921	1.235918	0.712012
C208	C	-0.385345	0.568724	0.045349
C209	C	-0.052011	0.902057	0.378683
C210	C	0.281322	1.235390	0.712016
N211	N	-0.360124	0.568475	0.000128
N212	N	-0.026790	0.901809	0.333462
N213	N	0.306543	1.235142	0.666795
C214	C	-0.385317	0.568741	-0.045094
C215	C	-0.051983	0.902074	0.288239
C216	C	0.281350	1.235407	0.621573
C217	C	-0.844108	0.573416	0.045333
C218	C	-0.510775	0.906749	0.378667
C219	C	-0.177441	1.240082	0.712000
C220	C	-0.894522	0.573929	0.045332
C221	C	-0.561189	0.907263	0.378665
C222	C	-0.227856	1.240596	0.711999
C223	C	-0.894495	0.573946	-0.045115
C224	C	-0.561161	0.907279	0.288218
C225	C	-0.227828	1.240612	0.621552
C226	C	-0.844080	0.573429	-0.045113
C227	C	-0.510747	0.906762	0.288220
C228	C	-0.177413	1.240095	0.621554
C229	C	-0.818887	0.573167	0.000113
C230	C	-0.485554	0.906501	0.333446
C231	C	-0.152220	1.239834	0.666779
C232	C	-0.279450	0.567652	-0.045086
C233	C	0.053883	0.900986	0.288247
C234	C	0.387217	1.234319	0.621581
C235	C	-0.229035	0.567132	-0.045080
C236	C	0.104299	0.900466	0.288254
C237	C	0.437632	1.233799	0.621587
C238	C	-0.229066	0.567118	0.045367
C239	C	0.104267	0.900452	0.378700
C240	C	0.437600	1.233785	0.712034
C241	C	-0.279478	0.567636	0.045361
C242	C	0.053856	0.900969	0.378694
C243	C	0.387189	1.234303	0.712028
C244	C	-0.304668	0.567904	0.000131
C245	C	0.028665	0.901238	0.333464
C246	C	0.361999	1.234571	0.666797
O247	O	-0.359246	0.568435	0.083788
O248	O	-0.025912	0.901768	0.417121
O249	O	0.307421	1.235102	0.750455
O250	O	-0.359228	0.568488	-0.083551
O251	O	-0.025895	0.901821	0.249782
O252	O	0.307439	1.235154	0.583115
C253	C	-0.586964	0.570808	-0.045102
C254	C	-0.253631	0.904142	0.288231
C255	C	0.079703	1.237475	0.621565
C256	C	-0.612182	0.571061	0.000118
C257	C	-0.278849	0.904394	0.333452
C258	C	0.054485	1.237728	0.666785
C259	C	-0.586989	0.570796	0.045341
C260	C	-0.253655	0.904129	0.378674
C261	C	0.079678	1.237462	0.712007
C262	C	-0.662596	0.571574	0.000117
C263	C	-0.329263	0.904908	0.333450
C264	C	0.004070	1.238241	0.666783
C265	C	-0.687789	0.571840	-0.045106
C266	C	-0.354456	0.905173	0.288228
C267	C	-0.021123	1.238506	0.621561
C268	C	-0.662568	0.571591	-0.090327
C269	C	-0.329235	0.904925	0.243007
C270	C	0.004098	1.238258	0.576340
C271	C	-0.612157	0.571073	-0.090324
C272	C	-0.278824	0.904407	0.243009
C273	C	0.054509	1.237740	0.576342
C274	C	-0.612210	0.571044	0.090561
C275	C	-0.278876	0.904377	0.423895
C276	C	0.054457	1.237711	0.757228
C277	C	-0.662621	0.571561	0.090556
C278	C	-0.329288	0.904895	0.423889
C279	C	0.004046	1.238228	0.757222
C280	C	-0.687814	0.571827	0.045333
C281	C	-0.354481	0.905160	0.378667
C282	C	-0.021148	1.238493	0.712000
C283	C	0.026628	0.574737	0.000119
C284	C	0.359962	0.908070	0.333452
C285	C	0.693295	1.241404	0.666785
C286	C	0.080285	0.574195	0.000110
C287	C	0.413618	0.907528	0.333443
C288	C	0.746951	1.240861	0.666776
C289	C	-0.057572	0.658938	0.000146
C290	C	0.275761	0.992271	0.333479
C291	C	0.609095	1.325604	0.666812
C292	C	-0.058114	0.712594	0.000154
C293	C	0.275219	1.045927	0.333487
C294	C	0.608552	1.379260	0.666821
N295	N	-0.061796	0.570512	0.129375
N296	N	0.271537	0.903846	0.462709
N297	N	0.604871	1.237179	0.796042
N298	N	-0.061757	0.570553	-0.129119
N299	N	0.271576	0.903886	0.204214
N300	N	0.604909	1.237220	0.537548
C301	C	-0.028664	0.603651	0.474005
C302	C	0.304670	0.936984	0.807338
C303	C	0.638003	1.270318	1.140672
C304	C	-0.028656	0.603662	0.682883
C305	C	0.304677	0.936996	1.016216
C306	C	0.638010	1.270329	1.349549
O307	O	-0.000489	0.631818	0.709890
O308	O	0.332844	0.965152	1.043223
O309	O	0.666177	1.298485	1.376556
N310	N	-0.061760	0.570543	0.709003
N311	N	0.271573	0.903876	1.042336
N312	N	0.604906	1.237209	1.375669
C313	C	-0.094866	0.537416	0.682900
C314	C	0.238467	0.870749	1.016233
C315	C	0.571800	1.204082	1.349566
O316	O	-0.123020	0.509242	0.709909
O317	O	0.210314	0.842576	1.043242
O318	O	0.543647	1.175909	1.376576
C319	C	-0.094871	0.537402	0.474023
C320	C	0.238462	0.870736	0.807356
C321	C	0.571796	1.204069	1.140690
C322	C	-0.061768	0.570527	0.447906
C323	C	0.271565	0.903861	0.781239
C324	C	0.604898	1.237194	1.114573
C325	C	0.004437	0.636773	0.447888
C326	C	0.337770	0.970106	0.781221
C327	C	0.671103	1.303440	1.114555
C328	C	0.004433	0.636772	0.395672
C329	C	0.337766	0.970105	0.729005
C330	C	0.671099	1.303438	1.062338
C331	C	-0.028672	0.603648	0.369572
C332	C	0.304662	0.936981	0.702906
C333	C	0.637995	1.270315	1.036239
C334	C	-0.061772	0.570526	0.395690
C335	C	0.271561	0.903859	0.729023
C336	C	0.604894	1.237193	1.062356
C337	C	-0.127974	0.504273	0.447921
C338	C	0.205359	0.837607	0.781255
C339	C	0.538692	1.170940	1.114588
C340	C	-0.127972	0.504272	0.395699
C341	C	0.205361	0.837605	0.729032
C342	C	0.538695	1.170939	1.062365
C343	C	-0.094869	0.537397	0.369582
C344	C	0.238464	0.870731	0.702915
C345	C	0.571798	1.204064	1.036248
C346	C	-0.094881	0.537401	0.317374
C347	C	0.238453	0.870734	0.650708
C348	C	0.571786	1.204068	0.984041
N349	N	-0.061777	0.570521	0.291254
N350	N	0.271557	0.903854	0.624588
N351	N	0.604890	1.237187	0.957921
C352	C	-0.028672	0.603644	0.317353
C353	C	0.304661	0.936978	0.650687
C354	C	0.637994	1.270311	0.984020
C355	C	-0.094862	0.537426	0.792563
C356	C	0.238471	0.870759	1.125896
C357	C	0.571805	1.204092	1.459230
C358	C	-0.094862	0.537430	0.844782
C359	C	0.238472	0.870763	1.178115
C360	C	0.571805	1.204096	1.511449
C361	C	-0.028651	0.603676	0.844761
C362	C	0.304682	0.937009	1.178095
C363	C	0.638016	1.270343	1.511428
C364	C	-0.028654	0.603674	0.792541
C365	C	0.304679	0.937007	1.125875
C366	C	0.638013	1.270341	1.459208
C367	C	-0.061758	0.570545	0.766443
C368	C	0.271575	0.903879	1.099777
C369	C	0.604908	1.237212	1.433110
C370	C	-0.028683	0.603639	0.207695
C371	C	0.304650	0.936972	0.541029
C372	C	0.637983	1.270306	0.874362
C373	C	-0.028692	0.603636	0.155475
C374	C	0.304642	0.936969	0.488808
C375	C	0.637975	1.270303	0.822141
C376	C	-0.094900	0.537388	0.155500
C377	C	0.238433	0.870721	0.488833
C378	C	0.571766	1.204055	0.822166
C379	C	-0.094894	0.537393	0.207716
C380	C	0.238439	0.870726	0.541049
C381	C	0.571773	1.204059	0.874383
C382	C	-0.061781	0.570520	0.233813
C383	C	0.271552	0.903853	0.567146
C384	C	0.604885	1.237187	0.900479
O385	O	-0.123029	0.509256	0.290335
O386	O	0.210304	0.842589	0.623669
O387	O	0.543637	1.175923	0.957002
O388	O	-0.000516	0.631806	0.290335
O389	O	0.332817	0.965140	0.623668
O390	O	0.666151	1.298473	0.957002
C391	C	-0.028660	0.603652	0.526221
C392	C	0.304673	0.936986	0.859555
C393	C	0.638007	1.270319	1.192888
C394	C	-0.061760	0.570530	0.552338
C395	C	0.271573	0.903864	0.885672
C396	C	0.604906	1.237197	1.219005
C397	C	-0.094865	0.537407	0.526239
C398	C	0.238469	0.870740	0.859573
C399	C	0.571802	1.204073	1.192906
C400	C	-0.061760	0.570534	0.604557
C401	C	0.271573	0.903868	0.937891
C402	C	0.604907	1.237201	1.271224
C403	C	-0.028655	0.603658	0.630657
C404	C	0.304678	0.936991	0.963990
C405	C	0.638011	1.270324	1.297323
C406	C	0.004448	0.636777	0.604537
C407	C	0.337782	0.970111	0.937870
C408	C	0.671115	1.303444	1.271203
C409	C	0.004445	0.636776	0.552320
C410	C	0.337778	0.970109	0.885654
C411	C	0.671111	1.303443	1.218987
C412	C	-0.127969	0.504287	0.552359
C413	C	0.205365	0.837620	0.885693
C414	C	0.538698	1.170954	1.219026
C415	C	-0.127962	0.504292	0.604576
C416	C	0.205371	0.837625	0.937909
C417	C	0.538704	1.170958	1.271242
C418	C	-0.094858	0.537415	0.630675
C419	C	0.238475	0.870748	0.964008
C420	C	0.571809	1.204082	1.297341
H421	H	-0.064452	0.332317	-0.081947
H422	H	0.268882	0.665650	0.251387
H423	H	0.602215	0.998984	0.584720
H424	H	-0.001699	0.630647	0.771280
H425	H	0.331635	0.963980	1.104613
H426	H	0.664968	1.297314	1.437947
F427	F	0.006581	0.638928	0.872547
F428	F	0.339915	0.972262	1.205881
F429	F	0.673248	1.305595	1.539214
H430	H	-0.121822	0.510461	0.866043
H431	H	0.211511	0.843794	1.199376
H432	H	0.544845	1.177128	1.532710
F433	F	-0.130099	0.502165	0.764792
F434	F	0.203235	0.835498	1.098126
F435	F	0.536568	1.168831	1.431459
H436	H	-0.060517	-0.050828	-0.127140
H437	H	0.272816	0.282505	0.206193
H438	H	0.606149	0.615839	0.539527
F439	F	-0.689390	0.571873	-0.138456
F440	F	-0.356056	0.905207	0.194878
F441	F	-0.022723	1.238540	0.528211
F442	F	-0.921357	0.574188	0.093465
F443	F	-0.588024	0.907522	0.426799
F444	F	-0.254690	1.240855	0.760132
F445	F	-0.202246	0.566832	0.093493
F446	F	0.131088	0.900166	0.426827
F447	F	0.464421	1.233499	0.760160
H448	H	-0.440454	0.569292	0.127398
H449	H	-0.107121	0.902625	0.460732
H450	H	0.226213	1.235959	0.794065
F451	F	-0.817302	0.573136	0.093472
F452	F	-0.483969	0.906469	0.426805
F453	F	-0.150636	1.239802	0.760139
F454	F	-0.163206	0.469010	0.367927
F455	F	0.170127	0.802343	0.701260
F456	F	0.503461	1.135677	1.034593
H457	H	0.031389	0.663744	0.374410
H458	H	0.364722	0.997077	0.707743
H459	H	0.698056	1.330410	1.041077
H460	H	-0.061450	0.040619	-0.127147
H461	H	0.271883	0.373952	0.206187
H462	H	0.605216	0.707286	0.539520
F463	F	-0.306252	0.567938	-0.093225
F464	F	0.027081	0.901271	0.240108
F465	F	0.360414	1.234605	0.573441
F466	F	-0.163200	0.469035	0.632366
F467	F	0.170134	0.802369	0.965700
F468	F	0.503467	1.135702	1.299033
H469	H	0.031396	0.663746	0.469133
H470	H	0.364730	0.997080	0.802466
H471	H	0.698063	1.330413	1.135800
F472	F	-0.065475	0.430091	0.093454
F473	F	0.267858	0.763424	0.426787
F474	F	0.601192	1.096758	0.760121
H475	H	-0.154926	0.477313	0.531113
H476	H	0.178408	0.810647	0.864447
H477	H	0.511741	1.143980	1.197780
F478	F	-0.306317	0.567903	0.093493
F479	F	0.027016	0.901237	0.426826
F480	F	0.360349	1.234570	0.760160
F481	F	-0.058108	-0.289019	0.093505
F482	F	0.275225	0.044315	0.426838
F483	F	0.608559	0.377648	0.760171
H484	H	-0.531842	0.570255	-0.127147
H485	H	-0.198509	0.903588	0.206186
H486	H	0.134825	1.236922	0.539519
H487	H	-0.591629	0.570867	-0.127150
H488	H	-0.258296	0.904201	0.206183
H489	H	0.075037	1.237534	0.539516
H490	H	-0.060529	-0.050810	0.127402
H491	H	0.272804	0.282524	0.460735
H492	H	0.606138	0.615857	0.794069
F493	F	-0.130132	0.502138	0.127715
F494	F	0.203201	0.835471	0.461049
F495	F	0.536535	1.168805	0.794382
H496	H	-0.208505	0.566924	-0.081908
H497	H	0.124828	0.900258	0.251425
H498	H	0.458162	1.233591	0.584759
F499	F	-0.163206	0.469016	0.475708
F500	F	0.170127	0.802350	0.809041
F501	F	0.503460	1.135683	1.142374
H502	H	-0.531904	0.570229	0.127398
H503	H	-0.198571	0.903562	0.460731
H504	H	0.134763	1.236896	0.794065
H505	H	-0.591702	0.570829	0.127388
H506	H	-0.258369	0.904162	0.460721
H507	H	0.074964	1.237496	0.794054
H508	H	-0.683150	0.571763	0.127385
H509	H	-0.349816	0.905096	0.460718
H510	H	-0.016483	1.238430	0.794052
H511	H	-0.001735	0.630612	0.134212
H512	H	0.331598	0.963945	0.467545
H513	H	0.664931	1.297279	0.800878
H514	H	-0.062997	0.191867	-0.127152
H515	H	0.270336	0.525201	0.206181
H516	H	0.603670	0.858534	0.539515
H517	H	0.031402	0.663750	0.625795
H518	H	0.364735	0.997083	0.959128
H519	H	0.698069	1.330416	1.292462
H520	H	-0.001720	0.630614	0.228937
H521	H	0.331614	0.963947	0.562271
H522	H	0.664947	1.297280	0.895604
H523	H	-0.058158	-0.282730	-0.081897
H524	H	0.275176	0.050604	0.251437
H525	H	0.608509	0.383937	0.584770
H526	H	0.031400	0.663749	0.531060
H527	H	0.364733	0.997083	0.864393
H528	H	0.698067	1.330416	1.197726
H529	H	-0.059084	-0.191278	-0.081909
H530	H	0.274249	0.142055	0.251425
H531	H	0.607582	0.475389	0.584758
H532	H	-0.064459	0.332340	0.082155
H533	H	0.268874	0.665674	0.415489
H534	H	0.602207	0.999007	0.748822
F535	F	-0.065450	0.430084	-0.093256
F536	F	0.267883	0.763418	0.240078
F537	F	0.601217	1.096751	0.573411
H538	H	-0.062062	0.100407	-0.127151
H539	H	0.271271	0.433740	0.206182
H540	H	0.604605	0.767073	0.539515
F541	F	-0.130131	0.502142	0.235511
F542	F	0.203202	0.835475	0.568844
F543	F	0.536535	1.168808	0.902178
F544	F	-0.061530	0.046943	0.138707
F545	F	0.271803	0.380276	0.472040
F546	F	0.605136	0.713609	0.805373
F547	F	-0.062025	0.094135	0.138695
F548	F	0.271308	0.427468	0.472029
F549	F	0.604642	0.760802	0.805362
H550	H	-0.059112	-0.191251	0.082194
H551	H	0.274221	0.142082	0.415528
H552	H	0.607555	0.475416	0.748861
H553	H	-0.063022	0.191883	0.127381
H554	H	0.270312	0.525216	0.460715
H555	H	0.603645	0.858550	0.794048
H556	H	-0.440396	0.569317	-0.127144
H557	H	-0.107062	0.902650	0.206190
H558	H	0.226271	1.235983	0.539523
H559	H	-0.823551	0.573221	-0.081938
H560	H	-0.490218	0.906555	0.251395
H561	H	-0.156884	1.239888	0.584728
H562	H	-0.915016	0.574158	-0.081937
H563	H	-0.581683	0.907492	0.251397
H564	H	-0.248349	1.240825	0.584730
