data_functionalizedCrystal
_audit_creation_method	'MofGen! by Chris Wilmer'
_symmetry_space_group_name_H-M	'P1'
_symmetry_Int_Tables_number	1
_symmetry_cell_setting	triclinic
loop_
_symmetry_equiv_pos_as_xyz
  x,y,z
_cell_length_a	17.640112
_cell_length_b	25.639239
_cell_length_c	17.640968
_cell_angle_alpha	78.768889
_cell_angle_beta	92.139080
_cell_angle_gamma	101.263838
loop_
_atom_site_label
_atom_site_type_symbol
_atom_site_fract_x
_atom_site_fract_y
_atom_site_fract_z
Zn1	Zn	1.247772	-0.015023	-0.195080
Zn2	Zn	1.221957	-0.122899	-0.068099
Zn3	Zn	1.095090	-0.049036	-0.093726
Zn4	Zn	1.120701	-0.116017	-0.220680
O5	O	1.171380	-0.075744	-0.144396
O6	O	1.350622	-0.017980	-0.156797
O7	O	1.183606	-0.130216	0.034775
O8	O	1.115429	0.028654	-0.107183
O9	O	1.331655	-0.097236	-0.063504
O10	O	1.227604	0.053643	-0.181647
O11	O	1.090397	-0.075949	0.015946
O12	O	0.992213	-0.069275	-0.132006
O13	O	1.159079	-0.085505	-0.323557
O14	O	1.011029	-0.118485	-0.225279
O15	O	1.252438	-0.011306	-0.304749
O16	O	1.208439	-0.195165	-0.088327
O17	O	1.134047	-0.190108	-0.200429
C18	C	0.974065	-0.096824	-0.184202
C19	C	0.889657	-0.105852	-0.201249
C20	C	0.563036	-0.007149	-0.014898
C21	C	0.483724	-0.015641	-0.030927
C22	C	0.503337	-0.067003	-0.127884
C23	C	0.582654	-0.058513	-0.111866
C24	C	0.612496	-0.028586	-0.055372
C25	C	0.632114	-0.079950	-0.152340
C26	C	0.711422	-0.071463	-0.136320
C27	C	0.741271	-0.041538	-0.079827
C28	C	0.691805	-0.020099	-0.039352
C29	C	0.602269	-0.109880	-0.208830
C30	C	0.651729	-0.131317	-0.249304
C31	C	0.731040	-0.122827	-0.233288
C32	C	0.760888	-0.092902	-0.176795
C33	C	0.780506	-0.144266	-0.273763
C34	C	0.859815	-0.135779	-0.257743
C35	C	0.840197	-0.084415	-0.160775
C36	C	1.171245	-0.211606	-0.144387
C37	C	1.171262	-0.269716	-0.144395
C38	C	1.210259	-0.632657	-0.086082
C39	C	1.210291	-0.687257	-0.086087
O40	O	1.243308	-0.717705	-0.036496
N41	N	1.171523	-0.711960	-0.144420
C42	C	1.132728	-0.682060	-0.202757
O43	O	1.099757	-0.708086	-0.252374
C44	C	1.132702	-0.627461	-0.202755
C45	C	1.171465	-0.602761	-0.144414
C46	C	1.249020	-0.607957	-0.027746
C47	C	1.248988	-0.553362	-0.027742
C48	C	1.210194	-0.523466	-0.086073
C49	C	1.171433	-0.548166	-0.144409
C50	C	1.093912	-0.597561	-0.261094
C51	C	1.093890	-0.542958	-0.261088
C52	C	1.132653	-0.518258	-0.202747
C53	C	1.132606	-0.463675	-0.202735
N54	N	1.171373	-0.438971	-0.144402
C55	C	1.210167	-0.468867	-0.086071
C56	C	1.132788	-0.796723	-0.202757
C57	C	1.132809	-0.851323	-0.202756
C58	C	1.210373	-0.856515	-0.086087
C59	C	1.210347	-0.801915	-0.086085
C60	C	1.171556	-0.772019	-0.144424
C61	C	1.210095	-0.354212	-0.086065
C62	C	1.210056	-0.299612	-0.086064
C63	C	1.132496	-0.294424	-0.202735
C64	C	1.132531	-0.349020	-0.202735
C65	C	1.171336	-0.378912	-0.144396
O66	O	1.099609	-0.433192	-0.252303
O67	O	1.243141	-0.442832	-0.036467
C68	C	1.369465	-0.054581	-0.104436
C69	C	1.453877	-0.045563	-0.087407
C70	C	1.211495	-0.043844	-0.342479
C71	C	1.228589	-0.030250	-0.426890
C72	C	1.171539	0.060653	-0.144418
C73	C	1.171607	0.118778	-0.144427
C74	C	1.041806	-0.178700	-0.753464
C75	C	1.057885	-0.165918	-0.832778
C76	C	1.155091	-0.088661	-0.813184
C77	C	1.139017	-0.101435	-0.733867
C78	C	1.082375	-0.146456	-0.704014
C79	C	1.179586	-0.069190	-0.684417
C80	C	1.163517	-0.081965	-0.605107
C81	C	1.106878	-0.126985	-0.575247
C82	C	1.066305	-0.159230	-0.624704
C83	C	1.236233	-0.024172	-0.714271
C84	C	1.276802	0.008072	-0.664821
C85	C	1.260728	-0.004700	-0.585510
C86	C	1.204090	-0.049719	-0.555650
C87	C	1.301302	0.027546	-0.536054
C88	C	1.285232	0.014771	-0.456743
C89	C	1.188020	-0.062494	-0.476340
C90	C	1.131465	-0.107478	0.052925
C91	C	1.114517	-0.120908	0.137365
H92	H	0.900087	-0.153235	-0.290702
H93	H	1.141878	-0.099144	-0.452036
H94	H	1.100907	-0.270075	-0.250226
O95	O	1.011380	-0.203028	-0.595704
C96	C	1.031846	-0.250248	-0.611742
H97	H	1.096927	-0.242884	-0.621320
H98	H	1.000428	-0.260864	-0.665981
C99	C	0.928794	-0.306480	-0.531289
C100	C	1.008729	-0.297437	-0.543047
H101	H	0.914532	-0.335589	-0.488917
H102	H	0.915004	-0.274667	-0.520485
H103	H	0.902622	-0.315324	-0.576493
H104	H	1.034899	-0.288587	-0.497847
H105	H	1.022523	-0.329249	-0.553841
O106	O	1.091404	-0.139384	-0.498178
C107	C	1.158796	-0.149320	-0.456986
H108	H	1.211812	-0.128350	-0.493859
H109	H	1.157504	-0.194805	-0.442586
C110	C	1.097425	-0.152815	-0.336345
C111	C	1.162541	-0.127055	-0.381630
H112	H	1.099734	-0.139084	-0.289860
H113	H	1.052020	-0.146123	-0.364096
H114	H	1.096356	-0.190718	-0.324353
H115	H	1.163604	-0.089155	-0.393630
H116	H	1.207946	-0.133741	-0.353880
O117	O	0.592112	0.021854	0.040033
C118	C	0.627990	-0.010873	0.098427
H119	H	0.645244	-0.044962	0.074142
H120	H	0.586010	-0.028892	0.148548
C121	C	0.679387	0.065632	0.157143
C122	C	0.700586	0.023767	0.127313
H123	H	0.724166	0.087000	0.174964
H124	H	0.655214	0.087682	0.117803
H125	H	0.644404	0.050610	0.198907
H126	H	0.735561	0.038790	0.085544
H127	H	0.724767	0.001721	0.166646
H128	H	0.995663	-0.215350	-0.729160
H129	H	0.443456	0.001823	0.002031
H130	H	0.537690	-0.116789	-0.221871
H131	H	0.805849	-0.034630	-0.066783
H132	H	0.627419	-0.155685	-0.295299
H133	H	1.241621	-0.279504	-0.038553
O134	O	1.331922	0.051755	-0.693768
C135	C	1.403669	0.045302	-0.659093
H136	H	1.403043	0.000424	-0.636511
H137	H	1.414219	0.068044	-0.609054
C138	C	1.469403	0.123273	-0.747052
C139	C	1.468637	0.068153	-0.719322
H140	H	1.509480	0.137370	-0.784202
H141	H	1.421066	0.127622	-0.770412
H142	H	1.478192	0.142217	-0.705347
H143	H	1.459838	0.049208	-0.761026
H144	H	1.516974	0.063801	-0.695971
H145	H	1.062302	-0.518618	-0.308597
H146	H	0.716106	0.004281	0.006640
H147	H	0.756195	-0.168637	-0.319755
O148	O	0.474223	-0.096039	-0.182761
C149	C	0.393614	-0.098947	-0.188207
H150	H	0.377784	-0.063719	-0.165620
H151	H	0.362873	-0.138856	-0.152239
C152	C	0.387911	-0.139066	-0.300998
C153	C	0.368470	-0.095796	-0.273262
H154	H	0.372400	-0.137126	-0.353463
H155	H	0.442219	-0.137109	-0.297327
H156	H	0.362293	-0.172320	-0.271017
H157	H	0.394096	-0.062544	-0.303236
H158	H	0.314166	-0.097748	-0.276940
H159	H	1.241696	-0.378544	-0.038561
H160	H	1.024844	-0.192179	-0.873039
O161	O	1.210063	-0.044935	-0.842319
C162	C	1.215564	-0.040582	-0.922921
H163	H	1.159134	-0.062227	-0.945581
H164	H	1.265141	-0.059991	-0.936329
C165	C	1.300140	0.046214	-0.934413
C166	C	1.230829	0.019634	-0.962245
H167	H	1.309560	0.083358	-0.958671
H168	H	1.296437	0.043281	-0.880109
H169	H	1.341446	0.030035	-0.945588
H170	H	1.189524	0.035809	-0.951061
H171	H	1.234526	0.022571	-1.016548
O172	O	1.356223	0.071324	-0.565114
C173	C	1.322329	0.107863	-0.619742
H174	H	1.257678	0.100857	-0.607917
H175	H	1.331875	0.101092	-0.680373
C176	C	1.439150	0.174990	-0.628009
C177	C	1.359745	0.166388	-0.613481
H178	H	1.462231	0.211091	-0.624150
H179	H	1.461987	0.150373	-0.591207
H180	H	1.447094	0.169344	-0.678534
H181	H	1.351802	0.172027	-0.562954
H182	H	1.336908	0.191008	-0.650274
H183	H	1.280555	-0.533254	0.019763
H184	H	1.101193	-0.772385	-0.250263
H185	H	1.100970	-0.369130	-0.250243
O186	O	1.286715	-0.636921	0.029000
C187	C	1.320933	-0.603398	0.080469
H188	H	1.289268	-0.568252	0.076834
H189	H	1.384228	-0.586895	0.064247
C190	C	1.354474	-0.679713	0.167977
C191	C	1.315578	-0.636549	0.163518
H192	H	1.351175	-0.700162	0.219205
H193	H	1.331424	-0.702298	0.133300
H194	H	1.407217	-0.665954	0.154455
H195	H	1.262835	-0.650308	0.177031
H196	H	1.338619	-0.613966	0.198199
H197	H	1.249316	-0.013774	-0.778851
H198	H	1.318266	0.041029	-0.416480
H199	H	0.864498	-0.060036	-0.114783
O200	O	1.248071	-0.778001	-0.029376
C201	C	1.282294	-0.816107	0.022117
H202	H	1.291213	-0.849728	-0.008472
H203	H	1.242845	-0.834207	0.074213
C204	C	1.349963	-0.746569	0.086880
C205	C	1.360924	-0.787861	0.049308
H206	H	1.398464	-0.729146	0.103657
H207	H	1.326904	-0.720896	0.052191
H208	H	1.317086	-0.761658	0.130289
H209	H	1.393792	-0.772770	0.005895
H210	H	1.383990	-0.813531	0.083992
H211	H	1.241964	-0.880865	-0.038592
H212	H	1.101236	-0.871430	-0.250258
H213	H	1.062342	-0.617662	-0.308599
