data_functionalizedCrystal
_audit_creation_method	'MofGen! by Chris Wilmer'
_symmetry_space_group_name_H-M	'P1'
_symmetry_Int_Tables_number	1
_symmetry_cell_setting	triclinic
loop_
_symmetry_equiv_pos_as_xyz
  x,y,z
_cell_length_a	17.917603
_cell_length_b	21.606444
_cell_length_c	21.606444
_cell_angle_alpha	119.999679
_cell_angle_beta	90.001004
_cell_angle_gamma	57.010312
loop_
_atom_site_label
_atom_site_type_symbol
_atom_site_fract_x
_atom_site_fract_y
_atom_site_fract_z
Zr1	Zr	0.754898	0.620470	0.052710
O2	O	0.629773	0.759035	0.156254
O3	O	0.793257	0.488455	0.020971
O4	O	0.793257	0.617577	0.150088
O5	O	0.629773	0.629911	-0.074717
O6	O	0.922214	0.607843	0.145221
O7	O	0.629774	0.629913	0.027136
O8	O	0.922215	0.376868	-0.085746
O9	O	0.629772	0.860886	0.156250
O10	O	0.905855	0.533064	0.003799
O11	O	0.809615	0.540327	-0.068581
O12	O	0.809614	0.692351	0.083438
O13	O	0.713374	0.699613	0.011058
Zr14	Zr	0.960569	0.604942	-0.117497
Zr15	Zr	0.960570	0.604946	0.044947
Zr16	Zr	0.754897	0.620466	-0.109734
Zr17	Zr	0.754896	0.782910	0.052704
Zr18	Zr	0.960571	0.442501	-0.117491
O19	O	0.922210	0.736956	-0.085758
O20	O	0.922212	0.736962	0.145217
O21	O	0.629771	0.759029	-0.074721
O22	O	1.085694	0.466376	-0.221041
O23	O	1.085696	0.466382	0.009934
O24	O	0.793255	0.488450	-0.210004
O25	O	1.085695	0.595500	0.009930
O26	O	0.922211	0.607835	-0.214875
O27	O	0.793253	0.617568	-0.210008
O28	O	1.085694	0.595498	-0.091923
O29	O	0.793254	0.848546	0.150081
O30	O	0.922214	0.376865	-0.214867
O31	O	1.085696	0.364526	-0.221037
O32	O	1.085697	0.364529	-0.091916
O33	O	0.629771	0.860883	0.027129
O34	O	0.793252	0.848543	0.020959
O35	O	0.905853	0.533061	-0.148225
O36	O	1.002093	0.525798	-0.075845
O37	O	0.905853	0.685085	0.003794
O38	O	0.809613	0.692347	-0.068586
C39	C	0.857736	0.409517	-0.032387
C40	C	0.857737	0.340557	-0.032385
C41	C	0.600469	0.632124	-0.022684
C42	C	0.513156	0.638714	-0.019389
C43	C	0.907972	0.304369	0.005398
C44	C	0.907975	0.239569	0.005393
C45	C	0.857738	0.210963	-0.032391
C46	C	0.807502	0.247154	-0.070179
C47	C	0.807505	0.311948	-0.070178
C48	C	0.807491	-0.014155	-0.070184
C49	C	0.807490	-0.078952	-0.070181
C50	C	0.907961	-0.086534	0.005386
C51	C	0.907964	-0.021740	0.005387
C52	C	0.857732	0.014442	-0.032404
C53	C	0.857731	0.084705	-0.032399
C54	C	0.857733	0.140706	-0.032392
C55	C	0.353312	0.650753	-0.013371
C56	C	0.362148	0.574663	-0.051414
C57	C	0.273206	0.581361	-0.048066
C58	C	0.442261	0.644056	-0.016718
C59	C	1.114998	0.593287	-0.042103
C60	C	1.202311	0.586697	-0.045398
C61	C	0.857736	0.612711	0.170799
C62	C	0.857736	0.612712	0.239761
C63	C	0.857731	0.815894	-0.032400
C64	C	0.857730	0.884854	-0.032402
C65	C	0.928780	0.607351	0.269478
C66	C	0.928783	0.607345	0.334271
C67	C	0.857738	0.612706	0.369349
C68	C	0.786690	0.618064	0.339626
C69	C	0.786692	0.618064	0.274831
C70	C	0.786683	0.618064	0.600937
C71	C	0.786685	0.618067	0.665737
C72	C	0.928773	0.607345	0.660377
C73	C	0.928775	0.607345	0.595582
C74	C	0.857731	0.612699	0.565862
C75	C	0.857730	0.612704	0.495605
C76	C	0.857734	0.612708	0.439608
C77	C	0.857732	0.612701	0.764414
C78	C	0.857733	0.612700	0.695452
C79	C	1.115001	0.390099	-0.042096
C80	C	1.202315	0.314548	-0.045389
C81	C	0.857735	0.409513	-0.235580
C82	C	0.857735	0.340551	-0.304539
C83	C	1.114999	0.390094	-0.245289
C84	C	1.202312	0.314542	-0.317544
C85	C	0.600469	0.835317	0.180502
C86	C	0.513155	0.910869	0.252757
C87	C	0.600467	0.835312	-0.022691
C88	C	0.513153	0.910863	-0.019398
C89	C	0.857733	0.815899	0.170793
C90	C	0.857733	0.884861	0.239752
C91	C	1.193083	0.282862	-0.005356
C92	C	1.275116	0.211884	-0.008434
C93	C	1.366380	0.172589	-0.051552
C94	C	1.375610	0.204282	-0.091586
C95	C	1.293578	0.275263	-0.088503
C96	C	0.907970	0.304373	-0.378503
C97	C	0.907967	0.239585	-0.443304
C98	C	0.857733	0.210972	-0.434139
C99	C	0.807491	0.247157	-0.360167
C100	C	0.807490	0.311948	-0.295368
C101	C	1.293560	0.275270	-0.313694
C102	C	1.375609	0.204289	-0.381579
C103	C	1.366406	0.172577	-0.453313
C104	C	1.275148	0.211856	-0.457161
C105	C	1.193102	0.282840	-0.389277
C106	C	0.421907	0.950149	0.248907
C107	C	0.339859	1.021150	0.316792
C108	C	0.349061	1.052866	0.388526
C109	C	0.440319	1.013583	0.392374
C110	C	0.522365	0.942588	0.324490
C111	C	0.522385	0.942556	-0.059424
C112	C	0.440352	1.013552	-0.056328
C113	C	0.349088	1.052850	-0.013208
C114	C	0.339858	1.021153	0.026823
C115	C	0.421890	0.950163	0.023731
C116	C	0.907976	0.913453	0.230563
C117	C	0.907995	0.978240	0.295351
C118	C	0.857763	1.014438	0.369328
C119	C	0.807518	0.985840	0.378516
C120	C	0.807506	0.921049	0.313728
H121	H	0.948875	0.327659	0.036170
Cl122	Cl	0.225118	1.070562	0.081024
H123	H	1.118807	0.314807	-0.392422
H124	H	1.449928	0.172278	-0.126691
Cl125	Cl	1.078361	0.332250	0.048859
H126	H	1.267582	0.186088	0.024167
Cl127	Cl	0.857785	1.095893	0.450768
H128	H	1.301108	0.301053	-0.121108
Cl129	Cl	0.410267	0.910323	0.074051
Cl130	Cl	0.971132	0.340327	-0.390045
Cl131	Cl	0.637074	0.893209	0.329343
Cl132	Cl	1.263596	0.171977	-0.547347
Cl133	Cl	0.245970	1.142093	-0.009330
H134	H	0.948881	0.883989	0.170333
H135	H	0.986632	0.602979	0.358466
H136	H	0.948880	0.210104	0.036157
H137	H	0.948909	1.001517	0.287855
Cl138	Cl	1.305154	0.315128	-0.223523
Cl139	Cl	0.225147	1.070516	0.311937
H140	H	0.596689	0.910566	-0.094542
H141	H	1.433168	0.114791	-0.054057
H142	H	0.948867	0.001552	0.036157
H143	H	1.449907	0.172315	-0.378433
H144	H	0.436511	0.504489	-0.086498
H145	H	0.278954	0.720920	0.021711
H146	H	0.948883	0.210130	-0.503529
Cl147	Cl	0.744347	0.211174	-0.348659
Cl148	Cl	0.744364	1.031365	0.471521
Cl149	Cl	0.697365	0.624805	0.709834
H150	H	0.728835	0.622426	0.576745
H151	H	1.433221	0.114777	-0.508583
H152	H	0.857742	0.158214	-0.486910
H153	H	0.986629	0.602992	0.240924
H154	H	0.766585	0.341396	-0.235145
H155	H	0.986624	0.602984	0.567025
Cl156	Cl	0.744362	0.211179	-0.117691
H157	H	0.414396	0.924331	0.190505
H158	H	0.766587	0.897778	0.321221
Cl159	Cl	0.451871	1.053461	0.482560
Cl160	Cl	0.971114	-0.132027	0.052891
Cl161	Cl	0.744331	-0.114914	-0.117685
Cl162	Cl	0.744347	0.031319	-0.117696
H163	H	0.282246	1.110675	0.443796
Cl164	Cl	1.018091	0.600610	0.697739
H165	H	0.728846	0.622424	0.368188
H166	H	0.728842	0.622428	0.250635
H167	H	0.766597	0.341414	-0.100942
Cl168	Cl	0.451977	1.053380	-0.106662
