data_functionalizedCrystal
_audit_creation_method	'MofGen! by Chris Wilmer'
_symmetry_space_group_name_H-M	'P1'
_symmetry_Int_Tables_number	1
_symmetry_cell_setting	triclinic
loop_
_symmetry_equiv_pos_as_xyz
  x,y,z
_cell_length_a	16.109295
_cell_length_b	10.268362
_cell_length_c	16.109301
_cell_angle_alpha	90.006707
_cell_angle_beta	96.539666
_cell_angle_gamma	89.998345
loop_
_atom_site_label
_atom_site_type_symbol
_atom_site_fract_x
_atom_site_fract_y
_atom_site_fract_z
O1	O	-1.103135	0.108216	0.106846
O2	O	-0.603135	0.608216	0.606846
O3	O	-0.861072	0.108238	0.120150
O4	O	-0.361072	0.608238	0.620150
O5	O	-0.988753	0.108213	-0.007533
O6	O	-0.488753	0.608213	0.492467
O7	O	-0.975454	0.108241	0.234529
O8	O	-0.475454	0.608241	0.734529
O9	O	-0.988742	-0.108388	-0.007539
O10	O	-0.488742	0.391612	0.492461
O11	O	-0.861061	-0.108362	0.120145
O12	O	-0.361061	0.391638	0.620145
O13	O	-1.103124	-0.108385	0.106840
O14	O	-0.603124	0.391615	0.606840
Cu15	Cu	-0.982091	-0.128151	0.113492
Cu16	Cu	-0.482091	0.371849	0.613492
Cu17	Cu	-0.982105	0.128004	0.113498
Cu18	Cu	-0.482105	0.628004	0.613498
O19	O	-0.975443	-0.108360	0.234524
O20	O	-0.475443	0.391640	0.734524
C21	C	-0.830092	-0.000059	0.119609
C22	C	-0.330092	0.499941	0.619609
C23	C	-0.737796	-0.000051	0.117996
C24	C	-0.237796	0.499949	0.617996
N25	N	-0.982088	-0.308317	0.113487
N26	N	-0.482088	0.191683	0.613487
C27	C	-0.515523	-0.000057	0.190008
C28	C	-0.015523	0.499943	0.690008
C29	C	-0.428803	-0.000065	0.188486
C30	C	0.071197	0.499935	0.688486
C31	C	-0.448677	-0.000077	0.036996
C32	C	0.051323	0.499923	0.536996
C33	C	-0.535396	-0.000078	0.038520
C34	C	-0.035396	0.499922	0.538520
C35	C	-0.568816	-0.000061	0.115028
C36	C	-0.068816	0.499939	0.615028
C37	C	-0.395377	-0.000068	0.111982
C38	C	0.104623	0.499932	0.611982
C39	C	-0.301351	-0.000077	0.110331
C40	C	0.198649	0.499923	0.610331
C41	C	-0.662849	-0.000055	0.116679
C42	C	-0.162849	0.499945	0.616679
C43	C	-0.982100	-0.573987	0.113496
C44	C	-0.482100	-0.073987	0.613496
C45	C	-0.982091	-0.426150	0.113494
C46	C	-0.482091	0.073850	0.613494
C47	C	-0.134104	-0.000083	0.107386
C48	C	0.365896	0.499917	0.607386
C49	C	-0.226397	-0.000078	0.109014
C50	C	0.273603	0.499922	0.609014
C51	C	-0.988209	-0.000088	-0.038511
C52	C	-0.488209	0.499912	0.461489
C53	C	-0.986594	-0.000090	-0.130806
C54	C	-0.486594	0.499910	0.369194
N55	N	-0.982114	0.308170	0.113496
N56	N	-0.482114	0.808170	0.613496
C57	C	-1.058602	-0.000076	-0.353080
C58	C	-0.558602	0.499924	0.146920
C59	C	-1.057078	-0.000065	-0.439800
C60	C	-0.557078	0.499935	0.060200
C61	C	-0.905588	-0.000056	-0.419923
C62	C	-0.405588	0.499944	0.080077
C63	C	-0.907113	-0.000057	-0.333204
C64	C	-0.407113	0.499943	0.166796
C65	C	-0.983622	-0.000074	-0.299785
C66	C	-0.483622	0.499926	0.200215
C67	C	-0.980573	-0.000061	-0.473225
C68	C	-0.480573	0.499939	0.026775
C69	C	-0.978920	-0.000050	-0.567251
C70	C	-0.478920	0.499950	-0.067251
C71	C	-0.985276	-0.000083	-0.205754
C72	C	-0.485276	0.499917	0.294246
C73	C	-0.975987	-0.000056	0.265501
C74	C	-0.475987	0.499944	0.765501
C75	C	-0.977602	-0.000046	0.357796
C76	C	-0.477602	0.499954	0.857796
H77	H	-0.542731	-0.000053	0.252306
H78	H	-0.042731	0.499947	0.752306
H79	H	-0.421455	-0.000098	-0.025294
H80	H	0.078545	0.499902	0.474706
H81	H	-0.846052	-0.000052	-0.289809
H82	H	-0.346052	0.499948	0.210191
H83	H	-0.578790	-0.000086	-0.022542
H84	H	-0.078790	0.499914	0.477458
H85	H	-1.120900	-0.000086	-0.325874
H86	H	-0.620900	0.499914	0.174126
H87	H	-1.118133	-0.000063	-0.483190
H88	H	-0.618133	0.499937	0.016810
H89	H	-0.385414	-0.000064	0.249542
H90	H	0.114586	0.499936	0.749542
H91	H	-0.843297	-0.000045	-0.447144
H92	H	-0.343297	0.499955	0.052856
