data_functionalizedCrystal
_audit_creation_method	'MofGen! by Chris Wilmer'
_symmetry_space_group_name_H-M	'P1'
_symmetry_Int_Tables_number	1
_symmetry_cell_setting	triclinic
loop_
_symmetry_equiv_pos_as_xyz
  x,y,z
_cell_length_a	19.188930
_cell_length_b	19.188928
_cell_length_c	15.072220
_cell_angle_alpha	90.008546
_cell_angle_beta	89.973638
_cell_angle_gamma	96.855705
loop_
_atom_site_label
_atom_site_type_symbol
_atom_site_fract_x
_atom_site_fract_y
_atom_site_fract_z
O1	O	0.926153	-0.087163	-0.074082
O2	O	0.722841	-0.098897	-0.074023
O3	O	0.830365	0.008626	-0.074032
O4	O	0.818629	-0.194686	-0.074073
O5	O	0.830339	0.008620	0.073533
O6	O	0.722815	-0.098903	0.073542
O7	O	0.926126	-0.087169	0.073483
Zn8	Zn	0.824466	-0.093037	0.096942
Zn9	Zn	0.824501	-0.093029	-0.097482
O10	O	0.818603	-0.194692	0.073492
C11	C	0.696817	-0.098520	-0.000233
C12	C	0.619313	-0.097380	-0.000209
C13	C	0.574388	-0.160471	-0.000236
C14	C	0.501564	-0.159399	-0.000245
C15	C	0.473668	-0.095233	-0.000246
C16	C	0.518603	-0.032133	-0.000214
C17	C	0.591425	-0.033207	-0.000196
N18	N	0.365698	-0.046184	-0.050495
N19	N	0.296519	-0.045168	-0.050514
C20	C	0.254260	-0.091995	-0.000300
N21	N	0.283791	-0.139885	0.049924
N22	N	0.352976	-0.140903	0.049939
C23	C	0.394706	-0.094062	-0.000265
C24	C	0.130371	-0.153928	-0.000336
C25	C	0.057546	-0.152853	-0.000340
C26	C	0.074586	-0.025586	-0.000317
C27	C	0.147409	-0.026662	-0.000304
C28	C	0.175297	-0.090835	-0.000318
C29	C	0.829972	0.034634	-0.000245
C30	C	0.828832	0.112138	-0.000233
C31	C	0.891923	0.157062	-0.000245
C32	C	0.890852	0.229886	-0.000256
C33	C	0.826686	0.257783	-0.000236
C34	C	0.763587	0.212849	-0.000229
C35	C	0.764660	0.140027	-0.000228
N36	N	0.777631	0.365786	0.050003
N37	N	0.776616	0.434964	0.050004
C38	C	0.823450	0.477192	-0.000242
N39	N	0.871348	0.447628	-0.050477
N40	N	0.872365	0.378443	-0.050474
C41	C	0.825516	0.336745	-0.000238
C42	C	0.885384	0.601080	-0.000266
C43	C	0.884311	0.673905	-0.000282
C44	C	0.757043	0.656866	-0.000247
C45	C	0.758119	0.584043	-0.000240
C46	C	0.822291	0.556155	-0.000245
C47	C	0.952151	-0.087546	-0.000309
C48	C	1.029655	-0.088687	-0.000339
N49	N	0.824448	-0.093042	0.229631
C50	C	0.818998	0.779300	-0.000284
C51	C	0.820144	0.701797	-0.000264
N52	N	0.824526	-0.093019	-0.230171
C53	C	0.824500	-0.093026	0.588832
C54	C	0.766774	-0.150368	0.551230
C55	C	0.766905	-0.150576	0.448404
C56	C	0.824473	-0.093034	0.410628
C57	C	0.897276	-0.108724	0.447894
C58	C	0.896952	-0.109131	0.550752
C59	C	0.810073	-0.019824	0.550953
C60	C	0.808400	-0.020318	0.448090
C61	C	0.824463	-0.093037	0.309915
C62	C	0.824515	-0.093025	0.689545
H63	H	0.464980	-0.210777	-0.000265
Br64	Br	0.672490	0.523070	-0.000223
Br65	Br	0.873961	0.054110	0.405252
Br66	Br	0.480746	0.054950	-0.000206
H67	H	0.758151	-0.004683	0.576962
Br68	Br	-0.003426	-0.238485	-0.000368
Br69	Br	0.719140	-0.000461	0.407503
H70	H	0.937637	0.578372	-0.000275
Br71	Br	0.676266	-0.135093	0.592504
Br72	Br	0.919043	-0.196675	0.404920
H73	H	0.183988	0.024713	-0.000287
Br74	Br	0.976482	0.290866	-0.000276
H75	H	0.852173	0.022845	0.575268
H76	H	0.712783	-0.141262	0.423211
H77	H	0.935689	0.710482	-0.000297
H78	H	0.597089	-0.212725	-0.000249
Br79	Br	0.679029	0.079054	-0.000214
Br80	Br	0.168223	-0.241017	-0.000347
Br81	Br	0.669959	0.694718	-0.000229
H82	H	0.628003	0.018171	-0.000174
H83	H	0.051874	0.026659	-0.000373
H84	H	0.775835	-0.204389	0.577053
H85	H	0.944177	0.134361	-0.000253
Br86	Br	0.676504	0.250706	-0.000214
H87	H	0.941248	-0.068061	0.423420
Br88	Br	0.782188	-0.241134	0.407346
H89	H	0.941237	-0.069001	0.575622
Br90	Br	0.918198	-0.198098	0.590702
