data_functionalizedCrystal
_audit_creation_method	'MofGen! by Chris Wilmer'
_symmetry_space_group_name_H-M	'P1'
_symmetry_Int_Tables_number	1
_symmetry_cell_setting	triclinic
loop_
_symmetry_equiv_pos_as_xyz
  x,y,z
_cell_length_a	12.594517
_cell_length_b	18.050589
_cell_length_c	12.594509
_cell_angle_alpha	90.027696
_cell_angle_beta	90.021327
_cell_angle_gamma	90.028021
loop_
_atom_site_label
_atom_site_type_symbol
_atom_site_fract_x
_atom_site_fract_y
_atom_site_fract_z
Zn1	Zn	1.627177	-0.295641	0.601864
Zn2	Zn	1.627030	-0.419845	0.423887
Zn3	Zn	1.449181	-0.295673	0.423893
Zn4	Zn	1.449125	-0.419793	0.601817
O5	O	1.538128	-0.357738	0.512865
O6	O	1.776103	-0.312125	0.578272
O7	O	1.603400	-0.403408	0.274942
O8	O	1.472877	-0.191744	0.447523
O9	O	1.775995	-0.403377	0.447513
O10	O	1.603650	-0.191721	0.578278
O11	O	1.472735	-0.312179	0.274946
O12	O	1.300228	-0.312129	0.447478
O13	O	1.472782	-0.403289	0.750769
O14	O	1.300187	-0.403320	0.578198
O15	O	1.603596	-0.312075	0.750804
O16	O	1.603346	-0.523763	0.447468
O17	O	1.472640	-0.523725	0.578192
C18	C	1.261587	-0.357723	0.512834
C19	C	1.143282	-0.357735	0.512846
C20	C	1.074020	-0.308068	0.441883
C21	C	1.003188	-0.375810	0.415704
C22	C	1.003314	-0.290026	0.539043
C23	C	1.074008	-0.425512	0.486616
C24	C	1.074141	-0.339682	0.610001
C25	C	1.003341	-0.407471	0.583858
C26	C	1.538000	-0.550690	0.512848
C27	C	1.538042	-0.633236	0.512876
C28	C	1.467034	-0.832693	0.583939
C29	C	1.441086	-0.882138	0.486814
C30	C	1.538147	-0.784366	0.512889
C31	C	1.564147	-0.882003	0.610026
C32	C	1.538246	-0.930351	0.512911
C33	C	1.512147	-0.832724	0.415713
C34	C	1.635254	-0.832585	0.538990
C35	C	1.609343	-0.882007	0.441799
C36	C	1.538087	-0.700268	0.512878
C37	C	1.538306	-1.014448	0.512912
C38	C	1.815749	-0.357753	0.512897
C39	C	1.934055	-0.357760	0.512911
C40	C	1.538200	-0.357673	0.790486
C41	C	1.538230	-0.357645	0.908792
C42	C	1.538286	-0.164032	0.512906
C43	C	1.538354	-0.081487	0.512924
C44	C	1.538119	-0.357749	0.236324
C45	C	1.538294	-0.357568	0.118019
C46	C	1.467103	-0.407228	0.978026
C47	C	1.564218	-0.425374	1.048817
C48	C	1.441191	-0.339455	1.048800
C49	C	1.635396	-0.375826	0.978024
C50	C	1.512303	-0.289876	0.978001
C51	C	1.609485	-0.307996	1.048760
H52	H	0.972503	-0.449531	0.643897
C53	C	1.284587	-0.445593	0.973358
C54	C	1.385965	-0.463917	0.936090
H55	H	1.234504	-0.480593	0.947472
H56	H	1.265986	-0.397501	0.949105
H57	H	1.284518	-0.446269	1.048777
H58	H	1.386037	-0.463235	0.860671
H59	H	1.404572	-0.512021	0.960338
C60	C	1.227425	-0.319896	0.719825
C61	C	1.116259	-0.319021	0.720842
H62	H	1.253427	-0.307137	0.788256
H63	H	1.252665	-0.285099	0.669217
H64	H	1.251572	-0.368050	0.701330
H65	H	1.092112	-0.270865	0.739329
H66	H	1.091009	-0.353818	0.771466
C67	C	0.997079	-0.160789	0.494469
C68	C	0.961395	-0.212713	0.568929
H69	H	0.971207	-0.113058	0.512919
H70	H	0.971738	-0.173962	0.425972
H71	H	1.072498	-0.160122	0.494032
H72	H	0.885976	-0.213383	0.569360
H73	H	0.986731	-0.199536	0.637444
C74	C	1.519158	-0.886325	0.795156
C75	C	1.593791	-0.911223	0.720907
H76	H	1.537459	-0.904359	0.863610
H77	H	1.450708	-0.904024	0.776136
H78	H	1.518706	-0.833703	0.796087
H79	H	1.594238	-0.963846	0.719970
H80	H	1.662259	-0.893527	0.739931
C81	C	1.284149	-0.828471	0.637347
C82	C	1.385738	-0.803452	0.664933
H83	H	1.233960	-0.810413	0.687343
H84	H	1.283183	-0.881087	0.637468
H85	H	1.266401	-0.810869	0.568526
H86	H	1.403489	-0.821058	0.733752
H87	H	1.386707	-0.750825	0.664824
H88	H	1.104933	-0.482801	0.464394
C89	C	1.331782	-0.989091	0.456405
C90	C	1.330288	-0.911527	0.457012
H91	H	1.263379	-1.007231	0.438006
H92	H	1.350700	-1.006683	0.524909
H93	H	1.382269	-1.005963	0.405874
H94	H	1.279805	-0.894655	0.507549
H95	H	1.311356	-0.893929	0.388498
H96	H	1.490100	-0.811167	0.333552
C97	C	1.791898	-0.884941	0.387082
C98	C	1.690582	-0.911065	0.360614
H99	H	1.842045	-0.902879	0.336955
H100	H	1.810486	-0.901907	0.455999
H101	H	1.791876	-0.832318	0.386222
H102	H	1.690602	-0.963688	0.361481
H103	H	1.671990	-0.894103	0.291678
H104	H	1.717310	-0.810804	0.561093
H105	H	1.586182	-0.482652	1.079923
H106	H	1.669732	-0.266032	1.079622
C107	C	1.745195	-0.396537	0.825067
C108	C	1.746248	-0.396652	0.936241
H109	H	1.813627	-0.409401	0.799273
H110	H	1.726651	-0.348578	0.800238
H111	H	1.694603	-0.431566	0.800295
H112	H	1.796834	-0.361619	0.961013
H113	H	1.764805	-0.444618	0.961080
H114	H	1.359099	-0.324102	1.079890
C115	C	1.080101	-0.270525	0.259120
C116	C	1.115925	-0.251424	0.360777
H117	H	1.105978	-0.235559	0.209050
H118	H	1.004692	-0.270457	0.258145
H119	H	1.105355	-0.318512	0.241218
H120	H	1.090665	-0.203439	0.378682
H121	H	1.191350	-0.251484	0.361755
C122	C	0.849891	-0.396792	0.306360
C123	C	0.961057	-0.396384	0.304827
H124	H	0.823872	-0.409476	0.237907
H125	H	0.824701	-0.349032	0.325510
H126	H	0.825711	-0.432156	0.356691
H127	H	0.985238	-0.361016	0.254501
H128	H	0.986258	-0.444151	0.285663
C129	C	1.380875	-0.193679	0.971622
C130	C	1.482614	-0.212578	0.935961
H131	H	1.362537	-0.145960	0.945659
H132	H	1.380047	-0.193195	1.047030
H133	H	1.331041	-0.229059	0.946346
H134	H	1.532450	-0.177200	0.961244
H135	H	1.483450	-0.213056	0.860537
