data_functionalizedCrystal
_audit_creation_method	'MofGen! by Chris Wilmer'
_symmetry_space_group_name_H-M	'P1'
_symmetry_Int_Tables_number	1
_symmetry_cell_setting	triclinic
loop_
_symmetry_equiv_pos_as_xyz
  x,y,z
_cell_length_a	16.959453
_cell_length_b	18.050591
_cell_length_c	16.959447
_cell_angle_alpha	89.978541
_cell_angle_beta	89.968429
_cell_angle_gamma	90.018732
loop_
_atom_site_label
_atom_site_type_symbol
_atom_site_fract_x
_atom_site_fract_y
_atom_site_fract_z
Zn1	Zn	-0.314750	1.135325	-0.447052
Zn2	Zn	-0.446943	1.135246	-0.314871
Zn3	Zn	-0.314773	1.011143	-0.314873
Zn4	Zn	-0.446881	1.011104	-0.446993
O5	O	-0.380837	1.073204	-0.380947
O6	O	-0.332302	1.239239	-0.429542
O7	O	-0.429445	1.118767	-0.204260
O8	O	-0.204159	1.027665	-0.332433
O9	O	-0.429423	1.239181	-0.332429
O10	O	-0.204142	1.118901	-0.429544
O11	O	-0.332340	1.027589	-0.204262
O12	O	-0.332281	0.907213	-0.332376
O13	O	-0.429319	1.027599	-0.557612
O14	O	-0.429341	0.907185	-0.429443
O15	O	-0.332243	1.118863	-0.557655
O16	O	-0.557545	1.118729	-0.332371
O17	O	-0.557500	1.027523	-0.429441
C18	C	-0.586203	1.073133	-0.380917
C19	C	-0.674060	1.073171	-0.380930
C20	C	-0.380807	0.880252	-0.380904
C21	C	-0.380814	0.797707	-0.380904
C22	C	-0.715410	1.025726	-0.330333
C23	C	-0.715262	1.120647	-0.431544
C24	C	-0.797808	1.120682	-0.431562
C25	C	-0.839159	1.073237	-0.380964
C26	C	-0.797964	1.025758	-0.330350
C27	C	-0.839009	1.168155	-0.482181
C28	C	-0.921560	1.168191	-0.482201
C29	C	-0.962913	1.120750	-0.431599
C30	C	-0.921712	1.073269	-0.380982
C31	C	-0.963063	1.025824	-0.330384
C32	C	-0.921865	0.978347	-0.279763
C33	C	-0.839316	0.978316	-0.279748
C34	C	-1.045461	1.120780	-0.431613
C35	C	-1.045617	1.025856	-0.330402
C36	C	-0.327971	0.598250	-0.328240
C37	C	-0.400068	0.548837	-0.308787
C38	C	-0.380838	0.646576	-0.380939
C39	C	-0.308766	0.548908	-0.400390
C40	C	-0.380855	0.500591	-0.380972
C41	C	-0.452972	0.598250	-0.361449
C42	C	-0.361621	0.598326	-0.453086
C43	C	-0.433768	0.548935	-0.433660
C44	C	-0.380827	0.730674	-0.380918
C45	C	-0.380873	0.416495	-0.380994
C46	C	-0.174668	1.073296	-0.380996
C47	C	-0.086812	1.073335	-0.381016
C48	C	-0.380771	1.073235	-0.587116
C49	C	-0.380743	1.073249	-0.674972
C50	C	-0.380867	1.266910	-0.380992
C51	C	-0.380880	1.349456	-0.381011
C52	C	-0.431203	1.025820	-1.046428
C53	C	-0.330117	1.120855	-1.046468
C54	C	-0.330134	1.120835	-0.963922
C55	C	-0.380687	1.073308	-0.922625
C56	C	-0.431223	1.025800	-0.963874
C57	C	-0.279604	1.168347	-0.922667
C58	C	-0.279619	1.168329	-0.840116
C59	C	-0.330169	1.120798	-0.798818
C60	C	-0.380707	1.073288	-0.840072
C61	C	-0.431260	1.025761	-0.798775
C62	C	-0.481794	0.978247	-0.840027
C63	C	-0.481773	0.978269	-0.922576
C64	C	-0.330190	1.120776	-0.716269
C65	C	-0.431280	1.025741	-0.716221
C66	C	-0.380845	1.073216	-0.175581
C67	C	-0.380650	1.073347	-0.087725
H68	H	-1.079279	0.987222	-0.289196
F69	F	-0.532671	0.626459	-0.339872
F70	F	-0.276417	1.171344	-0.672369
H71	H	-0.522918	0.939588	-0.956171
H72	H	-0.472345	0.987133	-1.080019
F73	F	-0.485083	0.975151	-0.672276
F74	F	-0.340334	0.626759	-0.532793
F75	F	-0.965399	1.218718	-0.536078
H76	H	-0.805339	1.206779	-0.523380
H77	H	-0.288963	1.159553	-1.080097
F78	F	-0.269598	0.626555	-0.269928
F79	F	-0.671252	1.171129	-0.485400
H80	H	-0.416334	0.527100	-0.247789
H81	H	-0.238451	1.207045	-0.956297
F82	F	-0.965883	0.927848	-0.225922
F83	F	-1.089304	1.171303	-0.485487
H84	H	-0.238471	1.207018	-0.806536
H85	H	-0.247817	0.527195	-0.416800
F86	F	-0.535599	0.927670	-0.796067
H87	H	-0.805767	0.939661	-0.238534
F88	F	-0.492278	0.520808	-0.491931
F89	F	-0.671565	0.975202	-0.276458
