data_functionalizedCrystal
_audit_creation_method	'MofGen! by Chris Wilmer'
_symmetry_space_group_name_H-M	'P1'
_symmetry_Int_Tables_number	1
_symmetry_cell_setting	triclinic
loop_
_symmetry_equiv_pos_as_xyz
  x,y,z
_cell_length_a	18.215407
_cell_length_b	18.215406
_cell_length_c	18.215399
_cell_angle_alpha	90.015166
_cell_angle_beta	89.983140
_cell_angle_gamma	90.003068
loop_
_atom_site_label
_atom_site_type_symbol
_atom_site_fract_x
_atom_site_fract_y
_atom_site_fract_z
Zn1	Zn	-1.125195	-0.293068	0.416123
Zn2	Zn	-0.625195	0.206932	0.916123
Zn3	Zn	-1.125155	-0.416139	0.293084
Zn4	Zn	-0.625155	0.083861	0.793084
Zn5	Zn	-1.002128	-0.293083	0.293077
Zn6	Zn	-0.502128	0.206917	0.793077
Zn7	Zn	-1.002145	-0.416089	0.416115
Zn8	Zn	-0.502145	0.083911	0.916115
O9	O	-1.063656	-0.354594	0.354600
O10	O	-0.563656	0.145406	0.854600
O11	O	-1.228174	-0.309408	0.399808
O12	O	-0.728174	0.190592	0.899808
O13	O	-1.108811	-0.399842	0.190099
O14	O	-0.608811	0.100158	0.690099
O15	O	-1.018462	-0.190096	0.309399
O16	O	-0.518462	0.309904	0.809399
O17	O	-1.228145	-0.399828	0.309412
O18	O	-0.728145	0.100172	0.809412
O19	O	-1.108879	-0.190085	0.399801
O20	O	-0.608879	0.309915	0.899801
O21	O	-1.018424	-0.309433	0.190093
O22	O	-0.518424	0.190567	0.690093
O23	O	-0.899146	-0.309385	0.309392
O24	O	-0.399146	0.190615	0.809392
O25	O	-1.018492	-0.399742	0.519101
O26	O	-0.518492	0.100258	1.019101
O27	O	-0.899159	-0.399757	0.399788
O28	O	-0.399159	0.100243	0.899788
O29	O	-1.108896	-0.309359	0.519106
O30	O	-0.608896	0.190641	1.019106
O31	O	-1.108828	-0.519117	0.309404
O32	O	-0.608828	-0.019117	0.809404
O33	O	-1.018454	-0.519080	0.399795
O34	O	-0.518454	-0.019080	0.899795
C35	C	-0.872450	-0.354567	0.354589
C36	C	-0.372450	0.145433	0.854589
C37	C	-0.790651	-0.354574	0.354601
C38	C	-0.290651	0.145426	0.854601
C39	C	-1.063659	-0.545801	0.354616
C40	C	-0.563659	-0.045801	0.854616
C41	C	-1.063727	-0.627600	0.354647
C42	C	-0.563727	-0.127600	0.854647
C43	C	-0.525619	-0.401716	0.401605
C44	C	-0.025619	0.098284	0.901605
C45	C	-0.602478	-0.401712	0.401601
C46	C	-0.102478	0.098288	0.901601
C47	C	-0.602434	-0.307466	0.307608
C48	C	-0.102434	0.192534	0.807608
C49	C	-0.525576	-0.307475	0.307609
C50	C	-0.025576	0.192525	0.807609
C51	C	-0.487171	-0.354599	0.354611
C52	C	0.012829	0.145401	0.854611
C53	C	-0.640887	-0.354586	0.354607
C54	C	-0.140887	0.145414	0.854607
C55	C	-0.724221	-0.354580	0.354603
C56	C	-0.224221	0.145420	0.854603
C57	C	-0.403832	-0.354605	0.354615
C58	C	0.096168	0.145395	0.854615
C59	C	-1.063701	-0.354544	0.546553
C60	C	-0.563701	0.145456	1.046553
C61	C	-1.063720	-0.354522	0.628352
C62	C	-0.563720	0.145478	1.128352
C63	C	-0.255609	-0.354616	0.354612
C64	C	0.244391	0.145384	0.854612
C65	C	-0.337408	-0.354611	0.354617
C66	C	0.162592	0.145389	0.854617
C67	C	-1.063673	-0.162642	0.354600
C68	C	-0.563673	0.337358	0.854600
C69	C	-1.063681	-0.080843	0.354600
C70	C	-0.563681	0.419157	0.854600
C71	C	-1.016624	0.107347	0.307554
C72	C	-0.516624	0.607347	0.807554
C73	C	-1.016630	0.184206	0.307563
C74	C	-0.516630	0.684206	0.807563
C75	C	-1.110786	0.184206	0.401698
C76	C	-0.610786	0.684206	0.901698
C77	C	-1.110776	0.107348	0.401692
C78	C	-0.610776	0.607348	0.901692
C79	C	-1.063696	0.068921	0.354616
C80	C	-0.563696	0.568921	0.854616
C81	C	-1.063712	0.222637	0.354631
C82	C	-0.563712	0.722637	0.854631
C83	C	-1.063719	0.305971	0.354641
C84	C	-0.563719	0.805971	0.854641
C85	C	-1.063687	-0.014418	0.354607
C86	C	-0.563687	0.485582	0.854607
C87	C	-1.063654	-0.354592	0.163393
C88	C	-0.563654	0.145408	0.663393
C89	C	-1.063777	-0.354406	0.081595
C90	C	-0.563777	0.145594	0.581595
C91	C	-1.110810	-0.307416	0.816550
C92	C	-0.610810	0.192584	1.316550
C93	C	-1.110819	-0.307394	0.893409
C94	C	-0.610819	0.192606	1.393409
C95	C	-1.016681	-0.401515	0.893391
C96	C	-0.516681	0.098485	1.393391
C97	C	-1.016669	-0.401532	0.816534
C98	C	-0.516669	0.098468	1.316534
C99	C	-1.063738	-0.354483	0.778115
C100	C	-0.563738	0.145517	1.278115
C101	C	-1.063759	-0.354445	0.931831
C102	C	-0.563759	0.145555	1.431831
C103	C	-1.063768	-0.354422	1.015165
C104	C	-0.563768	0.145578	1.515165
C105	C	-1.063728	-0.354505	0.694776
C106	C	-0.563728	0.145495	1.194776
H107	H	-0.494352	-0.440088	0.439877
H108	H	0.005648	0.059912	0.939877
H109	H	-0.978299	0.215490	0.269242
H110	H	-0.478299	0.715490	0.769242
H111	H	-0.633779	-0.440080	0.439867
H112	H	-0.133779	0.059920	0.939867
O113	O	-0.643855	-0.256634	0.256921
O114	O	-0.143855	0.243366	0.756921
H115	H	-0.703759	-0.264536	0.264821
H116	H	-0.203759	0.235464	0.764821
H117	H	-0.978361	-0.439821	0.924682
H118	H	-0.478361	0.060179	1.424682
O119	O	-0.965875	-0.452279	0.775071
O120	O	-0.465875	0.047721	1.275071
H121	H	-0.933147	-0.484991	0.814697
H122	H	-0.433147	0.015009	1.314697
O123	O	-0.484099	-0.256651	0.256923
O124	O	0.015901	0.243349	0.756923
H125	H	-0.523715	-0.223873	0.224248
H126	H	-0.023715	0.276127	0.724248
O127	O	-1.161570	0.225657	0.452461
O128	O	-0.661570	0.725657	0.952461
H129	H	-1.194297	0.186022	0.485189
H130	H	-0.694297	0.686022	0.985189
O131	O	-0.965840	0.065896	0.256790
O132	O	-0.465840	0.565896	0.756790
H133	H	-0.933104	0.105532	0.224072
H134	H	-0.433104	0.605532	0.724072
H135	H	-1.149107	0.076061	0.440021
H136	H	-0.649107	0.576061	0.940021
H137	H	-1.149134	-0.269104	0.785271
H138	H	-0.649134	0.230896	1.285271
H139	H	-1.149149	-0.269066	0.924699
H140	H	-0.649149	0.230934	1.424699
