data_functionalizedCrystal
_audit_creation_method	'MofGen! by Chris Wilmer'
_symmetry_space_group_name_H-M	'P1'
_symmetry_Int_Tables_number	1
_symmetry_cell_setting	triclinic
loop_
_symmetry_equiv_pos_as_xyz
  x,y,z
_cell_length_a	6.817900
_cell_length_b	10.992723
_cell_length_c	10.992743
_cell_angle_alpha	91.823959
_cell_angle_beta	108.770538
_cell_angle_gamma	108.770285
loop_
_atom_site_label
_atom_site_type_symbol
_atom_site_fract_x
_atom_site_fract_y
_atom_site_fract_z
V1	V	-4.114328	-0.177723	-0.400578
O2	O	-4.072420	0.008581	-0.392964
O3	O	-4.091939	-0.352434	-0.397827
O4	O	-4.091940	-0.174972	-0.575289
O5	O	-4.072419	-0.170110	-0.214274
V6	V	-4.591215	-0.155441	-0.378296
O7	O	-4.390143	-0.226601	-0.449455
O8	O	-4.765597	-0.106564	-0.329418
O9	O	-4.390397	0.019270	-0.381046
O10	O	-4.750519	-0.341745	-0.385909
O11	O	-4.750520	-0.163054	-0.564600
O12	O	-4.390396	-0.158193	-0.203585
C13	C	-3.942426	-0.395026	-0.391505
C14	C	-4.005580	-0.537854	-0.390420
C15	C	-4.317512	-0.748794	-0.396132
C16	C	-4.252236	-0.600315	-0.397757
C17	C	-3.982667	-0.607054	-0.509419
C18	C	-4.049831	-0.755728	-0.508439
C19	C	-3.918426	-0.717478	-0.262822
C20	C	-3.856072	-0.568757	-0.262472
C21	C	-3.942425	-0.168653	-0.617873
C22	C	-4.005576	-0.167559	-0.760700
C23	C	-4.318016	-0.174251	-0.971793
C24	C	-4.252232	-0.174896	-0.823161
C25	C	-3.855220	-0.040045	-0.791483
C26	C	-3.922281	-0.038865	-0.940125
C27	C	-4.044672	-0.284161	-0.978381
C28	C	-3.983998	-0.287062	-0.830167
C29	C	-4.203253	0.061854	-0.387365
C30	C	-4.119338	0.204682	-0.388458
C31	C	-4.203252	-0.164516	-0.160994
C32	C	-4.119339	-0.165603	-0.018165
H33	H	-4.375052	-0.773969	-0.310570
H34	H	-4.096112	-0.381319	-0.812003
C35	C	-4.518592	-0.821924	-0.518561
H36	H	-4.637585	-0.793245	-0.522442
H37	H	-4.480074	-0.805049	-0.593637
H38	H	-4.562197	-0.912609	-0.515114
C39	C	-3.971715	-0.751887	-0.139578
H40	H	-4.117013	-0.814051	-0.163597
H41	H	-3.868496	-0.787157	-0.087677
H42	H	-3.962561	-0.675682	-0.091443
H43	H	-3.873903	-0.522171	-0.174361
C44	C	-4.410631	-0.575104	-0.521795
H45	H	-4.515156	-0.655673	-0.571393
H46	H	-4.486063	-0.524248	-0.498602
H47	H	-4.328382	-0.529854	-0.571934
H48	H	-4.368472	-0.266545	-0.803557
H49	H	-4.277127	-0.553173	-0.312702
C50	C	-4.519059	-0.297396	-1.042886
H51	H	-4.483646	-0.344638	-1.101495
H52	H	-4.556465	-0.350171	-0.981211
H53	H	-4.641100	-0.273347	-1.089843
C54	C	-3.609366	-0.509247	-0.245158
H55	H	-3.594249	-0.464584	-0.316056
H56	H	-3.532348	-0.450013	-0.166292
H57	H	-3.549305	-0.576445	-0.242477
C58	C	-4.286995	-0.059795	-0.760681
H59	H	-4.341404	-0.012452	-0.826142
H60	H	-4.390839	-0.091557	-0.718390
H61	H	-4.150158	-0.004342	-0.698976
C62	C	-3.844873	-0.277226	-1.018175
H63	H	-3.800499	-0.349109	-0.993873
H64	H	-3.884973	-0.279640	-1.109603
H65	H	-3.725863	-0.198644	-0.975577
C66	C	-3.717462	-0.756928	-0.253615
H67	H	-3.755705	-0.820518	-0.325934
H68	H	-3.597968	-0.682719	-0.253752
H69	H	-3.674770	-0.791919	-0.175485
C70	C	-4.240957	-0.825728	-0.636233
H71	H	-4.276910	-0.763214	-0.688255
H72	H	-4.197173	-0.880859	-0.681937
H73	H	-4.366729	-0.876278	-0.617343
H74	H	-4.375967	-0.089098	-0.998529
C75	C	-3.854764	-0.797661	-0.507977
H76	H	-3.894450	-0.888723	-0.507372
H77	H	-3.819875	-0.776929	-0.583518
H78	H	-3.729631	-0.753210	-0.432744
C79	C	-3.984730	0.082250	-0.971334
H80	H	-3.968966	0.130266	-0.893230
H81	H	-3.889992	0.135113	-1.011105
H82	H	-4.133796	0.056083	-1.028905
H83	H	-3.772068	-0.027303	-0.969406
H84	H	-3.805790	-0.566617	-0.508572
C85	C	-4.128140	-0.579772	-0.637328
H86	H	-4.202970	-0.526268	-0.618474
H87	H	-4.037723	-0.536680	-0.684228
H88	H	-4.233512	-0.659543	-0.688183
C89	C	-3.609868	-0.026501	-0.734918
H90	H	-3.596919	-0.098663	-0.691918
H91	H	-3.552395	-0.023981	-0.803253
H92	H	-3.528928	0.051493	-0.674660
H93	H	-3.868073	0.048726	-0.742696
H94	H	-4.180731	-0.379778	-1.032964
H95	H	-3.809074	-0.289135	-0.788420
