data_functionalizedCrystal
_audit_creation_method	'MofGen! by Chris Wilmer'
_symmetry_space_group_name_H-M	'P1'
_symmetry_Int_Tables_number	1
_symmetry_cell_setting	triclinic
loop_
_symmetry_equiv_pos_as_xyz
  x,y,z
_cell_length_a	21.295418
_cell_length_b	29.839131
_cell_length_c	21.295411
_cell_angle_alpha	90.020364
_cell_angle_beta	90.043738
_cell_angle_gamma	90.057233
loop_
_atom_site_label
_atom_site_type_symbol
_atom_site_fract_x
_atom_site_fract_y
_atom_site_fract_z
Zn1	Zn	0.962308	-0.178715	0.356239
Zn2	Zn	1.295641	0.154618	0.689573
Zn3	Zn	1.628975	0.487952	1.022906
Zn4	Zn	0.962190	-0.253830	0.250967
Zn5	Zn	1.295524	0.079503	0.584300
Zn6	Zn	1.628857	0.412836	0.917634
Zn7	Zn	0.857031	-0.178736	0.250949
Zn8	Zn	1.190365	0.154597	0.584282
Zn9	Zn	1.523698	0.487931	0.917616
Zn10	Zn	0.856981	-0.253839	0.356163
Zn11	Zn	1.190314	0.079494	0.689497
Zn12	Zn	1.523647	0.412827	1.022830
O13	O	0.909628	-0.216280	0.303580
O14	O	1.242961	0.117053	0.636913
O15	O	1.576294	0.450386	0.970246
O16	O	1.050382	-0.188667	0.342314
O17	O	1.383715	0.144667	0.675647
O18	O	1.717049	0.478000	1.008980
O19	O	0.948213	-0.243874	0.162875
O20	O	1.281546	0.089459	0.496208
O21	O	1.614880	0.422793	0.829542
O22	O	0.871067	-0.115866	0.264940
O23	O	1.204400	0.217467	0.598273
O24	O	1.537734	0.550801	0.931607
O25	O	1.050295	-0.243854	0.264971
O26	O	1.383629	0.089480	0.598304
O27	O	1.716962	0.422813	0.931637
O28	O	0.948413	-0.115851	0.342296
O29	O	1.281747	0.217483	0.675630
O30	O	1.615080	0.550816	1.008963
O31	O	0.870953	-0.188703	0.162862
O32	O	1.204286	0.144631	0.496195
O33	O	1.537619	0.477964	0.829529
O34	O	0.768935	-0.188711	0.264867
O35	O	1.102268	0.144622	0.598200
O36	O	1.435602	0.477956	0.931533
O37	O	0.870981	-0.243869	0.444263
O38	O	1.204314	0.089464	0.777596
O39	O	1.537647	0.422798	1.110930
O40	O	0.768898	-0.243889	0.342167
O41	O	1.102231	0.089444	0.675501
O42	O	1.435565	0.422777	1.008834
O43	O	0.948364	-0.188675	0.444319
O44	O	1.281698	0.144658	0.777652
O45	O	1.615031	0.477991	1.110985
O46	O	0.948164	-0.316699	0.264897
O47	O	1.281497	0.016635	0.598231
O48	O	1.614830	0.349968	0.931564
O49	O	0.870866	-0.316705	0.342185
O50	O	1.204200	0.016628	0.675518
O51	O	1.537533	0.349961	1.008851
C52	C	0.746076	-0.216304	0.303507
C53	C	1.079409	0.117030	0.636840
C54	C	1.412743	0.450363	0.970174
C55	C	0.676108	-0.216325	0.303491
C56	C	1.009441	0.117009	0.636824
C57	C	1.342774	0.450342	0.970158
C58	C	0.643238	-0.245094	0.343681
C59	C	0.976572	0.088239	0.677015
C60	C	1.309905	0.421573	1.010348
C61	C	0.577496	-0.245083	0.343710
C62	C	0.910829	0.088250	0.677043
C63	C	1.244162	0.421584	1.010376
C64	C	0.544625	-0.216307	0.303536
C65	C	0.877959	0.117026	0.636870
C66	C	1.211292	0.450359	0.970203
C67	C	0.577503	-0.187532	0.263343
C68	C	0.910836	0.145801	0.596677
C69	C	1.244169	0.479134	0.930010
C70	C	0.643244	-0.187541	0.263321
C71	C	0.976577	0.145792	0.596654
C72	C	1.309911	0.479126	0.929987
N73	N	0.441350	-0.212791	0.248479
N74	N	0.774684	0.120542	0.581812
N75	N	1.108017	0.453876	0.915145
N76	N	0.378899	-0.212785	0.248502
N77	N	0.712232	0.120548	0.581835
N78	N	1.045566	0.453881	0.915169
C79	C	0.346551	-0.216279	0.303603
C80	C	0.679884	0.117055	0.636936
C81	C	1.013217	0.450388	0.970270
N82	N	0.379013	-0.219787	0.358681
N83	N	0.712347	0.113547	0.692015
N84	N	1.045680	0.446880	1.025348
N85	N	0.441470	-0.219795	0.358657
N86	N	0.774804	0.113539	0.691991
N87	N	1.108137	0.446872	1.025324
C88	C	0.473340	-0.216294	0.303557
C89	C	0.806673	0.117039	0.636890
C90	C	1.140007	0.450372	0.970223
C91	C	0.242396	-0.245037	0.343827
C92	C	0.575729	0.088296	0.677161
C93	C	0.909062	0.421629	1.010494
C94	C	0.176652	-0.245023	0.343857
C95	C	0.509985	0.088310	0.677190
C96	C	0.843319	0.421643	1.010523
C97	C	0.176660	-0.187475	0.263485
C98	C	0.509994	0.145858	0.596818
C99	C	0.843327	0.479192	0.930152
C100	C	0.242403	-0.187487	0.263461
C101	C	0.575736	0.145846	0.596794
C102	C	0.909069	0.479180	0.930128
C103	C	0.275266	-0.216271	0.303632
C104	C	0.608600	0.117063	0.636965
C105	C	0.941933	0.450396	0.970298
C106	C	0.909514	-0.333003	0.303548
C107	C	1.242847	0.000331	0.636882
C108	C	1.576181	0.333664	0.970215
C109	C	0.909523	-0.382937	0.303556
C110	C	1.242856	-0.049604	0.636889
C111	C	1.576190	0.283729	0.970223
C112	C	0.949949	-0.692564	0.263395
C113	C	1.283283	-0.359231	0.596728
C114	C	1.616616	-0.025898	0.930062
C115	C	0.950027	-0.880238	0.263419
C116	C	1.283361	-0.546904	0.596753
C117	C	1.616694	-0.213571	0.930086
O118	O	0.984309	-0.904489	0.229249
O119	O	1.317642	-0.571155	0.562582
O120	O	1.650976	-0.237822	0.895916
N121	N	0.909758	-0.903722	0.303627
N122	N	1.243091	-0.570389	0.636960
N123	N	1.576425	-0.237056	0.970294
C124	C	0.869470	-0.880286	0.343835
C125	C	1.202803	-0.546952	0.677168
C126	C	1.536136	-0.213619	1.010501
O127	O	0.835225	-0.904567	0.378039
O128	O	1.168558	-0.571234	0.711372
O129	O	1.501891	-0.237900	1.044706
C130	C	0.869396	-0.692614	0.343813
C131	C	1.202729	-0.359280	0.677146
C132	C	1.536062	-0.025947	1.010479
C133	C	0.909663	-0.669131	0.303598
C134	C	1.242996	-0.335798	0.636931
C135	C	1.576330	-0.002465	0.970265
C136	C	0.990214	-0.669082	0.223184
C137	C	1.323547	-0.335749	0.556517
C138	C	1.656881	-0.002416	0.889850
C139	C	0.990192	-0.622167	0.223176
C140	C	1.323525	-0.288833	0.556509
C141	C	1.656858	0.044500	0.889842
C142	C	0.949905	-0.598734	0.263379
C143	C	1.283238	-0.265400	0.596712
C144	C	1.616572	0.067933	0.930045
C145	C	0.909641	-0.622216	0.303590
C146	C	1.242974	-0.288883	0.636923
C147	C	1.576307	0.044451	0.970256
C148	C	0.829111	-0.669178	0.384023
C149	C	1.162444	-0.335845	0.717356
C150	C	1.495778	-0.002511	1.050690
C151	C	0.829097	-0.622257	0.384015
C152	C	1.162430	-0.288924	0.717348
C153	C	1.495764	0.044410	1.050682
C154	C	0.869364	-0.598775	0.343800
C155	C	1.202698	-0.265441	0.677133
C156	C	1.536031	0.067892	1.010467
C157	C	0.869332	-0.551867	0.343785
C158	C	1.202665	-0.218534	0.677118
C159	C	1.535998	0.114799	1.010451
N160	N	0.909601	-0.528383	0.303577
N161	N	1.242934	-0.195049	0.636910
N162	N	1.576267	0.138284	0.970244
C163	C	0.949887	-0.551816	0.263374
C164	C	1.283221	-0.218482	0.596707
C165	C	1.616554	0.114851	0.930041
C166	C	0.869511	-0.978816	0.343842
C167	C	1.202844	-0.645483	0.677176
C168	C	1.536177	-0.312150	1.010509
C169	C	0.869528	-1.025734	0.343847
C170	C	1.202862	-0.692401	0.677180
C171	C	1.536195	-0.359067	1.010514
C172	C	0.950087	-1.025683	0.263432
C173	C	1.283420	-0.692349	0.596766
C174	C	1.616753	-0.359016	0.930099
C175	C	0.950065	-0.978764	0.263425
C176	C	1.283399	-0.645431	0.596758
C177	C	1.616732	-0.312097	0.930092
C178	C	0.909780	-0.955332	0.303634
C179	C	1.243113	-0.621998	0.636968
C180	C	1.576446	-0.288665	0.970301
C181	C	0.949837	-0.453290	0.263359
C182	C	1.283171	-0.119957	0.596693
C183	C	1.616504	0.213377	0.930026
C184	C	0.949810	-0.406370	0.263353
C185	C	1.283143	-0.073037	0.596686
C186	C	1.616476	0.260296	0.930020
C187	C	0.869254	-0.406426	0.343770
C188	C	1.202587	-0.073093	0.677103
C189	C	1.535920	0.260241	1.010436
C190	C	0.869279	-0.453341	0.343774
C191	C	1.202612	-0.120008	0.677107
C192	C	1.535945	0.213325	1.010441
C193	C	0.909576	-0.476772	0.303567
C194	C	1.242909	-0.143439	0.636900
C195	C	1.576242	0.189894	0.970233
O196	O	0.835073	-0.527587	0.377942
O197	O	1.168406	-0.194254	0.711276
O198	O	1.501739	0.139079	1.044609
O199	O	0.984137	-0.527526	0.229185
O200	O	1.317470	-0.194193	0.562518
O201	O	1.650804	0.139140	0.895851
C202	C	0.949972	-0.739480	0.263403
C203	C	1.283305	-0.406147	0.596736
C204	C	1.616638	-0.072813	0.930070
C205	C	0.909707	-0.762962	0.303614
C206	C	1.243041	-0.429629	0.636947
C207	C	1.576374	-0.096296	0.970281
C208	C	0.869421	-0.739529	0.343817
C209	C	1.202754	-0.406196	0.677150
C210	C	1.536087	-0.072862	1.010484
C211	C	0.909725	-0.809880	0.303619
C212	C	1.243058	-0.476547	0.636952
C213	C	1.576392	-0.143213	0.970286
C214	C	0.950012	-0.833313	0.263416
C215	C	1.283345	-0.499980	0.596749
C216	C	1.616678	-0.166647	0.930083
C217	C	0.990281	-0.809829	0.223208
C218	C	1.323614	-0.476495	0.556542
C219	C	1.656947	-0.143162	0.889875
C220	C	0.990258	-0.762913	0.223200
C221	C	1.323592	-0.429580	0.556533
C222	C	1.656925	-0.096246	0.889867
C223	C	0.829152	-0.763014	0.384025
C224	C	1.162485	-0.429680	0.717358
C225	C	1.495818	-0.096347	1.050692
C226	C	0.829177	-0.809929	0.384029
C227	C	1.162510	-0.476596	0.717363
C228	C	1.495843	-0.143263	1.050696
C229	C	0.869463	-0.833362	0.343826
C230	C	1.202797	-0.500029	0.677160
C231	C	1.536130	-0.166696	1.010493
C232	C	1.073818	-0.216257	0.303653
C233	C	1.407151	0.117077	0.636986
C234	C	1.740485	0.450410	0.970319
C235	C	1.143786	-0.216247	0.303684
C236	C	1.477119	0.117087	0.637017
C237	C	1.810453	0.450420	0.970351
C238	C	0.909680	-0.216271	0.467770
C239	C	1.243013	0.117063	0.801103
C240	C	1.576347	0.450396	1.134437
C241	C	0.909702	-0.216267	0.537738
C242	C	1.243035	0.117067	0.871071
C243	C	1.576369	0.450400	1.204405
C244	C	0.909759	-0.099102	0.303625
C245	C	1.243092	0.234232	0.636958
C246	C	1.576426	0.567565	0.970291
C247	C	0.909815	-0.049167	0.303644
C248	C	1.243148	0.284166	0.636977
C249	C	1.576481	0.617499	0.970311
C250	C	0.909612	-0.216257	0.140028
C251	C	1.242945	0.117076	0.473361
C252	C	1.576278	0.450409	0.806695
C253	C	0.909712	-0.216135	0.070060
C254	C	1.243045	0.117199	0.403394
C255	C	1.576378	0.450532	0.736727
C256	C	0.949994	-0.187526	0.570635
C257	C	1.283327	0.145807	0.903968
C258	C	1.616661	0.479141	1.237301
C259	C	0.949993	-0.187507	0.636377
C260	C	1.283327	0.145827	0.969711
C261	C	1.616660	0.479160	1.303044
C262	C	0.909707	-0.216236	0.669221
C263	C	1.243040	0.117098	1.002554
C264	C	1.576374	0.450431	1.335887
C265	C	0.869407	-0.244978	0.636316
C266	C	1.202741	0.088355	0.969649
C267	C	1.536074	0.421688	1.302983
C268	C	0.869405	-0.244994	0.570575
C269	C	1.202738	0.088340	0.903908
C270	C	1.536071	0.421673	1.237241
N271	N	0.904840	-0.255537	0.772436
N272	N	1.238173	0.077796	1.105769
N273	N	1.571506	0.411130	1.439102
N274	N	0.904846	-0.255521	0.834887
N275	N	1.238179	0.077812	1.168220
N276	N	1.571513	0.411146	1.501554
C277	C	0.909711	-0.216190	0.867295
C278	C	1.243044	0.117143	1.200629
C279	C	1.576378	0.450477	1.533962
N280	N	0.914582	-0.176875	0.834893
N281	N	1.247916	0.156458	1.168226
N282	N	1.581249	0.489792	1.501560
N283	N	0.914580	-0.176891	0.772436
N284	N	1.247913	0.156442	1.105769
N285	N	1.581246	0.489775	1.439103
C286	C	0.909705	-0.216222	0.740506
C287	C	1.243038	0.117111	1.073839
C288	C	1.576372	0.450445	1.407173
C289	C	0.950004	-0.187426	0.971478
C290	C	1.283337	0.145907	1.304811
C291	C	1.616671	0.479241	1.638144
C292	C	0.949999	-0.187406	1.037221
C293	C	1.283332	0.145928	1.370555
C294	C	1.616666	0.479261	1.703888
C295	C	0.869416	-0.244882	1.037159
C296	C	1.202750	0.088452	1.370492
C297	C	1.536083	0.421785	1.703826
C298	C	0.869418	-0.244898	0.971417
C299	C	1.202752	0.088436	1.304750
C300	C	1.536085	0.421769	1.638083
C301	C	0.909716	-0.216171	0.938580
C302	C	1.243049	0.117163	1.271913
C303	C	1.576382	0.450496	1.605246
H304	H	0.982600	-0.387253	0.230603
H305	H	1.315933	-0.053919	0.563936
H306	H	1.649266	0.279414	0.897270
H307	H	0.550736	-0.164102	0.230635
H308	H	0.884069	0.169231	0.563969
H309	H	1.217402	0.502564	0.897302
H310	H	0.982802	-0.164100	0.663167
H311	H	1.316136	0.169233	0.996500
H312	H	1.649469	0.502567	1.329834
F313	F	0.678227	-0.156919	0.220543
F314	F	1.011561	0.176414	0.553876
F315	F	1.344894	0.509747	0.887210
H316	H	0.836604	-0.268368	0.663061
H317	H	1.169937	0.064965	0.996395
H318	H	1.503271	0.398298	1.329728
F319	F	0.786258	-0.694159	0.426831
F320	F	1.119591	-0.360826	0.760165
F321	F	1.452924	-0.027493	1.093498
F322	F	0.826382	-0.381478	0.386556
F323	F	1.159715	-0.048145	0.719889
F324	F	1.493048	0.285188	1.053223
F325	F	0.826519	-0.275585	0.535563
F326	F	1.159852	0.057748	0.868896
F327	F	1.493185	0.391082	1.202229
H328	H	0.550728	-0.268510	0.376440
H329	H	0.884061	0.064823	0.709773
H330	H	1.217395	0.398157	1.043106
F331	F	1.033118	-0.737927	0.180399
F332	F	1.366452	-0.404594	0.513733
F333	F	1.699785	-0.071261	0.847066
H334	H	1.023082	-0.828916	0.190472
H335	H	1.356415	-0.495583	0.523805
H336	H	1.689748	-0.162249	0.857138
F337	F	0.277374	-0.275669	0.386582
F338	F	0.610707	0.057664	0.719916
F339	F	0.944041	0.390998	1.053249
F340	F	0.992880	-0.156950	0.535691
F341	F	1.326213	0.176383	0.869025
F342	F	1.659546	0.509717	1.202358
H343	H	0.149891	-0.268450	0.376588
H344	H	0.483224	0.064883	0.709922
H345	H	0.816557	0.398217	1.043255
H346	H	0.669992	-0.268531	0.376392
H347	H	1.003325	0.064802	0.709725
H348	H	1.336658	0.398135	1.043059
F349	F	0.992889	-0.156851	0.936528
F350	F	1.326222	0.176483	1.269862
F351	F	1.659556	0.509816	1.603195
H352	H	0.796292	-0.603181	0.416761
H353	H	1.129626	-0.269847	0.750094
H354	H	1.462959	0.063486	1.083427
H355	H	0.149898	-0.164043	0.230778
H356	H	0.483231	0.169290	0.564111
H357	H	0.816565	0.502623	0.897445
F358	F	0.992893	-0.156820	1.072232
F359	F	1.326226	0.176514	1.405566
F360	F	1.659559	0.509847	1.738899
H361	H	0.836608	-0.268269	1.063899
H362	H	1.169941	0.065064	1.397233
H363	H	1.503275	0.398398	1.730566
H364	H	0.836612	-0.268304	0.944632
H365	H	1.169945	0.065029	1.277965
H366	H	1.503279	0.398362	1.611298
H367	H	1.023023	-0.688157	0.190445
H368	H	1.356357	-0.354823	0.523779
H369	H	1.689690	-0.021490	0.857112
H370	H	0.982652	-0.472362	0.230620
H371	H	1.315985	-0.139028	0.563954
H372	H	1.649319	0.194305	0.897287
F373	F	0.277386	-0.156867	0.220683
F374	F	0.610720	0.176466	0.554016
F375	F	0.944053	0.509799	0.887350
H376	H	1.022982	-0.603050	0.190431
H377	H	1.356316	-0.269717	0.523764
H378	H	1.689649	0.063616	0.857098
H379	H	0.982855	-0.959647	0.230679
H380	H	1.316188	-0.626314	0.564012
H381	H	1.649521	-0.292981	0.897346
H382	H	0.982890	-1.044770	0.230698
H383	H	1.316223	-0.711437	0.564031
H384	H	1.649556	-0.378103	0.897364
H385	H	0.836733	-1.044849	0.376588
H386	H	1.170066	-0.711516	0.709921
H387	H	1.503399	-0.378183	1.043255
F388	F	0.826629	-0.953884	0.386641
F389	F	1.159963	-0.620550	0.719974
F390	F	1.493296	-0.287217	1.053308
F391	F	0.786314	-0.834916	0.426833
F392	F	1.119647	-0.501582	0.760166
F393	F	1.452981	-0.168249	1.093500
F394	F	0.786271	-0.738081	0.426817
F395	F	1.119605	-0.404747	0.760151
F396	F	1.452938	-0.071414	1.093484
F397	F	0.826411	-0.478334	0.386563
F398	F	1.159744	-0.145000	0.719897
F399	F	1.493077	0.188333	1.053230
