data_functionalizedCrystal
_audit_creation_method	'MofGen! by Chris Wilmer'
_symmetry_space_group_name_H-M	'P1'
_symmetry_Int_Tables_number	1
_symmetry_cell_setting	triclinic
loop_
_symmetry_equiv_pos_as_xyz
  x,y,z
_cell_length_a	14.560438
_cell_length_b	14.446369
_cell_length_c	14.560438
_cell_angle_alpha	90.000547
_cell_angle_beta	120.000612
_cell_angle_gamma	59.998281
loop_
_atom_site_label
_atom_site_type_symbol
_atom_site_fract_x
_atom_site_fract_y
_atom_site_fract_z
Zr1	Zr	1.005229	0.891773	0.120475
O2	O	1.196842	0.743965	0.267126
O3	O	0.813625	0.937084	0.075521
O4	O	1.005231	0.937086	0.267123
O5	O	1.005232	0.743963	-0.075617
O6	O	1.005223	1.089423	0.267117
O7	O	1.005236	0.743964	0.075525
O8	O	0.662475	1.089420	-0.075623
O9	O	1.347980	0.743965	0.267124
O10	O	0.892425	1.070097	0.056342
O11	O	0.892429	0.956409	-0.056449
O12	O	1.118020	0.956410	0.169137
O13	O	1.118023	0.842722	0.056346
Zr14	Zr	1.005210	1.134732	-0.120587
Zr15	Zr	1.005216	1.134734	0.120466
Zr16	Zr	1.005223	0.891772	-0.120578
Zr17	Zr	1.246277	0.891774	0.120471
Zr18	Zr	0.764162	1.134732	-0.120582
O19	O	1.196814	1.089421	-0.075633
O20	O	1.196823	1.089423	0.267114
O21	O	1.196833	0.743963	-0.075620
O22	O	0.813597	1.282540	-0.267238
O23	O	0.813606	1.282542	0.075509
O24	O	0.813616	0.937082	-0.267226
O25	O	1.005207	1.282543	0.075505
O26	O	1.005208	1.089420	-0.267235
O27	O	1.005217	0.937083	-0.267229
O28	O	1.005203	1.282542	-0.075636
O29	O	1.347970	0.937086	0.267117
O30	O	0.662470	1.089419	-0.267228
O31	O	0.662459	1.282540	-0.267235
O32	O	0.662464	1.282541	-0.075630
O33	O	1.347975	0.743964	0.075518
O34	O	1.347964	0.937085	0.075511
O35	O	0.892419	1.070095	-0.169249
O36	O	0.892416	1.183783	-0.056458
O37	O	1.118011	1.070097	0.056338
O38	O	1.118014	0.956409	-0.056454
C39	C	0.703706	1.013252	-0.000050
C40	C	0.601375	1.013252	-0.000048
C41	C	0.553297	1.072594	0.058828
C42	C	0.457138	1.072598	0.058817
C43	C	0.457146	0.953910	-0.058947
C44	C	0.553297	0.953913	-0.058942
C45	C	1.005236	0.709347	-0.000045
C46	C	1.005242	0.606204	-0.000041
C47	C	1.147509	0.387836	0.070740
C48	C	1.147605	0.495067	0.071138
C49	C	0.934572	0.602880	0.051851
C50	C	0.935475	0.495111	0.052370
C51	C	0.932540	0.496474	-0.122805
C52	C	0.935221	0.602443	-0.122611
C53	C	1.306733	1.013253	-0.000062
C54	C	1.409064	1.013254	-0.000063
C55	C	1.005228	1.013254	0.301465
C56	C	1.005230	1.013255	0.403799
C57	C	1.005203	1.317159	-0.000067
C58	C	1.005197	1.420302	-0.000071
C59	C	1.005227	1.097179	0.451872
C60	C	1.005217	1.097183	0.548018
C61	C	1.005217	0.929329	0.548012
C62	C	1.005219	0.929331	0.451863
C63	C	1.005214	1.013253	0.698424
C64	C	1.005218	1.013258	0.596094
C65	C	0.703689	1.317158	-0.000061
C66	C	0.601353	1.420301	-0.000063
C67	C	0.703698	1.013251	-0.301571
C68	C	0.601364	1.013250	-0.403903
C69	C	0.703681	1.317157	-0.301582
C70	C	0.601342	1.420299	-0.403918
C71	C	1.306758	0.709349	0.301471
C72	C	1.409097	0.606207	0.403806
C73	C	1.306750	0.709347	-0.000050
C74	C	1.409087	0.606205	-0.000049
C75	C	1.306742	1.013255	0.301459
C76	C	1.409075	1.013256	0.403791
C77	C	0.553277	1.409417	0.058814
C78	C	0.457129	1.506335	0.058816
C79	C	0.457136	1.625016	-0.058944
C80	C	0.553290	1.528100	-0.058939
C81	C	0.553281	1.072592	-0.510858
C82	C	0.457136	1.072578	-0.607006
C83	C	0.457163	0.953879	-0.489228
C84	C	0.553312	0.953887	-0.393083
C85	C	0.553259	1.528099	-0.393122
C86	C	0.457108	1.625008	-0.489281
C87	C	0.457129	1.506303	-0.607027
C88	C	0.553284	1.409396	-0.510870
H89	H	0.592441	0.905589	-0.106891
H90	H	0.418026	0.905550	-0.480433
H91	H	0.417963	1.712782	-0.480483
H92	H	0.592419	1.321646	0.106766
O93	O	0.405274	1.494601	0.122320
H94	H	0.361451	1.447559	0.088287
O95	O	0.405313	0.889887	-0.122441
H96	H	0.361497	0.924180	-0.212938
H97	H	1.005210	0.860999	0.587158
O98	O	1.005228	0.838806	0.400005
H99	H	1.005241	0.780437	0.449589
H100	H	0.592466	0.905558	-0.305989
H101	H	0.417993	1.120898	-0.694091
O102	O	0.405286	1.741282	-0.122459
H103	H	0.330336	1.806848	-0.112583
H104	H	0.829896	0.681148	0.002759
O105	O	0.605108	1.136616	-0.522526
H106	H	0.711179	1.076714	-0.481529
H107	H	0.417994	1.120921	0.106758
H108	H	0.592437	1.536970	-0.106884
H109	H	0.592387	1.536982	-0.306040
H110	H	0.417987	1.497440	-0.694117
O111	O	0.605142	1.293112	-0.522505
H112	H	0.555553	1.301809	-0.613028
H113	H	0.592438	1.120913	0.106781
O114	O	0.999594	0.605693	0.170356
H115	H	1.082230	0.609453	0.192508
H116	H	1.203360	0.333879	0.036109
O117	O	1.221048	0.492940	0.025038
H118	H	1.256823	0.415131	0.002264
H119	H	1.203092	0.332851	0.160731
H120	H	1.203395	0.492622	0.161675
O121	O	1.002025	0.428404	0.172002
H122	H	0.948395	0.481371	0.206102
O123	O	0.797178	0.530400	-0.011515
H124	H	0.729951	0.624292	-0.042635
H125	H	1.005212	1.165522	0.587155
H126	H	0.978073	0.446450	-0.166154
H127	H	0.831358	0.681601	-0.179810
O128	O	1.003438	0.601794	-0.173989
H129	H	1.086865	0.604142	-0.112495
H130	H	0.827706	0.523913	-0.175814
O131	O	1.005219	1.187703	0.400015
H132	H	1.005199	1.246068	0.449593
