data_functionalizedCrystal
_audit_creation_method	'MofGen! by Chris Wilmer'
_symmetry_space_group_name_H-M	'P1'
_symmetry_Int_Tables_number	1
_symmetry_cell_setting	triclinic
loop_
_symmetry_equiv_pos_as_xyz
  x,y,z
_cell_length_a	14.519709
_cell_length_b	17.038272
_cell_length_c	13.596369
_cell_angle_alpha	89.993837
_cell_angle_beta	90.000291
_cell_angle_gamma	87.395851
loop_
_atom_site_label
_atom_site_type_symbol
_atom_site_fract_x
_atom_site_fract_y
_atom_site_fract_z
O1	O	1.231711	0.102502	-0.081664
O2	O	0.964158	0.114573	-0.081694
O3	O	1.096344	-0.005280	-0.081671
O4	O	1.099525	0.222356	-0.081686
O5	O	1.096330	-0.005286	0.081912
O6	O	0.964143	0.114567	0.081889
O7	O	1.231696	0.102496	0.081919
Zn8	Zn	1.097918	0.108530	0.107877
Zn9	Zn	1.097937	0.108539	-0.107651
O10	O	1.099510	0.222349	0.081897
C11	C	0.929748	0.114008	0.000094
C12	C	0.827237	0.112322	0.000083
C13	C	0.451867	0.106116	0.000128
C14	C	0.556307	0.107839	0.000115
C15	C	0.639549	0.109219	0.000104
C16	C	0.743995	0.110942	0.000093
C17	C	1.093444	-0.034416	0.000120
C18	C	1.084814	-0.121223	0.000119
C19	C	1.164047	-0.171209	0.000129
C20	C	1.155933	-0.252773	0.000118
C21	C	1.068585	-0.284349	0.000105
C22	C	0.989347	-0.234357	0.000092
C23	C	0.997462	-0.152795	0.000096
C24	C	1.039916	-0.530153	0.000089
C25	C	1.031807	-0.611722	0.000088
C26	C	1.198394	-0.630132	0.000112
C27	C	1.206502	-0.548568	0.000122
C28	C	1.127263	-0.498583	0.000104
C29	C	1.060289	-0.367720	0.000098
C30	C	1.135560	-0.415213	0.000104
C31	C	1.266107	0.103062	0.000129
C32	C	1.368617	0.104748	0.000134
C33	C	1.102410	0.251486	0.000103
C34	C	1.111040	0.338292	0.000098
N35	N	1.097911	0.108524	0.254968
N36	N	1.097950	0.108539	-0.254743
C37	C	1.097936	0.108540	0.656259
C38	C	1.097926	0.108538	0.544608
C39	C	1.097924	0.108533	0.455617
C40	C	1.097913	0.108530	0.343959
H41	H	1.220453	-0.293468	0.000129
O42	O	1.220457	-0.384637	0.000246
C43	C	1.269128	-0.410155	0.084988
H44	H	1.239555	-0.466761	0.113229
H45	H	1.262135	-0.362979	0.144311
C46	C	1.408008	-0.355767	0.024584
C47	C	1.371692	-0.425295	0.059266
H48	H	1.471275	-0.365103	0.008720
H49	H	1.375218	-0.338572	-0.032507
H50	H	1.402172	-0.316460	0.074025
H51	H	1.377518	-0.464597	0.009820
H52	H	1.404486	-0.442497	0.116348
O53	O	0.975492	-0.398489	-0.000037
C54	C	0.965817	-0.445092	-0.084774
H55	H	1.036922	-0.465292	-0.113017
H56	H	0.927836	-0.409113	-0.144098
C57	C	0.823169	-0.492506	-0.024356
C58	C	0.910502	-0.517321	-0.059040
H59	H	0.789046	-0.537058	-0.008485
H60	H	0.829686	-0.461106	0.032731
H61	H	0.791530	-0.462522	-0.073799
H62	H	0.942144	-0.547295	-0.009594
H63	H	0.903990	-0.548727	-0.116119
O64	O	1.275428	-0.678608	-0.000011
C65	C	1.328074	-0.664282	-0.084740
H66	H	1.310282	-0.602441	-0.112983
H67	H	1.311965	-0.708903	-0.144069
C68	C	1.453230	-0.747846	-0.024310
C69	C	1.431383	-0.671889	-0.058994
H70	H	1.516955	-0.752542	-0.008431
H71	H	1.417760	-0.757501	0.032772
H72	H	1.439798	-0.785022	-0.073756
H73	H	1.444803	-0.634716	-0.009543
H74	H	1.466857	-0.662228	-0.116067
H75	H	1.235175	-0.145506	0.000145
O76	O	0.946934	-0.642361	-0.000107
C77	C	0.898251	-0.616814	-0.084829
H78	H	0.949226	-0.599770	-0.144032
H79	H	0.851013	-0.563737	-0.065687
C80	C	0.777416	-0.704566	-0.050543
C81	C	0.840025	-0.683638	-0.123260
H82	H	0.741496	-0.745783	-0.074248
H83	H	0.810212	-0.721776	0.006537
H84	H	0.738061	-0.660328	-0.034599
H85	H	0.879386	-0.727872	-0.139195
H86	H	0.807234	-0.666437	-0.180345
O87	O	0.920589	-0.104124	0.000046
C88	C	0.946481	-0.025365	0.000073
H89	H	1.019175	-0.022136	-0.030886
H90	H	0.944826	-0.001789	0.078552
C91	C	0.789515	0.020493	-0.026064
C92	C	0.878797	0.024460	-0.064096
H93	H	0.747763	0.051229	-0.065643
H94	H	0.772070	-0.032568	-0.026079
H95	H	0.788150	0.040139	0.039334
H96	H	0.880164	0.004805	-0.129488
H97	H	0.896240	0.077519	-0.064094
O98	O	0.963016	-0.481523	0.000208
C99	C	0.962704	-0.433812	0.084939
H100	H	1.036233	-0.429588	0.113194
H101	H	0.918467	-0.460705	0.144259
C102	C	0.832484	-0.356258	0.024492
C103	C	0.922796	-0.351065	0.059191
H104	H	0.807863	-0.305217	0.008612
H105	H	0.832692	-0.388403	-0.032591
H106	H	0.795632	-0.378672	0.073932
H107	H	0.959649	-0.328660	0.009748
H108	H	0.922593	-0.318913	0.116266
H109	H	1.277629	-0.522865	0.000132
O110	O	0.904446	-0.264934	0.000208
C111	C	0.855756	-0.239423	0.084933
H112	H	0.885330	-0.182826	0.113184
H113	H	0.862725	-0.286609	0.144259
C114	C	0.716883	-0.293786	0.024483
C115	C	0.753201	-0.224267	0.059176
H116	H	0.653621	-0.284440	0.008598
H117	H	0.749686	-0.310975	-0.032597
H118	H	0.722699	-0.333101	0.073927
H119	H	0.747394	-0.184957	0.009728
H120	H	0.720393	-0.207071	0.116247
