data_functionalizedCrystal
_audit_creation_method	'MofGen! by Chris Wilmer'
_symmetry_space_group_name_H-M	'P1'
_symmetry_Int_Tables_number	1
_symmetry_cell_setting	triclinic
loop_
_symmetry_equiv_pos_as_xyz
  x,y,z
_cell_length_a	21.395362
_cell_length_b	16.120484
_cell_length_c	21.395355
_cell_angle_alpha	92.880721
_cell_angle_beta	89.956060
_cell_angle_gamma	92.942400
loop_
_atom_site_label
_atom_site_type_symbol
_atom_site_fract_x
_atom_site_fract_y
_atom_site_fract_z
Zn1	Zn	0.945244	-0.331659	-0.367215
Zn2	Zn	1.445244	0.168341	0.132785
Zn3	Zn	0.939845	-0.471058	-0.267746
Zn4	Zn	1.439845	0.028942	0.232254
Zn5	Zn	0.840458	-0.331698	-0.262418
Zn6	Zn	1.340458	0.168302	0.237582
Zn7	Zn	0.835126	-0.471075	-0.372451
Zn8	Zn	1.335126	0.028925	0.127549
O9	O	0.890168	-0.401372	-0.317458
O10	O	1.390168	0.098628	0.182542
O11	O	1.032207	-0.350127	-0.354059
O12	O	1.532207	0.149873	0.145941
O13	O	0.926633	-0.452580	-0.179362
O14	O	1.426633	0.047420	0.320638
O15	O	0.858849	-0.215024	-0.271898
O16	O	1.358849	0.284976	0.228102
O17	O	1.028240	-0.452543	-0.280979
O18	O	1.528240	0.047457	0.219021
O19	O	0.935836	-0.214995	-0.348892
O20	O	1.435836	0.285005	0.151108
O21	O	0.853614	-0.350193	-0.175447
O22	O	1.353614	0.149807	0.324553
O23	O	0.752072	-0.350210	-0.276976
O24	O	1.252072	0.149790	0.223024
O25	O	0.849761	-0.452572	-0.459434
O26	O	1.349761	0.047428	0.040566
O27	O	0.748154	-0.452609	-0.357817
O28	O	1.248154	0.047391	0.142183
O29	O	0.930665	-0.350144	-0.455587
O30	O	1.430665	0.149856	0.044413
O31	O	0.921462	-0.587728	-0.286057
O32	O	1.421462	-0.087728	0.213943
O33	O	0.844526	-0.587741	-0.362983
O34	O	1.344526	-0.087741	0.137017
C35	C	0.727379	-0.401416	-0.317387
C36	C	1.227379	0.098584	0.182613
C37	C	0.657736	-0.401455	-0.317372
C38	C	1.157736	0.098545	0.182628
C39	C	0.622997	-0.454845	-0.359409
C40	C	1.122997	0.045155	0.140591
C41	C	0.557562	-0.454825	-0.359436
C42	C	1.057562	0.045175	0.140564
C43	C	0.526869	-0.401423	-0.317415
C44	C	1.026869	0.098577	0.182585
C45	C	0.561617	-0.348022	-0.275375
C46	C	1.061617	0.151978	0.224625
C47	C	0.627050	-0.348039	-0.275354
C48	C	1.127050	0.151961	0.224646
C49	C	0.423400	-0.394707	-0.260754
C50	C	0.923400	0.105293	0.239246
C51	C	0.357967	-0.394696	-0.260775
C52	C	0.857967	0.105304	0.239225
C53	C	0.325050	-0.401369	-0.317482
C54	C	0.825050	0.098631	0.182518
C55	C	0.357574	-0.408069	-0.374171
C56	C	0.857574	0.091931	0.125829
C57	C	0.423007	-0.408085	-0.374149
C58	C	0.923007	0.091915	0.125851
C59	C	0.455918	-0.401399	-0.317434
C60	C	0.955918	0.098601	0.182566
C61	C	0.219359	-0.454740	-0.359552
C62	C	0.719359	0.045260	0.140448
C63	C	0.153924	-0.454713	-0.359580
C64	C	0.653924	0.045287	0.140420
C65	C	0.157979	-0.347915	-0.275514
C66	C	0.657979	0.152085	0.224486
C67	C	0.223414	-0.347937	-0.275492
C68	C	0.723414	0.152063	0.224508
C69	C	0.254100	-0.401354	-0.317510
C70	C	0.754100	0.098646	0.182490
C71	C	0.881846	-0.617986	-0.325680
C72	C	1.381846	-0.117986	0.174320
C73	C	0.878344	-0.710654	-0.329218
C74	C	1.378344	-0.210654	0.170782
C75	C	0.871952	-0.880320	-0.335692
C76	C	1.371952	-0.380320	0.164308
C77	C	0.908497	-0.921584	-0.299234
C78	C	1.408497	-0.421584	0.200766
C79	C	0.904940	-1.015992	-0.302836
C80	C	1.404940	-0.515992	0.197164
C81	C	0.875507	-0.785903	-0.332091
C82	C	1.375507	-0.285903	0.167909
C83	C	1.053593	-0.401328	-0.317529
C84	C	1.553593	0.098672	0.182471
C85	C	1.123235	-0.401310	-0.317560
C86	C	1.623235	0.098690	0.182440
C87	C	0.890221	-0.401355	-0.480880
C88	C	1.390221	0.098645	0.019120
C89	C	0.890243	-0.401348	-0.550521
C90	C	1.390243	0.098652	-0.050521
C91	C	0.898540	-0.183913	-0.309217
C92	C	1.398540	0.316087	0.190783
C93	C	0.902107	-0.091245	-0.305705
C94	C	1.402107	0.408755	0.194295
C95	C	0.932368	-0.348011	-0.581232
C96	C	1.432368	0.151989	-0.081232
C97	C	0.932369	-0.347976	-0.646666
C98	C	1.432369	0.152024	-0.146666
C99	C	0.890250	-0.401291	-0.681388
C100	C	1.390250	0.098709	-0.181388
C101	C	0.848117	-0.454632	-0.650669
C102	C	1.348117	0.045368	-0.150669
C103	C	0.848114	-0.454660	-0.585236
C104	C	1.348114	0.045340	-0.085236
C105	C	0.882419	-0.476362	-0.787910
C106	C	1.382419	0.023638	-0.287910
C107	C	0.882427	-0.476335	-0.853342
C108	C	1.382427	0.023665	-0.353342
C109	C	0.890258	-0.401203	-0.883205
C110	C	1.390258	0.098797	-0.383205
C111	C	0.898094	-0.326096	-0.847628
C112	C	1.398094	0.173904	-0.347628
C113	C	0.898090	-0.326124	-0.782195
C114	C	1.398090	0.173876	-0.282195
C115	C	0.890249	-0.401266	-0.752339
C116	C	1.390249	0.098734	-0.252339
C117	C	0.932385	-0.347823	-0.984867
C118	C	1.432385	0.152177	-0.484867
C119	C	0.932382	-0.347786	-1.050302
C120	C	1.432382	0.152214	-0.550302
C121	C	0.848133	-0.454449	-1.054304
C122	C	1.348133	0.045551	-0.554304
C123	C	0.848134	-0.454479	-0.988870
C124	C	1.348134	0.045521	-0.488870
C125	C	0.890263	-0.401167	-0.954155
C126	C	1.390263	0.098833	-0.454155
C127	C	0.890154	-0.401329	-0.154668
C128	C	1.390154	0.098671	0.345332
C129	C	0.890262	-0.401101	-0.085019
C130	C	1.390262	0.098899	0.414981
H131	H	0.647977	-0.498340	-0.393624
H132	H	1.147977	0.001660	0.106376
H133	H	0.125640	-0.498188	-0.393815
H134	H	0.625640	0.001812	0.106185
H135	H	0.529272	-0.498301	-0.393669
H136	H	1.029272	0.001699	0.106331
H137	H	0.942454	-0.886009	-0.265316
H138	H	1.442454	-0.386009	0.234684
H139	H	0.655335	-0.304559	-0.241122
H140	H	1.155335	0.195441	0.258878
N141	N	0.826971	-0.927433	-0.380615
N142	N	1.326971	-0.427433	0.119385
H143	H	0.830775	-0.989173	-0.376848
H144	H	1.330775	-0.489173	0.123152
H145	H	0.782786	-0.912343	-0.370237
H146	H	1.282786	-0.412343	0.129763
H147	H	0.966673	-0.304600	-0.552972
H148	H	1.466673	0.195400	-0.052972
N149	N	0.458087	-0.415309	-0.435286
N150	N	0.958087	0.084691	0.064714
H151	H	0.427310	-0.419535	-0.471216
H152	H	0.927310	0.080465	0.028784
H153	H	0.487212	-0.364528	-0.439227
H154	H	0.987212	0.135472	0.060773
N155	N	0.124885	-0.290310	-0.230195
N156	N	0.624885	0.209690	0.269805
H157	H	0.078161	-0.298398	-0.236588
H158	H	0.578161	0.201602	0.263412
H159	H	0.135771	-0.303199	-0.185917
H160	H	0.635771	0.196801	0.314083
H161	H	0.813808	-0.498092	-0.560232
H162	H	1.313808	0.001908	-0.060232
N163	N	0.977805	-0.290446	-0.679801
N164	N	1.477805	0.209554	-0.179801
H165	H	1.004492	-0.256677	-0.647880
H166	H	1.504492	0.243323	-0.147880
H167	H	1.005491	-0.324371	-0.708262
H168	H	1.505491	0.175629	-0.208262
H169	H	0.966686	-0.304409	-0.956601
H170	H	1.466686	0.195591	-0.456601
H171	H	0.904469	-0.264969	-0.753231
H172	H	1.404469	0.235031	-0.253231
N173	N	0.906546	-0.245053	-0.879826
N174	N	1.406546	0.254947	-0.379826
H175	H	0.905358	-0.256428	-0.926676
H176	H	1.405358	0.243572	-0.426676
H177	H	0.871750	-0.207792	-0.866941
H178	H	1.371750	0.292208	-0.366941
H179	H	0.966684	-0.304348	-1.075305
H180	H	1.466684	0.195652	-0.575305
N181	N	0.802699	-0.511949	-1.091743
N182	N	1.302699	-0.011949	-0.591743
H183	H	0.809091	-0.503837	-1.137856
H184	H	1.309091	-0.003837	-0.637856
H185	H	0.810157	-0.571496	-1.082582
H186	H	1.310157	-0.071496	-0.582582
H187	H	0.813835	-0.497917	-0.963865
H188	H	1.313835	0.002083	-0.463865
H189	H	0.450195	-0.389270	-0.214573
H190	H	0.950195	0.110730	0.285427
H191	H	0.876050	-0.537492	-0.882304
H192	H	1.376050	-0.037492	-0.382304
H193	H	0.813823	-0.498039	-0.678943
H194	H	1.313823	0.001961	-0.178943
H195	H	0.875875	-0.537528	-0.763601
H196	H	1.375875	-0.037528	-0.263601
H197	H	0.244345	-0.498230	-0.393769
H198	H	0.744345	0.001770	0.106231
N199	N	0.322081	-0.415270	-0.435340
N200	N	0.822081	0.084730	0.064660
H201	H	0.275695	-0.414240	-0.426755
H202	H	0.775695	0.085760	0.073245
H203	H	0.335421	-0.367116	-0.461579
H204	H	0.835421	0.132884	0.038421
N205	N	0.260893	-0.290365	-0.230147
N206	N	0.760893	0.209635	0.269853
H207	H	0.289566	-0.251788	-0.254186
H208	H	0.789566	0.248212	0.245814
H209	H	0.231485	-0.256583	-0.203538
H210	H	0.731485	0.243417	0.296462
N211	N	0.322891	-0.387477	-0.199636
N212	N	0.822891	0.112523	0.300364
H213	H	0.353671	-0.383242	-0.163709
H214	H	0.853671	0.116758	0.336291
H215	H	0.297734	-0.336103	-0.198663
H216	H	0.797734	0.163897	0.301337
H217	H	0.536622	-0.304541	-0.241163
H218	H	1.036622	0.195459	0.258837
