data_functionalizedCrystal
_audit_creation_method	'MofGen! by Chris Wilmer'
_symmetry_space_group_name_H-M	'P1'
_symmetry_Int_Tables_number	1
_symmetry_cell_setting	triclinic
loop_
_symmetry_equiv_pos_as_xyz
  x,y,z
_cell_length_a	11.026607
_cell_length_b	14.519709
_cell_length_c	10.065875
_cell_angle_alpha	98.804604
_cell_angle_beta	79.302338
_cell_angle_gamma	96.133081
loop_
_atom_site_label
_atom_site_type_symbol
_atom_site_fract_x
_atom_site_fract_y
_atom_site_fract_z
O1	O	1.628737	0.375708	-0.113512
O2	O	1.275335	0.331718	-0.113511
O3	O	1.461404	0.221020	-0.113499
O4	O	1.442668	0.486407	-0.113524
O5	O	1.425923	0.242237	0.113487
O6	O	1.239855	0.352935	0.113475
O7	O	1.593256	0.396926	0.113475
Zn8	Zn	1.410922	0.378299	0.149514
Zn9	Zn	1.457669	0.350345	-0.149550
O10	O	1.407187	0.507624	0.113463
C11	C	1.212366	0.334211	-0.000018
C12	C	1.077600	0.310019	-0.000017
C13	C	1.003940	0.376818	-0.000024
C14	C	0.864652	0.351815	-0.000024
C15	C	1.442790	0.197125	-0.000006
C16	C	1.440173	0.094312	-0.000005
C17	C	1.430544	-0.282174	-0.000040
C18	C	1.433218	-0.177425	-0.000030
C19	C	1.435358	-0.093934	-0.000021
C20	C	1.438033	0.010822	-0.000014
C21	C	1.656225	0.394432	-0.000022
C22	C	1.790993	0.418624	-0.000031
C23	C	1.425802	0.531519	-0.000034
C24	C	1.428420	0.634330	-0.000043
N25	N	1.379027	0.397378	0.353617
N26	N	1.489574	0.331260	-0.353654
C27	C	1.446564	0.356976	0.421401
C28	C	1.422027	0.371668	0.578566
H29	H	1.037548	0.234317	-0.000045
H30	H	1.565562	0.285786	0.588030
H31	H	1.043996	0.452517	-0.000024
O32	O	1.537094	0.302606	0.351867
C33	C	1.614237	0.149775	0.307845
C34	C	1.511610	0.211229	0.386666
H35	H	1.593683	0.075889	0.335973
H36	H	1.617852	0.147531	0.193477
H37	H	1.707210	0.180437	0.335805
H38	H	1.418583	0.180613	0.358821
H39	H	1.508104	0.213472	0.501014
H40	H	1.303036	0.442841	0.411939
O41	O	0.816691	0.261541	-0.000078
C42	C	0.634109	0.154329	0.000011
C43	C	0.688268	0.256596	0.000042
H44	H	0.530269	0.150301	0.000137
H45	H	0.680748	0.109593	-0.095003
H46	H	0.651214	0.127391	0.094984
H47	H	0.671179	0.283620	-0.094867
H48	H	0.641626	0.301269	0.095119
O49	O	0.838975	0.508885	-0.000122
C50	C	1.021534	0.616111	-0.000099
C51	C	0.967361	0.513855	-0.000012
H52	H	1.125337	0.620165	0.000019
H53	H	1.004593	0.643067	-0.095130
H54	H	0.974748	0.660817	0.094857
H55	H	1.014113	0.469075	-0.094904
H56	H	0.984287	0.486974	0.095082
H57	H	1.346030	0.417134	0.636882
