data_functionalizedCrystal
_audit_creation_method	'MofGen! by Chris Wilmer'
_symmetry_space_group_name_H-M	'P1'
_symmetry_Int_Tables_number	1
_symmetry_cell_setting	triclinic
loop_
_symmetry_equiv_pos_as_xyz
  x,y,z
_cell_length_a	14.971486
_cell_length_b	16.109301
_cell_length_c	13.448316
_cell_angle_alpha	89.991973
_cell_angle_beta	89.998199
_cell_angle_gamma	83.537805
loop_
_atom_site_label
_atom_site_type_symbol
_atom_site_fract_x
_atom_site_fract_y
_atom_site_fract_z
O1	O	1.186791	0.108348	-0.082581
O2	O	0.926372	0.121323	-0.082608
O3	O	1.063736	-0.006187	-0.082584
O4	O	1.049428	0.235857	-0.082605
O5	O	1.063718	-0.006195	0.082800
O6	O	0.926355	0.121315	0.082776
O7	O	1.186774	0.108340	0.082803
Cu8	Cu	1.056563	0.114827	0.097890
Cu9	Cu	1.056583	0.114836	-0.097695
O10	O	1.049410	0.235850	0.082778
C11	C	0.893040	0.120739	0.000080
C12	C	0.793745	0.119000	0.000070
C13	C	1.063147	-0.037166	0.000109
C14	C	1.061410	-0.129464	0.000110
C15	C	0.736412	0.193908	0.000065
C16	C	0.643115	0.192269	0.000080
C17	C	0.607153	0.115721	0.000093
C18	C	0.664494	0.040807	0.000101
C19	C	0.757789	0.042447	0.000093
C20	C	0.470036	0.037395	0.000115
C21	C	0.376734	0.035755	0.000121
C22	C	0.355362	0.187217	0.000102
C23	C	0.448657	0.188857	0.000094
C24	C	0.505991	0.113942	0.000100
C25	C	1.138878	-0.351640	0.000102
C26	C	1.137239	-0.438362	0.000094
C27	C	0.974262	-0.418691	0.000081
C28	C	0.975902	-0.331970	0.000082
C29	C	1.058213	-0.298447	0.000098
C30	C	1.054933	-0.471890	0.000088
C31	C	1.053155	-0.565918	0.000079
C32	C	1.059992	-0.204413	0.000105
C33	C	1.220106	0.108924	0.000112
C34	C	1.319401	0.110663	0.000116
C35	C	1.049999	0.266829	0.000084
C36	C	1.051736	0.359127	0.000076
N37	N	1.056555	0.114820	0.235454
N38	N	1.056598	0.114837	-0.235260
C39	C	1.117398	0.058382	0.287506
C40	C	1.117404	0.058381	0.391609
C41	C	1.056570	0.114823	0.443659
C42	C	0.995720	0.171264	0.391601
C43	C	0.995711	0.171260	0.287499
C44	C	0.995745	0.171269	0.608581
C45	C	0.995755	0.171275	0.712689
C46	C	1.117438	0.058391	0.712690
C47	C	1.117429	0.058387	0.608589
C48	C	1.056580	0.114829	0.556538
H49	H	0.596437	0.253267	0.000074
O50	O	0.813521	-0.030297	0.000270
C51	C	0.931300	-0.116330	0.085923
C52	C	0.868223	-0.033923	0.085853
H53	H	0.975556	-0.119280	0.155099
H54	H	0.889618	-0.171355	0.085996
H55	H	0.975470	-0.119336	0.016676
H56	H	0.824040	-0.030835	0.155088
H57	H	0.909959	0.021064	0.085729
H58	H	0.635206	-0.021520	0.000126
H59	H	1.166969	0.012432	0.566210
O60	O	1.218909	-0.319212	0.000062
C61	C	1.380387	-0.347881	0.000118
C62	C	1.289813	-0.384712	0.000147
H63	H	1.437736	-0.400819	0.000208
H64	H	1.385291	-0.307795	-0.069112
H65	H	1.385182	-0.307751	0.069314
H66	H	1.284956	-0.424879	-0.069002
H67	H	1.284947	-0.424750	0.069422
H68	H	1.202924	-0.481669	0.000096
O69	O	0.894387	-0.451395	0.000119
C70	C	0.819629	-0.576275	0.000060
C71	C	0.910151	-0.539351	0.000035
H72	H	0.832342	-0.647391	-0.000029
H73	H	0.779750	-0.554440	0.069287
H74	H	0.779772	-0.554317	-0.069139
H75	H	0.950080	-0.561291	0.069187
H76	H	0.949961	-0.561181	-0.069237
H77	H	1.166940	0.012424	0.245133
H78	H	0.308675	0.248215	0.000101
H79	H	0.910211	-0.288658	0.000075
H80	H	1.166947	0.012425	0.433989
O81	O	1.176511	0.003446	0.763135
C82	C	1.228960	-0.141038	0.795046
C83	C	1.162020	-0.078914	0.737835
H84	H	1.217255	-0.207639	0.774628
H85	H	1.300607	-0.130154	0.774542
H86	H	1.218533	-0.131304	0.878386
H87	H	1.172365	-0.088610	0.654482
H88	H	1.090397	-0.089813	0.758422
O89	O	0.341697	-0.038553	0.000277
C90	C	0.248816	-0.128318	0.086023
C91	C	0.288416	-0.044127	0.085956
H92	H	0.205745	-0.132859	0.155296
H93	H	0.205612	-0.132892	0.016861
H94	H	0.305836	-0.181562	0.085987
H95	H	0.231453	0.009166	0.086026
H96	H	0.331644	-0.039626	0.155111
O97	O	0.936563	0.226120	0.763098
C98	C	0.815875	0.338091	0.752118
C99	C	0.882853	0.276016	0.694906
H100	H	0.772445	0.378460	0.697009
H101	H	0.771163	0.302153	0.800838
H102	H	0.854483	0.379658	0.800873
H103	H	0.844318	0.234434	0.646097
H104	H	0.927564	0.312007	0.646248
H105	H	0.946192	0.217228	0.566204
H106	H	0.516716	-0.023609	0.000122
O107	O	0.936500	0.226006	0.442117
C108	C	0.780965	0.274511	0.473941
C109	C	0.847932	0.212454	0.416690
H110	H	0.709343	0.263587	0.453389
H111	H	0.791347	0.264820	0.557298
H112	H	0.792636	0.341114	0.453469
H113	H	0.836301	0.145826	0.437079
H114	H	0.837534	0.222218	0.333347
O115	O	0.936698	0.226200	0.236978
C116	C	0.884195	0.370685	0.205142
C117	C	0.951095	0.308558	0.262400
H118	H	0.895799	0.437284	0.225690
H119	H	0.894635	0.361058	0.121786
H120	H	0.812572	0.359696	0.225613
H121	H	1.022745	0.319509	0.242012
H122	H	0.940577	0.318200	0.345742
H123	H	0.765684	0.256242	0.000053
H124	H	0.477934	0.251189	0.000074
