data_functionalizedCrystal
_audit_creation_method	'MofGen! by Chris Wilmer'
_symmetry_space_group_name_H-M	'P1'
_symmetry_Int_Tables_number	1
_symmetry_cell_setting	triclinic
loop_
_symmetry_equiv_pos_as_xyz
  x,y,z
_cell_length_a	14.044209
_cell_length_b	14.044190
_cell_length_c	9.198806
_cell_angle_alpha	90.008003
_cell_angle_beta	89.998473
_cell_angle_gamma	93.189865
loop_
_atom_site_label
_atom_site_type_symbol
_atom_site_fract_x
_atom_site_fract_y
_atom_site_fract_z
O1	O	-1.277174	-0.230156	-0.120746
O2	O	-0.777174	0.269844	0.379254
O3	O	-1.000502	-0.221852	-0.120786
O4	O	-0.500502	0.278148	0.379214
O5	O	-1.134681	-0.087668	-0.120738
O6	O	-0.634681	0.412332	0.379262
O7	O	-1.142994	-0.364340	-0.120794
O8	O	-0.642994	0.135660	0.379206
O9	O	-1.134670	-0.087667	0.121047
O10	O	-0.634670	0.412333	0.621047
O11	O	-1.000490	-0.221851	0.120999
O12	O	-0.500490	0.278149	0.620999
O13	O	-1.277162	-0.230155	0.121039
O14	O	-0.777162	0.269845	0.621039
Cu15	Cu	-1.138825	-0.226003	0.143096
Cu16	Cu	-0.638825	0.273997	0.643096
Cu17	Cu	-1.138839	-0.226004	-0.142843
Cu18	Cu	-0.638839	0.273996	0.357157
O19	O	-1.142982	-0.364339	0.120991
O20	O	-0.642982	0.135661	0.620991
C21	C	-0.964874	-0.218216	0.000101
C22	C	-0.464874	0.281784	0.500101
C23	C	-0.858731	-0.207373	0.000087
C24	C	-0.358731	0.292627	0.500087
C25	C	-0.664393	-0.187548	0.000117
C26	C	-0.164393	0.312452	0.500117
C27	C	-0.613265	-0.264463	0.000106
C28	C	-0.113265	0.235537	0.500106
C29	C	-0.505128	-0.253432	0.000123
C30	C	-0.005128	0.246568	0.500123
C31	C	-0.772539	-0.198577	0.000100
C32	C	-0.272539	0.301423	0.500100
C33	C	-0.312790	-0.233793	0.000144
C34	C	0.187210	0.266207	0.500144
C35	C	-0.418932	-0.244642	0.000136
C36	C	0.081068	0.255358	0.500136
C37	C	-1.131039	-0.052045	0.000158
C38	C	-0.631039	0.447955	0.500158
C39	C	-1.120192	0.054098	0.000169
C40	C	-0.620192	0.554098	0.500169
C41	C	-1.146625	-0.399962	0.000091
C42	C	-0.646625	0.100038	0.500091
C43	C	-1.157472	-0.506105	0.000071
C44	C	-0.657472	-0.006105	0.500071
C45	C	-1.177292	0.299557	0.000121
C46	C	-0.677292	0.799557	0.500121
C47	C	-1.100376	0.248431	0.000119
C48	C	-0.600376	0.748431	0.500119
C49	C	-1.111404	0.140294	0.000147
C50	C	-0.611404	0.640294	0.500147
C51	C	-1.166265	0.407703	0.000093
C52	C	-0.666265	0.907703	0.500093
N53	N	-1.138822	-0.226002	0.344210
N54	N	-0.638822	0.273998	0.844210
N55	N	-1.138848	-0.225998	-0.343957
N56	N	-0.638848	0.274002	0.156043
C57	C	-1.195140	-0.169393	0.416427
C58	C	-0.695140	0.330607	0.916427
C59	C	-1.195154	-0.169390	0.583839
C60	C	-0.695154	0.330610	1.083839
H61	H	-1.026243	0.285873	0.000100
H62	H	-0.526243	0.785873	0.500100
H63	H	-1.243374	-0.120929	0.645943
H64	H	-0.743374	0.379071	1.145943
N65	N	-0.660224	-0.357466	0.000100
N66	N	-0.160224	0.142534	0.500100
N67	N	-0.715016	-0.382267	0.102005
N68	N	-0.215016	0.117733	0.602005
H69	H	-0.748184	-0.447949	0.102000
H70	H	-0.248184	0.052051	0.602000
H71	H	-1.251419	0.262116	0.000146
H72	H	-0.751419	0.762116	0.500146
N73	N	-1.078359	-0.286815	0.422114
N74	N	-0.578359	0.213185	0.922114
N75	N	-1.087362	-0.375171	0.405217
N76	N	-0.587362	0.124829	0.905217
H77	H	-1.044659	-0.418124	0.460233
H78	H	-0.544659	0.081876	0.960233
N79	N	-0.617417	-0.094559	0.000146
N80	N	-0.117417	0.405441	0.500146
N81	N	-0.528365	-0.085620	0.000157
N82	N	-0.028365	0.414380	0.500157
H83	H	-0.495177	-0.019947	0.000173
H84	H	0.004823	0.480053	0.500173
N85	N	-1.255602	-0.108590	0.338501
N86	N	-0.755602	0.391410	0.838501
N87	N	-1.255501	-0.108674	0.202616
N88	N	-0.755501	0.391326	0.702616
H89	H	-1.298204	-0.065730	0.147580
H90	H	-0.798204	0.434270	0.647580
H91	H	-1.090634	-0.274470	0.593949
H92	H	-0.590634	0.225530	1.093949
