data_functionalizedCrystal
_audit_creation_method	'MofGen! by Chris Wilmer'
_symmetry_space_group_name_H-M	'P1'
_symmetry_Int_Tables_number	1
_symmetry_cell_setting	triclinic
loop_
_symmetry_equiv_pos_as_xyz
  x,y,z
_cell_length_a	19.377369
_cell_length_b	16.704494
_cell_length_c	16.704494
_cell_angle_alpha	89.696991
_cell_angle_beta	44.862174
_cell_angle_gamma	104.855560
loop_
_atom_site_label
_atom_site_type_symbol
_atom_site_fract_x
_atom_site_fract_y
_atom_site_fract_z
Zr1	Zr	0.726926	-0.074464	0.653815
O2	O	0.881374	0.025109	0.490669
O3	O	0.572479	-0.085161	0.728085
O4	O	0.711028	0.048023	0.705322
O5	O	0.755367	-0.235688	0.503794
O6	O	0.698486	0.043545	0.847050
O7	O	0.742825	-0.108076	0.513432
O8	O	0.450648	-0.194698	0.887770
O9	O	1.003205	0.002555	0.463075
O10	O	0.626646	-0.117020	0.836224
O11	O	0.645365	-0.208913	0.723261
O12	O	0.808488	-0.052106	0.696460
O13	O	0.827207	-0.143999	0.583497
Zr14	Zr	0.726926	-0.285132	0.864483
Zr15	Zr	0.706925	-0.081606	0.879855
Zr16	Zr	0.746928	-0.277990	0.638443
Zr17	Zr	0.921233	-0.110434	0.609805
Zr18	Zr	0.532620	-0.249162	0.908493
O19	O	0.881374	-0.274435	0.790213
O20	O	0.852934	0.014953	0.812069
O21	O	0.909814	-0.264280	0.468813
O22	O	0.572479	-0.384705	1.027629
O23	O	0.544039	-0.095317	1.049485
O24	O	0.600919	-0.374550	0.706229
O25	O	0.698486	-0.123908	1.014504
O26	O	0.742825	-0.407620	0.812976
O27	O	0.755367	-0.403142	0.671248
O28	O	0.711028	-0.251520	1.004866
O29	O	0.987306	-0.003122	0.642747
O30	O	0.466547	-0.356474	0.875552
O31	O	0.450648	-0.362151	1.055223
O32	O	0.434749	-0.200375	1.067442
O33	O	1.019104	-0.159221	0.450856
O34	O	1.003205	-0.164898	0.630528
O35	O	0.645365	-0.307491	0.821838
O36	O	0.626646	-0.215597	0.934801
O37	O	0.808488	-0.150683	0.795037
O38	O	0.827207	-0.242576	0.682074
C39	C	0.483879	-0.134805	0.814198
C40	C	0.401391	-0.119534	0.832881
C41	C	0.701907	0.074782	0.778376
C42	C	0.693416	0.161185	0.784902
C43	C	0.751946	-0.434379	0.739922
C44	C	0.760437	-0.520781	0.733396
C45	C	0.178630	-0.309432	0.599928
C46	C	0.101023	-0.295156	0.617623
C47	C	0.081492	-0.199226	0.735548
C48	C	0.159095	-0.213498	0.717868
C49	C	0.207660	-0.268601	0.650056
C50	C	0.188124	-0.172667	0.767995
C51	C	0.265725	-0.186934	0.750311
C52	C	0.314296	-0.242033	0.682499
C53	C	0.285260	-0.282869	0.632371
C54	C	0.139564	-0.117559	0.835800
C55	C	0.168593	-0.076728	0.885927
C56	C	0.246189	-0.091000	0.868250
C57	C	0.294761	-0.146098	0.800438
C58	C	0.275225	-0.050164	0.918377
C59	C	0.352826	-0.064431	0.900693
C60	C	0.372361	-0.160366	0.782754
C61	C	0.969974	-0.224792	0.704100
C62	C	1.052462	-0.240062	0.685417
C63	C	0.751946	-0.170865	0.476407
C64	C	0.760437	-0.167833	0.380447
C65	C	0.867318	0.391321	0.651254
C66	C	0.859345	0.472506	0.657382
C67	C	0.669496	0.404739	0.803291
C68	C	0.677469	0.323555	0.797163
C69	C	0.776384	0.316850	0.721141
C70	C	0.784357	0.235664	0.715007
C71	C	0.594508	0.167900	0.860922
C72	C	0.586535	0.249084	0.867050
C73	C	0.586534	-0.229925	0.346052
C74	C	0.594508	-0.227078	0.255893
C75	C	0.784357	-0.159297	0.109968
C76	C	0.776384	-0.162144	0.200128
C77	C	0.677469	-0.197458	0.318169
C78	C	0.669496	-0.200300	0.408330
C79	C	0.859345	-0.132524	0.262404
C80	C	0.867318	-0.129677	0.172245
C81	C	0.701907	-0.188732	1.041891
C82	C	0.693416	-0.191764	1.137851
C83	C	0.458859	-0.143738	1.096940
C84	C	0.367880	-0.131500	1.211583
C85	C	0.508898	-0.389385	0.794971
C86	C	0.434901	-0.460517	0.807128
C87	C	0.483879	-0.398319	1.077712
C88	C	0.401391	-0.472483	1.185830
C89	C	0.969974	0.038722	0.440586
C90	C	1.052462	0.112886	0.332468
C91	C	0.994994	-0.215858	0.421358
C92	C	1.085973	-0.228096	0.306715
C93	C	0.944955	0.029789	0.723327
C94	C	1.018952	0.100921	0.711170
C95	C	0.325154	-0.074288	1.213965
C96	C	0.239679	-0.062771	1.321674
C97	C	0.196926	-0.108472	1.427002
C98	C	0.239660	-0.165687	1.424616
C99	C	0.325138	-0.177199	1.316907
C100	C	0.400152	-0.545386	0.864293
C101	C	0.330637	-0.612232	0.875709
C102	C	0.295865	-0.594206	0.829967
C103	C	0.330621	-0.509328	0.772794
C104	C	0.400142	-0.442485	0.761372
C105	C	0.352881	-0.459344	1.295578
C106	C	0.275384	-0.529023	1.397173
C107	C	0.246393	-0.611840	1.389018
C108	C	0.294910	-0.624978	1.279258
C109	C	0.372411	-0.555300	1.177664
C110	C	1.100981	0.099746	0.222718
C111	C	1.178502	0.169421	0.121118
C112	C	1.207498	0.252236	0.129272
C113	C	1.158975	0.265376	0.239033
C114	C	1.081461	0.195700	0.340629
C115	C	1.128706	-0.285302	0.304332
C116	C	1.214201	-0.296800	0.196619
C117	C	1.256956	-0.251096	0.091292
C118	C	1.214219	-0.193884	0.093678
C119	C	1.128730	-0.182383	0.201389
C120	C	1.053701	0.082868	0.756926
C121	C	1.123217	0.149698	0.745525
C122	C	1.157989	0.234578	0.688360
C123	C	1.123233	0.252630	0.642604
C124	C	1.053712	0.185802	0.654013
H125	H	0.411906	-0.205237	0.727535
Cl126	Cl	1.267905	-0.368730	0.193648
H127	H	0.376473	-0.391916	1.302240
Cl128	Cl	0.480185	0.074272	0.948778
H129	H	0.588955	-0.229060	0.504441
Cl130	Cl	0.908697	-0.114921	-0.038433
Cl131	Cl	0.973667	0.566126	0.569523
Cl132	Cl	0.148958	-0.699427	1.516749
Cl133	Cl	1.074979	-0.342764	0.436728
H134	H	0.204838	-0.202893	1.510388
Cl135	Cl	0.462188	-0.274307	0.494447
H136	H	0.235682	-0.005292	0.973580
H137	H	0.235888	-0.518310	1.486535
H138	H	0.428424	-0.373382	0.714827
H139	H	1.025427	0.200513	0.616746
H140	H	0.271293	-0.692417	1.272635
Cl141	Cl	0.107537	-0.007455	0.971169
Cl142	Cl	0.411857	-0.259965	0.660260
Cl143	Cl	0.433380	-0.571832	1.039701
Cl144	Cl	1.304946	0.339821	0.001538
H145	H	0.359916	-0.223791	1.314984
H146	H	1.326566	-0.260470	0.003595
Cl147	Cl	1.064546	-0.004358	0.212437
Cl148	Cl	1.195435	0.369494	0.249265
H149	H	1.214598	0.288986	0.679078
H150	H	0.428456	-0.560080	0.901544
Cl151	Cl	1.267976	-0.136439	-0.038745
Cl152	Cl	0.480186	-0.267898	0.290952
Cl153	Cl	0.286953	-0.718926	0.947592
Cl154	Cl	0.991664	0.382888	0.555687
Cl155	Cl	0.239682	-0.378712	0.514686
H156	H	1.041956	0.206411	0.429991
H157	H	0.588963	0.410215	0.865196
H158	H	1.217998	0.158706	0.031756
Cl159	Cl	0.208465	-0.678248	0.844340
H160	H	1.093940	-0.135803	0.203314
H161	H	1.025401	0.013759	0.803474
H162	H	0.933390	-0.106084	0.239706
H163	H	1.151509	0.134982	0.782785
Cl164	Cl	1.166967	0.359341	0.570728
H165	H	0.324804	-0.327740	0.577153
H166	H	0.077395	-0.328408	0.576795
Cl167	Cl	0.462192	0.257523	0.962614
Cl168	Cl	0.089464	-0.093993	1.562400
Cl169	Cl	0.042013	-0.099621	0.858021
Cl170	Cl	0.389325	-0.013099	0.963709
Cl171	Cl	0.020436	-0.129954	0.820790
H172	H	0.302300	-0.494663	0.735554
Cl173	Cl	0.991661	-0.085288	0.023848
H174	H	0.864899	0.230208	0.653101
Cl175	Cl	0.185970	0.009155	1.324647
Cl176	Cl	0.378886	-0.016821	1.081568
