data_functionalizedCrystal
_audit_creation_method	'MofGen! by Chris Wilmer'
_symmetry_space_group_name_H-M	'P1'
_symmetry_Int_Tables_number	1
_symmetry_cell_setting	triclinic
loop_
_symmetry_equiv_pos_as_xyz
  x,y,z
_cell_length_a	18.101398
_cell_length_b	29.839125
_cell_length_c	29.839131
_cell_angle_alpha	90.024586
_cell_angle_beta	89.963840
_cell_angle_gamma	89.997005
loop_
_atom_site_label
_atom_site_type_symbol
_atom_site_fract_x
_atom_site_fract_y
_atom_site_fract_z
Zn1	Zn	1.132023	-0.253876	0.178970
Zn2	Zn	1.465356	0.079457	0.512303
Zn3	Zn	1.798689	0.412791	0.845636
Zn4	Zn	1.131913	-0.178737	0.254082
Zn5	Zn	1.465246	0.154596	0.587415
Zn6	Zn	1.798579	0.487930	0.920748
Zn7	Zn	1.008196	-0.178770	0.178961
Zn8	Zn	1.341530	0.154563	0.512294
Zn9	Zn	1.674863	0.487896	0.845627
Zn10	Zn	1.008112	-0.253850	0.254067
Zn11	Zn	1.341445	0.079483	0.587401
Zn12	Zn	1.674778	0.412816	0.920734
O13	O	1.070061	-0.216308	0.216520
O14	O	1.403394	0.117025	0.549853
O15	O	1.736727	0.450358	0.883187
O16	O	1.235641	-0.243905	0.188943
O17	O	1.568974	0.089428	0.522276
O18	O	1.902308	0.422761	0.855610
O19	O	1.115491	-0.115874	0.244119
O20	O	1.448824	0.217459	0.577452
O21	O	1.782157	0.550792	0.910786
O22	O	1.024703	-0.188758	0.116095
O23	O	1.358037	0.144575	0.449428
O24	O	1.691370	0.477908	0.782761
O25	O	1.235560	-0.188701	0.244128
O26	O	1.568893	0.144632	0.577461
O27	O	1.902227	0.477966	0.910794
O28	O	1.115678	-0.243938	0.116101
O29	O	1.449012	0.089395	0.449435
O30	O	1.782345	0.422729	0.782768
O31	O	1.024597	-0.115899	0.188928
O32	O	1.357930	0.217434	0.522261
O33	O	1.691263	0.550768	0.855594
O34	O	0.904552	-0.188733	0.188914
O35	O	1.237885	0.144600	0.522247
O36	O	1.571219	0.477933	0.855581
O37	O	1.024560	-0.316721	0.244103
O38	O	1.357893	0.016613	0.577437
O39	O	1.691226	0.349946	0.910770
O40	O	0.904490	-0.243894	0.244095
O41	O	1.237823	0.089439	0.577428
O42	O	1.571157	0.422773	0.910761
O43	O	1.115596	-0.316740	0.188929
O44	O	1.448930	0.016594	0.522263
O45	O	1.782263	0.349927	0.855596
O46	O	1.115409	-0.188676	0.316947
O47	O	1.448742	0.144657	0.650280
O48	O	1.782075	0.477991	0.983614
O49	O	1.024453	-0.243861	0.316936
O50	O	1.357786	0.089472	0.650270
O51	O	1.691120	0.422805	0.983603
C52	C	0.877650	-0.216315	0.216502
C53	C	1.210984	0.117019	0.549836
C54	C	1.544317	0.450352	0.883169
C55	C	0.795336	-0.216328	0.216505
C56	C	1.128670	0.117005	0.549839
C57	C	1.462003	0.450339	0.883172
C58	C	0.496245	-0.216309	0.216532
C59	C	0.829579	0.117024	0.549865
C60	C	1.162912	0.450357	0.883199
C61	C	0.527556	-0.250844	0.251418
C62	C	0.860889	0.082490	0.584751
C63	C	1.194223	0.415823	0.918085
C64	C	0.613174	-0.250986	0.251309
C65	C	0.946508	0.082348	0.584642
C66	C	1.279841	0.415681	0.917975
C67	C	0.644628	-0.216319	0.216519
C68	C	0.977961	0.117015	0.549852
C69	C	1.311294	0.450348	0.883186
C70	C	0.613584	-0.229265	0.169203
C71	C	0.946917	0.104069	0.502537
C72	C	1.280250	0.437402	0.835870
C73	C	0.527939	-0.229510	0.169413
C74	C	0.861272	0.103823	0.502746
C75	C	1.194605	0.437156	0.836080
C76	C	0.527799	-0.168746	0.228544
C77	C	0.861132	0.164588	0.561878
C78	C	1.194465	0.497921	0.895211
C79	C	0.613448	-0.168999	0.229583
C80	C	0.946782	0.164334	0.562916
C81	C	1.280115	0.497667	0.896249
C82	C	0.728487	-0.216323	0.216509
C83	C	1.061821	0.117010	0.549842
C84	C	1.395154	0.450344	0.883176
C85	C	0.412386	-0.216306	0.216539
C86	C	0.745719	0.117027	0.549872
C87	C	1.079052	0.450361	0.883205
C88	C	1.070081	-0.333487	0.216516
C89	C	1.403414	-0.000153	0.549849
C90	C	1.736748	0.333180	0.883182
C91	C	1.070089	-0.383421	0.216514
C92	C	1.403423	-0.050088	0.549847
C93	C	1.736756	0.283245	0.883181
C94	C	1.117542	-0.693078	0.187710
C95	C	1.450875	-0.359744	0.521043
C96	C	1.784209	-0.026411	0.854376
C97	C	1.117579	-0.880751	0.187671
C98	C	1.450912	-0.547417	0.521005
C99	C	1.784246	-0.214084	0.854338
O100	O	1.157870	-0.905027	0.163223
O101	O	1.491203	-0.571693	0.496557
O102	O	1.824536	-0.238360	0.829890
N103	N	1.070188	-0.904207	0.216394
N104	N	1.403521	-0.570873	0.549727
N105	N	1.736854	-0.237540	0.883060
C106	C	1.022780	-0.880741	0.245126
C107	C	1.356114	-0.547408	0.578459
C108	C	1.689447	-0.214075	0.911792
O109	O	0.982467	-0.904998	0.269552
O110	O	1.315800	-0.571665	0.602885
O111	O	1.649133	-0.238331	0.936218
C112	C	1.022740	-0.693069	0.245161
C113	C	1.356074	-0.359736	0.578495
C114	C	1.689407	-0.026402	0.911828
C115	C	1.070140	-0.669616	0.216440
C116	C	1.403473	-0.336282	0.549774
C117	C	1.736807	-0.002949	0.883107
C118	C	1.164937	-0.669624	0.158991
C119	C	1.498271	-0.336291	0.492324
C120	C	1.831604	-0.002958	0.825657
C121	C	1.164930	-0.622709	0.159002
C122	C	1.498264	-0.289375	0.492336
C123	C	1.831597	0.043958	0.825669
C124	C	1.117528	-0.599247	0.187733
C125	C	1.450862	-0.265913	0.521066
C126	C	1.784195	0.067420	0.854400
C127	C	1.070133	-0.622700	0.216452
C128	C	1.403467	-0.289367	0.549785
C129	C	1.736800	0.043967	0.883119
C130	C	0.975330	-0.669604	0.273891
C131	C	1.308663	-0.336271	0.607224
C132	C	1.641997	-0.002938	0.940557
C133	C	0.975323	-0.622683	0.273896
C134	C	1.308656	-0.289350	0.607230
C135	C	1.641990	0.043983	0.940563
C136	C	1.022723	-0.599230	0.245175
C137	C	1.356056	-0.265897	0.578509
C138	C	1.689389	0.067437	0.911842
C139	C	1.022724	-0.552323	0.245194
C140	C	1.356058	-0.218989	0.578528
C141	C	1.689391	0.114344	0.911861
N142	N	1.070116	-0.528867	0.216472
N143	N	1.403449	-0.195533	0.549805
N144	N	1.736782	0.137800	0.883138
C145	C	1.117518	-0.552329	0.187741
C146	C	1.450851	-0.218995	0.521075
C147	C	1.784184	0.114338	0.854408
C148	C	1.022806	-0.979272	0.245106
C149	C	1.356139	-0.645938	0.578439
C150	C	1.689472	-0.312605	0.911772
C151	C	1.022817	-1.026190	0.245097
C152	C	1.356150	-0.692856	0.578431
C153	C	1.689483	-0.359523	0.911764
C154	C	1.117614	-1.026196	0.187642
C155	C	1.450948	-0.692863	0.520976
C156	C	1.784281	-0.359529	0.854309
C157	C	1.117607	-0.979277	0.187653
C158	C	1.450940	-0.645944	0.520986
C159	C	1.784273	-0.312611	0.854320
C160	C	1.070197	-0.955816	0.216383
C161	C	1.403530	-0.622483	0.549717
C162	C	1.736864	-0.289149	0.883050
C163	C	1.117500	-0.453803	0.187768
C164	C	1.450834	-0.120470	0.521101
C165	C	1.784167	0.212864	0.854435
C166	C	1.117491	-0.406883	0.187783
C167	C	1.450825	-0.073550	0.521117
C168	C	1.784158	0.259783	0.854450
C169	C	1.022691	-0.406881	0.245237
C170	C	1.356025	-0.073548	0.578570
C171	C	1.689358	0.259786	0.911903
C172	C	1.022703	-0.453797	0.245223
C173	C	1.356036	-0.120463	0.578556
C174	C	1.689369	0.212870	0.911890
C175	C	1.070110	-0.477256	0.216485
C176	C	1.403443	-0.143923	0.549818
C177	C	1.736776	0.189410	0.883152
O178	O	0.982449	-0.528018	0.269626
O179	O	1.315782	-0.194684	0.602959
O180	O	1.649116	0.138649	0.936292
O181	O	1.157814	-0.528064	0.163312
O182	O	1.491147	-0.194731	0.496645
O183	O	1.824480	0.138603	0.829978
C184	C	1.117549	-0.739993	0.187698
C185	C	1.450882	-0.406660	0.521031
C186	C	1.784216	-0.073326	0.854365
C187	C	1.070154	-0.763446	0.216417
C188	C	1.403487	-0.430113	0.549751
C189	C	1.736820	-0.096780	0.883084
C190	C	1.022752	-0.739984	0.245148
C191	C	1.356085	-0.406651	0.578481
C192	C	1.689418	-0.073318	0.911814
C193	C	1.070165	-0.810364	0.216409
C194	C	1.403498	-0.477031	0.549742
C195	C	1.736831	-0.143698	0.883076
C196	C	1.117567	-0.833826	0.187678
C197	C	1.450900	-0.500493	0.521012
C198	C	1.784233	-0.167160	0.854345
C199	C	1.164958	-0.810371	0.158956
C200	C	1.498291	-0.477037	0.492289
C201	C	1.831624	-0.143704	0.825623
C202	C	1.164951	-0.763455	0.158967
C203	C	1.498284	-0.430122	0.492301
C204	C	1.831618	-0.096788	0.825634
C205	C	0.975361	-0.763440	0.273870
C206	C	1.308694	-0.430107	0.607204
C207	C	1.642027	-0.096774	0.940537
C208	C	0.975372	-0.810356	0.273857
C209	C	1.308705	-0.477022	0.607190
C210	C	1.642038	-0.143689	0.940523
C211	C	1.022774	-0.833818	0.245126
C212	C	1.356107	-0.500484	0.578459
C213	C	1.689440	-0.167151	0.911793
C214	C	1.263223	-0.216302	0.216538
C215	C	1.596556	0.117031	0.549871
C216	C	1.929889	0.450364	0.883205
C217	C	1.345537	-0.216300	0.216546
C218	C	1.678870	0.117034	0.549879
C219	C	2.012203	0.450367	0.883212
C220	C	1.069930	-0.216272	0.333242
C221	C	1.403263	0.117061	0.666576
C222	C	1.736597	0.450395	0.999909
C223	C	1.069942	-0.216272	0.383177
C224	C	1.403275	0.117062	0.716510
C225	C	1.736608	0.450395	1.049844
C226	C	1.070083	-0.099586	0.216491
C227	C	1.403417	0.233747	0.549825
C228	C	1.736750	0.567081	0.883158
C229	C	1.070219	-0.049652	0.216367
C230	C	1.403552	0.283682	0.549700
C231	C	1.736885	0.617015	0.883033
C232	C	1.117347	-0.245088	0.692789
C233	C	1.450681	0.088245	1.026122
C234	C	1.784014	0.421579	1.359455
C235	C	1.117399	-0.245117	0.880462
C236	C	1.450732	0.088216	1.213795
C237	C	1.784065	0.421549	1.547129
O238	O	1.157631	-0.269587	0.904700
O239	O	1.490965	0.063747	1.238033
O240	O	1.824298	0.397080	1.571367
N241	N	1.070080	-0.216368	0.903962
N242	N	1.403414	0.116966	1.237295
N243	N	1.736747	0.450299	1.570629
C244	C	1.022742	-0.187610	0.880541
C245	C	1.356076	0.145723	1.213874
C246	C	1.689409	0.479056	1.547208
O247	O	0.982491	-0.163161	0.904835
O248	O	1.315824	0.170173	1.238169
O249	O	1.649157	0.503506	1.571502
C250	C	1.022688	-0.187583	0.692869
C251	C	1.356021	0.145750	1.026202
C252	C	1.689354	0.479083	1.359535
C253	C	1.070015	-0.216332	0.669371
C254	C	1.403348	0.117001	1.002704
C255	C	1.736681	0.450335	1.336038
C256	C	1.164670	-0.273834	0.669291
C257	C	1.498003	0.059499	1.002624
C258	C	1.831337	0.392832	1.335958
C259	C	1.164659	-0.273825	0.622376
C260	C	1.497993	0.059508	0.955709
C261	C	1.831326	0.392842	1.289042
C262	C	1.117326	-0.245069	0.598958
C263	C	1.450660	0.088264	0.932291
C264	C	1.783993	0.421598	1.265625
C265	C	1.070004	-0.216323	0.622456
C266	C	1.403337	0.117011	0.955789
C267	C	1.736671	0.450344	1.289122
C268	C	0.975346	-0.158829	0.669449
C269	C	1.308680	0.174505	1.002782
C270	C	1.642013	0.507838	1.336115
C271	C	0.975336	-0.158825	0.622527
C272	C	1.308669	0.174508	0.955861
C273	C	1.642002	0.507841	1.289194
C274	C	1.022662	-0.187574	0.599030
C275	C	1.355996	0.145759	0.932363
C276	C	1.689329	0.479093	1.265696
C277	C	1.022661	-0.187557	0.552122
C278	C	1.355994	0.145776	0.885456
C279	C	1.689327	0.479109	1.218789
N280	N	1.069979	-0.216307	0.528622
N281	N	1.403312	0.117026	0.861956
N282	N	1.736646	0.450360	1.195289
C283	C	1.117312	-0.245063	0.552040
C284	C	1.450645	0.088270	0.885373
C285	C	1.783979	0.421604	1.218707
C286	C	1.022775	-0.187626	0.979071
C287	C	1.356109	0.145707	1.312405
C288	C	1.689442	0.479041	1.645738
C289	C	1.022790	-0.187632	1.025989
C290	C	1.356123	0.145701	1.359323
C291	C	1.689456	0.479035	1.692656
C292	C	1.117445	-0.245140	1.025907
C293	C	1.450779	0.088194	1.359240
C294	C	1.784112	0.421527	1.692574
C295	C	1.117434	-0.245131	0.978988
C296	C	1.450768	0.088202	1.312322
C297	C	1.784101	0.421536	1.645655
C298	C	1.070094	-0.216376	0.955571
C299	C	1.403427	0.116958	1.288905
C300	C	1.736760	0.450291	1.622238
C301	C	1.117287	-0.245041	0.453514
C302	C	1.450620	0.088292	0.786848
C303	C	1.783954	0.421626	1.120181
C304	C	1.117274	-0.245028	0.406595
C305	C	1.450608	0.088306	0.739928
C306	C	1.783941	0.421639	1.073261
C307	C	1.022616	-0.187522	0.406681
C308	C	1.355950	0.145812	0.740014
C309	C	1.689283	0.479145	1.073348
C310	C	1.022631	-0.187533	0.453596
C311	C	1.355964	0.145800	0.786930
C312	C	1.689298	0.479134	1.120263
C313	C	1.069969	-0.216296	0.477012
C314	C	1.403302	0.117037	0.810345
C315	C	1.736636	0.450370	1.143679
O316	O	0.982443	-0.163104	0.527855
O317	O	1.315777	0.170229	0.861189
O318	O	1.649110	0.503562	1.194522
O319	O	1.157546	-0.269516	0.527737
O320	O	1.490879	0.063817	0.861071
O321	O	1.824213	0.397151	1.194404
C322	C	1.117358	-0.245097	0.739704
C323	C	1.450691	0.088236	1.073038
C324	C	1.784025	0.421569	1.406371
C325	C	1.070035	-0.216351	0.763202
C326	C	1.403369	0.116983	1.096535
C327	C	1.736702	0.450316	1.429869
C328	C	1.022703	-0.187595	0.739784
C329	C	1.356036	0.145739	1.073118
C330	C	1.689369	0.479072	1.406451
C331	C	1.070050	-0.216357	0.810120
C332	C	1.403383	0.116977	1.143453
C333	C	1.736717	0.450310	1.476786
C334	C	1.117383	-0.245113	0.833538
C335	C	1.450716	0.088221	1.166871
C336	C	1.784049	0.421554	1.500204
C337	C	1.164701	-0.273863	0.810037
C338	C	1.498035	0.059471	1.143371
C339	C	1.831368	0.392804	1.476704
C340	C	1.164691	-0.273853	0.763122
C341	C	1.498024	0.059480	1.096455
C342	C	1.831357	0.392813	1.429789
C343	C	0.975384	-0.158845	0.763284
C344	C	1.308717	0.174488	1.096618
C345	C	1.642051	0.507822	1.429951
C346	C	0.975399	-0.158856	0.810200
C347	C	1.308732	0.174477	1.143533
C348	C	1.642066	0.507810	1.476866
C349	C	1.022732	-0.187612	0.833618
C350	C	1.356065	0.145721	1.166951
C351	C	1.689399	0.479054	1.500284
C352	C	1.070174	-0.216358	1.099341
C353	C	1.403507	0.116975	1.432675
C354	C	1.736840	0.450309	1.766008
C355	C	1.070123	-0.216388	1.049407
C356	C	1.403456	0.116945	1.382740
C357	C	1.736789	0.450279	1.716074
H358	H	0.507973	-0.264282	0.159223
H359	H	0.841307	0.069052	0.492556
H360	H	1.174640	0.402385	0.825890
Br361	Br	0.649350	-0.286590	0.151910
Br362	Br	0.982683	0.046744	0.485243
Br363	Br	1.316016	0.380077	0.818576
Br364	Br	0.958500	-1.058013	0.284086
Br365	Br	1.291833	-0.724680	0.617419
Br366	Br	1.625167	-0.391347	0.950753
H367	H	1.156202	-0.960185	0.164265
H368	H	1.489536	-0.626851	0.497598
H369	H	1.822869	-0.293518	0.830932
Br370	Br	0.910975	-0.590846	0.312888
Br371	Br	1.244308	-0.257512	0.646221
Br372	Br	1.577641	0.075821	0.979554
Br373	Br	0.493416	-0.189417	0.124624
Br374	Br	0.826749	0.143916	0.457958
Br375	Br	1.160082	0.477249	0.791291
H376	H	1.203548	-0.744364	0.135580
H377	H	1.536882	-0.411030	0.468913
H378	H	1.870215	-0.077697	0.802246
H379	H	1.156211	-1.045307	0.164249
H380	H	1.489545	-0.711973	0.497582
H381	H	1.822878	-0.378640	0.830916
Br382	Br	0.647346	-0.309724	0.238063
Br383	Br	0.980679	0.023609	0.571397
Br384	Br	1.314012	0.356943	0.904730
H385	H	1.203527	-0.603617	0.135614
H386	H	1.536860	-0.270284	0.468947
H387	H	1.870193	0.063050	0.802280
Br388	Br	1.181834	-0.485634	0.148763
Br389	Br	1.515167	-0.152301	0.482096
Br390	Br	1.848500	0.181033	0.815430
H391	H	1.203538	-0.688722	0.135592
H392	H	1.536871	-0.355389	0.468926
H393	H	1.870205	-0.022055	0.802259
H394	H	0.506178	-0.156982	0.262456
H395	H	0.839511	0.176351	0.595790
H396	H	1.172845	0.509685	0.929123
H397	H	0.506933	-0.242819	0.286620
H398	H	0.840266	0.090514	0.619953
H399	H	1.173599	0.423847	0.953287
H400	H	0.936839	-0.135429	0.744221
H401	H	1.270172	0.197904	1.077555
H402	H	1.603506	0.531238	1.410888
Br403	Br	0.958457	-0.947438	0.284100
Br404	Br	1.291791	-0.614105	0.617434
Br405	Br	1.625124	-0.280772	0.950767
Br406	Br	1.181683	-0.284165	1.057697
Br407	Br	1.515017	0.049168	1.391030
Br408	Br	1.848350	0.382501	1.724364
H409	H	1.203557	-0.829482	0.135564
H410	H	1.536890	-0.496148	0.468897
H411	H	1.870223	-0.162815	0.802230
H412	H	0.633960	-0.204897	0.142507
H413	H	0.967293	0.128437	0.475840
H414	H	1.300627	0.461770	0.809173
Br415	Br	0.494053	-0.125858	0.186193
Br416	Br	0.827387	0.207476	0.519526
Br417	Br	1.160720	0.540809	0.852859
H418	H	0.936732	-0.688692	0.297278
H419	H	1.270065	-0.355359	0.630612
H420	H	1.603399	-0.022025	0.963945
Br421	Br	0.958380	-0.485627	0.284205
Br422	Br	1.291713	-0.152294	0.617538
Br423	Br	1.625046	0.181039	0.950872
H424	H	0.984224	-0.164209	0.960009
H425	H	1.317557	0.169125	1.293342
H426	H	1.650891	0.502458	1.626675
H427	H	1.156093	-0.387790	0.164395
H428	H	1.489426	-0.054456	0.497728
H429	H	1.822759	0.278877	0.831062
H430	H	1.155816	-0.268438	0.387464
H431	H	1.489150	0.064895	0.720798
H432	H	1.822483	0.398229	1.054131
Br433	Br	0.911044	-0.842179	0.312843
Br434	Br	1.244377	-0.508846	0.646176
Br435	Br	1.577710	-0.175513	0.979510
Br436	Br	0.649129	-0.123807	0.190304
Br437	Br	0.982463	0.209527	0.523637
Br438	Br	1.315796	0.542860	0.856971
Br439	Br	0.958362	-0.375031	0.284226
Br440	Br	1.291695	-0.041697	0.617559
Br441	Br	1.625029	0.291636	0.950892
H442	H	0.936760	-0.744342	0.297267
H443	H	1.270094	-0.411009	0.630601
H444	H	1.603427	-0.077675	0.963934
Br445	Br	1.228912	-0.312868	0.701063
Br446	Br	1.562246	0.020465	1.034397
Br447	Br	1.895579	0.353798	1.367730
Br448	Br	1.181666	-0.284148	0.947104
Br449	Br	1.514999	0.049185	1.280437
Br450	Br	1.848332	0.382519	1.613770
H451	H	0.633745	-0.159236	0.264400
H452	H	0.967078	0.174098	0.597733
H453	H	1.300411	0.507431	0.931067
H454	H	0.634162	-0.242871	0.286396
H455	H	0.967495	0.090463	0.619730
H456	H	1.300828	0.423796	0.953063
Br457	Br	1.228942	-0.312886	0.841828
Br458	Br	1.562275	0.020447	1.175161
Br459	Br	1.895609	0.353781	1.508495
Br460	Br	0.958570	-0.148607	1.057873
Br461	Br	1.291904	0.184726	1.391207
Br462	Br	1.625237	0.518060	1.724540
H463	H	1.203229	-0.297263	0.743994
H464	H	1.536562	0.036070	1.077327
H465	H	1.869895	0.369404	1.410660
Br466	Br	1.181533	-0.284076	0.485285
Br467	Br	1.514866	0.049257	0.818618
Br468	Br	1.848199	0.382590	1.151952
Br469	Br	1.228887	-0.312846	0.590493
Br470	Br	1.562220	0.020487	0.923827
Br471	Br	1.895554	0.353820	1.257160
Br472	Br	0.911111	-0.119811	0.701326
Br473	Br	1.244444	0.213522	1.034660
Br474	Br	1.577778	0.546855	1.367993
Br475	Br	0.911082	-0.119799	0.590750
Br476	Br	1.244416	0.213534	0.924083
Br477	Br	1.577749	0.546868	1.257417
H478	H	0.936861	-0.135442	0.829328
H479	H	1.270194	0.197892	1.162661
H480	H	1.603528	0.531225	1.495994
H481	H	0.984100	-0.164120	0.472729
H482	H	1.317433	0.169213	0.806063
H483	H	1.650766	0.502547	1.139396
H484	H	0.506041	-0.285881	0.243572
H485	H	0.839374	0.047452	0.576905
H486	H	1.172708	0.380785	0.910238
Br487	Br	0.958383	-0.148497	0.374891
Br488	Br	1.291716	0.184836	0.708224
Br489	Br	1.625050	0.518170	1.041557
