data_functionalizedCrystal
_audit_creation_method	'MofGen! by Chris Wilmer'
_symmetry_space_group_name_H-M	'P1'
_symmetry_Int_Tables_number	1
_symmetry_cell_setting	triclinic
loop_
_symmetry_equiv_pos_as_xyz
  x,y,z
_cell_length_a	14.853567
_cell_length_b	10.540539
_cell_length_c	13.930277
_cell_angle_alpha	89.997612
_cell_angle_beta	89.995755
_cell_angle_gamma	84.080211
loop_
_atom_site_label
_atom_site_type_symbol
_atom_site_fract_x
_atom_site_fract_y
_atom_site_fract_z
O1	O	1.197288	0.165727	-0.079760
O2	O	0.934938	0.185470	-0.079776
O3	O	1.072098	-0.009174	-0.079766
O4	O	1.060128	0.360371	-0.079770
O5	O	1.072079	-0.009178	0.079895
O6	O	0.934919	0.185465	0.079886
O7	O	1.197269	0.165723	0.079902
Zn8	Zn	1.066091	0.175594	0.105244
Zn9	Zn	1.066116	0.175599	-0.105118
O10	O	1.060108	0.360367	0.079892
C11	C	0.901335	0.184573	0.000053
C12	C	0.801236	0.181892	0.000047
C13	C	0.387998	0.054938	0.000069
C14	C	0.368000	0.286179	0.000066
C15	C	0.462048	0.288700	0.000063
C16	C	0.519075	0.174338	0.000062
C17	C	0.482055	0.057455	0.000063
C18	C	0.499075	0.405580	0.000052
C19	C	0.593129	0.408105	0.000048
C20	C	0.650158	0.293742	0.000053
C21	C	0.613132	0.176855	0.000056
C22	C	0.670159	0.062493	0.000054
C23	C	0.633135	-0.054396	0.000064
C24	C	0.539084	-0.056908	0.000069
C25	C	0.744209	0.296254	0.000048
C26	C	0.764216	0.065010	0.000048
C27	C	1.071191	-0.056469	0.000063
C28	C	1.068505	-0.197388	0.000057
C29	C	0.965588	-0.379682	-0.000307
C30	C	0.968311	-0.233094	0.000052
C31	C	1.116712	-0.259578	0.091235
C32	C	1.113293	-0.406085	0.091312
C33	C	1.115353	-0.406621	-0.090254
C34	C	1.116276	-0.259649	-0.091459
C35	C	1.230872	0.166620	0.000071
C36	C	1.330971	0.169300	0.000071
C37	C	1.061016	0.407662	0.000061
C38	C	1.063702	0.548580	0.000060
N39	N	1.066080	0.175589	0.248810
N40	N	1.066134	0.175594	-0.248684
C41	C	1.005379	0.261753	0.701075
C42	C	1.126878	0.089435	0.701053
C43	C	1.126867	0.089431	0.600557
C44	C	1.066112	0.175591	0.550315
C45	C	1.005368	0.261755	0.600570
C46	C	1.187617	0.003277	0.550295
C47	C	1.187609	0.003271	0.449793
C48	C	1.126849	0.089426	0.399550
C49	C	1.066102	0.175592	0.449810
C50	C	1.005347	0.261752	0.399569
C51	C	0.944594	0.347913	0.449828
C52	C	0.944608	0.347909	0.550327
C53	C	1.126835	0.089429	0.299051
C54	C	1.005336	0.261753	0.299064
H55	H	0.508930	-0.152072	0.000099
C56	C	0.917058	-0.174968	-0.088242
N57	N	0.878447	-0.131193	-0.154745
H58	H	1.176303	0.019284	0.258135
C59	C	0.877767	0.442687	0.394549
N60	N	0.827433	0.514067	0.352909
H61	H	1.176347	0.019292	0.741962
C62	C	0.938548	0.356518	0.756359
N63	N	0.888209	0.427893	0.798001
C64	C	0.695877	-0.180189	0.000064
N65	N	0.743137	-0.274934	0.000068
H66	H	0.357849	-0.040229	0.000081
H67	H	1.237076	-0.066887	0.408879
C68	C	0.938522	0.356570	0.243807
N69	N	0.888207	0.428000	0.202187
C70	C	0.305268	0.411970	0.000068
N71	N	0.258013	0.506721	0.000073
H72	H	0.895146	0.418060	0.591253
H73	H	1.237086	-0.066865	0.591205
H74	H	0.810642	-0.028119	0.000051
H75	H	0.774350	0.391423	0.000042
C76	C	1.214967	-0.228024	-0.098888
N77	N	1.289307	-0.204208	-0.104475
H78	H	0.452638	0.498687	0.000043
H79	H	0.623265	0.503283	0.000040
H80	H	0.926017	-0.407845	-0.065692
H81	H	0.926162	-0.409458	0.064707
C82	C	0.916688	-0.176113	0.088495
N83	N	0.877804	-0.133196	0.155114
C84	C	1.065130	-0.443655	0.183377
N85	N	1.028849	-0.471946	0.252721
H86	H	1.185351	-0.454846	0.095452
H87	H	1.190292	-0.238034	0.094629
C88	C	1.071447	-0.201544	0.182896
N89	N	1.037347	-0.157835	0.251932
H90	H	1.082933	-0.437815	-0.159360
H91	H	1.081003	-0.218401	-0.158910
C92	C	1.213119	-0.471504	-0.091081
N93	N	1.286753	-0.520382	-0.091697
