data_functionalizedCrystal
_audit_creation_method	'MofGen! by Chris Wilmer'
_symmetry_space_group_name_H-M	'P1'
_symmetry_Int_Tables_number	1
_symmetry_cell_setting	triclinic
loop_
_symmetry_equiv_pos_as_xyz
  x,y,z
_cell_length_a	10.685976
_cell_length_b	10.686285
_cell_length_c	12.759393
_cell_angle_alpha	94.397013
_cell_angle_beta	85.641244
_cell_angle_gamma	81.631153
loop_
_atom_site_label
_atom_site_type_symbol
_atom_site_fract_x
_atom_site_fract_y
_atom_site_fract_z
Zn1	Zn	1.979330	-0.653839	0.425686
Zn2	Zn	2.479330	-0.153839	0.925686
Zn3	Zn	1.995511	-0.866117	0.235439
Zn4	Zn	2.495511	-0.366117	0.735439
Zn5	Zn	1.767073	-0.637649	0.264635
Zn6	Zn	2.267073	-0.137649	0.764635
Zn7	Zn	1.783364	-0.849780	0.425693
Zn8	Zn	2.283364	-0.349780	0.925693
O9	O	1.881320	-0.751846	0.337864
O10	O	2.381320	-0.251846	0.837864
O11	O	2.159092	-0.695611	0.388228
O12	O	2.659092	-0.195611	0.888228
O13	O	1.965162	-0.835872	0.092290
O14	O	2.465162	-0.335872	0.592290
O15	O	1.781640	-0.462179	0.298215
O16	O	2.281640	0.037821	0.798215
O17	O	2.170980	-0.851571	0.248454
O18	O	2.670980	-0.351571	0.748454
O19	O	1.937585	-0.474074	0.416538
O20	O	2.437585	0.025926	0.916538
O21	O	1.797330	-0.668017	0.113740
O22	O	2.297330	-0.168017	0.613740
O23	O	1.591619	-0.652176	0.298222
O24	O	2.091619	-0.152176	0.798222
O25	O	1.809405	-0.823727	0.572714
O26	O	2.309405	-0.323727	1.072714
O27	O	1.603588	-0.808028	0.416550
O28	O	2.103588	-0.308028	0.916550
O29	O	1.953381	-0.679770	0.572709
O30	O	2.453381	-0.179770	1.072709
O31	O	1.980959	-1.041567	0.248461
O32	O	2.480959	-0.541567	0.748461
O33	O	1.825095	-1.029564	0.388240
O34	O	2.325095	-0.529564	0.888240
C35	C	1.551550	-0.726573	0.360555
C36	C	2.051550	-0.226573	0.860555
C37	C	1.410476	-0.715791	0.370286
C38	C	1.910476	-0.215791	0.870286
C39	C	1.906585	-1.081623	0.315204
C40	C	2.406585	-0.581623	0.815204
C41	C	1.917510	-1.222711	0.305537
C42	C	2.417510	-0.722711	0.805537
C43	C	2.212377	-0.777219	0.315084
C44	C	2.712377	-0.277219	0.815084
C45	C	2.353454	-0.788032	0.305376
C46	C	2.853454	-0.288032	0.805376
C47	C	1.881405	-0.751732	0.611899
C48	C	2.381405	-0.251732	1.111899
C49	C	1.881442	-0.751683	0.728676
C50	C	2.381442	-0.251683	1.228676
C51	C	1.855990	-0.420785	0.360632
C52	C	2.355990	0.079215	0.860632
C53	C	1.845196	-0.279706	0.370335
C54	C	2.345196	0.220294	0.870335
C55	C	1.881300	-0.751874	0.064896
C56	C	2.381300	-0.251874	0.564896
C57	C	1.881482	-0.751585	-0.051874
C58	C	2.381482	-0.251585	0.448126
C59	C	1.956415	-0.676712	0.783538
C60	C	2.456415	-0.176712	1.283538
C61	C	1.956432	-0.676659	0.893264
C62	C	2.456432	-0.176659	1.393264
C63	C	1.806500	-0.826558	0.893258
C64	C	2.306500	-0.326558	1.393258
C65	C	1.806477	-0.826604	0.783534
C66	C	2.306477	-0.326604	1.283534
H67	H	1.774929	-1.220567	0.433209
H68	H	2.274929	-0.720567	0.933209
H69	H	1.987773	-1.281858	0.242653
H70	H	2.487773	-0.781858	0.742653
C71	C	1.352628	-0.947338	0.162210
C72	C	1.852628	-0.447338	0.662210
C73	C	1.433243	-0.882677	0.220297
C74	C	1.933243	-0.382677	0.720297
H75	H	1.401890	-1.005772	0.109693
H76	H	1.901890	-0.505772	0.609693
H77	H	1.296660	-0.888070	0.129429
H78	H	1.796660	-0.388070	0.629429
H79	H	1.304678	-0.992043	0.208116
H80	H	1.804678	-0.492043	0.708116
H81	H	1.481187	-0.837964	0.174392
H82	H	1.981187	-0.337964	0.674392
H83	H	1.489233	-0.941953	0.253079
H84	H	1.989233	-0.441953	0.753079
H85	H	1.351368	-0.645697	0.433308
H86	H	1.851368	-0.145697	0.933308
H87	H	2.017452	-0.615703	0.738876
H88	H	2.517452	-0.115703	1.238876
C89	C	2.104643	-0.528511	0.882240
C90	C	2.604643	-0.028511	1.382240
C91	C	2.038852	-0.594255	0.953567
C92	C	2.538852	-0.094255	1.453567
H93	H	2.155532	-0.477642	0.919470
H94	H	2.655532	0.022358	1.419470
H95	H	2.045624	-0.475739	0.846586
H96	H	2.545624	0.024261	1.346586
H97	H	2.157409	-0.587571	0.832302
H98	H	2.657409	-0.087571	1.332302
H99	H	1.986078	-0.535195	1.003501
H100	H	2.486078	-0.035195	1.503501
H101	H	2.097879	-0.647030	0.989239
H102	H	2.597879	-0.147030	1.489239
C103	C	1.739969	-0.893056	1.061453
C104	C	2.239969	-0.393056	1.561453
C105	C	1.724113	-0.908919	0.953560
C106	C	2.224113	-0.408919	1.453560
H107	H	1.689112	-0.943912	1.098676
H108	H	2.189112	-0.443912	1.598676
H109	H	1.714872	-0.806354	1.086573
H110	H	2.214872	-0.306354	1.586573
H111	H	1.826679	-0.918164	1.072282
H112	H	2.326679	-0.418164	1.572282
H113	H	1.637405	-0.883801	0.942730
H114	H	2.137405	-0.383801	1.442730
H115	H	1.749202	-0.995640	0.928432
H116	H	2.249202	-0.495640	1.428432
C117	C	1.658285	-0.974789	0.794538
C118	C	2.158285	-0.474789	1.294538
C119	C	1.724066	-0.909024	0.723221
C120	C	2.224066	-0.409024	1.223221
H121	H	1.607415	-1.025672	0.757300
H122	H	2.107415	-0.525672	1.257300
H123	H	1.605513	-0.915751	0.844473
H124	H	2.105513	-0.415751	1.344473
H125	H	1.717320	-1.027560	0.830195
H126	H	2.217320	-0.527560	1.330195
H127	H	1.665030	-0.856245	0.687569
H128	H	2.165030	-0.356245	1.187569
H129	H	1.776842	-0.968069	0.673268
H130	H	2.276842	-0.468069	1.173268
