data_functionalizedCrystal
_audit_creation_method	'MofGen! by Chris Wilmer'
_symmetry_space_group_name_H-M	'P1'
_symmetry_Int_Tables_number	1
_symmetry_cell_setting	triclinic
loop_
_symmetry_equiv_pos_as_xyz
  x,y,z
_cell_length_a	16.625548
_cell_length_b	16.120484
_cell_length_c	16.625539
_cell_angle_alpha	92.868615
_cell_angle_beta	89.979432
_cell_angle_gamma	92.926626
loop_
_atom_site_label
_atom_site_type_symbol
_atom_site_fract_x
_atom_site_fract_y
_atom_site_fract_z
Zn1	Zn	1.216388	-0.331882	-0.472167
Zn2	Zn	1.466388	-0.081882	-0.222167
Zn3	Zn	1.716388	0.168118	0.027833
Zn4	Zn	1.966388	0.418118	0.277833
Zn5	Zn	1.209447	-0.471307	-0.344164
Zn6	Zn	1.459447	-0.221307	-0.094164
Zn7	Zn	1.709447	0.028693	0.155836
Zn8	Zn	1.959447	0.278693	0.405836
Zn9	Zn	1.081548	-0.331914	-0.337349
Zn10	Zn	1.331548	-0.081914	-0.087349
Zn11	Zn	1.581548	0.168086	0.162651
Zn12	Zn	1.831548	0.418086	0.412651
Zn13	Zn	1.074678	-0.471259	-0.478951
Zn14	Zn	1.324678	-0.221259	-0.228951
Zn15	Zn	1.574678	0.028741	0.021049
Zn16	Zn	1.824678	0.278741	0.271049
O17	O	1.145515	-0.401591	-0.408158
O18	O	1.395515	-0.151591	-0.158158
O19	O	1.645515	0.098409	0.091842
O20	O	1.895515	0.348409	0.341842
O21	O	1.328299	-0.350384	-0.455200
O22	O	1.578299	-0.100384	-0.205200
O23	O	1.828299	0.149616	0.044800
O24	O	2.078299	0.399616	0.294800
O25	O	1.192451	-0.452849	-0.230429
O26	O	1.442451	-0.202849	0.019571
O27	O	1.692451	0.047151	0.269571
O28	O	1.942451	0.297151	0.519571
O29	O	1.105215	-0.215244	-0.349541
O30	O	1.355215	0.034756	-0.099541
O31	O	1.605215	0.284756	0.150459
O32	O	1.855215	0.534756	0.400459
O33	O	1.323200	-0.452819	-0.361156
O34	O	1.573200	-0.202819	-0.111156
O35	O	1.823200	0.047181	0.138844
O36	O	2.073200	0.297181	0.388844
O37	O	1.204281	-0.215221	-0.448592
O38	O	1.454281	0.034779	-0.198592
O39	O	1.704281	0.284779	0.051408
O40	O	1.954281	0.534779	0.301408
O41	O	1.098484	-0.350438	-0.225422
O42	O	1.348484	-0.100438	0.024578
O43	O	1.598484	0.149562	0.274578
O44	O	1.848484	0.399562	0.524578
O45	O	0.967805	-0.350392	-0.356120
O46	O	1.217805	-0.100392	-0.106120
O47	O	1.467805	0.149608	0.143880
O48	O	1.717805	0.399608	0.393880
O49	O	1.093506	-0.452737	-0.590882
O50	O	1.343506	-0.202737	-0.340882
O51	O	1.593506	0.047263	-0.090882
O52	O	1.843506	0.297263	0.159118
O53	O	0.962757	-0.452768	-0.460155
O54	O	1.212757	-0.202768	-0.210155
O55	O	1.462757	0.047232	0.039845
O56	O	1.712757	0.297232	0.289845
O57	O	1.197620	-0.350338	-0.585898
O58	O	1.447620	-0.100338	-0.335898
O59	O	1.697620	0.149662	-0.085898
O60	O	1.947620	0.399662	0.164102
O61	O	1.185789	-0.587966	-0.367735
O62	O	1.435789	-0.337966	-0.117735
O63	O	1.685789	-0.087966	0.132265
O64	O	1.935789	0.162034	0.382265
O65	O	1.086775	-0.587931	-0.466763
O66	O	1.336775	-0.337931	-0.216763
O67	O	1.586775	-0.087931	0.033237
O68	O	1.836775	0.162069	0.283237
C69	C	0.936025	-0.401579	-0.408135
C70	C	1.186025	-0.151579	-0.158135
C71	C	1.436025	0.098421	0.091865
C72	C	1.686025	0.348421	0.341865
C73	C	0.846403	-0.401594	-0.408145
C74	C	1.096403	-0.151594	-0.158145
C75	C	1.346403	0.098406	0.091855
C76	C	1.596403	0.348406	0.341855
C77	C	1.134805	-0.618199	-0.418742
C78	C	1.384805	-0.368199	-0.168742
C79	C	1.634805	-0.118199	0.081258
C80	C	1.884805	0.131801	0.331258
C81	C	1.130297	-0.710865	-0.423297
C82	C	1.380297	-0.460865	-0.173297
C83	C	1.630297	-0.210865	0.076703
C84	C	1.880297	0.039135	0.326703
C85	C	0.518227	-0.401599	-0.408180
C86	C	0.768227	-0.151599	-0.158180
C87	C	1.018227	0.098401	0.091820
C88	C	1.268227	0.348401	0.341820
C89	C	0.609536	-0.401595	-0.408167
C90	C	0.859536	-0.151595	-0.158167
C91	C	1.109536	0.098405	0.091833
C92	C	1.359536	0.348405	0.341833
C93	C	0.682312	-0.401597	-0.408162
C94	C	0.932312	-0.151597	-0.158162
C95	C	1.182312	0.098403	0.091838
C96	C	1.432312	0.348403	0.341838
C97	C	0.773627	-0.401592	-0.408150
C98	C	1.023627	-0.151592	-0.158150
C99	C	1.273627	0.098408	0.091850
C100	C	1.523627	0.348408	0.341850
C101	C	1.122072	-0.880527	-0.431630
C102	C	1.372072	-0.630527	-0.181630
C103	C	1.622072	-0.380527	0.068370
C104	C	1.872072	-0.130527	0.318370
C105	C	1.169103	-0.921814	-0.384698
C106	C	1.419103	-0.671814	-0.134698
C107	C	1.669103	-0.421814	0.115302
C108	C	1.919103	-0.171814	0.365302
C109	C	1.164526	-1.016220	-0.389335
C110	C	1.414526	-0.766220	-0.139335
C111	C	1.664526	-0.516220	0.110665
C112	C	1.914526	-0.266220	0.360665
C113	C	1.126648	-0.786113	-0.426995
C114	C	1.376648	-0.536113	-0.176995
C115	C	1.626648	-0.286113	0.073005
C116	C	1.876648	-0.036113	0.323005
C117	C	1.355823	-0.401603	-0.408181
C118	C	1.605823	-0.151603	-0.158181
C119	C	1.855823	0.098397	0.091819
C120	C	2.105823	0.348397	0.341819
C121	C	1.445444	-0.401609	-0.408192
C122	C	1.695444	-0.151609	-0.158192
C123	C	1.945444	0.098391	0.091808
C124	C	2.195444	0.348391	0.341808
C125	C	1.145571	-0.401529	-0.618464
C126	C	1.395571	-0.151529	-0.368464
C127	C	1.645571	0.098471	-0.118464
C128	C	1.895571	0.348471	0.131536
C129	C	1.145594	-0.401502	-0.708084
C130	C	1.395594	-0.151502	-0.458084
C131	C	1.645594	0.098498	-0.208084
C132	C	1.895594	0.348498	0.041916
C133	C	1.156289	-0.184136	-0.397549
C134	C	1.406289	0.065864	-0.147549
C135	C	1.656289	0.315864	0.102451
C136	C	1.906289	0.565864	0.352451
C137	C	1.160880	-0.091470	-0.393029
C138	C	1.410880	0.158530	-0.143029
C139	C	1.660880	0.408530	0.106971
C140	C	1.910880	0.658530	0.356971
C141	C	1.145636	-0.401409	-1.036255
C142	C	1.395636	-0.151409	-0.786255
C143	C	1.645636	0.098591	-0.536255
C144	C	1.895636	0.348591	-0.286255
C145	C	1.145622	-0.401437	-0.944948
C146	C	1.395622	-0.151437	-0.694948
C147	C	1.645622	0.098563	-0.444948
C148	C	1.895622	0.348563	-0.194948
C149	C	1.145616	-0.401456	-0.872172
C150	C	1.395616	-0.151456	-0.622172
C151	C	1.645616	0.098544	-0.372172
C152	C	1.895616	0.348544	-0.122172
C153	C	1.145601	-0.401483	-0.780859
C154	C	1.395601	-0.151483	-0.530859
C155	C	1.645601	0.098517	-0.280859
C156	C	1.895601	0.348517	-0.030859
C157	C	1.145509	-0.401592	-0.198667
C158	C	1.395509	-0.151592	0.051333
C159	C	1.645509	0.098408	0.301333
C160	C	1.895509	0.348408	0.551333
C161	C	1.145653	-0.401384	-0.109036
C162	C	1.395653	-0.151384	0.140964
C163	C	1.645653	0.098616	0.390964
C164	C	1.895653	0.348616	0.640964
H165	H	1.078373	-0.916078	-0.475288
H166	H	1.328373	-0.666078	-0.225288
H167	H	1.578373	-0.416078	0.024712
H168	H	1.828373	-0.166078	0.274712
H169	H	1.212805	-0.886260	-0.341036
H170	H	1.462805	-0.636260	-0.091036
H171	H	1.712805	-0.386260	0.158964
H172	H	1.962805	-0.136260	0.408964
