data_functionalizedCrystal
_audit_creation_method	'MofGen! by Chris Wilmer'
_symmetry_space_group_name_H-M	'P1'
_symmetry_Int_Tables_number	1
_symmetry_cell_setting	triclinic
loop_
_symmetry_equiv_pos_as_xyz
  x,y,z
_cell_length_a	21.395362
_cell_length_b	19.077068
_cell_length_c	21.395355
_cell_angle_alpha	92.279051
_cell_angle_beta	89.956060
_cell_angle_gamma	92.343691
loop_
_atom_site_label
_atom_site_type_symbol
_atom_site_fract_x
_atom_site_fract_y
_atom_site_fract_z
Zn1	Zn	0.947861	-0.279990	-0.364586
Zn2	Zn	1.281194	0.053343	-0.031253
Zn3	Zn	1.614527	0.386677	0.302080
Zn4	Zn	0.943561	-0.397672	-0.264012
Zn5	Zn	1.276894	-0.064339	0.069321
Zn6	Zn	1.610227	0.268995	0.402655
Zn7	Zn	0.843074	-0.280023	-0.259789
Zn8	Zn	1.176408	0.053311	0.073545
Zn9	Zn	1.509741	0.386644	0.406878
Zn10	Zn	0.838842	-0.397686	-0.368717
Zn11	Zn	1.172175	-0.064353	-0.035384
Zn12	Zn	1.505508	0.268980	0.297949
O13	O	0.893334	-0.338843	-0.314276
O14	O	1.226668	-0.005509	0.019057
O15	O	1.560001	0.327824	0.352391
O16	O	1.034969	-0.295581	-0.351283
O17	O	1.368302	0.037752	-0.017950
O18	O	1.701636	0.371086	0.315383
O19	O	0.930203	-0.382073	-0.175774
O20	O	1.263536	-0.048740	0.157559
O21	O	1.596869	0.284594	0.490892
O22	O	0.860546	-0.181525	-0.270194
O23	O	1.193879	0.151808	0.063139
O24	O	1.527212	0.485141	0.396473
O25	O	1.031810	-0.382041	-0.277392
O26	O	1.365143	-0.048708	0.055941
O27	O	1.698476	0.284625	0.389275
O28	O	0.937532	-0.181501	-0.347188
O29	O	1.270865	0.151832	-0.013855
O30	O	1.604198	0.485165	0.319478
O31	O	0.856376	-0.295637	-0.172671
O32	O	1.189709	0.037697	0.160662
O33	O	1.523043	0.371030	0.493995
O34	O	0.754834	-0.295651	-0.274200
O35	O	1.088168	0.037683	0.059134
O36	O	1.421501	0.371016	0.392467
O37	O	0.853331	-0.382066	-0.455847
O38	O	1.186665	-0.048733	-0.122514
O39	O	1.519998	0.284601	0.210820
O40	O	0.751725	-0.382098	-0.354229
O41	O	1.085058	-0.048764	-0.020896
O42	O	1.418391	0.284569	0.312438
O43	O	0.933427	-0.295595	-0.452812
O44	O	1.266761	0.037738	-0.119479
O45	O	1.600094	0.371072	0.213855
O46	O	0.926098	-0.496167	-0.281398
O47	O	1.259432	-0.162833	0.051935
O48	O	1.592765	0.170500	0.385269
O49	O	0.849162	-0.496177	-0.358324
O50	O	1.182495	-0.162844	-0.024991
O51	O	1.515828	0.170489	0.308342
C52	C	0.730545	-0.338880	-0.314205
C53	C	1.063879	-0.005547	0.019129
C54	C	1.397212	0.327787	0.352462
C55	C	0.660903	-0.338913	-0.314190
C56	C	0.994236	-0.005579	0.019144
C57	C	1.327570	0.327754	0.352477
C58	C	0.626585	-0.383985	-0.355803
C59	C	0.959918	-0.050652	-0.022470
C60	C	1.293251	0.282681	0.310864
C61	C	0.561150	-0.383968	-0.355830
C62	C	0.894483	-0.050635	-0.022497
C63	C	1.227817	0.282699	0.310836
C64	C	0.530036	-0.338886	-0.314233
C65	C	0.863369	-0.005552	0.019100
C66	C	1.196702	0.327781	0.352433
C67	C	0.564362	-0.293804	-0.272617
C68	C	0.897695	0.039529	0.060717
C69	C	1.231029	0.372862	0.394050
C70	C	0.629796	-0.293818	-0.272595
C71	C	0.963129	0.039515	0.060738
C72	C	1.296462	0.372849	0.394072
C73	C	0.426513	-0.333216	-0.257626
C74	C	0.759847	0.000118	0.075708
C75	C	1.093180	0.333451	0.409041
C76	C	0.361081	-0.333207	-0.257647
C77	C	0.694414	0.000126	0.075687
C78	C	1.027747	0.333460	0.409020
C79	C	0.328216	-0.338840	-0.314301
C80	C	0.661550	-0.005506	0.019032
C81	C	0.994883	0.327827	0.352366
C82	C	0.360792	-0.344496	-0.370937
C83	C	0.694126	-0.011163	-0.037603
C84	C	1.027459	0.322171	0.295730
C85	C	0.426226	-0.344510	-0.370915
C86	C	0.759559	-0.011176	-0.037581
C87	C	1.092893	0.322157	0.295752
C88	C	0.459084	-0.338866	-0.314253
C89	C	0.792417	-0.005532	0.019081
C90	C	1.125751	0.327801	0.352414
C91	C	0.222946	-0.383896	-0.355947
C92	C	0.556280	-0.050563	-0.022614
C93	C	0.889613	0.282771	0.310719
C94	C	0.157511	-0.383874	-0.355976
C95	C	0.490844	-0.050541	-0.022642
C96	C	0.824177	0.282793	0.310691
C97	C	0.160724	-0.293714	-0.272756
C98	C	0.494057	0.039620	0.060577
C99	C	0.827390	0.372953	0.393910
C100	C	0.226158	-0.293732	-0.272734
C101	C	0.559492	0.039601	0.060600
C102	C	0.892825	0.372934	0.393933
C103	C	0.257266	-0.338827	-0.314328
C104	C	0.590599	-0.005494	0.019005
C105	C	0.923932	0.327840	0.352338
C106	C	0.886721	-0.521710	-0.320781
C107	C	1.220054	-0.188377	0.012552
C108	C	1.553388	0.144957	0.345885
C109	C	0.883949	-0.599942	-0.323585
C110	C	1.217283	-0.266608	0.009748
C111	C	1.550616	0.066725	0.343081
C112	C	0.922735	-0.636666	-0.284884
C113	C	1.256068	-0.303333	0.048449
C114	C	1.589402	0.030001	0.381782
C115	C	0.920132	-0.710173	-0.287525
C116	C	1.253465	-0.376839	0.045808
C117	C	1.586798	-0.043506	0.379141
C118	C	0.878739	-0.746954	-0.328864
C119	C	1.212072	-0.413620	0.004469
C120	C	1.545406	-0.080287	0.337802
C121	C	0.839952	-0.710224	-0.367570
C122	C	1.173285	-0.376891	-0.034236
C123	C	1.506619	-0.043558	0.299097
C124	C	0.842559	-0.636719	-0.364931
C125	C	1.175892	-0.303386	-0.031598
C126	C	1.509225	0.029948	0.301735
C127	C	0.866647	-0.966795	-0.341049
C128	C	1.199980	-0.633461	-0.007716
C129	C	1.533313	-0.300128	0.325618
C130	C	0.864041	-1.040305	-0.343683
C131	C	1.197375	-0.706972	-0.010350
C132	C	1.530708	-0.373639	0.322984
C133	C	0.944222	-1.040249	-0.263639
C134	C	1.277555	-0.706915	0.069694
C135	C	1.610889	-0.373582	0.403028
C136	C	0.946823	-0.966742	-0.261002
C137	C	1.280156	-0.633409	0.072331
C138	C	1.613489	-0.300075	0.405665
C139	C	0.908038	-0.930019	-0.299709
C140	C	1.241371	-0.596685	0.033624
C141	C	1.574705	-0.263352	0.366957
N142	N	0.876076	-0.822090	-0.331564
N143	N	1.209409	-0.488756	0.001770
N144	N	1.542742	-0.155423	0.335103
N145	N	0.910705	-0.854884	-0.297013
N146	N	1.244038	-0.521551	0.036320
N147	N	1.577372	-0.188218	0.369654
C148	C	1.056759	-0.338806	-0.314348
C149	C	1.390092	-0.005473	0.018985
C150	C	1.723426	0.327861	0.352319
C151	C	1.126401	-0.338790	-0.314379
C152	C	1.459734	-0.005457	0.018955
C153	C	1.793067	0.327877	0.352288
C154	C	0.893387	-0.338828	-0.477699
C155	C	1.226720	-0.005495	-0.144366
C156	C	1.560053	0.327838	0.188968
C157	C	0.893409	-0.338822	-0.547340
C158	C	1.226743	-0.005489	-0.214007
C159	C	1.560076	0.327844	0.119327
C160	C	0.899990	-0.155261	-0.307759
C161	C	1.233324	0.178072	0.025574
C162	C	1.566657	0.511406	0.358908
C163	C	0.902827	-0.077030	-0.304982
C164	C	1.236160	0.256304	0.028351
C165	C	1.569493	0.589637	0.361685
C166	C	0.935113	-0.293795	-0.578474
C167	C	1.268447	0.039538	-0.245140
C168	C	1.601780	0.372872	0.088193
C169	C	0.935114	-0.293765	-0.643908
C170	C	1.268447	0.039569	-0.310575
C171	C	1.601780	0.372902	0.022759
C172	C	0.893416	-0.338774	-0.678207
C173	C	1.226749	-0.005441	-0.344873
C174	C	1.560082	0.327892	-0.011540
C175	C	0.851704	-0.383805	-0.647065
C176	C	1.185037	-0.050472	-0.313732
C177	C	1.518370	0.282862	0.019601
C178	C	0.851700	-0.383829	-0.581632
C179	C	1.185034	-0.050496	-0.248299
C180	C	1.518367	0.282838	0.085035
C181	C	0.886177	-0.402150	-0.784134
C182	C	1.219510	-0.068817	-0.450801
C183	C	1.552843	0.264517	-0.117468
C184	C	0.886184	-0.402127	-0.849566
C185	C	1.219518	-0.068794	-0.516233
C186	C	1.552851	0.264539	-0.182900
C187	C	0.893422	-0.338700	-0.880025
C188	C	1.226756	-0.005367	-0.546692
C189	C	1.560089	0.327967	-0.213358
C190	C	0.900666	-0.275294	-0.845043
C191	C	1.233999	0.058040	-0.511710
C192	C	1.567333	0.391373	-0.178376
C193	C	0.900663	-0.275318	-0.779610
C194	C	1.233996	0.058016	-0.446276
C195	C	1.567329	0.391349	-0.112943
C196	C	0.893414	-0.338753	-0.749158
C197	C	1.226748	-0.005420	-0.415825
C198	C	1.560081	0.327914	-0.082492
C199	C	0.935129	-0.293636	-0.982110
C200	C	1.268462	0.039697	-0.648777
C201	C	1.601796	0.373031	-0.315443
C202	C	0.935125	-0.293605	-1.047545
C203	C	1.268458	0.039729	-0.714212
C204	C	1.601792	0.373062	-0.380879
C205	C	0.851718	-0.383651	-1.050701
C206	C	1.185051	-0.050318	-0.717368
C207	C	1.518385	0.283016	-0.384035
C208	C	0.851719	-0.383676	-0.985267
C209	C	1.185052	-0.050343	-0.651934
C210	C	1.518386	0.282990	-0.318600
C211	C	0.893428	-0.338670	-0.950975
C212	C	1.226761	-0.005336	-0.617642
C213	C	1.560095	0.327997	-0.284308
C214	C	0.893320	-0.338806	-0.151487
C215	C	1.226653	-0.005473	0.181846
C216	C	1.559987	0.327861	0.515179
C217	C	0.893426	-0.338614	-0.081839
C218	C	1.226759	-0.005281	0.251494
C219	C	1.560093	0.328053	0.584827
H220	H	0.135391	-0.257003	-0.238890
H221	H	0.468724	0.076330	0.094443
H222	H	0.802058	0.409663	0.427777
N223	N	0.819397	-1.079976	-0.388276
N224	N	1.152730	-0.746643	-0.054943
N225	N	1.486063	-0.413310	0.278390
H226	H	0.823629	-1.132114	-0.384069
H227	H	1.156963	-0.798780	-0.050736
H228	H	1.490296	-0.465447	0.282597
H229	H	0.775107	-1.067187	-0.378011
H230	H	1.108441	-0.733853	-0.044678
H231	H	1.441774	-0.400520	0.288655
H232	H	0.835065	-0.936900	-0.372565
H233	H	1.168399	-0.603567	-0.039232
H234	H	1.501732	-0.270234	0.294102
N235	N	0.980104	-0.245024	-1.081120
N236	N	1.313437	0.088310	-0.747786
N237	N	1.646770	0.421643	-0.414453
H238	H	1.024475	-0.255950	-1.070158
H239	H	1.357808	0.077384	-0.736825
H240	H	1.691141	0.410717	-0.403492
H241	H	0.973724	-0.251849	-1.127766
H242	H	1.307058	0.081485	-0.794432
H243	H	1.640391	0.414818	-0.461099
H244	H	0.906561	-0.223645	-0.869841
H245	H	1.239894	0.109688	-0.536507
H246	H	1.573228	0.443022	-0.203174
N247	N	0.795308	-0.749891	-0.412160
N248	N	1.128642	-0.416558	-0.078827
N249	N	1.461975	-0.083224	0.254507
H250	H	0.799539	-0.802030	-0.407958
H251	H	1.132873	-0.468696	-0.074624
H252	H	1.466206	-0.135363	0.258709
H253	H	0.751020	-0.737101	-0.401892
H254	H	1.084353	-0.403767	-0.068559
H255	H	1.417686	-0.070434	0.264775
N256	N	0.878376	-0.470567	-0.751288
N257	N	1.211709	-0.137234	-0.417954
N258	N	1.545042	0.196099	-0.084621
H259	H	0.879472	-0.460962	-0.704528
H260	H	1.212805	-0.127629	-0.371195
H261	H	1.546138	0.205704	-0.037862
H262	H	0.836962	-0.494494	-0.763550
H263	H	1.170296	-0.161160	-0.430216
H264	H	1.503629	0.172173	-0.096883
N265	N	0.967379	-0.596994	-0.240298
N266	N	1.300713	-0.263661	0.093035
N267	N	1.634046	0.069673	0.426368
H268	H	0.957218	-0.609825	-0.195979
H269	H	1.290551	-0.276491	0.137354
H270	H	1.623885	0.056842	0.470687
H271	H	1.011672	-0.609741	-0.250599
H272	H	1.345005	-0.276408	0.082734
H273	H	1.678338	0.056925	0.416068
N274	N	0.908467	-0.206931	-0.741886
N275	N	1.241800	0.126403	-0.408552
N276	N	1.575134	0.459736	-0.075219
H277	H	0.870535	-0.200352	-0.714475
H278	H	1.203868	0.132982	-0.381141
H279	H	1.537202	0.466315	-0.047808
H280	H	0.947061	-0.207920	-0.714836
H281	H	1.280395	0.125413	-0.381502
H282	H	1.613728	0.458747	-0.048169
N283	N	0.325357	-0.350576	-0.432048
N284	N	0.658690	-0.017242	-0.098715
N285	N	0.992024	0.316091	0.234618
H286	H	0.278962	-0.349706	-0.423471
H287	H	0.612296	-0.016372	-0.090138
H288	H	0.945629	0.316961	0.243196
H289	H	0.338317	-0.309924	-0.458669
H290	H	0.671650	0.023410	-0.125336
H291	H	1.004983	0.356743	0.207998
N292	N	0.986050	-1.079856	-0.221890
N293	N	1.319383	-0.746523	0.111444
N294	N	1.652716	-0.413190	0.444777
H295	H	0.978118	-1.132003	-0.229831
H296	H	1.311452	-0.798670	0.103502
H297	H	1.644785	-0.465336	0.436836
H298	H	1.031251	-1.066948	-0.231232
H299	H	1.364584	-0.733615	0.102101
H300	H	1.697918	-0.400282	0.435434
N301	N	0.263178	-0.245113	-0.227854
N302	N	0.596512	0.088220	0.105479
N303	N	0.929845	0.421553	0.438812
H304	H	0.233540	-0.216548	-0.201508
H305	H	0.566874	0.116785	0.131826
H306	H	0.900207	0.450119	0.465159
H307	H	0.289252	-0.273714	-0.199823
H308	H	0.622585	0.059619	0.133510
H309	H	0.955919	0.392953	0.466844
H310	H	0.817761	-0.420292	-1.078627
H311	H	1.151094	-0.086958	-0.745293
H312	H	1.484427	0.246375	-0.411960
H313	H	0.817763	-0.420347	-0.959918
H314	H	1.151096	-0.087013	-0.626585
H315	H	1.484429	0.246320	-0.293251
H316	H	0.951715	-0.740071	-0.256010
H317	H	1.285048	-0.406737	0.077323
H318	H	1.618381	-0.073404	0.410656
H319	H	0.248275	-0.420611	-0.389819
H320	H	0.581609	-0.087278	-0.056486
H321	H	0.914942	0.246055	0.276847
N322	N	0.120493	-0.432495	-0.400857
N323	N	0.453827	-0.099162	-0.067524
N324	N	0.787160	0.234171	0.265809
H325	H	0.094424	-0.403940	-0.428934
H326	H	0.427757	-0.070607	-0.095601
H327	H	0.761090	0.262726	0.237733
H328	H	0.150172	-0.461054	-0.427157
H329	H	0.483506	-0.127721	-0.093823
H330	H	0.816839	0.205613	0.239510
N331	N	0.878377	-0.470511	-0.887294
N332	N	1.211710	-0.137178	-0.553961
N333	N	1.545043	0.196155	-0.220627
H334	H	0.873783	-0.510695	-0.858071
H335	H	1.207116	-0.177362	-0.524738
H336	H	1.540450	0.155971	-0.191405
H337	H	0.839810	-0.469494	-0.914380
H338	H	1.173143	-0.136161	-0.581047
H339	H	1.506477	0.197173	-0.247713
H340	H	0.657737	-0.257112	-0.238708
H341	H	0.991071	0.076221	0.094625
H342	H	1.324404	0.409554	0.427959
N343	N	0.530805	-0.245186	-0.227747
N344	N	0.864138	0.088148	0.105587
N345	N	1.197472	0.421481	0.438920
H346	H	0.562477	-0.216634	-0.201380
H347	H	0.895811	0.116700	0.131954
H348	H	1.229144	0.450033	0.465287
H349	H	0.504873	-0.212651	-0.252149
H350	H	0.838206	0.120682	0.081185
H351	H	1.171539	0.454015	0.414518
N352	N	0.980110	-0.245095	-0.945118
N353	N	1.313443	0.088239	-0.611784
N354	N	1.646777	0.421572	-0.278451
H355	H	1.006527	-0.216560	-0.974773
H356	H	1.339861	0.116773	-0.641439
H357	H	1.673194	0.450107	-0.308106
H358	H	0.955786	-0.212540	-0.916784
H359	H	1.289120	0.120793	-0.583451
H360	H	1.622453	0.454126	-0.250118
H361	H	0.651908	-0.420704	-0.389674
H362	H	0.985241	-0.087371	-0.056340
H363	H	1.318575	0.245962	0.276993
H364	H	0.334562	-0.328606	-0.211530
H365	H	0.667896	0.004728	0.121803
H366	H	1.001229	0.338061	0.455136
N367	N	0.991477	-0.927072	-0.216424
N368	N	1.324810	-0.593739	0.116909
N369	N	1.658143	-0.260405	0.450243
H370	H	1.015657	-0.961491	-0.192311
H371	H	1.348990	-0.628158	0.141023
H372	H	1.682323	-0.294825	0.474356
H373	H	1.021538	-0.896530	-0.240879
H374	H	1.354872	-0.563196	0.092454
H375	H	1.688205	-0.229863	0.425788
H376	H	0.817751	-0.420450	-0.674995
H377	H	1.151084	-0.087117	-0.341662
H378	H	1.484418	0.246217	-0.008329
N379	N	0.800728	-0.597105	-0.406675
N380	N	1.134062	-0.263772	-0.073341
N381	N	1.467395	0.069562	0.259992
H382	H	0.774110	-0.631558	-0.433263
H383	H	1.107443	-0.298225	-0.099930
H384	H	1.440776	0.035108	0.233404
H385	H	0.772825	-0.566656	-0.380043
H386	H	1.106159	-0.233323	-0.046710
H387	H	1.439492	0.100011	0.286624
H388	H	0.817737	-0.420495	-0.556283
H389	H	1.151070	-0.087161	-0.222950
H390	H	1.484404	0.246172	0.110383
N391	N	0.461957	-0.327137	-0.196516
N392	N	0.795290	0.006197	0.136817
N393	N	1.128624	0.339530	0.470150
H394	H	0.431393	-0.323558	-0.160643
H395	H	0.764726	0.009775	0.172691
H396	H	1.098060	0.343109	0.506024
H397	H	0.487530	-0.370017	-0.192153
H398	H	0.820863	-0.036684	0.141180
H399	H	1.154197	0.296649	0.474513
N400	N	0.980103	-0.245204	-0.677497
N401	N	1.313437	0.088129	-0.344163
N402	N	1.646770	0.421462	-0.010830
H403	H	0.973777	-0.252021	-0.724152
H404	H	1.307110	0.081312	-0.390819
H405	H	1.640443	0.414646	-0.057485
H406	H	0.972181	-0.194941	-0.664260
H407	H	1.305514	0.138393	-0.330927
H408	H	1.638847	0.471726	0.002406
H409	H	0.969075	-0.257146	-0.550557
H410	H	1.302409	0.076187	-0.217224
H411	H	1.635742	0.409520	0.116110
H412	H	0.533203	-0.420671	-0.389719
H413	H	0.866536	-0.087338	-0.056386
H414	H	1.199869	0.245995	0.276947
H415	H	0.452747	-0.349113	-0.417029
H416	H	0.786080	-0.015780	-0.083696
H417	H	1.119414	0.317554	0.249637
