data_functionalizedCrystal
_audit_creation_method	'MofGen! by Chris Wilmer'
_symmetry_space_group_name_H-M	'P1'
_symmetry_Int_Tables_number	1
_symmetry_cell_setting	triclinic
loop_
_symmetry_equiv_pos_as_xyz
  x,y,z
_cell_length_a	12.594517
_cell_length_b	17.077402
_cell_length_c	17.077396
_cell_angle_alpha	90.029784
_cell_angle_beta	89.980091
_cell_angle_gamma	89.977317
loop_
_atom_site_label
_atom_site_type_symbol
_atom_site_fract_x
_atom_site_fract_y
_atom_site_fract_z
Zn1	Zn	1.627202	0.312512	-0.443844
Zn2	Zn	1.627076	0.443787	-0.312575
Zn3	Zn	1.449210	0.312539	-0.312591
Zn4	Zn	1.449166	0.443740	-0.443798
O5	O	1.538163	0.378145	-0.378202
O6	O	1.776131	0.329935	-0.426444
O7	O	1.603447	0.426408	-0.202730
O8	O	1.472892	0.202688	-0.330028
O9	O	1.776038	0.426382	-0.330001
O10	O	1.603661	0.202669	-0.426459
O11	O	1.472770	0.329980	-0.202742
O12	O	1.300258	0.329934	-0.329983
O13	O	1.472818	0.426301	-0.553651
O14	O	1.300226	0.426327	-0.426380
O15	O	1.603619	0.329889	-0.553685
O16	O	1.603405	0.553628	-0.329956
O17	O	1.472696	0.553593	-0.426365
C18	C	1.261622	0.378129	-0.378179
C19	C	1.143317	0.378141	-0.378188
C20	C	1.538061	0.582092	-0.378171
C21	C	1.538114	0.669342	-0.378184
C22	C	1.538228	0.378087	-0.582946
C23	C	1.538255	0.378062	-0.670196
C24	C	1.074050	0.325641	-0.325857
C25	C	1.003228	0.397243	-0.306544
C26	C	1.003340	0.306575	-0.397514
C27	C	1.074053	0.449780	-0.358837
C28	C	1.074171	0.359063	-0.449841
C29	C	1.003381	0.430714	-0.430554
C30	C	1.815784	0.378161	-0.378226
C31	C	1.934090	0.378168	-0.378236
C32	C	1.538295	0.173400	-0.378251
C33	C	1.538352	0.086150	-0.378271
C34	C	1.606244	0.710324	-0.328037
C35	C	1.606296	0.792305	-0.328057
C36	C	1.538212	0.833302	-0.378220
C37	C	1.470079	0.792314	-0.428372
C38	C	1.470033	0.710335	-0.428355
C39	C	1.470178	0.963184	-0.428402
C40	C	1.470222	1.045168	-0.428418
C41	C	1.606440	1.045154	-0.328104
C42	C	1.606394	0.963175	-0.328087
C43	C	1.538260	0.922193	-0.378238
C44	C	1.606366	0.327856	-0.711205
C45	C	1.606379	0.327830	-0.793186
C46	C	1.538285	0.378014	-0.834156
C47	C	1.470167	0.428223	-0.793141
C48	C	1.470150	0.428244	-0.711162
C49	C	1.470210	0.428175	-0.964011
C50	C	1.470228	0.428155	-1.045996
C51	C	1.606439	0.327761	-1.046035
C52	C	1.606422	0.327783	-0.964056
C53	C	1.538304	0.377992	-0.923047
C54	C	1.538160	0.378145	-0.174254
C55	C	1.538339	0.377949	-0.087005
H56	H	1.105080	0.281288	-0.281549
H57	H	1.414778	0.469018	-1.079351
H58	H	1.105356	0.342889	-0.510397
O59	O	1.672691	0.831969	-0.279385
C60	C	1.778702	0.811788	-0.296681
H61	H	1.780725	0.752262	-0.326887
H62	H	1.826511	0.808913	-0.240083
H63	H	1.814593	0.857870	-0.337057
O64	O	1.672409	0.278982	-0.924178
C65	C	1.611811	0.228282	-0.876789
H66	H	1.531138	0.255979	-0.864487
H67	H	1.655153	0.217761	-0.819150
H68	H	1.600142	0.170109	-0.908407
O69	O	1.672495	0.279001	-1.085988
C70	C	1.657922	0.289748	-1.167130
H71	H	1.575769	0.315454	-1.178307
H72	H	1.665174	0.230937	-1.198296
H73	H	1.721038	0.331539	-1.190401
O74	O	0.965917	0.416371	-0.234280
C75	C	0.902812	0.354637	-0.205364
H76	H	0.871841	0.318198	-0.256423
H77	H	0.832949	0.379769	-0.171112
H78	H	0.952614	0.316027	-0.165174
O79	O	1.404025	0.477035	-0.924295
C80	C	1.343920	0.521321	-0.978033
H81	H	1.387517	0.524007	-1.036481
H82	H	1.332554	0.583179	-0.954336
H83	H	1.263088	0.492587	-0.986735
H84	H	1.414720	0.469081	-0.826505
H85	H	0.972547	0.475174	-0.474829
O86	O	1.111124	0.521963	-0.339252
C87	C	1.223066	0.521074	-0.339451
H88	H	1.252379	0.458506	-0.330824
H89	H	1.253922	0.559540	-0.289860
H90	H	1.253416	0.544456	-0.397828
H91	H	0.972222	0.246048	-0.413814
H92	H	1.414557	0.676968	-0.469190
O93	O	1.672630	0.923471	-0.279335
C94	C	1.732760	0.977219	-0.235062
H95	H	1.736456	1.035634	-0.267224
H96	H	1.816613	0.953485	-0.226743
H97	H	1.693836	0.986001	-0.175418
O98	O	1.672327	0.670589	-0.279198
C99	C	1.649121	0.690679	-0.200950
H100	H	1.608240	0.750227	-0.199308
H101	H	1.725967	0.693463	-0.165805
H102	H	1.594393	0.644592	-0.174464
H103	H	1.414676	0.469119	-0.677773
H104	H	1.661921	1.078526	-0.287272
H105	H	1.414699	0.929818	-0.469243
O106	O	1.404063	1.084872	-0.477226
C107	C	1.343907	1.031124	-0.521481
H108	H	1.387463	0.972656	-0.524213
H109	H	1.332538	1.054776	-0.583326
H110	H	1.263078	1.022478	-0.492691
H111	H	1.414649	0.825700	-0.469219
O112	O	1.672400	0.278992	-0.671447
C113	C	1.649206	0.200753	-0.691514
H114	H	1.564181	0.196782	-0.714037
H115	H	1.658389	0.161984	-0.637615
H116	H	1.706291	0.180226	-0.739115
H117	H	1.661844	0.286949	-0.826572
