data_functionalizedCrystal
_audit_creation_method	'MofGen! by Chris Wilmer'
_symmetry_space_group_name_H-M	'P1'
_symmetry_Int_Tables_number	1
_symmetry_cell_setting	triclinic
loop_
_symmetry_equiv_pos_as_xyz
  x,y,z
_cell_length_a	16.974800
_cell_length_b	15.021413
_cell_length_c	16.992695
_cell_angle_alpha	89.996007
_cell_angle_beta	87.021674
_cell_angle_gamma	86.350491
loop_
_atom_site_label
_atom_site_type_symbol
_atom_site_fract_x
_atom_site_fract_y
_atom_site_fract_z
O1	O	1.055459	-0.002038	0.099874
O2	O	0.826058	0.014497	0.112612
O3	O	0.939839	0.006289	-0.007899
O4	O	0.941678	0.006170	0.220384
O5	O	0.939821	-0.141774	-0.007882
O6	O	0.826040	-0.133566	0.112629
O7	O	1.055441	-0.150101	0.099891
Zn8	Zn	0.940738	-0.165342	0.106263
Zn9	Zn	0.940762	0.029738	0.106240
O10	O	0.941660	-0.141893	0.220401
C11	C	0.796560	-0.057409	0.112137
C12	C	0.708692	-0.051075	0.110689
C13	C	0.667407	-0.128811	0.110016
C14	C	0.584846	-0.122862	0.108643
C15	C	0.543573	-0.039177	0.107948
C16	C	0.584864	0.038564	0.108619
C17	C	0.667424	0.032615	0.109987
C18	C	0.296658	-0.012729	0.103852
C19	C	0.214093	-0.006786	0.102486
C20	C	0.214080	-0.168213	0.102509
C21	C	0.296641	-0.174155	0.103881
C22	C	0.337926	-0.096413	0.104548
N23	N	0.459183	-0.033095	0.106547
N24	N	0.422315	-0.102497	0.105943
N25	N	0.940727	-0.298478	0.106278
C26	C	0.888104	-0.534365	0.161976
C27	C	0.960508	-0.598918	0.177113
C28	C	0.940746	-0.480087	0.106258
C29	C	0.868363	-0.592278	0.091138
C30	C	0.940758	-0.655512	0.106241
C31	C	1.013188	-0.543335	0.121430
C32	C	0.920993	-0.536687	0.035425
C33	C	0.993447	-0.601216	0.050532
C34	C	0.940738	-0.379029	0.106270
C35	C	0.940774	-0.756568	0.106228
C36	C	1.084939	-0.078194	0.100365
C37	C	1.172807	-0.084521	0.101813
C38	C	0.937464	-0.067572	-0.037100
C39	C	0.930404	-0.067063	-0.124137
N40	N	0.940778	0.162874	0.106219
C41	C	0.998520	-0.071974	-0.174453
C42	C	0.991882	-0.071487	-0.256233
C43	C	0.917128	-0.066095	-0.287693
C44	C	0.849008	-0.061182	-0.237370
C45	C	0.855646	-0.061662	-0.155592
C46	C	0.889613	-0.064100	-0.531260
C47	C	0.882980	-0.063622	-0.613044
C48	C	1.025855	-0.073926	-0.631901
C49	C	1.032487	-0.074412	-0.550121
C50	C	0.964366	-0.069493	-0.499805
N51	N	0.910341	-0.065600	-0.371284
N52	N	0.971154	-0.069982	-0.416215
C53	C	0.944035	-0.068030	0.249603
C54	C	0.951095	-0.068533	0.336639
H55	H	0.180457	-0.231505	0.101965
F56	F	0.783149	-0.056433	-0.102041
H57	H	0.807144	-0.613951	0.078358
F58	F	0.899115	-0.500987	-0.042837
H59	H	1.047349	-0.075488	-0.297198
F60	F	1.078083	-0.077721	-0.140979
F61	F	0.540938	0.127629	0.107856
F62	F	0.803413	-0.057888	-0.646524
H63	H	0.843638	-0.505142	0.209132
F64	F	0.711325	-0.217880	0.110761
F65	F	0.711363	0.115352	0.110700
F66	F	1.098348	-0.079159	-0.685456
H67	H	0.834145	-0.060095	-0.490302
H68	H	0.180490	0.061364	0.101923
F69	F	0.340561	-0.263224	0.104625
H70	H	1.038021	-0.630284	0.003403
F71	F	0.982361	-0.634587	0.255398
F72	F	1.093230	-0.515159	0.138227
H73	H	0.330262	0.050573	0.104392
H74	H	1.093359	-0.078802	-0.524513
F75	F	0.540910	-0.205599	0.107938
H76	H	0.788141	-0.056786	-0.262991
