data_functionalizedCrystal
_audit_creation_method	'MofGen! by Chris Wilmer'
_symmetry_space_group_name_H-M	'P1'
_symmetry_Int_Tables_number	1
_symmetry_cell_setting	triclinic
loop_
_symmetry_equiv_pos_as_xyz
  x,y,z
_cell_length_a	21.395362
_cell_length_b	14.908520
_cell_length_c	21.395355
_cell_angle_alpha	93.280325
_cell_angle_beta	89.956060
_cell_angle_gamma	93.337688
loop_
_atom_site_label
_atom_site_type_symbol
_atom_site_fract_x
_atom_site_fract_y
_atom_site_fract_z
Zn1	Zn	0.943513	-0.358891	-0.368965
Zn2	Zn	1.443513	0.141109	0.131035
Zn3	Zn	0.937386	-0.509736	-0.270231
Zn4	Zn	1.437386	-0.009736	0.229769
Zn5	Zn	0.838727	-0.358933	-0.264168
Zn6	Zn	1.338727	0.141067	0.235832
Zn7	Zn	0.832667	-0.509755	-0.374937
Zn8	Zn	1.332667	-0.009755	0.125063
O9	O	0.888073	-0.434329	-0.319575
O10	O	1.388073	0.065671	0.180425
O11	O	1.030380	-0.378876	-0.355906
O12	O	1.530380	0.121124	0.144094
O13	O	0.924270	-0.489742	-0.181749
O14	O	1.424270	0.010258	0.318251
O15	O	0.857727	-0.232679	-0.273033
O16	O	1.357727	0.267321	0.226967
O17	O	1.025878	-0.489701	-0.283367
O18	O	1.525878	0.010299	0.216633
O19	O	0.934713	-0.232649	-0.350027
O20	O	1.434713	0.267351	0.149973
O21	O	0.851786	-0.378948	-0.177295
O22	O	1.351786	0.121052	0.322705
O23	O	0.750244	-0.378966	-0.278823
O24	O	1.250244	0.121034	0.221177
O25	O	0.847399	-0.489733	-0.461822
O26	O	1.347399	0.010267	0.038178
O27	O	0.745792	-0.489773	-0.360205
O28	O	1.245792	0.010227	0.139795
O29	O	0.928838	-0.378894	-0.457435
O30	O	1.428838	0.121106	0.042565
O31	O	0.918395	-0.635987	-0.289157
O32	O	1.418395	-0.135987	0.210843
O33	O	0.841458	-0.636001	-0.366084
O34	O	1.341458	-0.136001	0.133916
C35	C	0.725284	-0.434377	-0.319504
C36	C	1.225284	0.065623	0.180496
C37	C	0.655641	-0.434419	-0.319490
C38	C	1.155641	0.065581	0.180510
C39	C	0.620623	-0.492193	-0.361808
C40	C	1.120623	0.007807	0.138192
C41	C	0.555188	-0.492171	-0.361835
C42	C	1.055188	0.007829	0.138165
C43	C	0.524774	-0.434384	-0.319533
C44	C	1.024774	0.065616	0.180467
C45	C	0.559800	-0.376599	-0.277212
C46	C	1.059800	0.123401	0.222788
C47	C	0.625234	-0.376616	-0.277190
C48	C	1.125234	0.123384	0.222810
C49	C	0.421340	-0.427116	-0.262837
C50	C	0.921340	0.072884	0.237163
C51	C	0.355907	-0.427105	-0.262858
C52	C	0.855907	0.072895	0.237142
C53	C	0.322956	-0.434325	-0.319600
C54	C	0.822956	0.065675	0.180400
C55	C	0.355444	-0.441575	-0.376324
C56	C	0.855444	0.058425	0.123676
C57	C	0.420877	-0.441593	-0.376302
C58	C	0.920877	0.058407	0.123698
C59	C	0.453823	-0.434358	-0.319552
C60	C	0.953823	0.065642	0.180448
C61	C	0.216986	-0.492079	-0.361951
C62	C	0.716986	0.007921	0.138049
C63	C	0.151550	-0.492050	-0.361979
C64	C	0.651550	0.007950	0.138021
C65	C	0.156163	-0.376483	-0.277350
C66	C	0.656163	0.123517	0.222650
C67	C	0.221598	-0.376506	-0.277327
C68	C	0.721598	0.123494	0.222673
C69	C	0.252005	-0.434309	-0.319627
C70	C	0.752005	0.065691	0.180373
C71	C	0.878621	-0.668729	-0.328940
C72	C	1.378621	-0.168729	0.171060
C73	C	0.874634	-0.769006	-0.332968
C74	C	1.374634	-0.269006	0.167032
C75	C	0.947340	-0.957362	-0.260497
C76	C	1.447340	-0.457362	0.239503
C77	C	0.943596	-1.051582	-0.264279
C78	C	1.443596	-0.551582	0.235721
C79	C	0.863407	-1.051666	-0.344317
C80	C	1.363407	-0.551666	0.155683
C81	C	0.867151	-0.957446	-0.340535
C82	C	1.367151	-0.457446	0.159465
C83	C	0.909118	-0.910298	-0.298623
C84	C	1.409118	-0.410298	0.201377
C85	C	0.912858	-0.816077	-0.294838
C86	C	1.412858	-0.316077	0.205162
C87	C	0.832672	-0.816163	-0.374879
C88	C	1.332672	-0.316163	0.125121
C89	C	0.828929	-0.910382	-0.378661
C90	C	1.328929	-0.410382	0.121339
C91	C	1.051498	-0.434282	-0.319647
C92	C	1.551498	0.065718	0.180353
C93	C	1.121141	-0.434262	-0.319677
C94	C	1.621141	0.065738	0.180323
C95	C	0.888126	-0.434311	-0.482998
C96	C	1.388126	0.065689	0.017002
C97	C	0.888148	-0.434303	-0.552639
C98	C	1.388148	0.065697	-0.052639
C99	C	0.897580	-0.199014	-0.310187
C100	C	1.397580	0.300986	0.189813
C101	C	0.901631	-0.098737	-0.306187
C102	C	1.401631	0.401263	0.193813
C103	C	0.930552	-0.376587	-0.583068
C104	C	1.430552	0.123413	-0.083068
C105	C	0.930553	-0.376548	-0.648502
C106	C	1.430553	0.123452	-0.148502
C107	C	0.888156	-0.434242	-0.683505
C108	C	1.388156	0.065758	-0.183505
C109	C	0.845745	-0.491962	-0.653068
C110	C	1.345745	0.008038	-0.153068
C111	C	0.845741	-0.491992	-0.587635
C112	C	1.345741	0.008008	-0.087635
C113	C	0.879933	-0.515477	-0.790423
C114	C	1.379933	-0.015477	-0.290423
C115	C	0.879941	-0.515447	-0.855855
C116	C	1.379941	-0.015447	-0.355855
C117	C	0.888164	-0.434146	-0.885322
C118	C	1.388164	0.065854	-0.385322
C119	C	0.896392	-0.352872	-0.849348
C120	C	1.396392	0.147128	-0.349348
C121	C	0.896388	-0.352902	-0.783915
C122	C	1.396388	0.147098	-0.283915
C123	C	0.888155	-0.434214	-0.754456
C124	C	1.388155	0.065786	-0.254456
C125	C	0.930570	-0.376383	-0.986702
C126	C	1.430570	0.123617	-0.486702
C127	C	0.930566	-0.376343	-1.052137
C128	C	1.430566	0.123657	-0.552137
C129	C	0.845761	-0.491764	-1.056701
C130	C	1.345761	0.008236	-0.556701
C131	C	0.845762	-0.491797	-0.991267
C132	C	1.345762	0.008203	-0.491267
C133	C	0.888170	-0.434107	-0.956272
C134	C	1.388170	0.065893	-0.456272
C135	C	0.888059	-0.434282	-0.156786
C136	C	1.388059	0.065718	0.343214
C137	C	0.888169	-0.434036	-0.087135
C138	C	1.388169	0.065964	0.412865
H139	H	0.329460	-0.421207	-0.216670
H140	H	0.829460	0.078793	0.283330
C141	C	1.023702	-1.157356	-0.259961
C142	C	1.523702	-0.657356	0.240039
C143	C	0.985635	-1.103296	-0.222381
C144	C	1.485635	-0.603296	0.277619
H145	H	1.049666	-1.189271	-0.234097
H146	H	1.549666	-0.689271	0.265903
H147	H	0.998174	-1.198935	-0.285443
H148	H	1.498174	-0.698935	0.214557
H149	H	1.049091	-1.120520	-0.285823
H150	H	1.549091	-0.620520	0.214177
H151	H	0.960243	-1.140132	-0.196522
H152	H	1.460243	-0.640132	0.303478
H153	H	1.011166	-1.061712	-0.196888
H154	H	1.511166	-0.561712	0.303112
H155	H	0.903086	-0.286726	-0.754629
H156	H	1.403086	0.213274	-0.254629
C157	C	1.014390	-0.262283	-0.988760
C158	C	1.514390	0.237717	-0.488760
C159	C	0.977176	-0.312962	-0.948229
C160	C	1.477176	0.187038	-0.448229
H161	H	1.043159	-0.223126	-0.965008
H162	H	1.543159	0.276874	-0.465008
H163	H	1.036770	-0.301568	-1.015873
H164	H	1.536770	0.198432	-0.515873
H165	H	0.988477	-0.227773	-1.012879
H166	H	1.488477	0.272227	-0.512879
H167	H	1.003088	-0.347478	-0.924113
H168	H	1.503088	0.152522	-0.424113
H169	H	0.954794	-0.273672	-0.921105
H170	H	1.454794	0.226328	-0.421105
C171	C	0.967233	-0.223813	-0.556850
C172	C	1.467233	0.276187	-0.056850
C173	C	0.977159	-0.313154	-0.544610
C174	C	1.477159	0.186846	-0.044610
H175	H	0.996004	-0.184649	-0.533105
H176	H	1.496004	0.315351	-0.033105
H177	H	0.973300	-0.215556	-0.600172
H178	H	1.473300	0.284444	-0.100172
H179	H	0.925666	-0.210642	-0.545562
H180	H	1.425666	0.289358	-0.045562
H181	H	1.018725	-0.326327	-0.555902
H182	H	1.518725	0.173673	-0.055902
H183	H	0.971097	-0.321415	-0.501278
H184	H	1.471097	0.178585	-0.001278
C185	C	0.689280	-0.613588	-0.375207
C186	C	1.189280	-0.113588	0.124793
C187	C	0.654048	-0.555718	-0.408310
C188	C	1.154048	-0.055718	0.091690
H189	H	0.709913	-0.652805	-0.403918
H190	H	1.209913	-0.152805	0.096082
H191	H	0.719500	-0.579182	-0.350005
H192	H	1.219500	-0.079182	0.149995
H193	H	0.662318	-0.648033	-0.349257
H194	H	1.162318	-0.148033	0.150743
H195	H	0.681010	-0.521267	-0.434257
H196	H	1.181010	-0.021267	0.065743
H197	H	0.623825	-0.590127	-0.433523
H198	H	1.123825	-0.090127	0.066477
H199	H	0.123040	-0.539095	-0.396443
H200	H	0.623040	-0.039095	0.103557
C201	C	0.809053	-0.644779	-0.573587
C202	C	1.309053	-0.144779	-0.073587
C203	C	0.799135	-0.555446	-0.554180
C204	C	1.299135	-0.055446	-0.054180
H205	H	0.780283	-0.683953	-0.552929
H206	H	1.280283	-0.183953	-0.052929
H207	H	0.802980	-0.653010	-0.617559
H208	H	1.302980	-0.153010	-0.117559
H209	H	0.850620	-0.657961	-0.563423
H210	H	1.350620	-0.157961	-0.063423
H211	H	0.757568	-0.542262	-0.564348
H212	H	1.257568	-0.042262	-0.064348
H213	H	0.805202	-0.547211	-0.510198
H214	H	1.305202	-0.047211	-0.010198
H215	H	0.241745	-0.539140	-0.396397
H216	H	0.741745	-0.039140	0.103603
H217	H	0.131401	-0.329427	-0.242909
H218	H	0.631401	0.170573	0.257091
H219	H	0.526671	-0.539217	-0.396298
H220	H	1.026671	-0.039217	0.103702
C221	C	0.413855	-0.455880	-0.488463
C222	C	0.913855	0.044120	0.011537
C223	C	0.456589	-0.449548	-0.438650
C224	C	0.956589	0.050452	0.061350
H225	H	0.435904	-0.460782	-0.526953
H226	H	0.935904	0.039218	-0.026953
H227	H	0.386229	-0.507564	-0.484975
H228	H	0.886229	-0.007564	0.015025
H229	H	0.390458	-0.403577	-0.487248
H230	H	0.890458	0.096423	0.012752
H231	H	0.479983	-0.501854	-0.439862
H232	H	0.979983	-0.001854	0.060138
H233	H	0.484226	-0.397858	-0.442139
H234	H	0.984226	0.102142	0.057861
H235	H	0.829244	-1.090070	-0.378444
H236	H	1.329244	-0.590070	0.121556
H237	H	0.448164	-0.421233	-0.216627
H238	H	0.948164	0.078767	0.283373
C239	C	1.015342	-0.363979	-0.721651
C240	C	1.515342	0.136021	-0.221651
C241	C	0.977169	-0.313108	-0.681961
C242	C	1.477169	0.186892	-0.181961
H243	H	1.044118	-0.324813	-0.742308
H244	H	1.544118	0.175187	-0.242308
H245	H	1.037714	-0.403284	-0.697714
H246	H	1.537714	0.096716	-0.197714
H247	H	0.990081	-0.398328	-0.751855
H248	H	1.490081	0.101672	-0.251855
H249	H	1.002430	-0.278764	-0.651754
H250	H	1.502430	0.221236	-0.151754
H251	H	0.954796	-0.273787	-0.705900
H252	H	1.454796	0.226213	-0.205900
C253	C	0.545825	-0.223767	-0.240766
C254	C	1.045825	0.276233	0.259234
C255	C	0.526368	-0.313081	-0.230712
C256	C	1.026368	0.186919	0.269288
H257	H	0.525182	-0.184552	-0.212061
H258	H	1.025182	0.315448	0.287939
H259	H	0.589801	-0.215510	-0.234693
H260	H	1.089801	0.284490	0.265307
H261	H	0.535677	-0.210663	-0.282360
H262	H	1.035677	0.289337	0.217640
H263	H	0.536521	-0.326187	-0.189119
H264	H	1.036521	0.173813	0.310881
H265	H	0.482383	-0.321342	-0.236780
H266	H	0.982383	0.178658	0.263220
H267	H	0.811223	-0.538933	-0.681571
H268	H	1.311223	-0.038933	-0.181571
H269	H	0.794762	-0.948783	-0.412786
H270	H	1.294762	-0.448783	0.087214
C271	C	0.219582	-0.262282	-0.193676
C272	C	0.719582	0.237718	0.306324
C273	C	0.260093	-0.313008	-0.230803
C274	C	0.760093	0.186992	0.269197
H275	H	0.243349	-0.223081	-0.164952
H276	H	0.743349	0.276919	0.335048
H277	H	0.195494	-0.227824	-0.219645
H278	H	0.695494	0.272176	0.280355
H279	H	0.192436	-0.301541	-0.171244
H280	H	0.692436	0.198459	0.328756
H281	H	0.287237	-0.273748	-0.253238
H282	H	0.787237	0.226252	0.246762
H283	H	0.284192	-0.347468	-0.204830
H284	H	0.784192	0.152532	0.295170
C285	C	0.863664	-0.676147	-0.855714
C286	C	1.363664	-0.176147	-0.355714
C287	C	0.870895	-0.604781	-0.895394
C288	C	1.370895	-0.104781	-0.395394
H289	H	0.858075	-0.731297	-0.880124
H290	H	1.358075	-0.231297	-0.380124
H291	H	0.899931	-0.677325	-0.830267
H292	H	1.399931	-0.177325	-0.330267
H293	H	0.828074	-0.668223	-0.829848
H294	H	1.328074	-0.168223	-0.329848
H295	H	0.906488	-0.612702	-0.921257
H296	H	1.406488	-0.112702	-0.421257
H297	H	0.834624	-0.603604	-0.920851
H298	H	1.334624	-0.103604	-0.420851
H299	H	0.328616	-0.447453	-0.422529
H300	H	0.828616	0.052547	0.077471
H301	H	0.801547	-0.777832	-0.405921
H302	H	1.301547	-0.277832	0.094079
C303	C	0.923319	-0.616600	-0.720941
C304	C	1.423319	-0.116600	-0.220941
C305	C	0.870874	-0.604871	-0.758065
C306	C	1.370874	-0.104871	-0.258065
H307	H	0.917717	-0.671789	-0.700970
H308	H	1.417717	-0.171789	-0.200970
H309	H	0.959591	-0.617744	-0.746532
H310	H	1.459591	-0.117744	-0.246532
H311	H	0.928211	-0.568225	-0.690135
H312	H	1.428211	-0.068225	-0.190135
H313	H	0.865985	-0.653242	-0.788873
H314	H	1.365985	-0.153242	-0.288873
H315	H	0.834591	-0.603734	-0.732471
H316	H	1.334591	-0.103734	-0.232471
C317	C	0.857441	-0.207591	-0.863616
C318	C	1.357441	0.292409	-0.363616
C319	C	0.905427	-0.263489	-0.881721
C320	C	1.405427	0.236511	-0.381721
H321	H	0.863023	-0.152410	-0.883600
H322	H	1.363023	0.347590	-0.383600
H323	H	0.818140	-0.236445	-0.875471
H324	H	1.318140	0.263555	-0.375471
H325	H	0.858625	-0.195998	-0.819497
H326	H	1.358625	0.304002	-0.319497
H327	H	0.904240	-0.275089	-0.925840
H328	H	1.404240	0.224911	-0.425840
H329	H	0.944738	-0.234629	-0.869870
H330	H	1.444738	0.265371	-0.369870
H331	H	0.811235	-0.538731	-1.085199
H332	H	1.311235	-0.038731	-0.585199
C333	C	0.944178	-0.254935	-1.120850
C334	C	1.444178	0.245065	-0.620850
C335	C	0.977176	-0.312885	-1.085584
C336	C	1.477176	0.187115	-0.585584
H337	H	0.972954	-0.215754	-1.141494
H338	H	1.472954	0.284246	-0.641494
H339	H	0.918933	-0.289284	-1.151059
H340	H	1.418933	0.210716	-0.651059
H341	H	0.918274	-0.220455	-1.093911
H342	H	1.418274	0.279545	-0.593911
H343	H	1.003077	-0.347371	-1.112524
H344	H	1.503077	0.152629	-0.612524
H345	H	1.002431	-0.278532	-1.055371
H346	H	1.502431	0.221468	-0.555371
C347	C	0.809072	-0.644583	-0.977219
C348	C	1.309072	-0.144583	-0.477219
C349	C	0.799155	-0.555249	-0.957815
C350	C	1.299155	-0.055249	-0.457815
H351	H	0.780297	-0.683754	-0.956564
H352	H	1.280297	-0.183754	-0.456564
H353	H	0.803004	-0.652815	-1.021192
H354	H	1.303004	-0.152815	-0.521192
H355	H	0.850637	-0.657769	-0.967050
H356	H	1.350637	-0.157769	-0.467050
H357	H	0.757591	-0.542061	-0.967988
H358	H	1.257591	-0.042061	-0.467988
H359	H	0.805217	-0.547013	-0.913833
H360	H	1.305217	-0.047013	-0.413833
H361	H	0.947028	-0.777689	-0.260709
H362	H	1.447028	-0.277689	0.239291
C363	C	0.647059	-0.332454	-0.169373
C364	C	1.147059	0.167546	0.330627
C365	C	0.663731	-0.313115	-0.230666
C366	C	1.163731	0.186885	0.269334
H367	H	0.670830	-0.293255	-0.140652
H368	H	1.170830	0.206745	0.359348
H369	H	0.603743	-0.324165	-0.163337
H370	H	1.103743	0.175835	0.336663
H371	H	0.655307	-0.393058	-0.162561
H372	H	1.155307	0.106942	0.337439
H373	H	0.655478	-0.252512	-0.237479
H374	H	1.155478	0.247488	0.262521
H375	H	0.707057	-0.321397	-0.236705
H376	H	1.207057	0.178603	0.263295
H377	H	0.981507	-0.918973	-0.226366
H378	H	1.481507	-0.418973	0.273634
