data_functionalizedCrystal
_audit_creation_method	'MofGen! by Chris Wilmer'
_symmetry_space_group_name_H-M	'P1'
_symmetry_Int_Tables_number	1
_symmetry_cell_setting	triclinic
loop_
_symmetry_equiv_pos_as_xyz
  x,y,z
_cell_length_a	15.297475
_cell_length_b	16.625546
_cell_length_c	15.296720
_cell_angle_alpha	99.642470
_cell_angle_beta	91.617114
_cell_angle_gamma	80.324704
loop_
_atom_site_label
_atom_site_type_symbol
_atom_site_fract_x
_atom_site_fract_y
_atom_site_fract_z
Zn1	Zn	1.253404	-0.627523	-0.726565
Zn2	Zn	1.753404	-0.127523	-0.226565
Zn3	Zn	1.278668	-0.743625	-0.580074
Zn4	Zn	1.778668	-0.243625	-0.080074
Zn5	Zn	1.132282	-0.582227	-0.554808
Zn6	Zn	1.632282	-0.082227	-0.054808
Zn7	Zn	1.106894	-0.735700	-0.701203
Zn8	Zn	1.606894	-0.235700	-0.201203
O9	O	1.192812	-0.672269	-0.640662
O10	O	1.692812	-0.172269	-0.140662
O11	O	1.379334	-0.665198	-0.728320
O12	O	1.879334	-0.165198	-0.228320
O13	O	1.280447	-0.706576	-0.454149
O14	O	1.780447	-0.206576	0.045851
O15	O	1.148401	-0.475417	-0.577632
O16	O	1.648401	0.024583	-0.077632
O17	O	1.397894	-0.750498	-0.620694
O18	O	1.897894	-0.250498	-0.120694
O19	O	1.237389	-0.508696	-0.703821
O20	O	1.737389	-0.008696	-0.203821
O21	O	1.172898	-0.587997	-0.435586
O22	O	1.672898	-0.087997	0.064414
O23	O	1.006336	-0.580312	-0.553039
O24	O	1.506336	-0.080312	-0.053039
O25	O	1.105131	-0.736989	-0.827141
O26	O	1.605131	-0.236989	-0.327141
O27	O	0.987683	-0.693068	-0.660595
O28	O	1.487683	-0.193068	-0.160595
O29	O	1.212772	-0.657513	-0.845774
O30	O	1.712772	-0.157513	-0.345774
O31	O	1.255829	-0.855392	-0.596102
O32	O	1.755829	-0.355392	-0.096102
O33	O	1.129628	-0.849569	-0.685095
O34	O	1.629628	-0.349569	-0.185095
C35	C	0.965226	-0.630915	-0.601324
C36	C	1.465226	-0.130915	-0.101324
C37	C	0.867861	-0.613246	-0.584516
C38	C	1.367861	-0.113246	-0.084516
C39	C	0.554716	-0.798559	-0.760796
C40	C	1.054716	-0.298559	-0.260796
C41	C	0.646196	-0.815166	-0.776586
C42	C	1.146196	-0.315166	-0.276586
C43	C	0.701616	-0.764687	-0.728570
C44	C	1.201616	-0.264687	-0.228570
C45	C	0.665548	-0.697599	-0.664761
C46	C	1.165548	-0.197599	-0.164761
C47	C	0.574060	-0.680995	-0.648965
C48	C	1.074060	-0.180995	-0.148965
C49	C	0.720961	-0.647123	-0.616739
C50	C	1.220961	-0.147123	-0.116739
C51	C	0.684892	-0.580034	-0.552930
C52	C	1.184892	-0.080034	-0.052930
C53	C	0.593412	-0.563433	-0.537137
C54	C	1.093412	-0.063433	-0.037137
C55	C	0.537992	-0.613911	-0.585153
C56	C	1.037992	-0.113911	-0.085153
C57	C	0.812449	-0.663727	-0.632535
C58	C	1.312449	-0.163727	-0.132535
C59	C	0.831793	-0.546163	-0.520704
C60	C	1.331793	-0.046163	-0.020704
C61	C	0.740313	-0.529556	-0.504914
C62	C	1.240313	-0.029556	-0.004914
C63	C	1.192735	-0.881740	-0.640611
C64	C	1.692735	-0.381740	-0.140611
C65	C	1.192778	-0.971371	-0.640633
C66	C	1.692778	-0.471371	-0.140633
C67	C	1.192915	-1.299586	-0.640750
C68	C	1.692915	-0.799586	-0.140750
C69	C	1.192873	-1.208266	-0.640720
C70	C	1.692873	-0.708266	-0.140720
C71	C	1.192845	-1.135481	-0.640691
C72	C	1.692845	-0.635481	-0.140691
C73	C	1.192805	-1.044156	-0.640661
C74	C	1.692805	-0.544156	-0.140661
C75	C	1.421286	-0.713785	-0.680155
C76	C	1.921286	-0.213785	-0.180155
C77	C	1.518648	-0.731476	-0.696984
C78	C	2.018648	-0.231476	-0.196984
C79	C	1.153301	-0.701420	-0.869128
C80	C	1.653301	-0.201420	-0.369128
C81	C	1.136464	-0.713842	-0.966487
C82	C	1.636464	-0.213842	-0.466487
C83	C	1.192909	-0.461986	-0.640737
C84	C	1.692909	0.038014	-0.140737
C85	C	1.192951	-0.372377	-0.640769
C86	C	1.692951	0.127623	-0.140769
C87	C	1.313182	-0.583349	-1.279731
C88	C	1.813182	-0.083349	-0.779731
C89	C	1.329006	-0.571680	-1.188259
C90	C	1.829006	-0.071680	-0.688259
C91	C	1.280872	-0.607219	-1.132811
C92	C	1.780872	-0.107219	-0.632811
C93	C	1.216911	-0.654430	-1.168845
C94	C	1.716911	-0.154430	-0.668845
C95	C	1.201089	-0.666105	-1.260327
C96	C	1.701089	-0.166105	-0.760327
C97	C	1.168779	-0.689976	-1.113407
C98	C	1.668779	-0.189976	-0.613407
C99	C	1.104818	-0.737187	-1.149441
C100	C	1.604818	-0.237187	-0.649441
C101	C	1.088999	-0.748860	-1.240914
C102	C	1.588999	-0.248860	-0.740914
C103	C	1.137133	-0.713320	-1.296362
C104	C	1.637133	-0.213320	-0.796362
C105	C	1.184601	-0.678300	-1.021925
C106	C	1.684601	-0.178300	-0.521925
C107	C	1.072508	-0.761057	-1.002521
C108	C	1.572508	-0.261057	-0.502521
C109	C	1.056684	-0.772726	-1.093994
C110	C	1.556684	-0.272726	-0.593994
C111	C	1.232219	-0.643182	-0.413094
C112	C	1.732219	-0.143182	0.086906
C113	C	1.249226	-0.630564	-0.315765
C114	C	1.749226	-0.130564	0.184235
H115	H	0.675556	-0.869791	-0.828537
H116	H	1.175556	-0.369791	-0.328537
Br117	Br	1.002212	-0.812952	-1.289819
Br118	Br	1.502212	-0.312952	-0.789819
H119	H	0.841806	-0.718351	-0.684489
H120	H	1.341806	-0.218351	-0.184489
H121	H	0.509586	-0.839656	-0.799878
H122	H	1.009586	-0.339656	-0.299878
H123	H	1.124252	-0.722819	-1.370847
H124	H	1.624252	-0.222819	-0.870847
Br125	Br	0.413833	-0.591369	-0.563734
Br126	Br	0.913833	-0.091369	-0.063734
Br127	Br	1.271404	-0.614231	-0.973034
Br128	Br	1.771404	-0.114231	-0.473034
Br129	Br	1.007187	-0.809300	-0.927280
Br130	Br	1.507187	-0.309300	-0.427280
H131	H	1.381086	-0.533243	-1.158927
H132	H	1.881086	-0.033243	-0.658927
H133	H	0.776103	-0.778212	-0.741430
H134	H	1.276103	-0.278212	-0.241430
Br135	Br	1.378510	-0.535135	-1.354984
Br136	Br	1.878510	-0.035135	-0.854984
H137	H	1.004605	-0.811165	-1.123345
H138	H	1.504605	-0.311165	-0.623345
Br139	Br	0.691351	-0.438509	-0.418321
Br140	Br	1.191351	0.061491	0.081679
Br141	Br	0.544465	-0.472392	-0.450530
Br142	Br	1.044465	0.027608	0.049470
H143	H	0.876917	-0.505060	-0.481604
H144	H	1.376917	-0.005060	0.018396
H145	H	1.293761	-0.597715	-1.058331
H146	H	1.793761	-0.097715	-0.558331
