data_functionalizedCrystal
_audit_creation_method	'MofGen! by Chris Wilmer'
_symmetry_space_group_name_H-M	'P1'
_symmetry_Int_Tables_number	1
_symmetry_cell_setting	triclinic
loop_
_symmetry_equiv_pos_as_xyz
  x,y,z
_cell_length_a	19.288813
_cell_length_b	19.288864
_cell_length_c	18.366186
_cell_angle_alpha	89.977106
_cell_angle_beta	90.016152
_cell_angle_gamma	96.874130
loop_
_atom_site_label
_atom_site_type_symbol
_atom_site_fract_x
_atom_site_fract_y
_atom_site_fract_z
O1	O	-0.086651	0.921337	-0.060799
O2	O	0.246683	1.254670	0.272534
O3	O	0.580016	1.588004	0.605868
O4	O	-0.098340	0.719074	-0.060751
O5	O	0.234994	1.052408	0.272582
O6	O	0.568327	1.385741	0.605915
O7	O	0.008638	0.826068	-0.060753
O8	O	0.341971	1.159402	0.272580
O9	O	0.675304	1.492735	0.605913
O10	O	-0.193628	0.814343	-0.060797
O11	O	0.139705	1.147676	0.272537
O12	O	0.473039	1.481009	0.605870
O13	O	0.008643	0.826050	0.060346
O14	O	0.341976	1.159384	0.393679
O15	O	0.675309	1.492717	0.727013
O16	O	-0.098335	0.719056	0.060348
O17	O	0.234999	1.052389	0.393682
O18	O	0.568332	1.385723	0.727015
O19	O	-0.086646	0.921319	0.060301
O20	O	0.246688	1.254652	0.393634
O21	O	0.580021	1.587986	0.726967
Zn22	Zn	-0.092489	0.820185	0.079552
Zn23	Zn	0.240844	1.153518	0.412885
Zn24	Zn	0.574177	1.486851	0.746218
Zn25	Zn	-0.092496	0.820208	-0.080002
Zn26	Zn	0.240837	1.153542	0.253331
Zn27	Zn	0.574171	1.486875	0.586665
O28	O	-0.193623	0.814325	0.060303
O29	O	0.139710	1.147658	0.393636
O30	O	0.473044	1.480991	0.726969
C31	C	-0.097961	0.693189	-0.000195
C32	C	0.235372	1.026522	0.333138
C33	C	0.568706	1.359855	0.666472
C34	C	-0.096832	0.616085	-0.000176
C35	C	0.236501	0.949419	0.333158
C36	C	0.569835	1.282752	0.666491
C37	C	-0.159601	0.571378	-0.000201
C38	C	0.173732	0.904711	0.333133
C39	C	0.507065	1.238044	0.666466
C40	C	-0.158541	0.498931	-0.000208
C41	C	0.174793	0.832264	0.333125
C42	C	0.508126	1.165597	0.666458
C43	C	-0.094707	0.471195	-0.000206
C44	C	0.238626	0.804528	0.333127
C45	C	0.571960	1.137862	0.666461
C46	C	-0.031929	0.515912	-0.000177
C47	C	0.301404	0.849246	0.333156
C48	C	0.634737	1.182579	0.666490
C49	C	-0.032992	0.588358	-0.000162
C50	C	0.300341	0.921691	0.333172
C51	C	0.633675	1.255024	0.666505
C52	C	-0.044528	0.362948	-0.042646
C53	C	0.288805	0.696282	0.290687
C54	C	0.622138	1.029615	0.624021
C55	C	-0.043469	0.290504	-0.042666
C56	C	0.289865	0.623837	0.290668
C57	C	0.623198	0.957171	0.624001
C58	C	-0.091427	0.247750	-0.000249
C59	C	0.241906	0.581083	0.333084
C60	C	0.575239	0.914417	0.666417
C61	C	-0.140458	0.277447	0.042177
C62	C	0.192876	0.610781	0.375511
C63	C	0.526209	0.944114	0.708844
C64	C	-0.141520	0.349893	0.042192
C65	C	0.191813	0.683226	0.375526
C66	C	0.525146	1.016559	0.708859
C67	C	-0.093548	0.392641	-0.000222
C68	C	0.239785	0.725974	0.333111
C69	C	0.573119	1.059308	0.666445
C70	C	-0.153051	0.124486	-0.000282
C71	C	0.180282	0.457820	0.333052
C72	C	0.513616	0.791153	0.666385
C73	C	-0.151988	0.052038	-0.000285
C74	C	0.181346	0.385372	0.333048
C75	C	0.514679	0.718705	0.666382
C76	C	-0.025374	0.069022	-0.000261
C77	C	0.307959	0.402355	0.333073
C78	C	0.641292	0.735688	0.666406
C79	C	-0.026440	0.141468	-0.000250
C80	C	0.306894	0.474801	0.333083
C81	C	0.640227	0.808135	0.666416
C82	C	-0.090280	0.169196	-0.000264
C83	C	0.243054	0.502529	0.333069
C84	C	0.576387	0.835862	0.666403
C85	C	-0.219503	0.814705	-0.000253
C86	C	0.113831	1.148038	0.333080
C87	C	0.447164	1.481372	0.666414
C88	C	-0.296608	0.815820	-0.000271
C89	C	0.036725	1.149153	0.333062
C90	C	0.370059	1.482487	0.666396
C91	C	-0.332799	0.816351	0.065744
C92	C	0.000534	1.149685	0.399077
C93	C	0.333867	1.483018	0.732410
C94	C	-0.405246	0.817418	0.065756
C95	C	-0.071912	1.150751	0.399089
C96	C	0.261421	1.484085	0.732423
C97	C	-0.441496	0.817967	-0.000250
C98	C	-0.108163	1.151301	0.333083
C99	C	0.225171	1.484634	0.666416
C100	C	-0.405296	0.817432	-0.066274
C101	C	-0.071963	1.150765	0.267059
C102	C	0.261370	1.484099	0.600393
C103	C	-0.332852	0.816358	-0.066284
C104	C	0.000481	1.149692	0.267049
C105	C	0.333814	1.483025	0.600382
C106	C	-0.550825	0.860361	-0.050816
C107	C	-0.217492	1.193694	0.282518
C108	C	0.115841	1.527027	0.615851
C109	C	-0.623267	0.861438	-0.050802
C110	C	-0.289934	1.194772	0.282531
C111	C	0.043399	1.528105	0.615864
C112	C	-0.664938	0.821276	-0.000221
C113	C	-0.331604	1.154609	0.333112
C114	C	0.001729	1.487942	0.666446
C115	C	-0.634156	0.780044	0.050359
C116	C	-0.300822	1.113377	0.383693
C117	C	0.032511	1.446710	0.717026
C118	C	-0.561712	0.778970	0.050349
C119	C	-0.228378	1.112304	0.383682
C120	C	0.104955	1.445637	0.717016
C121	C	-0.520049	0.819131	-0.000246
C122	C	-0.186716	1.152464	0.333087
C123	C	0.146617	1.485798	0.666420
C124	C	-0.779684	0.822963	0.065812
C125	C	-0.446350	1.156296	0.399145
C126	C	-0.113017	1.489629	0.732478
C127	C	-0.852132	0.824025	0.065821
C128	C	-0.518799	1.157358	0.399154
C129	C	-0.185465	1.490692	0.732488
C130	C	-0.852180	0.824046	-0.066211
C131	C	-0.518847	1.157379	0.267123
C132	C	-0.185514	1.490713	0.600456
C133	C	-0.779734	0.822976	-0.066218
C134	C	-0.446401	1.156310	0.267115
C135	C	-0.113068	1.489643	0.600448
C136	C	-0.743490	0.822438	-0.000205
C137	C	-0.410157	1.155772	0.333128
C138	C	-0.076823	1.489105	0.666462
C139	C	0.034517	0.825688	-0.000199
C140	C	0.367851	1.159021	0.333134
C141	C	0.701184	1.492355	0.666467
C142	C	0.111623	0.824573	-0.000186
C143	C	0.444956	1.157906	0.333147
C144	C	0.778289	1.491240	0.666481
C145	C	-0.087024	0.947204	-0.000257
C146	C	0.246309	1.280538	0.333076
C147	C	0.579642	1.613871	0.666409
C148	C	-0.088153	1.024308	-0.000281
C149	C	0.245180	1.357641	0.333052
C150	C	0.578513	1.690974	0.666385
N151	N	-0.092484	0.820173	0.188443
N152	N	0.240849	1.153507	0.521776
N153	N	0.574183	1.486840	0.855109
N154	N	-0.092496	0.820225	-0.188893
N155	N	0.240838	1.153559	0.144440
N156	N	0.574171	1.486892	0.477773
C157	C	-0.045138	0.867566	0.226542
C158	C	0.288196	1.200899	0.559875
C159	C	0.621529	1.534232	0.893209
C160	C	-0.045135	0.867570	0.302770
C161	C	0.288199	1.200904	0.636103
C162	C	0.621532	1.534237	0.969437
C163	C	-0.092490	0.820189	0.340895
C164	C	0.240844	1.153522	0.674229
C165	C	0.574177	1.486855	1.007562
C166	C	-0.139840	0.772787	0.302787
C167	C	0.193494	1.106121	0.636120
C168	C	0.526827	1.439454	0.969453
C169	C	-0.139837	0.772780	0.226560
C170	C	0.193496	1.106113	0.559894
C171	C	0.526830	1.439446	0.893227
C172	C	-0.155779	0.810879	0.461644
C173	C	0.177554	1.144212	0.794977
C174	C	0.510887	1.477546	1.128310
C175	C	-0.155783	0.810892	0.537868
C176	C	0.177550	1.144225	0.871202
C177	C	0.510884	1.477558	1.204535
C178	C	-0.092499	0.820208	0.576003
C179	C	0.240835	1.153542	0.909336
C180	C	0.574168	1.486875	1.242670
C181	C	-0.029207	0.829528	0.537903
C182	C	0.304126	1.162861	0.871236
C183	C	0.637459	1.496194	1.204570
C184	C	-0.029205	0.829520	0.461677
C185	C	0.304129	1.162853	0.795010
C186	C	0.637462	1.496187	1.128343
C187	C	-0.092498	0.820192	0.423550
C188	C	0.240835	1.153525	0.756883
C189	C	0.574169	1.486858	1.090217
C190	C	-0.045145	0.867608	0.696757
C191	C	0.288188	1.200942	1.030091
C192	C	0.621522	1.534275	1.363424
C193	C	-0.045141	0.867608	0.772986
C194	C	0.288193	1.200941	1.106320
C195	C	0.621526	1.534275	1.439653
C196	C	-0.139852	0.772828	0.773002
C197	C	0.193481	1.106162	1.106335
C198	C	0.526815	1.439495	1.439669
C199	C	-0.139850	0.772826	0.696774
C200	C	0.193483	1.106159	1.030107
C201	C	0.526817	1.439492	1.363441
C202	C	-0.092497	0.820219	0.658656
C203	C	0.240836	1.153553	0.991990
C204	C	0.574169	1.486886	1.325323
H205	H	-0.209657	0.462523	-0.000227
H206	H	0.123677	0.795856	0.333107
H207	H	0.457010	1.129189	0.666440
H208	H	-0.178407	0.734237	0.665751
H209	H	0.154927	1.067570	0.999085
H210	H	0.488260	1.400904	1.332418
H211	H	-0.434720	0.817838	0.119515
H212	H	-0.101387	1.151171	0.452848
H213	H	0.231946	1.484504	0.786181
F214	F	-0.890759	0.824608	-0.136460
F215	F	-0.557425	1.157941	0.196873
F216	F	-0.224092	1.491275	0.530206
F217	F	-0.678498	0.737299	0.104199
F218	F	-0.345165	1.070633	0.437533
F219	F	-0.011831	1.403966	0.770866
H220	H	0.022325	0.837114	0.568950
H221	H	0.355658	1.170447	0.902284
H222	H	0.688992	1.503781	1.235617
H223	H	-0.750266	0.822549	-0.119975
H224	H	-0.416933	1.155882	0.213359
H225	H	-0.083600	1.489215	0.546692
F226	F	-0.294230	0.815773	0.136001
F227	F	0.039103	1.149106	0.469334
F228	F	0.372436	1.482440	0.802668
H229	H	-0.516903	0.893063	-0.092013
H230	H	-0.183570	1.226396	0.241320
H231	H	0.149763	1.559729	0.574654
F232	F	0.005255	0.918046	0.656189
F233	F	0.338588	1.251379	0.989522
F234	F	0.671922	1.584713	1.322855
F235	F	0.008708	0.258904	-0.087826
F236	F	0.342041	0.592237	0.245507
F237	F	0.675374	0.925571	0.578841
F238	F	-0.294334	0.815793	-0.136549
F239	F	0.039000	1.149127	0.196784
F240	F	0.372333	1.482460	0.530117
F241	F	0.006520	0.408444	-0.087794
F242	F	0.339853	0.741778	0.245539
F243	F	0.673186	1.075111	0.578872
F244	F	0.038152	0.839432	0.421131
F245	F	0.371485	1.172765	0.754464
F246	F	0.704819	1.506099	1.087797
F247	F	-0.190236	0.722358	0.343363
F248	F	0.143097	1.055692	0.676696
F249	F	0.476430	1.389025	1.010030
H250	H	-0.178393	0.734186	0.195539
H251	H	0.154941	1.067520	0.528872
H252	H	0.488274	1.400853	0.862206
H253	H	0.018124	0.624760	-0.000142
H254	H	0.351458	0.958093	0.333191
H255	H	0.684791	1.291426	0.666525
H256	H	0.024674	0.177870	-0.000234
H257	H	0.358008	0.511204	0.333099
H258	H	0.691341	0.844537	0.666433
F259	F	-0.190247	0.722397	0.813574
F260	F	0.143087	1.055731	1.146908
F261	F	0.476420	1.389064	1.480241
F262	F	0.005260	0.918015	0.343325
F263	F	0.338594	1.251348	0.676658
F264	F	0.671927	1.584681	1.009991
F265	F	0.005258	0.918048	0.813536
F266	F	0.338591	1.251381	1.146870
F267	F	0.671924	1.584714	1.480203
H268	H	-0.207318	0.803308	0.568884
H269	H	0.126015	1.136641	0.902217
H270	H	0.459349	1.469975	1.235550
H271	H	-0.536652	0.745398	0.091534
H272	H	-0.203319	1.078732	0.424867
H273	H	0.130015	1.412065	0.758200
H274	H	-0.207316	0.803280	0.430601
H275	H	0.126017	1.136613	0.763934
H276	H	0.459350	1.469947	1.097267
H277	H	-0.181440	0.374069	0.076740
H278	H	0.151893	0.707403	0.410073
H279	H	0.485226	1.040736	0.743407
H280	H	0.020045	0.493325	-0.000185
H281	H	0.353378	0.826659	0.333148
H282	H	0.686711	1.159992	0.666482
H283	H	0.026600	0.046440	-0.000304
H284	H	0.359934	0.379774	0.333029
H285	H	0.693267	0.713107	0.666363
F286	F	-0.227546	0.600883	-0.000213
F287	F	0.105787	0.934217	0.333120
F288	F	0.439121	1.267550	0.666454
H289	H	-0.205033	0.147063	-0.000282
H290	H	0.128300	0.480397	0.333051
H291	H	0.461633	0.813730	0.666384
F292	F	-0.191504	0.231951	0.087323
F293	F	0.141830	0.565284	0.420657
F294	F	0.475163	0.898617	0.753990
F295	F	-0.656021	0.905323	-0.104632
F296	F	-0.322688	1.238656	0.228702
F297	F	0.010646	1.571990	0.562035
H298	H	-0.006579	0.906155	0.195509
H299	H	0.326755	1.239488	0.528842
H300	H	0.660088	1.572821	0.862175
F301	F	-0.443877	0.818019	-0.136522
F302	F	-0.110544	1.151352	0.196811
F303	F	0.222790	1.484686	0.530144
H304	H	-0.750173	0.822518	0.119563
H305	H	-0.416839	1.155852	0.452897
H306	H	-0.083506	1.489185	0.786230
H307	H	-0.203104	0.015637	-0.000301
H308	H	0.130229	0.348971	0.333032
H309	H	0.463562	0.682304	0.666366
F310	F	-0.890651	0.824579	0.136087
F311	F	-0.557317	1.157913	0.469420
F312	F	-0.223984	1.491246	0.802754
