data_functionalizedCrystal
_audit_creation_method	'MofGen! by Chris Wilmer'
_symmetry_space_group_name_H-M	'P1'
_symmetry_Int_Tables_number	1
_symmetry_cell_setting	triclinic
loop_
_symmetry_equiv_pos_as_xyz
  x,y,z
_cell_length_a	14.971486
_cell_length_b	9.616153
_cell_length_c	14.971486
_cell_angle_alpha	89.997534
_cell_angle_beta	96.385871
_cell_angle_gamma	90.001911
loop_
_atom_site_label
_atom_site_type_symbol
_atom_site_fract_x
_atom_site_fract_y
_atom_site_fract_z
O1	O	1.186948	0.115486	-0.116559
O2	O	1.686948	0.615486	0.383441
O3	O	0.926548	0.115524	-0.130518
O4	O	1.426548	0.615524	0.369482
O5	O	1.063727	0.115494	0.006662
O6	O	1.563727	0.615494	0.506662
O7	O	1.049769	0.115516	-0.253739
O8	O	1.549769	0.615516	0.246261
O9	O	1.063709	-0.115797	0.006659
O10	O	1.563709	0.384203	0.506659
O11	O	0.926529	-0.115767	-0.130521
O12	O	1.426529	0.384233	0.369479
O13	O	1.186929	-0.115805	-0.116562
O14	O	1.686929	0.384195	0.383438
Zn15	Zn	1.056726	-0.152509	-0.123542
Zn16	Zn	1.556726	0.347491	0.376458
Zn17	Zn	1.056751	0.152228	-0.123538
Zn18	Zn	1.556751	0.652228	0.376462
O19	O	1.049750	-0.115775	-0.253742
O20	O	1.549750	0.384225	0.246258
C21	C	0.893214	-0.000117	-0.129895
C22	C	1.393214	0.499883	0.370105
C23	C	0.793917	-0.000102	-0.128024
C24	C	1.293917	0.499898	0.371976
N25	N	1.056716	-0.360483	-0.123544
N26	N	1.556716	0.139517	0.376456
C27	C	0.736691	-0.000098	-0.208614
C28	C	1.236691	0.499902	0.291386
C29	C	0.643392	-0.000118	-0.206850
C30	C	1.143392	0.499882	0.293150
C31	C	0.607320	-0.000134	-0.124497
C32	C	1.107320	0.499866	0.375503
C33	C	0.664552	-0.000143	-0.043902
C34	C	1.164552	0.499857	0.456098
C35	C	0.757850	-0.000132	-0.045666
C36	C	1.257850	0.499868	0.454334
C37	C	0.470090	-0.000163	-0.040231
C38	C	0.970090	0.499837	0.459769
C39	C	0.376786	-0.000171	-0.038466
C40	C	0.876786	0.499829	0.461534
C41	C	0.355632	-0.000149	-0.201415
C42	C	0.855632	0.499851	0.298585
C43	C	0.448930	-0.000138	-0.203179
C44	C	0.948930	0.499862	0.296821
C45	C	0.506156	-0.000144	-0.122584
C46	C	1.006156	0.499856	0.377416
C47	C	0.983114	-0.580837	-0.196683
C48	C	1.483114	-0.080837	0.303317
C49	C	0.983272	-0.419669	-0.196954
C50	C	1.483272	0.080331	0.303046
C51	C	1.150069	-0.418944	-0.144030
C52	C	1.650069	0.081056	0.355970
C53	C	1.149667	-0.580162	-0.144547
C54	C	1.649667	-0.080162	0.355453
C55	C	1.037898	-0.580399	-0.029674
C56	C	1.537898	-0.080399	0.470326
C57	C	1.035747	-0.419172	-0.030300
C58	C	1.535747	0.080828	0.469700
C59	C	1.220263	-0.000161	-0.117185
C60	C	1.720263	0.499839	0.382815
C61	C	1.319561	-0.000166	-0.119056
C62	C	1.819561	0.499834	0.380944
C63	C	1.063094	-0.000151	0.039985
C64	C	1.563094	0.499849	0.539985
C65	C	1.061223	-0.000149	0.139282
C66	C	1.561223	0.499851	0.639282
N67	N	1.056769	0.360202	-0.123529
N68	N	1.556769	0.860202	0.376471
C69	C	1.050384	-0.000127	-0.287065
C70	C	1.550384	0.499873	0.212935
C71	C	1.052254	-0.000119	-0.386362
C72	C	1.552254	0.499881	0.113638
C73	C	1.141812	-0.000162	0.196507
C74	C	1.641812	0.499838	0.696507
C75	C	1.140049	-0.000148	0.289807
C76	C	1.640049	0.499852	0.789807
C77	C	1.057696	-0.000131	0.325879
C78	C	1.557696	0.499869	0.825879
C79	C	0.977101	-0.000114	0.268646
C80	C	1.477101	0.499886	0.768646
C81	C	0.978865	-0.000118	0.175349
C82	C	1.478865	0.499882	0.675349
C83	C	0.973430	-0.000108	0.463109
C84	C	1.473430	0.499892	0.963109
C85	C	0.971665	-0.000107	0.556413
C86	C	1.471665	0.499893	1.056413
C87	C	1.134614	-0.000138	0.577567
C88	C	1.634614	0.499862	1.077567
C89	C	1.136378	-0.000142	0.484269
C90	C	1.636378	0.499858	0.984269
C91	C	1.055782	-0.000128	0.427043
C92	C	1.555782	0.499872	0.927043
H93	H	0.766054	-0.000084	-0.275675
H94	H	1.266054	0.499916	0.224325
H95	H	0.995327	-0.381086	-0.266602
H96	H	1.495327	0.118914	0.233398
H97	H	0.913240	-0.000107	0.128756
H98	H	1.413240	0.499893	0.628756
H99	H	1.205673	-0.000161	0.336396
H100	H	1.705673	0.499839	0.836396
H101	H	0.596802	-0.000113	-0.272474
H102	H	1.096802	0.499887	0.227526
H103	H	0.907800	-0.000093	0.416517
H104	H	1.407800	0.499907	0.916517
H105	H	0.478296	-0.000112	-0.270239
H106	H	0.978296	0.499888	0.229761
H107	H	0.995008	-0.621332	-0.265937
H108	H	1.495008	-0.121332	0.234063
H109	H	0.347419	-0.000186	0.028593
H110	H	0.847419	0.499814	0.528593
H111	H	1.166280	-0.617747	-0.212998
H112	H	1.666280	-0.117747	0.287002
H113	H	1.203437	-0.000166	0.454903
H114	H	1.703437	0.499834	0.954903
H115	H	1.208874	-0.000184	0.167145
H116	H	1.708874	0.499816	0.667145
H117	H	1.091610	-0.618527	0.024767
H118	H	1.591610	-0.118527	0.524767
H119	H	0.516682	-0.000170	0.025399
H120	H	1.016682	0.499830	0.525399
H121	H	1.085896	-0.378888	0.026695
H122	H	1.585896	0.121112	0.526695
H123	H	0.910047	-0.000091	0.298024
H124	H	1.410047	0.499909	0.798024
H125	H	0.635175	-0.000176	0.023152
H126	H	1.135175	0.499824	0.523152
H127	H	0.804443	-0.000135	0.019958
H128	H	1.304443	0.499865	0.519958
H129	H	0.904606	-0.000115	0.585780
H130	H	1.404606	0.499885	1.085780
H131	H	0.309033	-0.000150	-0.267039
H132	H	0.809033	0.499850	0.232961
H133	H	0.967075	-0.380963	-0.014756
H134	H	1.467075	0.119037	0.485244
H135	H	0.913885	-0.380146	-0.184734
H136	H	1.413885	0.119854	0.315266
H137	H	1.206186	-0.380604	-0.092171
H138	H	1.706186	0.119396	0.407829
H139	H	0.913507	-0.619639	-0.184661
H140	H	1.413507	-0.119639	0.315339
H141	H	1.206192	-0.619162	-0.093371
H142	H	1.706192	-0.119162	0.406629
H143	H	1.167071	-0.378551	-0.211703
H144	H	1.667071	0.121449	0.288297
H145	H	1.200238	-0.000145	0.624165
H146	H	1.700238	0.499855	1.124165
H147	H	0.971304	-0.621128	-0.009999
H148	H	1.471304	-0.121128	0.490001
