data_functionalizedCrystal
_audit_creation_method	'MofGen! by Chris Wilmer'
_symmetry_space_group_name_H-M	'P1'
_symmetry_Int_Tables_number	1
_symmetry_cell_setting	triclinic
loop_
_symmetry_equiv_pos_as_xyz
  x,y,z
_cell_length_a	11.026623
_cell_length_b	10.065875
_cell_length_c	16.992695
_cell_angle_alpha	80.609430
_cell_angle_beta	80.372537
_cell_angle_gamma	79.302201
loop_
_atom_site_label
_atom_site_type_symbol
_atom_site_fract_x
_atom_site_fract_y
_atom_site_fract_z
O1	O	-1.659318	0.113510	0.323759
O2	O	-1.302335	0.113510	0.285851
O3	O	-1.479394	0.113499	0.190461
O4	O	-1.482259	0.113521	0.419149
O5	O	-1.445640	-0.113487	0.208744
O6	O	-1.268582	-0.113477	0.304134
O7	O	-1.625564	-0.113476	0.342042
Zn8	Zn	-1.441714	-0.149516	0.325991
Zn9	Zn	-1.486186	0.149549	0.301902
O10	O	-1.448506	-0.113466	0.437432
C11	C	-1.239570	0.000016	0.287999
C12	C	-1.102834	0.000016	0.267152
C13	C	-1.034611	0.000022	0.324713
C14	C	-0.893288	0.000022	0.303167
N15	N	-1.411372	-0.353619	0.342431
C16	C	-1.475621	-0.421402	0.307616
C17	C	-1.452279	-0.578568	0.320277
C18	C	-0.688330	0.000020	0.339893
C19	C	-0.825068	0.000028	0.360737
C20	C	-1.458835	0.000006	0.169871
C21	C	-1.447849	0.000007	0.081276
N22	N	-1.516537	0.353653	0.285457
C23	C	-1.553847	0.000005	0.045997
C24	C	-1.543519	0.000018	-0.037249
C25	C	-1.427192	0.000023	-0.085214
C26	C	-1.321187	0.000028	-0.049930
C27	C	-1.331517	0.000025	0.033313
C28	C	-1.384378	0.000041	-0.334856
C29	C	-1.374055	0.000040	-0.418105
C30	C	-1.596388	0.000033	-0.405418
C31	C	-1.606707	0.000022	-0.322173
C32	C	-1.500703	0.000034	-0.286897
N33	N	-1.416632	0.000032	-0.170304
N34	N	-1.511266	0.000035	-0.201809
C35	C	-1.469065	0.000031	0.458022
C36	C	-1.480052	0.000039	0.546617
H37	H	-0.871278	0.000025	0.425973
F38	F	-1.250237	0.000038	-0.469151
F39	F	-1.611246	-0.570130	0.234404
H40	H	-1.056621	0.000045	0.201918
H41	H	-1.547903	-0.363082	0.268433
F42	F	-1.095015	0.000026	0.409976
F43	F	-1.357782	-0.654788	0.371486
H44	H	-0.847080	0.000050	0.237929
H45	H	-1.339081	-0.411941	0.381607
H46	H	-1.648572	-0.000007	0.085046
F47	F	-1.271558	0.000058	-0.297324
H48	H	-1.226472	0.000040	-0.088991
H49	H	-1.701433	0.000018	-0.283125
F50	F	-1.656336	0.000014	-0.074790
H51	H	-1.682690	0.000025	-0.434149
H52	H	-1.245203	0.000026	0.062035
