data_functionalizedCrystal
_audit_creation_method	'MofGen! by Chris Wilmer'
_symmetry_space_group_name_H-M	'P1'
_symmetry_Int_Tables_number	1
_symmetry_cell_setting	triclinic
loop_
_symmetry_equiv_pos_as_xyz
  x,y,z
_cell_length_a	14.971486
_cell_length_b	10.654551
_cell_length_c	14.048226
_cell_angle_alpha	89.996418
_cell_angle_beta	89.998499
_cell_angle_gamma	84.049745
loop_
_atom_site_label
_atom_site_type_symbol
_atom_site_fract_x
_atom_site_fract_y
_atom_site_fract_z
O1	O	1.187838	0.163659	-0.079045
O2	O	0.927545	0.183257	-0.079070
O3	O	1.063675	-0.009345	-0.079057
O4	O	1.051707	0.356261	-0.079058
O5	O	1.063659	-0.009357	0.079264
O6	O	0.927528	0.183246	0.079251
O7	O	1.187821	0.163648	0.079276
Zn8	Zn	1.057672	0.173445	0.104401
Zn9	Zn	1.057694	0.173460	-0.104195
O10	O	1.051691	0.356250	0.079264
C11	C	0.894207	0.182375	0.000087
C12	C	0.794895	0.179749	0.000077
C13	C	0.738286	0.292897	0.000079
C14	C	0.644973	0.290422	0.000093
C15	C	0.608271	0.174796	0.000099
C16	C	0.664888	0.061639	0.000100
C17	C	0.758199	0.064116	0.000093
C18	C	0.470397	0.056485	0.000114
C19	C	0.377080	0.054007	0.000119
C20	C	0.357172	0.282791	0.000113
C21	C	0.450483	0.285268	0.000106
C22	C	0.507093	0.172110	0.000106
C23	C	1.062788	-0.056139	0.000101
C24	C	1.060158	-0.195554	0.000094
C25	C	1.058934	-0.261047	-0.086205
C26	C	1.056455	-0.392041	-0.086201
C27	C	1.056430	-0.392039	0.086410
C28	C	1.058902	-0.261046	0.086404
C29	C	1.060190	-0.195555	-0.172515
C30	C	1.058967	-0.261048	-0.258822
C31	C	1.056488	-0.392042	-0.258818
C32	C	1.055233	-0.457543	-0.172507
C33	C	1.221159	0.164530	0.000117
C34	C	1.320471	0.167156	0.000120
C35	C	1.052578	0.403044	0.000103
C36	C	1.055208	0.542459	0.000104
N37	N	1.057664	0.173434	0.246761
N38	N	1.057709	0.173461	-0.246555
C39	C	1.117962	0.088185	0.296585
C40	C	1.117968	0.088184	0.396243
C41	C	1.057679	0.173439	0.446075
C42	C	0.997375	0.258693	0.396244
C43	C	0.997365	0.258686	0.296588
C44	C	0.997401	0.258702	0.603958
C45	C	0.997411	0.258710	0.703621
C46	C	1.118003	0.088199	0.703613
C47	C	1.117994	0.088193	0.603957
C48	C	1.057690	0.173448	0.554133
H49	H	0.634998	-0.032505	0.000119
Br50	Br	1.060567	-0.172155	0.203527
H51	H	0.804290	-0.028022	0.000091
Br52	Br	1.060664	-0.172158	-0.375951
H53	H	1.167089	0.018778	0.563384
Br54	Br	1.199793	-0.027517	0.228966
H55	H	1.062211	-0.088894	-0.172528
H56	H	1.167104	0.018782	0.744185
Br57	Br	0.915588	0.374419	0.771243
Br58	Br	0.788086	0.449826	0.000061
H59	H	1.055483	-0.445361	-0.329092
H60	H	1.053202	-0.564205	-0.172511
Br61	Br	1.054726	-0.480932	0.203537
Br62	Br	1.199799	-0.027517	0.463864
Br63	Br	0.327270	-0.102914	0.000159
H64	H	0.948292	0.328122	0.563395
Br65	Br	0.915546	0.374391	0.463870
Br66	Br	0.915523	0.374379	0.228970
H67	H	0.480362	0.379420	0.000092
H68	H	0.598885	0.382559	0.000093
H69	H	0.311075	0.374928	0.000118
Br70	Br	0.547225	-0.097088	0.000118
