data_functionalizedCrystal
_audit_creation_method	'MofGen! by Chris Wilmer'
_symmetry_space_group_name_H-M	'P1'
_symmetry_Int_Tables_number	1
_symmetry_cell_setting	triclinic
loop_
_symmetry_equiv_pos_as_xyz
  x,y,z
_cell_length_a	13.032721
_cell_length_b	13.033293
_cell_length_c	13.034356
_cell_angle_alpha	76.646206
_cell_angle_beta	90.866507
_cell_angle_gamma	105.184121
loop_
_atom_site_label
_atom_site_type_symbol
_atom_site_fract_x
_atom_site_fract_y
_atom_site_fract_z
Zn1	Zn	-0.097708	1.689345	-0.818225
Zn2	Zn	-0.297930	1.644081	-0.663134
Zn3	Zn	-0.148593	1.483392	-0.623746
Zn4	Zn	-0.297831	1.489106	-0.818104
O5	O	-0.210516	1.576481	-0.730802
O6	O	-0.103013	1.834390	-0.814186
O7	O	-0.299457	1.601430	-0.511663
O8	O	0.004407	1.527264	-0.633111
O9	O	-0.250116	1.801134	-0.700241
O10	O	0.041792	1.678576	-0.775993
O11	O	-0.189740	1.483373	-0.482725
O12	O	-0.189645	1.333100	-0.632994
O13	O	-0.249948	1.537003	-0.964366
O14	O	-0.299289	1.337299	-0.775788
O15	O	-0.102918	1.684117	-0.964455
O16	O	-0.444167	1.606971	-0.700124
O17	O	-0.444095	1.493112	-0.813981
C18	C	-0.249978	1.296034	-0.700105
C19	C	-0.266882	1.176058	-0.687000
C20	C	-0.201720	1.139027	-0.737645
C21	C	-0.219189	1.015026	-0.724101
C22	C	-0.482044	1.545783	-0.761339
C23	C	-0.598187	1.532754	-0.774449
C24	C	-0.649953	1.583345	-0.724014
C25	C	-0.769992	1.569880	-0.737562
C26	C	0.062081	1.607332	-0.700172
C27	C	0.178245	1.620479	-0.687119
C28	C	-0.170746	1.616247	-1.003391
C29	C	-0.153798	1.633193	-1.119551
C30	C	-0.170899	1.858023	-0.761620
C31	C	-0.154017	1.977999	-0.774753
C32	C	-0.201480	1.585469	-1.291355
C33	C	-0.218997	1.567952	-1.171296
C34	C	-0.250047	1.536940	-0.459273
C35	C	-0.266671	1.520237	-0.343102
H36	H	-0.085286	1.038092	-0.828136
C37	C	-0.829477	1.498998	-0.808614
C38	C	-0.873701	1.562865	-0.889327
C39	C	-0.928519	1.497606	-0.954791
H40	H	-0.781543	1.468979	-0.838610
H41	H	-0.884617	1.441430	-0.768270
H42	H	-0.818569	1.620413	-0.929666
H43	H	-0.921651	1.592884	-0.859362
H44	H	-0.983658	1.440038	-0.914447
H45	H	-0.880578	1.467590	-0.984779
H46	H	-0.958540	1.540927	-1.009556
H47	H	-0.335602	1.115961	-0.633613
H48	H	-0.287913	0.954932	-0.670710
C49	C	-0.062100	1.724858	-1.179154
C50	C	-0.062926	1.723984	-1.286378
C51	C	0.021540	1.808394	-1.341312
H52	H	-0.069672	1.793141	-1.171098
H53	H	0.003338	1.714412	-1.151748
H54	H	-0.128348	1.734438	-1.313775
H55	H	-0.055339	1.655720	-1.294466
H56	H	0.086978	1.797949	-1.313906
H57	H	0.013960	1.876672	-1.333248
H58	H	0.020997	1.807806	-1.414067
H59	H	-0.335454	1.451424	-1.298523
C60	C	-0.590549	1.654199	-0.652906
C61	C	-0.546367	1.590320	-0.572164
C62	C	-0.491652	1.655550	-0.506630
H63	H	-0.535395	1.711795	-0.693159
H64	H	-0.638570	1.684170	-0.622950
H65	H	-0.498350	1.560365	-0.602118
H66	H	-0.601498	1.532726	-0.531886
H67	H	-0.539672	1.685521	-0.476675
H68	H	-0.436502	1.713144	-0.546892
H69	H	-0.461676	1.612216	-0.451835
H70	H	-0.777209	1.673769	-0.633910
C71	C	-0.657676	1.461875	-0.845497
C72	C	-0.701900	1.525742	-0.926211
C73	C	-0.756718	1.460483	-0.991674
H74	H	-0.609742	1.431857	-0.875493
H75	H	-0.712816	1.404308	-0.805153
H76	H	-0.646768	1.583290	-0.966549
H77	H	-0.749850	1.555761	-0.896245
H78	H	-0.811857	1.402915	-0.951330
H79	H	-0.708777	1.430468	-1.021663
H80	H	-0.786739	1.503805	-1.046440
H81	H	-0.132704	1.654288	-1.335936
C82	C	-0.310668	1.476040	-1.111982
C83	C	-0.299125	1.375652	-1.124233
C84	C	-0.383560	1.290964	-1.069622
H85	H	-0.310348	1.476304	-1.039164
H86	H	-0.376100	1.486418	-1.139464
H87	H	-0.233710	1.365276	-1.096747
H88	H	-0.299458	1.375352	-1.197039
H89	H	-0.448992	1.301343	-1.097103
H90	H	-0.383232	1.291239	-0.996806
H91	H	-0.375745	1.222842	-1.077934
C92	C	-0.110143	1.219032	-0.808995
C93	C	-0.121791	1.204189	-0.911969
C94	C	-0.037443	1.277859	-0.977726
H95	H	-0.110494	1.291769	-0.808772
H96	H	-0.044668	1.206320	-0.783979
H97	H	-0.187248	1.216910	-0.936979
H98	H	-0.121427	1.131467	-0.912225
H99	H	0.028032	1.265147	-0.952710
H100	H	-0.037801	1.350591	-0.977494
H101	H	-0.045329	1.267791	-1.047598
