data_functionalizedCrystal
_audit_creation_method	'MofGen! by Chris Wilmer'
_symmetry_space_group_name_H-M	'P1'
_symmetry_Int_Tables_number	1
_symmetry_cell_setting	triclinic
loop_
_symmetry_equiv_pos_as_xyz
  x,y,z
_cell_length_a	17.019282
_cell_length_b	19.188930
_cell_length_c	16.098546
_cell_angle_alpha	87.279071
_cell_angle_beta	88.846283
_cell_angle_gamma	83.267516
loop_
_atom_site_label
_atom_site_type_symbol
_atom_site_fract_x
_atom_site_fract_y
_atom_site_fract_z
O1	O	1.046079	0.089164	-0.005784
O2	O	0.817212	0.099774	0.010639
O3	O	0.938249	-0.007154	0.001937
O4	O	0.925042	0.196091	0.002917
O5	O	0.931206	-0.000910	-0.136069
O6	O	0.810168	0.106018	-0.127368
O7	O	1.039036	0.095408	-0.143790
Zn8	Zn	0.923484	0.101704	-0.157491
Zn9	Zn	0.932764	0.093477	0.024339
O10	O	0.917998	0.202335	-0.135089
C11	C	0.784409	0.102372	-0.056264
C12	C	0.697162	0.100803	-0.050004
C13	C	0.934300	-0.030045	-0.067038
C14	C	0.933015	-0.107555	-0.066953
C15	C	0.652339	0.103468	-0.122292
C16	C	0.570363	0.101982	-0.116413
C17	C	0.533211	0.097837	-0.038245
C18	C	0.578041	0.095170	0.034049
C19	C	0.660016	0.096650	0.028169
C20	C	0.285891	0.093192	-0.016727
C21	C	0.203909	0.091714	-0.010852
C22	C	0.196237	0.098525	-0.161315
C23	C	0.278214	0.100009	-0.167188
C24	C	0.323037	0.097338	-0.094895
C25	C	0.449418	0.096321	-0.032233
C26	C	0.406829	0.098850	-0.100907
C27	C	1.004037	-0.152130	-0.072053
C28	C	1.002831	-0.224960	-0.071953
C29	C	0.930599	-0.253212	-0.066769
C30	C	0.859569	-0.208627	-0.061664
C31	C	0.860777	-0.135799	-0.061756
N32	N	0.872989	-0.359363	-0.109774
N33	N	0.871847	-0.428547	-0.109689
C34	C	0.926955	-0.472639	-0.066491
N35	N	0.983260	-0.444934	-0.023393
N36	N	0.984406	-0.375743	-0.023482
C37	C	0.929281	-0.332181	-0.066669
C38	C	0.996674	-0.596186	-0.071482
C39	C	0.995465	-0.669017	-0.071377
C40	C	0.852201	-0.652682	-0.061096
C41	C	0.853411	-0.579852	-0.061193
C42	C	0.925650	-0.551609	-0.066390
C43	C	1.071838	0.092810	-0.076886
C44	C	1.159086	0.094379	-0.083141
C45	C	0.921948	0.225226	-0.066112
C46	C	0.923233	0.302737	-0.066192
N47	N	0.917156	0.107319	-0.281585
C48	C	0.887712	0.133231	-0.804287
C49	C	0.892155	0.129317	-0.717418
C50	C	0.947989	0.080032	-0.677831
C51	C	0.999376	0.034654	-0.725117
C52	C	0.994929	0.038565	-0.811985
C53	C	0.964097	0.065852	-0.415739
C54	C	0.968542	0.061945	-0.328865
C55	C	0.861319	0.156608	-0.321171
C56	C	0.856880	0.160517	-0.408041
C57	C	0.908265	0.115137	-0.455320
C58	C	0.952534	0.076032	-0.589036
C59	C	0.903716	0.119135	-0.544113
N60	N	0.939097	0.087858	0.148433
H61	H	0.682581	0.106849	-0.185946
H62	H	0.547786	0.091790	0.097696
H63	H	1.036771	0.001617	-0.850480
H64	H	0.800757	-0.231634	-0.057441
H65	H	0.533873	0.104141	-0.175278
H66	H	1.062859	-0.129139	-0.076282
H67	H	0.811416	0.200649	-0.440271
H68	H	1.053302	-0.705310	-0.075526
H69	H	0.850313	0.166263	-0.678922
H70	H	1.005938	0.028902	-0.454227
H71	H	0.322376	0.091015	0.042140
H72	H	0.419160	0.092945	0.031412
H73	H	1.044835	-0.005478	-0.692880
H74	H	0.159734	0.100698	-0.220172
H75	H	0.802941	-0.099505	-0.057602
H76	H	0.696510	0.094482	0.087034
H77	H	0.819483	0.193554	-0.282669
H78	H	1.060667	-0.261260	-0.076103
H79	H	0.308457	0.103382	-0.230841
H80	H	1.055495	-0.573188	-0.075710
H81	H	0.793388	-0.675684	-0.056871
H82	H	0.437082	0.102221	-0.164551
H83	H	0.173662	0.088340	0.052805
H84	H	1.014011	0.021810	-0.296638
H85	H	0.795578	-0.543558	-0.057044
H86	H	0.842250	0.173367	-0.836513
H87	H	0.858253	0.159260	-0.576347
H88	H	0.997996	0.035904	-0.556797
