data_functionalizedCrystal
_audit_creation_method	'MofGen! by Chris Wilmer'
_symmetry_space_group_name_H-M	'P1'
_symmetry_Int_Tables_number	1
_symmetry_cell_setting	triclinic
loop_
_symmetry_equiv_pos_as_xyz
  x,y,z
_cell_length_a	34.408637
_cell_length_b	34.407814
_cell_length_c	34.404193
_cell_angle_alpha	60.004510
_cell_angle_beta	60.009006
_cell_angle_gamma	59.994604
loop_
_atom_site_label
_atom_site_type_symbol
_atom_site_fract_x
_atom_site_fract_y
_atom_site_fract_z
O1	O	0.053973	-0.567860	0.474801
O2	O	0.553973	-0.067860	0.974801
O3	O	0.020377	-0.442124	0.382567
O4	O	0.520377	0.057876	0.882567
O5	O	0.100004	-0.521670	0.382483
O6	O	0.600004	-0.021670	0.882483
O7	O	-0.025653	-0.488314	0.474886
O8	O	0.474347	0.011686	0.974886
O9	O	0.126426	-0.495253	0.408816
O10	O	0.626426	0.004747	0.908816
O11	O	0.046800	-0.415707	0.408900
O12	O	0.546800	0.084293	0.908900
O13	O	0.080396	-0.541443	0.501134
O14	O	0.580396	-0.041443	1.001134
Zn15	Zn	0.067793	-0.474381	0.459198
Zn16	Zn	0.567793	0.025619	0.959198
Zn17	Zn	0.032980	-0.509186	0.424503
Zn18	Zn	0.532980	-0.009186	0.924503
O19	O	0.000769	-0.461897	0.501219
O20	O	0.500769	0.038103	1.001219
N21	N	0.091552	-0.450631	0.482879
N22	N	0.591552	0.049369	0.982879
N23	N	0.009225	-0.532940	0.400823
N24	N	0.509225	-0.032940	0.900823
C25	C	0.142848	-0.268847	0.534081
C26	C	0.642848	0.231153	1.034081
C27	C	0.142979	-0.399386	0.664559
C28	C	0.642979	0.100614	1.164559
C29	C	0.142862	-0.399365	0.534081
C30	C	0.642862	0.100635	1.034081
C31	C	0.273409	-0.399338	0.533986
C32	C	0.773409	0.100662	1.033986
C33	C	0.157225	-0.311914	0.548422
C34	C	0.657225	0.188086	1.048422
C35	C	0.157300	-0.385019	0.621491
C36	C	0.657300	0.114981	1.121491
C37	C	0.230339	-0.384991	0.548370
C38	C	0.730339	0.115009	1.048370
C39	C	0.157235	-0.385007	0.548422
C40	C	0.657235	0.114993	1.048422
C41	C	0.124548	-0.214028	0.515827
C42	C	0.624548	0.285972	1.015827
C43	C	0.124571	-0.417639	0.515827
C44	C	0.624571	0.082361	1.015827
C45	C	0.175526	-0.366733	0.566676
C46	C	0.675526	0.133267	1.066676
C47	C	0.353121	-0.385580	0.491988
C48	C	0.853121	0.114420	0.991988
C49	C	0.402952	-0.402180	0.475348
C50	C	0.902952	0.097820	0.975348
C51	C	0.402981	-0.482812	0.506096
C52	C	0.902981	0.017188	1.006096
C53	C	0.353151	-0.466211	0.522737
C54	C	0.853151	0.033789	1.022737
C55	C	0.136544	-0.189099	0.466839
C56	C	0.636544	0.310901	0.966839
C57	C	0.119905	-0.139265	0.450247
C58	C	0.619905	0.360735	0.950247
C59	C	0.079280	-0.139291	0.531632
C60	C	0.579280	0.360709	1.031632
C61	C	0.095918	-0.189125	0.548224
C62	C	0.595918	0.310875	1.048224
C63	C	0.075577	-0.405615	0.527900
C64	C	0.575577	0.094385	1.027900
C65	C	0.058953	-0.422228	0.511301
C66	C	0.558953	0.077772	1.011301
C67	C	0.140315	-0.462889	0.470566
C68	C	0.640315	0.037111	0.970566
C69	C	0.156941	-0.446276	0.487159
C70	C	0.656941	0.053724	0.987159
C71	C	0.075772	-0.405653	0.744326
C72	C	0.575772	0.094347	1.244326
C73	C	0.059206	-0.422280	0.794159
C74	C	0.559206	0.077720	1.294159
C75	C	0.140607	-0.462951	0.794094
C76	C	0.640607	0.037049	1.294094
C77	C	0.157172	-0.446325	0.744260
C78	C	0.657172	0.053675	1.244260
C79	C	0.124753	-0.417674	0.719377
C80	C	0.624753	0.082326	1.219377
C81	C	0.328223	-0.417595	0.515681
C82	C	0.828223	0.082405	1.015681
C83	C	-0.172390	-0.583988	0.349141
C84	C	0.327610	-0.083988	0.849141
C85	C	-0.041751	-0.584138	0.218783
C86	C	0.458249	-0.084138	0.718783
C87	C	-0.041941	-0.584130	0.349402
C88	C	0.458059	-0.084130	0.849402
C89	C	-0.041957	-0.714607	0.349338
C90	C	0.458043	-0.214607	0.849338
C91	C	-0.129326	-0.598388	0.334853
C92	C	0.370674	-0.098388	0.834853
C93	C	-0.056165	-0.598473	0.261852
C94	C	0.443835	-0.098473	0.761852
C95	C	-0.056282	-0.671535	0.334962
C96	C	0.443718	-0.171535	0.834962
C97	C	-0.056272	-0.598469	0.334999
C98	C	0.443728	-0.098469	0.834999
C99	C	-0.227205	-0.565659	0.367327
C100	C	0.272795	-0.065659	0.867327
C101	C	-0.023703	-0.565882	0.367734
C102	C	0.476297	-0.065882	0.867734
C103	C	-0.074511	-0.616717	0.316667
C104	C	0.425489	-0.116717	0.816667
C105	C	-0.055754	-0.794298	0.391257
C106	C	0.444246	-0.294298	0.891257
C107	C	-0.039181	-0.844132	0.407888
C108	C	0.460819	-0.344132	0.907888
C109	C	0.041447	-0.844215	0.377269
C110	C	0.541447	-0.344215	0.877269
C111	C	0.024873	-0.794381	0.360637
C112	C	0.524873	-0.294381	0.860637
C113	C	-0.252183	-0.577666	0.416302
C114	C	0.247817	-0.077666	0.916302
C115	C	-0.302014	-0.561001	0.432833
C116	C	0.197986	-0.061001	0.932833
C117	C	-0.301886	-0.520329	0.351410
C118	C	0.198114	-0.020329	0.851410
C119	C	-0.252055	-0.536994	0.334880
C120	C	0.247945	-0.036994	0.834880
C121	C	-0.035709	-0.516892	0.355682
C122	C	0.464291	-0.016892	0.855682
C123	C	-0.019129	-0.500308	0.372353
C124	C	0.480871	-0.000308	0.872353
C125	C	0.021465	-0.581700	0.413115
C126	C	0.521465	-0.081700	0.913115
C127	C	0.004884	-0.598286	0.396450
C128	C	0.504884	-0.098286	0.896450
C129	C	-0.035389	-0.516907	0.139026
C130	C	0.464611	-0.016907	0.639026
C131	C	-0.018707	-0.500324	0.089193
C132	C	0.481293	-0.000324	0.589193
C133	C	0.021949	-0.581721	0.089240
C134	C	0.521949	-0.081721	0.589240
C135	C	0.005268	-0.598303	0.139074
C136	C	0.505268	-0.098303	0.639074
C137	C	-0.023402	-0.565894	0.163965
C138	C	0.476598	-0.065894	0.663965
C139	C	-0.023728	-0.769425	0.367633
C140	C	0.476272	-0.269425	0.867633
N141	N	0.427173	-0.450553	0.482630
N142	N	0.927173	0.049447	0.982630
O143	O	0.589997	-0.458460	0.365361
O144	O	1.089997	0.041540	0.865361
O145	O	0.590185	-0.550997	0.490963
O146	O	1.090185	-0.050997	0.990963
O147	O	0.590104	-0.550786	0.411309
O148	O	1.090104	-0.050786	0.911309
O149	O	0.590077	-0.458671	0.445016
O150	O	1.090077	0.041329	0.945016
O151	O	0.510940	-0.524462	0.437777
O152	O	1.010940	-0.024462	0.937777
O153	O	0.511020	-0.524674	0.517432
O154	O	1.011020	-0.024674	1.017432
O155	O	0.510832	-0.432136	0.391830
O156	O	1.010832	0.067864	0.891830
Zn157	Zn	0.498357	-0.474225	0.458833
Zn158	Zn	0.998357	0.025775	0.958833
Zn159	Zn	0.602660	-0.508908	0.423960
Zn160	Zn	1.102660	-0.008908	0.923960
O161	O	0.510913	-0.432348	0.471484
O162	O	1.010913	0.067652	0.971484
N163	N	0.673844	-0.532580	0.400158
N164	N	1.173844	-0.032580	0.900158
N165	N	0.091520	-0.115070	0.482873
N166	N	0.591520	0.384930	0.982873
O167	O	-0.025663	0.047841	0.474857
O168	O	0.474337	0.547841	0.974857
O169	O	0.099940	0.047877	0.382299
O170	O	0.599940	0.547877	0.882299
O171	O	0.020247	0.047844	0.382560
O172	O	0.520247	0.547844	0.882560
O173	O	0.054030	0.047874	0.474596
O174	O	0.554030	0.547874	0.974596
O175	O	0.046674	-0.031326	0.408942
O176	O	0.546674	0.468674	0.908942
O177	O	0.126367	-0.031293	0.408680
O178	O	0.626367	0.468707	0.908680
O179	O	0.000764	-0.031329	0.501238
O180	O	0.500764	0.468671	1.001238
Zn181	Zn	0.067761	-0.043881	0.459148
Zn182	Zn	0.567761	0.456119	0.959148
Zn183	Zn	0.032943	0.060429	0.424389
Zn184	Zn	0.532943	0.560429	0.924389
O185	O	0.080457	-0.031296	0.500977
O186	O	0.580457	0.468704	1.000977
N187	N	0.009178	0.131618	0.400665
N188	N	0.509178	0.631618	0.900665
N189	N	0.091852	-0.450680	0.818332
N190	N	0.591852	0.049320	1.318332
O191	O	0.083862	-0.567845	0.981235
O192	O	0.583862	-0.067845	1.481235
O193	O	-0.008657	-0.442198	0.981276
O194	O	0.491343	0.057802	1.481276
O195	O	-0.008441	-0.521875	0.981252
O196	O	0.491559	-0.021875	1.481252
O197	O	0.083646	-0.488168	0.981258
O198	O	0.583646	0.011832	1.481258
O199	O	0.017919	-0.495468	0.902085
O200	O	0.517919	0.004532	1.402085
O201	O	0.017703	-0.415791	0.902109
O202	O	0.517703	0.084209	1.402109
O203	O	0.110222	-0.541438	0.902067
O204	O	0.610222	-0.041438	1.402067
Zn205	Zn	0.068148	-0.474422	0.889518
Zn206	Zn	0.568148	0.025578	1.389518
Zn207	Zn	0.033417	-0.509214	0.993825
Zn208	Zn	0.533417	-0.009214	1.493825
O209	O	0.110006	-0.461761	0.902091
O210	O	0.610006	0.038239	1.402091
N211	N	0.009712	-0.532961	1.065011
N212	N	0.509712	-0.032961	1.565011
C213	C	0.030439	-0.413071	0.383027
C214	C	0.530439	0.086929	0.883027
C215	C	0.129046	-0.511580	0.382922
C216	C	0.629046	-0.011580	0.882922
C217	C	0.070334	-0.570496	0.500675
C218	C	0.570334	-0.070496	1.000675
C219	C	-0.028274	-0.471987	0.500780
C220	C	0.471726	0.028013	1.000780
C221	C	0.550625	-0.550579	0.520021
C222	C	1.050625	-0.050579	1.020021
C223	C	0.550527	-0.550317	0.421379
C224	C	1.050527	-0.050317	0.921379
C225	C	0.550389	-0.432554	0.362773
C226	C	1.050389	0.067446	0.862773
C227	C	0.550491	-0.432816	0.461414
C228	C	1.050491	0.067184	0.961414
C229	C	0.128944	0.008394	0.382712
C230	C	0.628944	0.508394	0.882712
C231	C	0.030287	0.008256	0.383068
C232	C	0.530287	0.508256	0.883068
C233	C	-0.028273	0.008252	0.500793
C234	C	0.471727	0.508252	1.000793
C235	C	0.070417	0.008292	0.500470
C236	C	0.570417	0.508292	1.000470
C237	C	-0.008218	-0.413165	0.941698
C238	C	0.491782	0.086835	1.441698
C239	C	-0.007945	-0.511830	0.941653
C240	C	0.492055	-0.011830	1.441653
C241	C	0.109783	-0.570471	0.941646
C242	C	0.609783	-0.070471	1.441646
C243	C	0.109516	-0.471800	0.941673
C244	C	0.609516	0.028200	1.441673
H245	H	0.019320	-0.412483	0.814467
H246	H	0.519320	0.087517	1.314467
H247	H	0.165136	-0.518689	0.353905
H248	H	0.665136	-0.018689	0.853905
H249	H	0.550329	-0.403500	0.326702
H250	H	1.050329	0.096500	0.826702
H251	H	0.550485	-0.403881	0.468626
H252	H	1.050485	0.096119	0.968626
C253	C	0.040109	-0.374136	0.716957
C254	C	0.540109	0.125864	1.216957
C255	C	-0.013770	-0.360913	0.744401
C256	C	0.486230	0.139087	1.244401
C257	C	-0.049432	-0.329398	0.717032
C258	C	0.450568	0.170602	1.217032
C259	C	-0.031215	-0.311107	0.662219
C260	C	0.468785	0.188893	1.162219
C261	C	0.022667	-0.324330	0.634772
C262	C	0.522667	0.175670	1.134772
C263	C	0.058329	-0.355845	0.662141
C264	C	0.558329	0.144155	1.162141
H265	H	-0.027257	-0.374453	0.784980
H266	H	0.472743	0.125547	1.284980
H267	H	-0.089318	-0.319609	0.737351
H268	H	0.410682	0.180391	1.237351
H269	H	-0.057614	-0.287778	0.641959
H270	H	0.442386	0.212222	1.141959
H271	H	0.036154	-0.310790	0.594193
H272	H	0.536154	0.189210	1.094193
H273	H	0.098216	-0.365634	0.641823
H274	H	0.598216	0.134366	1.141823
C275	C	0.176267	-0.494456	0.821466
C276	C	0.676267	0.005544	1.321466
C277	C	0.230147	-0.507676	0.794024
C278	C	0.730147	-0.007676	1.294024
C279	C	0.265807	-0.539184	0.821396
C280	C	0.765807	-0.039184	1.321396
C281	C	0.247587	-0.557472	0.876209
C282	C	0.747587	-0.057472	1.376209
C283	C	0.193705	-0.544252	0.903654
C284	C	0.693705	-0.044252	1.403654
C285	C	0.158045	-0.512744	0.876282
C286	C	0.658045	-0.012744	1.376282
H287	H	0.243636	-0.494138	0.753445
H288	H	0.743636	0.005862	1.253445
H289	H	0.305694	-0.548970	0.801079
H290	H	0.805694	-0.048970	1.301079
H291	H	0.273985	-0.580795	0.896471
H292	H	0.773985	-0.080795	1.396471
H293	H	0.180216	-0.557790	0.944232
H294	H	0.680216	-0.057790	1.444232
H295	H	0.118158	-0.502958	0.896599
H296	H	0.618158	-0.002958	1.396599
H297	H	0.550674	-0.579628	0.556096
H298	H	1.050674	-0.079628	1.056096
H299	H	0.550540	-0.579254	0.414165
H300	H	1.050540	-0.079254	0.914165
C301	C	0.177571	0.008708	0.343356
C302	C	0.677571	0.508708	0.843356
C303	C	0.216766	0.008876	0.352788
C304	C	0.716766	0.508876	0.852788
C305	C	0.265393	0.009190	0.313432
C306	C	0.765393	0.509190	0.813432
C307	C	0.274826	0.009335	0.264644
C308	C	0.774826	0.509335	0.764644
C309	C	0.235630	0.009167	0.255209
C310	C	0.735630	0.509167	0.755209
C311	C	0.187002	0.008853	0.294565
C312	C	0.687002	0.508853	0.794565
H313	H	0.209785	0.008768	0.388906
H314	H	0.709785	0.508768	0.888906
H315	H	0.294409	0.009314	0.320416
H316	H	0.794409	0.509314	0.820416
H317	H	0.310823	0.009568	0.235510
H318	H	0.810823	0.509568	0.735510
H319	H	0.242611	0.009275	0.219091
H320	H	0.742611	0.509275	0.719091
H321	H	0.157987	0.008729	0.287581
H322	H	0.657987	0.508729	0.787581
H323	H	-0.036863	-0.519031	0.941619
H324	H	0.463137	-0.019031	1.441619
H325	H	0.023050	0.008252	0.354152
H326	H	0.523050	0.508252	0.854152
C327	C	-0.077002	0.008240	0.540049
C328	C	0.422998	0.508240	1.040049
C329	C	-0.116247	0.008223	0.530567
C330	C	0.383753	0.508223	1.030567
C331	C	-0.164976	0.008211	0.569823
C332	C	0.335024	0.508211	1.069823
C333	C	-0.174459	0.008216	0.618561
C334	C	0.325541	0.508216	1.118561
C335	C	-0.135212	0.008234	0.628046
C336	C	0.364788	0.508234	1.128046
C337	C	-0.086484	0.008246	0.588790
C338	C	0.413516	0.508246	1.088790
H339	H	-0.109228	0.008219	0.494486
H340	H	0.390772	0.508219	0.994486
H341	H	-0.194029	0.008198	0.562802
H342	H	0.305971	0.508198	1.062802
H343	H	-0.210531	0.008208	0.647621
H344	H	0.289469	0.508208	1.147621
H345	H	-0.142231	0.008238	0.664127
H346	H	0.357769	0.508238	1.164127
H347	H	-0.057431	0.008258	0.595811
H348	H	0.442569	0.508258	1.095811
H349	H	0.138832	-0.606554	0.941627
H350	H	0.638832	-0.106554	1.441627
H351	H	0.077653	0.008301	0.529384
H352	H	0.577653	0.508301	1.029384
H353	H	0.015032	-0.638195	0.159378
H354	H	0.515032	-0.138195	0.659378
C355	C	0.148603	-0.462059	0.941667
C356	C	0.648603	0.037941	1.441667
C357	C	0.169106	-0.492876	0.982766
C358	C	0.669106	0.007124	1.482766
C359	C	0.208192	-0.483135	0.982761
C360	C	0.708192	0.016865	1.482761
C361	C	0.226775	-0.442578	0.941656
C362	C	0.726775	0.057422	1.441656
C363	C	0.206272	-0.411759	0.900553
C364	C	0.706272	0.088241	1.400553
C365	C	0.167186	-0.421500	0.900559
C366	C	0.667186	0.078500	1.400559
H367	H	0.155349	-0.522901	1.013198
H368	H	0.655349	-0.022901	1.513198
H369	H	0.223370	-0.505950	1.013188
H370	H	0.723370	-0.005950	1.513188
H371	H	0.255709	-0.435368	0.941652
H372	H	0.755709	0.064632	1.441652
H373	H	0.220029	-0.381734	0.870122
H374	H	0.720029	0.118266	1.370122
H375	H	0.152008	-0.398685	0.870132
H376	H	0.652008	0.101315	1.370132
C377	C	0.430403	-0.536289	0.513854
C378	C	0.930403	-0.036289	1.013854
C379	C	0.403016	-0.571507	0.539917
C380	C	0.903016	-0.071507	1.039917
C381	C	0.430441	-0.624984	0.547675
C382	C	0.930441	-0.124984	1.047675
C383	C	0.485252	-0.643244	0.529370
C384	C	0.985252	-0.143244	1.029370
C385	C	0.512642	-0.608025	0.503306
C386	C	1.012642	-0.108025	1.003306
C387	C	0.485218	-0.554547	0.495548
C388	C	0.985218	-0.054547	0.995548
H389	H	0.362438	-0.557991	0.553469
H390	H	0.862438	-0.057991	1.053469
H391	H	0.410165	-0.651056	0.566970
H392	H	0.910165	-0.151056	1.066970
H393	H	0.505554	-0.682831	0.535113
H394	H	1.005554	-0.182831	1.035113
H395	H	0.553220	-0.621541	0.489754
H396	H	1.053220	-0.121541	0.989754
H397	H	0.505494	-0.528476	0.476253
H398	H	1.005494	-0.028476	0.976253
C399	C	-0.077029	-0.462390	0.539980
C400	C	0.422971	0.037610	1.039980
C401	C	-0.107717	-0.493295	0.560498
C402	C	0.392283	0.006705	1.060498
C403	C	-0.156472	-0.483698	0.599698
C404	C	0.343528	0.016302	1.099698
C405	C	-0.174539	-0.443196	0.618382
C406	C	0.325461	0.056804	1.118382
C407	C	-0.143850	-0.412289	0.597864
C408	C	0.356150	0.087711	1.097864
C409	C	-0.095095	-0.421886	0.558663
C410	C	0.404905	0.078114	1.058663
H411	H	-0.094343	-0.523279	0.546667
H412	H	0.405657	-0.023279	1.046667
H413	H	-0.179190	-0.506578	0.614887
H414	H	0.320810	-0.006578	1.114887
H415	H	-0.210630	-0.436092	0.647400
H416	H	0.289370	0.063908	1.147400
H417	H	-0.157224	-0.382304	0.611694
H418	H	0.342776	0.117696	1.111694
H419	H	-0.072377	-0.399006	0.543475
H420	H	0.427623	0.100994	1.043475
H421	H	0.197059	-0.456117	0.723950
H422	H	0.697059	0.043883	1.223950
H423	H	-0.037264	-0.377079	0.941710
H424	H	0.462736	0.122921	1.441710
H425	H	0.049217	-0.382297	0.551240
H426	H	0.549217	0.117703	1.051240
H427	H	0.019058	-0.412426	0.521121
H428	H	0.519058	0.087574	1.021121
H429	H	0.196836	-0.456064	0.477324
H430	H	0.696836	0.043936	0.977324
C431	C	0.175925	-0.494393	0.439034
C432	C	0.675925	0.005607	0.939034
C433	C	0.211805	-0.542456	0.458071
C434	C	0.711805	-0.042456	0.958071
C435	C	0.247413	-0.573958	0.426538
C436	C	0.747413	-0.073958	0.926538
C437	C	0.247140	-0.557398	0.375970
C438	C	0.747140	-0.057398	0.875970
C439	C	0.211258	-0.509333	0.356930
C440	C	0.711258	-0.009333	0.856930
C441	C	0.175651	-0.477831	0.388462
C442	C	0.675651	0.022169	0.888462
H443	H	0.212009	-0.554717	0.495507
H444	H	0.712009	-0.054717	0.995507
H445	H	0.273975	-0.609539	0.440633
H446	H	0.773975	-0.109539	0.940633
H447	H	0.273498	-0.580718	0.352628
H448	H	0.773498	-0.080718	0.852628
H449	H	0.211055	-0.497072	0.319494
H450	H	0.711055	0.002928	0.819494
H451	H	0.149089	-0.442250	0.374368
H452	H	0.649089	0.057750	0.874368
H453	H	0.023260	-0.376951	0.354059
H454	H	0.523260	0.123049	0.854059
H455	H	0.332881	-0.492283	0.542031
H456	H	0.832881	0.007717	1.042031
C457	C	0.080027	-0.619290	0.539812
C458	C	0.580027	-0.119290	1.039812
C459	C	0.128825	-0.658426	0.530136
C460	C	0.628825	-0.158426	1.030136
C461	C	0.138518	-0.707220	0.569274
C462	C	0.638518	-0.207220	1.069274
C463	C	0.099414	-0.716878	0.618088
C464	C	0.599414	-0.216878	1.118088
C465	C	0.050613	-0.677741	0.627766
C466	C	0.550613	-0.177741	1.127766
C467	C	0.040919	-0.628947	0.588628
C468	C	0.540919	-0.128947	1.088628
H469	H	0.157775	-0.651277	0.494000
H470	H	0.657775	-0.151277	0.994000
H471	H	0.174644	-0.736191	0.562109
H472	H	0.674644	-0.236191	1.062109
H473	H	0.106589	-0.752999	0.647060
H474	H	0.606589	-0.252999	1.147060
H475	H	0.021662	-0.684890	0.663902
H476	H	0.521662	-0.184890	1.163902
H477	H	0.004793	-0.599976	0.595793
H478	H	0.504793	-0.099976	1.095793
H479	H	-0.028907	-0.460416	0.362542
H480	H	0.471093	0.039584	0.862542
H481	H	0.423225	-0.376108	0.456057
H482	H	0.923225	0.123892	0.956057
C483	C	0.325698	-0.332101	0.484228
C484	C	0.825698	0.167899	0.984228
C485	C	0.353089	-0.296887	0.458168
C486	C	0.853089	0.203113	0.958168
C487	C	0.325669	-0.243408	0.450406
C488	C	0.825669	0.256592	0.950406
C489	C	0.270857	-0.225143	0.468705
C490	C	0.770857	0.274857	0.968705
C491	C	0.243463	-0.260358	0.494767
C492	C	0.743463	0.239642	0.994767
C493	C	0.270883	-0.313837	0.502529
C494	C	0.770883	0.186163	1.002529
H495	H	0.393667	-0.310407	0.444620
H496	H	0.893667	0.189593	0.944620
H497	H	0.345948	-0.217340	0.431113
H498	H	0.845948	0.282660	0.931113
H499	H	0.250559	-0.185555	0.462959
H500	H	0.750559	0.314445	0.962959
H501	H	0.202886	-0.246838	0.508314
H502	H	0.702886	0.253162	1.008314
H503	H	0.250604	-0.339905	0.521822
H504	H	0.750604	0.160095	1.021822
H505	H	0.129672	-0.118967	0.410356
H506	H	0.629672	0.381033	0.910356
C507	C	0.168035	-0.216490	0.431201
C508	C	0.668035	0.283510	0.931201
C509	C	0.216075	-0.209616	0.395319
C510	C	0.716075	0.290384	0.895319
C511	C	0.247566	-0.237009	0.359681
C512	C	0.747566	0.262991	0.859681
C513	C	0.231017	-0.271277	0.359925
C514	C	0.731017	0.228723	0.859925
C515	C	0.182974	-0.278153	0.395809
C516	C	0.682974	0.221847	0.895809
C517	C	0.151483	-0.250760	0.431446
C518	C	0.651483	0.249240	0.931446
H519	H	0.228328	-0.184248	0.395137
H520	H	0.728328	0.315752	0.895137
H521	H	0.283131	-0.231919	0.333118
H522	H	0.783131	0.268081	0.833118
H523	H	0.254329	-0.291555	0.333544
H524	H	0.754329	0.208445	0.833544
H525	H	0.170721	-0.303521	0.395990
H526	H	0.670721	0.196479	0.895990
H527	H	0.115918	-0.255850	0.458009
H528	H	0.615918	0.244150	0.958009
C529	C	0.047790	-0.111896	0.567268
C530	C	0.547790	0.388104	1.067268
C531	C	0.034602	-0.139317	0.621155
C532	C	0.534602	0.360683	1.121155
C533	C	0.003110	-0.111924	0.656792
C534	C	0.503110	0.388076	1.156792
C535	C	-0.015193	-0.057108	0.638543
C536	C	0.484807	0.442892	1.138543
C537	C	-0.002005	-0.029683	0.584654
C538	C	0.497995	0.470317	1.084654
C539	C	0.029487	-0.057077	0.549016
C540	C	0.529487	0.442923	1.049016
H541	H	0.048151	-0.179898	0.634667
H542	H	0.548151	0.320102	1.134667
H543	H	-0.006652	-0.132226	0.696685
H544	H	0.493348	0.367774	1.196685
H545	H	-0.038504	-0.036830	0.664924
H546	H	0.461496	0.463170	1.164924
H547	H	-0.015554	0.010897	0.571142
H548	H	0.484446	0.510897	1.071142
H549	H	0.039249	-0.036775	0.509124
H550	H	0.539249	0.463225	1.009124
H551	H	-0.028474	-0.460433	0.068892
H552	H	0.471526	0.039567	0.568892
C553	C	0.082722	-0.216544	0.602112
C554	C	0.582722	0.283456	1.102112
C555	C	0.097247	-0.209693	0.633379
C556	C	0.597247	0.290307	1.133379
C557	C	0.084048	-0.237113	0.687268
C558	C	0.584048	0.262887	1.187268
C559	C	0.056324	-0.271383	0.709891
C560	C	0.556324	0.228617	1.209891
C561	C	0.041798	-0.278236	0.678624
C562	C	0.541798	0.221764	1.178624
C563	C	0.054996	-0.250817	0.624734
C564	C	0.554996	0.249183	1.124734
H565	H	0.117771	-0.184322	0.616632
H566	H	0.617771	0.315678	1.116632
H567	H	0.094802	-0.232039	0.710414
H568	H	0.594802	0.267961	1.210414
H569	H	0.046554	-0.291681	0.749784
H570	H	0.546554	0.208319	1.249784
H571	H	0.021273	-0.303607	0.695371
H572	H	0.521273	0.196393	1.195371
H573	H	0.044243	-0.255890	0.601588
H574	H	0.544243	0.244110	1.101588
H575	H	-0.058738	-0.490513	0.159288
H576	H	0.441262	0.009487	0.659288
H577	H	0.045284	-0.608113	0.068976
H578	H	0.545284	-0.108113	0.568976
H579	H	-0.058984	-0.490504	0.332300
H580	H	0.441016	0.009496	0.832300
H581	H	0.044746	-0.608091	0.436494
H582	H	0.544746	-0.108091	0.936494
H583	H	0.014660	-0.638178	0.406265
H584	H	0.514660	-0.138178	0.906265
H585	H	0.081021	-0.864532	0.371574
H586	H	0.581021	-0.364532	0.871574
C587	C	0.060105	-0.767022	0.334648
C588	C	0.560105	-0.267022	0.834648
C589	C	0.113564	-0.794479	0.326957
C590	C	0.613564	-0.294479	0.826957
C591	C	0.148798	-0.767120	0.300968
C592	C	0.648798	-0.267120	0.800968
C593	C	0.130574	-0.712304	0.282670
C594	C	0.630574	-0.212304	0.782670
C595	C	0.077112	-0.684845	0.290361
C596	C	0.577112	-0.184845	0.790361
C597	C	0.041878	-0.712204	0.316350
C598	C	0.541878	-0.212204	0.816350
H599	H	0.127058	-0.835059	0.340503
H600	H	0.627058	-0.335059	0.840503
H601	H	0.188374	-0.787448	0.295275
H602	H	0.688374	-0.287448	0.795275
H603	H	0.156656	-0.692052	0.263431
H604	H	0.656656	-0.192052	0.763431
H605	H	0.063618	-0.644264	0.276815
H606	H	0.563618	-0.144264	0.776815
H607	H	0.002302	-0.691876	0.322043
H608	H	0.502302	-0.191876	0.822043
H609	H	-0.095331	-0.773979	0.396956
H610	H	0.404669	-0.273979	0.896956
C611	C	-0.074413	-0.871495	0.433879
C612	C	0.425587	-0.371495	0.933879
C613	C	-0.115253	-0.864601	0.480128
C614	C	0.384747	-0.364601	0.980128
C615	C	-0.150485	-0.891964	0.506123
C616	C	0.349515	-0.391964	1.006123
C617	C	-0.144876	-0.926221	0.485870
C618	C	0.355124	-0.426221	0.985870
C619	C	-0.104033	-0.933117	0.439619
C620	C	0.395967	-0.433117	0.939619
C621	C	-0.068802	-0.905754	0.413624
C622	C	0.431198	-0.405754	0.913624
H623	H	-0.119407	-0.839240	0.495123
H624	H	0.380593	-0.339240	0.995123
H625	H	-0.180719	-0.886859	0.540361
H626	H	0.319281	-0.386859	1.040361
H627	H	-0.170956	-0.946477	0.505113
H628	H	0.329044	-0.446477	1.005113
H629	H	-0.099879	-0.958478	0.424624
H630	H	0.400121	-0.458478	0.924624
H631	H	-0.038568	-0.910859	0.379386
H632	H	0.461432	-0.410859	0.879386
H633	H	-0.322352	-0.570775	0.472713
H634	H	0.177648	-0.070775	0.972713
C635	C	-0.224850	-0.609196	0.451995
C636	C	0.275150	-0.109196	0.951995
C637	C	-0.231746	-0.590123	0.487867
C638	C	0.268254	-0.090123	0.987867
C639	C	-0.204411	-0.621654	0.523559
C640	C	0.295589	-0.121654	1.023559
C641	C	-0.170180	-0.672259	0.523380
C642	C	0.329820	-0.172259	1.023380
C643	C	-0.163283	-0.691335	0.487507
C644	C	0.336717	-0.191335	0.987507
C645	C	-0.190618	-0.659803	0.451815
C646	C	0.309382	-0.159803	0.951815
H647	H	-0.257087	-0.552660	0.488001
H648	H	0.242913	-0.052660	0.988001
H649	H	-0.209517	-0.607533	0.550115
H650	H	0.290483	-0.107533	1.050115
H651	H	-0.149945	-0.695600	0.549802
H652	H	0.350055	-0.195600	1.049802
H653	H	-0.137942	-0.728798	0.487373
H654	H	0.362058	-0.228798	0.987373
H655	H	-0.185512	-0.673925	0.425259
H656	H	0.314488	-0.173925	0.925259
C657	C	-0.329222	-0.488800	0.315718
C658	C	0.170778	0.011200	0.815718
C659	C	-0.322325	-0.507874	0.279847
C660	C	0.177675	-0.007874	0.779847
C661	C	-0.349659	-0.476343	0.244153
C662	C	0.150341	0.023657	0.744153
C663	C	-0.383890	-0.425738	0.244332
C664	C	0.116110	0.074262	0.744332
C665	C	-0.390788	-0.406662	0.280205
C666	C	0.109212	0.093338	0.780205
C667	C	-0.363454	-0.438193	0.315898
C668	C	0.136546	0.061807	0.815898
H669	H	-0.296984	-0.545337	0.279713
H670	H	0.203016	-0.045337	0.779713
H671	H	-0.344553	-0.490465	0.217598
H672	H	0.155447	0.009535	0.717598
H673	H	-0.404125	-0.402397	0.217910
H674	H	0.095875	0.097603	0.717910
H675	H	-0.416129	-0.369199	0.280338
H676	H	0.083871	0.130801	0.780338
H677	H	-0.368561	-0.424071	0.342453
H678	H	0.131439	0.075929	0.842453
H679	H	-0.231721	-0.527215	0.295000
H680	H	0.268279	-0.027215	0.795000
