data_functionalizedCrystal
_audit_creation_method	'MofGen! by Chris Wilmer'
_symmetry_space_group_name_H-M	'P1'
_symmetry_Int_Tables_number	1
_symmetry_cell_setting	triclinic
loop_
_symmetry_equiv_pos_as_xyz
  x,y,z
_cell_length_a	27.732048
_cell_length_b	12.837943
_cell_length_c	11.295501
_cell_angle_alpha	85.832961
_cell_angle_beta	94.623651
_cell_angle_gamma	91.264203
loop_
_atom_site_label
_atom_site_type_symbol
_atom_site_fract_x
_atom_site_fract_y
_atom_site_fract_z
O1	O	-0.650217	0.129420	-0.098863
O2	O	-0.510354	0.148163	-0.098897
O3	O	-0.577184	-0.012062	-0.098882
O4	O	-0.583387	0.289644	-0.098878
O5	O	-0.570800	-0.024420	0.099167
O6	O	-0.503969	0.135804	0.099152
O7	O	-0.643833	0.117061	0.099186
Cu8	Cu	-0.573318	0.125304	0.117252
Cu9	Cu	-0.580868	0.139920	-0.116964
O10	O	-0.577002	0.277286	0.099171
C11	C	-0.489135	0.141590	0.000123
C12	C	-0.435422	0.140407	0.000109
C13	C	-0.571897	-0.056828	0.000139
C14	C	-0.565648	-0.171804	0.000129
C15	C	-0.665052	0.123634	0.000164
C16	C	-0.718765	0.124818	0.000170
C17	C	-0.100927	0.227627	0.000161
C18	C	0.100951	0.223232	0.000172
O19	O	0.128256	0.302989	0.000225
N20	N	0.124782	0.128226	0.000169
C21	C	0.098140	0.034312	0.000171
O22	O	0.123042	-0.046598	0.000181
C23	C	-0.103736	0.038708	0.000169
C24	C	-0.127565	0.133721	0.000160
C25	C	-0.124755	0.322632	0.000154
C26	C	-0.175222	0.323731	0.000145
C27	C	-0.201860	0.229824	0.000143
C28	C	-0.178032	0.134819	0.000151
C29	C	-0.130377	-0.055205	0.000179
C30	C	-0.180849	-0.054098	0.000182
C31	C	-0.204677	0.040915	0.000173
C32	C	-0.255136	0.042011	0.000140
N33	N	-0.278967	0.137017	0.000143
C34	C	-0.252329	0.230923	0.000145
C35	C	0.204128	0.032011	0.000170
C36	C	0.254597	0.030912	0.000168
C37	C	0.257404	0.219832	0.000171
C38	C	0.206934	0.220930	0.000165
C39	C	0.180297	0.127016	0.000173
C40	C	-0.358313	0.233223	0.000125
C41	C	-0.408784	0.234313	0.000111
C42	C	-0.411587	0.045393	0.000113
C43	C	-0.361120	0.044303	0.000121
C44	C	-0.334484	0.138226	0.000131
O45	O	-0.282472	-0.037704	0.000101
O46	O	-0.277239	0.311820	0.000161
C47	C	-0.050460	0.226529	0.000171
C48	C	-0.026632	0.131524	0.000178
C49	C	-0.053270	0.037618	0.000177
C50	C	0.023837	0.130425	0.000177
C51	C	0.050475	0.224332	0.000178
C52	C	0.026645	0.319337	0.000181
C53	C	-0.023822	0.320436	0.000172
C54	C	-0.029439	-0.057388	0.000173
C55	C	0.021028	-0.058478	0.000181
C56	C	0.047666	0.035428	0.000183
C57	C	-0.582290	0.322052	0.000147
C58	C	-0.588539	0.437029	0.000149
N59	N	-0.568011	0.115024	0.281987
C60	C	-0.513412	0.679193	0.000109
C61	C	-0.519281	0.787225	0.000110
C62	C	-0.606148	0.761127	0.000144
C63	C	-0.600278	0.653095	0.000143
C64	C	-0.553909	0.612132	0.000127
C65	C	-0.548039	0.504098	0.000134
C66	C	-0.634906	0.478002	0.000160
C67	C	-0.640775	0.586034	0.000161
N68	N	-0.586179	0.150192	-0.281698
C69	C	-0.624379	0.224248	0.531293
C70	C	-0.620372	0.216470	0.655955
C71	C	-0.555992	0.091685	0.655977
C72	C	-0.559999	0.099463	0.531315
C73	C	-0.594193	0.165748	0.468977
C74	C	-0.598198	0.173530	0.344312
C75	C	-0.533821	0.048741	0.344336
C76	C	-0.529814	0.040963	0.468999
H77	H	-0.336631	0.309704	0.000136
O78	O	-0.685780	0.625999	0.000233
C79	C	-0.733324	0.780865	0.000180
C80	C	-0.682327	0.735746	0.000122
H81	H	-0.730550	0.869602	0.000066
H82	H	-0.750922	0.748094	0.083095
H83	H	-0.756259	0.758294	-0.082671
H84	H	-0.659353	0.758300	0.082918
H85	H	-0.664767	0.768515	-0.082847
O86	O	-0.674255	0.412885	0.000387
C87	C	-0.743408	0.351168	0.102990
C88	C	-0.698858	0.424947	0.102888
H89	H	-0.763318	0.360911	0.185840
H90	H	-0.731273	0.266893	0.103066
H91	H	-0.768635	0.371136	0.020077
H92	H	-0.673612	0.405074	0.185786
H93	H	-0.711028	0.509201	0.102749
H94	H	0.182445	-0.044470	0.000176
H95	H	-0.194619	0.401100	0.000137
H96	H	-0.501975	-0.013008	0.519771
O97	O	-0.657566	0.288777	0.470861
C98	C	-0.685659	0.465232	0.432643
C99	C	-0.648053	0.392265	0.501175
H100	H	-0.677975	0.548920	0.457108
H101	H	-0.723480	0.440110	0.457163
H102	H	-0.683345	0.460685	0.332846
H103	H	-0.650323	0.396776	0.600988
H104	H	-0.610248	0.417410	0.476557
O105	O	-0.504424	-0.007974	0.283866
C106	C	-0.422486	-0.044869	0.245847
C107	C	-0.455726	0.019437	0.314375
H108	H	-0.383106	-0.022747	0.270507
H109	H	-0.431174	-0.027921	0.146021
H110	H	-0.428572	-0.131614	0.270344
H111	H	-0.449658	0.106200	0.289978
H112	H	-0.447030	0.002401	0.414184
O113	O	-0.468401	0.639280	-0.000060
C114	C	-0.414660	0.538905	-0.102711
C115	C	-0.465657	0.584024	-0.102655
H116	H	-0.412422	0.494238	-0.185663
H117	H	-0.407062	0.483743	-0.019885
H118	H	-0.386729	0.605405	-0.102659
H119	H	-0.493620	0.517592	-0.102749
H120	H	-0.473214	0.639213	-0.185474
H121	H	-0.043219	0.397804	0.000167
H122	H	-0.528158	0.037708	0.706754
H123	H	0.273993	-0.046456	0.000156
H124	H	-0.643897	0.794493	0.000232
H125	H	-0.626039	0.227507	0.293558
H126	H	0.048342	0.395799	0.000178
O127	O	0.044097	-0.150876	0.000240
C128	C	0.035970	-0.338137	0.000189
C129	C	0.009786	-0.233578	0.000136
H130	H	0.008241	-0.405028	0.000080
H131	H	0.062179	-0.348618	0.083100
H132	H	0.056879	-0.338162	-0.082666
H133	H	-0.011149	-0.233480	0.082935
H134	H	-0.016394	-0.223138	-0.082830
O135	O	-0.055368	-0.148537	0.000004
C136	C	-0.117249	-0.250573	-0.102668
C137	C	-0.087929	-0.147282	-0.102600
H138	H	-0.143574	-0.249602	-0.185627
H139	H	-0.138317	-0.259982	-0.019849
H140	H	-0.091530	-0.318640	-0.102612
H141	H	-0.113613	-0.079154	-0.102698
H142	H	-0.066854	-0.137964	-0.185411
O143	O	-0.098912	0.413903	-0.000061
C144	C	-0.084415	0.581463	-0.102651
C145	C	-0.113702	0.478128	-0.102556
H146	H	-0.096368	0.633427	-0.185496
H147	H	-0.044244	0.564448	-0.102731
H148	H	-0.090973	0.623045	-0.019734
H149	H	-0.107184	0.436495	-0.185459
H150	H	-0.153863	0.495213	-0.102413
H151	H	-0.428183	0.311687	0.000103
O152	O	0.283257	0.311095	-0.000032
C153	C	0.297790	0.478663	-0.102569
C154	C	0.268483	0.375353	-0.102513
H155	H	0.285849	0.530653	-0.185403
H156	H	0.337957	0.461614	-0.102644
H157	H	0.291236	0.520232	-0.019640
H158	H	0.274996	0.333732	-0.185427
H159	H	0.228325	0.392472	-0.102375
H160	H	0.187537	0.298297	0.000164
H161	H	-0.486304	0.841823	0.000094
H162	H	-0.110984	-0.132574	0.000187
H163	H	-0.202534	-0.130576	0.000189
H164	H	-0.341719	-0.033063	0.000111
H165	H	-0.644953	0.264107	0.706688
H166	H	-0.433285	-0.031062	0.000107
H167	H	-0.510282	0.470748	0.000132
