data_functionalizedCrystal
_audit_creation_method	'MofGen! by Chris Wilmer'
_symmetry_space_group_name_H-M	'P1'
_symmetry_Int_Tables_number	1
_symmetry_cell_setting	triclinic
loop_
_symmetry_equiv_pos_as_xyz
  x,y,z
_cell_length_a	17.077404
_cell_length_b	14.908178
_cell_length_c	17.077396
_cell_angle_alpha	86.673435
_cell_angle_beta	89.981638
_cell_angle_gamma	93.311930
loop_
_atom_site_label
_atom_site_type_symbol
_atom_site_fract_x
_atom_site_fract_y
_atom_site_fract_z
Zn1	Zn	1.182045	-0.359235	-0.425771
Zn2	Zn	1.174388	-0.510118	-0.286925
Zn3	Zn	1.050776	-0.359261	-0.294520
Zn4	Zn	1.043184	-0.510059	-0.418154
O5	O	1.112598	-0.434668	-0.356342
O6	O	1.290876	-0.379264	-0.407362
O7	O	1.157963	-0.490142	-0.178083
O8	O	1.074571	-0.233003	-0.318297
O9	O	1.285250	-0.490117	-0.305352
O10	O	1.171014	-0.232984	-0.414727
O11	O	1.067146	-0.379308	-0.183664
O12	O	0.939922	-0.379250	-0.310911
O13	O	1.061631	-0.490016	-0.529013
O14	O	0.934345	-0.490041	-0.401745
O15	O	1.163652	-0.379207	-0.534609
O16	O	1.150602	-0.636365	-0.297966
O17	O	1.054206	-0.636321	-0.394379
C18	C	0.908652	-0.434643	-0.356326
C19	C	0.821401	-0.434653	-0.356337
C20	C	0.783336	-0.377035	-0.409525
C21	C	0.701355	-0.377041	-0.409528
C22	C	0.657441	-0.434670	-0.356346
C23	C	0.695512	-0.492291	-0.303153
C24	C	0.777491	-0.492280	-0.303146
C25	C	0.524641	-0.492312	-0.303171
C26	C	0.442656	-0.492324	-0.303178
C27	C	0.448505	-0.377072	-0.409553
C28	C	0.530484	-0.377061	-0.409546
C29	C	0.568549	-0.434684	-0.356353
C30	C	1.100771	-0.669079	-0.344539
C31	C	1.095783	-0.769361	-0.339516
C32	C	1.186760	-0.957632	-0.430596
C33	C	1.182076	-1.051856	-0.425879
C34	C	1.081727	-1.052034	-0.325369
C35	C	1.086411	-0.957810	-0.330086
C36	C	1.138930	-0.910612	-0.382700
C37	C	1.143617	-0.816387	-0.387413
C38	C	1.043266	-0.816567	-0.286907
C39	C	1.038582	-0.910791	-0.282190
C40	C	1.317341	-0.434695	-0.356359
C41	C	1.404590	-0.434706	-0.356366
C42	C	1.112649	-0.434602	-0.561090
C43	C	1.112671	-0.434573	-0.648341
C44	C	1.124493	-0.199342	-0.368209
C45	C	1.129562	-0.099060	-0.373266
C46	C	1.165795	-0.376870	-0.692247
C47	C	1.165806	-0.376840	-0.774229
C48	C	1.112696	-0.434519	-0.812304
C49	C	1.059566	-0.492224	-0.768392
C50	C	1.059552	-0.492249	-0.686412
C51	C	1.059600	-0.492170	-0.939265
C52	C	1.059615	-0.492147	-1.021251
C53	C	1.165854	-0.376761	-1.027082
C54	C	1.165840	-0.376786	-0.945102
C55	C	1.112711	-0.434493	-0.901196
C56	C	1.112596	-0.434669	-0.152395
C57	C	1.112739	-0.434443	-0.065156
H58	H	0.670366	-0.330124	-0.452840
H59	H	1.038966	-1.090479	-0.282536
H60	H	0.819085	-0.330108	-0.452833
H61	H	0.566237	-0.330139	-0.452856
H62	H	0.417508	-0.330152	-0.452863
H63	H	0.995820	-0.949232	-0.239355
H64	H	1.016285	-0.539228	-0.650665
H65	H	1.004322	-0.778273	-0.247905
C66	C	1.218789	-1.080717	-0.557390
C67	C	1.234650	-1.103541	-0.478527
H68	H	1.251250	-1.112623	-0.589894
H69	H	1.165276	-1.096204	-0.568043
H70	H	1.229097	-1.017844	-0.567719
H71	H	1.224336	-1.166413	-0.468197
H72	H	1.288176	-1.088060	-0.467870
C73	C	0.616161	-0.504691	-0.196924
C74	C	0.566481	-0.555654	-0.244701
H75	H	0.641987	-0.543798	-0.160827
H76	H	0.654044	-0.470376	-0.228593
H77	H	0.586142	-0.465345	-0.168939
H78	H	0.596502	-0.594994	-0.272690
H79	H	0.528593	-0.589984	-0.213027
C80	C	1.270802	-0.262807	-0.706254
C81	C	1.224175	-0.313465	-0.650400
H82	H	1.306839	-0.223658	-0.680420
H83	H	1.298846	-0.302110	-0.736249
H84	H	1.238341	-0.228287	-0.739967
H85	H	1.256636	-0.347991	-0.616690
H86	H	1.196129	-0.274157	-0.620392
C87	C	0.445104	-0.606235	-0.198021
C88	C	0.394383	-0.555667	-0.244718
H89	H	0.415301	-0.645336	-0.161928
H90	H	0.475353	-0.640794	-0.230424
H91	H	0.479049	-0.566866	-0.170032
H92	H	0.360442	-0.595036	-0.272711
H93	H	0.364121	-0.521105	-0.212311
H94	H	0.808483	-0.539199	-0.259835
H95	H	1.016366	-0.539112	-1.052249
H96	H	0.659750	-0.539210	-0.259848
H97	H	1.209091	-0.329824	-0.914104
H98	H	1.016325	-0.539147	-0.903520
H99	H	1.209067	-0.329855	-0.809974
C100	C	1.183205	-0.787228	-0.521832
C101	C	1.201338	-0.764500	-0.445250
H102	H	1.218836	-0.755192	-0.557539
H103	H	1.187265	-0.850066	-0.525872
H104	H	1.131218	-0.771825	-0.534024
H105	H	1.253323	-0.779910	-0.433055
H106	H	1.197286	-0.701649	-0.441207
C107	C	1.213034	-0.325456	-1.155339
C108	C	1.224243	-0.313312	-1.075341
H109	H	1.249076	-0.286281	-1.185133
H110	H	1.221468	-0.386062	-1.165722
H111	H	1.160956	-0.312246	-1.169417
H112	H	1.276319	-0.326529	-1.061262
H113	H	1.215815	-0.252692	-1.064953
C114	C	1.042540	-0.613558	-0.854458
C115	C	1.001185	-0.555627	-0.810241
H116	H	1.006496	-0.652705	-0.880289
H117	H	1.074173	-0.579189	-0.892338
H118	H	1.074986	-0.648080	-0.820732
H119	H	0.968742	-0.521100	-0.843969
H120	H	0.969538	-0.590000	-0.772358
H121	H	1.229528	-0.919203	-0.473431
