data_functionalizedCrystal
_audit_creation_method	'MofGen! by Chris Wilmer'
_symmetry_space_group_name_H-M	'P1'
_symmetry_Int_Tables_number	1
_symmetry_cell_setting	triclinic
loop_
_symmetry_equiv_pos_as_xyz
  x,y,z
_cell_length_a	21.395362
_cell_length_b	16.120484
_cell_length_c	16.120728
_cell_angle_alpha	84.367400
_cell_angle_beta	87.131132
_cell_angle_gamma	92.942400
loop_
_atom_site_label
_atom_site_type_symbol
_atom_site_fract_x
_atom_site_fract_y
_atom_site_fract_z
Zn1	Zn	0.925525	-0.356589	0.489864
Zn2	Zn	1.258859	-0.023255	0.823198
Zn3	Zn	1.592192	0.310078	1.156531
Zn4	Zn	0.925467	-0.489235	0.357173
Zn5	Zn	1.258800	-0.155901	0.690506
Zn6	Zn	1.592134	0.177432	1.023839
Zn7	Zn	0.826366	-0.349513	0.350065
Zn8	Zn	1.159700	-0.016180	0.683398
Zn9	Zn	1.493033	0.317154	1.016732
Zn10	Zn	0.815125	-0.496360	0.496849
Zn11	Zn	1.148459	-0.163027	0.830183
Zn12	Zn	1.481792	0.170306	1.163516
O13	O	0.873121	-0.422924	0.423488
O14	O	1.206454	-0.089591	0.756821
O15	O	1.539788	0.243743	1.090154
O16	O	1.013194	-0.374164	0.472314
O17	O	1.346528	-0.040830	0.805647
O18	O	1.679861	0.292503	1.138980
O19	O	0.917001	-0.464757	0.239268
O20	O	1.250334	-0.131424	0.572601
O21	O	1.583668	0.201910	0.905935
O22	O	0.844249	-0.233483	0.362712
O23	O	1.177582	0.099851	0.696045
O24	O	1.510915	0.433184	1.029378
O25	O	1.013151	-0.471618	0.374826
O26	O	1.346485	-0.138285	0.708159
O27	O	1.679818	0.195049	1.041492
O28	O	0.917100	-0.238681	0.465422
O29	O	1.250434	0.094652	0.798755
O30	O	1.583767	0.427985	1.132088
O31	O	0.844192	-0.362104	0.234046
O32	O	1.177525	-0.028771	0.567379
O33	O	1.510859	0.304563	0.900713
O34	O	0.737198	-0.369013	0.369485
O35	O	1.070532	-0.035680	0.702818
O36	O	1.403865	0.297653	1.036152
O37	O	0.825090	-0.483763	0.612884
O38	O	1.158423	-0.150429	0.946218
O39	O	1.491757	0.182904	1.279551
O40	O	0.728940	-0.476901	0.477327
O41	O	1.062273	-0.143568	0.810660
O42	O	1.395606	0.189765	1.143993
O43	O	0.906200	-0.381073	0.607753
O44	O	1.239534	-0.047740	0.941086
O45	O	1.572867	0.285594	1.274419
O46	O	0.906101	-0.607149	0.381599
O47	O	1.239434	-0.273815	0.714932
O48	O	1.572768	0.059518	1.048266
O49	O	0.825034	-0.612384	0.484219
O50	O	1.158367	-0.279050	0.817552
O51	O	1.491700	0.054283	1.150885
C52	C	0.710335	-0.422963	0.423393
C53	C	1.043669	-0.089630	0.756726
C54	C	1.377002	0.243703	1.090060
C55	C	0.640693	-0.423001	0.423373
C56	C	0.974027	-0.089668	0.756707
C57	C	1.307360	0.243665	1.090040
C58	C	0.864358	-0.640096	0.434456
C59	C	1.197691	-0.306763	0.767790
C60	C	1.531024	0.026571	1.101123
C61	C	0.860665	-0.733004	0.439177
C62	C	1.193998	-0.399671	0.772510
C63	C	1.527331	-0.066338	1.105843
C64	C	0.603697	-0.479245	0.479450
C65	C	0.937030	-0.145912	0.812784
C66	C	1.270363	0.187421	1.146117
C67	C	0.538261	-0.479227	0.479486
C68	C	0.871594	-0.145893	0.812820
C69	C	1.204927	0.187440	1.146153
C70	C	0.509824	-0.422972	0.423431
C71	C	0.843157	-0.089639	0.756765
C72	C	1.176491	0.243694	1.090098
C73	C	0.546829	-0.366718	0.367350
C74	C	0.880162	-0.033384	0.700684
C75	C	1.213496	0.299949	1.034017
C76	C	0.612264	-0.366732	0.367321
C77	C	0.945597	-0.033399	0.700655
C78	C	1.278930	0.299935	1.033988
C79	C	0.409397	-0.412409	0.347846
C80	C	0.742731	-0.079076	0.681179
C81	C	1.076064	0.254258	1.014512
C82	C	0.343964	-0.412400	0.347874
C83	C	0.677297	-0.079067	0.681207
C84	C	1.010630	0.254266	1.014540
C85	C	0.308002	-0.422922	0.423521
C86	C	0.641335	-0.089589	0.756854
C87	C	0.974668	0.243744	1.090188
C88	C	0.337481	-0.433471	0.499144
C89	C	0.670814	-0.100138	0.832477
C90	C	1.004147	0.233196	1.165810
C91	C	0.402915	-0.433485	0.499115
C92	C	0.736249	-0.100152	0.832448
C93	C	1.069582	0.233181	1.165781
C94	C	0.438872	-0.422950	0.423457
C95	C	0.772205	-0.089616	0.756790
C96	C	1.105538	0.243717	1.090123
C97	C	0.200052	-0.479149	0.479642
C98	C	0.533385	-0.145816	0.812975
C99	C	0.866718	0.187517	1.146308
C100	C	0.134615	-0.479125	0.479679
C101	C	0.467948	-0.145792	0.813012
C102	C	0.801281	0.187542	1.146346
C103	C	0.143184	-0.366620	0.367535
C104	C	0.476518	-0.033286	0.700869
C105	C	0.809851	0.300047	1.034202
C106	C	0.208620	-0.366640	0.367505
C107	C	0.541953	-0.033307	0.700839
C108	C	0.875287	0.300027	1.034172
C109	C	0.237050	-0.422909	0.423558
C110	C	0.570383	-0.089576	0.756891
C111	C	0.903716	0.243757	1.090224
C112	C	0.853926	-0.903109	0.447812
C113	C	1.187259	-0.569776	0.781145
C114	C	1.520592	-0.236443	1.114479
C115	C	0.892428	-0.941899	0.399177
C116	C	1.225761	-0.608566	0.732511
C117	C	1.559095	-0.275232	1.065844
C118	C	0.888678	-1.036551	0.403982
C119	C	1.222012	-0.703218	0.737315
C120	C	1.555345	-0.369885	1.070649
C121	C	0.857674	-0.808449	0.443008
C122	C	1.191008	-0.475115	0.776342
C123	C	1.524341	-0.141782	1.109675
C124	C	1.036542	-0.422885	0.423583
C125	C	1.369875	-0.089552	0.756917
C126	C	1.703209	0.243781	1.090250
C127	C	1.106182	-0.422869	0.423624
C128	C	1.439516	-0.089536	0.756957
C129	C	1.772849	0.243798	1.090291
C130	C	0.864398	-0.434002	0.641493
C131	C	1.197731	-0.100669	0.974827
C132	C	1.531065	0.232665	1.308160
C133	C	0.860681	-0.438723	0.734394
C134	C	1.194014	-0.105389	1.067728
C135	C	1.527347	0.227944	1.401061
C136	C	0.881935	-0.204905	0.412495
C137	C	1.215268	0.128428	0.745828
C138	C	1.548602	0.461761	1.079161
C139	C	0.885691	-0.111999	0.407810
C140	C	1.219024	0.221335	0.741144
C141	C	1.552358	0.554668	1.074477
C142	C	0.853872	-0.447323	0.904484
C143	C	1.187205	-0.113990	1.237818
C144	C	1.520538	0.219344	1.571151
C145	C	0.892348	-0.398606	0.943347
C146	C	1.225681	-0.065272	1.276680
C147	C	1.559014	0.268061	1.610013
C148	C	0.888559	-0.403391	1.037990
C149	C	1.221892	-0.070057	1.371324
C150	C	1.555226	0.263276	1.704657
C151	C	0.857659	-0.442539	0.809832
C152	C	1.190993	-0.109205	1.143165
C153	C	1.524326	0.224128	1.476499
C154	C	0.881809	-0.411912	1.206331
C155	C	1.215143	-0.078579	1.539665
C156	C	1.548476	0.254755	1.872998
C157	C	0.885541	-0.407203	1.113431
C158	C	1.218874	-0.073870	1.446764
C159	C	1.552207	0.259463	1.780098
H160	H	0.626840	-0.525063	0.525093
H161	H	0.960173	-0.191730	0.858427
H162	H	1.293506	0.141604	1.191760
H163	H	0.642387	-0.320929	0.321657
H164	H	0.975720	0.012404	0.654990
H165	H	1.309053	0.345738	0.988323
F166	F	0.095240	-0.538987	0.539371
F167	F	0.428573	-0.205653	0.872704
F168	F	0.761906	0.127680	1.206038
H169	H	0.818089	-0.492622	0.942291
H170	H	1.151422	-0.159289	1.275624
H171	H	1.484756	0.174044	1.608957
F172	F	0.807162	-0.952615	0.506947
F173	F	1.140495	-0.619282	0.840280
F174	F	1.473828	-0.285948	1.173613
H175	H	0.120032	-0.320812	0.321898
H176	H	0.453365	0.012521	0.655231
H177	H	0.786699	0.345854	0.988565
H178	H	0.928133	-0.353302	0.905538
H179	H	1.261466	-0.019969	1.238871
H180	H	1.594800	0.313364	1.572204
H181	H	0.928207	-0.904021	0.353931
H182	H	1.261540	-0.570688	0.687264
H183	H	1.594873	-0.237354	1.020598
H184	H	0.426915	-0.442072	0.560689
H185	H	0.760248	-0.108739	0.894022
H186	H	1.093581	0.224595	1.227356
F187	F	0.498879	-0.539092	0.539174
F188	F	0.832212	-0.205758	0.872507
F189	F	1.165545	0.127575	1.205840
F190	F	0.299213	-0.444666	0.579660
F191	F	0.632546	-0.111333	0.912993
F192	F	0.965880	0.222000	1.246326
H193	H	0.223200	-0.524963	0.525287
H194	H	0.556534	-0.191630	0.858620
H195	H	0.889867	0.141704	1.191953
H196	H	0.238743	-0.320844	0.321838
H197	H	0.572077	0.012489	0.655171
H198	H	0.905410	0.345823	0.988504
H199	H	0.319967	-0.403816	0.286297
H200	H	0.653300	-0.070483	0.619630
H201	H	0.986634	0.262850	0.952964
H202	H	0.438673	-0.403837	0.286240
H203	H	0.772006	-0.070504	0.619574
H204	H	1.105340	0.262830	0.952907
H205	H	0.523672	-0.320913	0.321711
H206	H	0.857005	0.012420	0.655045
H207	H	1.190338	0.345753	0.988378
