data_functionalizedCrystal
_audit_creation_method	'MofGen! by Chris Wilmer'
_symmetry_space_group_name_H-M	'P1'
_symmetry_Int_Tables_number	1
_symmetry_cell_setting	triclinic
loop_
_symmetry_equiv_pos_as_xyz
  x,y,z
_cell_length_a	10.685904
_cell_length_b	12.645330
_cell_length_c	10.685880
_cell_angle_alpha	94.338422
_cell_angle_beta	80.918635
_cell_angle_gamma	94.379574
loop_
_atom_site_label
_atom_site_type_symbol
_atom_site_fract_x
_atom_site_fract_y
_atom_site_fract_z
Zn1	Zn	1.995771	-0.349285	-0.866678
Zn2	Zn	1.979368	-0.513979	-0.654421
Zn3	Zn	1.767209	-0.349342	-0.638150
Zn4	Zn	1.783480	-0.539122	-0.850323
O5	O	1.881457	-0.437932	-0.752393
O6	O	2.171228	-0.360586	-0.852176
O7	O	1.937550	-0.481642	-0.474637
O8	O	1.797583	-0.200986	-0.668500
O9	O	2.159177	-0.481587	-0.696231
O10	O	1.965507	-0.200944	-0.836398
O11	O	1.781678	-0.360683	-0.462682
O12	O	1.591734	-0.385063	-0.652641
O13	O	1.825315	-0.524438	-1.030119
O14	O	1.603688	-0.524493	-0.808524
O15	O	1.981284	-0.384966	-1.042134
O16	O	1.953328	-0.665663	-0.680372
O17	O	1.809410	-0.684135	-0.824301
C18	C	1.551652	-0.457513	-0.727043
C19	C	1.410563	-0.465917	-0.716228
C20	C	1.881391	-0.713364	-0.752358
C21	C	1.881482	-0.831190	-0.752394
C22	C	1.971848	-0.987087	-0.661638
C23	C	1.972186	-0.864522	-0.661903
C24	C	1.928026	-0.881359	-0.888976
C25	C	1.928763	-1.003880	-0.888514
C26	C	1.744635	-1.004465	-0.707886
C27	C	1.745048	-0.881644	-0.704935
C28	C	2.212549	-0.418276	-0.777843
C29	C	2.353641	-0.409899	-0.788688
C30	C	1.906944	-0.457500	-1.083471
C31	C	1.917805	-0.465839	-1.224556
C32	C	1.881560	-0.161424	-0.752458
C33	C	1.881603	-0.043593	-0.752486
C34	C	1.856142	-0.418359	-0.422609
C35	C	1.845527	-0.409708	-0.281543
H36	H	1.351359	-0.520301	-0.645918
H37	H	1.775327	-0.355275	-1.222396
H38	H	1.704289	-1.031744	-0.609488
O39	O	2.001725	-0.530716	-1.294986
C40	C	2.125789	-0.498129	-1.272427
H41	H	2.121098	-0.451592	-1.176357
H42	H	2.182346	-0.570999	-1.272371
H43	H	2.174244	-0.445447	-1.350309
O44	O	1.424335	-0.345168	-0.872713
C45	C	1.507357	-0.405949	-0.960360
H46	H	1.467911	-0.492262	-0.964993
H47	H	1.516542	-0.373416	-1.058250
H48	H	1.604749	-0.401317	-0.928712
O49	O	1.935861	-0.823443	-0.541442
C50	C	1.812606	-0.865521	-0.495403
H51	H	1.792444	-0.944309	-0.550105
H52	H	1.805505	-0.879048	-0.390175
H53	H	1.740202	-0.807234	-0.508700
O54	O	1.936091	-1.017066	-0.540948
C55	C	1.941583	-1.128002	-0.539442
H56	H	2.010071	-1.157938	-0.625366
H57	H	1.976152	-1.147438	-0.448721
H58	H	1.842971	-1.168336	-0.543019
H59	H	2.072534	-1.013266	-0.691660
H60	H	2.029186	-1.028281	-0.925096
O61	O	2.093036	-0.824096	-0.697936
C62	C	2.170967	-0.851107	-0.611905
H63	H	2.126347	-0.924487	-0.562019
H64	H	2.268808	-0.868674	-0.665733
H65	H	2.180765	-0.782003	-0.538398
H66	H	1.864741	-0.860785	-0.958920
O67	O	1.854596	-1.049433	-0.972864
C68	C	1.902951	-1.016495	-1.095282
H69	H	2.008049	-0.990509	-1.100234
H70	H	1.890894	-1.085313	-1.168620
H71	H	1.849013	-0.947032	-1.115985
O72	O	2.046579	-0.839777	-0.932882
C73	C	2.087720	-0.765301	-0.840496
H74	H	2.033483	-0.783189	-0.742900
H75	H	2.193733	-0.770691	-0.840537
H76	H	2.069213	-0.681803	-0.863343
H77	H	1.710139	-0.848428	-0.604372
O78	O	1.659677	-0.855208	-0.777250
C79	C	1.721723	-0.790155	-0.872755
H80	H	1.827379	-0.804109	-0.890909
H81	H	1.679671	-0.810594	-0.963897
H82	H	1.708292	-0.703162	-0.840688
H83	H	1.677269	-1.042057	-0.773929
