data_functionalizedCrystal
_audit_creation_method	'MofGen! by Chris Wilmer'
_symmetry_space_group_name_H-M	'P1'
_symmetry_Int_Tables_number	1
_symmetry_cell_setting	triclinic
loop_
_symmetry_equiv_pos_as_xyz
  x,y,z
_cell_length_a	16.109301
_cell_length_b	13.101050
_cell_length_c	16.109301
_cell_angle_alpha	86.639520
_cell_angle_beta	96.538519
_cell_angle_gamma	86.645909
loop_
_atom_site_label
_atom_site_type_symbol
_atom_site_fract_x
_atom_site_fract_y
_atom_site_fract_z
O1	O	1.107704	-0.085153	-0.102280
O2	O	1.357704	0.164847	0.147720
O3	O	1.607704	0.414847	0.397720
O4	O	1.857704	0.664847	0.647720
O5	O	0.865643	-0.085169	-0.115578
O6	O	1.115643	0.164831	0.134422
O7	O	1.365643	0.414831	0.384422
O8	O	1.615643	0.664831	0.634422
O9	O	0.993322	-0.085150	0.012101
O10	O	1.243322	0.164850	0.262101
O11	O	1.493322	0.414850	0.512101
O12	O	1.743322	0.664850	0.762101
O13	O	0.980024	-0.085172	-0.229959
O14	O	1.230024	0.164828	0.020041
O15	O	1.480024	0.414828	0.270041
O16	O	1.730024	0.664828	0.520041
O17	O	0.984161	0.085278	0.002924
O18	O	1.234161	0.335278	0.252924
O19	O	1.484161	0.585278	0.502924
O20	O	1.734161	0.835278	0.752924
O21	O	0.856481	0.085259	-0.124756
O22	O	1.106481	0.335259	0.125244
O23	O	1.356481	0.585259	0.375244
O24	O	1.606481	0.835259	0.625244
O25	O	1.098542	0.085276	-0.111457
O26	O	1.348542	0.335276	0.138543
O27	O	1.598542	0.585276	0.388543
O28	O	1.848542	0.835276	0.638543
Zn29	Zn	0.976057	0.112327	-0.119564
Zn30	Zn	1.226057	0.362327	0.130436
Zn31	Zn	1.476057	0.612327	0.380436
Zn32	Zn	1.726057	0.862327	0.630436
Zn33	Zn	0.988128	-0.112220	-0.107472
Zn34	Zn	1.238128	0.137780	0.142528
Zn35	Zn	1.488128	0.387780	0.392528
Zn36	Zn	1.738128	0.637780	0.642528
O37	O	0.970863	0.085257	-0.239137
O38	O	1.220863	0.335257	0.010863
O39	O	1.470863	0.585257	0.260863
O40	O	1.720863	0.835257	0.510863
C41	C	0.830087	0.000043	-0.119628
C42	C	1.080087	0.250043	0.130372
C43	C	1.330087	0.500043	0.380372
C44	C	1.580087	0.750043	0.630372
C45	C	0.737792	0.000037	-0.118013
C46	C	0.987792	0.250037	0.131987
C47	C	1.237792	0.500037	0.381987
C48	C	1.487792	0.750037	0.631987
C49	C	0.515520	0.000042	-0.190021
C50	C	0.765520	0.250042	0.059979
C51	C	1.015520	0.500042	0.309979
C52	C	1.265520	0.750042	0.559979
C53	C	0.428799	0.000049	-0.188497
C54	C	0.678799	0.250049	0.061503
C55	C	0.928799	0.500049	0.311503
C56	C	1.178799	0.750049	0.561503
C57	C	0.448673	0.000058	-0.037009
C58	C	0.698673	0.250058	0.212991
C59	C	0.948673	0.500058	0.462991
C60	C	1.198673	0.750058	0.712991
C61	C	0.535391	0.000059	-0.038534
C62	C	0.785391	0.250059	0.211466
C63	C	1.035391	0.500059	0.461466
C64	C	1.285391	0.750059	0.711466
C65	C	0.568812	0.000046	-0.115042
C66	C	0.818812	0.250046	0.134958
C67	C	1.068812	0.500046	0.384958
C68	C	1.318812	0.750046	0.634958
C69	C	0.395373	0.000052	-0.111993
C70	C	0.645373	0.250052	0.138007
C71	C	0.895373	0.500052	0.388007
C72	C	1.145373	0.750052	0.638007
C73	C	0.301347	0.000059	-0.110340
C74	C	0.551347	0.250059	0.139660
C75	C	0.801347	0.500059	0.389660
C76	C	1.051347	0.750059	0.639660
C77	C	0.662845	0.000040	-0.116695
C78	C	0.912845	0.250040	0.133305
C79	C	1.162845	0.500040	0.383305
C80	C	1.412845	0.750040	0.633305
N81	N	0.967826	0.265574	-0.127815
N82	N	1.217826	0.515574	0.122185
N83	N	1.467826	0.765574	0.372185
N84	N	1.717826	1.015574	0.622185
C85	C	0.956626	0.474615	-0.139050
C86	C	1.206626	0.724615	0.110950
C87	C	1.456626	0.974615	0.360950
C88	C	1.706626	1.224615	0.610950
C89	C	1.007560	0.525498	-0.087990
C90	C	1.257560	0.775498	0.162010
C91	C	1.507560	1.025498	0.412010
C92	C	1.757560	1.275498	0.662010
C93	C	1.001328	0.641816	-0.094241
C94	C	1.251328	0.891816	0.155759
C95	C	1.501328	1.141816	0.405759
C96	C	1.751328	1.391816	0.655759
C97	C	0.962856	0.358287	-0.132800
C98	C	1.212856	0.608287	0.117200
C99	C	1.462856	0.858287	0.367200
C100	C	1.712856	1.108287	0.617200
C101	C	1.134098	0.000061	-0.107407
C102	C	1.384098	0.250061	0.142593
C103	C	1.634098	0.500061	0.392593
C104	C	1.884098	0.750061	0.642593
C105	C	1.226393	0.000061	-0.109022
C106	C	1.476393	0.250061	0.140978
C107	C	1.726393	0.500061	0.390978
C108	C	1.976393	0.750061	0.640978
C109	C	0.988203	0.000065	0.038488
C110	C	1.238203	0.250065	0.288488
C111	C	1.488203	0.500065	0.538488
C112	C	1.738203	0.750065	0.788488
C113	C	0.986588	0.000066	0.130783
C114	C	1.236588	0.250066	0.380783
C115	C	1.486588	0.500066	0.630783
C116	C	1.736588	0.750066	0.880783
N117	N	0.996363	0.734533	-0.099222
N118	N	1.246363	0.984533	0.150778
N119	N	1.496363	1.234533	0.400778
N120	N	1.746363	1.484533	0.650778
C121	C	0.975982	0.000040	-0.265523
C122	C	1.225982	0.250040	-0.015523
C123	C	1.475982	0.500040	0.234477
C124	C	1.725982	0.750040	0.484477
C125	C	0.977598	0.000032	-0.357818
C126	C	1.227598	0.250032	-0.107818
C127	C	1.477598	0.500032	0.142182
C128	C	1.727598	0.750032	0.392182
C129	C	1.058596	0.000055	0.353056
C130	C	1.308596	0.250055	0.603056
C131	C	1.558596	0.500055	0.853056
C132	C	1.808596	0.750055	1.103056
C133	C	1.057072	0.000046	0.439777
C134	C	1.307072	0.250046	0.689777
C135	C	1.557072	0.500046	0.939777
C136	C	1.807072	0.750046	1.189777
C137	C	0.905584	0.000040	0.419903
C138	C	1.155584	0.250040	0.669903
C139	C	1.405584	0.500040	0.919903
C140	C	1.655584	0.750040	1.169903
C141	C	0.907109	0.000041	0.333184
C142	C	1.157109	0.250041	0.583184
C143	C	1.407109	0.500041	0.833184
C144	C	1.657109	0.750041	1.083184
C145	C	0.983617	0.000054	0.299763
C146	C	1.233617	0.250054	0.549763
C147	C	1.483617	0.500054	0.799763
C148	C	1.733617	0.750054	1.049763
C149	C	0.980569	0.000044	0.473202
C150	C	1.230569	0.250044	0.723202
C151	C	1.480569	0.500044	0.973202
C152	C	1.730569	0.750044	1.223202
C153	C	0.978916	0.000035	0.567229
C154	C	1.228916	0.250035	0.817229
C155	C	1.478916	0.500035	1.067229
C156	C	1.728916	0.750035	1.317229
C157	C	0.985270	0.000061	0.205730
C158	C	1.235270	0.250061	0.455730
C159	C	1.485270	0.500061	0.705730
C160	C	1.735270	0.750061	0.955730
H161	H	0.542727	0.000039	-0.252319
H162	H	0.792727	0.250039	-0.002319
H163	H	1.042727	0.500039	0.247681
H164	H	1.292727	0.750039	0.497681
H165	H	0.843293	0.000031	0.447125
H166	H	1.093293	0.250031	0.697125
H167	H	1.343293	0.500031	0.947125
H168	H	1.593293	0.750031	1.197125
Br169	Br	0.805345	0.000026	0.260852
Br170	Br	1.055345	0.250026	0.510852
Br171	Br	1.305345	0.500026	0.760852
Br172	Br	1.555345	0.750026	1.010852
Br173	Br	1.158835	0.000042	0.512101
Br174	Br	1.408835	0.250042	0.762101
Br175	Br	1.658835	0.500042	1.012101
Br176	Br	1.908835	0.750042	1.262101
H177	H	0.421450	0.000075	0.025281
H178	H	0.671450	0.250075	0.275281
H179	H	0.921450	0.500075	0.525281
H180	H	1.171450	0.750075	0.775281
H181	H	0.908344	0.518405	-0.187455
H182	H	1.158344	0.768405	0.062545
H183	H	1.408344	1.018405	0.312545
H184	H	1.658344	1.268405	0.562545
H185	H	1.120894	0.000063	0.325848
H186	H	1.370894	0.250063	0.575848
H187	H	1.620894	0.500063	0.825848
H188	H	1.870894	0.750063	1.075848
H189	H	0.578785	0.000065	0.022527
H190	H	0.828785	0.250065	0.272527
H191	H	1.078785	0.500065	0.522527
H192	H	1.328785	0.750065	0.772527
Br193	Br	0.356475	0.000049	-0.290259
Br194	Br	0.606475	0.250049	-0.040259
Br195	Br	0.856475	0.500049	0.209741
Br196	Br	1.106475	0.750049	0.459741
Br197	Br	1.088392	0.452511	-0.007658
Br198	Br	1.338392	0.702511	0.242342
Br199	Br	1.588392	0.952511	0.492342
Br200	Br	1.838392	1.202511	0.742342
