data_functionalizedCrystal
_audit_creation_method	'MofGen! by Chris Wilmer'
_symmetry_space_group_name_H-M	'P1'
_symmetry_Int_Tables_number	1
_symmetry_cell_setting	triclinic
loop_
_symmetry_equiv_pos_as_xyz
  x,y,z
_cell_length_a	18.050591
_cell_length_b	16.120484
_cell_length_c	16.120297
_cell_angle_alpha	84.385569
_cell_angle_beta	92.872461
_cell_angle_gamma	87.078125
loop_
_atom_site_label
_atom_site_type_symbol
_atom_site_fract_x
_atom_site_fract_y
_atom_site_fract_z
Zn1	Zn	1.097108	0.356841	-0.489590
Zn2	Zn	1.597108	0.856841	0.010410
Zn3	Zn	1.097015	0.489530	-0.356900
Zn4	Zn	1.597015	0.989530	0.143100
Zn5	Zn	0.979550	0.349767	-0.349821
Zn6	Zn	1.479550	0.849767	0.150179
Zn7	Zn	0.966254	0.496560	-0.496606
Zn8	Zn	1.466254	0.996560	0.003394
O9	O	1.034982	0.423175	-0.423229
O10	O	1.534982	0.923175	0.076771
O11	O	1.201019	0.374461	-0.472014
O12	O	1.701019	0.874461	0.027986
O13	O	1.086958	0.465088	-0.239000
O14	O	1.586958	0.965088	0.261000
O15	O	1.000748	0.233740	-0.362463
O16	O	1.500748	0.733740	0.137537
O17	O	1.200950	0.471947	-0.374528
O18	O	1.700950	0.971947	0.125472
O19	O	1.087118	0.238938	-0.465150
O20	O	1.587118	0.738938	0.034850
O21	O	1.000658	0.362404	-0.233799
O22	O	1.500658	0.862404	0.266201
O23	O	0.873864	0.369221	-0.369266
O24	O	1.373864	0.869221	0.130734
O25	O	0.978086	0.483929	-0.612637
O26	O	1.478086	0.983929	-0.112637
O27	O	0.864095	0.477070	-0.477109
O28	O	1.364095	0.977070	0.022891
O29	O	1.074225	0.381277	-0.607482
O30	O	1.574225	0.881277	-0.107482
O31	O	1.074065	0.607428	-0.381332
O32	O	1.574065	1.107428	0.118668
O33	O	0.977995	0.612593	-0.483973
O34	O	1.477995	1.112593	0.016027
C35	C	0.842033	0.423141	-0.423182
C36	C	1.342033	0.923141	0.076818
C37	C	0.759487	0.423148	-0.423182
C38	C	1.259487	0.923148	0.076818
C39	C	1.024597	0.640339	-0.434200
C40	C	1.524597	1.140339	0.065800
C41	C	1.020220	0.733244	-0.438921
C42	C	1.520220	1.233244	0.061079
C43	C	1.024683	0.434176	-0.641234
C44	C	1.524683	0.934176	-0.141234
C45	C	1.020294	0.438865	-0.734134
C46	C	1.520294	0.938865	-0.234134
C47	C	0.565324	0.364442	-0.364662
C48	C	1.065324	0.864442	0.135338
C49	C	0.513265	0.439636	-0.347956
C50	C	1.013265	0.939636	0.152044
C51	C	0.608354	0.423175	-0.423221
C52	C	1.108354	0.923175	0.076779
C53	C	0.513331	0.348007	-0.439927
C54	C	1.013331	0.848007	0.060073
C55	C	0.462366	0.423195	-0.423257
C56	C	0.962366	0.923195	0.076743
C57	C	0.557381	0.498408	-0.406476
C58	C	1.057381	0.998408	0.093524
C59	C	0.557453	0.406729	-0.498481
C60	C	1.057453	0.906729	0.001519
C61	C	0.505411	0.481978	-0.481805
C62	C	1.005411	0.981978	0.018195
C63	C	0.692454	0.423163	-0.423198
C64	C	1.192454	0.923163	0.076802
C65	C	0.378268	0.423216	-0.423280
C66	C	0.878268	0.923216	0.076720
C67	C	1.228684	0.423209	-0.423278
C68	C	1.728684	0.923209	0.076722
C69	C	1.311228	0.423223	-0.423298
C70	C	1.811228	0.923223	0.076702
C71	C	1.045427	0.205163	-0.412234
C72	C	1.545427	0.705163	0.087766
C73	C	1.049878	0.112260	-0.407548
C74	C	1.549878	0.612260	0.092452
C75	C	1.012234	0.903343	-0.447559
C76	C	1.512234	1.403343	0.052441
C77	C	1.057862	0.942166	-0.398914
C78	C	1.557862	1.442166	0.101086
C79	C	1.053418	1.036815	-0.403719
C80	C	1.553418	1.536815	0.096281
C81	C	1.016677	0.808686	-0.442754
C82	C	1.516677	1.308686	0.057246
C83	C	1.012255	0.447406	-0.904224
C84	C	1.512255	0.947406	-0.404224
C85	C	1.057867	0.398693	-0.943074
C86	C	1.557867	0.898693	-0.443074
C87	C	1.053394	0.403445	-1.037718
C88	C	1.553394	0.903445	-0.537718
C89	C	1.016727	0.442655	-0.809572
C90	C	1.516727	0.942655	-0.309572
C91	C	1.045286	0.412155	-0.206070
C92	C	1.545286	0.912155	0.293930
C93	C	1.049830	0.407231	-0.113158
C94	C	1.549830	0.907231	0.386842
H95	H	0.493768	0.453561	-0.284326
H96	H	0.993768	0.953561	0.215674
N97	N	1.111076	0.341890	-0.895653
N98	N	1.611076	0.841890	-0.395653
N99	N	1.109407	0.265238	-0.901420
N100	N	1.609407	0.765238	-0.401420
H101	H	1.146986	0.225123	-0.867928
H102	H	1.646986	0.725123	-0.367928
H103	H	0.969849	0.492677	-0.942040
H104	H	1.469849	0.992677	-0.442040
H105	H	0.591457	0.314821	-0.315093
H106	H	1.091457	0.814821	0.184907
N107	N	0.472785	0.544348	-0.543963
N108	N	0.972785	1.044348	-0.043963
N109	N	0.486360	0.541317	-0.618919
N110	N	0.986360	1.041317	-0.118919
H111	H	0.463315	0.585366	-0.662816
H112	H	0.963315	1.085366	-0.162816
H113	H	0.576729	0.562000	-0.392290
H114	H	1.076729	1.062000	0.107710
H115	H	0.576969	0.392780	-0.562090
H116	H	1.076969	0.892780	-0.062090
H117	H	0.493857	0.284437	-0.454014
H118	H	0.993857	0.784437	0.045986
N119	N	1.111038	0.894682	-0.342129
N120	N	1.611038	1.394682	0.157871
N121	N	1.114608	0.816746	-0.338245
N122	N	1.614608	1.316746	0.161755
H123	H	1.152156	0.783206	-0.298136
H124	H	1.652156	1.283206	0.201864
H125	H	0.969837	0.941187	-0.492810
H126	H	1.469837	1.441187	0.007190
