data_functionalizedCrystal
_audit_creation_method	'MofGen! by Chris Wilmer'
_symmetry_space_group_name_H-M	'P1'
_symmetry_Int_Tables_number	1
_symmetry_cell_setting	triclinic
loop_
_symmetry_equiv_pos_as_xyz
  x,y,z
_cell_length_a	6.817900
_cell_length_b	10.526284
_cell_length_c	8.749630
_cell_angle_alpha	82.900988
_cell_angle_beta	105.181985
_cell_angle_gamma	84.688532
loop_
_atom_site_label
_atom_site_type_symbol
_atom_site_fract_x
_atom_site_fract_y
_atom_site_fract_z
V1	V	-3.946560	0.396860	-0.224772
O2	O	-3.927322	0.391013	0.004635
O3	O	-3.906587	0.392503	-0.439755
O4	O	-3.859548	0.570693	-0.224020
O5	O	-3.974686	0.211589	-0.212593
V6	V	-4.434099	0.374899	-0.197013
O7	O	-4.199008	0.445031	-0.285665
O8	O	-4.631848	0.326728	-0.136120
O9	O	-4.250866	0.379256	0.017970
O10	O	-4.570734	0.380746	-0.426420
O11	O	-4.523370	0.560170	-0.209192
O12	O	-4.297904	0.201066	-0.197764
C13	C	-3.754887	0.385819	-0.492078
C14	C	-3.803233	0.383416	-0.667847
C15	C	-4.125912	0.158636	-0.204904
C16	C	-4.094953	0.016536	-0.204088
C17	C	-3.916028	-0.040693	-0.211312
C18	C	-3.884026	-0.187560	-0.210469
C19	C	-3.694884	0.613116	-0.216885
C20	C	-3.705082	0.755215	-0.217693
C21	C	-4.065909	0.385937	0.070285
C22	C	-3.996798	0.388348	0.246052
H23	H	-3.674494	0.377361	-0.728609
O24	O	-4.150286	0.395349	-0.681360
C25	C	-4.120250	0.285996	-0.563145
H26	H	-4.021267	0.204115	-0.592233
H27	H	-4.274937	0.254334	-0.560550
H28	H	-4.040261	0.311111	-0.441061
H29	H	-3.786532	0.019041	-0.218112
H30	H	-4.013531	-0.247291	-0.203659
O31	O	-3.550629	-0.173432	-0.225596
C32	C	-3.499275	-0.112138	-0.088643
H33	H	-3.635204	-0.103292	-0.035867
H34	H	-3.459398	-0.011803	-0.123551
H35	H	-3.361699	-0.171754	0.004231
H36	H	-4.224445	-0.043199	-0.197279
