data_functionalizedCrystal
_audit_creation_method	'MofGen! by Chris Wilmer'
_symmetry_space_group_name_H-M	'P1'
_symmetry_Int_Tables_number	1
_symmetry_cell_setting	triclinic
loop_
_symmetry_equiv_pos_as_xyz
  x,y,z
_cell_length_a	19.288864
_cell_length_b	16.098538
_cell_length_c	19.288865
_cell_angle_alpha	92.708117
_cell_angle_beta	96.863755
_cell_angle_gamma	92.743008
loop_
_atom_site_label
_atom_site_type_symbol
_atom_site_fract_x
_atom_site_fract_y
_atom_site_fract_z
O1	O	0.924481	0.069533	-0.083521
O2	O	0.722217	0.069478	-0.095213
O3	O	0.829193	0.069491	0.011763
O4	O	0.817505	0.069520	-0.190497
O5	O	0.822944	-0.069023	0.005538
O6	O	0.715969	-0.069036	-0.101437
O7	O	0.918232	-0.068980	-0.089746
Zn8	Zn	0.816108	-0.091000	-0.096580
Zn9	Zn	0.824341	0.091498	-0.088379
O10	O	0.811256	-0.068993	-0.196721
C11	C	0.693216	0.000213	-0.097949
C12	C	0.616112	0.000192	-0.096821
N13	N	0.810494	-0.215550	-0.102176
C14	C	0.571416	0.000214	-0.159588
C15	C	0.498970	0.000223	-0.158527
C16	C	0.471222	0.000226	-0.094695
C17	C	0.515927	0.000199	-0.031920
C18	C	0.588372	0.000182	-0.032983
C19	C	0.365151	0.048774	-0.042334
C20	C	0.292707	0.048797	-0.041273
C21	C	0.247779	0.000276	-0.091413
C22	C	0.275302	-0.048256	-0.142625
C23	C	0.347747	-0.048274	-0.143688
C24	C	0.392669	0.000245	-0.093535
C25	C	0.124528	0.000307	-0.153033
C26	C	0.052080	0.000311	-0.151970
C27	C	0.069040	0.000296	-0.025360
C28	C	0.141486	0.000284	-0.026426
C29	C	0.169225	0.000293	-0.090264
C30	C	0.855915	-0.259130	-0.056788
C31	C	0.851994	-0.346319	-0.060709
C32	C	0.802655	-0.389927	-0.110023
C33	C	0.757230	-0.346342	-0.155414
C34	C	0.761147	-0.259154	-0.151489
C35	C	0.788453	-0.653179	-0.124242
C36	C	0.784539	-0.740373	-0.128165
C37	C	0.879304	-0.740344	-0.033459
C38	C	0.883220	-0.653155	-0.029541
C39	C	0.837792	-0.609577	-0.074929
C40	C	0.798648	-0.479049	-0.114035
C41	C	0.841796	-0.520457	-0.070914
C42	C	0.947233	0.000286	-0.087009
C43	C	1.024338	0.000313	-0.088137
C44	C	0.825692	0.000231	0.034527
C45	C	0.824563	0.000224	0.111630
N46	N	0.829961	0.216047	-0.082777
C47	C	0.814757	0.000268	-0.219485
C48	C	0.815887	0.000281	-0.296588
C49	C	0.887331	0.000237	0.156327
C50	C	0.886271	0.000250	0.228775
C51	C	0.822438	0.000233	0.256521
C52	C	0.759662	0.000224	0.211815
C53	C	0.760724	0.000220	0.139369
C54	C	0.770069	-0.048300	0.362628
C55	C	0.769009	-0.048300	0.435072
C56	C	0.819159	0.000250	0.479968
C57	C	0.870381	0.048791	0.452411
C58	C	0.871443	0.048786	0.379965
C59	C	0.821279	0.000238	0.335076
C60	C	0.880783	0.000279	0.603221
C61	C	0.879720	0.000297	0.675670
C62	C	0.753109	0.000263	0.658708
C63	C	0.754173	0.000253	0.586262
C64	C	0.818012	0.000257	0.558522
H65	H	0.593997	0.000223	-0.211570
Cl66	Cl	0.159404	0.000311	-0.233286
Cl67	Cl	0.933430	0.109831	0.508843
Cl68	Cl	0.961035	0.000279	0.568345
Cl69	Cl	0.704041	-0.204369	-0.208549
H70	H	0.930836	0.000312	0.712063
Cl71	Cl	0.967587	0.000265	0.121460
Cl72	Cl	0.909096	-0.401106	-0.003648
H73	H	0.493331	0.000213	0.020054
H74	H	0.881966	-0.484948	-0.030760
Cl75	Cl	0.695199	-0.401162	-0.217407
H76	H	0.177878	0.000270	0.024686
Cl77	Cl	0.675259	0.000233	0.530068
Cl78	Cl	0.382346	-0.109287	-0.208062
Cl79	Cl	0.258113	0.109817	0.023101
H80	H	0.624764	0.000164	0.018131
H81	H	0.015689	0.000324	-0.203085
Cl82	Cl	0.736624	-0.533875	-0.176030
H83	H	0.046451	0.000350	0.026615
H84	H	0.896095	-0.223629	-0.016634
H85	H	0.401726	0.088291	-0.001502
H86	H	0.923396	-0.617651	0.010615
H87	H	0.701135	0.000253	0.681299
Cl88	Cl	0.965186	0.000267	0.284975
Cl89	Cl	0.936408	-0.795132	0.023599
H90	H	0.744360	-0.775875	-0.168325
H91	H	0.751464	-0.617705	-0.161200
H92	H	0.913148	0.088311	0.357532
H93	H	0.727299	-0.087820	0.457503
Cl94	Cl	0.681808	0.000202	0.083175
H95	H	0.729229	-0.087840	0.326078
H96	H	0.238723	-0.087767	-0.183453
Cl97	Cl	0.442771	0.000249	-0.237440
Cl98	Cl	0.679415	0.000209	0.246696
