data_functionalizedCrystal
_audit_creation_method	'MofGen! by Chris Wilmer'
_symmetry_space_group_name_H-M	'P1'
_symmetry_Int_Tables_number	1
_symmetry_cell_setting	triclinic
loop_
_symmetry_equiv_pos_as_xyz
  x,y,z
_cell_length_a	29.839134
_cell_length_b	29.839131
_cell_length_c	17.640968
_cell_angle_alpha	101.231391
_cell_angle_beta	101.228543
_cell_angle_gamma	90.021992
loop_
_atom_site_label
_atom_site_type_symbol
_atom_site_fract_x
_atom_site_fract_y
_atom_site_fract_z
Zn1	Zn	0.738137	-0.127743	0.446937
Zn2	Zn	0.722861	-0.218060	0.314743
Zn3	Zn	0.647814	-0.142917	0.314765
Zn4	Zn	0.662962	-0.202827	0.446887
O5	O	0.692943	-0.172887	0.380833
O6	O	0.798979	-0.139749	0.429414
O7	O	0.700173	-0.220817	0.204128
O8	O	0.659849	-0.078034	0.332328
O9	O	0.787756	-0.206104	0.332291
O10	O	0.726209	-0.066886	0.429435
O11	O	0.645037	-0.165610	0.204144
O12	O	0.586955	-0.150839	0.332279
O13	O	0.685666	-0.180142	0.557511
O14	O	0.598084	-0.194855	0.429348
O15	O	0.740897	-0.124978	0.557548
O16	O	0.714861	-0.278910	0.332242
O17	O	0.670854	-0.267719	0.429327
C18	C	0.576218	-0.172841	0.380811
C19	C	0.526285	-0.172830	0.380820
C20	C	0.175550	-0.138384	0.431504
C21	C	0.363221	-0.138350	0.431486
O22	O	0.392462	-0.109006	0.474576
N23	N	0.380842	-0.172858	0.380839
C24	C	0.351542	-0.207378	0.330197
O25	O	0.370836	-0.236731	0.287123
C26	C	0.163872	-0.207413	0.330219
C27	C	0.146254	-0.172901	0.380864
C28	C	0.157932	-0.103875	0.482146
C29	C	0.111016	-0.103882	0.482147
C30	C	0.081720	-0.138399	0.431506
C31	C	0.099339	-0.172908	0.380865
C32	C	0.134574	-0.241935	0.279581
C33	C	0.087654	-0.241941	0.279593
C34	C	0.070035	-0.207429	0.330238
C35	C	0.023127	-0.207433	0.330226
N36	N	0.005506	-0.172925	0.380873
C37	C	0.034803	-0.138408	0.431513
C38	C	0.450071	-0.207356	0.330187
C39	C	0.496988	-0.207347	0.330180
C40	C	0.508665	-0.138320	0.431471
C41	C	0.461747	-0.138328	0.431473
C42	C	0.432451	-0.172849	0.380834
C43	C	-0.063723	-0.138426	0.431511
C44	C	-0.110644	-0.138436	0.431505
C45	C	-0.122316	-0.207464	0.330218
C46	C	-0.075400	-0.207454	0.330220
C47	C	-0.046104	-0.172933	0.380873
O48	O	-0.006139	-0.236764	0.287165
O49	O	0.015501	-0.109066	0.474592
C50	C	0.222466	-0.138377	0.431503
C51	C	0.240085	-0.172886	0.380862
C52	C	0.210788	-0.207403	0.330222
C53	C	0.287002	-0.172877	0.380855
C54	C	0.316298	-0.138360	0.431495
C55	C	0.298678	-0.103852	0.482142
C56	C	0.251762	-0.103860	0.482144
C57	C	0.228409	-0.241910	0.279575
C58	C	0.275324	-0.241900	0.279577
C59	C	0.304621	-0.207383	0.330217
C60	C	0.692858	-0.289614	0.380794
C61	C	0.692865	-0.339547	0.380803
C62	C	0.715919	-0.654994	0.330354
C63	C	0.715978	-0.842663	0.330385
O64	O	0.735511	-0.871865	0.287461
N65	N	0.693043	-0.860322	0.380893
C66	C	0.670095	-0.831060	0.431400
O67	O	0.650593	-0.850386	0.474366
C68	C	0.670039	-0.643391	0.431372
C69	C	0.692971	-0.625735	0.380856
C70	C	0.738850	-0.637337	0.279843
C71	C	0.738833	-0.590423	0.279832
C72	C	0.715885	-0.561165	0.330334
C73	C	0.692954	-0.578821	0.380846
C74	C	0.647094	-0.614129	0.481883
C75	C	0.647083	-0.567210	0.481873
C76	C	0.670015	-0.549554	0.431357
C77	C	0.669989	-0.502649	0.431337
N78	N	0.692924	-0.484990	0.380830
C79	C	0.715872	-0.514248	0.330328
C80	C	0.670125	-0.929590	0.431409
C81	C	0.670139	-0.976507	0.431415
C82	C	0.716022	-0.988106	0.330401
C83	C	0.716006	-0.941189	0.330392
C84	C	0.693060	-0.911931	0.380902
C85	C	0.715834	-0.415724	0.330310
C86	C	0.715813	-0.368805	0.330302
C87	C	0.669931	-0.357210	0.431318
C88	C	0.669950	-0.404124	0.431324
C89	C	0.692904	-0.433381	0.380817
O90	O	0.650471	-0.473420	0.474245
O91	O	0.735379	-0.494912	0.287381
C92	C	0.715936	-0.701908	0.330365
C93	C	0.693005	-0.719564	0.380876
C94	C	0.670058	-0.690306	0.431378
C95	C	0.693019	-0.766481	0.380882
C96	C	0.715966	-0.795739	0.330381
C97	C	0.738901	-0.778080	0.279873
C98	C	0.738884	-0.731166	0.279863
C99	C	0.647123	-0.707965	0.481885
C100	C	0.647141	-0.754880	0.481891
C101	C	0.670089	-0.784138	0.431389
C102	C	0.810124	-0.172933	0.380855
C103	C	0.860060	-0.172953	0.380865
C104	C	0.716675	-0.149168	0.587013
C105	C	0.726789	-0.139061	0.674875
C106	C	0.693044	-0.055702	0.380890
C107	C	0.693086	-0.005765	0.380914
C108	C	0.669330	-0.196481	0.175455
C109	C	0.659304	-0.206462	0.087593
C110	C	0.616287	-0.249427	0.963745
C111	C	0.625800	-0.239924	1.046304
C112	C	0.683307	-0.182487	1.046332
C113	C	0.673798	-0.191984	0.963771
C114	C	0.640288	-0.225455	0.922484
C115	C	0.697798	-0.168011	0.922510
C116	C	0.688292	-0.177509	0.839956
C117	C	0.654784	-0.210979	0.798663
C118	C	0.630781	-0.234953	0.839930
C119	C	0.731310	-0.134543	0.963799
C120	C	0.755311	-0.110570	0.922539
C121	C	0.745802	-0.120065	0.839983
C122	C	0.712295	-0.153536	0.798690
C123	C	0.769805	-0.096092	0.798717
C124	C	0.760298	-0.105590	0.716163
C125	C	0.702788	-0.163034	0.716136
H126	H	-0.061055	-0.235554	0.288974
O127	O	0.783657	-0.082372	0.676044
C128	C	0.833564	-0.087084	0.582811
C129	C	0.807137	-0.113431	0.628207
H130	H	0.852547	-0.112185	0.544111
H131	H	0.859175	-0.061543	0.626467
H132	H	0.808503	-0.068018	0.544203
H133	H	0.832163	-0.132525	0.666817
H134	H	0.781520	-0.138946	0.584508
H135	H	0.511328	-0.235447	0.288932
O136	O	0.327105	-0.070333	0.531447
C137	C	0.356993	-0.033189	0.665979
C138	C	0.324771	-0.071155	0.610231
H139	H	0.355124	-0.033848	0.729688
H140	H	0.346195	0.001480	0.652285
H141	H	0.393544	-0.039114	0.657231
H142	H	0.288211	-0.065274	0.618948
H143	H	0.335608	-0.105812	0.623939
H144	H	0.757584	-0.801911	0.238751
H145	H	0.628398	-0.543389	0.523007
H146	H	0.675490	-0.190278	0.682517
O147	O	0.715828	-0.149975	1.086564
C148	C	0.755983	-0.109904	1.213755
C149	C	0.719134	-0.146729	1.168293
H150	H	0.758674	-0.107275	1.279840
H151	H	0.746259	-0.075525	1.197600
H152	H	0.790322	-0.119674	1.197471
H153	H	0.684781	-0.137002	1.184553
H154	H	0.728897	-0.181099	1.184452
O155	O	0.802417	-0.063633	0.838792
C156	C	0.881757	-0.038937	0.864022
C157	C	0.844872	-0.075736	0.818604
H158	H	0.916089	-0.048704	0.847704
H159	H	0.884472	-0.036269	0.930123
H160	H	0.872007	-0.004575	0.847821
H161	H	0.854595	-0.110118	0.834739
H162	H	0.842165	-0.078364	0.752514
O163	O	0.645504	-0.220278	0.718470
C164	C	0.600282	-0.265407	0.599991
C165	C	0.610754	-0.254931	0.690808
H166	H	0.572180	-0.293418	0.577598
H167	H	0.632465	-0.277354	0.577527
H168	H	0.588429	-0.233177	0.577613
H169	H	0.622596	-0.287143	0.713253
H170	H	0.578562	-0.242965	0.713217
O171	O	0.292363	-0.275473	0.230351
C172	C	0.275814	-0.343929	0.129864
C173	C	0.256460	-0.305940	0.185576
H174	H	0.246795	-0.368566	0.093637
H175	H	0.301927	-0.363316	0.166046
H176	H	0.293049	-0.328007	0.088624
H177	H	0.239203	-0.321825	0.226827
H178	H	0.230370	-0.286557	0.149345
O179	O	0.647919	-0.993622	0.480595
C180	C	0.641510	-0.992470	0.615025
C181	C	0.666716	-0.973060	0.559413
H182	H	0.656691	-0.975847	0.678760
H183	H	0.645468	-1.031026	0.606430
H184	H	0.603682	-0.984883	0.601043
H185	H	0.704552	-0.980613	0.573361
H186	H	0.662721	-0.934509	0.568018
O187	O	0.583743	-0.281978	0.923753
C188	C	0.527701	-0.337952	0.932428
C189	C	0.564544	-0.301104	0.977816
H190	H	0.512161	-0.353419	0.976118
H191	H	0.543852	-0.365920	0.893803
H192	H	0.499790	-0.321769	0.893751
H193	H	0.592466	-0.317245	1.016535
H194	H	0.548359	-0.273140	1.016391
H195	H	0.606253	-0.259448	1.079896
O196	O	0.738250	-0.924101	0.281215
C197	C	0.744624	-0.925208	0.146782
C198	C	0.719400	-0.944602	0.202388
H199	H	0.729388	-0.941768	0.083038
H200	H	0.782449	-0.932822	0.160658
H201	H	0.740688	-0.886647	0.155489
H202	H	0.723299	-0.983166	0.193712
H203	H	0.681585	-0.936953	0.188498
H204	H	0.148910	-0.270039	0.238341
O205	O	0.647667	-0.421200	0.480466
C206	C	0.602137	-0.404741	0.580631
C207	C	0.627358	-0.385346	0.525021
H208	H	0.585703	-0.375764	0.616656
H209	H	0.627501	-0.421900	0.622057
H210	H	0.574508	-0.430927	0.544300
H211	H	0.654986	-0.359143	0.561289
H212	H	0.601966	-0.368215	0.483593
H213	H	0.603483	-0.262197	0.806311
H214	H	0.532526	-0.110214	0.472702
H215	H	0.651246	-0.333381	0.472434
H216	H	-0.124986	-0.110330	0.472746
O217	O	0.787832	-0.078058	0.962771
C218	C	0.827987	-0.037987	1.089961
C219	C	0.791138	-0.074812	1.044500
H220	H	0.830678	-0.035358	1.156047
H221	H	0.818263	-0.003608	1.073806
H222	H	0.862325	-0.047757	1.073677
H223	H	0.756785	-0.065085	1.060759
H224	H	0.800901	-0.109182	1.060658
H225	H	0.739051	-0.126812	1.031020
O226	O	0.761202	-0.714091	0.230769
C227	C	0.806691	-0.730569	0.130547
C228	C	0.781440	-0.749961	0.186120
H229	H	0.823052	-0.759562	0.094421
H230	H	0.834367	-0.704418	0.166831
H231	H	0.781315	-0.713370	0.089205
H232	H	0.806781	-0.767183	0.227472
H233	H	0.753757	-0.776089	0.149786
H234	H	0.237422	-0.075756	0.523384
O235	O	0.199947	-0.275477	0.230491
C236	C	0.145701	-0.337366	0.219645
C237	C	0.177921	-0.299376	0.275330
H238	H	0.127877	-0.356693	0.255875
H239	H	0.166341	-0.362056	0.183466
H240	H	0.119005	-0.321450	0.178358
H241	H	0.204623	-0.315252	0.316665
H242	H	0.157250	-0.274691	0.311454
H243	H	-0.039876	-0.110316	0.472757
H244	H	0.651439	-0.905770	0.472541
H245	H	0.063803	-0.270055	0.238358
O246	O	0.093984	-0.070336	0.531423
C247	C	0.110531	-0.001857	0.631859
C248	C	0.129877	-0.039828	0.576101
H249	H	0.139540	0.022824	0.667984
H250	H	0.093336	-0.017746	0.673186
H251	H	0.084385	0.017478	0.595639
H252	H	0.156041	-0.059176	0.612258
H253	H	0.147044	-0.023911	0.534773
H254	H	0.447405	-0.110224	0.472712
H255	H	0.426222	-0.235469	0.288948
H256	H	0.181781	-0.075766	0.523387
H257	H	-0.146178	-0.235566	0.288985
H258	H	0.734487	-0.354433	0.289163
O259	O	0.624880	-0.631238	0.531074
C260	C	0.618480	-0.630073	0.665512
C261	C	0.643683	-0.610671	0.609888
H262	H	0.633666	-0.613446	0.729244
H263	H	0.622437	-0.668629	0.656925
H264	H	0.580653	-0.622485	0.651535
H265	H	0.681518	-0.618225	0.623830
H266	H	0.639689	-0.572119	0.618484
O267	O	0.624803	-0.772061	0.530854
C268	C	0.565397	-0.823875	0.541432
C269	C	0.590643	-0.804451	0.485887
H270	H	0.537780	-0.850073	0.505099
H271	H	0.548961	-0.794922	0.577511
H272	H	0.590787	-0.841033	0.582819
H273	H	0.565282	-0.787298	0.444452
H274	H	0.607087	-0.833422	0.449864
O275	O	0.738135	-0.444079	0.281171
C276	C	0.783660	-0.450617	0.181004
C277	C	0.758417	-0.418456	0.236604
H278	H	0.800072	-0.429912	0.144969
H279	H	0.758315	-0.477358	0.139586
H280	H	0.811308	-0.468390	0.217343
H281	H	0.730769	-0.400651	0.200329
H282	H	0.783790	-0.391743	0.278024
H283	H	0.757507	-0.576051	0.238700
H284	H	0.757539	-0.661155	0.238718
O285	O	0.738395	-1.016464	0.281387
C286	C	0.810460	-1.035153	0.243227
C287	C	0.785167	-1.003006	0.298762
H288	H	0.848281	-1.024289	0.257266
H289	H	0.795306	-1.033271	0.179457
H290	H	0.806518	-1.071722	0.251881
H291	H	0.789099	-0.966422	0.290178
H292	H	0.800326	-1.004927	0.362512
H293	H	0.628437	-0.684146	0.523011
