data_functionalizedCrystal
_audit_creation_method	'MofGen! by Chris Wilmer'
_symmetry_space_group_name_H-M	'P1'
_symmetry_Int_Tables_number	1
_symmetry_cell_setting	triclinic
loop_
_symmetry_equiv_pos_as_xyz
  x,y,z
_cell_length_a	16.120530
_cell_length_b	12.759400
_cell_length_c	12.759393
_cell_angle_alpha	90.031769
_cell_angle_beta	87.082105
_cell_angle_gamma	92.889638
loop_
_atom_site_label
_atom_site_type_symbol
_atom_site_fract_x
_atom_site_fract_y
_atom_site_fract_z
Zn1	Zn	1.274616	0.499752	-0.675425
Zn2	Zn	1.774616	0.999752	-0.175425
Zn3	Zn	1.274534	0.675466	-0.499740
Zn4	Zn	1.774534	1.175466	0.000260
Zn5	Zn	1.135195	0.490887	-0.490856
Zn6	Zn	1.635195	0.990887	0.009144
Zn7	Zn	1.135184	0.666468	-0.666477
Zn8	Zn	1.635184	1.166468	-0.166477
O9	O	1.204882	0.583143	-0.583125
O10	O	1.704882	1.083143	-0.083125
O11	O	1.391272	0.530536	-0.659583
O12	O	1.891272	1.030536	-0.159583
O13	O	1.256022	0.651037	-0.351539
O14	O	1.756022	1.151037	0.148461
O15	O	1.153728	0.345044	-0.515366
O16	O	1.653728	0.845044	-0.015366
O17	O	1.391212	0.659633	-0.530508
O18	O	1.891212	1.159633	-0.030508
O19	O	1.256160	0.351557	-0.650968
O20	O	1.756160	0.851557	-0.150968
O21	O	1.153650	0.515427	-0.345012
O22	O	1.653650	1.015427	0.154988
O23	O	1.018527	0.506703	-0.506690
O24	O	1.518527	1.006703	-0.006690
O25	O	1.153709	0.644298	-0.814687
O26	O	1.653709	1.144298	-0.314687
O27	O	1.018518	0.635702	-0.635718
O28	O	1.518518	1.135702	-0.135718
O29	O	1.256149	0.521812	-0.821261
O30	O	1.756149	1.021812	-0.321261
O31	O	1.256010	0.821291	-0.521832
O32	O	1.756010	1.321291	-0.021832
O33	O	1.153630	0.814681	-0.644333
O34	O	1.653630	1.314681	-0.144333
C35	C	1.204833	0.856107	-0.583100
C36	C	1.704833	1.356107	-0.083100
C37	C	1.204888	0.972888	-0.583129
C38	C	1.704888	1.472888	-0.083129
C39	C	0.988272	0.569264	-0.569270
C40	C	1.488272	1.069264	-0.069270
C41	C	0.895606	0.563352	-0.563367
C42	C	1.395606	1.063352	-0.063367
C43	C	1.204936	0.583040	-0.857162
C44	C	1.704936	1.083040	-0.357162
C45	C	1.204959	0.582996	-0.973940
C46	C	1.704959	1.082996	-0.473940
C47	C	0.725942	0.552534	-0.552601
C48	C	1.225942	1.052534	-0.052601
C49	C	0.684662	0.613830	-0.613726
C50	C	1.184662	1.113830	-0.113726
C51	C	0.590256	0.607810	-0.607735
C52	C	1.090256	1.107810	-0.107735
C53	C	0.820357	0.558552	-0.558590
C54	C	1.320357	1.058552	-0.058590
C55	C	1.422338	0.597077	-0.597034
C56	C	1.922338	1.097077	-0.097034
C57	C	1.515005	0.603015	-0.602962
C58	C	2.015005	1.103015	-0.102962
C59	C	1.204955	0.309115	-0.583174
C60	C	1.704955	0.809115	-0.083174
C61	C	1.204985	0.192340	-0.583195
C62	C	1.704985	0.692340	-0.083195
C63	C	1.258257	1.031161	-0.519421
C64	C	1.758257	1.531161	-0.019421
C65	C	1.258308	1.140888	-0.519456
C66	C	1.758308	1.640888	-0.019456
C67	C	1.151614	1.134059	-0.646911
C68	C	1.651614	1.634059	-0.146911
C69	C	1.151568	1.024334	-0.646880
C70	C	1.651568	1.524334	-0.146880
C71	C	1.311576	0.979714	-0.455669
C72	C	1.811576	1.479714	0.044331
C73	C	1.364949	1.037987	-0.391955
C74	C	1.864949	1.537987	0.108045
C75	C	1.365000	1.147715	-0.391990
C76	C	1.865000	1.647715	0.108010
C77	C	1.311679	1.199169	-0.455741
C78	C	1.811679	1.699169	0.044259
C79	C	1.151677	0.512373	-1.025411
C80	C	1.651677	1.012373	-0.525411
C81	C	1.151702	0.512343	-1.135136
C82	C	1.651702	1.012343	-0.635136
C83	C	1.258300	0.653563	-1.141911
C84	C	1.758300	1.153563	-0.641911
C85	C	1.258269	0.653596	-1.032187
C86	C	1.758269	1.153596	-0.532187
C87	C	1.098367	0.441772	-0.967163
C88	C	1.598367	0.941772	-0.467163
C89	C	1.045081	0.371143	-1.018634
C90	C	1.545081	0.871143	-0.518634
C91	C	1.045106	0.371113	-1.128360
C92	C	1.545106	0.871113	-0.628360
C93	C	1.098417	0.441713	-1.186615
C94	C	1.598417	0.941713	-0.686615
C95	C	1.204876	0.583174	-0.310157
C96	C	1.704876	1.083174	0.189843
C97	C	1.205015	0.582932	-0.193390
C98	C	1.705015	1.082932	0.306610
H99	H	0.720223	0.670826	-0.670557
H100	H	1.220223	1.170826	-0.170557
N101	N	0.681327	0.481038	-0.481318
N102	N	1.181327	0.981038	0.018682
N103	N	0.603588	0.476195	-0.476496
N104	N	1.103588	0.976195	0.023504
H105	H	0.572069	0.425704	-0.426152
H106	H	1.072069	0.925704	0.073848
N107	N	1.311530	0.867632	-0.455612
N108	N	1.811530	1.367632	0.044388
N109	N	1.359136	0.821707	-0.398687
N110	N	1.859136	1.321707	0.101313
H111	H	1.359101	0.742548	-0.398644
H112	H	1.859101	1.242548	0.101356
H113	H	1.408366	0.996088	-0.340058
H114	H	1.908366	1.496088	0.159942
H115	H	1.001672	0.313668	-0.971195
H116	H	1.501672	0.813668	-0.471195
N117	N	1.419529	1.207225	-0.326918
N118	N	1.919529	1.707225	0.173082
N119	N	1.467132	1.161274	-0.270011
N120	N	1.967132	1.661274	0.229989
H121	H	1.505645	1.203300	-0.224048
H122	H	2.005645	1.703300	0.275952
N123	N	1.311745	1.311254	-0.455772
N124	N	1.811745	1.811254	0.044228
N125	N	1.359403	1.363274	-0.398886
N126	N	1.859403	1.863274	0.101114
H127	H	1.359448	1.442434	-0.398902
H128	H	1.859448	1.942434	0.101098
H129	H	1.108202	1.175962	-0.698812
H130	H	1.608202	1.675962	-0.198812
N131	N	1.312776	0.725658	-1.201399
N132	N	1.812776	1.225658	-0.701399
N133	N	1.360354	0.788702	-1.155429
N134	N	1.860354	1.288702	-0.655429
H135	H	1.398835	0.839616	-1.197441
H136	H	1.898835	1.339616	-0.697441
H137	H	1.108111	0.976888	-0.698758
H138	H	1.608111	1.476888	-0.198758
H139	H	1.098342	0.441786	-0.877819
H140	H	1.598342	0.941786	-0.377819
H141	H	1.001712	0.313610	-1.170264
H142	H	1.501712	0.813610	-0.670264
N143	N	1.312696	0.725746	-0.979620
N144	N	1.812696	1.225746	-0.479620
N145	N	1.360294	0.788772	-1.031636
N146	N	1.860294	1.288772	-0.531636
H147	H	1.398732	0.839733	-0.994511
H148	H	1.898732	1.339733	-0.494511
H149	H	1.098431	0.441685	-1.275961
H150	H	1.598431	0.941685	-0.775961
