data_functionalizedCrystal
_audit_creation_method	'MofGen! by Chris Wilmer'
_symmetry_space_group_name_H-M	'P1'
_symmetry_Int_Tables_number	1
_symmetry_cell_setting	triclinic
loop_
_symmetry_equiv_pos_as_xyz
  x,y,z
_cell_length_a	16.109301
_cell_length_b	16.109301
_cell_length_c	14.586319
_cell_angle_alpha	90.001321
_cell_angle_beta	90.002176
_cell_angle_gamma	96.538519
loop_
_atom_site_label
_atom_site_type_symbol
_atom_site_fract_x
_atom_site_fract_y
_atom_site_fract_z
O1	O	-1.103127	0.106869	0.076173
O2	O	-0.861065	0.120168	0.076186
O3	O	-0.988746	-0.007512	0.076184
O4	O	-0.975446	0.234550	0.076175
O5	O	-0.988745	-0.007520	-0.076297
O6	O	-0.861064	0.120160	-0.076295
O7	O	-1.103126	0.106861	-0.076308
Cu8	Cu	-0.982095	0.113510	-0.090224
Cu9	Cu	-0.982096	0.113520	0.090102
O10	O	-0.975445	0.234542	-0.076306
C11	C	-0.830090	0.119626	-0.000052
C12	C	-0.737794	0.118011	-0.000047
C13	C	-0.988206	-0.038491	-0.000053
C14	C	-0.986591	-0.130786	-0.000044
N15	N	-0.982097	0.113520	0.216934
C16	C	-1.134101	0.107404	-0.000067
C17	C	-1.226397	0.109019	-0.000067
C18	C	-0.515522	0.190018	-0.000060
C19	C	-0.428801	0.188494	-0.000066
C20	C	-0.448676	0.037006	-0.000057
C21	C	-0.535394	0.038530	-0.000057
C22	C	-0.568815	0.115039	-0.000054
C23	C	-0.395376	0.111990	-0.000059
C24	C	-0.301350	0.110337	-0.000066
C25	C	-0.662847	0.116693	-0.000050
C26	C	-0.975984	0.265521	-0.000066
C27	C	-0.977600	0.357816	-0.000070
C28	C	-0.905592	0.580088	-0.000053
C29	C	-0.907116	0.666809	-0.000046
C30	C	-1.058605	0.646934	-0.000058
C31	C	-1.057080	0.560216	-0.000059
C32	C	-0.980571	0.526795	-0.000060
C33	C	-0.983620	0.700234	-0.000053
C34	C	-0.985273	0.794260	-0.000046
C35	C	-0.978917	0.432763	-0.000066
N36	N	-0.982100	0.113503	-0.217056
C37	C	-1.038743	0.057093	0.451939
C38	C	-1.038746	0.057091	0.547921
C39	C	-0.925451	0.169936	0.547932
C40	C	-0.925453	0.169942	0.451953
C41	C	-0.982099	0.113515	0.403959
C42	C	-0.982099	0.113508	0.595919
C43	C	-0.982101	0.113506	0.699987
C44	C	-0.982098	0.113518	0.299885
H45	H	-0.542730	0.252317	-0.000065
F46	F	-1.099032	-0.002959	0.400864
H47	H	-0.843293	0.552881	-0.000057
F48	F	-1.099037	-0.002960	0.598981
H49	H	-0.385413	0.249550	-0.000072
H50	H	-0.421454	-0.025285	-0.000064
H51	H	-0.846060	0.710197	-0.000038
F52	F	-0.592117	-0.041277	-0.000057
H53	H	-1.120896	0.674156	-0.000066
H54	H	-1.118140	0.516822	-0.000061
H55	H	-0.879331	0.215876	0.587018
H56	H	-0.879326	0.215891	0.412884
