data_functionalizedCrystal
_audit_creation_method	'MofGen! by Chris Wilmer'
_symmetry_space_group_name_H-M	'P1'
_symmetry_Int_Tables_number	1
_symmetry_cell_setting	triclinic
loop_
_symmetry_equiv_pos_as_xyz
  x,y,z
_cell_length_a	17.699083
_cell_length_b	16.992695
_cell_length_c	16.776229
_cell_angle_alpha	89.993259
_cell_angle_beta	89.998886
_cell_angle_gamma	86.975619
loop_
_atom_site_label
_atom_site_type_symbol
_atom_site_fract_x
_atom_site_fract_y
_atom_site_fract_z
O1	O	1.010251	0.099146	-0.066177
O2	O	0.790676	0.112045	-0.066203
O3	O	0.899583	-0.008546	-0.066184
O4	O	0.901344	0.219736	-0.066196
O5	O	0.899568	-0.008553	0.066393
O6	O	0.790660	0.112037	0.066374
O7	O	1.010235	0.099138	0.066400
Zn8	Zn	0.900445	0.105587	0.087436
Zn9	Zn	0.900466	0.105596	-0.087239
O10	O	0.901328	0.219729	0.066381
C11	C	0.762442	0.111579	0.000082
C12	C	0.678338	0.110192	0.000072
C13	C	0.634124	0.180976	0.000069
C14	C	0.555099	0.179669	0.000079
C15	C	0.520290	0.107576	0.000087
C16	C	0.564510	0.036787	0.000093
C17	C	0.643533	0.038095	0.000089
C18	C	0.245818	0.031509	0.000113
C19	C	0.166789	0.030206	0.000116
C20	C	0.157384	0.173082	0.000104
C21	C	0.236408	0.174391	0.000099
C22	C	0.280621	0.103602	0.000109
C23	C	0.366308	0.105020	0.000099
C24	C	0.434604	0.106157	0.000091
C25	C	0.897311	-0.037758	0.000104
C26	C	0.890554	-0.124789	0.000103
C27	C	0.955751	-0.175154	0.000112
C28	C	0.949398	-0.256928	0.000104
C29	C	0.877846	-0.288336	0.000092
C30	C	0.812643	-0.237965	0.000081
C31	C	0.818998	-0.156192	0.000084
C32	C	0.851510	-0.531884	0.000078
C33	C	0.845160	-0.613663	0.000078
C34	C	0.981915	-0.632621	0.000099
C35	C	0.988263	-0.550845	0.000106
C36	C	0.923061	-0.500481	0.000091
N37	N	0.871350	-0.371923	0.000086
N38	N	0.929558	-0.416897	0.000091
C39	C	1.038469	0.099604	0.000113
C40	C	1.122574	0.100991	0.000118
C41	C	0.903601	0.248941	0.000091
C42	C	0.910358	0.335972	0.000087
N43	N	0.900437	0.105579	0.206647
N44	N	0.900481	0.105597	-0.206450
C45	C	0.948678	0.052204	0.248373
C46	C	0.948682	0.052203	0.331825
C47	C	0.900448	0.105582	0.373550
C48	C	0.852202	0.158961	0.331819
C49	C	0.852194	0.158957	0.248368
C50	C	0.852230	0.158976	0.668366
C51	C	0.852243	0.158977	0.751822
C52	C	0.948718	0.052222	0.751823
C53	C	0.948710	0.052219	0.668372
C54	C	0.900461	0.105594	0.626648
C55	C	0.900456	0.105593	0.536160
C56	C	0.900456	0.105588	0.464037
H57	H	0.536162	-0.021912	0.000112
O58	O	0.743121	-0.268436	-0.000073
C59	C	0.703080	-0.242664	-0.068731
H60	H	0.744841	-0.225726	-0.116716
H61	H	0.667890	-0.292139	-0.091785
H62	H	0.664130	-0.189289	-0.053214
O63	O	0.686453	-0.030685	-0.000053
C64	C	0.669991	-0.074472	-0.068702
H65	H	0.645513	-0.033029	-0.116695
H66	H	0.724094	-0.106014	-0.091749
H67	H	0.627057	-0.119778	-0.053173
O68	O	0.805418	0.210784	0.372471
C69	C	0.815756	0.199332	0.455075
H70	H	0.874152	0.169952	0.466470
H71	H	0.810928	0.258719	0.486780
H72	H	0.770549	0.160066	0.478771
H73	H	0.987959	0.008740	0.214406
O74	O	0.133096	-0.039898	0.000164
C75	C	0.189063	-0.102098	0.000154
H76	H	0.244017	-0.080227	0.025249
H77	H	0.169517	-0.152437	0.038653
H78	H	0.198913	-0.123929	-0.063447
H79	H	1.034999	-0.673635	0.000110
O80	O	0.775592	-0.644044	0.000023
C81	C	0.719404	-0.582057	0.000027
H82	H	0.743981	-0.526541	-0.025066
H83	H	0.669759	-0.599054	-0.038478
H84	H	0.699038	-0.570454	0.063624
H85	H	0.812910	0.202420	0.214396
H86	H	1.002489	-0.297933	0.000112
O87	O	1.025316	-0.144778	0.000086
C88	C	1.081497	-0.206771	0.000109
H89	H	1.056923	-0.262278	-0.024993
H90	H	1.131158	-0.189772	-0.038379
H91	H	1.101841	-0.218391	0.063713
H92	H	1.046528	-0.525279	0.000115
H93	H	0.765906	-0.115186	0.000077
O94	O	0.270342	0.244353	0.000046
C95	C	0.349571	0.230328	0.000057
H96	H	0.364403	0.169108	-0.025031
H97	H	0.376596	0.276446	-0.038448
H98	H	0.371780	0.234091	0.063657
H99	H	0.987989	0.008755	0.634402
O100	O	0.667813	0.251077	0.000095
C101	C	0.611839	0.313271	0.000075
H102	H	0.556889	0.291392	0.025180
H103	H	0.631381	0.363612	0.038561
H104	H	0.601984	0.335102	-0.063529
H105	H	0.988002	0.008759	0.785804
O106	O	0.788195	-0.482938	-0.000072
C107	C	0.787790	-0.435050	-0.068726
H108	H	0.824686	-0.465064	-0.116712
H109	H	0.727389	-0.425744	-0.091781
H110	H	0.810964	-0.375621	-0.053201
O111	O	0.995624	0.000333	0.372234
C112	C	1.038188	-0.046787	0.317511
H113	H	1.040969	-0.014646	0.258018
H114	H	1.097906	-0.058809	0.341614
H115	H	1.010109	-0.105006	0.308653
H116	H	0.519103	0.237308	0.000075
H117	H	0.121377	0.230722	0.000100
O118	O	0.288837	-0.037203	0.000007
C119	C	0.334812	-0.040730	-0.068668
H120	H	0.342574	0.021494	-0.091560
H121	H	0.392370	-0.070056	-0.053229
H122	H	0.306672	-0.076478	-0.116746
H123	H	0.812962	0.202447	0.785794
O124	O	0.805343	0.210902	0.627966
C125	C	0.762764	0.258003	0.682691
H126	H	0.793854	0.258849	0.742171
H127	H	0.754999	0.320631	0.658573
H128	H	0.705010	0.232619	0.691582
