data_functionalizedCrystal
_audit_creation_method	'MofGen! by Chris Wilmer'
_symmetry_space_group_name_H-M	'P1'
_symmetry_Int_Tables_number	1
_symmetry_cell_setting	triclinic
loop_
_symmetry_equiv_pos_as_xyz
  x,y,z
_cell_length_a	17.038272
_cell_length_b	10.723024
_cell_length_c	9.198806
_cell_angle_alpha	90.003648
_cell_angle_beta	89.996565
_cell_angle_gamma	92.210287
loop_
_atom_site_label
_atom_site_type_symbol
_atom_site_fract_x
_atom_site_fract_y
_atom_site_fract_z
O1	O	0.109720	-1.667337	-0.120885
O2	O	0.120222	-1.305156	-0.120890
O3	O	0.001144	-1.484094	-0.120876
O4	O	0.228799	-1.488399	-0.120899
O5	O	0.001144	-1.484079	0.120909
O6	O	0.120222	-1.305141	0.120895
O7	O	0.109720	-1.667322	0.120900
Cu8	Cu	0.114971	-1.486230	0.142975
Cu9	Cu	0.114971	-1.486248	-0.142964
O10	O	0.228798	-1.488384	0.120886
C11	C	-0.028006	-1.480171	0.000016
C12	C	-0.114864	-1.468489	0.000016
C13	C	0.119458	-1.258578	0.000002
C14	C	0.117171	-1.119813	0.000000
C15	C	0.110484	-1.713900	0.000005
C16	C	0.112771	-1.852666	-0.000003
C17	C	-0.164385	-1.575744	0.000019
C18	C	-0.245996	-1.564760	0.000005
C19	C	-0.278084	-1.446520	-0.000002
C20	C	-0.228557	-1.339256	-0.000009
C21	C	-0.146947	-1.350241	-0.000006
C22	C	-0.524057	-1.407711	-0.000022
C23	C	-0.605673	-1.396734	-0.000021
C24	C	-0.623107	-1.622239	-0.000010
C25	C	-0.541495	-1.633214	0.000002
C26	C	-0.491974	-1.525950	-0.000013
C27	C	-0.361504	-1.435289	-0.000011
C28	C	-0.408556	-1.537182	-0.000014
C29	C	0.257948	-1.492307	-0.000009
C30	C	0.344806	-1.503989	-0.000018
N31	N	0.114970	-1.486226	0.344089
C32	C	0.183801	-1.050993	-0.000007
C33	C	0.181440	-0.907571	-0.000009
N34	N	0.114966	-1.486261	-0.344078
C35	C	0.064752	-1.561337	0.416291
C36	C	0.064749	-1.561356	0.583704
H37	H	-0.138265	-1.672028	0.000033
Br38	Br	0.186638	-1.379082	0.552449
Br39	Br	-0.497952	-1.793689	-0.000035
H40	H	-0.286314	-1.652100	0.000011
Br41	Br	-0.690316	-1.767803	0.000010
Br42	Br	-0.649221	-1.236254	-0.000015
H43	H	0.238480	-0.848415	-0.000021
Br44	Br	0.017690	-0.951247	-0.000009
H45	H	-0.483747	-1.320369	-0.000034
Br46	Br	-0.007106	-1.668162	0.312763
H47	H	-0.254689	-1.242982	-0.000024
Br48	Br	-0.079738	-1.204674	-0.000021
H49	H	0.058378	-1.072552	-0.000031
Br50	Br	-0.006908	-1.668553	0.687185
H51	H	-0.382426	-1.633453	-0.000040
Br52	Br	-0.405059	-1.274824	-0.000034
H53	H	0.242594	-1.098254	-0.000005
H54	H	0.157959	-1.421931	0.406212
