data_functionalizedCrystal
_audit_creation_method	'MofGen! by Chris Wilmer'
_symmetry_space_group_name_H-M	'P1'
_symmetry_Int_Tables_number	1
_symmetry_cell_setting	triclinic
loop_
_symmetry_equiv_pos_as_xyz
  x,y,z
_cell_length_a	16.625539
_cell_length_b	19.805407
_cell_length_c	19.805405
_cell_angle_alpha	89.973590
_cell_angle_beta	89.970033
_cell_angle_gamma	90.018020
loop_
_atom_site_label
_atom_site_type_symbol
_atom_site_fract_x
_atom_site_fract_y
_atom_site_fract_z
Zn1	Zn	-0.455910	-1.034725	-0.269474
Zn2	Zn	-0.205910	-0.784725	-0.019474
Zn3	Zn	0.044090	-0.534725	0.230526
Zn4	Zn	0.294090	-0.284725	0.480526
Zn5	Zn	-0.321069	-1.034643	-0.382664
Zn6	Zn	-0.071069	-0.784643	-0.132664
Zn7	Zn	0.178931	-0.534643	0.117336
Zn8	Zn	0.428931	-0.284643	0.367336
Zn9	Zn	-0.321089	-0.921543	-0.269494
Zn10	Zn	-0.071089	-0.671543	-0.019494
Zn11	Zn	0.178911	-0.421543	0.230506
Zn12	Zn	0.428911	-0.171543	0.480506
Zn13	Zn	-0.455857	-0.921503	-0.382627
Zn14	Zn	-0.205857	-0.671503	-0.132627
Zn15	Zn	0.044143	-0.421503	0.117373
Zn16	Zn	0.294143	-0.171503	0.367373
O17	O	-0.388481	-0.978104	-0.326065
O18	O	-0.138481	-0.728104	-0.076065
O19	O	0.111519	-0.478104	0.173935
O20	O	0.361519	-0.228104	0.423935
O21	O	-0.438038	-1.129431	-0.284497
O22	O	-0.188038	-0.879431	-0.034497
O23	O	0.061962	-0.629431	0.215503
O24	O	0.311962	-0.379431	0.465503
O25	O	-0.208239	-1.019622	-0.367676
O26	O	0.041761	-0.769622	-0.117676
O27	O	0.291761	-0.519622	0.132324
O28	O	0.541761	-0.269622	0.382324
O29	O	-0.339003	-0.936608	-0.174775
O30	O	-0.089003	-0.686608	0.075225
O31	O	0.160997	-0.436608	0.325225
O32	O	0.410997	-0.186608	0.575225
O33	O	-0.338970	-1.129371	-0.367656
O34	O	-0.088970	-0.879371	-0.117656
O35	O	0.161030	-0.629371	0.132344
O36	O	0.411030	-0.379371	0.382344
O37	O	-0.438056	-1.019762	-0.174760
O38	O	-0.188056	-0.769762	0.075240
O39	O	0.061944	-0.519762	0.325240
O40	O	0.311944	-0.269762	0.575240
O41	O	-0.208254	-0.936528	-0.284531
O42	O	0.041746	-0.686528	-0.034531
O43	O	0.291746	-0.436528	0.215469
O44	O	0.541746	-0.186528	0.465469
O45	O	-0.338952	-0.826821	-0.284494
O46	O	-0.088952	-0.576821	-0.034494
O47	O	0.161048	-0.326821	0.215506
O48	O	0.411048	-0.076821	0.465506
O49	O	-0.568696	-0.936540	-0.367593
O50	O	-0.318696	-0.686540	-0.117593
O51	O	-0.068696	-0.436540	0.132407
O52	O	0.181304	-0.186540	0.382407
O53	O	-0.437965	-0.826792	-0.367612
O54	O	-0.187965	-0.576792	-0.117612
O55	O	0.062035	-0.326792	0.132388
O56	O	0.312035	-0.076792	0.382388
O57	O	-0.568736	-1.019724	-0.284460
O58	O	-0.318736	-0.769724	-0.034460
O59	O	-0.068736	-0.519724	0.215540
O60	O	0.181264	-0.269724	0.465540
O61	O	-0.338919	-1.019584	-0.477376
O62	O	-0.088919	-0.769584	-0.227376
O63	O	0.161081	-0.519584	0.022624
O64	O	0.411081	-0.269584	0.272624
O65	O	-0.437946	-0.936461	-0.477348
O66	O	-0.187946	-0.686461	-0.227348
O67	O	0.062054	-0.436461	0.022652
O68	O	0.312054	-0.186461	0.272652
C69	C	-0.388442	-0.978028	-0.501921
C70	C	-0.138442	-0.728028	-0.251921
C71	C	0.111558	-0.478028	-0.001921
C72	C	0.361558	-0.228028	0.248079
C73	C	-0.388453	-0.978057	-0.577153
C74	C	-0.138453	-0.728057	-0.327153
C75	C	0.111547	-0.478057	-0.077153
C76	C	0.361547	-0.228057	0.172847
C77	C	-0.388455	-0.802248	-0.326052
C78	C	-0.138455	-0.552248	-0.076052
C79	C	0.111545	-0.302248	0.173948
C80	C	0.361545	-0.052248	0.423948
C81	C	-0.388463	-0.727016	-0.326063
C82	C	-0.138463	-0.477016	-0.076063
C83	C	0.111537	-0.227016	0.173937
C84	C	0.361537	0.022984	0.423937
C85	C	-0.598790	-0.978137	-0.326020
C86	C	-0.348790	-0.728137	-0.076020
C87	C	-0.098790	-0.478137	0.173980
C88	C	0.151210	-0.228137	0.423980
C89	C	-0.688411	-0.978151	-0.326001
C90	C	-0.438411	-0.728151	-0.076001
C91	C	-0.188411	-0.478151	0.173999
C92	C	0.061589	-0.228151	0.423999
C93	C	-0.761194	-0.978162	-0.325986
C94	C	-0.511194	-0.728162	-0.075986
C95	C	-0.261194	-0.478162	0.174014
C96	C	-0.011194	-0.228162	0.424014
C97	C	-0.852502	-0.978178	-0.325961
C98	C	-0.602502	-0.728178	-0.075961
C99	C	-0.352502	-0.478178	0.174039
C100	C	-0.102502	-0.228178	0.424039
C101	C	-0.925279	-0.978194	-0.325937
C102	C	-0.675279	-0.728194	-0.075937
C103	C	-0.425279	-0.478194	0.174063
C104	C	-0.175279	-0.228194	0.424063
C105	C	-1.016593	-0.978211	-0.325913
C106	C	-0.766593	-0.728211	-0.075913
C107	C	-0.516593	-0.478211	0.174087
C108	C	-0.266593	-0.228211	0.424087
C109	C	-0.178990	-0.978110	-0.326061
C110	C	0.071010	-0.728110	-0.076061
C111	C	0.321010	-0.478110	0.173939
C112	C	0.571010	-0.228110	0.423939
C113	C	-0.089370	-0.978227	-0.325889
C114	C	0.160630	-0.728227	-0.075889
C115	C	0.410630	-0.478227	0.174111
C116	C	0.660630	-0.228227	0.424111
C117	C	-0.388508	-1.154646	-0.326078
C118	C	-0.138508	-0.904646	-0.076078
C119	C	0.111492	-0.654646	0.173922
C120	C	0.361492	-0.404646	0.423922
C121	C	-0.388519	-1.229878	-0.326084
C122	C	-0.138519	-0.979878	-0.076084
C123	C	0.111481	-0.729878	0.173916
C124	C	0.361481	-0.479878	0.423916
C125	C	-0.439936	-0.691674	-0.369407
C126	C	-0.189936	-0.441674	-0.119407
C127	C	0.060064	-0.191674	0.130593
C128	C	0.310064	0.058326	0.380593
C129	C	-0.439947	-0.620986	-0.369409
C130	C	-0.189947	-0.370986	-0.119409
C131	C	0.060053	-0.120986	0.130591
C132	C	0.310053	0.129014	0.380591
C133	C	-0.388481	-0.585640	-0.326068
C134	C	-0.138481	-0.335640	-0.076068
C135	C	0.111519	-0.085640	0.173932
C136	C	0.361519	0.164360	0.423932
C137	C	-0.337006	-0.620987	-0.282719
C138	C	-0.087006	-0.370987	-0.032719
C139	C	0.162994	-0.120987	0.217281
C140	C	0.412994	0.129013	0.467281
C141	C	-0.336999	-0.691674	-0.282715
C142	C	-0.086999	-0.441674	-0.032715
C143	C	0.163001	-0.191674	0.217285
C144	C	0.413001	0.058326	0.467285
C145	C	-0.337033	-0.335913	-0.282734
C146	C	-0.087033	-0.085913	-0.032734
C147	C	0.162967	0.164087	0.217266
C148	C	0.412967	0.414087	0.467266
C149	C	-0.337042	-0.265221	-0.282742
C150	C	-0.087042	-0.015221	-0.032742
C151	C	0.162958	0.234779	0.217258
C152	C	0.412958	0.484779	0.467258
C153	C	-0.439981	-0.265225	-0.369428
C154	C	-0.189981	-0.015225	-0.119428
C155	C	0.060019	0.234775	0.130572
C156	C	0.310019	0.484775	0.380572
C157	C	-0.439974	-0.335912	-0.369424
C158	C	-0.189974	-0.085912	-0.119424
C159	C	0.060026	0.164088	0.130576
C160	C	0.310026	0.414088	0.380576
C161	C	-0.388502	-0.371253	-0.326072
C162	C	-0.138502	-0.121253	-0.076072
C163	C	0.111498	0.128747	0.173928
C164	C	0.361498	0.378747	0.423928
C165	C	-0.388492	-0.447901	-0.326070
C166	C	-0.138492	-0.197901	-0.076070
C167	C	0.111508	0.052099	0.173930
C168	C	0.361508	0.302099	0.423930
C169	C	-0.388487	-0.508993	-0.326073
C170	C	-0.138487	-0.258993	-0.076073
C171	C	0.111513	-0.008993	0.173927
C172	C	0.361513	0.241007	0.423927
C173	C	-0.336943	-1.021381	-0.612489
C174	C	-0.086943	-0.771381	-0.362489
C175	C	0.163057	-0.521381	-0.112489
C176	C	0.413057	-0.271381	0.137511
C177	C	-0.336961	-1.021410	-0.683177
C178	C	-0.086961	-0.771410	-0.433177
C179	C	0.163039	-0.521410	-0.183177
C180	C	0.413039	-0.271410	0.066823
C181	C	-0.388485	-0.978110	-0.718529
C182	C	-0.138485	-0.728110	-0.468529
C183	C	0.111515	-0.478110	-0.218529
C184	C	0.361515	-0.228110	0.031471
C185	C	-0.440000	-0.934784	-0.683188
C186	C	-0.190000	-0.684784	-0.433188
C187	C	0.060000	-0.434784	-0.183188
C188	C	0.310000	-0.184784	0.066812
C189	C	-0.439986	-0.934759	-0.612500
C190	C	-0.189986	-0.684759	-0.362500
C191	C	0.060014	-0.434759	-0.112500
C192	C	0.310014	-0.184759	0.137500
C193	C	-0.440060	-0.934884	-0.968261
C194	C	-0.190060	-0.684884	-0.718261
C195	C	0.059940	-0.434884	-0.468261
C196	C	0.309940	-0.184884	-0.218261
C197	C	-0.440069	-0.934911	-1.038953
C198	C	-0.190069	-0.684911	-0.788953
C199	C	0.059931	-0.434911	-0.538953
C200	C	0.309931	-0.184911	-0.288953
C201	C	-0.337035	-1.021535	-1.038938
C202	C	-0.087035	-0.771535	-0.788938
C203	C	0.162965	-0.521535	-0.538938
C204	C	0.412965	-0.271535	-0.288938
C205	C	-0.337020	-1.021510	-0.968251
C206	C	-0.087020	-0.771510	-0.718251
C207	C	0.162980	-0.521510	-0.468251
C208	C	0.412980	-0.271510	-0.218251
C209	C	-0.388538	-0.978186	-0.932916
C210	C	-0.138538	-0.728186	-0.682916
C211	C	0.111462	-0.478186	-0.432916
C212	C	0.361462	-0.228186	-0.182916
C213	C	-0.388520	-0.978157	-0.856267
C214	C	-0.138520	-0.728157	-0.606267
C215	C	0.111480	-0.478157	-0.356267
C216	C	0.361480	-0.228157	-0.106267
C217	C	-0.388500	-0.978136	-0.795176
C218	C	-0.138500	-0.728136	-0.545176
C219	C	0.111500	-0.478136	-0.295176
C220	C	0.361500	-0.228136	-0.045176
C221	C	-0.388538	-0.978199	-0.149522
C222	C	-0.138538	-0.728199	0.100478
C223	C	0.111462	-0.478199	0.350478
C224	C	0.361462	-0.228199	0.600478
C225	C	-0.388562	-0.978239	-0.074290
C226	C	-0.138562	-0.728239	0.175710
C227	C	0.111438	-0.478239	0.425710
C228	C	0.361438	-0.228239	0.675710
H229	H	-0.481843	-0.720447	-0.404703
H230	H	-0.231843	-0.470447	-0.154703
H231	H	0.018157	-0.220447	0.095297
H232	H	0.268157	0.029553	0.345297
H233	H	-0.295115	-0.364679	-0.247439
H234	H	-0.045115	-0.114679	0.002561
H235	H	0.204885	0.135321	0.252561
H236	H	0.454885	0.385321	0.502561
H237	H	-0.482032	-0.899652	-1.067734
H238	H	-0.232032	-0.649652	-0.817734
H239	H	0.017968	-0.399652	-0.567734
H240	H	0.267968	-0.149652	-0.317734
H241	H	-0.481895	-0.236443	-0.404724
H242	H	-0.231895	0.013557	-0.154724
H243	H	0.018105	0.263557	0.095276
H244	H	0.268105	0.513557	0.345276
H245	H	-0.295015	-1.056688	-0.711945
H246	H	-0.045015	-0.806688	-0.461945
H247	H	0.204985	-0.556688	-0.211945
H248	H	0.454985	-0.306688	0.038055
H249	H	-0.294982	-1.056638	-0.583711
H250	H	-0.044982	-0.806638	-0.333711
H251	H	0.205018	-0.556638	-0.083711
H252	H	0.455018	-0.306638	0.166289
H253	H	-0.481931	-0.899481	-0.583731
H254	H	-0.231931	-0.649481	-0.333731
H255	H	0.018069	-0.399481	-0.083731
H256	H	0.268069	-0.149481	0.166269
H257	H	-0.482006	-0.899607	-0.939497
H258	H	-0.232006	-0.649607	-0.689497
H259	H	0.017994	-0.399607	-0.439497
H260	H	0.267994	-0.149607	-0.189497
H261	H	-0.295062	-1.056766	-0.939470
H262	H	-0.045062	-0.806766	-0.689470
H263	H	0.204938	-0.556766	-0.439470
H264	H	0.454938	-0.306766	-0.189470
H265	H	-0.295132	-0.236445	-0.247445
H266	H	-0.045132	0.013555	0.002555
H267	H	0.204868	0.263555	0.252555
H268	H	0.454868	0.513555	0.502555
H269	H	-0.481880	-0.364687	-0.404718
H270	H	-0.231880	-0.114687	-0.154718
H271	H	0.018120	0.135313	0.095282
H272	H	0.268120	0.385313	0.345282
H273	H	-0.295105	-0.592203	-0.247427
H274	H	-0.045105	-0.342203	0.002573
H275	H	0.204895	-0.092203	0.252573
H276	H	0.454895	0.157797	0.502573
H277	H	-0.295089	-0.720448	-0.247415
H278	H	-0.045089	-0.470448	0.002585
H279	H	0.204911	-0.220448	0.252585
H280	H	0.454911	0.029552	0.502585
H281	H	-0.295089	-1.056813	-1.067716
H282	H	-0.045089	-0.806813	-0.817716
H283	H	0.204911	-0.556813	-0.567716
H284	H	0.454911	-0.306813	-0.317716
H285	H	-0.481861	-0.592214	-0.404705
H286	H	-0.231861	-0.342214	-0.154705
H287	H	0.018139	-0.092214	0.095295
H288	H	0.268139	0.157786	0.345295
H289	H	-0.481956	-0.899532	-0.711976
H290	H	-0.231956	-0.649532	-0.461976
H291	H	0.018044	-0.399532	-0.211976
H292	H	0.268044	-0.149532	0.038024
