data_functionalizedCrystal
_audit_creation_method	'MofGen! by Chris Wilmer'
_symmetry_space_group_name_H-M	'P1'
_symmetry_Int_Tables_number	1
_symmetry_cell_setting	triclinic
loop_
_symmetry_equiv_pos_as_xyz
  x,y,z
_cell_length_a	18.101395
_cell_length_b	13.033304
_cell_length_c	13.033109
_cell_angle_alpha	105.201444
_cell_angle_beta	97.154731
_cell_angle_gamma	82.800550
loop_
_atom_site_label
_atom_site_type_symbol
_atom_site_fract_x
_atom_site_fract_y
_atom_site_fract_z
Zn1	Zn	-0.214614	-1.700218	-0.807215
Zn2	Zn	-0.324522	-1.677510	-0.629581
Zn3	Zn	-0.214624	-1.500021	-0.607012
Zn4	Zn	-0.352354	-1.522500	-0.784549
O5	O	-0.276529	-1.600062	-0.707089
O6	O	-0.217541	-1.845861	-0.802583
O7	O	-0.298300	-1.635055	-0.477947
O8	O	-0.110985	-1.526673	-0.633611
O9	O	-0.298291	-1.829178	-0.672076
O10	O	-0.110977	-1.673757	-0.780699
O11	O	-0.217559	-1.504655	-0.461366
O12	O	-0.244546	-1.354347	-0.611631
O13	O	-0.345726	-1.564985	-0.936196
O14	O	-0.345736	-1.370862	-0.742067
O15	O	-0.244529	-1.695553	-0.952849
O16	O	-0.431852	-1.656852	-0.650097
O17	O	-0.452300	-1.542966	-0.763951
C18	C	-0.298163	-1.324060	-0.671941
C19	C	-0.307438	-1.205989	-0.656930
C20	C	-0.271698	-1.161615	-0.714909
C21	C	-0.281283	-1.039582	-0.699396
C22	C	-0.468948	-1.599916	-0.707040
C23	C	-0.551261	-1.599955	-0.707067
C24	C	-0.850338	-1.600196	-0.707154
C25	C	-0.831910	-1.528758	-0.779015
C26	C	-0.746302	-1.528336	-0.778709
C27	C	-0.701962	-1.600076	-0.707111
C28	C	-0.726698	-1.555551	-0.591312
C29	C	-0.812424	-1.555085	-0.591737
C30	C	-0.812119	-1.716213	-0.750129
C31	C	-0.726712	-1.715864	-0.752499
C32	C	-0.618106	-1.600010	-0.707081
C33	C	-0.934194	-1.600258	-0.707176
C34	C	-0.083357	-1.600241	-0.707166
C35	C	-0.001039	-1.600317	-0.707198
C36	C	-0.298231	-1.635309	-0.984141
C37	C	-0.307479	-1.650330	-1.102203
C38	C	-0.254806	-0.877141	-0.742368
C39	C	-0.245538	-0.995213	-0.757384
C40	C	-0.271653	-1.592507	-1.146635
C41	C	-0.281211	-1.608030	-1.268659
C42	C	-0.254852	-1.565013	-0.431124
C43	C	-0.245379	-1.550199	-0.313088
H44	H	-0.730271	-1.557840	-0.864126
H45	H	-0.857526	-1.558108	-0.864678
H46	H	-0.345228	-1.711325	-1.154501
H47	H	-0.318979	-0.987230	-0.638266
H48	H	-0.318962	-1.669029	-1.320954
H49	H	-0.837002	-1.469855	-0.556993
H50	H	-0.709747	-1.471135	-0.556244
C51	C	-0.685681	-1.792293	-0.689476
C52	C	-0.709447	-1.894308	-0.732673
C53	C	-0.671661	-1.964740	-0.674641
H54	H	-0.696242	-1.767954	-0.616990
H55	H	-0.633362	-1.795221	-0.693312
H56	H	-0.761755	-1.891377	-0.728826
H57	H	-0.698886	-1.918679	-0.805152
H58	H	-0.619342	-1.967668	-0.678477
H59	H	-0.682225	-1.940391	-0.602157
H60	H	-0.687776	-2.033967	-0.703947
C61	C	-0.221306	-1.231339	-0.796281
C62	C	-0.148303	-1.201568	-0.769935
C63	C	-0.101860	-1.265780	-0.844865
H64	H	-0.239128	-1.222345	-0.865377
H65	H	-0.221492	-1.304092	-0.795871
H66	H	-0.148120	-1.128833	-0.770356
H67	H	-0.130459	-1.210567	-0.700852
H68	H	-0.102046	-1.338533	-0.844455
H69	H	-0.119688	-1.256781	-0.913957
H70	H	-0.052321	-1.245596	-0.826994
C71	C	-0.827294	-1.620408	-0.516787
C72	C	-0.759123	-1.660122	-0.471323
C73	C	-0.772789	-1.720281	-0.402258
H74	H	-0.854682	-1.678284	-0.555673
H75	H	-0.855410	-1.576388	-0.461873
H76	H	-0.731018	-1.704140	-0.526228
H77	H	-0.731725	-1.602270	-0.432418
H78	H	-0.800905	-1.676261	-0.347345
H79	H	-0.800179	-1.778151	-0.441153
H80	H	-0.726538	-1.747226	-0.371395
H81	H	-0.233908	-1.531506	-1.094337
H82	H	-0.207836	-1.047563	-0.818507
H83	H	-0.858518	-1.443587	-0.749725
C84	C	-0.357814	-1.136157	-0.575595
C85	C	-0.415026	-1.080110	-0.627583
C86	C	-0.461453	-1.015785	-0.552693
H87	H	-0.329282	-1.086917	-0.523889
H88	H	-0.379042	-1.179790	-0.541246
H89	H	-0.393798	-1.036480	-0.661914
H90	H	-0.443575	-1.129323	-0.679283
H91	H	-0.482681	-1.059418	-0.518344
H92	H	-0.432915	-0.966551	-0.500991
H93	H	-0.500280	-0.977756	-0.587957
C94	C	-0.725929	-1.413991	-0.739160
C95	C	-0.790742	-1.345014	-0.715450
C96	C	-0.772002	-1.239670	-0.678994
H97	H	-0.703297	-1.395584	-0.793000
H98	H	-0.691891	-1.407725	-0.676656
H99	H	-0.824768	-1.351275	-0.777947
H100	H	-0.813383	-1.363387	-0.661603
H101	H	-0.737964	-1.233404	-0.616490
H102	H	-0.749370	-1.221273	-0.732839
H103	H	-0.815973	-1.192857	-0.662893
H104	H	-0.696850	-1.605319	-0.535685
H105	H	-0.837801	-1.754036	-0.833882
C106	C	-0.705971	-1.760229	-0.866319
C107	C	-0.770813	-1.783865	-0.935129
C108	C	-0.751743	-1.824698	-1.039996
H109	H	-0.672848	-1.823442	-0.870377
H110	H	-0.682182	-1.708666	-0.886728
H111	H	-0.794590	-1.835425	-0.914727
H112	H	-0.803944	-1.720669	-0.931104
H113	H	-0.727954	-1.773135	-1.060404
H114	H	-0.718619	-1.887908	-1.044042
H115	H	-0.795735	-1.840732	-1.086697
H116	H	-0.822875	-1.769611	-0.697963
H117	H	-0.207630	-1.489195	-1.260794
