data_functionalizedCrystal
_audit_creation_method	'MofGen! by Chris Wilmer'
_symmetry_space_group_name_H-M	'P1'
_symmetry_Int_Tables_number	1
_symmetry_cell_setting	triclinic
loop_
_symmetry_equiv_pos_as_xyz
  x,y,z
_cell_length_a	10.686220
_cell_length_b	15.297510
_cell_length_c	10.685314
_cell_angle_alpha	103.161478
_cell_angle_beta	81.642441
_cell_angle_gamma	76.758137
loop_
_atom_site_label
_atom_site_type_symbol
_atom_site_fract_x
_atom_site_fract_y
_atom_site_fract_z
Zn1	Zn	1.808008	0.295229	0.646365
Zn2	Zn	1.786758	0.437702	0.471463
Zn3	Zn	1.611998	0.295305	0.450420
Zn4	Zn	1.551591	0.463429	0.706642
O5	O	1.689589	0.372916	0.568723
O6	O	1.985638	0.303329	0.606744
O7	O	1.779963	0.408078	0.288245
O8	O	1.672172	0.165309	0.442380
O9	O	1.970026	0.408003	0.478245
O10	O	1.816180	0.165253	0.586339
O11	O	1.651568	0.303460	0.272785
O12	O	1.423536	0.328406	0.500828
O13	O	1.569218	0.451852	0.879073
O14	O	1.379155	0.451926	0.689073
O15	O	1.757606	0.328276	0.834787
O16	O	1.721390	0.571100	0.536693
O17	O	1.548613	0.590002	0.709478
C18	C	1.354557	0.392967	0.599209
C19	C	1.211220	0.401569	0.612288
C20	C	1.626173	0.614255	0.631935
C21	C	1.599158	0.717496	0.659010
C22	C	1.883093	0.969022	0.375686
C23	C	1.908475	0.872021	0.350242
C24	C	1.831148	0.833385	0.427432
C25	C	1.728434	0.891759	0.530070
C26	C	1.703043	0.988769	0.555511
C27	C	1.651098	0.853132	0.607256
C28	C	1.548384	0.911506	0.709895
C29	C	1.522998	1.008507	0.735331
C30	C	1.600324	1.047143	0.658141
C31	C	1.676490	0.756122	0.581815
C32	C	1.496439	0.775870	0.761640
C33	C	1.471057	0.872870	0.787085
C34	C	2.025929	0.352788	0.538118
C35	C	2.169257	0.344210	0.525076
C36	C	1.659044	0.392925	0.905021
C37	C	1.646028	0.401452	1.048331
C38	C	1.753271	1.130637	0.505304
C39	C	1.780375	1.027395	0.478317
C40	C	1.720106	0.352914	0.233708
C41	C	1.733441	0.344111	0.090307
H42	H	1.760120	0.708602	0.498246
C43	C	1.846567	0.269850	0.992239
C44	C	1.924581	0.218649	1.059681
C45	C	2.028791	0.150226	0.969384
H46	H	1.898267	0.298817	0.943858
H47	H	1.812632	0.229187	0.933630
H48	H	1.958516	0.259306	1.118267
H49	H	1.872920	0.189661	1.108057
H50	H	1.994856	0.109563	0.910774
H51	H	2.080480	0.179201	0.921008
H52	H	2.081729	0.115472	1.015129
C53	C	1.267695	0.270087	0.412124
C54	C	1.338739	0.313079	0.336165
C55	C	1.429451	0.244825	0.232112
H56	H	1.222318	0.235218	0.359020
H57	H	1.326434	0.229501	0.446176
H58	H	1.280007	0.353648	0.302113
H59	H	1.384143	0.347943	0.389230
H60	H	1.488191	0.204239	0.266164
H61	H	1.384064	0.209960	0.179019
H62	H	1.477674	0.273985	0.180568
C63	C	1.112708	0.475743	0.725141
C64	C	0.985355	0.469802	0.716141
C65	C	0.894574	0.538105	0.820086
H66	H	1.119884	0.535747	0.720594
H67	H	1.130329	0.466089	0.806312
H68	H	0.967739	0.479463	0.634991
H69	H	0.978136	0.409813	0.720704
H70	H	0.912195	0.528452	0.901257
H71	H	0.901763	0.598105	0.815530
H72	H	0.808156	0.534078	0.814000
H73	H	1.561230	0.457065	1.122030
H74	H	1.387426	0.920412	0.870654
H75	H	1.946034	1.000489	0.312842
H76	H	1.851820	0.754402	0.406707
C77	C	2.020096	0.808803	0.238804
C78	C	2.082407	0.863398	0.176675
C79	C	2.185258	0.805192	0.074022
H80	H	1.985970	0.770593	0.177029
H81	H	2.081740	0.770505	0.273100
H82	H	2.020774	0.901680	0.142378
H83	H	2.116561	0.901607	0.238414
H84	H	2.246901	0.766894	0.108317
H85	H	2.151121	0.766984	0.012257
H86	H	2.227556	0.842226	0.031862
H87	H	1.579667	1.126128	0.678856
H88	H	1.439347	1.056033	0.818893
H89	H	1.433471	0.744413	0.824493
