data_functionalizedCrystal
_audit_creation_method	'MofGen! by Chris Wilmer'
_symmetry_space_group_name_H-M	'P1'
_symmetry_Int_Tables_number	1
_symmetry_cell_setting	triclinic
loop_
_symmetry_equiv_pos_as_xyz
  x,y,z
_cell_length_a	17.699083
_cell_length_b	10.723024
_cell_length_c	16.776229
_cell_angle_alpha	89.994545
_cell_angle_beta	89.998886
_cell_angle_gamma	83.875442
loop_
_atom_site_label
_atom_site_type_symbol
_atom_site_fract_x
_atom_site_fract_y
_atom_site_fract_z
O1	O	1.005074	0.157797	-0.066174
O2	O	0.784825	0.178327	-0.066200
O3	O	0.900030	-0.013601	-0.066184
O4	O	0.889869	0.349725	-0.066191
O5	O	0.900014	-0.013613	0.066393
O6	O	0.784809	0.178315	0.066376
O7	O	1.005058	0.157785	0.066402
Zn8	Zn	0.894931	0.168048	0.087439
Zn9	Zn	0.894952	0.168064	-0.087237
O10	O	0.889854	0.349713	0.066386
C11	C	0.756616	0.177585	0.000085
C12	C	0.672584	0.175378	0.000075
C13	C	0.899283	-0.060094	0.000103
C14	C	0.897070	-0.198610	0.000100
C15	C	0.624673	0.288036	0.000073
C16	C	0.545717	0.285955	0.000083
C17	C	0.514672	0.171215	0.000090
C18	C	0.562589	0.058549	0.000094
C19	C	0.641544	0.060631	0.000090
C20	C	0.244173	0.050148	0.000114
C21	C	0.165212	0.048075	0.000116
C22	C	0.148346	0.275473	0.000108
C23	C	0.227301	0.277555	0.000103
C24	C	0.275210	0.164889	0.000112
C25	C	0.360824	0.167147	0.000102
C26	C	0.429060	0.168956	0.000094
C27	C	0.961533	-0.274698	0.000107
C28	C	0.959248	-0.417863	0.000104
C29	C	1.033268	0.158527	0.000115
C30	C	1.117300	0.160734	0.000120
C31	C	0.890601	0.396206	0.000097
C32	C	0.892813	0.534723	0.000095
N33	N	0.894923	0.168037	0.206650
N34	N	0.894966	0.168065	-0.206448
C35	C	0.945952	0.083086	0.248374
C36	C	0.945956	0.083085	0.331826
C37	C	0.894934	0.168042	0.373553
C38	C	0.843900	0.252997	0.331822
C39	C	0.843893	0.252991	0.248372
C40	C	0.843928	0.253021	0.668370
C41	C	0.843941	0.253023	0.751826
C42	C	0.945991	0.083115	0.751824
C43	C	0.945983	0.083109	0.668374
C44	C	0.894947	0.168059	0.626651
C45	C	0.894942	0.168058	0.536162
C46	C	0.894942	0.168050	0.464040
H47	H	0.506711	0.377693	0.000081
O48	O	0.794289	0.335380	0.627807
C49	C	0.747258	0.268662	0.579529
H50	H	0.745463	0.170260	0.604685
H51	H	0.687370	0.319712	0.578582
H52	H	0.770907	0.262065	0.516282
O53	O	0.257331	0.389122	0.000133
C54	C	0.198112	0.488114	0.000115
H55	H	0.144303	0.453297	0.025217
H56	H	0.215027	0.568232	0.038604
H57	H	0.187120	0.522862	-0.063489
H58	H	0.987502	0.013910	0.214406
O59	O	0.101696	0.384805	0.000142
C60	C	0.025351	0.358373	0.000131
H61	H	0.021815	0.260373	0.025238
H62	H	-0.010040	0.430201	0.038619
H63	H	0.002542	0.363172	-0.063471
O64	O	0.135179	-0.063500	0.000163
C65	C	0.194395	-0.162497	0.000151
H66	H	0.248206	-0.127686	0.025247
H67	H	0.177478	-0.242615	0.038649
H68	H	0.205385	-0.197241	-0.063449
H69	H	0.837625	-0.399906	0.000094
O70	O	0.995573	0.000461	0.627965
C71	C	1.040626	-0.074502	0.682688
H72	H	1.009597	-0.075843	0.742180
H73	H	1.051653	-0.174180	0.658584
H74	H	1.097058	-0.034104	0.691551
O75	O	0.290780	-0.059211	0.000006
C76	C	0.336939	-0.064824	-0.068669
H77	H	0.341451	0.034209	-0.091559
H78	H	0.396028	-0.111499	-0.053230
H79	H	0.310665	-0.121720	-0.116748
O80	O	0.995502	0.000401	0.372265
C81	C	0.982561	-0.123104	0.351899
H82	H	0.953378	-0.122898	0.291315
H83	H	1.039138	-0.184655	0.349034
H84	H	0.944705	-0.161630	0.398877
H85	H	0.680552	-0.031107	0.000091
H86	H	1.014433	-0.483241	0.000113
H87	H	1.018413	-0.233851	0.000118
O88	O	0.532397	-0.052879	-0.000040
C89	C	0.487216	-0.060868	-0.068691
H90	H	0.506223	0.004285	-0.116685
H91	H	0.493779	-0.161452	-0.091736
H92	H	0.425111	-0.031898	-0.053167
H93	H	0.802390	0.322208	0.785798
H94	H	0.840190	-0.239457	0.000089
H95	H	0.987545	0.013940	0.785804
O96	O	0.794306	0.335352	0.372443
C97	C	0.747265	0.268622	0.420713
H98	H	0.776906	0.170918	0.433219
H99	H	0.735569	0.320733	0.479393
H100	H	0.691284	0.260257	0.388562
H101	H	0.802340	0.322165	0.214401
H102	H	0.649943	0.381471	0.000067
