data_functionalizedCrystal
_audit_creation_method	'MofGen! by Chris Wilmer'
_symmetry_space_group_name_H-M	'P1'
_symmetry_Int_Tables_number	1
_symmetry_cell_setting	triclinic
loop_
_symmetry_equiv_pos_as_xyz
  x,y,z
_cell_length_a	14.971486
_cell_length_b	14.044220
_cell_length_c	14.048226
_cell_angle_alpha	90.005040
_cell_angle_beta	89.998499
_cell_angle_gamma	91.598497
loop_
_atom_site_label
_atom_site_type_symbol
_atom_site_fract_x
_atom_site_fract_y
_atom_site_fract_z
O1	O	1.196679	-0.123538	-0.079048
O2	O	0.937444	-0.138332	-0.079074
O3	O	1.063171	0.007054	-0.079057
O4	O	1.070953	-0.268924	-0.079065
O5	O	1.063153	0.007063	0.079264
O6	O	0.937427	-0.138323	0.079247
O7	O	1.196662	-0.123529	0.079273
Zn8	Zn	1.067042	-0.130925	0.104397
Zn9	Zn	1.067064	-0.130936	-0.104198
O10	O	1.070936	-0.268915	0.079256
C11	C	0.904059	-0.137666	0.000083
C12	C	0.804606	-0.135683	0.000074
C13	C	0.754109	-0.221093	0.000073
C14	C	0.660662	-0.219225	0.000087
C15	C	0.617714	-0.131945	0.000095
C16	C	0.668218	-0.046528	0.000099
C17	C	0.761663	-0.048398	0.000092
C18	C	0.473449	-0.042638	0.000112
C19	C	0.379997	-0.040767	0.000118
C20	C	0.372448	-0.213465	0.000108
C21	C	0.465893	-0.215334	0.000100
C22	C	0.516390	-0.129917	0.000102
C23	C	1.074351	-0.304238	0.000095
C24	C	1.084512	-0.409475	0.000092
C25	C	1.103089	-0.602157	0.000098
C26	C	1.031022	-0.659709	0.000092
C27	C	1.041358	-0.766924	0.000096
C28	C	1.092754	-0.494932	0.000095
C29	C	1.230047	-0.124195	0.000114
C30	C	1.329501	-0.126178	0.000117
C31	C	1.059755	0.042377	0.000102
C32	C	1.049594	0.147614	0.000098
N33	N	1.067033	-0.130916	0.246758
N34	N	1.067080	-0.130937	-0.246559
C35	C	1.122726	-0.066566	0.296583
C36	C	1.122732	-0.066566	0.396241
C37	C	1.067049	-0.130921	0.446071
C38	C	1.011350	-0.195274	0.396239
C39	C	1.011340	-0.195269	0.296583
C40	C	1.011376	-0.195281	0.603953
C41	C	1.011387	-0.195287	0.703616
C42	C	1.122768	-0.066577	0.703611
C43	C	1.122758	-0.066573	0.603955
C44	C	1.067060	-0.130927	0.554130
H45	H	0.345032	0.030303	0.000126
H46	H	0.961560	-0.628459	0.000086
H47	H	1.172544	-0.633405	0.000109
C48	C	1.183215	0.003413	0.242658
C49	C	1.231970	0.059786	0.307629
C50	C	1.287692	0.124274	0.257991
H51	H	1.223245	-0.030639	0.203768
H52	H	1.147903	0.042986	0.203814
H53	H	1.267279	0.020218	0.346457
H54	H	1.191963	0.093859	0.346521
H55	H	1.252381	0.163847	0.219147
H56	H	1.327716	0.090213	0.219103
H57	H	1.320773	0.162536	0.302066
H58	H	0.500859	-0.286405	0.000084
C59	C	1.183054	0.003408	0.450381
C60	C	1.130791	0.061549	0.507588
C61	C	1.186331	0.126033	0.557463
H62	H	1.223028	-0.030649	0.489326
H63	H	1.216199	0.041784	0.406456
H64	H	1.097660	0.023179	0.551508
H65	H	1.090819	0.095628	0.468668
H66	H	1.219476	0.164408	0.513538
H67	H	1.226302	0.091967	0.596402
H68	H	1.150878	0.165495	0.596277
H69	H	0.514561	0.026919	0.000116
H70	H	1.168104	-0.014175	0.563383
H71	H	0.633242	0.024537	0.000120
C72	C	1.183087	0.003409	0.757749
C73	C	1.130820	0.061547	0.814954
C74	C	1.186356	0.126032	0.864833
H75	H	1.223061	-0.030647	0.796695
H76	H	1.216233	0.041786	0.713826
H77	H	1.097689	0.023174	0.858872
H78	H	1.090848	0.095624	0.776033
H79	H	1.219502	0.164409	0.820910
H80	H	1.226327	0.091967	0.903773
H81	H	1.150900	0.165491	0.903645
H82	H	0.802776	0.021152	0.000092
H83	H	0.966043	-0.247691	0.744183
C84	C	0.950876	-0.265261	0.550027
C85	C	0.902133	-0.321642	0.614993
C86	C	0.846406	-0.386128	0.565351
H87	H	0.910838	-0.231207	0.511156
H88	H	0.986183	-0.304828	0.511163
H89	H	0.866828	-0.282080	0.653841
H90	H	0.942147	-0.355717	0.653866
H91	H	0.881713	-0.425695	0.526487
H92	H	0.806374	-0.352066	0.526482
H93	H	0.813333	-0.424396	0.609423
C94	C	0.950990	-0.265291	0.242533
C95	C	0.972941	-0.358474	0.266737
C96	C	0.917370	-0.423002	0.216957
H97	H	0.890441	-0.255020	0.258835
H98	H	0.958966	-0.256135	0.176036
H99	H	0.964957	-0.367627	0.333219
H100	H	1.033480	-0.368776	0.250433
H101	H	0.925346	-0.413845	0.150460
H102	H	0.856824	-0.412722	0.233263
H103	H	0.932261	-0.486234	0.233365
C104	C	0.800568	-0.315954	0.000111
C105	C	0.736339	-0.390351	0.000140
C106	C	0.779101	-0.477752	0.000191
H107	H	0.836859	-0.320413	-0.055087
H108	H	0.836845	-0.320321	0.055340
H109	H	0.700078	-0.385986	-0.055084
H110	H	0.700045	-0.385923	0.055334
H111	H	0.815378	-0.482119	0.055420
H112	H	0.815390	-0.482201	-0.055008
H113	H	0.735529	-0.528241	0.000219
C114	C	0.605730	-0.311888	-0.000073
C115	C	0.551842	-0.315846	-0.081510
C116	C	0.501220	-0.401192	-0.081685
H117	H	0.644588	-0.364210	-0.000135
H118	H	0.569070	-0.314764	0.055111
H119	H	0.588498	-0.312979	-0.136680
H120	H	0.512966	-0.263543	-0.081465
H121	H	0.464561	-0.404068	-0.026501
H122	H	0.540086	-0.453508	-0.081745
H123	H	0.464646	-0.403885	-0.136934
H124	H	0.331329	-0.283015	0.000110
H125	H	0.966007	-0.247670	0.436817
