data_functionalizedCrystal
_audit_creation_method	'MofGen! by Chris Wilmer'
_symmetry_space_group_name_H-M	'P1'
_symmetry_Int_Tables_number	1
_symmetry_cell_setting	triclinic
loop_
_symmetry_equiv_pos_as_xyz
  x,y,z
_cell_length_a	11.792241
_cell_length_b	16.109301
_cell_length_c	10.268362
_cell_angle_alpha	89.994258
_cell_angle_beta	89.991152
_cell_angle_gamma	96.172552
loop_
_atom_site_label
_atom_site_type_symbol
_atom_site_fract_x
_atom_site_fract_y
_atom_site_fract_z
O1	O	1.505894	-0.113955	0.108178
O2	O	1.175450	-0.125699	0.108209
O3	O	1.349750	0.001161	0.108180
O4	O	1.331595	-0.240815	0.108208
O5	O	1.349765	0.001167	-0.108421
O6	O	1.175465	-0.125694	-0.108392
O7	O	1.505909	-0.113950	-0.108422
Cu8	Cu	1.340689	-0.119821	-0.128184
Cu9	Cu	1.340671	-0.119827	0.127971
O10	O	1.331610	-0.240810	-0.108393
C11	C	1.133173	-0.124959	-0.000087
C12	C	1.007179	-0.122751	-0.000076
C13	C	1.349022	0.032142	-0.000121
C14	C	1.346817	0.124448	-0.000123
N15	N	1.340659	-0.119826	0.308137
C16	C	0.776502	-0.118690	-0.000114
C17	C	0.904868	-0.120946	-0.000093
C18	C	1.548186	-0.114690	-0.000123
C19	C	1.674181	-0.116898	-0.000126
C20	C	1.332338	-0.271791	-0.000089
C21	C	1.334542	-0.364097	-0.000079
C22	C	1.445116	0.346258	-0.000111
C23	C	1.443036	0.432988	-0.000101
C24	C	1.236235	0.414087	-0.000086
C25	C	1.238317	0.327358	-0.000088
C26	C	1.342761	0.293446	-0.000107
C27	C	1.338599	0.466905	-0.000095
C28	C	1.336342	0.560942	-0.000083
C29	C	1.345018	0.199404	-0.000117
N30	N	1.340710	-0.119816	-0.308350
C31	C	1.340666	-0.119826	0.425979
C32	C	1.340687	-0.119823	0.573817
H33	H	1.530161	0.318650	-0.000124
Br34	Br	1.581953	0.504658	-0.000099
H35	H	1.151201	0.441709	-0.000073
Br36	Br	1.099396	0.255679	-0.000065
