data_functionalizedCrystal
_audit_creation_method	'MofGen! by Chris Wilmer'
_symmetry_space_group_name_H-M	'P1'
_symmetry_Int_Tables_number	1
_symmetry_cell_setting	triclinic
loop_
_symmetry_equiv_pos_as_xyz
  x,y,z
_cell_length_a	25.639239
_cell_length_b	16.959455
_cell_length_c	16.959447
_cell_angle_alpha	89.980956
_cell_angle_beta	90.033076
_cell_angle_gamma	89.963132
loop_
_atom_site_label
_atom_site_type_symbol
_atom_site_fract_x
_atom_site_fract_y
_atom_site_fract_z
Zn1	Zn	-0.208166	-1.208282	0.446993
Zn2	Zn	-0.295606	-1.208161	0.314808
Zn3	Zn	-0.208184	-1.076110	0.314820
Zn4	Zn	-0.295569	-1.076032	0.446936
O5	O	-0.251881	-1.142146	0.380889
O6	O	-0.219773	-1.318876	0.429478
O7	O	-0.284033	-1.190627	0.204199
O8	O	-0.135016	-1.093726	0.332382
O9	O	-0.284015	-1.318788	0.332362
O10	O	-0.135003	-1.190832	0.429489
O11	O	-0.219804	-1.093609	0.204207
O12	O	-0.219768	-0.965489	0.332326
O13	O	-0.283952	-1.093593	0.557554
O14	O	-0.283970	-0.965431	0.429391
O15	O	-0.219737	-1.190756	0.557596
O16	O	-0.368767	-1.190551	0.332306
O17	O	-0.368739	-1.093476	0.429380
C18	C	-0.251867	-0.936780	0.380854
C19	C	-0.251874	-0.848923	0.380858
C20	C	-0.218399	-0.807656	0.330400
C21	C	-0.285352	-0.807637	0.431324
C22	C	-0.285357	-0.725091	0.431333
C23	C	-0.251882	-0.683824	0.380875
C24	C	-0.218402	-0.725102	0.330408
C25	C	-0.318833	-0.683807	0.481804
C26	C	-0.318839	-0.601256	0.481815
C27	C	-0.285366	-0.559987	0.431352
C28	C	-0.251885	-0.601270	0.380883
C29	C	-0.218410	-0.560003	0.330425
C30	C	-0.184931	-0.601285	0.279951
C31	C	-0.184929	-0.683833	0.279946
C32	C	-0.285368	-0.477438	0.431358
C33	C	-0.218413	-0.477449	0.330433
C34	C	-0.387724	-1.142013	0.380853
C35	C	-0.445838	-1.142029	0.380864
C36	C	-0.806203	-1.192825	0.330429
C37	C	-0.860807	-1.192856	0.330440
O38	O	-0.889045	-1.235906	0.287518
N39	N	-0.888120	-1.142285	0.380942
C40	C	-0.860827	-1.091686	0.431442
O41	O	-0.889073	-1.048675	0.474399
C42	C	-0.806223	-1.091660	0.431435
C43	C	-0.778913	-1.142228	0.380924
C44	C	-0.778892	-1.243390	0.279923
C45	C	-0.724292	-1.243358	0.279912
C46	C	-0.697002	-1.192761	0.330406
C47	C	-0.724312	-1.142196	0.380912
C48	C	-0.778931	-1.041066	0.481938
C49	C	-0.724324	-1.041045	0.481927
C50	C	-0.697013	-1.091613	0.431416
C51	C	-0.642422	-1.091568	0.431396
N52	N	-0.615108	-1.142139	0.380894
C53	C	-0.642398	-1.192735	0.330399
C54	C	-0.975497	-1.091746	0.431454
C55	C	-1.030100	-1.091767	0.431458
C56	C	-1.030076	-1.192938	0.330456
C57	C	-0.975473	-1.192912	0.330449
C58	C	-0.948184	-1.142316	0.380952
C59	C	-0.527733	-1.192664	0.330378
C60	C	-0.473128	-1.192625	0.330369
C61	C	-0.473156	-1.091458	0.431373
C62	C	-0.527757	-1.091493	0.431380
C63	C	-0.555044	-1.142103	0.380880
O64	O	-0.614149	-1.048541	0.474297
O65	O	-0.614145	-1.235746	0.287456
C66	C	-0.115508	-1.142301	0.380943
C67	C	-0.057394	-1.142367	0.380966
C68	C	-0.251838	-1.142179	0.587058
C69	C	-0.251820	-1.142193	0.674914
C70	C	-0.251894	-0.348314	0.380915
C71	C	-0.251894	-0.436171	0.380900
C72	C	-0.251887	-1.142159	0.175523
C73	C	-0.251758	-1.142298	0.087667
C74	C	-0.285198	-1.091699	1.046371
C75	C	-0.218331	-1.192876	1.046409
C76	C	-0.218342	-1.192855	0.963864
C77	C	-0.251782	-1.142256	0.922567
C78	C	-0.285212	-1.091678	0.963817
C79	C	-0.184917	-1.243438	0.922608
C80	C	-0.184927	-1.243419	0.840057
C81	C	-0.218365	-1.192816	0.798759
C82	C	-0.251795	-1.142235	0.840014
C83	C	-0.285236	-1.091636	0.798717
C84	C	-0.318664	-1.041051	0.839971
C85	C	-0.318650	-1.041074	0.922519
C86	C	-0.218379	-1.192792	0.716210
C87	C	-0.285249	-1.091615	0.716164
H88	H	-0.346084	-0.717413	0.522886
N89	N	-0.696398	-1.294998	0.228302
N90	N	-0.665979	-1.267199	0.177892
H91	H	-0.646283	-1.303670	0.141434
H92	H	-0.450928	-1.050260	0.472483
H93	H	-0.191155	-0.443855	0.289342
N94	N	-0.806754	-1.295086	0.228338
N95	N	-0.782353	-1.340227	0.183254
H96	H	-0.802027	-1.376739	0.146815
N97	N	-0.150739	-0.726014	0.228396
N98	N	-0.150741	-0.799717	0.228399
H99	H	-0.126593	-0.829511	0.191994
H100	H	-0.312623	-0.443830	0.472457
N101	N	-0.947579	-1.244558	0.278845
N102	N	-0.953716	-1.239360	0.205905
H103	H	-0.934019	-1.275837	0.169457
H104	H	-1.052305	-1.234139	0.289344
N105	N	-0.150750	-1.295114	0.964777
N106	N	-0.120905	-1.340267	0.927938
H107	H	-0.096770	-1.376763	0.957722
H108	H	-0.345867	-0.999893	0.956115
H109	H	-0.312476	-1.050404	0.682546
H110	H	-0.191143	-0.841271	0.289303
H111	H	-1.052331	-1.050582	0.472582
N112	N	-0.150730	-0.559139	0.228413
N113	N	-0.102489	-0.568405	0.233781
H114	H	-0.078334	-0.538639	0.197384
H115	H	-0.312603	-0.841242	0.472408
H116	H	-0.345893	-0.999857	0.806337
H117	H	-0.953281	-1.050538	0.472577
H118	H	-0.191164	-1.233980	0.682626
N119	N	-0.319334	-1.040013	1.088499
N120	N	-0.315852	-0.967080	1.079267
H121	H	-0.339958	-0.930571	1.109022
N122	N	-0.184183	-1.244562	1.088601
N123	N	-0.184180	-1.244578	1.162305
H124	H	-0.160062	-1.281083	1.192107
H125	H	-0.346100	-0.567651	0.522912
H126	H	-0.801158	-0.999884	0.523066
N127	N	-0.150781	-1.295095	0.797934
N128	N	-0.120928	-1.340270	0.834816
H129	H	-0.096812	-1.376766	0.805066
H130	H	-0.549994	-1.050319	0.472512
N131	N	-0.445240	-1.244283	0.278762
N132	N	-0.469616	-1.289453	0.233683
H133	H	-0.449922	-1.325936	0.197235
H134	H	-0.549944	-1.233877	0.289258
H135	H	-0.702108	-0.999845	0.523055
