data_functionalizedCrystal
_audit_creation_method	'MofGen! by Chris Wilmer'
_symmetry_space_group_name_H-M	'P1'
_symmetry_Int_Tables_number	1
_symmetry_cell_setting	triclinic
loop_
_symmetry_equiv_pos_as_xyz
  x,y,z
_cell_length_a	15.995350
_cell_length_b	15.995350
_cell_length_c	15.072220
_cell_angle_alpha	89.998899
_cell_angle_beta	89.991149
_cell_angle_gamma	96.507625
loop_
_atom_site_label
_atom_site_type_symbol
_atom_site_fract_x
_atom_site_fract_y
_atom_site_fract_z
O1	O	1.110996	-0.107921	-0.073703
O2	O	1.610996	0.392079	0.426297
O3	O	0.867221	-0.121249	-0.073721
O4	O	1.367221	0.378751	0.426279
O5	O	0.995772	0.007303	-0.073710
O6	O	1.495772	0.507303	0.426290
O7	O	0.982444	-0.236472	-0.073713
O8	O	1.482444	0.263528	0.426287
O9	O	0.995740	0.007296	0.073855
O10	O	1.495740	0.507296	0.573855
O11	O	0.867189	-0.121256	0.073844
O12	O	1.367189	0.378744	0.573844
O13	O	1.110964	-0.107928	0.073862
O14	O	1.610964	0.392072	0.573862
Zn15	Zn	0.989071	-0.114593	0.097283
Zn16	Zn	1.489071	0.385407	0.597283
Zn17	Zn	0.989113	-0.114584	-0.097141
Zn18	Zn	1.489113	0.385416	0.402859
O19	O	0.982413	-0.236480	0.073852
O20	O	1.482413	0.263520	0.573852
C21	C	0.836010	-0.120701	0.000060
C22	C	1.336010	0.379299	0.500060
C23	C	0.743060	-0.119049	0.000053
C24	C	1.243060	0.380951	0.500053
C25	C	0.405312	-0.113117	0.000071
C26	C	0.905312	0.386883	0.500071
C27	C	0.452746	-0.021565	0.000401
C28	C	0.952746	0.478435	0.500401
C29	C	0.549436	-0.023217	0.000063
C30	C	1.049436	0.476783	0.500063
C31	C	0.572873	-0.116060	0.000063
C32	C	1.072873	0.383940	0.500063
C33	C	0.531804	-0.161212	-0.084201
C34	C	1.031804	0.338788	0.415799
C35	C	0.435168	-0.158912	-0.084266
C36	C	0.935168	0.341088	0.415734
C37	C	0.434793	-0.160812	0.083543
C38	C	0.934793	0.339188	0.583543
C39	C	0.531738	-0.160790	0.084651
C40	C	1.031738	0.339210	0.584651
C41	C	0.667570	-0.117727	0.000055
C42	C	1.167570	0.382273	0.500055
C43	C	0.310614	-0.111452	0.000073
C44	C	0.810614	0.388548	0.500073
C45	C	0.995205	0.038494	0.000070
C46	C	1.495205	0.538494	0.500070
C47	C	0.993553	0.131444	0.000065
C48	C	1.493553	0.631444	0.500065
C49	C	1.142175	-0.108476	0.000080
C50	C	1.642175	0.391524	0.500080
C51	C	1.235125	-0.110127	0.000081
C52	C	1.735125	0.389873	0.500081
C53	C	0.982980	-0.267671	0.000069
C54	C	1.482980	0.232329	0.500069
C55	C	0.984631	-0.360621	0.000069
C56	C	1.484631	0.139379	0.500069
N57	N	0.989049	-0.114599	0.229971
N58	N	1.489049	0.385401	0.729971
C59	C	0.987621	0.469192	0.000068
C60	C	1.487621	0.969192	0.500068
C61	C	0.896069	0.421758	-0.000270
C62	C	1.396069	0.921758	0.499730
C63	C	0.897721	0.325068	0.000063
C64	C	1.397721	0.825068	0.500063
C65	C	0.990564	0.301631	0.000066
C66	C	1.490564	0.801631	0.500066
C67	C	1.035702	0.342705	0.084335
C68	C	1.535702	0.842705	0.584335
C69	C	1.033402	0.439341	0.084405
C70	C	1.533402	0.939341	0.584405
C71	C	1.035330	0.439707	-0.083404
C72	C	1.535330	0.939707	0.416596
C73	C	1.035308	0.342761	-0.084518
C74	C	1.535308	0.842761	0.415482
C75	C	0.992231	0.206934	0.000068
C76	C	1.492231	0.706934	0.500068
C77	C	0.985956	0.563890	0.000072
C78	C	1.485956	1.063890	0.500072
N79	N	0.989142	-0.114571	-0.229830
N80	N	1.489142	0.385429	0.270170
C81	C	0.989112	-0.114580	0.589173
C82	C	1.489112	0.385420	1.089173
C83	C	0.920095	-0.183135	0.551560
C84	C	1.420095	0.316865	1.051560
C85	C	0.920254	-0.183385	0.448735
C86	C	1.420254	0.316615	0.948735
C87	C	0.989080	-0.114590	0.410969
C88	C	1.489080	0.385410	0.910969
C89	C	1.076445	-0.133671	0.448266
C90	C	1.576445	0.366329	0.948266
C91	C	1.076058	-0.134159	0.551124
C92	C	1.576058	0.365841	1.051124
C93	C	0.971542	-0.026741	0.551272
C94	C	1.471542	0.473259	1.051272
C95	C	0.969537	-0.027327	0.448409
C96	C	1.469537	0.472673	0.948409
C97	C	0.989067	-0.114593	0.310255
C98	C	1.489067	0.385407	0.810255
C99	C	0.989130	-0.114579	0.689886
C100	C	1.489130	0.385421	1.189886
H101	H	0.416873	-0.125979	-0.147255
H102	H	0.916873	0.374021	0.352745
H103	H	1.100617	0.471588	0.088231
H104	H	1.600617	0.971588	0.588231
H105	H	1.129029	-0.085068	0.423801
H106	H	1.629029	0.414932	0.923801
H107	H	0.855314	-0.172016	0.423519
H108	H	1.355314	0.327984	0.923519
C109	C	0.587092	0.025060	-0.081685
C110	C	1.087092	0.525060	0.418315
N111	N	0.615453	0.061423	-0.143261
N112	N	1.115453	0.561423	0.356739
C113	C	0.391601	-0.249715	-0.089451
C114	C	0.891601	0.250285	0.410549
N115	N	0.358790	-0.318106	-0.093366
N116	N	0.858790	0.181894	0.406634
C117	C	1.126518	0.482619	-0.084170
C118	C	1.626518	0.982619	0.415830
N119	N	1.195198	0.514946	-0.084742
N120	N	1.695198	1.014946	0.415258
C121	C	0.990766	0.305906	-0.168739
C122	C	1.490766	0.805906	0.331261
N123	N	0.957209	0.278149	-0.232174
N124	N	1.457209	0.778149	0.267826
H125	H	1.103014	0.327400	-0.089603
H126	H	1.603014	0.827400	0.410397
C127	C	0.552508	-0.252251	0.091538
C128	C	1.052508	0.247749	0.591538
N129	N	0.568156	-0.321141	0.096724
N130	N	1.068156	0.178859	0.596724
C131	C	0.846645	0.446806	-0.081903
C132	C	1.346645	0.946806	0.418097
N133	N	0.809416	0.465681	-0.143390
N134	N	1.309416	0.965681	0.356610
C135	C	0.887328	-0.001970	0.586345
C136	C	1.387328	0.498030	1.086345
N137	N	0.823893	0.016677	0.612762
N138	N	1.323893	0.516677	1.112762
C139	C	1.147540	-0.069290	0.584737
C140	C	1.647540	0.430710	1.084737
N141	N	1.201389	-0.020443	0.610051
N142	N	1.701389	0.479557	1.110051
C143	C	0.994907	0.467455	-0.169691
C144	C	1.494907	0.967455	0.330309
N145	N	0.964452	0.488353	-0.234677
N146	N	1.464452	0.988353	0.265323
H147	H	0.560191	-0.129845	-0.146912
H148	H	1.060191	0.370155	0.353088
H149	H	1.103910	0.328579	0.087471
H150	H	1.603910	0.828579	0.587471
H151	H	0.434211	0.015027	0.060830
H152	H	0.934211	0.515027	0.560830
H153	H	1.000460	0.457639	0.147395
H154	H	1.500460	0.957639	0.647395
C155	C	0.391881	-0.252001	0.084316
C156	C	0.891881	0.247999	0.584316
N157	N	0.359556	-0.320681	0.084892
N158	N	0.859556	0.179319	0.584892
C159	C	0.832081	-0.168045	0.585026
C160	C	1.332081	0.331955	1.085026
N161	N	0.765787	-0.156682	0.610244
N162	N	1.265787	0.343318	1.110244
C163	C	0.993309	0.304366	0.169052
C164	C	1.493309	0.804366	0.669052
N165	N	0.961373	0.275491	0.232858
N166	N	1.461373	0.775491	0.732858
C167	C	1.039531	0.042181	0.584137
C168	C	1.539531	0.542181	1.084137
N169	N	1.090742	0.094087	0.608897
N170	N	1.590742	0.594087	1.108897
H171	H	0.931160	-0.247952	0.577399
H172	H	1.431160	0.252048	1.077399
H173	H	0.577852	0.012275	0.060467
H174	H	1.077852	0.512275	0.560467
H175	H	0.545929	-0.229421	-0.087335
H176	H	1.045929	0.270579	0.412665
H177	H	0.859626	0.441349	0.059819
H178	H	1.359626	0.941349	0.559819
C179	C	0.426282	0.027658	-0.080774
C180	C	0.926282	0.527658	0.419226
N181	N	0.406345	0.064732	-0.141915
N182	N	0.906345	0.564732	0.358085
H183	H	0.862238	0.296649	-0.060344
H184	H	1.362238	0.796649	0.439656
C185	C	0.849431	0.287416	0.081805
C186	C	1.349431	0.787416	0.581805
N187	N	0.813057	0.259058	0.143378
N188	N	1.313057	0.759058	0.643378
H189	H	0.931473	-0.248570	0.424121
H190	H	1.431473	0.251430	0.924121
H191	H	1.091540	-0.198219	0.575106
H192	H	1.591540	0.301781	1.075106
C193	C	1.033049	0.044821	0.413702
C194	C	1.533049	0.544821	0.913702
N195	N	1.080899	0.099161	0.387569
N196	N	1.580899	0.599161	0.887569
H197	H	0.414244	-0.130885	0.147414
H198	H	0.914244	0.369115	0.647414
H199	H	1.092297	-0.197002	0.422498
H200	H	1.592297	0.302998	0.922498
C201	C	0.568592	-0.116236	0.168868
C202	C	1.068592	0.383764	0.668868
N203	N	0.596348	-0.082671	0.232299
N204	N	1.096348	0.417329	0.732299
H205	H	0.905271	-0.012846	0.424032
H206	H	1.405271	0.487154	0.924032
