data_functionalizedCrystal
_audit_creation_method	'MofGen! by Chris Wilmer'
_symmetry_space_group_name_H-M	'P1'
_symmetry_Int_Tables_number	1
_symmetry_cell_setting	triclinic
loop_
_symmetry_equiv_pos_as_xyz
  x,y,z
_cell_length_a	17.699083
_cell_length_b	11.792241
_cell_length_c	16.776229
_cell_angle_alpha	89.993219
_cell_angle_beta	89.998886
_cell_angle_gamma	83.738215
loop_
_atom_site_label
_atom_site_type_symbol
_atom_site_fract_x
_atom_site_fract_y
_atom_site_fract_z
O1	O	1.004843	0.143527	-0.066177
O2	O	0.784565	0.162200	-0.066203
O3	O	0.900050	-0.012371	-0.066184
O4	O	0.889358	0.318098	-0.066196
O5	O	0.900034	-0.012382	0.066393
O6	O	0.784549	0.162189	0.066374
O7	O	1.004828	0.143516	0.066400
Zn8	Zn	0.894686	0.152851	0.087436
Zn9	Zn	0.894706	0.152865	-0.087239
O10	O	0.889343	0.318087	0.066381
C11	C	0.756356	0.161525	0.000082
C12	C	0.672328	0.159518	0.000072
C13	C	0.624253	0.261988	0.000069
C14	C	0.545299	0.260095	0.000079
C15	C	0.514422	0.155731	0.000087
C16	C	0.562503	0.053254	0.000093
C17	C	0.641455	0.055148	0.000089
C18	C	0.244099	0.045613	0.000113
C19	C	0.165141	0.043727	0.000116
C20	C	0.147944	0.250560	0.000104
C21	C	0.226896	0.252454	0.000099
C22	C	0.274970	0.149977	0.000109
C23	C	0.360580	0.152031	0.000099
C24	C	0.428814	0.153676	0.000091
C25	C	0.899370	-0.054660	0.000104
C26	C	0.897360	-0.180649	0.000103
C27	C	0.893664	-0.411317	0.000090
C28	C	0.895718	-0.282956	0.000097
C29	C	1.033036	0.144190	0.000113
C30	C	1.117065	0.146198	0.000118
C31	C	0.890022	0.360375	0.000091
C32	C	0.892032	0.486365	0.000087
N33	N	0.894678	0.152841	0.206647
N34	N	0.894721	0.152866	-0.206450
C35	C	0.945830	0.075572	0.248373
C36	C	0.945834	0.075571	0.331825
C37	C	0.894689	0.152845	0.373550
C38	C	0.843531	0.230117	0.331819
C39	C	0.843524	0.230112	0.248368
C40	C	0.843559	0.230139	0.668366
C41	C	0.843571	0.230141	0.751822
C42	C	0.945869	0.075599	0.751823
C43	C	0.945862	0.075593	0.668372
C44	C	0.894702	0.152861	0.626648
C45	C	0.894697	0.152860	0.536160
C46	C	0.894697	0.152853	0.464037
H47	H	0.283232	-0.037830	0.000122
H48	H	0.987486	0.012653	0.365798
C49	C	1.001202	-0.008557	0.623048
C50	C	0.960495	-0.077921	0.575231
C51	C	1.011417	-0.155537	0.533496
H52	H	1.031619	-0.054677	0.659823
H53	H	1.032934	0.031972	0.590383
H54	H	0.928777	-0.118447	0.607893
H55	H	0.930081	-0.031833	0.538442
H56	H	1.043148	-0.115008	0.500831
H57	H	1.041831	-0.201649	0.570277
H58	H	0.983805	-0.202602	0.501042
H59	H	0.252031	0.337438	0.000089
C60	C	1.001287	-0.008435	0.797170
C61	C	0.960694	-0.077859	0.845073
C62	C	1.011718	-0.155288	0.886848
H63	H	1.032978	0.032201	0.829783
H64	H	1.031737	-0.054520	0.760394
H65	H	0.930257	-0.031779	0.881845
H66	H	0.929006	-0.118520	0.812480
H67	H	1.042168	-0.201374	0.850072
H68	H	1.043406	-0.114642	0.919456
H69	H	0.984183	-0.202408	0.919349
C70	C	0.657626	0.375416	0.000099
C71	C	0.598621	0.464748	0.000121
C72	C	0.629333	0.569257	0.000162
H73	H	0.688055	0.380623	-0.046122
H74	H	0.688048	0.380512	0.046348
H75	H	0.568212	0.459655	-0.046123
H76	H	0.568188	0.459579	0.046339
H77	H	0.659755	0.574353	0.046411
H78	H	0.659762	0.574452	-0.046060
H79	H	0.589304	0.629881	0.000184
C80	C	0.693690	-0.056072	0.000253
C81	C	0.739506	-0.061045	0.068470
C82	C	0.787626	-0.163493	0.068658
H83	H	0.724917	-0.059740	-0.045926
H84	H	0.664020	-0.118531	0.000301
H85	H	0.769173	0.001397	0.068416
H86	H	0.708300	-0.057396	0.114660
H87	H	0.757956	-0.225952	0.068705
H88	H	0.818848	-0.167152	0.022476
H89	H	0.818713	-0.166886	0.114945
C90	C	0.493017	0.371266	-0.000058
C91	C	0.447173	0.376206	-0.068253
C92	C	0.398996	0.478598	-0.068402
H93	H	0.522622	0.433782	-0.000111
H94	H	0.461817	0.374846	0.046152
H95	H	0.478370	0.372637	-0.114451
H96	H	0.417552	0.313714	-0.068215
H97	H	0.367796	0.482178	-0.022192
H98	H	0.428608	0.541106	-0.068453
H99	H	0.367881	0.481959	-0.114668
H100	H	0.987482	0.012652	0.214406
C101	C	0.787948	0.314086	0.796982
C102	C	0.743127	0.381731	0.742582
C103	C	0.691875	0.459057	0.784153
H104	H	0.815277	0.361396	0.829530
H105	H	0.756246	0.273337	0.829529
H106	H	0.774825	0.422477	0.710049
H107	H	0.715782	0.334452	0.710032
H108	H	0.660173	0.418308	0.816700
H109	H	0.719210	0.506359	0.816700
H110	H	0.661453	0.504957	0.747249
C111	C	0.788061	0.313921	0.622928
C112	C	0.798985	0.297369	0.540915
C113	C	0.747870	0.374528	0.499029
H114	H	0.796550	0.389699	0.636504
H115	H	0.737484	0.301694	0.636565
H116	H	0.849550	0.309605	0.527283
H117	H	0.790490	0.221607	0.527315
H118	H	0.697292	0.362300	0.512666
H119	H	0.756363	0.450301	0.512611
H120	H	0.755269	0.363301	0.443379
H121	H	0.801884	0.293031	0.365796
H122	H	0.801869	0.293030	0.214396
H123	H	0.108792	0.334002	0.000100
H124	H	0.140005	-0.041263	0.000123
H125	H	0.537357	-0.031721	0.000112
