data_functionalizedCrystal
_audit_creation_method	'MofGen! by Chris Wilmer'
_symmetry_space_group_name_H-M	'P1'
_symmetry_Int_Tables_number	1
_symmetry_cell_setting	triclinic
loop_
_symmetry_equiv_pos_as_xyz
  x,y,z
_cell_length_a	19.805405
_cell_length_b	18.101398
_cell_length_c	19.805399
_cell_angle_alpha	90.009370
_cell_angle_beta	90.029301
_cell_angle_gamma	90.021968
loop_
_atom_site_label
_atom_site_type_symbol
_atom_site_fract_x
_atom_site_fract_y
_atom_site_fract_z
Zn1	Zn	-0.269559	1.132142	0.382527
Zn2	Zn	-0.382748	1.132049	0.269336
Zn3	Zn	-0.269569	1.008302	0.269372
Zn4	Zn	-0.382703	1.008262	0.382503
O5	O	-0.326145	1.070189	0.325934
O6	O	-0.284588	1.235763	0.367507
O7	O	-0.367757	1.115612	0.174624
O8	O	-0.174851	1.024785	0.284408
O9	O	-0.367747	1.235694	0.284346
O10	O	-0.174844	1.115770	0.367543
O11	O	-0.284605	1.024695	0.174651
O12	O	-0.284562	0.904664	0.284384
O13	O	-0.367671	1.024717	0.477222
O14	O	-0.367681	0.904635	0.367500
O15	O	-0.284545	1.115732	0.477241
O16	O	-0.477458	1.115573	0.284322
O17	O	-0.477425	1.024627	0.367465
C18	C	-0.326118	0.877778	0.325944
C19	C	-0.326123	0.795464	0.325964
C20	C	-0.326163	0.496373	0.325936
C21	C	-0.378712	0.527705	0.377972
C22	C	-0.378547	0.613323	0.378186
C23	C	-0.326144	0.644756	0.325950
C24	C	-0.254853	0.613695	0.345446
C25	C	-0.255169	0.528050	0.345816
C26	C	-0.344276	0.527923	0.254278
C27	C	-0.345840	0.613573	0.254660
C28	C	-0.326128	0.728615	0.325956
C29	C	-0.326173	0.412514	0.325930
C30	C	-0.502001	1.070106	0.325902
C31	C	-0.577233	1.070138	0.325910
C32	C	-0.612571	1.117539	0.282663
C33	C	-0.683260	1.117571	0.282678
C34	C	-0.718608	1.070196	0.325937
C35	C	-0.683264	1.022793	0.369189
C36	C	-0.612577	1.022766	0.369177
C37	C	-0.968338	1.022902	0.369240
C38	C	-1.039030	1.022931	0.369247
C39	C	-1.039020	1.117707	0.282740
C40	C	-0.968333	1.117680	0.282728
C41	C	-0.932996	1.070279	0.325982
C42	C	-0.856347	1.070247	0.325966
C43	C	-0.795255	1.070225	0.325950
C44	C	-0.149602	1.070293	0.325982
C45	C	-0.074370	1.070337	0.326002
C46	C	-0.326102	1.070230	0.502477
C47	C	-0.326084	1.070248	0.577709
C48	C	-0.326172	1.263351	0.325925
C49	C	-0.326183	1.345665	0.325921
C50	C	-0.326138	1.070190	0.150078
C51	C	-0.325966	1.070316	0.074847
C52	C	-0.282798	1.117640	0.613064
C53	C	-0.282778	1.117648	0.683752
C54	C	-0.326049	1.070267	0.719085
C55	C	-0.369336	1.022869	0.683725
C56	C	-0.369352	1.022858	0.613038
C57	C	-0.369273	1.022911	0.968799
C58	C	-0.369256	1.022927	1.039491
C59	C	-0.282699	1.117701	1.039513
C60	C	-0.282715	1.117690	0.968826
C61	C	-0.326000	1.070290	0.933472
C62	C	-0.326020	1.070281	0.856824
C63	C	-0.326033	1.070278	0.795732
H64	H	-0.214639	0.634056	0.308727
H65	H	-0.247452	1.156293	1.068306
F66	F	-0.415341	0.972464	0.931182
F67	F	-0.415312	0.972494	1.077093
F68	F	-0.574957	1.167958	0.236615
H69	H	-0.398300	0.633882	0.239957
F70	F	-0.202259	0.500958	0.298439
F71	F	-0.294248	0.501438	0.203599
F72	F	-0.415385	0.972439	0.721330
F73	F	-0.448038	0.500762	0.362184
F74	F	-0.236664	1.168122	0.931226
H75	H	-0.431413	0.634323	0.365967
F76	F	-0.363258	0.499575	0.446967
F77	F	-0.720867	1.168024	0.236650
F78	F	-0.720887	0.972377	0.415233
F79	F	-0.574968	0.972316	0.415209
F80	F	-0.236746	1.168075	0.575467
H81	H	-0.247532	1.156241	0.712535
F82	F	-0.415421	0.972415	0.575411
F83	F	-0.234408	0.641746	0.413173
F84	F	-0.362882	0.640123	0.447583
H85	H	-0.239805	0.508087	0.398201
H86	H	-0.395372	0.506314	0.236561
F87	F	-0.930717	1.168101	0.236685
F88	F	-1.076635	1.168159	0.236707
F89	F	-0.299443	0.641536	0.201260
F90	F	-1.076649	0.972508	0.415293
F91	F	-0.930738	0.972453	0.415274
