data_functionalizedCrystal
_audit_creation_method	'MofGen! by Chris Wilmer'
_symmetry_space_group_name_H-M	'P1'
_symmetry_Int_Tables_number	1
_symmetry_cell_setting	triclinic
loop_
_symmetry_equiv_pos_as_xyz
  x,y,z
_cell_length_a	18.101398
_cell_length_b	21.295417
_cell_length_c	18.101389
_cell_angle_alpha	90.022566
_cell_angle_beta	90.024327
_cell_angle_gamma	90.025773
loop_
_atom_site_label
_atom_site_type_symbol
_atom_site_fract_x
_atom_site_fract_y
_atom_site_fract_z
Zn1	Zn	1.132124	-0.250755	0.418817
Zn2	Zn	1.632124	0.249245	0.918817
Zn3	Zn	1.132021	-0.356008	0.294967
Zn4	Zn	1.632021	0.143992	0.794967
Zn5	Zn	1.008283	-0.250748	0.294979
Zn6	Zn	1.508283	0.249252	0.794979
Zn7	Zn	1.008235	-0.355981	0.418755
Zn8	Zn	1.508235	0.144019	0.918755
O9	O	1.070166	-0.303373	0.356880
O10	O	1.570166	0.196627	0.856880
O11	O	1.235743	-0.264731	0.402409
O12	O	1.735743	0.235269	0.902409
O13	O	1.115584	-0.342054	0.191335
O14	O	1.615584	0.157946	0.691335
O15	O	1.024774	-0.162660	0.311437
O16	O	1.524774	0.337340	0.811437
O17	O	1.235668	-0.342060	0.311417
O18	O	1.735668	0.157940	0.811417
O19	O	1.115759	-0.162664	0.402421
O20	O	1.615759	0.337336	0.902421
O21	O	1.024674	-0.264720	0.191344
O22	O	1.524674	0.235280	0.691344
O23	O	0.904644	-0.264694	0.311377
O24	O	1.404644	0.235306	0.811377
O25	O	1.024692	-0.342014	0.522397
O26	O	1.524692	0.157986	1.022397
O27	O	0.904609	-0.342008	0.402315
O28	O	1.404609	0.157992	0.902315
O29	O	1.115713	-0.264705	0.522442
O30	O	1.615713	0.235295	1.022442
O31	O	1.115538	-0.444094	0.311357
O32	O	1.615538	0.055906	0.811357
O33	O	1.024592	-0.444074	0.402304
O34	O	1.524592	0.055926	0.902304
C35	C	0.877755	-0.303348	0.356841
C36	C	1.377755	0.196652	0.856841
C37	C	0.795441	-0.303352	0.356842
C38	C	1.295441	0.196648	0.856842
C39	C	1.070069	-0.466925	0.356839
C40	C	1.570069	0.033075	0.856839
C41	C	1.070095	-0.536893	0.356846
C42	C	1.570095	-0.036893	0.856846
C43	C	0.496350	-0.303391	0.356904
C44	C	0.996350	0.196609	0.856904
C45	C	0.527673	-0.254504	0.299967
C46	C	1.027673	0.245496	0.799967
C47	C	0.613291	-0.254635	0.299724
C48	C	1.113291	0.245365	0.799724
C49	C	0.644733	-0.303371	0.356873
C50	C	1.144733	0.196629	0.856873
C51	C	0.613615	-0.369679	0.335543
C52	C	1.113615	0.130321	0.835543
C53	C	0.527970	-0.369407	0.335147
C54	C	1.027970	0.130593	0.835147
C55	C	0.527965	-0.286547	0.435305
C56	C	1.027965	0.213453	0.935305
C57	C	0.613615	-0.285070	0.434877
C58	C	1.113615	0.214930	0.934877
C59	C	0.728592	-0.303364	0.356857
C60	C	1.228592	0.196636	0.856857
C61	C	0.412491	-0.303403	0.356919
C62	C	0.912491	0.196597	0.856919
C63	C	1.117492	-0.569749	0.309538
C64	C	1.617492	-0.069749	0.809538
C65	C	1.117527	-0.635491	0.309555
C66	C	1.617527	-0.135491	0.809555
C67	C	1.070151	-0.668375	0.356871
C68	C	1.570151	-0.168375	0.856871
C69	C	1.022751	-0.635511	0.404188
C70	C	1.522751	-0.135511	0.904188
C71	C	1.022722	-0.569770	0.404175
C72	C	1.522722	-0.069770	0.904175
N73	N	1.005367	-0.771637	0.362504
N74	N	1.505367	-0.271637	0.862504
N75	N	1.005396	-0.834089	0.362512
N76	N	1.505396	-0.334089	0.862512
C77	C	1.070234	-0.866450	0.356914
C78	C	1.570234	-0.366450	0.856914
N79	N	1.135044	-0.834001	0.351293
N80	N	1.635044	-0.334001	0.851293
N81	N	1.135014	-0.771543	0.351282
N82	N	1.635014	-0.271543	0.851282
C83	C	1.070177	-0.739661	0.356891
C84	C	1.570177	-0.239661	0.856891
C85	C	1.117673	-0.970592	0.309622
C86	C	1.617673	-0.470592	0.809622
C87	C	1.117709	-1.036335	0.309644
C88	C	1.617709	-0.536335	0.809644
C89	C	1.022926	-1.036354	0.404273
C90	C	1.522926	-0.536354	0.904273
C91	C	1.022897	-0.970612	0.404255
C92	C	1.522897	-0.470612	0.904255
C93	C	1.070269	-0.937734	0.356925
C94	C	1.570269	-0.437734	0.856925
C95	C	1.263328	-0.303399	0.356919
C96	C	1.763328	0.196601	0.856919
C97	C	1.345642	-0.303410	0.356935
C98	C	1.845642	0.196590	0.856935
C99	C	1.070209	-0.303357	0.550042
C100	C	1.570209	0.196643	1.050042
C101	C	1.070227	-0.303350	0.632356
C102	C	1.570227	0.196650	1.132356
C103	C	1.070283	-0.139183	0.356937
C104	C	1.570283	0.360817	0.856937
C105	C	1.070334	-0.069215	0.356961
C106	C	1.570334	0.430785	0.856961
C107	C	1.070166	-0.303344	0.164469
C108	C	1.570166	0.196656	0.664469
C109	C	1.070291	-0.303173	0.082155
C110	C	1.570291	0.196827	0.582155
C111	C	1.070270	-0.303232	0.931447
C112	C	1.570270	0.196768	1.431447
C113	C	1.012805	-0.351719	0.900093
C114	C	1.512805	0.148281	1.400093
C115	C	1.012960	-0.351944	0.814475
C116	C	1.512960	0.148056	1.314475
C117	C	1.070248	-0.303291	0.783064
C118	C	1.570248	0.196709	1.283064
C119	C	1.148274	-0.321303	0.814168
C120	C	1.648274	0.178697	1.314168
C121	C	1.147953	-0.321621	0.899813
C122	C	1.647953	0.178379	1.399813
C123	C	1.050388	-0.236626	0.899877
C124	C	1.550388	0.263374	1.399877
C125	C	1.048652	-0.237011	0.814226
C126	C	1.548652	0.262989	1.314226
C127	C	1.070240	-0.303323	0.699205
C128	C	1.570240	0.196677	1.199205
C129	C	1.070283	-0.303202	1.015306
C130	C	1.570283	0.196798	1.515306
H131	H	0.634331	-0.205465	0.313095
H132	H	1.134331	0.294535	0.813095
H133	H	0.633745	-0.265769	0.241630
H134	H	1.133745	0.234231	0.741630
H135	H	0.635030	-0.384213	0.278847
H136	H	1.135030	0.115787	0.778847
C137	C	0.500934	-0.388700	0.257715
C138	C	1.000934	0.111300	0.757715
N139	N	0.480573	-0.403228	0.199389
N140	N	0.980573	0.096772	0.699389
H141	H	0.506392	-0.239037	0.454697
H142	H	1.006392	0.260963	0.954697
H143	H	0.633959	-0.236275	0.450961
H144	H	1.133959	0.263725	0.950961
H145	H	0.635021	-0.318083	0.479573
H146	H	1.135021	0.181917	0.979573
C147	C	1.169794	-0.934424	0.257570
C148	C	1.669794	-0.434424	0.757570
N149	N	1.209055	-0.907185	0.218366
N150	N	1.709055	-0.407185	0.718366
C151	C	0.500596	-0.334648	0.492618
C152	C	1.000596	0.165352	0.992618
N153	N	0.479976	-0.370879	0.535781
N154	N	0.979976	0.129121	1.035781
C155	C	0.499879	-0.187872	0.317828
C156	C	0.999879	0.312128	0.817828
N157	N	0.478940	-0.137684	0.331281
N158	N	0.978940	0.362316	0.831281
C159	C	0.498550	-0.269367	0.221943
C160	C	0.998550	0.230633	0.721943
N161	N	0.476611	-0.280562	0.163175
N162	N	0.976611	0.219438	0.663175
C163	C	0.974855	-0.214461	0.929032
C164	C	1.474855	0.285539	1.429032
N165	N	0.917959	-0.197774	0.950991
N166	N	1.417959	0.302226	1.450991
C167	C	1.169852	-1.072477	0.257598
C168	C	1.669852	-0.572477	0.757598
N169	N	1.209126	-1.099699	0.218395
N170	N	1.709126	-0.599699	0.718395
H171	H	0.984355	-1.063127	0.442802
H172	H	1.484355	-0.563127	0.942802
C173	C	1.169596	-0.533588	0.257466
C174	C	1.669596	-0.033588	0.757466
N175	N	1.208837	-0.506350	0.218242
N176	N	1.708837	-0.006350	0.718242
C177	C	0.970770	-0.934468	0.456313
C178	C	1.470770	-0.434468	0.956313
N179	N	0.931515	-0.907246	0.495534
N180	N	1.431515	-0.407246	0.995534
H181	H	1.156126	-0.662248	0.271032
H182	H	1.656126	-0.162248	0.771032
H183	H	0.984178	-0.662290	0.442715
H184	H	1.484178	-0.162290	0.942715
C185	C	0.970589	-0.533627	0.456229
C186	C	1.470589	-0.033627	0.956229
N187	N	0.931324	-0.506404	0.495439
N188	N	1.431324	-0.006404	0.995439
H189	H	0.633980	-0.407079	0.375715
H190	H	1.133980	0.092921	0.875715
C191	C	0.499974	-0.420283	0.388723
C192	C	0.999974	0.079717	0.888723
N193	N	0.478891	-0.458605	0.429072
N194	N	0.978891	0.041395	0.929072
C195	C	0.934795	-0.336714	0.786060
C196	C	1.434795	0.163286	1.286060
N197	N	0.875917	-0.325244	0.764662
N198	N	1.375917	0.174756	1.264662
H199	H	0.954772	-0.340562	0.920680
H200	H	1.454772	0.159438	1.420680
C201	C	1.030368	-0.418012	0.929156
C202	C	1.530368	0.081988	1.429156
N203	N	1.043602	-0.467945	0.951043
N204	N	1.543602	0.032055	1.451043
C205	C	1.030681	-0.418644	0.786795
C206	C	1.530681	0.081356	1.286795
N207	N	1.044014	-0.468889	0.765947
N208	N	1.544014	0.031111	1.265947
C209	C	1.170717	-0.387401	0.926806
C210	C	1.670717	0.112599	1.426806
N211	N	1.187861	-0.436949	0.947133
N212	N	1.687861	0.063051	1.447133
H213	H	1.192220	-0.287839	0.920557
H214	H	1.692220	0.212161	1.420557
H215	H	1.192239	-0.287098	0.793825
H216	H	1.692239	0.212902	1.293825
C217	C	1.171437	-0.386385	0.785201
C218	C	1.671437	0.113615	1.285201
N219	N	1.188879	-0.435406	0.763385
N220	N	1.688879	0.064594	1.263385
C221	C	0.971095	-0.218645	0.786730
C222	C	1.471095	0.281355	1.286730
N223	N	0.912684	-0.204808	0.766005
N224	N	1.412684	0.295192	1.266005
C225	C	1.101059	-0.185612	0.785328
C226	C	1.601059	0.314388	1.285328
N227	N	1.140534	-0.146899	0.763557
N228	N	1.640534	0.353101	1.263557
C229	C	1.106933	-0.187823	0.927270
C230	C	1.606933	0.312177	1.427270
N231	N	1.149526	-0.151070	0.947905
N232	N	1.649526	0.348930	1.447905
