data_functionalizedCrystal
_audit_creation_method	'MofGen! by Chris Wilmer'
_symmetry_space_group_name_H-M	'P1'
_symmetry_Int_Tables_number	1
_symmetry_cell_setting	triclinic
loop_
_symmetry_equiv_pos_as_xyz
  x,y,z
_cell_length_a	18.426585
_cell_length_b	14.560438
_cell_length_c	14.560438
_cell_angle_alpha	59.995857
_cell_angle_beta	90.001634
_cell_angle_gamma	60.001220
loop_
_atom_site_label
_atom_site_type_symbol
_atom_site_fract_x
_atom_site_fract_y
_atom_site_fract_z
Zr1	Zr	0.699146	1.005278	-0.120540
O2	O	0.583266	1.196895	-0.267210
O3	O	0.734669	0.813668	-0.075570
O4	O	0.734670	1.005279	-0.267186
O5	O	0.583265	1.005281	0.075548
O6	O	0.854101	1.005273	-0.267178
O7	O	0.583265	1.005284	-0.075593
O8	O	0.854099	0.662515	0.075590
O9	O	0.583267	1.348039	-0.267219
O10	O	0.838950	0.892473	-0.056394
O11	O	0.749820	0.892476	0.056394
O12	O	0.749821	1.118074	-0.169210
O13	O	0.660691	1.118076	-0.056421
Zr14	Zr	0.889625	1.005264	0.120526
Zr15	Zr	0.889625	1.005268	-0.120526
Zr16	Zr	0.699146	1.005274	0.120512
Zr17	Zr	0.699147	1.246335	-0.120556
Zr18	Zr	0.889623	0.764207	0.120541
O19	O	0.854102	1.196875	0.075555
O20	O	0.854102	1.196881	-0.267190
O21	O	0.583266	1.196889	0.075536
O22	O	1.005505	0.813647	0.267195
O23	O	1.005505	0.813653	-0.075550
O24	O	0.734669	0.813662	0.267176
O25	O	1.005506	1.005261	-0.075562
O26	O	0.854101	1.005263	0.267172
O27	O	0.734670	1.005270	0.267163
O28	O	1.005506	1.005259	0.075578
O29	O	0.734672	1.348031	-0.267208
O30	O	0.854099	0.662511	0.267194
O31	O	1.005504	0.662503	0.267205
O32	O	1.005504	0.662507	0.075601
O33	O	0.583267	1.348036	-0.075615
O34	O	0.734672	1.348028	-0.075604
O35	O	0.838950	0.892469	0.169195
O36	O	0.928080	0.892466	0.056407
O37	O	0.838951	1.118067	-0.056409
O38	O	0.749821	1.118070	0.056380
C39	C	0.794384	0.703746	0.000012
C40	C	0.794383	0.601411	0.000019
C41	C	0.728586	0.636630	-0.083268
C42	C	0.728590	0.540490	-0.083297
C43	C	0.860192	0.373913	0.083259
C44	C	0.860191	0.470052	0.083282
C45	C	0.556126	1.005284	-0.000024
C46	C	0.475263	1.005288	-0.000030
C47	C	0.409592	1.005293	-0.000030
C48	C	0.327210	1.005288	-0.000020
C49	C	0.261553	1.005274	-0.000006
C50	C	0.179166	1.005268	0.000002
C51	C	1.032645	1.005258	0.000010
C52	C	1.113508	1.005254	0.000016
C53	C	0.794385	1.005277	-0.301527
C54	C	0.794385	1.005278	-0.403860
C55	C	0.794387	1.306797	-0.000027
C56	C	0.794388	1.409132	-0.000033
C57	C	0.860180	1.005276	-0.451931
C58	C	0.860183	1.005264	-0.548077
C59	C	0.728587	1.005263	-0.548075
C60	C	0.728589	1.005265	-0.451926
C61	C	0.794386	1.005266	0.301512
C62	C	0.794386	1.005264	0.403845
C63	C	1.032643	0.703733	0.000029
C64	C	1.113506	0.601394	0.000042
C65	C	0.794384	0.703740	0.301532
C66	C	0.794384	0.601404	0.403871
C67	C	1.032644	0.703728	0.301549
C68	C	1.113506	0.601386	0.403894
C69	C	0.556127	1.306815	-0.301563
C70	C	0.475265	1.409156	-0.403909
C71	C	0.556128	1.306809	-0.000044
C72	C	0.475265	1.409149	-0.000056
C73	C	0.794387	1.306802	-0.301546
C74	C	0.794387	1.409139	-0.403886
C75	C	1.104955	0.553337	-0.058843
C76	C	1.180926	0.457192	-0.058854
C77	C	1.265448	0.409098	0.000027
C78	C	1.273998	0.457164	0.058914
C79	C	1.198027	0.553314	0.058918
C80	C	1.198013	0.553325	0.393083
C81	C	1.274000	0.457178	0.489238
C82	C	1.265477	0.409088	0.596204
C83	C	1.180961	0.457159	0.607013
C84	C	1.104977	0.553311	0.510859
C85	C	0.390758	1.457230	-0.393097
C86	C	0.314771	1.553406	-0.489252
C87	C	0.323294	1.601501	-0.596218
C88	C	0.407810	1.553424	-0.607028
C89	C	0.483794	1.457255	-0.510874
C90	C	0.483816	1.457215	0.058819
C91	C	0.407844	1.553387	0.058803
C92	C	0.323323	1.601484	-0.000082
C93	C	0.314773	1.553414	-0.058964
C94	C	0.390744	1.457251	-0.058954
C95	C	0.840908	0.553320	0.510832
C96	C	0.840897	0.457173	0.606987
C97	C	0.747837	0.457197	0.489207
C98	C	0.747843	0.553349	0.393055
H99	H	0.913769	0.266952	0.151049
O100	O	0.924152	0.435617	0.164304
C101	C	0.982244	0.299063	0.237778
H102	H	0.946799	0.254936	0.233803
H103	H	1.043421	0.263248	0.211562
C104	C	1.054473	0.312088	0.363703
C105	C	1.010937	0.257890	0.358828
H106	H	1.072176	0.286688	0.438372
H107	H	1.015338	0.404086	0.314200
H108	H	1.105449	0.282237	0.341850
H109	H	0.959957	0.287754	0.380666
H110	H	1.050064	0.165894	0.408337
H111	H	0.261469	1.679787	-0.000081
O112	O	1.172563	0.410383	-0.115905
C113	C	1.125677	0.354794	-0.072607
H114	H	1.132037	0.325916	0.017148
H115	H	1.052559	0.428501	-0.127194
C116	C	1.156829	0.268982	-0.183052
C117	C	1.164647	0.233503	-0.072811
H118	H	1.180864	0.194167	-0.183182
H119	H	1.188414	0.306437	-0.212227
H120	H	1.095896	0.330406	-0.228530
H121	H	1.225580	0.172093	-0.027339
H122	H	1.133073	0.196035	-0.043628
H123	H	0.913760	1.005260	-0.587213
O124	O	1.356141	0.410268	0.478875
C125	C	1.402885	0.275534	0.530965
H126	H	1.373884	0.234738	0.596503
H127	H	1.396569	0.257181	0.464861
C128	C	1.537273	0.258363	0.508136
C129	C	1.501658	0.208255	0.588637
H130	H	1.598201	0.216862	0.543707
H131	H	1.505781	0.349137	0.473038
H132	H	1.532001	0.243066	0.453055
H133	H	1.506920	0.223567	0.643708
H134	H	1.533154	0.117482	0.623746
O135	O	1.022836	0.599929	-0.115870
C136	C	0.976090	0.576460	-0.040295
H137	H	1.025386	0.492177	0.048422
H138	H	0.931008	0.667217	-0.042366
C139	C	0.858791	0.645595	-0.183751
C140	C	0.919337	0.542070	-0.074788
H141	H	0.823780	0.624388	-0.205029
H142	H	0.890283	0.661412	-0.234669
H143	H	0.821231	0.721217	-0.185463
H144	H	0.956903	0.466456	-0.073081
H145	H	0.887851	0.526240	-0.023870
O146	O	1.356171	0.410250	0.116098
C147	C	1.421381	0.315100	0.103439
H148	H	1.391750	0.273082	0.081741
H149	H	1.445150	0.361096	0.032948
C150	C	1.536924	0.257399	0.240795
C151	C	1.500533	0.205783	0.214155
H152	H	1.585750	0.189969	0.309087
H153	H	1.492992	0.321506	0.249321
H154	H	1.556724	0.295728	0.182044
H155	H	1.480723	0.167470	0.272899
H156	H	1.544464	0.141666	0.205642
O157	O	0.664788	1.005087	-0.594790
C158	C	0.705053	0.893185	-0.594431
H159	H	0.776918	0.855881	-0.590179
H160	H	0.703536	0.814838	-0.518198
C161	C	0.565740	0.972992	-0.707986
C162	C	0.654005	0.927181	-0.702773
H163	H	0.534250	0.993959	-0.774813
H164	H	0.538611	1.048381	-0.708225
H165	H	0.564489	0.907695	-0.644452
H166	H	0.655255	0.992483	-0.766298
H167	H	0.681132	0.851804	-0.702547
H168	H	0.383802	1.418076	-0.306009
O169	O	0.924001	1.005448	-0.405257
C170	C	0.883770	1.117288	-0.405523
H171	H	0.815548	1.195549	-0.473634
H172	H	0.876063	1.091979	-0.320011
C173	C	1.026180	1.071808	-0.345668
C174	C	0.942392	1.167933	-0.429329
H175	H	1.062342	1.103046	-0.360347
H176	H	1.053285	0.996457	-0.345484
H177	H	1.019746	1.050726	-0.274414
H178	H	0.948826	1.189002	-0.500578
H179	H	0.915289	1.243290	-0.429525
H180	H	0.675010	1.005263	-0.412782
O181	O	0.886155	0.410239	0.710948
C182	C	0.951460	0.275505	0.770096
H183	H	0.931902	0.234732	0.733377
H184	H	1.018199	0.257148	0.762110
C185	C	0.983084	0.258284	0.940194
C186	C	0.959059	0.208203	0.895101
H187	H	0.987775	0.216768	1.017304
H188	H	0.939090	0.349057	0.900345
H189	H	1.038698	0.242983	0.933529
H190	H	0.903441	0.223519	0.901754
H191	H	1.003045	0.117430	0.934954
H192	H	1.204969	0.592465	0.305994
H193	H	1.327301	0.330805	0.000016
H194	H	1.205002	0.592429	0.106876
H195	H	0.552631	1.418061	0.106778
O196	O	1.339268	0.315848	0.689634
C197	C	1.339133	0.362815	0.754070
H198	H	1.296155	0.473526	0.697622
H199	H	1.311126	0.327841	0.823686
C200	C	1.487661	0.175835	0.875999
C201	C	1.434880	0.311812	0.806666
H202	H	1.546722	0.144370	0.908448
H203	H	1.487751	0.144189	0.832591
H204	H	1.464311	0.146707	0.934004
H205	H	1.458224	0.340937	0.748656
H206	H	1.434796	0.343462	0.850067
O207	O	1.022955	0.599799	0.521571
C208	C	1.031739	0.536746	0.636603
H209	H	1.099548	0.439296	0.687874
H210	H	1.025508	0.599806	0.664930
C211	C	0.874866	0.634016	0.591763
C212	C	0.958148	0.514321	0.654734
H213	H	0.829470	0.620188	0.602949
H214	H	0.868947	0.676501	0.514263
H215	H	0.869686	0.686554	0.615376
H216	H	0.963331	0.461792	0.631112
H217	H	0.964066	0.471827	0.732231
O218	O	0.232728	1.600109	-0.478594
C219	C	0.222997	1.655722	-0.419280
H220	H	0.291397	1.612278	-0.366216
H221	H	0.186676	1.765244	-0.481548
C222	C	0.085023	1.680567	-0.407232
C223	C	0.169033	1.627201	-0.342050
H224	H	0.051732	1.662980	-0.359596
H225	H	0.091577	1.643105	-0.447196
H226	H	0.054767	1.771832	-0.459118
H227	H	0.199292	1.535936	-0.290175
H228	H	0.162483	1.664648	-0.302075
O229	O	0.702664	0.600243	0.289059
C230	C	0.712666	0.695393	0.206515
H231	H	0.729802	0.737434	0.243993
H232	H	0.768371	0.649390	0.176448
C233	C	0.604150	0.753045	0.060304
C234	C	0.625189	0.804689	0.106333
H235	H	0.550192	0.820462	-0.001496
H236	H	0.597413	0.688938	0.115914
H237	H	0.650577	0.714710	0.035257
H238	H	0.578768	0.843008	0.131391
H239	H	0.631917	0.868805	0.050724
O240	O	0.415922	1.600245	-0.711022
C241	C	0.330729	1.695449	-0.793558
H242	H	0.280378	1.679653	-0.756064
H243	H	0.311376	1.796021	-0.823644
C244	C	0.393669	1.704326	-0.939775
C245	C	0.331829	1.684918	-0.893727
H246	H	0.394347	1.697835	-1.001567
H247	H	0.451066	1.640188	-0.884170
H248	H	0.377534	1.788135	-0.964838
H249	H	0.347971	1.601104	-0.868653
H250	H	0.274434	1.749041	-0.949331
O251	O	0.565816	1.410652	-0.521585
C252	C	0.557032	1.473753	-0.636618
H253	H	0.489221	1.513391	-0.687886
H254	H	0.563266	1.557257	-0.664951
C255	C	0.713904	1.327649	-0.591775
C256	C	0.630621	1.376325	-0.654743
H257	H	0.759299	1.267554	-0.602957
H258	H	0.719823	1.285140	-0.514275
H259	H	0.719086	1.397247	-0.615394
H260	H	0.625436	1.306730	-0.631115
H261	H	0.624702	1.418821	-0.732240
O262	O	0.232686	1.600251	-0.116332
C263	C	0.222929	1.655851	-0.231270
H264	H	0.271037	1.684714	-0.252137
H265	H	0.238004	1.582156	-0.250091
C266	C	0.067837	1.741696	-0.277582
C267	C	0.126918	1.777156	-0.303213
H268	H	0.008612	1.816519	-0.321961
H269	H	0.074410	1.704234	-0.200145
H270	H	0.080410	1.680282	-0.293266
H271	H	0.114352	1.838556	-0.287515
H272	H	0.120340	1.814631	-0.380649
H273	H	0.261415	1.679807	-0.674504
H274	H	0.414823	1.592509	0.106757
H275	H	0.674996	0.743584	-0.151061
H276	H	0.383769	1.418118	-0.106895
H277	H	0.675012	0.569178	-0.151119
H278	H	1.174035	0.417990	0.694118
H279	H	0.878800	0.592448	0.519645
H280	H	0.709947	0.418058	0.480414
