data_functionalizedCrystal
_audit_creation_method	'MofGen! by Chris Wilmer'
_symmetry_space_group_name_H-M	'P1'
_symmetry_Int_Tables_number	1
_symmetry_cell_setting	triclinic
loop_
_symmetry_equiv_pos_as_xyz
  x,y,z
_cell_length_a	23.532407
_cell_length_b	19.288864
_cell_length_c	22.010155
_cell_angle_alpha	90.028244
_cell_angle_beta	90.002880
_cell_angle_gamma	82.992461
loop_
_atom_site_label
_atom_site_type_symbol
_atom_site_fract_x
_atom_site_fract_y
_atom_site_fract_z
O1	O	0.071038	0.921140	0.050726
O2	O	0.080622	0.718850	0.050685
O3	O	-0.007089	0.826095	0.050696
O4	O	0.158749	0.813895	0.050716
O5	O	-0.007079	0.826064	-0.050355
O6	O	0.080632	0.718819	-0.050365
O7	O	0.071048	0.921109	-0.050324
Cu8	Cu	0.075841	0.819961	-0.059571
Cu9	Cu	0.075829	0.819998	0.059932
O10	O	0.158759	0.813864	-0.050335
C11	C	0.080319	0.692959	0.000155
C12	C	0.079393	0.615858	0.000139
C13	C	0.130858	0.571003	0.000154
C14	C	0.129988	0.498559	0.000161
C15	C	0.077651	0.470973	0.000164
C16	C	0.026179	0.515838	0.000145
C17	C	0.027050	0.588280	0.000132
C18	C	0.036504	0.362848	0.035582
C19	C	0.035635	0.290407	0.035599
C20	C	0.074961	0.247535	0.000201
C21	C	0.115167	0.277113	-0.035206
C22	C	0.116038	0.349556	-0.035219
C23	C	0.076700	0.392422	0.000178
C24	C	0.125487	0.124127	0.000223
C25	C	0.124615	0.051682	0.000226
C26	C	0.020805	0.068962	0.000216
C27	C	0.021678	0.141406	0.000207
C28	C	0.074021	0.168984	0.000213
C29	C	-0.028301	0.825769	0.000169
C30	C	-0.091520	0.824835	0.000164
C31	C	-0.490503	0.882442	0.000209
C32	C	-0.549905	0.881574	0.000213
O33	O	-0.586539	0.934976	0.000247
N34	N	-0.572664	0.817817	0.000200
C35	C	-0.536017	0.754923	0.000189
O36	O	-0.560829	0.700613	0.000178
C37	C	-0.476616	0.755792	0.000189
C38	C	-0.453861	0.819553	0.000196
C39	C	-0.467748	0.946198	0.000217
C40	C	-0.408350	0.947065	0.000211
C41	C	-0.371707	0.884177	0.000198
C42	C	-0.394463	0.820420	0.000190
C43	C	-0.439970	0.692899	0.000181
C44	C	-0.380565	0.693773	0.000182
C45	C	-0.357810	0.757534	0.000189
C46	C	-0.298422	0.758399	0.000171
N47	N	-0.275664	0.822156	0.000184
C48	C	-0.312307	0.885045	0.000198
C49	C	-0.660763	0.753104	0.000190
C50	C	-0.720163	0.752235	0.000186
C51	C	-0.734047	0.878886	0.000212
C52	C	-0.674647	0.879755	0.000212
C53	C	-0.638005	0.816861	0.000203
C54	C	-0.187566	0.886862	0.000186
C55	C	-0.128162	0.887724	0.000178
C56	C	-0.114283	0.761073	0.000155
C57	C	-0.173681	0.760211	0.000160
C58	C	-0.210322	0.823111	0.000177
O59	O	-0.261754	0.705025	0.000141
O60	O	-0.287486	0.939346	0.000216
C61	C	0.179971	0.814190	0.000193
C62	C	0.243190	0.815124	0.000202
C63	C	0.071351	0.947000	0.000208
C64	C	0.072277	1.024101	0.000228
N65	N	0.075849	0.819940	-0.143624
C66	C	0.041371	0.778096	-0.436242
C67	C	0.041373	0.778090	-0.372634
O68	O	0.012060	0.742486	-0.339748
N69	N	0.075831	0.819968	-0.340808
C70	C	0.110285	0.861860	-0.372592
O71	O	0.139594	0.897480	-0.339681
C72	C	0.110279	0.861869	-0.436199
C73	C	0.075823	0.819983	-0.468022
C74	C	0.006917	0.736214	-0.468065
C75	C	0.006916	0.736219	-0.531669
C76	C	0.041368	0.778107	-0.563449
C77	C	0.075821	0.819989	-0.531625
C78	C	0.144729	0.903765	-0.467982
C79	C	0.144719	0.903771	-0.531593
C80	C	0.110263	0.861885	-0.563416
C81	C	0.110271	0.861881	-0.627008
N82	N	0.075813	0.820003	-0.658835
C83	C	0.041362	0.778116	-0.627055
C84	C	0.110294	0.861838	-0.239015
C85	C	0.110304	0.861825	-0.175409
C86	C	0.041391	0.778056	-0.175456
C87	C	0.041385	0.778065	-0.239062
C88	C	0.075836	0.819960	-0.270841
C89	C	0.041361	0.778130	-0.760626
C90	C	0.041364	0.778137	-0.824235
C91	C	0.110274	0.861909	-0.824183
C92	C	0.110273	0.861899	-0.760580
C93	C	0.075812	0.820008	-0.728803
O94	O	0.139568	0.897469	-0.659935
O95	O	0.012052	0.742509	-0.659974
N96	N	0.075816	0.820024	0.143985
H97	H	-0.016435	0.493372	0.000156
N98	N	0.159392	0.381465	-0.073408
H99	H	0.199312	0.362203	-0.060189
H100	H	0.153888	0.369700	-0.117569
N101	N	-0.198229	0.691443	0.000150
H102	H	-0.222571	0.688245	-0.037306
H103	H	-0.165970	0.651776	0.000161
N104	N	-0.007730	0.258510	0.073782
H105	H	-0.002313	0.206113	0.068423
H106	H	-0.002262	0.270325	0.117940
H107	H	-0.458486	0.640978	0.000179
N108	N	0.147459	0.907014	-0.273296
H109	H	0.122590	0.941188	-0.299667
H110	H	0.169284	0.933496	-0.243446
N111	N	-0.744702	0.683465	0.000161
H112	H	-0.712471	0.643760	0.000150
H113	H	-0.769043	0.680349	0.037622
H114	H	0.004478	0.397749	0.064411
H115	H	-0.021144	0.702114	-0.557573
H116	H	0.013306	0.744025	-0.850143
H117	H	-0.497577	0.997413	0.000230
H118	H	-0.020231	0.177928	0.000197
N119	N	-0.341046	0.625935	0.000156
H120	H	-0.299962	0.636154	0.000151
H121	H	-0.348391	0.598136	0.037609
H122	H	-0.084438	0.709871	0.000142
N123	N	-0.028460	0.636665	0.000113
H124	H	-0.061750	0.608200	0.000113
H125	H	-0.030365	0.667128	0.037568
N126	N	0.004193	0.732950	-0.726358
H127	H	-0.017630	0.706421	-0.756177
H128	H	0.029095	0.698818	-0.699985
H129	H	-0.630931	0.701886	0.000178
H130	H	-0.217393	0.938081	0.000202
N131	N	0.147471	0.907001	-0.141094
H132	H	0.122606	0.941169	-0.114688
H133	H	0.175409	0.876520	-0.114753
H134	H	-0.021141	0.702104	-0.442197
N135	N	-0.103620	0.956497	0.000182
H136	H	-0.135850	0.996203	0.000193
H137	H	-0.079273	0.959630	0.037640
H138	H	-0.021810	0.046503	0.000256
N139	N	0.187308	0.600755	0.000151
H140	H	0.189978	0.630458	0.037604
H141	H	0.219749	0.561308	0.000137
H142	H	0.013339	0.743949	-0.149569
H143	H	0.013328	0.743958	-0.264969
H144	H	-0.389829	0.998986	0.000220
N145	N	-0.650106	0.948524	0.000219
H146	H	-0.682337	0.988229	0.000225
H147	H	-0.625763	0.951660	0.037680
N148	N	0.147428	0.907086	-0.858471
H149	H	0.136086	0.957697	-0.847378
H150	H	0.188884	0.893042	-0.847401
N151	N	-0.773575	0.946719	0.000226
H152	H	-0.814657	0.936488	0.000227
H153	H	-0.766225	0.974535	0.037692
H154	H	0.138338	0.895996	-0.734668
N155	N	0.185498	0.450167	0.000179
H156	H	0.218788	0.478631	0.000181
H157	H	0.187387	0.419768	0.037647
H158	H	0.172785	0.937874	-0.442083
N159	N	0.181876	0.948967	-0.565861
H160	H	0.223342	0.934980	-0.554797
H161	H	0.176602	0.942606	-0.610975
N162	N	0.157590	0.230891	-0.073392
H163	H	0.181686	0.196782	-0.046270
H164	H	0.136277	0.204342	-0.103663
N165	N	0.181940	0.153875	0.000226
H166	H	0.204483	0.137464	-0.037231
H167	H	0.174637	0.206569	0.000243
H168	H	0.166526	0.015161	0.000235
