data_functionalizedCrystal
_audit_creation_method	'MofGen! by Chris Wilmer'
_symmetry_space_group_name_H-M	'P1'
_symmetry_Int_Tables_number	1
_symmetry_cell_setting	triclinic
loop_
_symmetry_equiv_pos_as_xyz
  x,y,z
_cell_length_a	21.395364
_cell_length_b	12.759400
_cell_length_c	21.395355
_cell_angle_alpha	89.986153
_cell_angle_beta	89.975448
_cell_angle_gamma	90.029636
loop_
_atom_site_label
_atom_site_type_symbol
_atom_site_fract_x
_atom_site_fract_y
_atom_site_fract_z
Zn1	Zn	0.957929	-0.417969	-0.354282
Zn2	Zn	1.457929	0.082031	0.145718
Zn3	Zn	0.957861	-0.593633	-0.249513
Zn4	Zn	1.457861	-0.093633	0.250487
Zn5	Zn	0.853144	-0.418015	-0.249519
Zn6	Zn	1.353144	0.081985	0.250481
Zn7	Zn	0.853142	-0.593652	-0.354253
Zn8	Zn	1.353142	-0.093652	0.145747
O9	O	0.905519	-0.505817	-0.301892
O10	O	1.405519	-0.005817	0.198108
O11	O	1.045598	-0.441244	-0.340394
O12	O	1.545598	0.058756	0.159606
O13	O	0.943942	-0.570349	-0.161836
O14	O	1.443942	-0.070349	0.338164
O15	O	0.867073	-0.270988	-0.263430
O16	O	1.367073	0.229012	0.236570
O17	O	1.045548	-0.570304	-0.263420
O18	O	1.545548	-0.070304	0.236580
O19	O	0.944058	-0.270954	-0.340399
O20	O	1.444058	0.229046	0.159601
O21	O	0.867007	-0.441322	-0.161840
O22	O	1.367007	0.058678	0.338160
O23	O	0.765466	-0.441341	-0.263402
O24	O	1.265466	0.058659	0.236598
O25	O	0.867070	-0.570336	-0.441935
O26	O	1.367070	-0.070336	0.058065
O27	O	0.765465	-0.570381	-0.340350
O28	O	1.265465	-0.070381	0.159650
O29	O	0.944057	-0.441262	-0.441956
O30	O	1.444057	0.058738	0.058044
O31	O	0.943940	-0.740657	-0.263393
O32	O	1.443940	-0.240657	0.236607
O33	O	0.867004	-0.740671	-0.340345
O34	O	1.367004	-0.240671	0.159655
C35	C	0.742731	-0.505868	-0.301874
C36	C	1.242731	-0.005868	0.198126
C37	C	0.673090	-0.505916	-0.301881
C38	C	1.173090	-0.005916	0.198119
C39	C	0.640425	-0.438824	-0.342023
C40	C	1.140425	0.061176	0.157977
C41	C	0.574990	-0.438796	-0.342026
C42	C	1.074990	0.061204	0.157974
C43	C	0.542222	-0.505878	-0.301893
C44	C	1.042222	-0.005878	0.198107
C45	C	0.574894	-0.572975	-0.261743
C46	C	1.074894	-0.072975	0.238257
C47	C	0.640328	-0.572993	-0.261737
C48	C	1.140328	-0.072993	0.238263
C49	C	0.438513	-0.600493	-0.296860
C50	C	0.938513	-0.100493	0.203140
C51	C	0.373080	-0.600476	-0.296870
C52	C	0.873080	-0.100476	0.203130
C53	C	0.340401	-0.505821	-0.301907
C54	C	0.840401	-0.005821	0.198093
C55	C	0.373163	-0.411179	-0.306947
C56	C	0.873163	0.088821	0.193053
C57	C	0.438597	-0.411197	-0.306941
C58	C	0.938597	0.088803	0.193059
C59	C	0.471269	-0.505865	-0.301894
C60	C	0.971269	-0.005865	0.198106
C61	C	0.236784	-0.438693	-0.342053
C62	C	0.736784	0.061307	0.157947
C63	C	0.171347	-0.438663	-0.342051
C64	C	0.671347	0.061337	0.157949
C65	C	0.171253	-0.572851	-0.261772
C66	C	0.671253	-0.072851	0.238228
C67	C	0.236688	-0.572872	-0.261771
C68	C	0.736688	-0.072872	0.238229
C69	C	0.269450	-0.505794	-0.301915
C70	C	0.769450	-0.005794	0.198085
C71	C	0.905482	-0.778785	-0.301879
C72	C	1.405482	-0.278785	0.198121
C73	C	0.905523	-0.895561	-0.301894
C74	C	1.405523	-0.395561	0.198106
C75	C	0.945628	-0.950381	-0.261869
C76	C	1.445628	-0.450381	0.238131
C77	C	0.945667	-1.060105	-0.261889
C78	C	1.445667	-0.560105	0.238111
C79	C	0.865490	-1.060180	-0.341959
C80	C	1.365490	-0.560180	0.158041
C81	C	0.865455	-0.950458	-0.341942
C82	C	1.365455	-0.450458	0.158058
C83	C	0.985697	-0.895485	-0.221821
C84	C	1.485697	-0.395485	0.278179
C85	C	1.025805	-0.950305	-0.181792
C86	C	1.525805	-0.450305	0.318208
C87	C	1.025843	-1.060029	-0.181812
C88	C	1.525843	-0.560029	0.318188
C89	C	0.985774	-1.114933	-0.221859
C90	C	1.485774	-0.614933	0.278141
C91	C	1.068942	-0.505767	-0.301910
C92	C	1.568942	-0.005767	0.198090
C93	C	1.138584	-0.505745	-0.301917
C94	C	1.638584	-0.005745	0.198083
C95	C	0.905571	-0.505796	-0.465315
C96	C	1.405571	-0.005796	0.034685
C97	C	0.905593	-0.505787	-0.534956
C98	C	1.405593	-0.005787	-0.034956
C99	C	0.905573	-0.231784	-0.301918
C100	C	1.405573	0.268216	0.198082
C101	C	0.905597	-0.115007	-0.301930
C102	C	1.405597	0.384993	0.198070
C103	C	0.945678	-0.438575	-0.567681
C104	C	1.445678	0.061425	-0.067681
C105	C	0.945677	-0.438530	-0.633117
C106	C	1.445677	0.061470	-0.133117
C107	C	0.905598	-0.505715	-0.665825
C108	C	1.405598	-0.005715	-0.165825
C109	C	0.865505	-0.572932	-0.633092
C110	C	1.365505	-0.072932	-0.133092
C111	C	0.865503	-0.572967	-0.567657
C112	C	1.365503	-0.072967	-0.067657
C113	C	0.900638	-0.600317	-0.769495
C114	C	1.400638	-0.100317	-0.269495
C115	C	0.900645	-0.600282	-0.834928
C116	C	1.400645	-0.100282	-0.334928
C117	C	0.905602	-0.505604	-0.867645
C118	C	1.405602	-0.005604	-0.367645
C119	C	0.910565	-0.410957	-0.834922
C120	C	1.410565	0.089043	-0.334922
C121	C	0.910563	-0.410993	-0.769488
C122	C	1.410563	0.089007	-0.269488
C123	C	0.905596	-0.505684	-0.736777
C124	C	1.405596	-0.005684	-0.236777
C125	C	0.945688	-0.438338	-0.971323
C126	C	1.445688	0.061662	-0.471323
C127	C	0.945683	-0.438291	-1.036760
C128	C	1.445683	0.061709	-0.536760
C129	C	0.865514	-0.572702	-1.036733
C130	C	1.365514	-0.072702	-0.536733
C131	C	0.865516	-0.572740	-0.971298
C132	C	1.365516	-0.072740	-0.471298
C133	C	0.905606	-0.505559	-0.938597
C134	C	1.405606	-0.005559	-0.438597
C135	C	0.905503	-0.505763	-0.139104
C136	C	1.405503	-0.005763	0.360896
C137	C	0.905602	-0.505476	-0.069463
C138	C	1.405602	-0.005476	0.430537
H139	H	0.667096	-0.384203	-0.374711
H140	H	1.167096	0.115797	0.125289
H141	H	0.896607	-0.677350	-0.861566
H142	H	1.396607	-0.177350	-0.361566
H143	H	0.548389	-0.384157	-0.374713
H144	H	1.048389	0.115843	0.125287
H145	H	0.346411	-0.677539	-0.292769
H146	H	0.846411	-0.177539	0.207231
H147	H	0.978324	-0.383553	-1.063404
H148	H	1.478324	0.116447	-0.563404
H149	H	0.144753	-0.384023	-0.374739
H150	H	0.644753	0.115977	0.125261
H151	H	1.058431	-0.905596	-0.149190
H152	H	1.558431	-0.405596	0.350810
H153	H	1.058505	-1.104660	-0.149223
H154	H	1.558505	-0.604660	0.350777
H155	H	0.144574	-0.627471	-0.229095
H156	H	0.644574	-0.127471	0.270905
H157	H	0.978318	-0.383793	-0.659767
H158	H	1.478318	0.116207	-0.159767
H159	H	0.346557	-0.334101	-0.311048
H160	H	0.846557	0.165899	0.188952
H161	H	0.465269	-0.334137	-0.311042
H162	H	0.965269	0.165863	0.188958
H163	H	0.914603	-0.333928	-0.742847
H164	H	1.414603	0.166072	-0.242847
H165	H	0.832878	-0.627477	-0.944653
H166	H	1.332878	-0.127477	-0.444653
H167	H	0.263284	-0.627509	-0.229085
H168	H	0.763284	-0.127509	0.270915
H169	H	0.263460	-0.384068	-0.374737
H170	H	0.763460	0.115932	0.125263
H171	H	0.465115	-0.677579	-0.292758
H172	H	0.965115	-0.177579	0.207242
H173	H	0.832798	-0.905823	-0.374535
H174	H	1.332798	-0.405823	0.125465
H175	H	0.896434	-0.677395	-0.742862
H176	H	1.396434	-0.177395	-0.242862
H177	H	0.832874	-0.627395	-1.063363
H178	H	1.332874	-0.127395	-0.563363
H179	H	0.914603	-0.333861	-0.861559
H180	H	1.414603	0.166139	-0.361559
H181	H	0.666924	-0.627629	-0.229048
H182	H	1.166924	-0.127629	0.270952
H183	H	0.832867	-1.104891	-0.374563
H184	H	1.332867	-0.604891	0.125437
H185	H	0.978322	-0.383870	-0.541060
H186	H	1.478322	0.116130	-0.041060
H187	H	0.978329	-0.383630	-0.944696
H188	H	1.478329	0.116370	-0.444696
H189	H	0.548210	-0.627593	-0.229066
H190	H	1.048210	-0.127593	0.270934
H191	H	0.985668	-0.806142	-0.221799
H192	H	1.485668	-0.306142	0.278201
H193	H	0.985813	-1.204278	-0.221877
H194	H	1.485813	-0.704278	0.278123
H195	H	0.832870	-0.627631	-0.659726
H196	H	1.332870	-0.127631	-0.159726
H197	H	0.832858	-0.627698	-0.541013
H198	H	1.332858	-0.127698	-0.041013
