data_functionalizedCrystal
_audit_creation_method	'MofGen! by Chris Wilmer'
_symmetry_space_group_name_H-M	'P1'
_symmetry_Int_Tables_number	1
_symmetry_cell_setting	triclinic
loop_
_symmetry_equiv_pos_as_xyz
  x,y,z
_cell_length_a	14.971507
_cell_length_b	7.540329
_cell_length_c	14.971486
_cell_angle_alpha	90.003801
_cell_angle_beta	96.381605
_cell_angle_gamma	89.995930
loop_
_atom_site_label
_atom_site_type_symbol
_atom_site_fract_x
_atom_site_fract_y
_atom_site_fract_z
O1	O	-1.186931	0.147529	0.116650
O2	O	-0.926534	0.147523	0.130590
O3	O	-1.063712	0.147513	-0.006580
O4	O	-1.049753	0.147538	0.253820
O5	O	-1.063704	-0.147452	-0.006581
O6	O	-0.926526	-0.147442	0.130588
O7	O	-1.186923	-0.147436	0.116649
Cu8	Cu	-1.056724	-0.174372	0.123618
Cu9	Cu	-1.056733	0.174458	0.123620
O10	O	-1.049745	-0.147427	0.253818
C11	C	-0.893205	0.000039	0.129962
C12	C	-0.793909	0.000036	0.128084
N13	N	-1.056723	-0.419720	0.123616
C14	C	-0.355627	0.000050	0.201501
C15	C	-0.448927	0.000060	0.203259
C16	C	-0.506147	0.000046	0.122666
C17	C	-0.470062	0.000039	0.040311
C18	C	-0.376764	0.000042	0.038554
C19	C	-0.664525	0.000030	0.043978
C20	C	-0.757830	0.000025	0.045735
C21	C	-0.736688	0.000049	0.208683
C22	C	-0.643390	0.000051	0.206926
C23	C	-0.607312	0.000041	0.124570
C24	C	-0.220252	0.000044	0.117276
C25	C	-0.319548	0.000038	0.119152
C26	C	-1.063084	0.000031	-0.039905
C27	C	-1.061213	0.000033	-0.139202
N28	N	-1.056741	0.419807	0.123615
C29	C	-1.141801	0.000033	-0.196422
C30	C	-1.140038	0.000051	-0.289721
C31	C	-1.057686	0.000056	-0.325800
C32	C	-0.977091	0.000060	-0.268573
C33	C	-0.978855	0.000055	-0.175275
C34	C	-0.973420	0.000067	-0.463036
C35	C	-0.971656	0.000068	-0.556340
C36	C	-1.134603	0.000063	-0.577482
C37	C	-1.136367	0.000058	-0.484184
C38	C	-1.055772	0.000059	-0.426964
C39	C	-1.050373	0.000059	0.287143
C40	C	-1.052244	0.000069	0.386441
H41	H	-0.478297	0.000086	0.270315
H42	H	-0.913232	0.000055	-0.128688
O43	O	-0.895189	-0.000171	-0.407361
C44	C	-0.891321	-0.152962	-0.352785
H45	H	-0.962321	-0.203888	-0.347990
H46	H	-0.858078	-0.118613	-0.282701
H47	H	-0.850435	-0.259935	-0.383530
H48	H	-1.208862	0.000019	-0.167054
O49	O	-0.300084	0.000379	0.279814
C50	C	-0.316478	0.153134	0.329811
H51	H	-0.348313	0.259895	0.282619
H52	H	-0.250331	0.204423	0.365611
H53	H	-0.364044	0.118607	0.381631
H54	H	-1.203426	0.000041	-0.454812
O55	O	-1.212812	0.000160	-0.633188
C56	C	-1.193600	0.000137	-0.723272
H57	H	-1.123343	0.055980	-0.726924
H58	H	-1.244965	0.085784	-0.765474
H59	H	-1.196959	-0.141366	-0.750262
H60	H	-0.596803	0.000051	0.272551
O61	O	-0.771878	0.000188	0.288607
C62	C	-0.866495	0.000171	0.272880
H63	H	-0.888318	0.055971	0.203093
H64	H	-0.895198	0.085859	0.325568
H65	H	-0.892477	-0.141324	0.277263
O66	O	-0.891582	0.000179	-0.591240
C67	C	-0.820825	0.000160	-0.520733
H68	H	-0.845969	0.055984	-0.457321
H69	H	-0.763349	0.085825	-0.540295
H70	H	-0.795940	-0.141340	-0.507568
O71	O	-0.813288	0.000119	-0.032634
C72	C	-0.761441	0.000093	-0.105700
H73	H	-0.691835	0.055924	-0.083067
H74	H	-0.795794	0.085748	-0.162162
H75	H	-0.754769	-0.141410	-0.130953
O76	O	-1.218405	-0.000039	-0.345176
C77	C	-1.291469	-0.000015	-0.293326
H78	H	-1.268835	-0.055859	-0.223723
H79	H	-1.347934	-0.085661	-0.327680
H80	H	-1.316719	0.141489	-0.286648
H81	H	-0.347391	0.000035	-0.028503
H82	H	-0.910038	0.000075	-0.297955
O83	O	-0.629373	-0.000218	-0.035966
C84	C	-0.576050	-0.153007	-0.041862
H85	H	-0.552895	-0.203918	0.028613
H86	H	-0.514917	-0.118659	-0.077582
H87	H	-0.617218	-0.259990	-0.081386
O88	O	-0.525608	0.000345	-0.038000
C89	C	-0.509232	0.153083	-0.088005
H90	H	-0.477405	0.259864	-0.040818
H91	H	-0.575385	0.204352	-0.123804
H92	H	-0.461665	0.118541	-0.139826
