data_functionalizedCrystal
_audit_creation_method	'MofGen! by Chris Wilmer'
_symmetry_space_group_name_H-M	'P1'
_symmetry_Int_Tables_number	1
_symmetry_cell_setting	triclinic
loop_
_symmetry_equiv_pos_as_xyz
  x,y,z
_cell_length_a	17.699077
_cell_length_b	10.489716
_cell_length_c	16.776229
_cell_angle_alpha	89.997416
_cell_angle_beta	89.993415
_cell_angle_gamma	83.904856
loop_
_atom_site_label
_atom_site_type_symbol
_atom_site_fract_x
_atom_site_fract_y
_atom_site_fract_z
O1	O	1.005128	0.161261	-0.066271
O2	O	1.505128	0.661261	0.433729
O3	O	0.784885	0.182254	-0.066274
O4	O	1.284885	0.682254	0.433726
O5	O	0.900028	-0.013936	-0.066275
O6	O	1.400028	0.486064	0.433725
O7	O	0.889985	0.357451	-0.066269
O8	O	1.389985	0.857451	0.433731
O9	O	0.900012	-0.013948	0.066302
O10	O	1.400012	0.486052	0.566302
O11	O	0.784870	0.182242	0.066303
O12	O	1.284870	0.682242	0.566303
O13	O	1.005112	0.161249	0.066306
O14	O	1.505112	0.661249	0.566306
Zn15	Zn	0.894988	0.171744	0.087354
Zn16	Zn	1.394988	0.671744	0.587354
Zn17	Zn	0.895009	0.171760	-0.087321
Zn18	Zn	1.395009	0.671760	0.412679
O19	O	0.889970	0.357439	0.066307
O20	O	1.389970	0.857439	0.566307
C21	C	0.756675	0.181497	0.000014
C22	C	1.256675	0.681497	0.500014
C23	C	0.672642	0.179245	0.000013
C24	C	1.172642	0.679245	0.500013
C25	C	0.633160	0.178177	0.072281
C26	C	1.133160	0.678177	0.572281
C27	C	0.554203	0.176039	0.072282
C28	C	1.054203	0.676039	0.572282
C29	C	0.514730	0.174980	0.000013
C30	C	1.014730	0.674980	0.500013
C31	C	0.554219	0.176044	-0.072260
C32	C	1.054219	0.676044	0.427740
C33	C	0.633175	0.178172	-0.072260
C34	C	1.133175	0.678172	0.427740
C35	C	0.235800	0.167460	-0.072262
C36	C	0.735800	0.667460	0.427738
C37	C	0.156838	0.165336	-0.072256
C38	C	0.656838	0.665336	0.427744
C39	C	0.156829	0.165328	0.072280
C40	C	0.656829	0.665328	0.572280
C41	C	0.235784	0.167456	0.072280
C42	C	0.735784	0.667456	0.572280
C43	C	0.275266	0.168513	0.000007
C44	C	0.775266	0.668513	0.500007
C45	C	0.360880	0.170828	0.000007
C46	C	0.860880	0.670828	0.500007
C47	C	0.429118	0.172674	0.000013
C48	C	0.929118	0.672674	0.500013
C49	C	0.899265	-0.061460	0.000011
C50	C	1.399265	0.438540	0.500011
C51	C	0.897008	-0.203049	0.000004
C52	C	1.397008	0.296951	0.500004
C53	C	0.967617	-0.302037	0.000012
C54	C	1.467617	0.197963	0.500012
C55	C	0.930313	-0.378697	-0.065354
C56	C	1.430313	0.121303	0.434646
C57	C	0.930282	-0.378673	0.065356
C58	C	1.430282	0.121327	0.565356
C59	C	0.859734	-0.277844	-0.065416
C60	C	1.359734	0.222156	0.434584
C61	C	0.859712	-0.277814	0.065353
C62	C	1.359712	0.222186	0.565353
C63	C	0.822357	-0.354424	-0.000029
C64	C	1.322357	0.145576	0.499971
C65	C	1.033322	0.162006	0.000016
C66	C	1.533322	0.662006	0.500016
C67	C	1.117355	0.164259	0.000013
C68	C	1.617355	0.664259	0.500013
C69	C	0.890732	0.404963	0.000020
C70	C	1.390732	0.904963	0.500020
C71	C	0.892989	0.546552	0.000022
C72	C	1.392989	1.046552	0.500022
N73	N	0.894980	0.171732	0.206565
N74	N	1.394980	0.671732	0.706565
N75	N	0.895023	0.171761	-0.206533
N76	N	1.395023	0.671761	0.293467
C77	C	0.945981	0.084895	0.248282
C78	C	1.445981	0.584895	0.748282
C79	C	0.945985	0.084894	0.331734
C80	C	1.445985	0.584894	0.831734
C81	C	0.894992	0.171737	0.373468
C82	C	1.394992	0.671737	0.873468
C83	C	0.843985	0.258579	0.331746
C84	C	1.343985	0.758579	0.831746
C85	C	0.843978	0.258573	0.248295
C86	C	1.343978	0.758573	0.748295
C87	C	0.844013	0.258604	0.668293
C88	C	1.344013	0.758604	1.168293
C89	C	0.844025	0.258606	0.751749
C90	C	1.344025	0.758606	1.251749
C91	C	0.946020	0.084925	0.751732
C92	C	1.446020	0.584925	1.251732
C93	C	0.946013	0.084919	0.668281
C94	C	1.446013	0.584919	1.168281
C95	C	0.895004	0.171755	0.626566
C96	C	1.395004	0.671755	1.126566
C97	C	0.894999	0.171754	0.536078
C98	C	1.394999	0.671754	1.036078
C99	C	0.895000	0.171746	0.463955
C100	C	1.395000	0.671746	0.963955
H101	H	0.522074	0.175172	-0.131102
H102	H	1.022074	0.675172	0.368898
H103	H	0.987539	0.014207	0.634304
H104	H	1.487539	0.514207	1.134304
H105	H	0.802447	0.329283	0.214330
H106	H	1.302447	0.829283	0.714330
H107	H	0.987509	0.014182	0.214307
H108	H	1.487509	0.514182	0.714307
O109	O	0.965951	-0.431284	0.131204
O110	O	1.465951	0.068716	0.631204
C111	C	1.026966	-0.520827	0.107741
C112	C	1.526966	-0.020827	0.607741
H113	H	1.045632	-0.497337	0.044869
H114	H	1.545632	0.002663	0.544869
H115	H	1.076522	-0.516154	0.150669
H116	H	1.576522	-0.016154	0.650669
H117	H	1.008085	-0.621396	0.108714
H118	H	1.508085	-0.121396	0.608714
O119	O	0.794504	0.342849	0.627654
O120	O	1.294504	0.842849	1.127654
C121	C	0.805442	0.324257	0.545049
C122	C	1.305442	0.824257	1.045049
H123	H	0.833171	0.222782	0.533644
H124	H	1.333171	0.722782	1.033644
H125	H	0.748202	0.338595	0.513345
H126	H	1.248202	0.838595	1.013345
H127	H	0.843795	0.396358	0.521360
H128	H	1.343795	0.896358	1.021360
O129	O	0.749076	-0.382441	-0.000033
O130	O	1.249076	0.117559	0.499967
C131	C	0.747719	-0.516586	0.000604
C132	C	1.247719	-0.016586	0.500604
H133	H	0.803453	-0.564075	0.026077
H134	H	1.303453	-0.064075	0.526077
H135	H	0.698422	-0.542125	0.039099
H136	H	1.198422	-0.042125	0.539099
H137	H	0.740184	-0.552031	-0.062846
H138	H	1.240184	-0.052031	0.437154
H139	H	0.802461	0.329284	0.365730
H140	H	1.302461	0.829284	0.865730
H141	H	0.124673	0.164461	0.131129
H142	H	0.624673	0.664461	0.631129
H143	H	0.829925	-0.233747	0.120617
H144	H	1.329925	0.266253	0.620617
H145	H	0.987552	0.014214	0.785705
H146	H	1.487552	0.514214	1.285705
O147	O	0.671388	0.179145	0.142555
O148	O	1.171388	0.679145	0.642555
C149	C	0.619602	0.177772	0.206340
C150	C	1.119602	0.677772	0.706340
H151	H	0.566239	0.135895	0.185150
H152	H	1.066239	0.635895	0.685150
H153	H	0.646882	0.116479	0.256884
H154	H	1.146882	0.616479	0.756884
H155	H	0.603810	0.279830	0.228565
H156	H	1.103810	0.779830	0.728565
H157	H	0.665320	0.179044	-0.131109
H158	H	1.165320	0.679044	0.368891
H159	H	0.124702	0.164472	-0.131110
H160	H	0.624702	0.664472	0.368890
O161	O	0.274025	0.168543	-0.142537
O162	O	0.774025	0.668543	0.357463
C163	C	0.222254	0.167121	-0.206319
C164	C	0.722254	0.667121	0.293681
H165	H	0.163054	0.205978	-0.185128
H166	H	0.663054	0.705978	0.314872
H167	H	0.240598	0.229632	-0.256868
H168	H	0.740598	0.729632	0.243132
H169	H	0.221245	0.064608	-0.228536
H170	H	0.721245	0.564608	0.271464
O171	O	0.515839	0.174765	0.142466
O172	O	1.015839	0.674765	0.642466
C173	C	0.478142	0.063117	0.146783
C174	C	0.978142	0.563117	0.646783
H175	H	0.507517	-0.013407	0.105763
H176	H	1.007517	0.486593	0.605763
H177	H	0.479931	0.026015	0.210699
H178	H	0.979931	0.526015	0.710699
H179	H	0.416497	0.086460	0.127378
H180	H	0.916497	0.586460	0.627378
H181	H	0.987514	0.014184	0.365699
H182	H	1.487514	0.514184	0.865699
H183	H	0.267919	0.168325	0.131128
H184	H	0.767919	0.668325	0.631128
H185	H	1.029035	-0.278504	-0.000054
H186	H	1.529035	0.221496	0.499946
O187	O	0.965933	-0.431049	-0.131304
O188	O	1.465933	0.068951	0.368696
C189	C	0.993643	-0.333478	-0.177222
C190	C	1.493643	0.166522	0.322778
H191	H	1.001206	-0.247594	-0.137488
H192	H	1.501206	0.252406	0.362512
H193	H	1.050691	-0.370902	-0.204558
H194	H	1.550691	0.129098	0.295442
H195	H	0.951443	-0.303041	-0.226751
H196	H	1.451443	0.196959	0.273249
O197	O	0.824337	-0.225501	-0.131484
O198	O	1.324337	0.274499	0.368516
C199	C	0.876225	-0.162307	-0.176724
C200	C	1.376225	0.337693	0.323276
H201	H	0.936681	-0.204120	-0.161901
H202	H	1.436681	0.295880	0.338099
H203	H	0.864971	-0.176075	-0.242911
H204	H	1.364971	0.323925	0.257089
H205	H	0.868980	-0.055628	-0.161945
H206	H	1.368980	0.444372	0.338055
H207	H	0.802497	0.329326	0.785728
H208	H	1.302497	0.829326	1.285728
