data_functionalizedCrystal
_audit_creation_method	'MofGen! by Chris Wilmer'
_symmetry_space_group_name_H-M	'P1'
_symmetry_Int_Tables_number	1
_symmetry_cell_setting	triclinic
loop_
_symmetry_equiv_pos_as_xyz
  x,y,z
_cell_length_a	25.639243
_cell_length_b	25.639240
_cell_length_c	16.120297
_cell_angle_alpha	92.861830
_cell_angle_beta	92.875565
_cell_angle_gamma	90.035481
loop_
_atom_site_label
_atom_site_type_symbol
_atom_site_fract_x
_atom_site_fract_y
_atom_site_fract_z
Zn1	Zn	0.784287	-0.223117	-0.471380
Zn2	Zn	1.284287	0.276883	0.028620
Zn3	Zn	0.788644	-0.306116	-0.331947
Zn4	Zn	1.288644	0.193884	0.168053
Zn5	Zn	0.701287	-0.218702	-0.331979
Zn6	Zn	1.201287	0.281298	0.168021
Zn7	Zn	0.696820	-0.310525	-0.471305
Zn8	Zn	1.196820	0.189475	0.028695
O9	O	0.742760	-0.264615	-0.401653
O10	O	1.242760	0.235385	0.098347
O11	O	0.858029	-0.234129	-0.452902
O12	O	1.358029	0.265871	0.047098
O13	O	0.780750	-0.290828	-0.215289
O14	O	1.280750	0.209172	0.284711
O15	O	0.712343	-0.146124	-0.350516
O16	O	1.212343	0.353876	0.149484
O17	O	0.861231	-0.295109	-0.350461
O18	O	1.361231	0.204891	0.149539
O19	O	0.773323	-0.149367	-0.452933
O20	O	1.273323	0.350633	0.047067
O21	O	0.716569	-0.226605	-0.215313
O22	O	1.216569	0.273395	0.284687
O23	O	0.627530	-0.230880	-0.350443
O24	O	1.127530	0.269120	0.149557
O25	O	0.704729	-0.302622	-0.587976
O26	O	1.204729	0.197378	-0.087976
O27	O	0.624248	-0.298341	-0.452805
O28	O	1.124248	0.201659	0.047195
O29	O	0.768991	-0.238404	-0.588032
O30	O	1.268991	0.261596	-0.088032
O31	O	0.776418	-0.379865	-0.350388
O32	O	1.276418	0.120135	0.149612
O33	O	0.708954	-0.383104	-0.452774
O34	O	1.208954	0.116896	0.047226
C35	C	0.606918	-0.264610	-0.401619
C36	C	1.106918	0.235390	0.098381
C37	C	0.548804	-0.264621	-0.401625
C38	C	1.048804	0.235379	0.098375
C39	C	0.742688	-0.400455	-0.401587
C40	C	1.242688	0.099545	0.098413
C41	C	0.742704	-0.458569	-0.401587
C42	C	1.242704	0.041431	0.098413
C43	C	0.186764	-0.232918	-0.455082
C44	C	0.686764	0.267082	0.044918
C45	C	0.132160	-0.232918	-0.455088
C46	C	0.632160	0.267082	0.044912
O47	O	0.102499	-0.205952	-0.500498
O48	O	0.602499	0.294048	-0.000498
N49	N	0.106520	-0.264614	-0.401675
N50	N	0.606520	0.235386	0.098325
C51	C	0.135487	-0.296308	-0.348249
C52	C	0.635487	0.203692	0.151751
O53	O	0.108664	-0.323268	-0.302817
O54	O	0.608664	0.176732	0.197183
C55	C	0.190091	-0.296306	-0.348240
C56	C	0.690091	0.203694	0.151760
C57	C	0.215728	-0.264611	-0.401662
C58	C	0.715728	0.235389	0.098338
C59	C	0.212402	-0.201226	-0.508499
C60	C	0.712402	0.298774	-0.008499
C61	C	0.267002	-0.201227	-0.508495
C62	C	0.767002	0.298773	-0.008495
C63	C	0.295966	-0.232920	-0.455074
C64	C	0.795966	0.267080	0.044926
C65	C	0.270328	-0.264613	-0.401657
C66	C	0.770328	0.235387	0.098343
C67	C	0.219057	-0.327997	-0.294810
C68	C	0.719057	0.172003	0.205190
C69	C	0.273664	-0.327991	-0.294805
C70	C	0.773664	0.172009	0.205195
C71	C	0.299301	-0.296297	-0.348227
C72	C	0.799301	0.203703	0.151773
C73	C	0.353893	-0.296307	-0.348232
C74	C	0.853893	0.203693	0.151768
N75	N	0.379533	-0.264611	-0.401644
N76	N	0.879533	0.235389	0.098356
C77	C	0.350569	-0.232918	-0.455065
C78	C	0.850569	0.267082	0.044935
C79	C	0.020816	-0.296311	-0.348270
C80	C	0.520816	0.203689	0.151730
C81	C	-0.033787	-0.296317	-0.348282
C82	C	0.466213	0.203683	0.151718
C83	C	-0.037110	-0.232926	-0.455120
C84	C	0.462890	0.267074	0.044880
C85	C	0.017493	-0.232923	-0.455112
C86	C	0.517493	0.267077	0.044888
C87	C	0.046456	-0.264615	-0.401682
C88	C	0.546456	0.235385	0.098318
C89	C	0.465235	-0.232923	-0.455053
C90	C	0.965235	0.267077	0.044947
C91	C	0.519840	-0.232928	-0.455046
C92	C	1.019840	0.267072	0.044954
C93	C	0.523159	-0.296317	-0.348205
C94	C	1.023159	0.203683	0.151795
C95	C	0.468558	-0.296314	-0.348215
C96	C	0.968558	0.203686	0.151785
C97	C	0.439597	-0.264613	-0.401641
C98	C	0.939597	0.235387	0.098359
O99	O	0.383587	-0.323258	-0.302843
O100	O	0.883587	0.176742	0.197157
O101	O	0.377400	-0.205957	-0.500481
O102	O	0.877400	0.294043	-0.000481
C103	C	0.774525	-0.820588	-0.455077
C104	C	1.274525	-0.320588	0.044923
C105	C	0.774540	-0.875193	-0.455094
C106	C	1.274540	-0.375193	0.044906
O107	O	0.801510	-0.904835	-0.500507
O108	O	1.301510	-0.404835	-0.000507
N109	N	0.742830	-0.900856	-0.401733
N110	N	1.242830	-0.400856	0.098267
C111	C	0.711098	-0.871912	-0.348357
C112	C	1.211098	-0.371912	0.151643
O113	O	0.684127	-0.898755	-0.302972
O114	O	1.184127	-0.398755	0.197028
C115	C	0.711081	-0.817309	-0.348345
C116	C	1.211081	-0.317309	0.151655
C117	C	0.742797	-0.791648	-0.401704
C118	C	1.242797	-0.291648	0.098296
C119	C	0.806239	-0.794927	-0.508433
C120	C	1.306239	-0.294927	-0.008433
C121	C	0.806224	-0.740326	-0.508414
C122	C	1.306224	-0.240326	-0.008414
C123	C	0.774497	-0.711386	-0.455041
C124	C	1.274497	-0.211386	0.044959
C125	C	0.742783	-0.737047	-0.401686
C126	C	1.242783	-0.237047	0.098314
C127	C	0.679347	-0.788366	-0.294974
C128	C	1.179347	-0.288366	0.205026
C129	C	0.679332	-0.733759	-0.294967
C130	C	1.179332	-0.233759	0.205033
C131	C	0.711049	-0.708098	-0.348326
C132	C	1.211049	-0.208098	0.151674
C133	C	0.711041	-0.653505	-0.348294
C134	C	1.211041	-0.153505	0.151706
N135	N	0.742752	-0.627842	-0.401655
N136	N	1.242752	-0.127842	0.098345
C137	C	0.774479	-0.656782	-0.455029
C138	C	1.274479	-0.156782	0.044971
C139	C	0.711136	-0.986584	-0.348388
C140	C	1.211136	-0.486584	0.151612
C141	C	0.711156	-1.041186	-0.348395
C142	C	1.211156	-0.541186	0.151605
C143	C	0.774597	-1.044463	-0.455134
C144	C	1.274597	-0.544463	0.044866
C145	C	0.774580	-0.989860	-0.455121
C146	C	1.274580	-0.489860	0.044879
C147	C	0.742847	-0.960920	-0.401749
C148	C	1.242847	-0.460920	0.098251
C149	C	0.774447	-0.542116	-0.454986
C150	C	1.274447	-0.042116	0.045014
C151	C	0.774432	-0.487509	-0.454961
C152	C	1.274432	0.012491	0.045039
C153	C	0.710989	-0.484238	-0.348226
C154	C	1.210989	0.015762	0.151774
C155	C	0.711006	-0.538839	-0.348248
C156	C	1.211006	-0.038839	0.151752
C157	C	0.742737	-0.567777	-0.401635
C158	C	1.242737	-0.067777	0.098365
O159	O	0.684084	-0.623829	-0.302908
O160	O	1.184084	-0.123829	0.197092
O161	O	0.801441	-0.629933	-0.500415
O162	O	1.301441	-0.129933	-0.000415
C163	C	0.879131	-0.264620	-0.401686
C164	C	1.379131	0.235380	0.098314
C165	C	0.937245	-0.264622	-0.401701
C166	C	1.437245	0.235378	0.098299
C167	C	0.735876	-0.271498	-0.619099
C168	C	1.235876	0.228502	-0.119099
C169	C	0.732942	-0.274431	-0.711761
C170	C	1.232942	0.225569	-0.211761
C171	C	0.742845	-0.128244	-0.401736
C172	C	1.242845	0.371756	0.098264
C173	C	0.742882	-0.070131	-0.401772
C174	C	1.242882	0.429869	0.098228
C175	C	0.727567	-0.279774	-0.881417
C176	C	1.227567	0.220226	-0.381417
C177	C	0.758055	-0.249299	-0.922740
C178	C	1.258055	0.250701	-0.422740
C179	C	0.755065	-0.252272	-1.017142
C180	C	1.255065	0.247728	-0.517142
C181	C	0.730557	-0.276801	-0.787006
C182	C	1.230557	0.223199	-0.287006
C183	C	0.749647	-0.257721	-0.185052
C184	C	1.249647	0.242279	0.314948
C185	C	0.752682	-0.254641	-0.092390
C186	C	1.252682	0.245359	0.407610
H187	H	0.540711	-0.207119	-0.498551
H188	H	1.040711	0.292881	0.001449
H189	H	0.699221	-0.308095	-0.916935
H190	H	1.199221	0.191905	-0.416935
H191	H	0.038363	-0.207114	-0.498611
H192	H	0.538363	0.292886	0.001389
H193	H	0.800282	-0.565671	-0.498464
H194	H	1.300282	-0.065671	0.001536
H195	H	0.800261	-0.466618	-0.498412
H196	H	1.300261	0.033382	0.001588
H197	H	0.685297	-0.963024	-0.304919
H198	H	1.185297	-0.463024	0.195081
H199	H	0.441661	-0.207107	-0.498555
H200	H	0.941661	0.292893	0.001445
H201	H	0.287871	-0.175418	-0.551995
H202	H	0.787871	0.324582	-0.051995
H203	H	0.685158	-0.460666	-0.304767
H204	H	1.185158	0.039334	0.195233
H205	H	0.786403	-0.220976	-0.887220
H206	H	1.286403	0.279024	-0.387220
H207	H	0.188825	-0.175415	-0.552001
H208	H	0.688825	0.324585	-0.052001
H209	H	-0.060702	-0.207118	-0.498617
H210	H	0.439298	0.292882	0.001383
H211	H	-0.054656	-0.322132	-0.304790
H212	H	0.445344	0.177868	0.195210
H213	H	0.044394	-0.322124	-0.304764
H214	H	0.544394	0.177876	0.195236
H215	H	0.198193	-0.353805	-0.251307
H216	H	0.698193	0.146195	0.248693
H217	H	0.297243	-0.353798	-0.251294
H218	H	0.797243	0.146202	0.248706
H219	H	0.653520	-0.809249	-0.251524
H220	H	1.153520	-0.309249	0.248476
H221	H	0.546751	-0.322122	-0.304713
H222	H	1.046751	0.177878	0.195287
H223	H	0.832049	-0.719436	-0.551866
H224	H	1.332049	-0.219436	-0.051866
H225	H	0.447683	-0.322128	-0.304724
H226	H	0.947683	0.177872	0.195276
H227	H	0.800406	-0.968970	-0.498571
H228	H	1.300406	-0.468970	0.001429
H229	H	0.685184	-0.559733	-0.304792
H230	H	1.185184	-0.059733	0.195208
H231	H	0.653490	-0.710199	-0.251506
H232	H	1.153490	-0.210199	0.248494
H233	H	0.832075	-0.818485	-0.551901
H234	H	1.332075	-0.318485	-0.051901
H235	H	0.800431	-1.068036	-0.498595
H236	H	1.300431	-0.568036	0.001405
H237	H	0.685335	-1.062074	-0.304936
H238	H	1.185335	-0.562074	0.195064
