data_functionalizedCrystal
_audit_creation_method	'MofGen! by Chris Wilmer'
_symmetry_space_group_name_H-M	'P1'
_symmetry_Int_Tables_number	1
_symmetry_cell_setting	triclinic
loop_
_symmetry_equiv_pos_as_xyz
  x,y,z
_cell_length_a	27.732064
_cell_length_b	12.503572
_cell_length_c	14.044220
_cell_angle_alpha	86.156832
_cell_angle_beta	92.080849
_cell_angle_gamma	86.518485
loop_
_atom_site_label
_atom_site_type_symbol
_atom_site_fract_x
_atom_site_fract_y
_atom_site_fract_z
O1	O	0.648759	-0.089130	-0.107280
O2	O	0.508771	-0.089174	-0.124400
O3	O	0.576663	-0.089142	0.022113
O4	O	0.580866	-0.089162	-0.253793
O5	O	0.571558	0.089498	0.011077
O6	O	0.503666	0.089465	-0.135436
O7	O	0.643654	0.089510	-0.118317
Cu8	Cu	0.573194	0.105799	-0.127885
Cu9	Cu	0.579231	-0.105463	-0.114832
O10	O	0.575761	0.089478	-0.264830
C11	C	0.488195	0.000140	-0.129556
C12	C	0.434490	0.000123	-0.128465
C13	C	0.053004	0.000191	-0.034469
C14	C	0.254853	0.000163	-0.038478
O15	O	0.282682	0.000208	0.034461
N16	N	0.278058	0.000152	-0.125358
C17	C	0.250797	0.000155	-0.211242
O18	O	0.275166	0.000156	-0.285232
C19	C	0.048949	0.000191	-0.207233
C20	C	0.025747	0.000191	-0.120347
C21	C	0.029802	0.000193	0.052410
C22	C	-0.020657	0.000194	0.053411
C23	C	-0.047914	0.000194	-0.032466
C24	C	-0.024712	0.000192	-0.119346
C25	C	0.021689	0.000202	-0.293117
C26	C	-0.028776	0.000213	-0.292108
C27	C	-0.051978	0.000214	-0.205221
C28	C	-0.102428	0.000193	-0.204222
N29	N	-0.125633	0.000204	-0.117342
C30	C	-0.098376	0.000205	-0.031464
C31	C	0.356771	0.000134	-0.213341
C32	C	0.407233	0.000123	-0.214343
C33	C	0.411285	0.000133	-0.041578
C34	C	0.360823	0.000136	-0.040576
C35	C	0.333566	0.000145	-0.126461
C36	C	-0.204344	0.000206	-0.029367
C37	C	-0.254808	0.000203	-0.028373
C38	C	-0.258856	0.000199	-0.201138
C39	C	-0.208397	0.000196	-0.202132
C40	C	-0.181142	0.000204	-0.116240
O41	O	-0.130287	0.000160	-0.277122
O42	O	-0.122754	0.000227	0.042513
C43	C	0.103463	0.000190	-0.035471
C44	C	0.126665	0.000189	-0.122350
C45	C	0.099408	0.000189	-0.208228
C46	C	0.177127	0.000178	-0.123352
C47	C	0.204384	0.000178	-0.037475
C48	C	0.181179	0.000189	0.049405
C49	C	0.130720	0.000190	0.050407
C50	C	0.122613	0.000178	-0.295108
C51	C	0.173073	0.000175	-0.296102
C52	C	0.200330	0.000175	-0.210225
C53	C	0.572271	0.000178	0.051883
C54	C	0.566784	0.000177	0.157029
C55	C	0.664230	0.000193	-0.113161
C56	C	0.717935	0.000203	-0.114251
N57	N	0.568951	0.254389	-0.137064
N58	N	0.583477	-0.254053	-0.105645
C59	C	0.562710	0.473501	-0.150576
C60	C	0.589717	0.526841	-0.092137
C61	C	0.586244	0.648763	-0.099655
C62	C	0.566182	0.351569	-0.143059
C63	C	0.580153	0.000156	-0.294599
C64	C	0.585641	0.000149	-0.399745
C65	C	0.556753	0.000159	0.349546
C66	C	0.595670	0.000168	0.407744
C67	C	0.590088	0.000157	0.514867
C68	C	0.562334	0.000169	0.242413
H69	H	-0.182159	0.000212	0.040575
C70	C	-0.046174	0.000214	0.148986
H71	H	-0.022708	0.000226	0.199979
H72	H	-0.064002	-0.062074	0.156830
H73	H	-0.067546	0.062525	0.149118
C74	C	0.506084	0.000151	0.390913
H75	H	0.508933	0.000158	0.458529
H76	H	0.490807	-0.062143	0.373718
H77	H	0.487256	0.062456	0.366031
H78	H	-0.281058	0.000193	-0.271057
C79	C	0.646342	0.000197	0.366380
H80	H	0.670026	0.000197	0.416985
H81	H	0.648349	0.062497	0.324481
H82	H	0.651915	-0.062102	0.332165
C83	C	0.105204	0.000202	0.145982
H84	H	0.128670	0.000211	0.196976
H85	H	0.087377	-0.062089	0.153821
H86	H	0.083830	0.062510	0.146119
H87	H	0.040571	0.000197	-0.363869
C88	C	0.527942	0.535496	-0.225769
H89	H	0.511446	0.485999	-0.261440
H90	H	0.545813	0.579381	-0.267572
H91	H	0.505106	0.579352	-0.194671
H92	H	-0.189505	0.000195	-0.272882
C93	C	-0.280327	0.000210	0.067205
H94	H	-0.256864	0.000221	0.118204
H95	H	-0.298153	-0.062083	0.075039
H96	H	-0.301703	0.062516	0.067339
H97	H	0.191959	0.000167	-0.366860
C98	C	0.335305	0.000147	0.054997
H99	H	0.358769	0.000151	0.105994
H100	H	0.317476	-0.062141	0.062831
H101	H	0.313932	0.062458	0.055134
H102	H	0.615447	0.480941	-0.036460
C103	C	0.211168	0.000194	0.143868
H104	H	0.244543	0.000200	0.130817
H105	H	0.205511	-0.062096	0.183379
H106	H	0.201958	0.062503	0.175673
H107	H	0.051989	0.000196	0.122346
H108	H	0.426120	0.000108	-0.285093
C109	C	0.441274	0.000142	0.052885
H110	H	0.474649	0.000144	0.039835
H111	H	0.435615	-0.062144	0.092400
H112	H	0.432064	0.062455	0.084685
C113	C	-0.058756	0.000212	-0.386582
H114	H	-0.037707	0.000201	-0.438465
H115	H	-0.080302	0.062506	-0.393634
H116	H	-0.076747	-0.062093	-0.385936
H117	H	0.334583	0.000140	-0.283282
C118	C	0.092637	0.000168	-0.389578
H119	H	0.113689	0.000153	-0.441457
H120	H	0.071090	0.062460	-0.396638
H121	H	0.074647	-0.062139	-0.388930
