data_functionalizedCrystal
_audit_creation_method	'MofGen! by Chris Wilmer'
_symmetry_space_group_name_H-M	'P1'
_symmetry_Int_Tables_number	1
_symmetry_cell_setting	triclinic
loop_
_symmetry_equiv_pos_as_xyz
  x,y,z
_cell_length_a	17.000371
_cell_length_b	17.038272
_cell_length_c	15.500346
_cell_angle_alpha	92.974377
_cell_angle_beta	93.369380
_cell_angle_gamma	83.355402
loop_
_atom_site_label
_atom_site_type_symbol
_atom_site_fract_x
_atom_site_fract_y
_atom_site_fract_z
O1	O	1.061505	0.031029	0.071947
O2	O	1.561505	0.531029	0.571947
O3	O	0.831685	0.059274	0.071948
O4	O	1.331685	0.559274	0.571948
O5	O	0.945229	-0.068571	0.071941
O6	O	1.445229	0.431429	0.571941
O7	O	0.947961	0.158873	0.071955
O8	O	1.447961	0.658873	0.571955
O9	O	0.938211	-0.074546	-0.071946
O10	O	1.438211	0.425454	0.428054
O11	O	0.824667	0.053299	-0.071938
O12	O	1.324667	0.553299	0.428062
O13	O	1.054488	0.025054	-0.071939
O14	O	1.554488	0.525054	0.428061
Cu15	Cu	0.938937	0.038631	-0.085077
Cu16	Cu	1.438937	0.538631	0.414923
Cu17	Cu	0.947236	0.045697	0.085086
Cu18	Cu	1.447236	0.545697	0.585086
O19	O	0.940944	0.152898	-0.071932
O20	O	1.440944	0.652898	0.428068
C21	C	0.798625	0.057803	0.000005
C22	C	1.298625	0.557803	0.500005
C23	C	0.710572	0.062314	0.000005
C24	C	1.210572	0.562314	0.500005
C25	C	0.673845	-0.007108	-0.000000
C26	C	1.173845	0.492892	0.500000
C27	C	0.591110	-0.002864	0.000006
C28	C	1.091110	0.497136	0.500006
C29	C	0.545103	0.070802	0.000012
C30	C	1.045103	0.570802	0.500012
C31	C	0.581835	0.140230	0.000021
C32	C	1.081835	0.640230	0.500021
C33	C	0.664569	0.135985	0.000020
C34	C	1.164569	0.635985	0.500020
C35	C	0.295067	0.087196	0.000019
C36	C	0.795067	0.587196	0.500019
C37	C	0.212327	0.091435	0.000017
C38	C	0.712327	0.591435	0.500017
C39	C	0.221609	-0.051659	0.000004
C40	C	0.721609	0.448341	0.500004
C41	C	0.304344	-0.055897	-0.000001
C42	C	0.804344	0.444103	0.499999
C43	C	0.341069	0.013531	0.000011
C44	C	0.841069	0.513531	0.500011
C45	C	0.460534	0.075142	0.000016
C46	C	0.960534	0.575142	0.500016
C47	C	0.425637	0.009191	0.000014
C48	C	0.925637	0.509191	0.500014
C49	C	0.939235	-0.100517	-0.000002
C50	C	1.439235	0.399483	0.499998
C51	C	0.931823	-0.186802	-0.000002
C52	C	1.431823	0.313198	0.499998
C53	C	0.999881	-0.241577	-0.000003
C54	C	1.499881	0.258423	0.499997
C55	C	0.992912	-0.322650	0.000005
C56	C	1.492912	0.177350	0.500005
C57	C	0.917883	-0.348946	0.000008
C58	C	1.417883	0.151054	0.500008
C59	C	0.849819	-0.294164	0.000012
C60	C	1.349819	0.205836	0.500012
C61	C	0.856790	-0.213092	0.000010
C62	C	1.356790	0.286908	0.500010
C63	C	0.893257	-0.593017	0.000020
C64	C	1.393257	-0.093017	0.500020
C65	C	0.886292	-0.674095	0.000020
C66	C	1.386292	-0.174095	0.500020
C67	C	1.029385	-0.702576	0.000014
C68	C	1.529385	-0.202576	0.500014
C69	C	1.036349	-0.621502	0.000007
C70	C	1.536349	-0.121502	0.500007
C71	C	0.968285	-0.566727	0.000015
C72	C	1.468285	-0.066727	0.500015
C73	C	0.910757	-0.431815	0.000014
C74	C	1.410757	0.068185	0.500014
C75	C	0.975412	-0.483859	0.000016
C76	C	1.475412	0.016141	0.500016
C77	C	1.087547	0.026524	0.000006
C78	C	1.587547	0.526524	0.500006
C79	C	1.175601	0.022013	0.000011
C80	C	1.675601	0.522013	0.500011
C81	C	0.946937	0.184844	0.000013
C82	C	1.446937	0.684844	0.500013
C83	C	0.954350	0.271129	0.000018
C84	C	1.454350	0.771129	0.500018
N85	N	0.933106	0.033660	-0.204760
N86	N	1.433106	0.533660	0.295240
C87	C	0.904034	0.008631	-0.749940
C88	C	1.404034	0.508631	-0.249940
C89	C	0.908441	0.012421	-0.659368
C90	C	1.408441	0.512421	-0.159368
C91	C	0.961883	0.058245	-0.614090
C92	C	1.461883	0.558245	-0.114090
C93	C	1.010927	0.100277	-0.659387
C94	C	1.510927	0.600277	-0.159387
C95	C	1.006523	0.096482	-0.749957
C96	C	1.506523	0.596482	-0.249957
C97	C	0.977746	0.071896	-0.340628
C98	C	1.477746	0.571896	0.159372
C99	C	0.982144	0.075690	-0.250051
C100	C	1.482144	0.575690	0.249949
C101	C	0.879659	-0.012168	-0.250038
C102	C	1.379659	0.487832	0.249962
C103	C	0.875257	-0.015955	-0.340610
C104	C	1.375257	0.484045	0.159390
C105	C	0.924303	0.026073	-0.385900
C106	C	1.424303	0.526073	0.114100
C107	C	0.966387	0.062122	-0.521511
C108	C	1.466387	0.562122	-0.021511
C109	C	0.919803	0.022192	-0.478477
C110	C	1.419803	0.522192	0.021523
N111	N	0.953073	0.050661	0.204769
N112	N	1.453073	0.550661	0.704769
H113	H	0.191698	-0.108182	0.000003
H114	H	0.691698	0.391818	0.500003
H115	H	1.017683	0.106120	-0.377492
H116	H	1.517683	0.606120	0.122508
Br117	Br	1.054698	0.137861	-0.188602
Br118	Br	1.554698	0.637861	0.311398
H119	H	0.876293	-0.015122	-0.515346
H120	H	1.376293	0.484878	-0.015346
H121	H	0.868511	-0.021807	-0.622496
H122	H	1.368511	0.478193	-0.122496
H123	H	0.561211	-0.059395	0.000002
H124	H	1.061211	0.440605	0.500002
Br125	Br	1.121751	-0.776917	0.000003
Br126	Br	1.621751	-0.276917	0.500003
Br127	Br	0.488076	-0.090781	0.000011
Br128	Br	0.988076	0.409219	0.500011
Br129	Br	0.344898	0.181420	0.000038
Br130	Br	0.844898	0.681420	0.500038
H131	H	1.054444	0.137584	-0.622515
H132	H	1.554444	0.637584	-0.122515
H133	H	1.046456	0.130707	-0.786832
H134	H	1.546456	0.630707	-0.286832
H135	H	0.423065	0.135121	0.000020
H136	H	0.923065	0.635121	0.500020
Br137	Br	1.101710	-0.205899	-0.000020
Br138	Br	1.601710	0.294101	0.499980
Br139	Br	0.714413	0.230205	0.000036
Br140	Br	1.214413	0.730205	0.500036
H141	H	1.048332	-0.367246	0.000002
H142	H	1.548332	0.132754	0.500002
H143	H	1.097445	-0.600099	0.000004
H144	H	1.597445	-0.100099	0.500004
H145	H	1.009899	0.099434	-0.484635
H146	H	1.509899	0.599434	0.015365
H147	H	0.825191	-0.695501	0.000008
H148	H	1.325191	-0.195501	0.500008
Br149	Br	0.831497	-0.053557	-0.811380
Br150	Br	1.331497	0.446443	-0.311380
Br151	Br	0.800885	-0.518689	0.000037
Br152	Br	1.300885	-0.018689	0.500037
Br153	Br	0.764421	-0.138752	0.000019
Br154	Br	1.264421	0.361248	0.500019
Br155	Br	0.366777	-0.155876	-0.000020
Br156	Br	0.866777	0.344124	0.499980
H157	H	0.788729	-0.315580	0.000020
H158	H	1.288729	0.184420	0.500020
H159	H	0.831740	-0.053272	-0.377470
H160	H	1.331740	0.446728	0.122530
H161	H	1.036501	-0.462444	0.000032
H162	H	1.536501	0.037556	0.500032
Br163	Br	0.813101	-0.069204	-0.188569
Br164	Br	1.313101	0.430796	0.311431
H165	H	0.711299	-0.067095	-0.000009
H166	H	1.211299	0.432905	0.499991
Br167	Br	0.519397	0.240207	0.000041
Br168	Br	1.019397	0.740207	0.500041
H169	H	0.849668	-0.453235	0.000015
H170	H	1.349668	0.046765	0.500015
H171	H	0.174869	0.151426	0.000018
H172	H	0.674869	0.651426	0.500018
