data_functionalizedCrystal
_audit_creation_method	'MofGen! by Chris Wilmer'
_symmetry_space_group_name_H-M	'P1'
_symmetry_Int_Tables_number	1
_symmetry_cell_setting	triclinic
loop_
_symmetry_equiv_pos_as_xyz
  x,y,z
_cell_length_a	23.532407
_cell_length_b	23.532407
_cell_length_c	22.010155
_cell_angle_alpha	90.000423
_cell_angle_beta	89.996931
_cell_angle_gamma	97.151322
loop_
_atom_site_label
_atom_site_type_symbol
_atom_site_fract_x
_atom_site_fract_y
_atom_site_fract_z
O1	O	0.755264	-0.069127	-0.050455
O2	O	1.005264	0.180873	0.199545
O3	O	1.255264	0.430873	0.449545
O4	O	1.505264	0.680873	0.699545
O5	O	0.589400	-0.079130	-0.050474
O6	O	0.839400	0.170870	0.199526
O7	O	1.089400	0.420870	0.449526
O8	O	1.339400	0.670870	0.699526
O9	O	0.677334	0.008803	-0.050453
O10	O	0.927334	0.258803	0.199547
O11	O	1.177334	0.508803	0.449547
O12	O	1.427334	0.758803	0.699547
O13	O	0.667330	-0.157060	-0.050476
O14	O	0.917330	0.092940	0.199524
O15	O	1.167330	0.342940	0.449524
O16	O	1.417330	0.592940	0.699524
O17	O	0.677318	0.008790	0.050597
O18	O	0.927318	0.258790	0.300597
O19	O	1.177318	0.508790	0.550597
O20	O	1.427318	0.758790	0.800597
O21	O	0.589384	-0.079143	0.050576
O22	O	0.839384	0.170857	0.300576
O23	O	1.089384	0.420857	0.550576
O24	O	1.339384	0.670857	0.800576
O25	O	0.755248	-0.069140	0.050595
O26	O	1.005248	0.180860	0.300595
O27	O	1.255248	0.430860	0.550595
O28	O	1.505248	0.680860	0.800595
Cu29	Cu	0.672315	-0.074143	0.059812
Cu30	Cu	0.922315	0.175857	0.309812
Cu31	Cu	1.172315	0.425857	0.559812
Cu32	Cu	1.422315	0.675857	0.809812
Cu33	Cu	0.672333	-0.074127	-0.059691
Cu34	Cu	0.922333	0.175873	0.190309
Cu35	Cu	1.172333	0.425873	0.440309
Cu36	Cu	1.422333	0.675873	0.690309
O37	O	0.667314	-0.157073	0.050574
O38	O	0.917314	0.092927	0.300574
O39	O	1.167314	0.342927	0.550574
O40	O	1.417314	0.592927	0.800574
C41	C	0.568176	-0.078882	0.000049
C42	C	0.818176	0.171118	0.250049
C43	C	1.068176	0.421118	0.500049
C44	C	1.318176	0.671118	0.750049
C45	C	0.504959	-0.078116	0.000042
C46	C	0.754959	0.171884	0.250042
C47	C	1.004959	0.421884	0.500042
C48	C	1.254959	0.671884	0.750042
C49	C	0.105856	-0.125350	0.000063
C50	C	0.355856	0.124650	0.250063
C51	C	0.605856	0.374650	0.500063
C52	C	0.855856	0.624650	0.750063
C53	C	0.046456	-0.124638	0.000067
C54	C	0.296456	0.125362	0.250067
C55	C	0.546456	0.375362	0.500067
C56	C	0.796456	0.625362	0.750067
O57	O	0.009711	-0.168424	0.000083
O58	O	0.259711	0.081576	0.250083
O59	O	0.509711	0.331576	0.500083
O60	O	0.759711	0.581576	0.750083
N61	N	0.023830	-0.072362	0.000073
N62	N	0.273830	0.177638	0.250073
N63	N	0.523830	0.427638	0.500073
N64	N	0.773830	0.677638	0.750073
C65	C	0.060607	-0.020794	0.000082
C66	C	0.310607	0.229206	0.250082
C67	C	0.560607	0.479206	0.500082
C68	C	0.810607	0.729206	0.750082
O69	O	0.035908	0.023737	0.000088
O70	O	0.285908	0.273737	0.250088
O71	O	0.535908	0.523737	0.500088
O72	O	0.785908	0.773737	0.750088
C73	C	0.120006	-0.021506	0.000082
C74	C	0.370006	0.228494	0.250082
C75	C	0.620006	0.478494	0.500082
C76	C	0.870006	0.728494	0.750082
C77	C	0.142629	-0.073785	0.000070
C78	C	0.392629	0.176215	0.250070
C79	C	0.642629	0.426215	0.500070
C80	C	0.892629	0.676215	0.750070
C81	C	0.128479	-0.177625	0.000051
C82	C	0.378479	0.072375	0.250051
C83	C	0.628479	0.322375	0.500051
C84	C	0.878479	0.572375	0.750051
C85	C	0.187876	-0.178336	0.000046
C86	C	0.437876	0.071664	0.250046
C87	C	0.687876	0.321664	0.500046
C88	C	0.937876	0.571664	0.750046
C89	C	0.224649	-0.126772	0.000053
C90	C	0.474649	0.123228	0.250053
C91	C	0.724649	0.373228	0.500053
C92	C	0.974649	0.623228	0.750053
C93	C	0.202025	-0.074497	0.000065
C94	C	0.452025	0.175503	0.250065
C95	C	0.702025	0.425503	0.500065
C96	C	0.952025	0.675503	0.750065
C97	C	0.156783	0.030062	0.000096
C98	C	0.406783	0.280062	0.250096
C99	C	0.656783	0.530062	0.500096
C100	C	0.906783	0.780062	0.750096
C101	C	0.216185	0.029345	0.000097
C102	C	0.466185	0.279345	0.250097
C103	C	0.716185	0.529345	0.500097
C104	C	0.966185	0.779345	0.750097
C105	C	0.238808	-0.022934	0.000084
C106	C	0.488808	0.227066	0.250084
C107	C	0.738808	0.477066	0.500084
C108	C	0.988808	0.727066	0.750084
C109	C	0.298194	-0.023643	0.000067
C110	C	0.548194	0.226357	0.250067
C111	C	0.798194	0.476357	0.500067
C112	C	1.048194	0.726357	0.750067
N113	N	0.320820	-0.075920	0.000061
N114	N	0.570820	0.174080	0.250061
N115	N	0.820820	0.424080	0.500061
N116	N	1.070820	0.674080	0.750061
C117	C	0.284048	-0.127484	0.000054
C118	C	0.534048	0.122516	0.250054
C119	C	0.784048	0.372516	0.500054
C120	C	1.034048	0.622516	0.750054
C121	C	-0.064135	-0.019302	0.000082
C122	C	0.185865	0.230698	0.250082
C123	C	0.435865	0.480698	0.500082
C124	C	0.685865	0.730698	0.750082
C125	C	-0.123533	-0.018589	0.000077
C126	C	0.126467	0.231411	0.250077
C127	C	0.376467	0.481411	0.500077
C128	C	0.626467	0.731411	0.750077
C129	C	-0.137680	-0.122434	0.000063
C130	C	0.112320	0.127566	0.250063
C131	C	0.362320	0.377566	0.500063
C132	C	0.612320	0.627566	0.750063
C133	C	-0.078281	-0.123146	0.000064
C134	C	0.171719	0.126854	0.250064
C135	C	0.421719	0.376854	0.500064
C136	C	0.671719	0.626854	0.750064
C137	C	-0.041509	-0.071578	0.000076
C138	C	0.208491	0.178422	0.250076
C139	C	0.458491	0.428422	0.500076
C140	C	0.708491	0.678422	0.750076
C141	C	0.408784	-0.128974	0.000043
C142	C	0.658784	0.121026	0.250043
C143	C	0.908784	0.371026	0.500043
C144	C	1.158784	0.621026	0.750043
C145	C	0.468186	-0.129680	0.000035
C146	C	0.718186	0.120320	0.250035
C147	C	0.968186	0.370320	0.500035
C148	C	1.218186	0.620320	0.750035
C149	C	0.482329	-0.025836	0.000052
C150	C	0.732329	0.224164	0.250052
C151	C	0.982329	0.474164	0.500052
C152	C	1.232329	0.724164	0.750052
C153	C	0.422932	-0.025129	0.000057
C154	C	0.672932	0.224871	0.250057
C155	C	0.922932	0.474871	0.500057
C156	C	1.172932	0.724871	0.750057
C157	C	0.386160	-0.076702	0.000054
C158	C	0.636160	0.173298	0.250054
C159	C	0.886160	0.423298	0.500054
C160	C	1.136160	0.673298	0.750054
O161	O	0.334974	0.020119	0.000054
O162	O	0.584974	0.270119	0.250054
O163	O	0.834974	0.520119	0.500054
O164	O	1.084974	0.770119	0.750054
O165	O	0.308755	-0.172007	0.000055
O166	O	0.558755	0.077993	0.250055
O167	O	0.808755	0.327993	0.500055
O168	O	1.058755	0.577993	0.750055
C169	C	0.677071	0.030013	0.000074
C170	C	0.927071	0.280013	0.250074
C171	C	1.177071	0.530013	0.500074
C172	C	1.427071	0.780013	0.750074
C173	C	0.676305	0.093230	0.000078
C174	C	0.926305	0.343230	0.250078
C175	C	1.176305	0.593230	0.500078
C176	C	1.426305	0.843230	0.750078
C177	C	0.776472	-0.069388	0.000071
C178	C	1.026472	0.180612	0.250071
C179	C	1.276472	0.430612	0.500071
C180	C	1.526472	0.680612	0.750071
C181	C	0.839689	-0.070154	0.000073
C182	C	1.089689	0.179846	0.250073
C183	C	1.339689	0.429846	0.500073
C184	C	1.589689	0.679846	0.750073
C185	C	0.667577	-0.178283	0.000046
C186	C	0.917577	0.071717	0.250046
C187	C	1.167577	0.321717	0.500046
C188	C	1.417577	0.571717	0.750046
C189	C	0.668343	-0.241500	0.000037
C190	C	0.918343	0.008500	0.250037
C191	C	1.168343	0.258500	0.500037
C192	C	1.418343	0.508500	0.750037
N193	N	0.672305	-0.074153	0.143865
N194	N	0.922305	0.175847	0.393865
N195	N	1.172305	0.425847	0.643865
N196	N	1.422305	0.675847	0.893865
C197	C	0.723539	0.492333	0.000050
C198	C	0.973539	0.742333	0.250050
C199	C	1.223539	0.992333	0.500050
C200	C	1.473539	1.242333	0.750050
C201	C	0.722827	0.551733	0.000046
C202	C	0.972827	0.801733	0.250046
C203	C	1.222827	1.051733	0.500046
C204	C	1.472827	1.301733	0.750046
O205	O	0.766613	0.588478	0.000028
O206	O	1.016613	0.838478	0.250028
O207	O	1.266613	1.088478	0.500028
O208	O	1.516613	1.338478	0.750028
N209	N	0.670551	0.574359	0.000040
N210	N	0.920551	0.824359	0.250040
N211	N	1.170551	1.074359	0.500040
N212	N	1.420551	1.324359	0.750040
C213	C	0.618983	0.537582	0.000033
C214	C	0.868983	0.787582	0.250033
C215	C	1.118983	1.037582	0.500033
C216	C	1.368983	1.287582	0.750033
O217	O	0.574452	0.562281	0.000027
O218	O	0.824452	0.812281	0.250027
O219	O	1.074452	1.062281	0.500027
O220	O	1.324452	1.312281	0.750027
C221	C	0.619695	0.478182	0.000033
C222	C	0.869695	0.728182	0.250033
C223	C	1.119695	0.978182	0.500033
C224	C	1.369695	1.228182	0.750033
C225	C	0.671974	0.455560	0.000045
C226	C	0.921974	0.705560	0.250045
C227	C	1.171974	0.955560	0.500045
C228	C	1.421974	1.205560	0.750045
C229	C	0.775814	0.469710	0.000061
C230	C	1.025814	0.719710	0.250061
C231	C	1.275814	0.969710	0.500061
C232	C	1.525814	1.219710	0.750061
C233	C	0.776525	0.410313	0.000067
C234	C	1.026525	0.660313	0.250067
C235	C	1.276525	0.910313	0.500067
C236	C	1.526525	1.160313	0.750067
C237	C	0.724961	0.373540	0.000062
C238	C	0.974961	0.623540	0.250062
C239	C	1.224961	0.873540	0.500062
C240	C	1.474961	1.123540	0.750062
C241	C	0.672685	0.396164	0.000051
C242	C	0.922685	0.646164	0.250051
C243	C	1.172685	0.896164	0.500051
C244	C	1.422685	1.146164	0.750051
C245	C	0.568127	0.441406	0.000022
C246	C	0.818127	0.691406	0.250022
C247	C	1.068127	0.941406	0.500022
C248	C	1.318127	1.191406	0.750022
C249	C	0.568844	0.382004	0.000022
C250	C	0.818844	0.632004	0.250022
C251	C	1.068844	0.882004	0.500022
C252	C	1.318844	1.132004	0.750022
C253	C	0.621123	0.359381	0.000034
C254	C	0.871123	0.609381	0.250034
C255	C	1.121123	0.859381	0.500034
C256	C	1.371123	1.109381	0.750034
C257	C	0.621832	0.299995	0.000052
C258	C	0.871832	0.549995	0.250052
C259	C	1.121832	0.799995	0.500052
C260	C	1.371832	1.049995	0.750052
N261	N	0.674109	0.277368	0.000057
N262	N	0.924109	0.527368	0.250057
N263	N	1.174109	0.777368	0.500057
N264	N	1.424109	1.027368	0.750057
C265	C	0.725673	0.314141	0.000062
C266	C	0.975673	0.564141	0.250062
C267	C	1.225673	0.814141	0.500062
C268	C	1.475673	1.064141	0.750062
C269	C	0.617491	0.662324	0.000031
C270	C	0.867491	0.912324	0.250031
C271	C	1.117491	1.162324	0.500031
C272	C	1.367491	1.412324	0.750031
C273	C	0.616778	0.721722	0.000035
C274	C	0.866778	0.971722	0.250035
C275	C	1.116778	1.221722	0.500035
C276	C	1.366778	1.471722	0.750035
C277	C	0.720623	0.735869	0.000047
C278	C	0.970623	0.985869	0.250047
C279	C	1.220623	1.235869	0.500047
C280	C	1.470623	1.485869	0.750047
C281	C	0.721335	0.676470	0.000047
C282	C	0.971335	0.926470	0.250047
C283	C	1.221335	1.176470	0.500047
C284	C	1.471335	1.426470	0.750047
C285	C	0.669767	0.639698	0.000037
C286	C	0.919767	0.889698	0.250037
C287	C	1.169767	1.139698	0.500037
C288	C	1.419767	1.389698	0.750037
C289	C	0.727163	0.189405	0.000075
C290	C	0.977163	0.439405	0.250075
C291	C	1.227163	0.689405	0.500075
C292	C	1.477163	0.939405	0.750075
C293	C	0.727869	0.130003	0.000083
C294	C	0.977869	0.380003	0.250083
C295	C	1.227869	0.630003	0.500083
C296	C	1.477869	0.880003	0.750083
C297	C	0.624025	0.115860	0.000069
C298	C	0.874025	0.365860	0.250069
C299	C	1.124025	0.615860	0.500069
C300	C	1.374025	0.865860	0.750069
C301	C	0.623318	0.175257	0.000064
C302	C	0.873318	0.425257	0.250064
C303	C	1.123318	0.675257	0.500064
C304	C	1.373318	0.925257	0.750064
C305	C	0.674891	0.212029	0.000065
C306	C	0.924891	0.462029	0.250065
C307	C	1.174891	0.712029	0.500065
C308	C	1.424891	0.962029	0.750065
O309	O	0.578070	0.263215	0.000067
O310	O	0.828070	0.513215	0.250067
O311	O	1.078070	0.763215	0.500067
O312	O	1.328070	1.013215	0.750067
O313	O	0.770196	0.289433	0.000060
O314	O	1.020196	0.539433	0.250060
O315	O	1.270196	0.789433	0.500060
O316	O	1.520196	1.039433	0.750060
N317	N	0.672347	-0.074112	-0.143744
N318	N	0.922347	0.175888	0.106256
N319	N	1.172347	0.425888	0.356256
N320	N	1.422347	0.675888	0.606256
C321	C	0.711273	-0.035196	0.563653
C322	C	0.961273	0.214804	0.813653
C323	C	1.211273	0.464804	1.063653
C324	C	1.461273	0.714804	1.313653
C325	C	0.711275	-0.035192	0.627261
C326	C	0.961275	0.214808	0.877261
C327	C	1.211275	0.464808	1.127261
C328	C	1.461275	0.714808	1.377261
O329	O	0.744384	-0.002076	0.660160
O330	O	0.994384	0.247924	0.910160
O331	O	1.244384	0.497924	1.160160
O332	O	1.494384	0.747924	1.410160
N333	N	0.672333	-0.074115	0.659072
N334	N	0.922333	0.175885	0.909072
N335	N	1.172333	0.425885	1.159072
N336	N	1.422333	0.675885	1.409072
C337	C	0.633382	-0.113041	0.627272
C338	C	0.883382	0.136959	0.877272
C339	C	1.133382	0.386959	1.127272
C340	C	1.383382	0.636959	1.377272
O341	O	0.600259	-0.146148	0.660170
O342	O	0.850259	0.103852	0.910170
O343	O	1.100259	0.353852	1.160170
O344	O	1.350259	0.603852	1.410170
C345	C	0.633377	-0.113042	0.563665
C346	C	0.883377	0.136958	0.813665
C347	C	1.133377	0.386958	1.063665
C348	C	1.383377	0.636958	1.313665
C349	C	0.672326	-0.074120	0.531858
C350	C	0.922326	0.175880	0.781858
C351	C	1.172326	0.425880	1.031858
C352	C	1.422326	0.675880	1.281858
C353	C	0.750217	0.003723	0.531846
C354	C	1.000217	0.253723	0.781846
C355	C	1.250217	0.503723	1.031846
C356	C	1.500217	0.753723	1.281846
C357	C	0.750215	0.003719	0.468243
C358	C	1.000215	0.253719	0.718243
C359	C	1.250215	0.503719	0.968243
C360	C	1.500215	0.753719	1.218243
C361	C	0.711268	-0.035205	0.436447
C362	C	0.961268	0.214795	0.686447
C363	C	1.211268	0.464795	0.936447
C364	C	1.461268	0.714795	1.186447
C365	C	0.672324	-0.074125	0.468255
C366	C	0.922324	0.175875	0.718255
C367	C	1.172324	0.425875	0.968255
C368	C	1.422324	0.675875	1.218255
C369	C	0.594424	-0.151965	0.531866
C370	C	0.844424	0.098035	0.781866
C371	C	1.094424	0.348035	1.031866
C372	C	1.344424	0.598035	1.281866
C373	C	0.594422	-0.151962	0.468256
C374	C	0.844422	0.098038	0.718256
C375	C	1.094422	0.348038	0.968256
C376	C	1.344422	0.598038	1.218256
C377	C	0.633370	-0.113040	0.436448
C378	C	0.883370	0.136960	0.686448
C379	C	1.133370	0.386960	0.936448
C380	C	1.383370	0.636960	1.186448
C381	C	0.633374	-0.113054	0.372856
C382	C	0.883374	0.136946	0.622856
C383	C	1.133374	0.386946	0.872856
C384	C	1.383374	0.636946	1.122856
N385	N	0.672317	-0.074130	0.341045
N386	N	0.922317	0.175870	0.591045
N387	N	1.172317	0.425870	0.841045
N388	N	1.422317	0.675870	1.091045
C389	C	0.711263	-0.035206	0.372841
C390	C	0.961263	0.214794	0.622841
C391	C	1.211263	0.464794	0.872841
C392	C	1.461263	0.714794	1.122841
C393	C	0.633395	-0.113036	0.760850
C394	C	0.883395	0.136964	1.010850
C395	C	1.133395	0.386964	1.260850
C396	C	1.383395	0.636964	1.510850
C397	C	0.633402	-0.113039	0.824455
C398	C	0.883402	0.136961	1.074455
C399	C	1.133402	0.386961	1.324455
C400	C	1.383402	0.636961	1.574455
C401	C	0.711294	-0.035188	0.824440
C402	C	0.961294	0.214812	1.074440
C403	C	1.211294	0.464812	1.324440
C404	C	1.461294	0.714812	1.574440
C405	C	0.711290	-0.035189	0.760833
C406	C	0.961290	0.214811	1.010833
C407	C	1.211290	0.464811	1.260833
C408	C	1.461290	0.714811	1.510833
C409	C	0.672337	-0.074113	0.729039
C410	C	0.922337	0.175887	0.979039
C411	C	1.172337	0.425887	1.229039
C412	C	1.422337	0.675887	1.479039
C413	C	0.711256	-0.035220	0.239269
C414	C	0.961256	0.214780	0.489269
C415	C	1.211256	0.464780	0.739269
C416	C	1.461256	0.714780	0.989269
C417	C	0.711252	-0.035229	0.175660
C418	C	0.961252	0.214771	0.425660
C419	C	1.211252	0.464771	0.675660
C420	C	1.461252	0.714771	0.925660
C421	C	0.633358	-0.113077	0.175681
C422	C	0.883358	0.136923	0.425681
C423	C	1.133358	0.386923	0.675681
C424	C	1.383358	0.636923	0.925681
C425	C	0.633364	-0.113070	0.239284
C426	C	0.883364	0.136930	0.489284
C427	C	1.133364	0.386930	0.739284
C428	C	1.383364	0.636930	0.989284
C429	C	0.672315	-0.074136	0.271077
C430	C	0.922315	0.175864	0.521077
C431	C	1.172315	0.425864	0.771077
C432	C	1.422315	0.675864	1.021077
O433	O	0.600282	-0.146151	0.339916
O434	O	0.850282	0.103849	0.589916
O435	O	1.100282	0.353849	0.839916
O436	O	1.350282	0.603849	1.089916
O437	O	0.744376	-0.002100	0.339935
O438	O	0.994376	0.247900	0.589935
O439	O	1.244376	0.497900	0.839935
O440	O	1.494376	0.747900	1.089935
H441	H	-0.059867	-0.165717	0.000057
H442	H	0.190133	0.084283	0.250057
H443	H	0.440133	0.334283	0.500057
H444	H	0.690133	0.584283	0.750057
Cl445	Cl	0.760226	0.013726	0.279227
Cl446	Cl	1.010226	0.263726	0.529227
Cl447	Cl	1.260226	0.513726	0.779227
Cl448	Cl	1.510226	0.763726	1.029227
Cl449	Cl	0.760221	0.013704	0.135677
Cl450	Cl	1.010221	0.263704	0.385677
Cl451	Cl	1.260221	0.513704	0.635677
Cl452	Cl	1.510221	0.763704	0.885677
H453	H	0.769159	0.219337	0.000073
H454	H	1.019159	0.469337	0.250073
H455	H	1.269159	0.719337	0.500073
H456	H	1.519159	0.969337	0.750073
Cl457	Cl	0.799177	0.052655	0.428263
Cl458	Cl	1.049177	0.302655	0.678263
Cl459	Cl	1.299177	0.552655	0.928263
Cl460	Cl	1.549177	0.802655	1.178263
Cl461	Cl	-0.017912	0.045533	0.000090
Cl462	Cl	0.232088	0.295533	0.250090
Cl463	Cl	0.482088	0.545533	0.500090
Cl464	Cl	0.732088	0.795533	0.750090
Cl465	Cl	0.262410	0.094178	0.000113
Cl466	Cl	0.512410	0.344178	0.250113
Cl467	Cl	0.762410	0.594178	0.500113
Cl468	Cl	1.012410	0.844178	0.750113
H469	H	0.601654	-0.144769	0.265183
H470	H	0.851654	0.105231	0.515183
H471	H	1.101654	0.355231	0.765183
H472	H	1.351654	0.605231	1.015183
Cl473	Cl	0.799186	0.052663	0.571807
Cl474	Cl	1.049186	0.302663	0.821807
Cl475	Cl	1.299186	0.552663	1.071807
Cl476	Cl	1.549186	0.802663	1.321807
Cl477	Cl	0.760254	0.013745	0.720854
Cl478	Cl	1.010254	0.263745	0.970854
Cl479	Cl	1.260254	0.513745	1.220854
Cl480	Cl	1.510254	0.763745	1.470854
Cl481	Cl	0.128358	0.095789	0.000101
Cl482	Cl	0.378358	0.345789	0.250101
Cl483	Cl	0.628358	0.595789	0.500101
Cl484	Cl	0.878358	0.845789	0.750101
Cl485	Cl	0.785447	0.782109	0.000049
Cl486	Cl	1.035447	1.032109	0.250049
Cl487	Cl	1.285447	1.282109	0.500049
Cl488	Cl	1.535447	1.532109	0.750049
H489	H	0.743006	-0.003493	0.850339
H490	H	0.993006	0.246507	1.100339
H491	H	1.243006	0.496507	1.350339
H492	H	1.493006	0.746507	1.600339
Cl493	Cl	0.545448	-0.200897	0.428290
Cl494	Cl	0.795448	0.049103	0.678290
Cl495	Cl	1.045448	0.299103	0.928290
Cl496	Cl	1.295448	0.549103	1.178290
Cl497	Cl	0.528568	0.038984	0.000064
Cl498	Cl	0.778568	0.288984	0.250064
Cl499	Cl	1.028568	0.538984	0.500064
Cl500	Cl	1.278568	0.788984	0.750064
H501	H	0.582043	0.085909	0.000067
H502	H	0.832043	0.335909	0.250067
H503	H	1.082043	0.585909	0.500067
H504	H	1.332043	0.835909	0.750067
Cl505	Cl	0.552656	0.616101	0.000025
Cl506	Cl	0.802656	0.866101	0.250025
Cl507	Cl	1.052656	1.116101	0.500025
Cl508	Cl	1.302656	1.366101	0.750025
H509	H	0.601692	-0.144738	0.850348
H510	H	0.851692	0.105262	1.100348
H511	H	1.101692	0.355262	1.350348
H512	H	1.351692	0.605262	1.600348
H513	H	0.098544	-0.219617	0.000048
H514	H	0.348544	0.030383	0.250048
H515	H	0.598544	0.280383	0.500048
H516	H	0.848544	0.530383	0.750048
H517	H	0.601676	-0.144737	0.734966
H518	H	0.851676	0.105263	0.984966
H519	H	1.101676	0.355263	1.234966
H520	H	1.351676	0.605263	1.484966
H521	H	0.574207	0.740136	0.000036
H522	H	0.824207	0.990136	0.250036
H523	H	1.074207	1.240136	0.500036
H524	H	1.324207	1.490136	0.750036
H525	H	0.404512	0.017441	0.000058
H526	H	0.654512	0.267441	0.250058
H527	H	0.904512	0.517441	0.500058
H528	H	1.154512	0.767441	0.750058
Cl529	Cl	0.362567	-0.193810	0.000038
Cl530	Cl	0.612567	0.056190	0.250038
Cl531	Cl	0.862567	0.306190	0.500038
Cl532	Cl	1.112567	0.556190	0.750038
H533	H	0.562708	-0.183658	0.557755
H534	H	0.812708	0.066342	0.807755
H535	H	1.062708	0.316342	1.057755
H536	H	1.312708	0.566342	1.307755
H537	H	0.770443	0.111587	0.000094
H538	H	1.020443	0.361587	0.250094
H539	H	1.270443	0.611587	0.500094
H540	H	1.520443	0.861587	0.750094
H541	H	0.601650	-0.144771	0.149783
H542	H	0.851650	0.105229	0.399783
H543	H	1.101650	0.355229	0.649783
H544	H	1.351650	0.605229	0.899783
H545	H	0.486602	-0.172255	0.000025
H546	H	0.736602	0.077745	0.250025
H547	H	0.986602	0.327745	0.500025
H548	H	1.236602	0.577745	0.750025
Cl549	Cl	0.502400	0.469831	0.000004
Cl550	Cl	0.752400	0.719831	0.250004
Cl551	Cl	1.002400	0.969831	0.500004
Cl552	Cl	1.252400	1.219831	0.750004
H553	H	0.526850	0.352066	0.000013
H554	H	0.776850	0.602066	0.250013
H555	H	1.026850	0.852066	0.500013
H556	H	1.276850	1.102066	0.750013
H557	H	-0.141947	0.023982	0.000078
H558	H	0.108053	0.273982	0.250078
H559	H	0.358053	0.523982	0.500078
H560	H	0.608053	0.773982	0.750078
Cl561	Cl	0.842252	0.381883	0.000064
Cl562	Cl	1.092252	0.631883	0.250064
Cl563	Cl	1.342252	0.881883	0.500064
Cl564	Cl	1.592252	1.131883	0.750064
Cl565	Cl	0.840647	0.515929	0.000069
Cl566	Cl	1.090647	0.765929	0.250069
Cl567	Cl	1.340647	1.015929	0.500069
Cl568	Cl	1.590647	1.265929	0.750069
Cl569	Cl	0.216306	-0.244063	0.000035
Cl570	Cl	0.466306	0.005937	0.250035
Cl571	Cl	0.716306	0.255937	0.500035
Cl572	Cl	0.966306	0.505937	0.750035
Cl573	Cl	0.557594	0.203698	0.000061
Cl574	Cl	0.807594	0.453698	0.250061
Cl575	Cl	1.057594	0.703698	0.500061
Cl576	Cl	1.307594	0.953698	0.750061
H577	H	-0.167632	-0.164421	0.000060
H578	H	0.082368	0.085579	0.250060
H579	H	0.332368	0.335579	0.500060
H580	H	0.582368	0.585579	0.750060
Cl581	Cl	0.787061	0.648037	0.000061
Cl582	Cl	1.037061	0.898037	0.250061
Cl583	Cl	1.287061	1.148037	0.500061
Cl584	Cl	1.537061	1.398037	0.750061
