data_functionalizedCrystal
_audit_creation_method	'MofGen! by Chris Wilmer'
_symmetry_space_group_name_H-M	'P1'
_symmetry_Int_Tables_number	1
_symmetry_cell_setting	triclinic
loop_
_symmetry_equiv_pos_as_xyz
  x,y,z
_cell_length_a	13.897449
_cell_length_b	16.625546
_cell_length_c	13.897441
_cell_angle_alpha	90.033447
_cell_angle_beta	90.020733
_cell_angle_gamma	90.023748
loop_
_atom_site_label
_atom_site_type_symbol
_atom_site_fract_x
_atom_site_fract_y
_atom_site_fract_z
Zn1	Zn	1.474671	-0.320948	0.545362
Zn2	Zn	1.808004	0.012385	0.878695
Zn3	Zn	2.141337	0.345718	1.212029
Zn4	Zn	1.474551	-0.455799	0.384055
Zn5	Zn	1.807884	-0.122465	0.717389
Zn6	Zn	2.141218	0.210868	1.050722
Zn7	Zn	1.313360	-0.320987	0.384080
Zn8	Zn	1.646693	0.012347	0.717414
Zn9	Zn	1.980026	0.345680	1.050747
Zn10	Zn	1.313328	-0.455746	0.545308
Zn11	Zn	1.646661	-0.122412	0.878641
Zn12	Zn	1.979995	0.210921	1.211975
O13	O	1.393977	-0.388370	0.464702
O14	O	1.727311	-0.055037	0.798035
O15	O	2.060644	0.278297	1.131368
O16	O	1.609636	-0.338843	0.523977
O17	O	1.942970	-0.005509	0.857310
O18	O	2.276303	0.327824	1.190643
O19	O	1.453132	-0.437954	0.249077
O20	O	1.786465	-0.104621	0.582410
O21	O	2.119799	0.228713	0.915744
O22	O	1.334821	-0.208149	0.405508
O23	O	1.668155	0.125184	0.738841
O24	O	2.001488	0.458517	1.072175
O25	O	1.609549	-0.437917	0.405465
O26	O	1.942882	-0.104583	0.738799
O27	O	2.276215	0.228750	1.072132
O28	O	1.453336	-0.208121	0.524001
O29	O	1.786669	0.125212	0.857334
O30	O	2.120002	0.458546	1.190667
O31	O	1.334705	-0.338908	0.249095
O32	O	1.668039	-0.005575	0.582429
O33	O	2.001372	0.327759	0.915762
O34	O	1.178374	-0.338857	0.405455
O35	O	1.511707	-0.005523	0.738789
O36	O	1.845041	0.327810	1.072122
O37	O	1.334767	-0.437826	0.680297
O38	O	1.668100	-0.104493	1.013630
O39	O	2.001434	0.228840	1.346964
O40	O	1.178351	-0.437864	0.523909
O41	O	1.511684	-0.104530	0.857242
O42	O	1.845017	0.228803	1.190575
O43	O	1.453305	-0.338791	0.680337
O44	O	1.786638	-0.005458	1.013670
O45	O	2.119972	0.327875	1.347003
O46	O	1.453101	-0.568624	0.405413
O47	O	1.786435	-0.235291	0.738746
O48	O	2.119768	0.098043	1.072080
O49	O	1.334651	-0.568585	0.523884
O50	O	1.667985	-0.235252	0.857218
O51	O	2.001318	0.098082	1.190551
C52	C	1.143363	-0.388359	0.464680
C53	C	1.476696	-0.055026	0.798013
C54	C	1.810030	0.278308	1.131346
C55	C	1.036149	-0.388374	0.464693
C56	C	1.369482	-0.055041	0.798026
C57	C	1.702816	0.278293	1.131360
C58	C	1.393886	-0.597861	0.464661
C59	C	1.727219	-0.264527	0.797994
C60	C	2.060553	0.068806	1.131328
C61	C	1.393935	-0.687482	0.464676
C62	C	1.727269	-0.354149	0.798009
C63	C	2.060602	-0.020815	1.131343
C64	C	0.839854	-0.388377	0.464718
C65	C	1.173187	-0.055043	0.798052
C66	C	1.506521	0.278290	1.131385
C67	C	0.949086	-0.388373	0.464702
C68	C	1.282420	-0.055039	0.798035
C69	C	1.615753	0.278294	1.131368
C70	C	1.394104	-1.015657	0.464777
C71	C	1.727437	-0.682324	0.798110
C72	C	2.060770	-0.348991	1.131443
C73	C	1.394054	-0.924349	0.464751
C74	C	1.727387	-0.591016	0.798085
C75	C	2.060720	-0.257682	1.131418
C76	C	1.394019	-0.851573	0.464726
C77	C	1.727352	-0.518239	0.798059
C78	C	2.060685	-0.184906	1.131393
C79	C	1.393970	-0.760258	0.464702
C80	C	1.727304	-0.426925	0.798035
C81	C	2.060637	-0.093592	1.131368
C82	C	1.645570	-0.388381	0.464724
C83	C	1.978904	-0.055048	0.798057
C84	C	2.312237	0.278285	1.131391
C85	C	1.752784	-0.388386	0.464734
C86	C	2.086118	-0.055053	0.798067
C87	C	2.419451	0.278281	1.131400
C88	C	1.394046	-0.388299	0.716295
C89	C	1.727379	-0.054965	1.049628
C90	C	2.060712	0.278368	1.382961
C91	C	1.394075	-0.388268	0.823509
C92	C	1.727408	-0.054935	1.156842
C93	C	2.060742	0.278398	1.490175
C94	C	1.394095	-0.178061	0.464763
C95	C	1.727429	0.155272	0.798096
C96	C	2.060762	0.488606	1.131430
C97	C	1.394146	-0.088440	0.464789
C98	C	1.727479	0.244894	0.798123
C99	C	2.060812	0.578227	1.131456
C100	C	1.393965	-0.388383	0.214087
C101	C	1.727298	-0.055049	0.547421
C102	C	2.060631	0.278284	0.880754
C103	C	1.394122	-0.388186	0.106874
C104	C	1.727456	-0.054853	0.440207
C105	C	2.060789	0.278481	0.773540
C106	C	1.394101	-0.388214	1.019804
C107	C	1.727434	-0.054880	1.353137
C108	C	2.060768	0.278453	1.686471
C109	C	1.394084	-0.388246	0.910571
C110	C	1.727417	-0.054913	1.243905
C111	C	2.060750	0.278420	1.577238
