data_functionalizedCrystal
_audit_creation_method	'MofGen! by Chris Wilmer'
_symmetry_space_group_name_H-M	'P1'
_symmetry_Int_Tables_number	1
_symmetry_cell_setting	triclinic
loop_
_symmetry_equiv_pos_as_xyz
  x,y,z
_cell_length_a	16.109317
_cell_length_b	16.109301
_cell_length_c	9.730223
_cell_angle_alpha	90.006881
_cell_angle_beta	89.998577
_cell_angle_gamma	83.464848
loop_
_atom_site_label
_atom_site_type_symbol
_atom_site_fract_x
_atom_site_fract_y
_atom_site_fract_z
O1	O	-1.103122	-0.106933	-0.114148
O2	O	-0.861061	-0.120218	-0.114183
O3	O	-0.988741	0.007455	-0.114151
O4	O	-0.975442	-0.234607	-0.114180
O5	O	-0.988734	0.007461	0.114429
O6	O	-0.861054	-0.120212	0.114397
O7	O	-1.103114	-0.106927	0.114432
Zn8	Zn	-0.982083	-0.113569	0.150706
Zn9	Zn	-0.982093	-0.113577	-0.150457
O10	O	-0.975434	-0.234600	0.114399
C11	C	-0.830083	-0.119675	0.000102
C12	C	-0.737788	-0.118054	0.000089
N13	N	-0.982082	-0.113563	0.356243
C14	C	-0.438719	-0.112824	-0.124493
C15	C	-0.525440	-0.114341	-0.124500
C16	C	-0.525451	-0.114323	0.124711
C17	C	-0.438732	-0.112800	0.124715
C18	C	-0.395367	-0.112054	0.000109
C19	C	-0.568808	-0.115095	0.000099
C20	C	-0.662835	-0.116740	0.000093
C21	C	-0.301335	-0.110408	0.000114
C22	C	-0.988199	0.038433	0.000140
C23	C	-0.986584	0.130728	0.000142
C24	C	-0.134092	-0.107472	0.000136
C25	C	-0.226387	-0.109095	0.000118
C26	C	-0.975977	-0.265578	0.000106
C27	C	-0.977592	-0.357874	0.000095
C28	C	-1.058591	0.352996	0.000131
C29	C	-1.057067	0.439717	0.000119
C30	C	-0.905579	0.419851	0.000102
C31	C	-0.907104	0.333132	0.000104
C32	C	-0.983612	0.299707	0.000125
C33	C	-0.980563	0.473147	0.000112
C34	C	-0.978910	0.567173	0.000099
C35	C	-0.985266	0.205675	0.000135
N36	N	-0.982100	-0.113576	-0.355994
C37	C	-0.931689	-0.063130	0.572095
C38	C	-0.931682	-0.063121	0.428212
C39	C	-1.032499	-0.164011	0.428164
C40	C	-1.032510	-0.164015	0.572044
C41	C	-0.881279	-0.012691	0.644057
C42	C	-0.830863	0.037758	0.572146
C43	C	-0.830856	0.037767	0.428263
C44	C	-0.881265	-0.012673	0.356291
H45	H	-0.403414	-0.112216	-0.225956
C46	C	-1.087073	-0.218890	0.349955
C47	C	-1.036634	-0.275187	0.267377
C48	C	-1.086875	-0.325765	0.195328
H49	H	-1.125351	-0.184931	0.293715
H50	H	-1.117081	-0.248986	0.413348
H51	H	-1.006640	-0.245094	0.203991
H52	H	-0.998357	-0.309164	0.323583
H53	H	-1.116883	-0.355861	0.258721
H54	H	-1.125151	-0.291799	0.139095
H55	H	-1.052659	-0.363973	0.139300
C56	C	-0.776165	0.092433	0.650524
C57	C	-0.786898	0.081573	0.791922
C58	C	-0.736514	0.131920	0.864162
H59	H	-0.791602	0.149350	0.627176
H60	H	-0.719261	0.077022	0.626975
H61	H	-0.843789	0.096989	0.815462
H62	H	-0.771455	0.024667	0.815311
H63	H	-0.679611	0.116509	0.840612
H64	H	-0.751956	0.188833	0.840802
H65	H	-0.743784	0.124552	0.960107
C66	C	-0.391533	-0.112089	0.259904
C67	C	-0.332356	-0.182684	0.267171
C68	C	-0.288853	-0.182045	0.391669
H69	H	-0.429674	-0.112796	0.334232
H70	H	-0.364009	-0.063062	0.265085
H71	H	-0.359879	-0.231698	0.262003
H72	H	-0.294197	-0.181991	0.192871
H73	H	-0.261329	-0.133018	0.396851
H74	H	-0.327000	-0.182750	0.465988
H75	H	-0.248691	-0.229939	0.396611
H76	H	-0.881260	-0.012657	0.239132
C77	C	-1.087350	-0.218641	0.650205
C78	C	-1.143684	-0.168247	0.732785
C79	C	-1.194226	-0.218536	0.804794
H80	H	-1.053369	-0.256903	0.706442
H81	H	-1.117417	-0.248668	0.586789
H82	H	-1.113620	-0.138234	0.796194
H83	H	-1.177683	-0.129987	0.676583
H84	H	-1.224293	-0.248563	0.741377
H85	H	-1.160238	-0.256796	0.861023
H86	H	-1.232459	-0.184351	0.860823
C87	C	-1.141739	0.316866	0.000064
C88	C	-1.207074	0.382100	0.000025
C89	C	-1.283684	0.348852	-0.000063
H90	H	-1.145606	0.283468	0.079752
H91	H	-1.145524	0.283469	-0.079681
H92	H	-1.203291	0.415483	0.079761
H93	H	-1.203235	0.415503	-0.079657
H94	H	-1.287469	0.315454	-0.079807
H95	H	-1.287542	0.315454	0.079627
H96	H	-1.328023	0.393107	-0.000102
H97	H	-0.843289	0.447077	0.000088
C98	C	-0.572513	-0.114966	0.260033
C99	C	-0.560815	-0.043095	0.335194
C100	C	-0.604164	-0.043655	0.459853
H101	H	-0.551994	-0.163110	0.311395
H102	H	-0.630383	-0.115941	0.242242
H103	H	-0.502958	-0.042128	0.352989
H104	H	-0.581339	0.005061	0.283874
H105	H	-0.662033	-0.044629	0.442062
H106	H	-0.583640	-0.091802	0.511203
H107	H	-0.596239	0.005112	0.510860
C108	C	-0.572595	-0.115312	-0.259684
C109	C	-0.613028	-0.187660	-0.266949
C110	C	-0.656484	-0.188577	-0.391458
H111	H	-0.534436	-0.114695	-0.334003
H112	H	-0.612820	-0.067477	-0.264882
H113	H	-0.572808	-0.235482	-0.261764
H114	H	-0.651201	-0.188293	-0.192659
H115	H	-0.696709	-0.140742	-0.396656
H116	H	-0.618319	-0.187957	-0.465767
H117	H	-0.683929	-0.237660	-0.396398
H118	H	-0.846044	0.289742	0.000095
C119	C	-1.138448	0.497612	-0.000156
C120	C	-1.142013	0.547949	-0.117779
C121	C	-1.216977	0.601284	-0.118093
H122	H	-1.141082	0.531942	0.079457
H123	H	-1.184251	0.465311	-0.000220
H124	H	-1.096222	0.580248	-0.117703
H125	H	-1.139393	0.513642	-0.197411
H126	H	-1.262780	0.568983	-0.118156
H127	H	-1.219605	0.635609	-0.038474
H128	H	-1.219409	0.635439	-0.197904
H129	H	-0.789811	0.078851	0.369716
H130	H	-0.881278	-0.012695	0.761213
