data_functionalizedCrystal
_audit_creation_method	'MofGen! by Chris Wilmer'
_symmetry_space_group_name_H-M	'P1'
_symmetry_Int_Tables_number	1
_symmetry_cell_setting	triclinic
loop_
_symmetry_equiv_pos_as_xyz
  x,y,z
_cell_length_a	12.594517
_cell_length_b	12.594516
_cell_length_c	12.594509
_cell_angle_alpha	90.034152
_cell_angle_beta	90.025818
_cell_angle_gamma	90.012532
loop_
_atom_site_label
_atom_site_type_symbol
_atom_site_fract_x
_atom_site_fract_y
_atom_site_fract_z
Zn1	Zn	-1.627256	0.423854	-0.601944
Zn2	Zn	-1.627142	0.601864	-0.423947
Zn3	Zn	-1.449259	0.423884	-0.423959
Zn4	Zn	-1.449237	0.601775	-0.601863
O5	O	-1.538223	0.512844	-0.512928
O6	O	-1.776186	0.447492	-0.578361
O7	O	-1.603507	0.578305	-0.275002
O8	O	-1.472928	0.274934	-0.447608
O9	O	-1.776103	0.578275	-0.447587
O10	O	-1.603701	0.274912	-0.578372
O11	O	-1.472818	0.447544	-0.275011
O12	O	-1.300311	0.447457	-0.447529
O13	O	-1.472890	0.578123	-0.750820
O14	O	-1.300294	0.578153	-0.578235
O15	O	-1.603679	0.447405	-0.750879
O16	O	-1.603485	0.750798	-0.447509
O17	O	-1.472779	0.750733	-0.578223
C18	C	-1.261682	0.512799	-0.512875
C19	C	-1.143377	0.512806	-0.512878
C20	C	-1.074102	0.441618	-0.441917
C21	C	-1.003288	0.538700	-0.415722
C22	C	-1.003392	0.415753	-0.539075
C23	C	-1.074122	0.609940	-0.486631
C24	C	-1.074231	0.486927	-0.610030
C25	C	-1.003449	0.584077	-0.583871
C26	C	-1.538146	0.789385	-0.512879
C27	C	-1.538211	0.907691	-0.512894
C28	C	-0.815844	0.512869	-0.512962
C29	C	-0.934150	0.512825	-0.512926
C30	C	-1.609377	0.976941	-0.441867
C31	C	-1.635380	1.047639	-0.539010
C32	C	-1.512319	1.047791	-0.415789
C33	C	-1.564264	0.976831	-0.610089
C34	C	-1.441157	0.976976	-0.486802
C35	C	-1.467124	1.047643	-0.584012
C36	C	-1.538305	1.235223	-0.512973
C37	C	-1.538274	1.116918	-0.512922
C38	C	-1.538295	0.512751	-0.790549
C39	C	-1.538325	0.512711	-0.908855
C40	C	-1.467211	0.583768	-0.978076
C41	C	-1.564331	0.609783	-1.048871
C42	C	-1.441281	0.486632	-1.048858
C43	C	-1.635496	0.538777	-0.978092
C44	C	-1.512380	0.415581	-0.978073
C45	C	-1.609567	0.441559	-1.048836
C46	C	-1.538214	0.512860	-0.236387
C47	C	-1.538389	0.512600	-0.118082
H48	H	-0.972267	0.333679	-0.561175
H49	H	-1.717615	0.560881	-0.947137
H50	H	-1.105124	0.381483	-0.381841
Cl51	Cl	-1.314427	0.929018	-0.452660
Cl52	Cl	-1.122378	0.453065	-0.736812
H53	H	-1.105061	0.692048	-0.464403
H54	H	-1.669579	0.945895	-0.381865
H55	H	-0.972622	0.644356	-0.643901
H56	H	-1.490393	1.078959	-0.333657
Cl57	Cl	-1.314533	0.452646	-1.096853
Cl58	Cl	-1.762145	1.095542	-0.573132
H59	H	-1.407119	0.643952	-0.947007
Cl60	Cl	-1.598267	0.736527	-1.096887
Cl61	Cl	-1.702562	0.348711	-1.096512
H62	H	-1.586108	0.945795	-0.692291
Cl63	Cl	-0.955177	0.572520	-0.288908
H64	H	-1.406968	1.078492	-0.644159
Cl65	Cl	-1.478402	0.288871	-0.930018
