data_functionalizedCrystal
_audit_creation_method	'MofGen! by Chris Wilmer'
_symmetry_space_group_name_H-M	'P1'
_symmetry_Int_Tables_number	1
_symmetry_cell_setting	triclinic
loop_
_symmetry_equiv_pos_as_xyz
  x,y,z
_cell_length_a	29.839131
_cell_length_b	29.839134
_cell_length_c	21.395355
_cell_angle_alpha	90.025751
_cell_angle_beta	89.979828
_cell_angle_gamma	89.980268
loop_
_atom_site_label
_atom_site_type_symbol
_atom_site_fract_x
_atom_site_fract_y
_atom_site_fract_z
Zn1	Zn	-0.179165	-0.686774	-0.354274
Zn2	Zn	-0.254281	-0.686690	-0.249494
Zn3	Zn	-0.179137	-0.611641	-0.249509
Zn4	Zn	-0.254241	-0.611605	-0.354232
O5	O	-0.216706	-0.649177	-0.301877
O6	O	-0.189158	-0.749630	-0.340386
O7	O	-0.244317	-0.676715	-0.161818
O8	O	-0.116274	-0.621658	-0.263430
O9	O	-0.244345	-0.749568	-0.263404
O10	O	-0.116294	-0.676858	-0.340401
O11	O	-0.189110	-0.621576	-0.161829
O12	O	-0.189071	-0.548769	-0.263389
O13	O	-0.244277	-0.621596	-0.441915
O14	O	-0.244249	-0.548742	-0.340328
O15	O	-0.189119	-0.676823	-0.441946
O16	O	-0.317142	-0.676680	-0.263363
O17	O	-0.317113	-0.621515	-0.340314
C18	C	-0.216653	-0.532455	-0.301856
C19	C	-0.216641	-0.482520	-0.301862
C20	C	-0.188009	-0.125961	-0.342024
C21	C	-0.187981	-0.313634	-0.342015
O22	O	-0.163592	-0.337923	-0.376170
N23	N	-0.216665	-0.337075	-0.301872
C24	C	-0.245361	-0.313595	-0.261731
O25	O	-0.269761	-0.337839	-0.227591
C26	C	-0.245391	-0.125923	-0.261743
C27	C	-0.216702	-0.102484	-0.301885
C28	C	-0.159323	-0.102523	-0.382163
C29	C	-0.159328	-0.055607	-0.382162
C30	C	-0.188021	-0.032130	-0.342023
C31	C	-0.216708	-0.055569	-0.301884
C32	C	-0.274089	-0.102443	-0.221606
C33	C	-0.274095	-0.055522	-0.221614
C34	C	-0.245406	-0.032084	-0.261755
C35	C	-0.245406	0.014824	-0.261744
N36	N	-0.216722	0.038265	-0.301887
C37	C	-0.188029	0.014788	-0.342027
C38	C	-0.245342	-0.412126	-0.261727
C39	C	-0.245334	-0.459043	-0.261723
C40	C	-0.187954	-0.459079	-0.342008
C41	C	-0.187960	-0.412161	-0.342008
C42	C	-0.216658	-0.388685	-0.301870
C43	C	-0.188043	0.113313	-0.342022
C44	C	-0.188050	0.160233	-0.342016
C45	C	-0.245431	0.160265	-0.261733
C46	C	-0.245423	0.113349	-0.261737
C47	C	-0.216727	0.089875	-0.301886
O48	O	-0.269785	0.039141	-0.227612
O49	O	-0.163639	0.039040	-0.376171
C50	C	-0.188004	-0.172877	-0.342025
C51	C	-0.216690	-0.196315	-0.301886
C52	C	-0.245383	-0.172838	-0.261747
C53	C	-0.216682	-0.243233	-0.301882
C54	C	-0.187990	-0.266710	-0.342021
C55	C	-0.159305	-0.243269	-0.382165
C56	C	-0.159311	-0.196353	-0.382164
C57	C	-0.274067	-0.196279	-0.221603
C58	C	-0.274059	-0.243195	-0.221607
C59	C	-0.245366	-0.266672	-0.261746
C60	C	-0.333428	-0.649096	-0.301846
C61	C	-0.383363	-0.649103	-0.301854
C62	C	-0.693009	-0.677954	-0.261867
C63	C	-0.880682	-0.678009	-0.261892
O64	O	-0.904949	-0.702476	-0.227870
N65	N	-0.904148	-0.649270	-0.301924
C66	C	-0.880693	-0.620518	-0.341956
O67	O	-0.904958	-0.596078	-0.376012
C68	C	-0.693021	-0.620465	-0.341935
C69	C	-0.669557	-0.649202	-0.301895
C70	C	-0.669545	-0.706690	-0.221831
C71	C	-0.622630	-0.706674	-0.221823
C72	C	-0.599178	-0.677922	-0.261851
C73	C	-0.622642	-0.649187	-0.301887
C74	C	-0.669566	-0.591715	-0.381970
C75	C	-0.622645	-0.591705	-0.381962
C76	C	-0.599182	-0.620442	-0.341922
C77	C	-0.552274	-0.620419	-0.341907
N78	N	-0.528808	-0.649158	-0.301874
C79	C	-0.552260	-0.677910	-0.261846
C80	C	-0.979223	-0.620547	-0.341964
C81	C	-1.026141	-0.620559	-0.341969
C82	C	-1.026127	-0.678052	-0.261905
C83	C	-0.979208	-0.678037	-0.261897
C84	C	-0.955757	-0.649286	-0.301932
C85	C	-0.453734	-0.677874	-0.261832
C86	C	-0.406815	-0.677854	-0.261826
C87	C	-0.406833	-0.620364	-0.341892
C88	C	-0.453748	-0.620381	-0.341896
C89	C	-0.477198	-0.649140	-0.301864
O90	O	-0.527978	-0.595969	-0.375916
O91	O	-0.527987	-0.702353	-0.227806
C92	C	-0.739924	-0.677970	-0.261875
C93	C	-0.763388	-0.649234	-0.301911
C94	C	-0.739936	-0.620483	-0.341939
C95	C	-0.810306	-0.649247	-0.301916
C96	C	-0.833758	-0.677998	-0.261888
C97	C	-0.810292	-0.706737	-0.221856
C98	C	-0.763376	-0.706721	-0.221848
C99	C	-0.763402	-0.591744	-0.381972
C100	C	-0.810318	-0.591762	-0.381976
C101	C	-0.833769	-0.620513	-0.341948
C102	C	-0.099528	-0.649271	-0.301922
C103	C	-0.049593	-0.649311	-0.301941
C104	C	-0.216697	-0.649215	-0.465300
C105	C	-0.216693	-0.649230	-0.534942
C106	C	-0.216749	0.233644	-0.301891
C107	C	-0.216742	0.183710	-0.301877
C108	C	-0.187971	-0.677986	-0.567672
C109	C	-0.187952	-0.677985	-0.633107
C110	C	-0.216662	-0.649234	-0.665810
C111	C	-0.245386	-0.620473	-0.633072
C112	C	-0.245401	-0.620471	-0.567637
C113	C	-0.257112	-0.645659	-0.769474
C114	C	-0.257098	-0.645663	-0.834907
C115	C	-0.216615	-0.649237	-0.867631
C116	C	-0.176145	-0.652815	-0.834914
C117	C	-0.176161	-0.652813	-0.769480
C118	C	-0.216649	-0.649232	-0.736762
C119	C	-0.187870	-0.677993	-0.971314
C120	C	-0.187850	-0.677989	-1.036750
C121	C	-0.245288	-0.620480	-1.036713
C122	C	-0.245304	-0.620481	-0.971278
C123	C	-0.216595	-0.649240	-0.938582
C124	C	-0.216683	-0.649166	-0.139089
C125	C	-0.216560	-0.649237	-0.069449
H126	H	-0.164598	-0.393080	-0.374694
H127	H	-0.829418	-0.568356	-0.414581
O128	O	-0.273158	-0.481878	-0.222745
C129	C	-0.267011	-0.528325	-0.231355
H130	H	-0.232361	-0.534751	-0.251958
H131	H	-0.293691	-0.541645	-0.264654
C132	C	-0.313622	-0.544493	-0.142642
C133	C	-0.271062	-0.552386	-0.167942
H134	H	-0.316123	-0.559337	-0.103527
H135	H	-0.317765	-0.513202	-0.136842
H136	H	-0.335850	-0.555594	-0.170397
H137	H	-0.248835	-0.541281	-0.140190
H138	H	-0.266916	-0.583677	-0.173735
O139	O	-0.599817	-0.563752	-0.420765
C140	C	-0.572718	-0.534728	-0.385057
H141	H	-0.565690	-0.550585	-0.337594
H142	H	-0.590827	-0.501445	-0.378133
C143	C	-0.536779	-0.507091	-0.477813
C144	C	-0.528144	-0.526567	-0.419520
H145	H	-0.509285	-0.502055	-0.499072
H146	H	-0.555038	-0.526643	-0.501872
H147	H	-0.551871	-0.479357	-0.472035
H148	H	-0.513058	-0.554303	-0.425299
H149	H	-0.509882	-0.507019	-0.395464
H150	H	-0.135941	-0.262392	-0.414845
H151	H	-0.164491	-0.701408	-0.944691
O152	O	-0.273156	-0.389274	-0.222701
C153	C	-0.247543	-0.362133	-0.182286
H154	H	-0.213523	-0.355113	-0.204470
H155	H	-0.242554	-0.380201	-0.135868
C156	C	-0.314047	-0.326183	-0.143630
C157	C	-0.272263	-0.317558	-0.170879
H158	H	-0.329295	-0.298688	-0.136591
H159	H	-0.331303	-0.344469	-0.170857
H160	H	-0.309883	-0.341241	-0.104951
H161	H	-0.276428	-0.302505	-0.209560
H162	H	-0.255008	-0.299268	-0.143659
O163	O	-0.301953	-0.173547	-0.182548
C164	C	-0.327274	-0.204303	-0.147133
H165	H	-0.308864	-0.237749	-0.145019
H166	H	-0.361419	-0.209292	-0.169989
C167	C	-0.356292	-0.144896	-0.083025
C168	C	-0.333678	-0.185975	-0.080424
H169	H	-0.360244	-0.133591	-0.041876
H170	H	-0.339234	-0.124175	-0.106886
H171	H	-0.384743	-0.149060	-0.102074
H172	H	-0.305226	-0.181810	-0.061382
H173	H	-0.350732	-0.206695	-0.056558
O174	O	-0.273339	-0.592567	-0.664767
C175	C	-0.318123	-0.602356	-0.648790
H176	H	-0.319072	-0.619623	-0.601290
H177	H	-0.333257	-0.625442	-0.685629
C178	C	-0.344150	-0.537329	-0.704082
C179	C	-0.345316	-0.558534	-0.645738
H180	H	-0.360925	-0.510298	-0.702202
H181	H	-0.313979	-0.530735	-0.714847
H182	H	-0.356762	-0.556573	-0.734774
H183	H	-0.332700	-0.539293	-0.615049
H184	H	-0.375486	-0.565123	-0.634967
O185	O	-0.160133	0.183021	-0.380924
C186	C	-0.131089	0.210174	-0.345330
H187	H	-0.128260	0.196052	-0.295989
H188	H	-0.144980	0.245737	-0.343139
C189	C	-0.087894	0.228217	-0.436661
C190	C	-0.084416	0.210870	-0.376061
H191	H	-0.059104	0.228648	-0.455618
H192	H	-0.107462	0.209925	-0.460642
H193	H	-0.099471	0.257851	-0.434827
H194	H	-0.072844	0.181235	-0.377896
H195	H	-0.064844	0.229157	-0.352080
O196	O	-0.273327	-0.592602	-0.535770
C197	C	-0.302372	-0.618159	-0.497950
H198	H	-0.286545	-0.652217	-0.488171
H199	H	-0.335660	-0.623067	-0.523171
C200	C	-0.329949	-0.551605	-0.447787
C201	C	-0.310508	-0.593435	-0.435772
H202	H	-0.334970	-0.536354	-0.409434
H203	H	-0.310383	-0.534387	-0.473269
H204	H	-0.357688	-0.555701	-0.468805
H205	H	-0.282768	-0.589338	-0.414761
H206	H	-0.330070	-0.610652	-0.410285
H207	H	-0.472853	-0.596982	-0.374502
H208	H	-0.268695	-0.597068	-0.944629
O209	O	-0.159933	-0.705966	-1.068450
C210	C	-0.134592	-0.731339	-1.025557
H211	H	-0.153006	-0.732878	-0.978914
H212	H	-0.100465	-0.714918	-1.018587
C213	C	-0.105520	-0.777269	-1.108412
C214	C	-0.128139	-0.779162	-1.051126
H215	H	-0.101537	-0.806767	-1.124184
H216	H	-0.122591	-0.760173	-1.137310
H217	H	-0.077083	-0.763583	-1.102595
H218	H	-0.156577	-0.792843	-1.056944
H219	H	-0.111072	-0.796261	-1.022229
O220	O	-0.296445	-0.642165	-0.866588
C221	C	-0.332180	-0.639015	-0.823676
H222	H	-0.319087	-0.626005	-0.777026
H223	H	-0.347765	-0.673534	-0.816735
C224	C	-0.383931	-0.622496	-0.906491
C225	C	-0.367850	-0.606514	-0.849196
H226	H	-0.405935	-0.602450	-0.922234
H227	H	-0.359856	-0.624620	-0.935403
H228	H	-0.396915	-0.651262	-0.900699
H229	H	-0.354861	-0.577751	-0.854991
H230	H	-0.391923	-0.604384	-0.820286
H231	H	-0.268660	-0.597065	-1.063339
O232	O	-0.740575	-0.563790	-0.420767
C233	C	-0.713478	-0.534768	-0.385051
H234	H	-0.706450	-0.550630	-0.337591
H235	H	-0.731588	-0.501487	-0.378120
C236	C	-0.677538	-0.507118	-0.477800
C237	C	-0.668904	-0.526601	-0.419511
H238	H	-0.650044	-0.502078	-0.499057
H239	H	-0.695795	-0.526669	-0.501863
H240	H	-0.692632	-0.479386	-0.472016
H241	H	-0.653816	-0.554335	-0.425295
H242	H	-0.650643	-0.507055	-0.395449
H243	H	-0.164594	-0.701403	-0.541055
H244	H	-0.164676	0.094206	-0.374715
O245	O	-0.160126	-0.481959	-0.380983
C246	C	-0.166267	-0.528394	-0.372356
H247	H	-0.200913	-0.534783	-0.351739
H248	H	-0.139581	-0.541703	-0.339061
C249	C	-0.119670	-0.544663	-0.461078
C250	C	-0.162224	-0.552510	-0.435762
H251	H	-0.117174	-0.559540	-0.500189
H252	H	-0.115531	-0.513379	-0.466890
H253	H	-0.097436	-0.555754	-0.433326
H254	H	-0.184457	-0.541414	-0.463510
H255	H	-0.166367	-0.583794	-0.429957
O256	O	-0.956369	-0.705976	-0.223093
C257	C	-0.929211	-0.734984	-0.258798
H258	H	-0.922173	-0.719122	-0.306258
H259	H	-0.947274	-0.768277	-0.265728
C260	C	-0.893296	-0.762605	-0.166035
C261	C	-0.884649	-0.743121	-0.224324
H262	H	-0.865809	-0.767627	-0.144770
H263	H	-0.911594	-0.743064	-0.141979
H264	H	-0.908349	-0.790347	-0.171819
H265	H	-0.869601	-0.715378	-0.218540
H266	H	-0.866348	-0.762658	-0.248378
O267	O	-0.692386	-0.734572	-0.182950
C268	C	-0.719563	-0.709040	-0.142434
H269	H	-0.726599	-0.674977	-0.164457
H270	H	-0.701518	-0.704141	-0.095975
C271	C	-0.755480	-0.775621	-0.104141
C272	C	-0.764125	-0.733785	-0.131192
H273	H	-0.782967	-0.790885	-0.097203
H274	H	-0.737169	-0.792823	-0.131435
H275	H	-0.740441	-0.771532	-0.065428
H276	H	-0.779158	-0.737875	-0.169908
H277	H	-0.782439	-0.716585	-0.103904
H278	H	-0.143181	-0.655725	-0.861556
H279	H	-0.268790	0.179388	-0.229050
H280	H	-0.135968	-0.036528	-0.414852
O281	O	-0.301986	-0.032788	-0.182562
C282	C	-0.327312	-0.063540	-0.147148
H283	H	-0.308903	-0.096987	-0.145025
H284	H	-0.361454	-0.068532	-0.170011
C285	C	-0.356337	-0.004129	-0.083056
C286	C	-0.333724	-0.045208	-0.080443
H287	H	-0.360294	0.007180	-0.041910
H288	H	-0.339276	0.016590	-0.106916
H289	H	-0.384786	-0.008294	-0.102111
H290	H	-0.305274	-0.041041	-0.061396
H291	H	-0.350781	-0.065926	-0.056578
H292	H	-0.164561	-0.701400	-0.659762
O293	O	-0.136810	-0.656267	-0.737795
C294	C	-0.101074	-0.659434	-0.780703
H295	H	-0.111691	-0.644332	-0.827340
H296	H	-0.091759	-0.696154	-0.787680
C297	C	-0.047242	-0.652238	-0.697868
C298	C	-0.060280	-0.633686	-0.755147
H299	H	-0.022077	-0.636357	-0.682104
H300	H	-0.071318	-0.650106	-0.668960
H301	H	-0.039482	-0.682837	-0.703690
H302	H	-0.068045	-0.603090	-0.749323
H303	H	-0.036204	-0.635812	-0.784054
O304	O	-0.131405	-0.125254	-0.421176
C305	C	-0.106100	-0.094497	-0.456610
H306	H	-0.104532	-0.061045	-0.430948
H307	H	-0.122599	-0.089520	-0.504156
C308	C	-0.060213	-0.153895	-0.497274
C309	C	-0.058284	-0.112810	-0.465752
H310	H	-0.030719	-0.165192	-0.502917
H311	H	-0.077262	-0.174617	-0.473404
H312	H	-0.073964	-0.149743	-0.536893
H313	H	-0.044539	-0.116964	-0.426132
H314	H	-0.041231	-0.092088	-0.489617
H315	H	-0.387731	-0.596953	-0.374480
O316	O	-0.273333	0.090648	-0.222723
C317	C	-0.298649	0.121433	-0.187283
H318	H	-0.300229	0.154871	-0.212939
H319	H	-0.282152	0.126429	-0.139736
C320	C	-0.344514	0.062071	-0.146632
C321	C	-0.346458	0.103140	-0.178145
H322	H	-0.374004	0.050787	-0.140992
H323	H	-0.327457	0.041330	-0.170507
H324	H	-0.330765	0.066241	-0.107013
H325	H	-0.360202	0.098969	-0.217767
H326	H	-0.363518	0.123880	-0.154277
O327	O	-0.384092	-0.705814	-0.222910
C328	C	-0.414856	-0.731186	-0.187574
H329	H	-0.448290	-0.732742	-0.213248
H330	H	-0.419875	-0.714753	-0.139968
C331	C	-0.355454	-0.777087	-0.147070
C332	C	-0.396517	-0.779001	-0.178605
H333	H	-0.344142	-0.806581	-0.141534
H334	H	-0.334728	-0.759993	-0.170874
H335	H	-0.359642	-0.763391	-0.107401
H336	H	-0.392328	-0.792692	-0.218275
H337	H	-0.417243	-0.796099	-0.154807
O338	O	-0.476562	-0.705749	-0.222922
C339	C	-0.503728	-0.680202	-0.182412
H340	H	-0.510774	-0.646148	-0.204459
H341	H	-0.485667	-0.675280	-0.135968
C342	C	-0.539626	-0.746768	-0.144037
C343	C	-0.548283	-0.704945	-0.171118
H344	H	-0.567109	-0.762031	-0.137067
H345	H	-0.521323	-0.763981	-0.171327
H346	H	-0.524574	-0.742660	-0.105337
H347	H	-0.563330	-0.709053	-0.209821
H348	H	-0.566590	-0.687733	-0.143833
H349	H	-0.290069	-0.642629	-0.742835
O350	O	-0.599891	-0.734573	-0.182847
C351	C	-0.611377	-0.724776	-0.120389
H352	H	-0.645450	-0.707510	-0.119074
H353	H	-0.584989	-0.701686	-0.099243
C354	C	-0.571691	-0.789796	-0.084117
C355	C	-0.613542	-0.768593	-0.082502
H356	H	-0.573025	-0.816824	-0.060746
H357	H	-0.563951	-0.796396	-0.126196
H358	H	-0.549705	-0.770550	-0.066497
H359	H	-0.635525	-0.787837	-0.100128
H360	H	-0.621285	-0.761998	-0.040425
H361	H	-0.297451	-0.121519	-0.188918
H362	H	-0.744276	-0.730122	-0.189244
O363	O	-0.956516	-0.592570	-0.380871
C364	C	-0.987294	-0.567218	-0.416210
H365	H	-1.020746	-0.565688	-0.390543
H366	H	-0.992260	-0.583650	-0.463819
C367	C	-0.927931	-0.521271	-0.456695
C368	C	-0.969017	-0.519389	-0.425168
H369	H	-0.916657	-0.491768	-0.462223
H370	H	-0.907195	-0.538352	-0.432888
H371	H	-0.932075	-0.534967	-0.496366
H372	H	-0.964871	-0.505698	-0.385494
H373	H	-0.989752	-0.502304	-0.448968
H374	H	-0.135949	-0.177274	-0.414851
H375	H	-0.297421	-0.262274	-0.188913
H376	H	-1.045230	-0.701463	-0.229313
H377	H	-0.829394	-0.730146	-0.189262
O378	O	-0.692330	-0.563848	-0.420959
C379	C	-0.680822	-0.573642	-0.483410
H380	H	-0.667905	-0.609529	-0.486607
H381	H	-0.653592	-0.549548	-0.499749
C382	C	-0.738347	-0.524333	-0.521311
C383	C	-0.722486	-0.568411	-0.525239
H384	H	-0.764047	-0.521104	-0.547115
H385	H	-0.746100	-0.517733	-0.479237
H386	H	-0.715652	-0.504259	-0.534926
H387	H	-0.745179	-0.588483	-0.511617
H388	H	-0.714738	-0.575014	-0.567312
H389	H	-1.045241	-0.597154	-0.374567
