data_functionalizedCrystal
_audit_creation_method	'MofGen! by Chris Wilmer'
_symmetry_space_group_name_H-M	'P1'
_symmetry_Int_Tables_number	1
_symmetry_cell_setting	triclinic
loop_
_symmetry_equiv_pos_as_xyz
  x,y,z
_cell_length_a	17.000383
_cell_length_b	14.044220
_cell_length_c	15.500227
_cell_angle_alpha	86.902009
_cell_angle_beta	87.396892
_cell_angle_gamma	95.605410
loop_
_atom_site_label
_atom_site_type_symbol
_atom_site_fract_x
_atom_site_fract_y
_atom_site_fract_z
O1	O	0.187404	-1.246492	0.071849
O2	O	0.180519	-0.971098	0.071871
O3	O	0.069310	-1.125894	0.071856
O4	O	0.298614	-1.091697	0.071865
O5	O	0.076030	-1.116503	-0.072032
O6	O	0.187239	-0.961707	-0.072016
O7	O	0.194124	-1.237101	-0.072038
Cu8	Cu	0.191295	-1.098547	-0.085165
Cu9	Cu	0.183348	-1.109653	0.084998
O10	O	0.305333	-1.082306	-0.072023
C11	C	0.180866	-0.931340	-0.000070
C12	C	0.171878	-0.826863	-0.000061
C13	C	0.043146	-1.123035	-0.000087
C14	C	-0.044824	-1.128496	-0.000085
C15	C	0.193777	-1.276860	-0.000095
C16	C	0.202765	-1.381337	-0.000098
C17	C	-0.542538	-1.163761	-0.000084
C18	C	-0.459879	-1.158622	-0.000089
C19	C	-0.415218	-1.069425	-0.000078
C20	C	-0.453219	-0.985362	-0.000071
C21	C	-0.535875	-0.990502	-0.000072
C22	C	-0.165482	-1.049573	-0.000079
C23	C	-0.082820	-1.044439	-0.000075
C24	C	-0.089486	-1.217700	-0.000095
C25	C	-0.172144	-1.222832	-0.000091
C26	C	-0.210137	-1.138768	-0.000089
C27	C	-0.330728	-1.064170	-0.000080
C28	C	-0.294625	-1.144024	-0.000093
C29	C	0.331497	-1.085165	-0.000078
C30	C	0.419467	-1.079704	-0.000075
N31	N	0.196884	-1.090743	-0.204850
C32	C	0.155447	-0.635570	-0.000079
C33	C	0.219193	-0.572625	-0.000080
C34	C	0.210050	-0.466183	-0.000090
C35	C	0.164588	-0.742023	-0.000069
C36	C	0.149781	-1.156354	-0.250133
C37	C	0.154016	-1.150460	-0.340705
C38	C	0.205359	-1.078957	-0.385992
C39	C	0.252463	-1.013339	-0.340703
C40	C	0.248224	-1.019230	-0.250132
C41	C	0.220618	-1.057737	-0.659457
C42	C	0.224856	-1.051853	-0.750034
C43	C	0.126407	-1.188974	-0.750030
C44	C	0.122176	-1.194862	-0.659458
C45	C	0.169277	-1.129241	-0.614176
C46	C	0.209691	-1.072933	-0.478572
C47	C	0.164941	-1.135262	-0.521598
N48	N	0.177753	-1.117465	0.204683
H49	H	-0.578896	-1.236395	-0.000086
Cl50	Cl	-0.350772	-1.256152	-0.000112
Cl51	Cl	0.057631	-1.284753	-0.602525
H52	H	-0.294356	-0.991547	-0.000068
Cl53	Cl	0.274237	-0.983047	-0.535508
H54	H	0.294265	-0.955115	-0.377581
H55	H	0.280634	-0.598676	-0.000073
H56	H	0.266669	-0.993624	-0.786903
Cl57	Cl	0.085237	-1.246253	-0.193210
Cl58	Cl	0.060591	-0.595352	-0.000085
H59	H	0.115661	-1.203886	-0.377574
Cl60	Cl	0.307439	-0.936739	-0.193205
H61	H	-0.416848	-0.912736	-0.000067
Cl62	Cl	-0.583640	-0.884825	-0.000065
Cl63	Cl	-0.213234	-0.943892	-0.000067
H64	H	0.088059	-1.242399	-0.786907
H65	H	0.123135	-1.193476	-0.484723
Cl66	Cl	-0.412118	-1.264300	-0.000079
Cl67	Cl	-0.228284	-1.334969	-0.000109
H68	H	0.258972	-1.004307	-0.622596
H69	H	-0.046458	-0.971801	-0.000069
Cl70	Cl	-0.041718	-1.323372	-0.000103
