data_functionalizedCrystal
_audit_creation_method	'MofGen! by Chris Wilmer'
_symmetry_space_group_name_H-M	'P1'
_symmetry_Int_Tables_number	1
_symmetry_cell_setting	triclinic
loop_
_symmetry_equiv_pos_as_xyz
  x,y,z
_cell_length_a	17.077404
_cell_length_b	18.215405
_cell_length_c	17.077396
_cell_angle_alpha	90.028580
_cell_angle_beta	90.018362
_cell_angle_gamma	90.020702
loop_
_atom_site_label
_atom_site_type_symbol
_atom_site_fract_x
_atom_site_fract_y
_atom_site_fract_z
Zn1	Zn	1.200055	-0.293024	0.443818
Zn2	Zn	1.199963	-0.416098	0.312552
Zn3	Zn	1.068787	-0.293045	0.312569
Zn4	Zn	1.068756	-0.416049	0.443778
O5	O	1.134390	-0.354554	0.378179
O6	O	1.309890	-0.309362	0.426415
O7	O	1.182537	-0.399804	0.202707
O8	O	1.086252	-0.190058	0.330003
O9	O	1.309822	-0.399783	0.329975
O10	O	1.182694	-0.190043	0.426432
O11	O	1.086163	-0.309397	0.202720
O12	O	0.958936	-0.309350	0.329964
O13	O	1.086198	-0.399700	0.553631
O14	O	0.958913	-0.399721	0.426363
O15	O	1.182664	-0.309315	0.553660
O16	O	1.182506	-0.519075	0.329936
O17	O	1.086109	-0.519040	0.426347
C18	C	0.930442	-0.354533	0.378162
C19	C	0.843193	-0.354542	0.378173
C20	C	0.802239	-0.307543	0.428466
C21	C	0.720258	-0.307548	0.428470
C22	C	0.679233	-0.354556	0.378183
C23	C	0.720193	-0.401557	0.327885
C24	C	0.802172	-0.401548	0.327878
C25	C	0.549323	-0.401573	0.327904
C26	C	0.467338	-0.401583	0.327912
C27	C	0.467409	-0.307574	0.428496
C28	C	0.549388	-0.307565	0.428489
C29	C	0.590342	-0.354567	0.378191
C30	C	1.134315	-0.545760	0.378152
C31	C	1.134355	-0.627559	0.378167
C32	C	1.184596	-0.815684	0.428445
C33	C	1.184625	-0.892543	0.428460
C34	C	1.084282	-0.892672	0.327962
C35	C	1.084250	-0.815815	0.327952
C36	C	1.134411	-0.777323	0.378192
C37	C	1.134472	-0.931039	0.378217
C38	C	1.134502	-1.014372	0.378233
C39	C	1.134380	-0.693984	0.378178
C40	C	1.339135	-0.354575	0.378198
C41	C	1.426384	-0.354585	0.378205
C42	C	1.134438	-0.354500	0.582924
C43	C	1.134458	-0.354477	0.670174
C44	C	1.134487	-0.162601	0.378224
C45	C	1.134528	-0.080802	0.378243
C46	C	1.134388	-0.354555	0.174232
C47	C	1.134520	-0.354371	0.086982
C48	C	1.184689	-0.307409	0.711180
C49	C	1.184699	-0.307384	0.793161
C50	C	1.134480	-0.354432	0.834133
C51	C	1.084243	-0.401502	0.793121
C52	C	1.084231	-0.401522	0.711142
C53	C	1.084275	-0.401458	0.963991
C54	C	1.084289	-0.401439	1.045975
C55	C	1.184743	-0.307320	1.046010
C56	C	1.184730	-0.307340	0.964031
C57	C	1.134494	-0.354411	0.923024
H58	H	0.686917	-0.269278	0.469425
O59	O	1.035499	-0.447306	0.832833
C60	C	1.052626	-0.520662	0.812799
H61	H	1.082789	-0.522204	0.753280
H62	H	1.092980	-0.545442	0.858936
C63	C	0.939030	-0.563337	0.882091
C64	C	0.976071	-0.565233	0.808986
H65	H	0.891809	-0.590832	0.879743
H66	H	0.927493	-0.513917	0.895592
H67	H	0.972666	-0.583987	0.920532
H68	H	0.942439	-0.544575	0.770550
H69	H	0.987602	-0.614651	0.795479
O70	O	0.589120	-0.261833	0.477362
C71	C	0.535396	-0.220361	0.521770
H72	H	0.476944	-0.217779	0.489632
H73	H	0.526698	-0.247382	0.581338
C74	C	0.639213	-0.145219	0.572698
C75	C	0.567423	-0.142042	0.533222
H76	H	0.658969	-0.096909	0.579766
H77	H	0.675408	-0.173161	0.542782
H78	H	0.631954	-0.167739	0.622334
H79	H	0.574684	-0.119531	0.483584
H80	H	0.531229	-0.114095	0.563131
H81	H	0.433938	-0.439862	0.286965
H82	H	1.225488	-0.923773	0.469383
H83	H	1.043443	-0.924021	0.287057
O84	O	1.035473	-0.778659	0.279059
C85	C	0.991196	-0.829112	0.234727
H86	H	1.023371	-0.883878	0.232042
H87	H	0.931565	-0.837312	0.263419
C88	C	0.940402	-0.731903	0.154468
C89	C	0.979923	-0.799166	0.151165
H90	H	0.933445	-0.713430	0.102924
H91	H	0.970229	-0.697911	0.184337
H92	H	0.890714	-0.738745	0.178382
H93	H	1.029614	-0.792322	0.127261
H94	H	0.950104	-0.833156	0.121290
O95	O	1.233498	-0.261637	0.671505
C96	C	1.277848	-0.220101	0.725282
H97	H	1.245705	-0.217536	0.783715
H98	H	1.337453	-0.247054	0.734005
C99	C	1.328674	-0.144934	0.621543
C100	C	1.289192	-0.141779	0.693309
H101	H	1.335675	-0.096622	0.601820
H102	H	1.298797	-0.172919	0.585311
H103	H	1.378341	-0.167398	0.628821
H104	H	1.239523	-0.119324	0.686028
H105	H	1.319061	-0.113788	0.729539
H106	H	1.225646	-0.268992	1.079402
H107	H	1.225440	-0.784346	0.469355
O108	O	1.233525	-0.261763	0.833086
C109	C	1.284221	-0.303650	0.880499
H110	H	1.256513	-0.359418	0.892759
H111	H	1.342390	-0.311745	0.848923
C112	C	1.332480	-0.194643	0.943327
C113	C	1.298446	-0.263136	0.958390
H114	H	1.341258	-0.169651	0.991373
H115	H	1.298328	-0.166422	0.911383
H116	H	1.380950	-0.201399	0.917012
H117	H	1.249972	-0.256379	0.984696
H118	H	1.332590	-0.291355	0.990341
O119	O	1.035354	-0.447144	0.671275
C120	C	0.984677	-0.405257	0.623842
H121	H	0.979861	-0.347287	0.648556
H122	H	1.008935	-0.402744	0.561714
C123	C	0.908971	-0.512405	0.592214
C124	C	0.903051	-0.441206	0.622572
H125	H	0.858622	-0.534581	0.591427
H126	H	0.943115	-0.540626	0.624167
H127	H	0.929189	-0.510301	0.540443
H128	H	0.882843	-0.443312	0.674345
H129	H	0.868902	-0.412986	0.590627
O130	O	0.680465	-0.447245	0.278963
C131	C	0.734195	-0.488739	0.234586
H132	H	0.792638	-0.458584	0.231916
H133	H	0.742914	-0.544664	0.263227
C134	C	0.630380	-0.536293	0.154305
C135	C	0.702159	-0.499252	0.151020
H136	H	0.610619	-0.542781	0.102758
H137	H	0.594181	-0.508340	0.184204
H138	H	0.637656	-0.582892	0.178176
H139	H	0.694880	-0.452650	0.127158
H140	H	0.738357	-0.527198	0.121114
H141	H	0.582665	-0.439845	0.286944
O142	O	0.842045	-0.447240	0.279134
C143	C	0.889457	-0.494832	0.323731
H144	H	0.901768	-0.468947	0.383268
H145	H	0.857854	-0.549385	0.332255
C146	C	0.952188	-0.539887	0.207387
C147	C	0.967314	-0.508091	0.280508
H148	H	1.000212	-0.548069	0.180724
H149	H	0.920243	-0.507825	0.177340
H150	H	0.925850	-0.585344	0.214500
H151	H	0.993642	-0.462631	0.273394
H152	H	0.999265	-0.540145	0.310553
O153	O	1.233429	-0.261528	0.924272
C154	C	1.216320	-0.188178	0.944343
H155	H	1.153614	-0.184456	0.966868
H156	H	1.258419	-0.168935	0.991943
C157	C	1.302482	-0.143643	0.843872
C158	C	1.225464	-0.139072	0.871532
H159	H	1.308126	-0.113352	0.798961
H160	H	1.314011	-0.193061	0.830352
H161	H	1.337556	-0.127609	0.883546
H162	H	1.190392	-0.155115	0.831862
H163	H	1.213929	-0.089656	0.885044
H164	H	0.835635	-0.269266	0.469417
H165	H	1.043395	-0.439747	1.079333
H166	H	1.043355	-0.439776	0.930606
H167	H	0.434060	-0.269301	0.469449
