data_functionalizedCrystal
_audit_creation_method	'MofGen! by Chris Wilmer'
_symmetry_space_group_name_H-M	'P1'
_symmetry_Int_Tables_number	1
_symmetry_cell_setting	triclinic
loop_
_symmetry_equiv_pos_as_xyz
  x,y,z
_cell_length_a	10.723023
_cell_length_b	10.723023
_cell_length_c	9.198806
_cell_angle_alpha	89.996191
_cell_angle_beta	90.001269
_cell_angle_gamma	95.532452
loop_
_atom_site_label
_atom_site_type_symbol
_atom_site_fract_x
_atom_site_fract_y
_atom_site_fract_z
O1	O	-0.175020	1.657188	-0.120882
O2	O	-0.191774	1.294035	-0.120885
O3	O	-0.001821	1.483989	-0.120881
O4	O	-0.364973	1.467234	-0.120886
O5	O	-0.001820	1.483974	0.120904
O6	O	-0.191774	1.294020	0.120900
O7	O	-0.175019	1.657173	0.120903
Cu8	Cu	-0.183396	1.475595	0.142979
Cu9	Cu	-0.183397	1.475613	-0.142960
O10	O	-0.364973	1.467219	0.120899
C11	C	-0.190555	1.247528	0.000007
C12	C	-0.186908	1.108974	0.000006
C13	C	-0.185282	1.047210	-0.125247
C14	C	-0.181512	0.904007	-0.125251
C15	C	-0.411473	1.468446	0.000006
C16	C	-0.550027	1.472093	0.000003
C17	C	-0.611799	1.473711	0.125254
C18	C	-0.755002	1.477481	0.125255
C19	C	0.044679	1.482762	0.000009
C20	C	0.183233	1.479115	0.000002
C21	C	-0.176239	1.703680	0.000008
C22	C	-0.179886	1.842234	-0.000000
N23	N	-0.183395	1.475592	0.344093
N24	N	-0.183388	1.475626	-0.344074
C25	C	-0.103288	1.555347	0.416291
C26	C	-0.103283	1.555367	0.583704
H27	H	-0.181278	0.895342	0.107239
Br28	Br	-0.187619	1.135765	-0.303982
Br29	Br	-0.184591	1.020417	0.178741
H30	H	-0.251980	1.407345	0.593847
H31	H	-0.763652	1.477729	-0.107235
H32	H	-0.180111	0.850892	-0.232484
Br33	Br	-0.523257	1.471347	0.303992
H34	H	-0.808123	1.478879	0.232486
H35	H	-0.603160	1.473488	-0.107228
Br36	Br	0.011024	1.669192	0.687179
Br37	Br	0.011340	1.668820	0.312757
H38	H	-0.251971	1.407319	0.406219
