data_functionalizedCrystal
_audit_creation_method	'MofGen! by Chris Wilmer'
_symmetry_space_group_name_H-M	'P1'
_symmetry_Int_Tables_number	1
_symmetry_cell_setting	triclinic
loop_
_symmetry_equiv_pos_as_xyz
  x,y,z
_cell_length_a	6.817900
_cell_length_b	11.102289
_cell_length_c	11.102182
_cell_angle_alpha	91.949517
_cell_angle_beta	108.603774
_cell_angle_gamma	108.605707
loop_
_atom_site_label
_atom_site_type_symbol
_atom_site_fract_x
_atom_site_fract_y
_atom_site_fract_z
V1	V	-4.111514	-0.175852	-0.396258
O2	O	-4.070547	0.008437	-0.388715
O3	O	-4.088291	-0.348672	-0.393547
O4	O	-4.088287	-0.173153	-0.569079
O5	O	-4.070550	-0.168297	-0.211967
V6	V	-4.588617	-0.153808	-0.374215
O7	O	-4.386853	-0.224207	-0.444610
O8	O	-4.763475	-0.105454	-0.325863
O9	O	-4.388634	0.019012	-0.376925
O10	O	-4.746981	-0.338098	-0.381758
O11	O	-4.746978	-0.161363	-0.558505
O12	O	-4.388637	-0.156507	-0.201393
C13	C	-3.938602	-0.390802	-0.387296
C14	C	-4.001069	-0.532085	-0.386232
C15	C	-3.938596	-0.166908	-0.611203
C16	C	-4.001056	-0.165845	-0.752486
C17	C	-4.214423	-0.604933	-0.392072
C18	C	-4.273111	-0.737685	-0.391083
C19	C	-3.905067	-0.724726	-0.378409
C20	C	-3.846387	-0.591979	-0.379407
C21	C	-4.426909	-0.612415	-0.399384
C22	C	-4.485597	-0.745166	-0.398395
C23	C	-4.090570	-0.281724	-0.837021
C24	C	-4.149273	-0.280709	-0.969769
C25	C	-4.028931	-0.047925	-0.933433
C26	C	-3.970244	-0.048942	-0.800688
C27	C	-4.160040	-0.416120	-0.858000
C28	C	-4.218744	-0.415105	-0.990749
C29	C	-4.201665	0.061135	-0.383173
C30	C	-4.118437	0.202416	-0.384245
C31	C	-4.201670	-0.162757	-0.159263
C32	C	-4.118447	-0.163813	-0.017979
H33	H	-3.672666	-0.532672	-0.374666
H34	H	-4.017643	-0.453111	-0.818214
Br35	Br	-3.695159	-0.806020	-0.369151
H36	H	-4.538771	-0.593197	-0.491813
H37	H	-4.617401	-0.803036	-0.492550
Br38	Br	-4.571121	-0.786792	-0.253704
Br39	Br	-3.987126	0.110720	-0.998860
Br40	Br	-4.413398	-0.510708	-0.819645
Br41	Br	-4.527958	-0.492467	-1.078769
Br42	Br	-4.054309	-0.492524	-1.055960
Br43	Br	-4.427006	-0.523681	-0.250030
H44	H	-3.897385	0.045417	-0.731864
