data_functionalizedCrystal
_audit_creation_method	'MofGen! by Chris Wilmer'
_symmetry_space_group_name_H-M	'P1'
_symmetry_Int_Tables_number	1
_symmetry_cell_setting	triclinic
loop_
_symmetry_equiv_pos_as_xyz
  x,y,z
_cell_length_a	14.971487
_cell_length_b	16.098538
_cell_length_c	14.971486
_cell_angle_alpha	92.725922
_cell_angle_beta	83.614266
_cell_angle_gamma	87.264203
loop_
_atom_site_label
_atom_site_type_symbol
_atom_site_fract_x
_atom_site_fract_y
_atom_site_fract_z
O1	O	-1.190938	0.069137	-0.112579
O2	O	-0.690938	0.569137	0.387421
O3	O	-0.930540	0.069165	-0.126536
O4	O	-0.430540	0.569165	0.373464
O5	O	-1.067718	0.069144	0.010642
O6	O	-0.567718	0.569144	0.510642
O7	O	-1.053760	0.069158	-0.249757
O8	O	-0.553760	0.569158	0.250243
O9	O	-1.059705	-0.069367	0.002660
O10	O	-0.559705	0.430633	0.502660
O11	O	-0.922526	-0.069347	-0.134518
O12	O	-0.422526	0.430653	0.365482
O13	O	-1.182925	-0.069375	-0.120561
O14	O	-0.682925	0.430625	0.379439
Zn15	Zn	-1.051453	-0.091353	-0.128807
Zn16	Zn	-0.551453	0.408647	0.371193
Zn17	Zn	-1.062011	0.091143	-0.118290
Zn18	Zn	-0.562011	0.591143	0.381710
O19	O	-1.045747	-0.069354	-0.257739
O20	O	-0.545747	0.430646	0.242261
C21	C	-0.893209	-0.000087	-0.129902
C22	C	-0.393209	0.499913	0.370098
C23	C	-0.793912	-0.000077	-0.128031
C24	C	-0.293912	0.499923	0.371969
C25	C	-0.736687	-0.000073	-0.208620
C26	C	-0.236687	0.499927	0.291380
C27	C	-0.643387	-0.000084	-0.206857
C28	C	-0.143387	0.499916	0.293143
C29	C	-0.607314	-0.000092	-0.124504
C30	C	-0.107314	0.499908	0.375496
C31	C	-0.664546	-0.000099	-0.043909
C32	C	-0.164546	0.499901	0.456091
C33	C	-0.757844	-0.000094	-0.045673
C34	C	-0.257844	0.499906	0.454327
C35	C	-0.470084	-0.000107	-0.040238
C36	C	0.029916	0.499893	0.459762
C37	C	-0.376779	-0.000110	-0.038474
C38	C	0.123221	0.499890	0.461526
C39	C	-0.355626	-0.000096	-0.201422
C40	C	0.144374	0.499904	0.298578
C41	C	-0.448924	-0.000091	-0.203186
C42	C	0.051076	0.499909	0.296814
C43	C	-0.506150	-0.000096	-0.122590
C44	C	-0.006150	0.499904	0.377410
N45	N	-1.044254	-0.215901	-0.135983
N46	N	-0.544254	0.284099	0.364017
C47	C	-1.102500	-0.259494	-0.077780
C48	C	-0.602500	0.240506	0.422220
C49	C	-1.097472	-0.346683	-0.082809
C50	C	-0.597472	0.153317	0.417191
C51	C	-1.034203	-0.390275	-0.146046
C52	C	-0.534203	0.109725	0.353954
C53	C	-0.975951	-0.346676	-0.204252
C54	C	-0.475951	0.153324	0.295748
C55	C	-0.980975	-0.259489	-0.199218
C56	C	-0.480975	0.240511	0.300782
C57	C	-1.015990	-0.653523	-0.164279
C58	C	-0.515990	-0.153523	0.335721
C59	C	-1.010972	-0.740715	-0.169310
C60	C	-0.510972	-0.240715	0.330690
C61	C	-1.132492	-0.740717	-0.047865
C62	C	-0.632492	-0.240717	0.452135
C63	C	-1.137514	-0.653528	-0.042841
C64	C	-0.637514	-0.153528	0.457159
C65	C	-1.079260	-0.609936	-0.101043
C66	C	-0.579260	-0.109936	0.398957
C67	C	-1.029064	-0.479396	-0.151190
C68	C	-0.529064	0.020604	0.348810
C69	C	-1.084395	-0.520817	-0.095895
C70	C	-0.584395	-0.020817	0.404105
C71	C	-0.220256	-0.000116	-0.117194
C72	C	0.279744	0.499884	0.382806
C73	C	-0.319554	-0.000106	-0.119062
C74	C	0.180446	0.499894	0.380938
C75	C	-1.063087	-0.000111	0.039976
C76	C	-0.563087	0.499889	0.539976
C77	C	-1.061216	-0.000110	0.139273
C78	C	-0.561216	0.499890	0.639273
N79	N	-1.069217	0.215691	-0.111107
N80	N	-0.569217	0.715691	0.388893
C81	C	-1.050378	-0.000097	-0.287073
C82	C	-0.550378	0.499903	0.212927
C83	C	-1.052249	-0.000092	-0.386370
C84	C	-0.552249	0.499908	0.113630
C85	C	-1.141805	-0.000120	0.196498
C86	C	-0.641805	0.499880	0.696498
C87	C	-1.140042	-0.000111	0.289798
C88	C	-0.640042	0.499889	0.789798
C89	C	-1.057690	-0.000099	0.325871
C90	C	-0.557690	0.499901	0.825871
C91	C	-0.977095	-0.000087	0.268639
C92	C	-0.477095	0.499913	0.768639
C93	C	-0.978859	-0.000090	0.175341
C94	C	-0.478859	0.499910	0.675341
C95	C	-0.973424	-0.000084	0.463102
C96	C	-0.473424	0.499916	0.963102
C97	C	-0.971660	-0.000083	0.556406
C98	C	-0.471660	0.499917	1.056406
C99	C	-1.134608	-0.000105	0.577558
C100	C	-0.634608	0.499895	1.077558
C101	C	-1.136372	-0.000108	0.484260
C102	C	-0.636372	0.499892	0.984260
C103	C	-1.055776	-0.000097	0.427035
C104	C	-0.555776	0.499903	0.927035
H105	H	-0.347412	-0.000118	0.028585
H106	H	0.152588	0.499882	0.528585
F107	F	-0.626152	-0.000114	0.043737
F108	F	-0.126152	0.499886	0.543737
F109	F	-0.818748	-0.000101	0.040100
F110	F	-0.318748	0.499899	0.540100
H111	H	-1.203430	-0.000123	0.454893
H112	H	-0.703430	0.499877	0.954893
H113	H	-1.205666	-0.000120	0.336387
H114	H	-0.705666	0.499880	0.836387
H115	H	-0.516675	-0.000112	0.025391
H116	H	-0.016675	0.499888	0.525391
H117	H	-1.154024	-0.224007	-0.026290
H118	H	-0.654024	0.275993	0.473710
H119	H	-1.135906	-0.485321	-0.044404
H120	H	-0.635906	0.014679	0.455596
H121	H	-0.766050	-0.000065	-0.275681
H122	H	-0.266050	0.499935	0.224319
F123	F	-1.194485	-0.787116	0.014076
F124	F	-0.694485	-0.287116	0.514076
F125	F	-1.220384	-0.000112	0.638463
F126	F	-0.720384	0.499888	1.138463
H127	H	-0.596797	-0.000079	-0.272481
H128	H	-0.096797	0.499921	0.227519
F129	F	-0.943629	-0.787105	-0.236621
F130	F	-0.443629	-0.287105	0.263379
F131	F	-1.159462	-0.393079	-0.020862
F132	F	-0.659462	0.106921	0.479138
H133	H	-0.478292	-0.000076	-0.270244
H134	H	0.021708	0.499924	0.229756
F135	F	-0.953994	-0.607135	-0.226224
F136	F	-0.453994	-0.107135	0.273776
F137	F	-1.204853	-0.607135	0.024462
F138	F	-0.704853	-0.107135	0.524462
F139	F	-0.918979	-0.213094	-0.261164
F140	F	-0.418979	0.286906	0.238836
F141	F	-0.908610	-0.393071	-0.271550
F142	F	-0.408610	0.106929	0.228450
F143	F	-0.961730	-0.525795	-0.218492
F144	F	-0.461730	-0.025795	0.281508
F145	F	-0.884011	-0.000071	0.594795
F146	F	-0.384011	0.499929	1.094795
F147	F	-0.294721	-0.000093	-0.287198
F148	F	0.205279	0.499907	0.212802
H149	H	-1.208866	-0.000134	0.167134
H150	H	-0.708866	0.499866	0.667134
F151	F	-0.887645	-0.000071	0.402200
F152	F	-0.387645	0.499929	0.902200
H153	H	-0.910043	-0.000073	0.298017
H154	H	-0.410043	0.499927	0.798017
H155	H	-0.913235	-0.000082	0.128749
H156	H	-0.413235	0.499918	0.628749
