data_functionalizedCrystal
_audit_creation_method	'MofGen! by Chris Wilmer'
_symmetry_space_group_name_H-M	'P1'
_symmetry_Int_Tables_number	1
_symmetry_cell_setting	triclinic
loop_
_symmetry_equiv_pos_as_xyz
  x,y,z
_cell_length_a	12.837943
_cell_length_b	17.666332
_cell_length_c	12.837942
_cell_angle_alpha	89.994744
_cell_angle_beta	94.828940
_cell_angle_gamma	89.991643
loop_
_atom_site_label
_atom_site_type_symbol
_atom_site_fract_x
_atom_site_fract_y
_atom_site_fract_z
O1	O	1.402344	-0.062934	0.272143
O2	O	1.099210	-0.062939	0.258699
O3	O	1.244055	-0.062932	0.113854
O4	O	1.257499	-0.062941	0.416988
O5	O	1.244025	0.062965	0.113843
O6	O	1.099180	0.062958	0.258688
O7	O	1.402314	0.062963	0.272132
Cu8	Cu	1.250744	0.074456	0.265409
Cu9	Cu	1.250780	-0.074432	0.265422
O10	O	1.257468	0.062956	0.416977
C11	C	1.060126	0.000009	0.254153
C12	C	0.943711	0.000008	0.240608
C13	C	0.718837	0.000014	0.403437
C14	C	0.609454	0.000013	0.390716
C15	C	0.615562	0.000010	0.202445
C16	C	0.724944	0.000011	0.215166
C17	C	0.776578	0.000012	0.315666
C18	C	0.885962	0.000007	0.328386
C19	C	0.892067	0.000010	0.140116
C20	C	0.782685	0.000009	0.127395
N21	N	1.250727	0.179175	0.265400
C22	C	1.314890	0.218788	0.201300
C23	C	1.314895	0.298036	0.201295
C24	C	1.250748	0.337667	0.265410
C25	C	1.186572	0.298045	0.329515
C26	C	1.186561	0.218799	0.329509
N27	N	1.246572	0.462083	0.356723
N28	N	1.246588	0.537364	0.356725
C29	C	1.250775	0.576431	0.265428
N30	N	1.254966	0.537375	0.174128
N31	N	1.254956	0.462087	0.174127
C32	C	1.250752	0.423596	0.265423
C33	C	1.314948	0.701973	0.201318
C34	C	1.314945	0.781222	0.201312
C35	C	1.186628	0.781230	0.329540
C36	C	1.186624	0.701983	0.329537
C37	C	1.250790	0.662359	0.265428
C38	C	1.441398	0.000013	0.276679
C39	C	1.557813	0.000010	0.290223
N40	N	1.250796	0.820849	0.265426
C41	C	1.239499	0.000016	0.074780
C42	C	1.225954	0.000015	-0.041635
C43	C	1.388784	0.000001	-0.266510
C44	C	1.376062	-0.000000	-0.375892
C45	C	1.187791	0.000005	-0.369785
C46	C	1.200513	0.000006	-0.260402
C47	C	1.301012	0.000006	-0.208769
C48	C	1.313732	0.000013	-0.099384
C49	C	1.125462	0.000012	-0.093279
C50	C	1.112741	0.000011	-0.202661
C51	C	1.262025	0.000006	0.456051
C52	C	1.275569	0.000003	0.572467
H53	H	1.367135	0.186529	0.149095
H54	H	0.740630	0.000017	0.045571
H55	H	0.562446	0.000016	0.462189
H56	H	1.367192	0.669710	0.149113
H57	H	1.030917	0.000008	-0.244717
Cl58	Cl	1.395608	0.831025	0.120715
H59	H	1.395564	0.000015	-0.057346
Cl60	Cl	1.105977	0.831048	0.410134
Cl61	Cl	0.550633	0.000019	0.076113
Cl62	Cl	1.105964	0.652179	0.410130
Cl63	Cl	1.486409	-0.000008	-0.448478
H64	H	1.053992	0.000022	-0.046254
H65	H	1.470614	0.000008	-0.224469
Cl66	Cl	1.061460	-0.000017	-0.434714
H67	H	0.939092	0.000004	0.068646
H68	H	0.928000	0.000009	0.410218
H69	H	1.134341	0.330317	0.381716
H70	H	1.367147	0.330294	0.149095
Cl71	Cl	0.783751	0.000004	0.529775
Cl72	Cl	1.105893	0.168997	0.410100
