data_functionalizedCrystal
_audit_creation_method	'MofGen! by Chris Wilmer'
_symmetry_space_group_name_H-M	'P1'
_symmetry_Int_Tables_number	1
_symmetry_cell_setting	triclinic
loop_
_symmetry_equiv_pos_as_xyz
  x,y,z
_cell_length_a	10.654554
_cell_length_b	14.044209
_cell_length_c	9.730223
_cell_angle_alpha	90.004308
_cell_angle_beta	89.999614
_cell_angle_gamma	91.162602
loop_
_atom_site_label
_atom_site_type_symbol
_atom_site_fract_x
_atom_site_fract_y
_atom_site_fract_z
O1	O	1.681219	-0.133249	-0.114306
O2	O	1.317017	-0.145938	-0.114308
O3	O	1.493653	-0.001573	-0.114288
O4	O	1.504583	-0.277614	-0.114327
O5	O	1.493651	-0.001576	0.114292
O6	O	1.317015	-0.145942	0.114272
O7	O	1.681217	-0.133253	0.114274
Zn8	Zn	1.499116	-0.139598	0.150565
Zn9	Zn	1.499118	-0.139593	-0.150599
O10	O	1.504581	-0.277618	0.114253
C11	C	1.270124	-0.145007	-0.000018
C12	C	1.130401	-0.142217	-0.000019
C13	C	0.938771	-0.051970	-0.000017
C14	C	1.070056	-0.054591	-0.000008
C15	C	1.059453	-0.227227	-0.000025
C16	C	0.928171	-0.224605	-0.000025
C17	C	0.878433	0.035661	-0.000021
C18	C	0.949371	0.120672	-0.000012
C19	C	1.080656	0.118051	-0.000002
C20	C	1.141003	0.030419	-0.000002
C21	C	1.488866	0.033771	0.000004
C22	C	1.474592	0.139091	0.000011
C23	C	1.448495	0.331925	-0.000001
C24	C	1.549744	0.388891	-0.000002
C25	C	1.535223	0.496190	-0.000009
C26	C	1.463014	0.224616	0.000005
C27	C	1.728110	-0.134184	-0.000019
C28	C	1.867833	-0.136974	-0.000028
C29	C	1.509370	0.687038	-0.000031
C30	C	1.523653	0.581719	-0.000014
N31	N	1.499123	-0.139601	0.356101
N32	N	1.499120	-0.139583	-0.356136
C33	C	1.577362	-0.075697	0.428036
C34	C	1.577357	-0.075686	0.571919
C35	C	1.420872	-0.203489	0.571919
C36	C	1.420871	-0.203495	0.428039
C37	C	1.655614	-0.011803	0.356099
C38	C	1.733860	0.052105	0.428034
C39	C	1.733855	0.052116	0.571917
C40	C	1.655605	-0.011780	0.643865
H41	H	0.900228	0.192018	-0.000024
O42	O	1.666233	0.351056	0.000198
C43	C	1.863804	0.338543	0.118695
C44	C	1.731937	0.381478	0.118615
H45	H	1.916954	0.363107	0.214439
H46	H	1.917148	0.363157	0.023106
H47	H	1.854895	0.257514	0.118636
H48	H	1.740731	0.462509	0.118722
H49	H	1.678641	0.356789	0.214196
H50	H	1.108598	-0.298573	-0.000026
H51	H	1.357161	-0.255530	0.369469
H52	H	1.655627	-0.011808	0.238942
O53	O	1.332146	0.369983	-0.000178
C54	C	1.185770	0.469595	-0.118624
C55	C	1.317578	0.426560	-0.118586
H56	H	1.173939	0.515332	-0.214362
H57	H	1.173913	0.515482	-0.023028
H58	H	1.111838	0.409767	-0.118549
H59	H	1.391590	0.486327	-0.118710
H60	H	1.329327	0.380650	-0.214174
O61	O	1.809902	0.114263	0.358364
C62	C	1.965166	0.240990	0.373552
C63	C	1.879089	0.170659	0.452619
H64	H	2.021145	0.286591	0.449723
H65	H	1.905665	0.288822	0.306224
H66	H	2.032478	0.199569	0.306158
H67	H	1.811761	0.212003	0.520088
H68	H	1.938667	0.122828	0.519861
H69	H	1.797557	0.104158	0.630485
O70	O	0.859443	-0.307265	-0.000104
C71	C	0.862770	-0.478773	-0.000050
C72	C	0.940756	-0.385232	0.000003
H73	H	0.928478	-0.541833	0.000066
H74	H	0.801073	-0.481922	-0.095734
H75	H	0.801009	-0.481808	0.095587
H76	H	1.002589	-0.382135	-0.095569
H77	H	1.002371	-0.382121	0.095750
H78	H	1.655599	-0.011759	0.761024
H79	H	1.357165	-0.255511	0.630508
H80	H	1.138411	0.187270	0.000018
H81	H	0.771535	0.037805	-0.000032
H82	H	1.247905	0.028292	0.000019
