data_functionalizedCrystal
_audit_creation_method	'MofGen! by Chris Wilmer'
_symmetry_space_group_name_H-M	'P1'
_symmetry_Int_Tables_number	1
_symmetry_cell_setting	triclinic
loop_
_symmetry_equiv_pos_as_xyz
  x,y,z
_cell_length_a	10.654550
_cell_length_b	9.065218
_cell_length_c	9.130313
_cell_angle_alpha	90.000552
_cell_angle_beta	89.996220
_cell_angle_gamma	84.750394
loop_
_atom_site_label
_atom_site_type_symbol
_atom_site_fract_x
_atom_site_fract_y
_atom_site_fract_z
O1	O	1.668655	0.207228	-0.121914
O2	O	1.303255	0.226972	-0.121889
O3	O	1.493507	0.002416	-0.121899
O4	O	1.478402	0.431784	-0.121904
O5	O	1.493505	0.002422	0.121700
O6	O	1.303252	0.226978	0.121709
O7	O	1.668653	0.207234	0.121685
Cu8	Cu	1.485952	0.217107	0.143940
Cu9	Cu	1.485955	0.217100	-0.144144
O10	O	1.478400	0.431790	0.121695
C11	C	1.256450	0.225525	-0.000087
C12	C	1.116989	0.221188	-0.000078
C13	C	1.038027	0.353403	-0.000101
C14	C	0.906990	0.349319	-0.000126
C15	C	0.933890	0.080793	-0.000112
C16	C	1.064925	0.084879	-0.000076
C17	C	1.022496	0.508434	-0.000115
C18	C	0.891459	0.504350	-0.000141
C19	C	1.492055	-0.052559	-0.000102
C20	C	1.487714	-0.216378	-0.000109
C21	C	1.715457	0.208681	-0.000120
C22	C	1.854918	0.213018	-0.000139
C23	C	1.479852	0.486766	-0.000106
C24	C	1.484193	0.650585	-0.000108
N25	N	1.485959	0.217111	0.346563
N26	N	1.485957	0.217084	-0.346767
C27	C	1.570225	0.117712	0.423210
C28	C	1.570222	0.117694	0.576547
C29	C	1.401682	0.316488	0.576575
C30	C	1.401681	0.316497	0.423241
C31	C	1.667534	0.002944	0.423195
C32	C	1.667531	0.002926	0.576532
H33	H	1.052066	0.569069	0.101835
C34	C	1.637951	-0.150252	0.366958
C35	C	1.724907	-0.289278	0.407686
C36	C	1.695322	-0.442468	0.351448
C37	C	1.578782	-0.456631	0.254483
C38	C	1.491818	-0.317600	0.213750
C39	C	1.521403	-0.164411	0.269988
H40	H	1.811184	-0.278797	0.479470
H41	H	1.759699	-0.545387	0.381602
H42	H	1.556881	-0.570032	0.212853
H43	H	1.405541	-0.328081	0.141966
H44	H	1.457026	-0.061491	0.239834
C45	C	1.308980	0.425825	0.338922
C46	C	1.216343	0.535221	0.423262
C47	C	1.123638	0.644551	0.338940
C48	C	1.123569	0.644485	0.170279
C49	C	1.216209	0.535085	0.085929
C50	C	1.308915	0.425755	0.170251
H51	H	1.216391	0.535273	0.548123
H52	H	1.055060	0.725537	0.401382
H53	H	1.054943	0.725418	0.107859
H54	H	1.216161	0.535033	-0.038932
H55	H	1.377493	0.344770	0.107809
H56	H	0.891483	-0.030185	-0.000133
C57	C	1.151788	-0.060556	-0.000032
C58	C	1.245610	-0.094693	-0.126491
C59	C	1.332476	-0.240133	-0.126443
C60	C	1.325519	-0.351438	0.000063
C61	C	1.231693	-0.317304	0.126531
C62	C	1.144827	-0.171864	0.126484
H63	H	1.250764	-0.012296	-0.220147
H64	H	1.401933	-0.265400	-0.220064
H65	H	1.389822	-0.459102	0.000098
H66	H	1.226540	-0.399701	0.220187
H67	H	1.075371	-0.146597	0.220104
C68	C	1.790906	0.051491	0.358928
C69	C	1.917445	-0.037303	0.394301
C70	C	2.040814	0.011254	0.330035
C71	C	2.037645	0.148605	0.230396
C72	C	1.911101	0.237407	0.195019
C73	C	1.787732	0.188851	0.259285
H74	H	1.919795	-0.138986	0.468063
H75	H	2.134490	-0.054484	0.356224
H76	H	2.128970	0.184549	0.182823
H77	H	1.908751	0.339090	0.121256
H78	H	1.694056	0.254589	0.233095
H79	H	1.636593	-0.104243	0.624083
H80	H	1.333064	0.397404	0.639023
H81	H	1.058348	0.557796	-0.105288
H82	H	0.845972	0.551205	0.105027
C83	C	0.835379	0.583235	-0.137876
C84	C	0.876054	0.526043	-0.291055
C85	C	0.819973	0.604918	-0.428786
C86	C	0.723217	0.740985	-0.413339
C87	C	0.682537	0.798184	-0.260155
C88	C	0.738618	0.719309	-0.122423
H89	H	0.947684	0.425311	-0.302495
H90	H	0.850088	0.562574	-0.542183
H91	H	0.681703	0.799373	-0.515296
H92	H	0.610907	0.898915	-0.248714
H93	H	0.708503	0.761652	-0.009026
C94	C	1.798029	0.037103	0.632774
C95	C	1.876063	-0.076061	0.729735
C96	C	2.006549	-0.041872	0.785983
C97	C	2.059001	0.105480	0.745270
C98	C	1.980967	0.218653	0.648304
C99	C	1.850480	0.184465	0.592056
H100	H	1.837235	-0.185148	0.759877
H101	H	2.064315	-0.125651	0.857764
H102	H	2.155595	0.130789	0.786909
H103	H	2.019794	0.327741	0.618162
H104	H	1.792714	0.268244	0.520275
