data_functionalizedCrystal
_audit_creation_method	'MofGen! by Chris Wilmer'
_symmetry_space_group_name_H-M	'P1'
_symmetry_Int_Tables_number	1
_symmetry_cell_setting	triclinic
loop_
_symmetry_equiv_pos_as_xyz
  x,y,z
_cell_length_a	12.837943
_cell_length_b	17.699083
_cell_length_c	16.176319
_cell_angle_alpha	89.998504
_cell_angle_beta	89.993353
_cell_angle_gamma	89.055977
loop_
_atom_site_label
_atom_site_type_symbol
_atom_site_fract_x
_atom_site_fract_y
_atom_site_fract_z
O1	O	-1.374963	-0.196717	0.068735
O2	O	-0.874963	0.303283	0.568735
O3	O	-1.073182	-0.186999	0.068740
O4	O	-0.573182	0.313001	0.568740
O5	O	-1.232599	-0.082295	0.068730
O6	O	-0.732599	0.417705	0.568730
O7	O	-1.215547	-0.301421	0.068745
O8	O	-0.715547	0.198579	0.568745
O9	O	-1.232575	-0.082300	-0.068763
O10	O	-0.732575	0.417700	0.431237
O11	O	-1.073158	-0.187004	-0.068753
O12	O	-0.573158	0.312996	0.431247
O13	O	-1.374939	-0.196722	-0.068758
O14	O	-0.874939	0.303278	0.431242
Cu15	Cu	-1.224047	-0.191863	-0.081310
Cu16	Cu	-0.724047	0.308137	0.418690
Cu17	Cu	-1.224075	-0.191858	0.081292
Cu18	Cu	-0.724075	0.308142	0.581292
O19	O	-1.215523	-0.301426	-0.068748
O20	O	-0.715523	0.198574	0.431252
C21	C	-1.034558	-0.183719	-0.000006
C22	C	-0.534558	0.316281	0.499994
C23	C	-0.919506	-0.173928	-0.000004
C24	C	-0.419506	0.326072	0.499996
C25	C	-1.231976	-0.054056	-0.000016
C26	C	-0.731976	0.445944	0.499984
C27	C	-1.230143	0.030097	-0.000017
C28	C	-0.730143	0.530097	0.499983
C29	C	-1.413564	-0.200002	-0.000010
C30	C	-0.913564	0.299998	0.499990
C31	C	-1.528616	-0.209793	-0.000006
C32	C	-1.028616	0.290207	0.499994
C33	C	-0.678251	-0.291632	-0.000008
C34	C	-0.178251	0.208368	0.499992
C35	C	-0.570148	-0.282436	-0.000007
C36	C	-0.070148	0.217564	0.499993
C37	C	-0.595196	-0.146341	-0.000008
C38	C	-0.095196	0.353659	0.499992
C39	C	-0.703298	-0.155537	-0.000009
C40	C	-0.203298	0.344463	0.499991
C41	C	-0.744822	-0.228185	-0.000008
C42	C	-0.244822	0.271815	0.499992
C43	C	-0.852926	-0.237380	-0.000003
C44	C	-0.352926	0.262620	0.499997
C45	C	-0.877972	-0.101285	-0.000009
C46	C	-0.377972	0.398715	0.499991
C47	C	-0.769869	-0.092090	-0.000008
C48	C	-0.269869	0.407910	0.499992
C49	C	-1.216146	-0.329665	0.000001
C50	C	-0.716146	0.170335	0.500001
C51	C	-1.217979	-0.413818	0.000006
C52	C	-0.717979	0.086182	0.500006
N53	N	-1.224034	-0.191867	-0.195675
N54	N	-0.724034	0.308133	0.304325
C55	C	-1.323717	0.071843	-0.000019
C56	C	-0.823717	0.571843	0.499981
C57	C	-1.321989	0.150914	-0.000012
C58	C	-0.821989	0.650914	0.499988
C59	C	-1.226685	0.188236	-0.000008
C60	C	-0.726685	0.688236	0.499992
C61	C	-1.133103	0.146484	-0.000003
C62	C	-0.633103	0.646484	0.499997
C63	C	-1.134833	0.067415	-0.000004
C64	C	-0.634833	0.567415	0.499996
C65	C	-1.126126	0.465359	0.000004
C66	C	-0.626126	0.965359	0.500004
C67	C	-1.124404	0.544434	0.000003
C68	C	-0.624404	1.044434	0.500003
C69	C	-1.313282	0.548858	-0.000004
C70	C	-0.813282	1.048858	0.499996
C71	C	-1.315011	0.469789	-0.000005
C72	C	-0.815011	0.969789	0.499995
C73	C	-1.221430	0.428044	0.000004
C74	C	-0.721430	0.928044	0.500004
C75	C	-1.223306	0.342307	-0.000002
C76	C	-0.723306	0.842307	0.499998
C77	C	-1.224808	0.273972	-0.000007
C78	C	-0.724808	0.773972	0.499993
C79	C	-1.294694	-0.145505	-0.761062
C80	C	-0.794694	0.354495	-0.261062
C81	C	-1.294690	-0.145510	-0.674515
C82	C	-0.794690	0.354490	-0.174515
C83	C	-1.224081	-0.191855	-0.631250
C84	C	-0.724081	0.308145	-0.131250
C85	C	-1.153479	-0.238204	-0.674537
C86	C	-0.653479	0.261796	-0.174537
C87	C	-1.153489	-0.238202	-0.761083
C88	C	-0.653489	0.261798	-0.261083
C89	C	-1.153437	-0.238211	-0.325509
C90	C	-0.653437	0.261789	0.174491
C91	C	-1.153430	-0.238207	-0.238958
C92	C	-0.653430	0.261793	0.261042
C93	C	-1.294637	-0.145519	-0.238941
C94	C	-0.794637	0.354481	0.261059
C95	C	-1.294648	-0.145517	-0.325486
C96	C	-0.794648	0.354483	0.174514
C97	C	-1.224050	-0.191869	-0.368766
C98	C	-0.724050	0.308131	0.131234
C99	C	-1.224057	-0.191864	-0.462610
C100	C	-0.724057	0.308136	0.037390
C101	C	-1.224068	-0.191856	-0.537408
C102	C	-0.724068	0.308144	-0.037408
N103	N	-1.224096	-0.191848	0.195657
N104	N	-0.724096	0.308152	0.695657
H105	H	-0.886732	-0.296534	-0.000003
H106	H	-0.386732	0.203466	0.499997
F107	F	-1.421583	0.195340	-0.000016
F108	F	-0.921583	0.695340	0.499984
F109	F	-1.425154	0.032130	-0.000032
F110	F	-0.925154	0.532130	0.499968
H111	H	-1.049927	0.431380	0.000011
H112	H	-0.549927	0.931380	0.500011
F113	F	-1.416446	0.430073	-0.000009
F114	F	-0.916446	0.930073	0.499991
F115	F	-1.369829	-0.096187	-0.628451
F116	F	-0.869829	0.403813	-0.128451
F117	F	-1.031673	0.186207	0.000011
F118	F	-0.531673	0.686207	0.500011
F119	F	-1.369795	-0.096188	-0.371528
F120	F	-0.869795	0.403812	0.128472
F121	F	-1.412880	0.593293	-0.000011
F122	F	-0.912880	1.093293	0.499989
F123	F	-1.022963	0.584153	0.000008
F124	F	-0.522963	1.084153	0.500008
H125	H	-1.058635	0.033426	-0.000002
H126	H	-0.558635	0.533426	0.499998
F127	F	-1.078336	-0.287533	-0.628491
F128	F	-0.578336	0.212467	-0.128491
F129	F	-0.722446	-0.368948	0.000003
F130	F	-0.222446	0.131052	0.500003
H131	H	-1.352125	-0.107779	-0.203693
H132	H	-0.852125	0.392221	0.296307
H133	H	-0.561368	-0.087194	-0.000077
H134	H	-0.061368	0.412806	0.499923
H135	H	-1.095952	-0.275951	-0.360741
H136	H	-0.595952	0.224049	0.139259
F137	F	-1.078276	-0.287538	-0.192914
F138	F	-0.578276	0.212462	0.307086
F139	F	-1.078351	-0.287530	-0.807145
F140	F	-0.578351	0.212470	-0.307145
H141	H	-0.515949	-0.334102	-0.000010
H142	H	-0.015949	0.165898	0.499990
F143	F	-0.948829	-0.033756	0.000002
F144	F	-0.448829	0.466244	0.500002
F145	F	-1.369843	-0.096173	-0.807099
F146	F	-0.869843	0.403827	-0.307099
F147	F	-0.725665	-0.014777	-0.000012
F148	F	-0.225665	0.485223	0.499988
