data_functionalizedCrystal
_audit_creation_method	'MofGen! by Chris Wilmer'
_symmetry_space_group_name_H-M	'P1'
_symmetry_Int_Tables_number	1
_symmetry_cell_setting	triclinic
loop_
_symmetry_equiv_pos_as_xyz
  x,y,z
_cell_length_a	12.594517
_cell_length_b	16.959454
_cell_length_c	12.594510
_cell_angle_alpha	90.033496
_cell_angle_beta	89.977213
_cell_angle_gamma	89.980125
loop_
_atom_site_label
_atom_site_type_symbol
_atom_site_fract_x
_atom_site_fract_y
_atom_site_fract_z
Zn1	Zn	1.627253	0.314617	-0.601863
Zn2	Zn	1.627126	0.446825	-0.423886
Zn3	Zn	1.449252	0.314664	-0.423892
Zn4	Zn	1.449226	0.446757	-0.601816
O5	O	1.538214	0.380716	-0.512864
O6	O	1.776182	0.332164	-0.578271
O7	O	1.603489	0.429342	-0.274941
O8	O	1.472928	0.204047	-0.447523
O9	O	1.776089	0.429297	-0.447512
O10	O	1.603704	0.204013	-0.578277
O11	O	1.472805	0.332244	-0.274945
O12	O	1.300303	0.332178	-0.447477
O13	O	1.472884	0.429181	-0.750768
O14	O	1.300284	0.429226	-0.578197
O15	O	1.603679	0.332098	-0.750803
O16	O	1.603464	0.557427	-0.447467
O17	O	1.472761	0.557377	-0.578191
C18	C	1.538125	0.586082	-0.512846
C19	C	1.538184	0.673939	-0.512874
C20	C	1.261673	0.380700	-0.512833
C21	C	1.143368	0.380713	-0.512845
C22	C	1.538293	0.380626	-0.790485
C23	C	1.538326	0.380588	-0.908791
C24	C	1.074094	0.327856	-0.441882
C25	C	1.003276	0.399958	-0.415703
C26	C	1.003387	0.308645	-0.539042
C27	C	1.074108	0.452853	-0.486615
C28	C	1.074225	0.361491	-0.610000
C29	C	1.003439	0.433644	-0.583857
C30	C	1.815835	0.380733	-0.512897
C31	C	1.934141	0.380740	-0.512910
C32	C	1.538333	0.174548	-0.512906
C33	C	1.538383	0.086691	-0.512924
C34	C	1.470256	1.045418	-0.580925
C35	C	1.606469	1.045411	-0.444912
C36	C	1.606432	0.962865	-0.444902
C37	C	1.538305	0.921592	-0.512904
C38	C	1.470215	0.962865	-0.580915
C39	C	1.674513	0.921586	-0.376884
C40	C	1.674477	0.839035	-0.376871
C41	C	1.606355	0.797760	-0.444879
C42	C	1.538263	0.839038	-0.512894
C43	C	1.470136	0.797766	-0.580896
C44	C	1.402049	0.839042	-0.648917
C45	C	1.402092	0.921591	-0.648923
C46	C	1.606311	0.715212	-0.444872
C47	C	1.470094	0.715212	-0.580886
C48	C	1.609491	0.327769	-1.048827
C49	C	1.635472	0.399893	-0.978007
C50	C	1.512392	0.308472	-0.978040
C51	C	1.564402	0.452726	-1.048757
C52	C	1.441277	0.361256	-1.048796
C53	C	1.467221	0.433430	-0.978008
C54	C	1.538197	0.380749	-0.236323
C55	C	1.538370	0.380564	-0.118019
H56	H	1.105118	0.283201	-0.381797
O57	O	1.486006	0.235751	-0.941034
C58	C	1.354680	0.132506	-0.936725
C59	C	1.384407	0.214877	-0.978680
H60	H	1.272547	0.115597	-0.967163
H61	H	1.354071	0.133332	-0.846214
H62	H	1.415464	0.087582	-0.965799
H63	H	1.323654	0.259847	-0.949684
H64	H	1.385051	0.213986	-1.069189
O65	O	1.110877	0.525602	-0.459945
C66	C	1.115707	0.628300	-0.327737
C67	C	1.073971	0.545917	-0.357819
H68	H	1.085903	0.644743	-0.245158
H69	H	1.085969	0.673446	-0.387813
H70	H	1.206220	0.627674	-0.327949
H71	H	0.983460	0.546466	-0.357596
H72	H	1.103789	0.500806	-0.297737
H73	H	1.414824	1.079030	-0.636310
H74	H	1.661928	1.079020	-0.389542
H75	H	1.105414	0.345195	-0.692109
O76	O	1.590539	0.525540	-1.085606
C77	C	1.545751	0.663639	-1.090449
C78	C	1.516009	0.581225	-1.048659
H79	H	1.485522	0.708685	-1.060575
H80	H	1.545539	0.663076	-1.180965
H81	H	1.628269	0.680175	-1.060684
H82	H	1.433486	0.564639	-1.078345
H83	H	1.516294	0.581833	-0.958144
H84	H	1.669700	0.283167	-1.079920
H85	H	1.729918	0.805432	-0.321486
O86	O	1.733466	0.419265	-0.940951
C87	C	1.919247	0.385550	-0.935046
C88	C	1.808324	0.363518	-0.977056
H89	H	1.979804	0.340500	-0.964238
H90	H	1.918149	0.385900	-0.844534
H91	H	1.941916	0.446603	-0.965326
H92	H	1.785587	0.302461	-0.946855
H93	H	1.809482	0.363222	-1.067566
O94	O	0.966139	0.419245	-0.317657
C95	C	0.960057	0.385367	-0.131972
C96	C	1.002158	0.363432	-0.242954
H97	H	0.989180	0.340263	-0.071541
H98	H	0.869547	0.385719	-0.133078
H99	H	0.990338	0.446400	-0.109127
H100	H	0.971956	0.302394	-0.265867
H101	H	1.092667	0.363133	-0.241788
O102	O	1.672538	0.675238	-0.378767
C103	C	1.807583	0.683947	-0.243794
C104	C	1.732650	0.729313	-0.318627
H105	H	1.856187	0.727646	-0.195135
H106	H	1.863271	0.645267	-0.292648
H107	H	1.758700	0.645331	-0.188142
H108	H	1.781447	0.767971	-0.374293
H109	H	1.676959	0.767943	-0.269706
H110	H	1.346574	0.805428	-0.704280
O111	O	1.336067	0.961652	-0.715140
C112	C	1.284270	0.986826	-0.896139
C113	C	1.359126	0.941417	-0.821276
H114	H	1.302872	0.970470	-0.981965
H115	H	1.296007	1.052924	-0.884550
H116	H	1.198454	0.970660	-0.877312
H117	H	1.444972	0.957517	-0.840058
H118	H	1.347298	0.875330	-0.832880
O119	O	1.403817	0.675245	-0.646982
C120	C	1.268773	0.683965	-0.781949
C121	C	1.343757	0.729325	-0.707131
H122	H	1.220211	0.727668	-0.830615
H123	H	1.213047	0.645395	-0.733081
H124	H	1.317611	0.645240	-0.837594
H125	H	1.295004	0.768092	-0.651472
H126	H	1.399485	0.767845	-0.756065
H127	H	0.972267	0.247696	-0.561136
O128	O	0.966700	0.487147	-0.655363
C129	C	0.961298	0.623545	-0.708574
C130	C	1.002959	0.563037	-0.627513
H131	H	0.990615	0.684913	-0.686099
H132	H	0.870784	0.622871	-0.708571
H133	H	0.991715	0.607631	-0.791118
H134	H	0.972620	0.578908	-0.544930
H135	H	1.093471	0.563722	-0.627609
H136	H	1.407058	0.478139	-0.947110
O137	O	1.740559	0.961798	-0.310839
C138	C	1.800728	1.088972	-0.250325
C139	C	1.725951	1.043525	-0.325255
H140	H	1.788927	1.155055	-0.261938
H141	H	1.886605	1.072796	-0.268964
H142	H	1.781956	1.072700	-0.164536
H143	H	1.744627	1.059772	-0.411068
H144	H	1.640096	1.059704	-0.306525
O145	O	1.343429	0.341775	-1.086112
C146	C	1.233685	0.320554	-1.240175
C147	C	1.344538	0.342660	-1.198052
H148	H	1.234551	0.321246	-1.330683
H149	H	1.172778	0.364947	-1.209900
H150	H	1.211676	0.259042	-1.211115
H151	H	1.366648	0.404154	-1.227095
H152	H	1.405381	0.298216	-1.228320
