data_functionalizedCrystal
_audit_creation_method	'MofGen! by Chris Wilmer'
_symmetry_space_group_name_H-M	'P1'
_symmetry_Int_Tables_number	1
_symmetry_cell_setting	triclinic
loop_
_symmetry_equiv_pos_as_xyz
  x,y,z
_cell_length_a	19.805405
_cell_length_b	11.169417
_cell_length_c	11.169409
_cell_angle_alpha	90.021683
_cell_angle_beta	89.960143
_cell_angle_gamma	89.974651
loop_
_atom_site_label
_atom_site_type_symbol
_atom_site_fract_x
_atom_site_fract_y
_atom_site_fract_z
Zn1	Zn	-0.269428	-1.834828	-0.678539
Zn2	Zn	0.230572	-1.334828	-0.178539
Zn3	Zn	-0.382637	-1.834661	-0.477830
Zn4	Zn	0.117363	-1.334661	0.022170
Zn5	Zn	-0.269465	-1.634114	-0.477867
Zn6	Zn	0.230535	-1.134114	0.022133
Zn7	Zn	-0.382578	-1.634065	-0.678468
Zn8	Zn	0.117422	-1.134065	-0.178468
O9	O	-0.326027	-1.734417	-0.578176
O10	O	0.173973	-1.234417	-0.078176
O11	O	-0.284454	-2.002756	-0.651929
O12	O	0.215546	-1.502756	-0.151929
O13	O	-0.367665	-1.808009	-0.309885
O14	O	0.132335	-1.308009	0.190115
O15	O	-0.174743	-1.660830	-0.504532
O16	O	0.325257	-1.160830	-0.004532
O17	O	-0.367628	-2.002633	-0.504469
O18	O	0.132372	-1.502633	-0.004469
O19	O	-0.174716	-1.808293	-0.651965
O20	O	0.325284	-1.308293	-0.151965
O21	O	-0.284518	-1.660668	-0.309913
O22	O	0.215482	-1.160668	0.190087
O23	O	-0.284461	-1.466158	-0.504463
O24	O	0.215539	-0.966158	-0.004463
O25	O	-0.367528	-1.660746	-0.846428
O26	O	0.132472	-1.160746	-0.346428
O27	O	-0.367564	-1.466122	-0.651844
O28	O	0.132436	-0.966122	-0.151844
O29	O	-0.284397	-1.808246	-0.846480
O30	O	0.215603	-1.308246	-0.346480
O31	O	-0.477346	-1.807962	-0.504400
O32	O	0.022654	-1.307962	-0.004400
O33	O	-0.477302	-1.660585	-0.651808
O34	O	0.022698	-1.160585	-0.151808
C35	C	-0.326011	-1.422593	-0.578151
C36	C	0.173989	-0.922593	-0.078151
C37	C	-0.326020	-1.289193	-0.578168
C38	C	0.173980	-0.789193	-0.078168
C39	C	-0.501883	-1.734282	-0.578118
C40	C	-0.001883	-1.234282	-0.078118
C41	C	-0.577115	-1.734334	-0.578134
C42	C	-0.077115	-1.234334	-0.078134
C43	C	-0.612459	-1.811148	-0.501459
C44	C	-0.112459	-1.311148	-0.001459
C45	C	-0.683147	-1.811199	-0.501485
C46	C	-0.183147	-1.311199	-0.001485
C47	C	-0.718490	-1.734429	-0.578181
C48	C	-0.218490	-1.234429	-0.078181
C49	C	-0.683141	-1.657612	-0.654865
C50	C	-0.183141	-1.157612	-0.154865
C51	C	-0.612454	-1.657568	-0.654844
C52	C	-0.112454	-1.157568	-0.154844
C53	C	-0.968214	-1.657789	-0.654954
C54	C	-0.468214	-1.157789	-0.154954
C55	C	-1.038907	-1.657837	-0.654967
C56	C	-0.538907	-1.157837	-0.154967
C57	C	-1.038908	-1.811420	-0.501595
C58	C	-0.538908	-1.311420	-0.001595
C59	C	-0.968221	-1.811376	-0.501574
C60	C	-0.468221	-1.311376	-0.001574
C61	C	-0.932878	-1.734564	-0.578261
C62	C	-0.432878	-1.234564	-0.078261
C63	C	-0.856229	-1.734511	-0.578233
C64	C	-0.356229	-1.234511	-0.078233
C65	C	-0.795137	-1.734475	-0.578204
C66	C	-0.295137	-1.234475	-0.078204
C67	C	-0.149484	-1.734586	-0.578261
C68	C	0.350516	-1.234586	-0.078261
C69	C	-0.074252	-1.734657	-0.578297
C70	C	0.425748	-1.234657	-0.078297
C71	C	-0.325952	-1.734509	-0.891219
C72	C	0.174048	-1.234509	-0.391219
C73	C	-0.325920	-1.734549	-1.024619
C74	C	0.174080	-1.234549	-0.524619
C75	C	-0.326038	-1.047460	-0.578193
C76	C	0.173962	-0.547460	-0.078193
C77	C	-0.326028	-1.180860	-0.578176
C78	C	0.173972	-0.680860	-0.078176
C79	C	-0.326053	-1.734395	-0.266352
C80	C	0.173947	-1.234395	0.233648
C81	C	-0.325894	-1.734588	-0.132952
C82	C	0.174106	-1.234588	0.367048
H83	H	-0.711922	-1.873748	-0.439048
H84	H	-0.211922	-1.373748	0.060952
H85	H	-1.067693	-1.873969	-0.439157
H86	H	-0.567693	-1.373969	0.060843
H87	H	-1.067681	-1.595323	-0.717431
H88	H	-0.567681	-1.095323	-0.217431
O89	O	-0.933993	-1.583047	-0.729465
O90	O	-0.433993	-1.083047	-0.229465
C91	C	-0.980348	-1.515312	-0.797172
C92	C	-0.480348	-1.015312	-0.297172
H93	H	-1.030762	-1.511232	-0.748023
H94	H	-0.530762	-1.011232	-0.248023
H95	H	-0.959966	-1.420726	-0.809866
H96	H	-0.459966	-0.920726	-0.309866
H97	H	-0.987799	-1.559205	-0.888372
H98	H	-0.487799	-1.059205	-0.388372
H99	H	-0.711923	-1.595110	-0.717318
H100	H	-0.211923	-1.095110	-0.217318
O101	O	-0.933785	-1.885837	-0.427110
O102	O	-0.433785	-1.385837	0.072890
C103	C	-0.863815	-1.869347	-0.443554
C104	C	-0.363815	-1.369347	0.056446
H105	H	-0.854185	-1.776698	-0.482774
H106	H	-0.354185	-1.276698	0.017226
H107	H	-0.836989	-1.877519	-0.353657
H108	H	-0.336989	-1.377519	0.146343
H109	H	-0.843693	-1.940489	-0.507528
H110	H	-0.343693	-1.440489	-0.007528
O111	O	-0.578234	-1.885834	-0.426913
O112	O	-0.078234	-1.385834	0.073087
C113	C	-0.624592	-1.953620	-0.359223
C114	C	-0.124592	-1.453620	0.140777
H115	H	-0.674954	-1.957783	-0.408404
H116	H	-0.174954	-1.457783	0.091596
H117	H	-0.604132	-2.048175	-0.346495
H118	H	-0.104132	-1.548175	0.153505
H119	H	-0.632176	-1.909719	-0.268036
H120	H	-0.132176	-1.409719	0.231964
O121	O	-0.578223	-1.582841	-0.729368
O122	O	-0.078223	-1.082841	-0.229368
C123	C	-0.624573	-1.515115	-0.797091
C124	C	-0.124573	-1.015115	-0.297091
H125	H	-0.674986	-1.511004	-0.747940
H126	H	-0.174986	-1.011004	-0.247940
H127	H	-0.604183	-1.420538	-0.809817
H128	H	-0.104183	-0.920538	-0.309817
H129	H	-0.632031	-1.559033	-0.888278
H130	H	-0.132031	-1.059033	-0.388278
