data_functionalizedCrystal
_audit_creation_method	'MofGen! by Chris Wilmer'
_symmetry_space_group_name_H-M	'P1'
_symmetry_Int_Tables_number	1
_symmetry_cell_setting	triclinic
loop_
_symmetry_equiv_pos_as_xyz
  x,y,z
_cell_length_a	15.944551
_cell_length_b	10.654562
_cell_length_c	9.730223
_cell_angle_alpha	90.003492
_cell_angle_beta	90.006223
_cell_angle_gamma	83.994421
loop_
_atom_site_label
_atom_site_type_symbol
_atom_site_fract_x
_atom_site_fract_y
_atom_site_fract_z
O1	O	0.118028	1.666298	0.114384
O2	O	0.129257	1.300676	0.114367
O3	O	0.001426	1.493471	0.114363
O4	O	0.245860	1.473503	0.114387
O5	O	0.001420	1.493469	-0.114217
O6	O	0.129251	1.300674	-0.114213
O7	O	0.118022	1.666295	-0.114196
Zn8	Zn	0.123635	1.483484	-0.150497
Zn9	Zn	0.123644	1.483487	0.150667
O10	O	0.245853	1.473500	-0.114193
C11	C	0.128427	1.253888	0.000075
C12	C	0.125954	1.114477	0.000068
C13	C	0.124797	1.048960	-0.124521
C14	C	0.122479	0.917968	-0.124498
C15	C	0.122480	0.918021	0.124713
C16	C	0.124791	1.049012	0.124688
C17	C	0.125959	1.114426	-0.249141
C18	C	0.124803	1.048908	-0.373740
C19	C	0.122486	0.917916	-0.373717
C20	C	0.121325	0.852441	-0.249096
C21	C	-0.029876	1.492641	0.000073
C22	C	-0.123136	1.490156	0.000072
C23	C	-0.338723	1.364712	0.000085
C24	C	-0.399404	1.422963	-0.112616
C25	C	-0.293888	1.485660	0.000082
C26	C	-0.399381	1.422993	0.112746
C27	C	-0.458826	1.481308	0.000098
C28	C	-0.353341	1.543944	-0.112712
C29	C	-0.353312	1.543958	0.112752
C30	C	-0.413976	1.602296	0.000023
C31	C	-0.198872	1.488163	0.000072
C32	C	-0.553842	1.478814	0.000099
C33	C	0.277155	1.474330	0.000100
C34	C	0.370416	1.476816	0.000110
C35	C	0.118852	1.713084	0.000099
C36	C	0.121325	1.852494	0.000115
N37	N	0.123643	1.483490	0.356204
N38	N	0.123629	1.483491	-0.356033
C39	C	0.067151	1.569017	0.428128
C40	C	0.067146	1.569021	0.572011
C41	C	0.180128	1.397960	0.572032
C42	C	0.180136	1.397963	0.428152
C43	C	0.010658	1.654545	0.356180
C44	C	-0.045840	1.740078	0.428104
C45	C	-0.045845	1.740082	0.571987
C46	C	0.010647	1.654553	0.643946
H47	H	0.127849	1.221086	-0.249174
N48	N	-0.457132	1.735387	-0.000061
H49	H	-0.520287	1.732990	0.000744
H50	H	-0.439565	1.781374	0.084242
N51	N	0.121237	0.847394	0.259110
H52	H	0.173617	0.860038	0.313587
H53	H	0.069629	0.880394	0.313468
H54	H	-0.091829	1.809721	0.369509
N55	N	-0.106779	1.832320	0.649576
H56	H	-0.074265	1.887824	0.709287
H57	H	-0.142552	1.886413	0.582080
N58	N	-0.326243	1.611655	0.238974
H59	H	-0.263049	1.613539	0.237551
H60	H	-0.354788	1.700859	0.239813
H61	H	0.125742	1.102228	-0.475201
N62	N	-0.295375	1.231735	-0.000065
H63	H	-0.232239	1.234343	0.000807
H64	H	-0.312886	1.185635	0.084183
N65	N	0.126036	1.119689	0.259062
H66	H	0.124955	1.058341	0.338012
H67	H	0.178972	1.163877	0.264486
N68	N	-0.426433	1.355217	-0.238844
H69	H	-0.398792	1.265486	-0.238770
H70	H	-0.489748	1.354853	-0.238303
N71	N	-0.426389	1.355213	0.238946
H72	H	-0.398746	1.265484	0.238835
H73	H	-0.408813	1.400084	0.324005
N74	N	-0.326482	1.611654	-0.239059
H75	H	-0.263230	1.612877	-0.238307
H76	H	-0.343693	1.566276	-0.324012
N77	N	0.010670	1.654537	0.200994
H78	H	-0.046546	1.636425	0.166317
H79	H	0.023565	1.739819	0.166453
N80	N	0.121227	0.847249	-0.508095
H81	H	0.122314	0.908602	-0.587039
H82	H	0.172245	0.782730	-0.513506
N83	N	0.118819	0.711158	-0.249067
H84	H	0.066283	0.689791	-0.200147
H85	H	0.118291	0.679682	-0.346940
H86	H	0.010644	1.654572	0.761105
N87	N	0.241053	1.305712	0.649637
H88	H	0.232473	1.318686	0.751699
H89	H	0.230679	1.216676	0.624473
N90	N	0.241070	1.305725	0.350564
H91	H	0.276853	1.251538	0.417973
H92	H	0.208496	1.250313	0.290845
