data_functionalizedCrystal
_audit_creation_method	'MofGen! by Chris Wilmer'
_symmetry_space_group_name_H-M	'P1'
_symmetry_Int_Tables_number	1
_symmetry_cell_setting	triclinic
loop_
_symmetry_equiv_pos_as_xyz
  x,y,z
_cell_length_a	23.532407
_cell_length_b	13.596369
_cell_length_c	14.519709
_cell_angle_alpha	89.993066
_cell_angle_beta	83.264411
_cell_angle_gamma	90.000007
loop_
_atom_site_label
_atom_site_type_symbol
_atom_site_fract_x
_atom_site_fract_y
_atom_site_fract_z
O1	O	0.755765	-0.081671	0.111951
O2	O	1.089099	0.251663	0.445284
O3	O	1.422432	0.584996	0.778617
O4	O	0.589975	-0.081700	0.128149
O5	O	0.923308	0.251633	0.461482
O6	O	1.256642	0.584967	0.794816
O7	O	0.677266	-0.081676	-0.014241
O8	O	1.010599	0.251658	0.319093
O9	O	1.343932	0.584991	0.652426
O10	O	0.668474	-0.081695	0.254340
O11	O	1.001808	0.251638	0.587674
O12	O	1.335141	0.584972	0.921007
O13	O	0.677257	0.081907	-0.014248
O14	O	1.010590	0.415240	0.319085
O15	O	1.343924	0.748574	0.652419
O16	O	0.589966	0.081883	0.128142
O17	O	0.923300	0.415216	0.461475
O18	O	1.256633	0.748550	0.794808
O19	O	0.755756	0.081912	0.111943
O20	O	1.089090	0.415245	0.445277
O21	O	1.422423	0.748579	0.778610
Zn22	Zn	0.672860	0.107870	0.120041
Zn23	Zn	1.006193	0.441203	0.453375
Zn24	Zn	1.339527	0.774537	0.786708
Zn25	Zn	0.672871	-0.107658	0.120051
Zn26	Zn	1.006205	0.225676	0.453384
Zn27	Zn	1.339538	0.559009	0.786718
O28	O	0.668466	0.081888	0.254333
O29	O	1.001799	0.415221	0.587666
O30	O	1.335132	0.748555	0.921000
C31	C	0.568753	0.000088	0.127733
C32	C	0.902086	0.333421	0.461066
C33	C	1.235419	0.666755	0.794399
C34	C	0.505530	0.000077	0.126493
C35	C	0.838863	0.333410	0.459826
C36	C	1.172197	0.666744	0.793159
N37	N	0.672856	0.254962	0.120034
N38	N	1.006190	0.588295	0.453367
N39	N	1.339523	0.921628	0.786701
N40	N	0.672880	-0.254750	0.120051
N41	N	1.006213	0.078584	0.453384
N42	N	1.339546	0.411917	0.786718
C43	C	0.106772	0.000116	0.202977
C44	C	0.440105	0.333449	0.536311
C45	C	0.773439	0.666783	0.869644
C46	C	0.047367	0.000122	0.201825
C47	C	0.380700	0.333455	0.535159
C48	C	0.714033	0.666789	0.868492
O49	O	0.010942	0.000153	0.272727
O50	O	0.344275	0.333486	0.606061
O51	O	0.677609	0.666819	0.939394
N52	N	0.024358	0.000127	0.117175
N53	N	0.357692	0.333460	0.450508
N54	N	0.691025	0.666793	0.783841
C55	C	0.060759	0.000135	0.033671
C56	C	0.394093	0.333468	0.367004
C57	C	0.727426	0.666802	0.700337
O58	O	0.035734	0.000140	-0.038437
O59	O	0.369068	0.333474	0.294896
O60	O	0.702401	0.666807	0.628230
C61	C	0.120164	0.000136	0.034824
C62	C	0.453497	0.333469	0.368157
C63	C	0.786830	0.666803	0.701490
C64	C	0.143168	0.000121	0.119480
C65	C	0.476502	0.333455	0.452813
C66	C	0.809835	0.666788	0.786146
C67	C	0.129777	0.000103	0.287626
C68	C	0.463111	0.333436	0.620960
C69	C	0.796444	0.666769	0.954293
C70	C	0.189179	0.000095	0.288778
C71	C	0.522512	0.333428	0.622111
C72	C	0.855845	0.666761	0.955445
C73	C	0.225575	0.000100	0.205281
C74	C	0.558908	0.333434	0.538614
C75	C	0.892241	0.666767	0.871947
C76	C	0.202570	0.000114	0.120631
C77	C	0.535903	0.333447	0.453965
C78	C	0.869236	0.666780	0.787298
C79	C	0.156563	0.000151	-0.048679
C80	C	0.489897	0.333485	0.284654
C81	C	0.823230	0.666818	0.617988
C82	C	0.215971	0.000153	-0.047519
C83	C	0.549304	0.333486	0.285815
C84	C	0.882638	0.666820	0.619148
C85	C	0.238976	0.000139	0.037137
C86	C	0.572309	0.333472	0.370471
C87	C	0.905642	0.666805	0.703804
C88	C	0.298367	0.000111	0.038286
C89	C	0.631700	0.333444	0.371619
C90	C	0.965034	0.666778	0.704952
N91	N	0.321375	0.000107	0.122936
N92	N	0.654709	0.333440	0.456269
N93	N	0.988042	0.666773	0.789603
C94	C	0.284979	0.000101	0.206434
C95	C	0.618312	0.333434	0.539767
C96	C	0.951646	0.666768	0.873100
C97	C	-0.063994	0.000135	0.031256
C98	C	0.269339	0.333468	0.364589
C99	C	0.602673	0.666801	0.697922
C100	C	-0.123397	0.000127	0.030102
C101	C	0.209936	0.333460	0.363435
C102	C	0.543269	0.666793	0.696768
C103	C	-0.136786	0.000116	0.198257
C104	C	0.196547	0.333449	0.531590
C105	C	0.529881	0.666782	0.864923
C106	C	-0.077382	0.000117	0.199410
C107	C	0.255952	0.333450	0.532743
C108	C	0.589285	0.666783	0.866076
C109	C	-0.040986	0.000130	0.115906
C110	C	0.292347	0.333464	0.449240
C111	C	0.625681	0.666797	0.782573
C112	C	0.409727	0.000084	0.208846
C113	C	0.743060	0.333417	0.542179
C114	C	1.076393	0.666750	0.875512
C115	C	0.469134	0.000072	0.209990
C116	C	0.802467	0.333405	0.543323
C117	C	1.135801	0.666738	0.876657
C118	C	0.482517	0.000088	0.041836
C119	C	0.815851	0.333421	0.375169
C120	C	1.149184	0.666754	0.708502
C121	C	0.423115	0.000095	0.040691
C122	C	0.756449	0.333428	0.374024
C123	C	1.089782	0.666761	0.707358
C124	C	0.386721	0.000096	0.124204
C125	C	0.720054	0.333429	0.457537
C126	C	1.053388	0.666763	0.790870
O127	O	0.334827	0.000084	-0.032579
O128	O	0.668160	0.333418	0.300754
O129	O	1.001493	0.666751	0.634087
O130	O	0.310012	0.000109	0.278529
O131	O	0.643346	0.333442	0.611863
O132	O	0.976679	0.666775	0.945196
C133	C	0.776979	0.000122	0.112360
C134	C	1.110312	0.333455	0.445693
C135	C	1.443645	0.666789	0.779026
C136	C	0.840201	0.000127	0.113600
C137	C	1.173535	0.333460	0.446933
C138	C	1.506868	0.666793	0.780266
C139	C	0.676852	0.000116	-0.048599
C140	C	1.010185	0.333449	0.284734
C141	C	1.343518	0.666782	0.618067
C142	C	0.675624	0.000116	-0.150966
C143	C	1.008957	0.333449	0.182367
C144	C	1.342291	0.666783	0.515701
C145	C	0.672871	0.656253	0.120052
C146	C	1.006204	0.989586	0.453385
C147	C	1.339537	1.322919	0.786719
C148	C	0.672865	0.544601	0.120050
C149	C	1.006198	0.877935	0.453383
C150	C	1.339532	1.211268	0.786717
C151	C	0.672864	0.455611	0.120044
C152	C	1.006197	0.788944	0.453377
C153	C	1.339530	1.122277	0.786710
C154	C	0.672858	0.343952	0.120040
C155	C	1.006191	0.677286	0.453374
C156	C	1.339524	1.010619	0.786707
C157	C	0.671104	0.000090	-0.525808
C158	C	1.004437	0.333423	-0.192475
C159	C	1.337771	0.666756	0.140858
C160	C	0.672359	0.000097	-0.421515
C161	C	1.005692	0.333431	-0.088182
C162	C	1.339026	0.666764	0.245151
C163	C	0.673364	0.000104	-0.338390
C164	C	1.006697	0.333437	-0.005057
C165	C	1.340030	0.666771	0.328276
C166	C	0.674619	0.000110	-0.234091
C167	C	1.007953	0.333443	0.099243
C168	C	1.341286	0.666776	0.432576
C169	C	0.668880	0.000094	0.288692
C170	C	1.002213	0.333428	0.622025
C171	C	1.335546	0.666761	0.955358
C172	C	0.670107	0.000087	0.391058
C173	C	1.003441	0.333421	0.724392
C174	C	1.336774	0.666754	1.057725
H175	H	0.487861	0.000059	0.278930
H176	H	0.821194	0.333393	0.612263
H177	H	1.154527	0.666726	0.945597
H178	H	0.137844	0.000164	-0.117615
H179	H	0.471177	0.333497	0.215718
H180	H	0.804511	0.666830	0.549052
H181	H	-0.142122	0.000123	-0.038834
H182	H	0.191211	0.333456	0.294500
H183	H	0.524545	0.666790	0.627833
H184	H	-0.034363	0.000137	-0.036747
H185	H	0.298970	0.333470	0.296586
H186	H	0.632303	0.666804	0.629920
H187	H	0.245602	0.000165	-0.115519
H188	H	0.578936	0.333498	0.217814
H189	H	0.912269	0.666831	0.551148
Cl190	Cl	0.394194	0.000117	-0.065735
Cl191	Cl	0.727528	0.333451	0.267599
Cl192	Cl	1.060861	0.666784	0.600932
Cl193	Cl	-0.182552	0.000114	0.303226
Cl194	Cl	0.150781	0.333448	0.636559
Cl195	Cl	0.484114	0.666781	0.969892
Cl196	Cl	0.363983	0.000084	0.313835
Cl197	Cl	0.697316	0.333417	0.647168
Cl198	Cl	1.030649	0.666751	0.980501
Cl199	Cl	0.528283	0.000099	-0.063127
Cl200	Cl	0.861616	0.333432	0.270207
Cl201	Cl	1.194950	0.666766	0.603540
Cl202	Cl	0.218089	0.000084	0.395209
Cl203	Cl	0.551423	0.333417	0.728542
Cl204	Cl	0.884756	0.666750	1.061875
Cl205	Cl	0.084032	0.000093	0.392610
Cl206	Cl	0.417365	0.333427	0.725943
Cl207	Cl	0.750698	0.666760	1.059276
H208	H	-0.058656	0.000111	0.268344
H209	H	0.274678	0.333444	0.601677
H210	H	0.608011	0.666777	0.935011
