data_functionalizedCrystal
_audit_creation_method	'MofGen! by Chris Wilmer'
_symmetry_space_group_name_H-M	'P1'
_symmetry_Int_Tables_number	1
_symmetry_cell_setting	triclinic
loop_
_symmetry_equiv_pos_as_xyz
  x,y,z
_cell_length_a	11.792241
_cell_length_b	11.792254
_cell_length_c	11.295483
_cell_angle_alpha	94.123239
_cell_angle_beta	85.870734
_cell_angle_gamma	84.196007
loop_
_atom_site_label
_atom_site_type_symbol
_atom_site_fract_x
_atom_site_fract_y
_atom_site_fract_z
O1	O	1.514505	0.147979	-0.098909
O2	O	1.184167	0.164010	-0.098937
O3	O	1.357344	-0.009174	-0.098914
O4	O	1.341327	0.321163	-0.098932
O5	O	1.342133	0.006013	0.099135
O6	O	1.168956	0.179198	0.099112
O7	O	1.499294	0.163167	0.099140
Cu8	Cu	1.332736	0.172569	0.117209
Cu9	Cu	1.350725	0.154608	-0.117007
O10	O	1.326117	0.336351	0.099117
C11	C	1.134271	0.170596	0.000084
C12	C	1.008257	0.167581	0.000073
C13	C	0.777542	0.162041	0.000108
C14	C	0.905929	0.165119	0.000089
C15	C	1.348730	-0.043871	0.000110
C16	C	1.345710	-0.169884	0.000109
C17	C	1.343256	-0.272221	0.000104
C18	C	1.340188	-0.400609	0.000093
C19	C	1.549190	0.156580	0.000116
C20	C	1.675204	0.159595	0.000119
C21	C	1.334731	0.371048	0.000090
C22	C	1.337752	0.497060	0.000083
N23	N	1.320092	0.185201	0.281944
N24	N	1.363377	0.141967	-0.281741
C25	C	1.454394	0.050970	0.531251
C26	C	1.444847	0.060524	0.655913
C27	C	1.291447	0.213858	0.655933
C28	C	1.300994	0.204304	0.531271
C29	C	1.382471	0.122858	0.468934
C30	C	1.392023	0.113310	0.344269
C31	C	1.238618	0.266638	0.344291
C32	C	1.229071	0.276192	0.468954
H33	H	1.458368	0.046996	0.293516
H34	H	1.225102	0.280162	0.706704
H35	H	1.180057	0.325177	0.293539
H36	H	1.162730	0.342501	0.519723
Cl37	Cl	1.535266	-0.029856	0.734251
H38	H	1.520744	-0.015339	0.480496
