data_functionalizedCrystal
_audit_creation_method	'MofGen! by Chris Wilmer'
_symmetry_space_group_name_H-M	'P1'
_symmetry_Int_Tables_number	1
_symmetry_cell_setting	triclinic
loop_
_symmetry_equiv_pos_as_xyz
  x,y,z
_cell_length_a	10.654549
_cell_length_b	15.538191
_cell_length_c	9.130313
_cell_angle_alpha	89.999589
_cell_angle_beta	89.998236
_cell_angle_gamma	65.878436
loop_
_atom_site_label
_atom_site_type_symbol
_atom_site_fract_x
_atom_site_fract_y
_atom_site_fract_z
O1	O	1.606172	0.131913	-0.121751
O2	O	1.234818	0.144482	-0.121760
O3	O	1.492782	0.001540	-0.121761
O4	O	1.348208	0.274855	-0.121750
O5	O	1.492773	0.001538	0.121838
O6	O	1.234809	0.144479	0.121839
O7	O	1.606163	0.131911	0.121848
Cu8	Cu	1.420485	0.138194	0.144086
Cu9	Cu	1.420496	0.138198	-0.143998
O10	O	1.348198	0.274852	0.121848
C11	C	1.188447	0.143558	0.000038
C12	C	1.050294	0.140797	0.000034
C13	C	0.801652	0.222357	0.000043
C14	C	0.931456	0.224958	0.000034
C15	C	1.039324	0.054028	0.000027
C16	C	0.909521	0.051428	0.000026
C17	C	1.507904	-0.033458	0.000034
C18	C	1.552960	-0.137737	0.000021
C19	C	1.105339	-0.428452	0.000041
C20	C	1.147707	-0.526441	0.000046
C21	C	1.386021	-0.547327	0.000051
C22	C	1.343673	-0.449338	0.000039
C23	C	1.203330	-0.389907	0.000036
C24	C	1.441664	-0.410793	0.000034
C25	C	1.399318	-0.312813	0.000030
C26	C	1.258981	-0.253376	0.000032
C27	C	1.160984	-0.291927	0.000032
C28	C	1.582006	-0.470225	0.000048
C29	C	1.679997	-0.431681	0.000042
C30	C	1.637652	-0.333699	0.000028
C31	C	1.497315	-0.274262	0.000030
C32	C	1.735649	-0.295148	0.000027
C33	C	1.693303	-0.197168	0.000024
C34	C	1.454969	-0.176282	0.000026
C35	C	1.652534	0.132835	0.000046
C36	C	1.790687	0.135595	0.000041
C37	C	1.333077	0.309850	0.000050
C38	C	1.288021	0.414129	0.000054
N39	N	1.420486	0.138192	0.346708
N40	N	1.420508	0.138193	-0.346621
C41	C	1.534736	0.074921	0.576707
C42	C	1.534728	0.074922	0.423370
C43	C	1.306251	0.201471	0.423392
C44	C	1.306264	0.201473	0.576726
H45	H	0.940373	0.295608	0.000035
H46	H	0.900601	-0.019228	0.000019
H47	H	1.340688	-0.127889	0.000012
H48	H	0.704897	0.290892	0.000054
H49	H	1.213235	0.252990	0.360965
H50	H	1.224505	-0.173595	0.000037
H51	H	1.213243	0.253001	0.639157
H52	H	1.849916	-0.343551	0.000045
H53	H	1.136093	-0.014498	0.000018
H54	H	1.627744	0.023402	0.360947
H55	H	1.616479	-0.550007	0.000037
H56	H	1.046702	-0.243534	0.000019
H57	H	0.991057	-0.380060	0.000028
H58	H	1.067900	-0.557818	0.000071
H59	H	1.500289	-0.595728	0.000059
H60	H	1.794265	-0.480082	0.000051
H61	H	1.773097	-0.165785	0.000021
H62	H	1.627762	0.023396	0.639114
