data_functionalizedCrystal
_audit_creation_method	'MofGen! by Chris Wilmer'
_symmetry_space_group_name_H-M	'P1'
_symmetry_Int_Tables_number	1
_symmetry_cell_setting	triclinic
loop_
_symmetry_equiv_pos_as_xyz
  x,y,z
_cell_length_a	12.594517
_cell_length_b	29.839132
_cell_length_c	12.594509
_cell_angle_alpha	90.037180
_cell_angle_beta	89.977786
_cell_angle_gamma	89.955305
loop_
_atom_site_label
_atom_site_type_symbol
_atom_site_fract_x
_atom_site_fract_y
_atom_site_fract_z
Zn1	Zn	1.627051	0.178847	-0.601819
Zn2	Zn	1.626851	0.253981	-0.423813
Zn3	Zn	1.449055	0.178865	-0.423845
Zn4	Zn	1.448946	0.253950	-0.601740
O5	O	1.537976	0.216411	-0.512804
O6	O	1.775970	0.188819	-0.578226
O7	O	1.603228	0.244038	-0.274871
O8	O	1.472795	0.115996	-0.447500
O9	O	1.775823	0.244020	-0.447445
O10	O	1.603568	0.115982	-0.578257
O11	O	1.472602	0.188851	-0.274895
O12	O	1.300095	0.188820	-0.447424
O13	O	1.472611	0.243966	-0.750696
O14	O	1.300015	0.243984	-0.578122
O15	O	1.603463	0.188788	-0.750754
O16	O	1.603122	0.316844	-0.447368
O17	O	1.472417	0.316821	-0.578091
C18	C	1.261435	0.216401	-0.512768
C19	C	1.143129	0.216408	-0.512778
C20	C	1.003125	0.186371	-0.441854
C21	C	1.073997	0.175425	-0.538984
C22	C	1.073829	0.227333	-0.415659
C23	C	1.003216	0.205458	-0.610038
C24	C	1.003041	0.257386	-0.486647
C25	C	1.073881	0.246455	-0.583844
C26	C	1.537765	0.333133	-0.512741
C27	C	1.537772	0.383068	-0.512749
C28	C	1.606082	0.692711	-0.444793
C29	C	1.606184	0.880384	-0.444817
O30	O	1.664149	0.904648	-0.387019
N31	N	1.538087	0.903853	-0.512821
C32	C	1.469965	0.880401	-0.580830
O33	O	1.412055	0.904669	-0.638680
C34	C	1.469870	0.692729	-0.580810
C35	C	1.537963	0.669262	-0.512794
C36	C	1.674171	0.669244	-0.376783
C37	C	1.674141	0.622328	-0.376773
C38	C	1.606022	0.598880	-0.444774
C39	C	1.537933	0.622346	-0.512784
C40	C	1.401754	0.669277	-0.648823
C41	C	1.401738	0.622356	-0.648814
C42	C	1.469832	0.598890	-0.580797
C43	C	1.469784	0.551982	-0.580775
N44	N	1.537881	0.528513	-0.512771
C45	C	1.606000	0.551962	-0.444770
C46	C	1.470019	0.978931	-0.580834
C47	C	1.470041	1.025849	-0.580837
C48	C	1.606261	1.025829	-0.444826
C49	C	1.606233	0.978910	-0.444817
C50	C	1.538115	0.955462	-0.512829
C51	C	1.605931	0.453436	-0.444755
C52	C	1.605891	0.406516	-0.444748
C53	C	1.469675	0.406541	-0.580763
C54	C	1.469710	0.453456	-0.580766
C55	C	1.537846	0.476903	-0.512759
O56	O	1.411858	0.527689	-0.638551
O57	O	1.663918	0.527686	-0.386945
C58	C	1.606112	0.739626	-0.444802
C59	C	1.538024	0.763093	-0.512812
C60	C	1.469905	0.739644	-0.580813
C61	C	1.538046	0.810011	-0.512816
C62	C	1.606165	0.833459	-0.444815
C63	C	1.674262	0.809990	-0.376811
C64	C	1.674231	0.763075	-0.376801
C65	C	1.401808	0.763113	-0.648818
C66	C	1.401843	0.810029	-0.648821
C67	C	1.469962	0.833477	-0.580820
C68	C	1.815597	0.216421	-0.512840
C69	C	1.933902	0.216425	-0.512856
C70	C	1.538176	1.099232	-0.512868
C71	C	1.538160	1.049298	-0.512837
C72	C	1.538047	0.216371	-0.790425
C73	C	1.538077	0.216355	-0.908731
C74	C	1.466929	0.246349	-0.977952
C75	C	1.564036	0.257326	-1.048740
C76	C	1.441046	0.205350	-1.048742
C77	C	1.635236	0.227353	-0.977960
C78	C	1.512180	0.175359	-0.977956
C79	C	1.609354	0.186320	-1.048712
C80	C	1.537966	0.216417	-0.236263
C81	C	1.538142	0.216308	-0.117958
H82	H	0.971853	0.292022	-0.464477
H83	H	0.972326	0.196184	-0.692227
O84	O	1.486098	0.134001	-0.940952
C85	C	1.560214	0.102302	-0.978548
H86	H	1.599711	0.115603	-1.053627
H87	H	1.623177	0.096147	-0.915193
C88	C	1.454255	0.041684	-0.911565
C89	C	1.502760	0.058020	-1.003784
H90	H	1.418817	0.014368	-0.927127
H91	H	1.404323	0.063040	-0.886232
H92	H	1.506732	0.036558	-0.858778
H93	H	1.450281	0.063150	-1.056564
H94	H	1.552682	0.036663	-1.029127
H95	H	1.104752	0.271864	-0.643924
O96	O	1.111056	0.134090	-0.565549
C97	C	1.073552	0.122350	-0.667291
H98	H	0.998477	0.142252	-0.685639
H99	H	1.136954	0.130323	-0.729070
C100	C	1.140561	0.047429	-0.647656
C101	C	1.048347	0.071870	-0.670187
H102	H	1.125017	0.016290	-0.649446
H103	H	1.165832	0.055338	-0.579112
H104	H	1.193387	0.054078	-0.699142
H105	H	0.995527	0.065225	-0.618695
H106	H	1.023066	0.063958	-0.738723
H107	H	1.358961	0.196062	-1.079834
H108	H	1.661681	0.959806	-0.389433
O109	O	1.681326	0.156031	-1.085369
C110	C	1.732115	0.135148	-0.998767
H111	H	1.726462	0.157726	-0.925928
H112	H	1.691783	0.101763	-0.981314
C113	C	1.856656	0.099205	-1.115596
C114	C	1.849720	0.126937	-1.026137
H115	H	1.929199	0.094138	-1.132480
H116	H	1.822436	0.113273	-1.173943
H117	H	1.823039	0.071387	-1.101041
H118	H	1.883324	0.154756	-1.040698
H119	H	1.883948	0.112873	-0.967793
H120	H	0.972060	0.160943	-0.381917
O121	O	1.404035	1.048691	-0.646954
C122	C	1.464609	1.075775	-0.715782
H123	H	1.545292	1.082785	-0.678318
H124	H	1.476257	1.057662	-0.794664
C125	C	1.306954	1.111748	-0.781032
C126	C	1.406048	1.120361	-0.735014
H127	H	1.270830	1.139250	-0.792900
H128	H	1.266144	1.093500	-0.734665
H129	H	1.316675	1.096653	-0.846762
H130	H	1.396325	1.135451	-0.669280
H131	H	1.446855	1.138613	-0.781371
H132	H	1.104851	0.236567	-0.333493
O133	O	1.672143	0.383791	-0.378642
C134	C	1.732253	0.414552	-0.318610
H135	H	1.735932	0.447981	-0.362221
H136	H	1.693324	0.419585	-0.237738
C137	C	1.841016	0.355141	-0.249807
C138	C	1.845541	0.396197	-0.303375
H139	H	1.910896	0.343818	-0.240404
H140	H	1.800516	0.334416	-0.290248
H141	H	1.808570	0.359341	-0.182419
H142	H	1.877975	0.391996	-0.370767
H143	H	1.886049	0.416921	-0.262945
O144	O	1.671974	0.476261	-0.378653
C145	C	1.611446	0.503443	-0.309832
H146	H	1.530763	0.510498	-0.347285
H147	H	1.599792	0.485393	-0.230936
C148	C	1.769155	0.539324	-0.244638
C149	C	1.670062	0.547992	-0.290643
H150	H	1.805313	0.566803	-0.232796
H151	H	1.809935	0.521010	-0.291001
H152	H	1.759429	0.524281	-0.178896
H153	H	1.679789	0.563029	-0.356389
H154	H	1.629285	0.566310	-0.244290
H155	H	1.729592	0.603224	-0.321392
O156	O	1.740379	0.691948	-0.310618
C157	C	1.800481	0.661166	-0.250620
H158	H	1.756861	0.627742	-0.246911
H159	H	1.881297	0.656130	-0.289668
C160	C	1.869464	0.720544	-0.141900
C161	C	1.815884	0.679494	-0.137337
H162	H	1.878970	0.731850	-0.072023
H163	H	1.828975	0.741283	-0.182324
H164	H	1.936804	0.716342	-0.174445
H165	H	1.748540	0.683697	-0.104805
H166	H	1.856362	0.658755	-0.096905
O167	O	1.335579	0.832842	-0.714746
C168	C	1.266892	0.860042	-0.654108
H169	H	1.260343	0.845937	-0.570265
H170	H	1.299824	0.895587	-0.650487
C171	C	1.164266	0.878116	-0.808998
C172	C	1.156215	0.860789	-0.706023
H173	H	1.095996	0.878579	-0.841022
H174	H	1.210544	0.859792	-0.849852
H175	H	1.191713	0.907736	-0.805966
H176	H	1.128781	0.831169	-0.709057
H177	H	1.109930	0.879108	-0.665170
H178	H	1.717345	0.236680	-0.946999
O179	O	1.672464	1.048681	-0.378933
C180	C	1.657887	1.095122	-0.393544
H181	H	1.622888	1.101507	-0.475619
H182	H	1.601337	1.108502	-0.330306
C183	C	1.808616	1.111313	-0.283256
C184	C	1.765638	1.119155	-0.384065
H185	H	1.875080	1.126138	-0.277404
H186	H	1.818435	1.080024	-0.273408
H187	H	1.761481	1.122463	-0.230569
H188	H	1.812767	1.107999	-0.436749
H189	H	1.755830	1.150442	-0.393921
H190	H	1.414546	0.959843	-0.636218
H191	H	1.346300	0.688376	-0.704204
H192	H	1.346270	0.603267	-0.704201
H193	H	1.414266	0.472564	-0.636154
O194	O	1.403665	0.383736	-0.646932
C195	C	1.464232	0.356543	-0.715697
H196	H	1.548061	0.370651	-0.722344
H197	H	1.467907	0.320995	-0.682776
C198	C	1.309226	0.338475	-0.818140
C199	C	1.412184	0.355804	-0.826311
H200	H	1.277120	0.338017	-0.886371
H201	H	1.268420	0.356794	-0.771810
H202	H	1.312303	0.308853	-0.790701
H203	H	1.409105	0.385427	-0.853737
H204	H	1.452989	0.337490	-0.872649
H205	H	1.729680	0.743971	-0.321416
H206	H	1.729724	0.829090	-0.321439
H207	H	1.346338	0.744025	-0.704194
O208	O	1.590036	0.298688	-1.085793
C209	C	1.514810	0.330237	-1.049726
H210	H	1.437338	0.312373	-1.029860
H211	H	1.546406	0.347694	-0.975666
C212	C	1.589759	0.387190	-1.161605
C213	C	1.494604	0.365249	-1.137215
H214	H	1.577298	0.408789	-1.215570
H215	H	1.640443	0.365936	-1.185902
H216	H	1.616079	0.401734	-1.099881
H217	H	1.468292	0.350701	-1.198934
H218	H	1.443914	0.386502	-1.112931
H219	H	1.406808	0.271753	-0.946884
