data_functionalizedCrystal
_audit_creation_method	'MofGen! by Chris Wilmer'
_symmetry_space_group_name_H-M	'P1'
_symmetry_Int_Tables_number	1
_symmetry_cell_setting	triclinic
loop_
_symmetry_equiv_pos_as_xyz
  x,y,z
_cell_length_a	17.640112
_cell_length_b	12.827885
_cell_length_c	12.827892
_cell_angle_alpha	89.970214
_cell_angle_beta	101.239777
_cell_angle_gamma	101.175544
loop_
_atom_site_label
_atom_site_type_symbol
_atom_site_fract_x
_atom_site_fract_y
_atom_site_fract_z
Zn1	Zn	1.208347	-0.268427	-0.092700
Zn2	Zn	1.208266	-0.093709	-0.267498
Zn3	Zn	1.076173	-0.128968	-0.128112
Zn4	Zn	1.076162	-0.303658	-0.302764
O5	O	1.142237	-0.198690	-0.197769
O6	O	1.318937	-0.215750	-0.086308
O7	O	1.190715	0.047843	-0.249070
O8	O	1.093745	-0.147480	0.022831
O9	O	1.318878	-0.087385	-0.214732
O10	O	1.190852	-0.249939	0.048849
O11	O	1.093667	0.021938	-0.146664
O12	O	0.965571	-0.181642	-0.180859
O13	O	1.093726	-0.445213	-0.274837
O14	O	0.965563	-0.309985	-0.309175
O15	O	1.190841	-0.419329	-0.120504
O16	O	1.190704	-0.121547	-0.418423
O17	O	1.093648	-0.275796	-0.444332
C18	C	0.936889	-0.253463	-0.252688
C19	C	0.849041	-0.276920	-0.276208
C20	C	1.142188	-0.198685	-0.469292
C21	C	1.142239	-0.198699	-0.585431
C22	C	1.142291	-0.471246	-0.197654
C23	C	1.142314	-0.587393	-0.197605
C24	C	0.560029	-0.020500	-0.019073
C25	C	0.477482	-0.042555	-0.041195
C26	C	0.477527	-0.175969	-0.174994
C27	C	0.560076	-0.153929	-0.152880
C28	C	0.601321	-0.076192	-0.074920
C29	C	0.601368	-0.209621	-0.208726
C30	C	0.683910	-0.187578	-0.186618
C31	C	0.725160	-0.109842	-0.108663
C32	C	0.683862	-0.054149	-0.052811
C33	C	0.560122	-0.287351	-0.286692
C34	C	0.601414	-0.343044	-0.342538
C35	C	0.683957	-0.321006	-0.320425
C36	C	0.725207	-0.243271	-0.242470
C37	C	0.725255	-0.376700	-0.376277
C38	C	0.807796	-0.354657	-0.354168
C39	C	0.807749	-0.221228	-0.220361
C40	C	1.348387	-0.143704	-0.142636
C41	C	1.436236	-0.120272	-0.119142
C42	C	1.190375	-0.626369	-0.121222
C43	C	1.190400	-0.746412	-0.121170
C44	C	1.142229	0.072817	-0.197795
C45	C	1.142359	0.189005	-0.197509
C46	C	1.190322	-0.122427	-0.624345
C47	C	1.190376	-0.122439	-0.744381
C48	C	1.142308	-0.198713	0.074821
C49	C	1.142339	-0.198722	0.190982
H50	H	0.841332	-0.157943	-0.156862
H51	H	1.101213	-0.777435	-0.262910
N52	N	1.087826	-0.660916	-0.284167
H53	H	1.119970	-0.697626	-0.323939
H54	H	1.055755	-0.618353	-0.335078
N55	N	1.087757	-0.285216	-0.658995
H56	H	1.119906	-0.325073	-0.695607
H57	H	1.051209	-0.252352	-0.714072
N58	N	1.244899	-0.790877	-0.034543
H59	H	1.232649	-0.775215	0.036856
H60	H	1.301355	-0.756858	-0.035746
N61	N	0.814187	-0.086061	-0.084821
H62	H	0.834100	-0.152461	-0.060362
H63	H	0.833985	-0.028335	-0.026988
H64	H	1.231452	-0.057121	-0.568796
N65	N	1.244906	-0.035943	-0.788774
H66	H	1.301376	-0.037149	-0.754653
H67	H	1.232600	0.035448	-0.773174
N68	N	1.087806	-0.285223	-0.764634
H69	H	1.100045	-0.356660	-0.780229
H70	H	1.031359	-0.283921	-0.798776
H71	H	1.231500	-0.570866	-0.055864
N72	N	0.728352	0.029689	0.031284
H73	H	0.713961	0.100541	0.011292
H74	H	0.786893	0.035107	0.036775
N75	N	0.604519	0.063338	0.065022
H76	H	0.590128	0.134190	0.045030
H77	H	0.663059	0.068756	0.070513
N78	N	0.432944	0.017520	0.019040
H79	H	0.471599	0.070109	0.071779
H80	H	0.398713	-0.034237	0.058184
H81	H	0.492912	-0.305296	-0.304690
N82	N	0.433041	-0.259805	-0.259082
H83	H	0.374485	-0.265318	-0.264617
H84	H	0.447496	-0.330605	-0.239030
H85	H	0.691661	-0.439985	-0.439759
N86	N	0.556928	-0.426879	-0.426627
H87	H	0.498372	-0.432392	-0.432161
H88	H	0.571383	-0.497680	-0.406574
H89	H	0.841417	-0.400008	-0.399643
