data_functionalizedCrystal
_audit_creation_method	'MofGen! by Chris Wilmer'
_symmetry_space_group_name_H-M	'P1'
_symmetry_Int_Tables_number	1
_symmetry_cell_setting	triclinic
loop_
_symmetry_equiv_pos_as_xyz
  x,y,z
_cell_length_a	16.109302
_cell_length_b	19.188924
_cell_length_c	15.186229
_cell_angle_alpha	89.994194
_cell_angle_beta	89.994701
_cell_angle_gamma	83.301872
loop_
_atom_site_label
_atom_site_type_symbol
_atom_site_fract_x
_atom_site_fract_y
_atom_site_fract_z
O1	O	1.102830	0.089747	-0.073272
O2	O	0.860731	0.100915	-0.073266
O3	O	0.988770	-0.006309	-0.073259
O4	O	0.974791	0.196970	-0.073279
O5	O	0.988762	-0.006311	0.073199
O6	O	0.860722	0.100913	0.073192
O7	O	1.102822	0.089745	0.073185
Zn8	Zn	0.981771	0.095329	0.096442
Zn9	Zn	0.981782	0.095331	-0.096522
O10	O	0.974783	0.196969	0.073178
C11	C	0.829753	0.100461	-0.000036
C12	C	0.737463	0.099105	-0.000033
C13	C	0.525128	0.095967	0.079792
C14	C	0.438412	0.094685	0.079789
C15	C	0.438432	0.094690	-0.079887
C16	C	0.525147	0.095968	-0.079883
C17	C	0.568492	0.096609	-0.000041
C18	C	0.395061	0.094050	-0.000048
C19	C	0.301040	0.092660	-0.000051
C20	C	0.662519	0.097998	-0.000037
C21	C	0.988314	-0.032322	-0.000029
C22	C	0.986958	-0.109830	-0.000027
C23	C	0.986330	-0.146229	-0.079861
C24	C	0.985044	-0.219055	-0.079868
C25	C	0.984403	-0.255480	-0.000036
C26	C	0.985027	-0.219071	0.079809
C27	C	0.986304	-0.146246	0.079813
N28	N	1.029706	-0.375038	0.059380
N29	N	1.028494	-0.444219	0.059371
C30	C	0.980552	-0.474898	-0.000044
N31	N	0.933878	-0.433784	-0.059462
N32	N	0.935093	-0.364597	-0.059455
C33	C	0.983017	-0.334447	-0.000032
C34	C	0.978528	-0.590264	-0.079891
C35	C	0.977237	-0.663090	-0.079894
C36	C	0.977228	-0.663106	0.079785
C37	C	0.978511	-0.590280	0.079786
C38	C	0.979165	-0.553864	-0.000055
C39	C	1.133799	0.090198	-0.000046
C40	C	1.226090	0.091555	-0.000055
C41	C	0.975239	0.222982	-0.000053
C42	C	0.976595	0.300490	-0.000061
N43	N	0.981769	0.095327	0.228134
N44	N	0.981790	0.095327	-0.228215
C45	C	1.038484	0.047864	0.453860
C46	C	1.038487	0.047863	0.546050
C47	C	0.925069	0.142792	0.546053
C48	C	0.925063	0.142790	0.453865
C49	C	0.981775	0.095327	0.407771
C50	C	0.981784	0.095327	0.592148
C51	C	0.981786	0.095326	0.692105
C52	C	0.981772	0.095327	0.307808
H53	H	0.403129	0.094169	-0.144891
H54	H	0.560455	0.096489	-0.144896
H55	H	0.560417	0.096490	0.144805
H56	H	1.084663	0.009214	0.583573
C57	C	0.421281	0.034308	0.215894
C58	C	0.390750	0.093981	0.167547
H59	H	0.391860	0.033876	0.270076
H60	H	0.413558	-0.006585	0.183095
H61	H	0.479129	0.035170	0.227310
H62	H	0.332902	0.093117	0.156125
H63	H	0.398465	0.134884	0.200352
H64	H	0.986860	-0.116583	-0.144873
H65	H	0.878897	0.181436	0.583592
C66	C	0.985148	-0.211728	-0.237703
C67	C	0.984321	-0.259073	-0.167627
H68	H	0.984696	-0.236433	-0.291880
H69	H	0.937187	-0.177981	-0.234363
H70	H	1.034131	-0.188670	-0.234396
H71	H	0.935335	-0.282127	-0.170930
H72	H	1.032287	-0.292833	-0.170969
H73	H	0.984502	-0.248733	0.144809
C74	C	0.812957	0.236633	0.463120
C75	C	0.862726	0.194967	0.403196
H76	H	0.774477	0.268844	0.431837
H77	H	0.783161	0.207565	0.499085
H78	H	0.847480	0.261757	0.499068
H79	H	0.828203	0.169839	0.367253
H80	H	0.892524	0.224038	0.367216
C81	C	0.986163	-0.153578	0.237647
C82	C	0.987000	-0.106232	0.167573
H83	H	0.986599	-0.128873	0.291825
H84	H	0.937195	-0.176642	0.234325
H85	H	1.034139	-0.187323	0.234319
H86	H	0.939021	-0.072491	0.170897
H87	H	1.035974	-0.083157	0.170897
H88	H	0.979056	-0.560612	-0.144901
C89	C	0.980465	-0.478652	0.150689
C90	C	0.979210	-0.550265	0.167542
H91	H	0.980890	-0.453950	0.204870
H92	H	1.029146	-0.472055	0.117891
H93	H	0.932201	-0.461385	0.117886
H94	H	1.027478	-0.567534	0.200340
H95	H	0.930525	-0.556867	0.200353
H96	H	0.976721	-0.692725	-0.144907
H97	H	0.976700	-0.692762	0.144785
C98	C	1.150584	-0.045974	0.463120
C99	C	1.100813	-0.004313	0.403193
H100	H	1.189059	-0.078191	0.431840
H101	H	1.180385	-0.016904	0.499064
H102	H	1.116062	-0.071092	0.499090
H103	H	1.135336	0.020809	0.367228
H104	H	1.071010	-0.033387	0.367234
