data_functionalizedCrystal
_audit_creation_method	'MofGen! by Chris Wilmer'
_symmetry_space_group_name_H-M	'P1'
_symmetry_Int_Tables_number	1
_symmetry_cell_setting	triclinic
loop_
_symmetry_equiv_pos_as_xyz
  x,y,z
_cell_length_a	23.532407
_cell_length_b	22.610064
_cell_length_c	10.654555
_cell_angle_alpha	89.998199
_cell_angle_beta	96.330884
_cell_angle_gamma	90.009934
loop_
_atom_site_label
_atom_site_type_symbol
_atom_site_fract_x
_atom_site_fract_y
_atom_site_fract_z
O1	O	0.756265	0.049108	-0.152435
O2	O	0.590545	0.049125	-0.174491
O3	O	0.677212	0.049116	0.019396
O4	O	0.669598	0.049117	-0.346322
O5	O	0.677186	-0.049254	0.019396
O6	O	0.590520	-0.049245	-0.174491
O7	O	0.756239	-0.049262	-0.152435
Zn8	Zn	0.673375	-0.064871	-0.163463
Zn9	Zn	0.673409	0.064734	-0.163463
O10	O	0.669572	-0.049253	-0.346322
C11	C	0.569313	-0.000058	-0.173930
C12	C	0.506085	-0.000051	-0.172241
C13	C	0.107662	-0.000078	-0.276388
C14	C	0.048252	-0.000081	-0.274819
O15	O	0.012138	-0.000103	-0.371364
N16	N	0.024872	-0.000081	-0.159553
C17	C	0.060907	-0.000082	-0.045848
O18	O	0.035566	-0.000083	0.052338
C19	C	0.120316	-0.000083	-0.047418
C20	C	0.143692	-0.000078	-0.162692
C21	C	0.131038	-0.000073	-0.391652
C22	C	0.190445	-0.000068	-0.393220
C23	C	0.226475	-0.000068	-0.279524
C24	C	0.203098	-0.000073	-0.164260
C25	C	0.156350	-0.000089	0.066285
C26	C	0.215763	-0.000090	0.064705
C27	C	0.239138	-0.000085	-0.050569
C28	C	0.298535	-0.000068	-0.052132
N29	N	0.321914	-0.000069	-0.167398
C30	C	0.285884	-0.000069	-0.281094
C31	C	-0.063857	-0.000082	-0.042560
C32	C	-0.123265	-0.000077	-0.040989
C33	C	-0.135917	-0.000077	-0.269960
C34	C	-0.076507	-0.000078	-0.271530
C35	C	-0.040478	-0.000083	-0.157826
C36	C	0.410642	-0.000058	-0.284379
C37	C	0.470055	-0.000051	-0.285937
C38	C	0.482701	-0.000054	-0.056966
C39	C	0.423294	-0.000058	-0.055408
C40	C	0.387265	-0.000063	-0.169124
O41	O	0.334684	-0.000049	0.044362
O42	O	0.311234	-0.000076	-0.379265
N43	N	0.673356	-0.153324	-0.163462
C44	C	0.708249	-0.561969	-0.239226
C45	C	0.708256	-0.623889	-0.239222
O46	O	0.737900	-0.655910	-0.303631
N47	N	0.673420	-0.654861	-0.163449
C48	C	0.638579	-0.623910	-0.087663
O49	O	0.608949	-0.655940	-0.023210
C50	C	0.638575	-0.561991	-0.087661
C51	C	0.673409	-0.531022	-0.163449
C52	C	0.743080	-0.531000	-0.315007
C53	C	0.743072	-0.469084	-0.315012
C54	C	0.708233	-0.438137	-0.239235
C55	C	0.673401	-0.469107	-0.163454
C56	C	0.603737	-0.531042	-0.011869
C57	C	0.603737	-0.469119	-0.011872
C58	C	0.638571	-0.438149	-0.087661
C59	C	0.638553	-0.376244	-0.087682
N60	N	0.673389	-0.345272	-0.163456
C61	C	0.708229	-0.376219	-0.239232
C62	C	0.638590	-0.753944	-0.087673
C63	C	0.638590	-0.815861	-0.087682
C64	C	0.708268	-0.815836	-0.239239
C65	C	0.708264	-0.753917	-0.239237
C66	C	0.673426	-0.722971	-0.163447
C67	C	0.708209	-0.246191	-0.239237
C68	C	0.708196	-0.184270	-0.239239
C69	C	0.638520	-0.184301	-0.087677
C70	C	0.638531	-0.246217	-0.087679
C71	C	0.673380	-0.277161	-0.163463
O72	O	0.608926	-0.344183	-0.023302
O73	O	0.737859	-0.344181	-0.303662
C74	C	0.777471	-0.000078	-0.152996
C75	C	0.840699	-0.000081	-0.154685
C76	C	0.676639	-0.000068	0.066176
C77	C	0.674962	-0.000064	0.205566
N78	N	0.673432	0.153187	-0.163454
C79	C	0.670146	-0.000068	-0.393102
C80	C	0.671822	-0.000068	-0.532492
C81	C	0.671787	-0.107313	0.467497
C82	C	0.672558	-0.160935	0.402007
C83	C	0.674131	-0.160935	0.271038
C84	C	0.674931	-0.107308	0.205555
C85	C	0.674160	-0.053686	0.271045
C86	C	0.672589	-0.053691	0.402017
C87	C	0.674191	0.053558	0.271055
C88	C	0.672622	0.053560	0.402026
C89	C	0.674991	0.107186	0.205572
C90	C	0.674224	0.160809	0.271063
C91	C	0.672652	0.160807	0.402040
C92	C	0.671851	0.107182	0.467515
H93	H	0.489084	-0.000047	-0.379810
H94	H	0.674749	-0.204599	0.217713
H95	H	0.674871	0.204468	0.217736
H96	H	0.676205	-0.107313	0.098911
O97	O	0.670176	0.107176	0.608781
H98	H	0.669784	0.153471	0.643327
H99	H	0.610159	-0.271433	-0.025982
O100	O	0.215656	-0.000069	-0.517549
H101	H	0.242416	-0.040161	-0.523733
O102	O	0.600945	-0.150935	-0.005916
H103	H	0.612955	-0.162837	0.094577
H104	H	0.610215	-0.728752	-0.025961
H105	H	0.381315	-0.000064	-0.376978
H106	H	-0.034524	-0.000081	0.050037
H107	H	0.736562	-0.159058	-0.300961
O108	O	0.092181	-0.000071	-0.514291
H109	H	0.118427	-0.000064	-0.594692
O110	O	-0.051295	-0.000084	-0.395857
H111	H	-0.086336	-0.000088	-0.474646
O112	O	-0.174783	-0.000087	-0.392597
H113	H	-0.220019	-0.000096	-0.372128
H114	H	0.245096	-0.000094	0.157299
O115	O	0.131145	-0.000107	0.190616
H116	H	0.166189	-0.000118	0.269399
O117	O	0.566185	-0.435745	0.069936
H118	H	0.572042	-0.387485	0.057239
O119	O	0.671817	0.218644	0.472674
H120	H	0.632354	0.221210	0.520662
O121	O	0.676734	0.107185	0.064327
H122	H	0.677175	0.153482	0.029803
O123	O	0.745835	-0.720515	-0.320976
H124	H	0.791242	-0.732388	-0.293139
H125	H	0.404260	-0.000054	0.038457
O126	O	-0.148476	-0.000082	0.083340
H127	H	-0.113436	-0.000087	0.162129
H128	H	0.610218	-0.841071	-0.025982
O129	O	0.780645	-0.435686	-0.396754
H130	H	0.826051	-0.447560	-0.368909
H131	H	0.575373	-0.556246	0.049848
H132	H	0.512047	-0.000052	0.035602
H133	H	0.670513	-0.107318	0.574140
H134	H	0.671905	-0.204598	0.455337
O135	O	0.745793	-0.279565	-0.320972
H136	H	0.733789	-0.267684	-0.421479
O137	O	0.780657	-0.564373	-0.396751
H138	H	0.804870	-0.532427	-0.449444
H139	H	0.736636	-0.841044	-0.300943
