data_functionalizedCrystal
_audit_creation_method	'MofGen! by Chris Wilmer'
_symmetry_space_group_name_H-M	'P1'
_symmetry_Int_Tables_number	1
_symmetry_cell_setting	triclinic
loop_
_symmetry_equiv_pos_as_xyz
  x,y,z
_cell_length_a	14.519731
_cell_length_b	14.519731
_cell_length_c	15.186229
_cell_angle_alpha	89.996550
_cell_angle_beta	89.998303
_cell_angle_gamma	96.311147
loop_
_atom_site_label
_atom_site_type_symbol
_atom_site_fract_x
_atom_site_fract_y
_atom_site_fract_z
O1	O	-0.120982	1.223863	-0.073220
O2	O	0.379018	1.723863	0.426780
O3	O	-0.135198	0.955390	-0.073220
O4	O	0.364802	1.455390	0.426780
O5	O	0.006146	1.096735	-0.073226
O6	O	0.506146	1.596735	0.426774
O7	O	-0.262327	1.082519	-0.073213
O8	O	0.237673	1.582519	0.426787
O9	O	0.006148	1.096725	0.073231
O10	O	0.506148	1.596725	0.573231
O11	O	-0.135196	0.955381	0.073238
O12	O	0.364804	1.455381	0.573238
O13	O	-0.120980	1.223854	0.073238
O14	O	0.379020	1.723854	0.573238
Zn15	Zn	-0.128088	1.089616	0.096491
Zn16	Zn	0.371912	1.589616	0.596491
Zn17	Zn	-0.128091	1.089628	-0.096473
Zn18	Zn	0.371909	1.589628	0.403527
O19	O	-0.262325	1.082509	0.073244
O20	O	0.237675	1.582509	0.573244
C21	C	-0.134531	0.921026	0.000009
C22	C	0.365469	1.421026	0.500009
C23	C	-0.132535	0.818645	0.000008
C24	C	0.367465	1.318645	0.500008
C25	C	-0.130913	0.735501	0.000005
C26	C	0.369087	1.235501	0.500005
C27	C	-0.128887	0.631192	0.000004
C28	C	0.371113	1.131192	0.500004
C29	C	-0.127278	0.548053	0.000004
C30	C	0.372722	1.048053	0.500004
C31	C	-0.125252	0.443738	0.000002
C32	C	0.374748	0.943738	0.500002
C33	C	-0.296685	1.083180	0.000017
C34	C	0.203315	1.583180	0.500017
C35	C	-0.399066	1.085176	0.000022
C36	C	0.100934	1.585176	0.500022
C37	C	-0.482210	1.086798	0.000018
C38	C	0.017790	1.586798	0.500018
C39	C	-0.586519	1.088825	0.000010
C40	C	-0.086519	1.588825	0.500010
C41	C	-0.669658	1.090433	0.000003
C42	C	-0.169658	1.590433	0.500003
C43	C	-0.773974	1.092459	-0.000004
C44	C	-0.273974	1.592459	0.499996
C45	C	0.040507	1.096064	-0.000001
C46	C	0.540507	1.596064	0.499999
C47	C	0.142887	1.094068	-0.000011
C48	C	0.642887	1.594068	0.499989
C49	C	-0.121648	1.258218	0.000007
C50	C	0.378352	1.758218	0.500007
C51	C	-0.123643	1.360598	0.000002
C52	C	0.376357	1.860598	0.500002
N53	N	-0.128086	1.089614	0.228184
N54	N	0.371914	1.589614	0.728184
N55	N	-0.128086	1.089637	-0.228165
N56	N	0.371914	1.589637	0.271835
C57	C	-0.065519	1.152223	0.453904
C58	C	0.434481	1.652223	0.953904
C59	C	-0.065517	1.152226	0.546093
C60	C	0.434483	1.652226	1.046093
C61	C	-0.190655	1.027022	0.546108
C62	C	0.309345	1.527022	1.046108
C63	C	-0.190652	1.027015	0.453920
C64	C	0.309348	1.527015	0.953920
C65	C	-0.128085	1.089621	0.407820
C66	C	0.371915	1.589621	0.907820
C67	C	-0.128086	1.089630	0.592198
C68	C	0.371914	1.589630	1.092198
C69	C	-0.128084	1.089633	0.692154
C70	C	0.371916	1.589633	1.192154
C71	C	-0.128086	1.089617	0.307858
C72	C	0.371914	1.589617	0.807858
H73	H	-0.014573	1.203199	0.416371
H74	H	0.485427	1.703199	0.916371
H75	H	-0.241601	0.976033	0.416396
H76	H	0.258399	1.476033	0.916396
H77	H	-0.014569	1.203200	0.583612
H78	H	0.485431	1.703200	1.083612
H79	H	-0.241597	0.976051	0.583652
H80	H	0.258403	1.476051	1.083652
