data_functionalizedCrystal
_audit_creation_method	'MofGen! by Chris Wilmer'
_symmetry_space_group_name_H-M	'P1'
_symmetry_Int_Tables_number	1
_symmetry_cell_setting	triclinic
loop_
_symmetry_equiv_pos_as_xyz
  x,y,z
_cell_length_a	15.995343
_cell_length_b	19.188925
_cell_length_c	15.072220
_cell_angle_alpha	89.999199
_cell_angle_beta	89.991823
_cell_angle_gamma	83.315866
loop_
_atom_site_label
_atom_site_type_symbol
_atom_site_fract_x
_atom_site_fract_y
_atom_site_fract_z
O1	O	1.110668	0.089966	-0.073693
O2	O	1.444002	0.423299	0.259641
O3	O	1.777335	0.756632	0.592974
O4	O	0.866851	0.101085	-0.073714
O5	O	1.200185	0.434418	0.259619
O6	O	1.533518	0.767751	0.592953
O7	O	0.995798	-0.006113	-0.073698
O8	O	1.329132	0.327220	0.259636
O9	O	1.662465	0.660554	0.592969
O10	O	0.981721	0.197163	-0.073709
O11	O	1.315055	0.530497	0.259624
O12	O	1.648388	0.863830	0.592958
O13	O	0.995766	-0.006107	0.073867
O14	O	1.329100	0.327226	0.407201
O15	O	1.662433	0.660560	0.740534
O16	O	0.866819	0.101091	0.073851
O17	O	1.200153	0.434424	0.407184
O18	O	1.533486	0.767757	0.740518
O19	O	1.110637	0.089972	0.073872
O20	O	1.443970	0.423305	0.407206
O21	O	1.777303	0.756638	0.740539
Zn22	Zn	0.988723	0.095532	0.097291
Zn23	Zn	1.322056	0.428866	0.430624
Zn24	Zn	1.655390	0.762199	0.763958
Zn25	Zn	0.988765	0.095524	-0.097133
Zn26	Zn	1.322098	0.428858	0.236201
Zn27	Zn	1.655431	0.762191	0.569534
O28	O	0.981690	0.197169	0.073856
O29	O	1.315023	0.530503	0.407189
O30	O	1.648356	0.863836	0.740523
C31	C	0.835642	0.100629	0.000066
C32	C	1.168975	0.433962	0.333399
C33	C	1.502309	0.767296	0.666733
C34	C	0.742696	0.099254	0.000058
C35	C	1.076030	0.432587	0.333391
C36	C	1.409363	0.765921	0.666725
C37	C	0.572519	0.096758	0.000070
C38	C	0.905853	0.430091	0.333403
C39	C	1.239186	0.763424	0.666737
C40	C	0.549459	0.019377	0.000074
C41	C	0.882792	0.352711	0.333407
C42	C	1.216126	0.686044	0.666741
C43	C	0.452786	0.017921	0.000414
C44	C	0.786120	0.351255	0.333747
C45	C	1.119453	0.684588	0.667081
C46	C	0.404968	0.094299	0.000081
C47	C	0.738302	0.427632	0.333414
C48	C	1.071635	0.760966	0.666747
C49	C	0.433898	0.133210	0.084178
C50	C	0.767232	0.466544	0.417511
C51	C	1.100565	0.799877	0.750845
C52	C	0.530688	0.134128	0.084243
C53	C	0.864021	0.467461	0.417577
C54	C	1.197354	0.800795	0.750910
C55	C	0.530630	0.135254	-0.083572
C56	C	0.863963	0.468588	0.249761
C57	C	1.197297	0.801921	0.583095
C58	C	0.434146	0.132398	-0.084672
C59	C	0.767479	0.465731	0.248661
C60	C	1.100812	0.799064	0.581995
C61	C	0.310275	0.092914	0.000090
C62	C	0.643609	0.426247	0.333423
C63	C	0.976942	0.759580	0.666756
C64	C	0.667212	0.098145	0.000067
C65	C	1.000545	0.431479	0.333400
C66	C	1.333879	0.764812	0.666733
C67	C	0.995327	-0.032122	0.000084
C68	C	1.328661	0.301211	0.333417
C69	C	1.661994	0.634545	0.666751
C70	C	0.993961	-0.109630	0.000082
C71	C	1.327294	0.223703	0.333416
C72	C	1.660628	0.557036	0.666749
C73	C	1.060475	-0.671233	0.000066
C74	C	1.393808	-0.337899	0.333399
C75	C	1.727142	-0.004566	0.666732
C76	C	1.061766	-0.598406	0.000074
C77	C	1.395099	-0.265073	0.333407
C78	C	1.728433	0.068260	0.666740
C79	C	0.986104	-0.553663	0.000067
C80	C	1.319437	-0.220329	0.333400
C81	C	1.652771	0.113004	0.666734
C82	C	0.909145	-0.581751	0.000075
C83	C	1.242479	-0.248418	0.333408
C84	C	1.575812	0.084916	0.666741
C85	C	0.907857	-0.654576	0.000075
C86	C	1.241190	-0.321243	0.333409
C87	C	1.574523	0.012090	0.666742
N88	N	0.931339	-0.433122	-0.050165
N89	N	1.264672	-0.099789	0.283168
N90	N	1.598005	0.233544	0.616501
N91	N	0.932568	-0.363942	-0.050168
N92	N	1.265902	-0.030609	0.283166
N93	N	1.599235	0.302725	0.616499
C94	C	0.989982	-0.334244	0.000067
C95	C	1.323316	-0.000910	0.333400
C96	C	1.656649	0.332423	0.666733
N97	N	1.046134	-0.376341	0.050293
N98	N	1.379467	-0.043007	0.383626
N99	N	1.712800	0.290326	0.716959
N100	N	1.044907	-0.445528	0.050291
N101	N	1.378240	-0.112194	0.383624
N102	N	1.711573	0.221139	0.716958
C103	C	0.987493	-0.474695	0.000067
C104	C	1.320826	-0.141362	0.333400
C105	C	1.654160	0.191972	0.666733
C106	C	1.068336	-0.227197	0.000074
C107	C	1.401669	0.106136	0.333407
C108	C	1.735003	0.439470	0.666741
C109	C	1.069624	-0.154369	0.000088
C110	C	1.402957	0.178964	0.333421
C111	C	1.736290	0.512298	0.666754
C112	C	0.917001	-0.137715	0.000080
C113	C	1.250334	0.195619	0.333413
C114	C	1.583668	0.528952	0.666746
C115	C	0.915715	-0.210542	0.000075
C116	C	1.249049	0.122792	0.333408
C117	C	1.582382	0.456125	0.666742
C118	C	0.991385	-0.255279	0.000068
C119	C	1.324719	0.078055	0.333401
C120	C	1.658052	0.411388	0.666734
C121	C	1.141846	0.090427	0.000091
C122	C	1.475179	0.423761	0.333424
C123	C	1.808512	0.757094	0.666757
C124	C	1.234791	0.091803	0.000093
C125	C	1.568125	0.425136	0.333426
C126	C	1.901458	0.758469	0.666759
C127	C	0.982161	0.223179	0.000072
C128	C	1.315494	0.556512	0.333406
C129	C	1.648827	0.889845	0.666739
C130	C	0.983527	0.300687	0.000068
C131	C	1.316860	0.634020	0.333402
C132	C	1.650193	0.967353	0.666735
N133	N	0.988700	0.095537	0.229980
N134	N	1.322034	0.428870	0.563313
N135	N	1.655367	0.762204	0.896646
N136	N	0.988794	0.095514	-0.229821
N137	N	1.322127	0.428847	0.103512
N138	N	1.655461	0.762181	0.436845
C139	C	0.988763	0.095522	0.589181
C140	C	1.322096	0.428855	0.922515
C141	C	1.655430	0.762188	1.255848
C142	C	0.919536	0.152689	0.551566
C143	C	1.252869	0.486022	0.884899
C144	C	1.586202	0.819355	1.218232
C145	C	0.919693	0.152897	0.448740
C146	C	1.253027	0.486231	0.782073
C147	C	1.586360	0.819564	1.115406
C148	C	0.988731	0.095529	0.410977
C149	C	1.322065	0.428863	0.744310
C150	C	1.655398	0.762196	1.077644
C151	C	1.076038	0.111439	0.448275
C152	C	1.409371	0.444772	0.781608
C153	C	1.742704	0.778106	1.114942
C154	C	1.075650	0.111845	0.551133
C155	C	1.408983	0.445178	0.884466
C156	C	1.742316	0.778512	1.217800
C157	C	0.971464	0.022276	0.551284
C158	C	1.304797	0.355609	0.884617
C159	C	1.638130	0.688942	1.217950
C160	C	0.969457	0.022764	0.448420
C161	C	1.302790	0.356098	0.781753
C162	C	1.636124	0.689431	1.115087
C163	C	0.988719	0.095532	0.310264
C164	C	1.322052	0.428866	0.643597
C165	C	1.655385	0.762199	0.976930
C166	C	0.988781	0.095520	0.689895
C167	C	1.322115	0.428853	1.023228
C168	C	1.655448	0.762187	1.356561
H169	H	0.545051	0.190873	0.087836
H170	H	0.878385	0.524207	0.421170
H171	H	1.211718	0.857540	0.754503
F172	F	0.828621	-0.534131	0.000071
F173	F	1.161954	-0.200798	0.333404
F174	F	1.495287	0.132536	0.666738
H175	H	0.544434	0.192211	-0.084386
H176	H	0.877767	0.525544	0.248948
H177	H	1.211100	0.858878	0.582281
H178	H	1.124429	-0.575538	0.000072
H179	H	1.457762	-0.242205	0.333405
H180	H	1.791095	0.091128	0.666738
H181	H	1.129951	-0.263624	0.000069
H182	H	1.463284	0.069709	0.333402
H183	H	1.796618	0.403043	0.666735
F184	F	0.833815	-0.240428	0.000071
F185	F	1.167149	0.092905	0.333404
F186	F	1.500482	0.426239	0.666737
H187	H	1.132287	-0.131508	0.000091
H188	H	1.465620	0.201825	0.333424
H189	H	1.798954	0.535159	0.666758
F190	F	0.836475	-0.090100	0.000082
F191	F	1.169808	0.243233	0.333416
F192	F	1.503142	0.576567	0.666749
H193	H	1.122092	-0.707654	0.000065
H194	H	1.455425	-0.374320	0.333398
H195	H	1.788758	-0.040987	0.666731
F196	F	0.834845	0.140544	0.415778
F197	F	1.168179	0.473877	0.749111
F198	F	1.501512	0.807210	1.082445
H199	H	0.434448	-0.012390	0.061054
H200	H	0.767781	0.320943	0.394388
H201	H	1.101115	0.654276	0.727721
H202	H	1.091695	0.164248	0.422505
H203	H	1.425029	0.497581	0.755838
H204	H	1.758362	0.830914	1.089171
F205	F	0.834420	0.140496	0.583906
F206	F	1.167753	0.473829	0.917240
F207	F	1.501087	0.807162	1.250573
F208	F	0.410067	0.095348	-0.165995
F209	F	0.743401	0.428681	0.167339
F210	F	1.076734	0.762015	0.500672
H211	H	0.433892	-0.012538	-0.059858
H212	H	0.767225	0.320795	0.273476
H213	H	1.100559	0.654129	0.606809
F214	F	0.407751	0.098321	0.166298
F215	F	0.741084	0.431654	0.499631
F216	F	1.074417	0.764988	0.832964
F217	F	0.825954	-0.684462	0.000077
F218	F	1.159287	-0.351129	0.333411
F219	F	1.492621	-0.017795	0.666744
F220	F	0.586227	-0.019832	-0.078740
F221	F	0.919560	0.313502	0.254594
F222	F	1.252894	0.646835	0.587927
F223	F	0.567715	0.103340	-0.166916
F224	F	0.901048	0.436674	0.166418
F225	F	1.234381	0.770007	0.499751
F226	F	0.933744	0.223337	0.585321
F227	F	1.267078	0.556670	0.918654
F228	F	1.600411	0.890004	1.251987
H229	H	0.400985	0.188127	-0.090014
H230	H	0.734318	0.521460	0.243320
H231	H	1.067651	0.854794	0.576653
H232	H	0.401844	0.189422	0.087066
H233	H	0.735178	0.522755	0.420399
H234	H	1.068511	0.856089	0.753733
H235	H	0.930712	0.207252	0.424124
H236	H	1.264046	0.540585	0.757457
H237	H	1.597379	0.873919	1.090791
H238	H	1.016624	-0.021770	0.422718
H239	H	1.349957	0.311564	0.756051
H240	H	1.683291	0.644897	1.089385
F241	F	1.095628	0.181666	0.582479
F242	F	1.428961	0.514999	0.915813
F243	F	1.762295	0.848332	1.249146
F244	F	1.144926	0.059437	0.583658
F245	F	1.478259	0.392771	0.916991
F246	F	1.811593	0.726104	1.250324
F247	F	1.144967	0.058463	0.416305
F248	F	1.478300	0.391796	0.749639
F249	F	1.811633	0.725130	1.082972
F250	F	0.890062	0.002290	0.585223
F251	F	1.223396	0.335623	0.918557
F252	F	1.556729	0.668956	1.251890
F253	F	1.037453	-0.033330	0.583078
F254	F	1.370786	0.300003	0.916411
F255	F	1.704119	0.633337	1.249744
F256	F	0.587466	-0.019186	0.078786
F257	F	0.920799	0.314147	0.412120
F258	F	1.254133	0.647480	0.745453
F259	F	0.565811	0.099324	0.166727
F260	F	0.899145	0.432657	0.500060
F261	F	1.232478	0.765991	0.833394
F262	F	0.885513	0.006981	0.416560
F263	F	1.218847	0.340314	0.749893
F264	F	1.552180	0.673648	1.083226
