data_functionalizedCrystal
_audit_creation_method	'MofGen! by Chris Wilmer'
_symmetry_space_group_name_H-M	'P1'
_symmetry_Int_Tables_number	1
_symmetry_cell_setting	triclinic
loop_
_symmetry_equiv_pos_as_xyz
  x,y,z
_cell_length_a	11.792254
_cell_length_b	16.109302
_cell_length_c	14.586319
_cell_angle_alpha	89.994552
_cell_angle_beta	89.999358
_cell_angle_gamma	96.169811
loop_
_atom_site_label
_atom_site_type_symbol
_atom_site_fract_x
_atom_site_fract_y
_atom_site_fract_z
O1	O	-0.145888	1.103822	-0.076272
O2	O	-0.164043	0.861846	-0.076264
O3	O	0.010256	0.988701	-0.076273
O4	O	-0.320186	0.976967	-0.076264
O5	O	0.010258	0.988692	0.076208
O6	O	-0.164040	0.861837	0.076217
O7	O	-0.145886	1.103813	0.076208
Cu8	Cu	-0.154963	0.982824	0.090135
Cu9	Cu	-0.154966	0.982835	-0.090191
O10	O	-0.320184	0.976958	0.076217
C11	C	-0.163306	0.830863	-0.000023
C12	C	-0.161101	0.738557	-0.000020
C13	C	-0.156000	0.526188	0.083088
C14	C	-0.153916	0.439458	0.083085
C15	C	-0.153925	0.439478	-0.083158
C16	C	-0.156001	0.526207	-0.083154
C17	C	-0.157044	0.569559	-0.000028
C18	C	-0.152884	0.396100	-0.000036
C19	C	-0.150624	0.302064	-0.000040
C20	C	-0.159302	0.663602	-0.000024
C21	C	-0.362469	0.977702	-0.000022
C22	C	-0.488463	0.979914	-0.000020
C23	C	-0.590784	0.981712	-0.000025
C24	C	-0.719151	0.983959	-0.000035
C25	C	0.052541	0.987957	-0.000035
C26	C	0.178535	0.985745	-0.000044
C27	C	-0.146623	1.134796	-0.000035
C28	C	-0.148828	1.227102	-0.000044
N29	N	-0.154960	0.982823	0.216967
N30	N	-0.154960	0.982843	-0.217023
C31	C	-0.077806	1.039013	0.451970
C32	C	-0.077804	1.039015	0.547951
C33	C	-0.232117	0.926647	0.547968
C34	C	-0.232113	0.926641	0.451988
C35	C	-0.154959	0.982829	0.403992
C36	C	-0.154960	0.982837	0.595953
C37	C	-0.154958	0.982839	0.700020
C38	C	-0.154960	0.982826	0.299918
H39	H	-0.156850	0.561482	0.150774
Cl40	Cl	0.019195	1.109648	0.608263
Cl41	Cl	-0.329110	0.856017	0.608311
Cl42	Cl	-0.152585	0.384975	-0.187653
Cl43	Cl	-0.329107	0.856000	0.391667
H44	H	-0.014982	1.084763	0.412893
Cl45	Cl	-0.152606	0.384937	0.187579
Cl46	Cl	-0.157304	0.580736	-0.187652
