data_functionalizedCrystal
_audit_creation_method	'MofGen! by Chris Wilmer'
_symmetry_space_group_name_H-M	'P1'
_symmetry_Int_Tables_number	1
_symmetry_cell_setting	triclinic
loop_
_symmetry_equiv_pos_as_xyz
  x,y,z
_cell_length_a	17.638686
_cell_length_b	17.640280
_cell_length_c	21.395355
_cell_angle_alpha	101.215078
_cell_angle_beta	101.215298
_cell_angle_gamma	65.687361
loop_
_atom_site_label
_atom_site_type_symbol
_atom_site_fract_x
_atom_site_fract_y
_atom_site_fract_z
Zn1	Zn	1.326531	-0.583387	0.473085
Zn2	Zn	1.354303	-0.721159	0.350702
Zn3	Zn	1.188684	-0.555471	0.350740
Zn4	Zn	1.216541	-0.693240	0.437874
O5	O	1.271515	-0.638314	0.403100
O6	O	1.445558	-0.625030	0.471570
O7	O	1.332299	-0.699182	0.263023
O8	O	1.183689	-0.443859	0.381721
O9	O	1.465962	-0.726251	0.381656
O10	O	1.284964	-0.464369	0.471607
O11	O	1.210619	-0.577451	0.263051
O12	O	1.077036	-0.550379	0.347579
O13	O	1.231166	-0.678666	0.530229
O14	O	1.097502	-0.651597	0.411596
O15	O	1.311975	-0.597958	0.556098
O16	O	1.359310	-0.832771	0.347514
O17	O	1.258096	-0.812258	0.411559
C18	C	1.057362	-0.594930	0.375771
C19	C	0.965751	-0.576389	0.364092
C20	C	0.717928	-0.779342	0.491961
C21	C	0.631843	-0.761914	0.480972
C22	C	0.610466	-0.656352	0.414456
C23	C	0.696550	-0.673774	0.425437
C24	C	0.750275	-0.735270	0.464191
C25	C	0.728898	-0.629702	0.397667
C26	C	0.814974	-0.647120	0.408650
C27	C	0.868704	-0.708611	0.447403
C28	C	0.836352	-0.752688	0.475174
C29	C	0.675171	-0.568203	0.358917
C30	C	0.707518	-0.524130	0.331146
C31	C	0.793597	-0.541552	0.342126
C32	C	0.847327	-0.603043	0.380879
C33	C	0.825949	-0.497475	0.314355
C34	C	0.912026	-0.514894	0.325338
C35	C	0.933403	-0.620462	0.391862
C36	C	1.314762	-0.852419	0.375728
C37	C	1.333338	-0.944029	0.364048
C38	C	1.130728	-1.192016	0.492099
C39	C	1.148185	-1.278098	0.481105
C40	C	1.253644	-1.299406	0.414504
C41	C	1.236199	-1.213324	0.425495
C42	C	1.174739	-1.159636	0.464293
C43	C	1.280210	-1.180944	0.397689
C44	C	1.262762	-1.094870	0.408677
C45	C	1.201304	-1.041176	0.447471
C46	C	1.157292	-1.073561	0.475281
C47	C	1.341665	-1.234633	0.358888
C48	C	1.385676	-1.202253	0.331081
C49	C	1.368233	-1.116178	0.342073
C50	C	1.306775	-1.062484	0.380867
C51	C	1.412246	-1.083792	0.314263
C52	C	1.394798	-0.997717	0.325251
C53	C	1.289327	-0.976409	0.391855
C54	C	1.486504	-0.681869	0.430537
C55	C	1.578119	-0.700429	0.442228
C56	C	1.271580	-0.638311	0.566535
C57	C	1.271607	-0.638310	0.636180
C58	C	1.228121	-0.423378	0.430596
C59	C	1.209629	-0.331785	0.442313
C60	C	1.271485	-0.638267	0.240316
C61	C	1.271570	-0.638069	0.170720
C62	C	1.313682	-0.596283	0.682365
C63	C	1.313674	-0.596247	0.747804
C64	C	1.271603	-0.638255	0.767057
C65	C	1.229518	-0.680284	0.720863
C66	C	1.229521	-0.680312	0.655425
C67	C	1.280082	-0.711137	0.860415
C68	C	1.280086	-0.711112	0.925853
C69	C	1.271590	-0.638169	0.968889
C70	C	1.263108	-0.565253	0.946483
C71	C	1.263110	-0.565280	0.881045
C72	C	1.271595	-0.638230	0.838012
C73	C	1.313658	-0.596099	1.086032
C74	C	1.313643	-0.596061	1.151472
C75	C	1.229494	-0.680107	1.124529
C76	C	1.229502	-0.680137	1.059090
C77	C	1.271589	-0.638135	1.039846
H78	H	0.761675	-0.829422	0.523515
H79	H	0.663764	-0.474058	0.299595
H80	H	0.605510	-0.797805	0.503591
O81	O	1.354437	-0.555236	1.196422
C82	C	1.345421	-0.564226	1.258307
H83	H	1.287260	-0.578325	1.255663
H84	H	1.338543	-0.503619	1.291772
H85	H	1.403169	-0.618001	1.277529
H86	H	0.938792	-0.722788	0.456349
H87	H	1.462280	-1.127516	0.282669
O88	O	0.888494	-0.812333	0.512914
C89	C	0.863870	-0.790210	0.574986
H90	H	0.826897	-0.719595	0.583629
H91	H	0.921943	-0.808824	0.612239
H92	H	0.822859	-0.824323	0.579285
O93	O	1.188705	-0.720911	1.143333
C94	C	1.197707	-0.711860	1.210994
H95	H	1.255863	-0.697744	1.231511
H96	H	1.204588	-0.772446	1.227264
H97	H	1.139952	-0.658072	1.228921
H98	H	1.107251	-1.029847	0.506879
O99	O	1.313333	-1.351681	0.376848
C100	C	1.319274	-1.434593	0.373091
H101	H	1.294642	-1.440886	0.416480
H102	H	1.387634	-1.479769	0.372576
H103	H	1.280352	-1.450167	0.327180
O104	O	1.354645	-0.555596	0.663630
C105	C	1.417338	-0.613288	0.626565
H106	H	1.435563	-0.679219	0.638648
H107	H	1.474737	-0.596310	0.637725
H108	H	1.392409	-0.610988	0.573353
H109	H	0.605081	-0.554018	0.349979
H110	H	0.566711	-0.606280	0.382904
H111	H	0.782193	-0.447400	0.282807
O112	O	1.354418	-0.555159	1.067362
C113	C	1.319835	-0.469375	1.091548
H114	H	1.253146	-0.451865	1.101651
H115	H	1.318719	-0.430125	1.054618
H116	H	1.359674	-0.456766	1.137932
H117	H	0.938362	-0.478999	0.302730
H118	H	1.347933	-0.562018	0.785415
H119	H	1.112351	-1.304459	0.503760
O120	O	1.229693	-0.924346	0.429631
C121	C	1.251943	-0.948969	0.491707
H122	H	1.296281	-1.017859	0.489092
H123	H	1.193047	-0.939887	0.511801
H124	H	1.284492	-0.909072	0.524425
O125	O	1.445469	-1.254346	0.293452
C126	C	1.523341	-1.249906	0.320381
H127	H	1.512371	-1.187744	0.352662
H128	H	1.559733	-1.254448	0.280283
H129	H	1.560887	-1.303936	0.349972
H130	H	1.286776	-0.770476	0.825353
O131	O	1.254818	-0.494370	0.859380
C132	C	1.247341	-0.429985	0.911394
H133	H	1.223583	-0.443861	0.952011
H134	H	1.201149	-0.367516	0.895083
H135	H	1.311241	-0.426513	0.929146
H136	H	1.430636	-0.971354	0.302607
H137	H	1.355871	-1.304720	0.349944
O138	O	1.254695	-0.494361	0.988283
C139	C	1.182384	-0.469527	1.018521
H140	H	1.137031	-0.496631	0.987193
H141	H	1.150762	-0.398156	1.025611
H142	H	1.200888	-0.493712	1.067211
H143	H	1.286997	-0.770486	0.944091
H144	H	1.195246	-0.714366	1.021485
H145	H	1.195261	-0.714485	0.736542
H146	H	1.195255	-0.714534	0.617820
H147	H	1.080687	-1.148301	0.523697
O148	O	0.985669	-0.680107	0.429561
C149	C	1.025997	-0.643343	0.482438
H150	H	1.026240	-0.583450	0.470052
H151	H	1.093322	-0.689171	0.494219
H152	H	0.991042	-0.627679	0.525800
H153	H	1.187093	-0.971087	0.456411
