data_functionalizedCrystal
_audit_creation_method	'MofGen! by Chris Wilmer'
_symmetry_space_group_name_H-M	'P1'
_symmetry_Int_Tables_number	1
_symmetry_cell_setting	triclinic
loop_
_symmetry_equiv_pos_as_xyz
  x,y,z
_cell_length_a	17.699083
_cell_length_b	11.026607
_cell_length_c	16.776229
_cell_angle_alpha	89.996140
_cell_angle_beta	89.998886
_cell_angle_gamma	95.934516
loop_
_atom_site_label
_atom_site_type_symbol
_atom_site_fract_x
_atom_site_fract_y
_atom_site_fract_z
O1	O	1.025155	0.153399	-0.066172
O2	O	0.807518	0.173356	-0.066197
O3	O	0.898299	-0.013222	-0.066184
O4	O	0.934374	0.339978	-0.066186
O5	O	0.898282	-0.013234	0.066393
O6	O	0.807501	0.173345	0.066379
O7	O	1.025138	0.153387	0.066405
Zn8	Zn	0.916317	0.163364	0.087441
Zn9	Zn	0.916339	0.163379	-0.087234
O10	O	0.934357	0.339966	0.066391
C11	C	0.779214	0.172636	0.000087
C12	C	0.694902	0.170490	0.000078
C13	C	0.661328	0.280008	0.000077
C14	C	0.582106	0.277985	0.000088
C15	C	0.536460	0.166443	0.000092
C16	C	0.570039	0.056917	0.000095
C17	C	0.649259	0.058941	0.000090
C18	C	0.250554	0.048751	0.000115
C19	C	0.171329	0.046735	0.000117
C20	C	0.183402	0.267794	0.000112
C21	C	0.262621	0.269819	0.000107
C22	C	0.296194	0.160293	0.000114
C23	C	0.382094	0.162488	0.000104
C24	C	0.450561	0.164247	0.000096
C25	C	0.891635	-0.058419	0.000103
C26	C	0.871796	-0.193075	0.000097
C27	C	0.926576	-0.267042	0.000103
C28	C	0.906072	-0.406216	0.000097
C29	C	1.053441	0.154108	0.000118
C30	C	1.137754	0.156254	0.000123
C31	C	0.941021	0.385163	0.000103
C32	C	0.960860	0.519819	0.000103
N33	N	0.916307	0.163353	0.206652
N34	N	0.916354	0.163381	-0.206445
C35	C	0.956525	0.080770	0.248375
C36	C	0.956529	0.080769	0.331828
C37	C	0.916319	0.163358	0.373555
C38	C	0.876096	0.245945	0.331826
C39	C	0.876088	0.245939	0.248376
C40	C	0.876127	0.245969	0.668374
C41	C	0.876140	0.245971	0.751830
C42	C	0.956568	0.080799	0.751826
C43	C	0.956560	0.080793	0.668375
C44	C	0.916334	0.163375	0.626653
C45	C	0.916329	0.163374	0.536165
C46	C	0.916328	0.163366	0.464042
H47	H	0.554775	0.367165	0.000086
H48	H	0.989319	0.013552	0.785804
H49	H	0.809717	-0.232783	0.000085
O50	O	0.150824	0.374224	-0.000028
C51	C	0.173865	0.441972	-0.068685
H52	H	0.192107	0.377853	-0.116675
H53	H	0.124504	0.490783	-0.091731
H54	H	0.223614	0.512064	-0.053169
H55	H	0.988654	-0.227333	0.000115
H56	H	0.843337	0.313186	0.214405
H57	H	1.022943	-0.440480	0.000050
O58	O	0.995650	0.000684	0.207791
C59	C	1.051158	0.065502	0.159468
H60	H	1.065518	0.161156	0.184607
H61	H	1.104531	0.015832	0.158485
H62	H	1.028312	0.071931	0.096237
O63	O	0.995532	0.000596	0.372481
C64	C	0.986931	0.018322	0.455084
H65	H	0.932951	0.063775	0.466486
H66	H	0.982842	-0.073559	0.486803
H67	H	1.038043	0.079082	0.478758
O68	O	0.705745	0.388286	0.000176
C69	C	0.751921	0.396082	0.068844
H70	H	0.758552	0.300416	0.091737
H71	H	0.810181	0.444287	0.053396
H72	H	0.724370	0.449845	0.116926
H73	H	0.989305	0.013546	0.634403
O74	O	0.306989	0.378144	-0.000046
C75	C	0.353181	0.385916	-0.068704
H76	H	0.325882	0.322577	-0.116688
H77	H	0.359410	0.483697	-0.091759
H78	H	0.411603	0.357762	-0.053186
O79	O	0.831996	-0.453511	-0.000055
C80	C	0.795788	-0.413717	-0.068710
H81	H	0.840079	-0.387416	-0.116695
H82	H	0.753220	-0.490346	-0.091766
H83	H	0.764788	-0.331215	-0.053188
H84	H	0.843393	0.313227	0.785803
O85	O	0.126876	-0.061518	0.000092
C86	C	0.049756	-0.039812	0.000111
H87	H	0.044127	0.054905	-0.024996
H88	H	0.015792	-0.111171	-0.038374
H89	H	0.026989	-0.045618	0.063715
O90	O	0.837045	0.326309	0.627976
C91	C	0.801546	0.399185	0.682704
H92	H	0.832763	0.400494	0.742184
H93	H	0.803195	0.496082	0.658588
H94	H	0.739976	0.359910	0.691593
O95	O	0.283244	-0.057561	0.000005
C96	C	0.328690	-0.063017	-0.068670
H97	H	0.345804	0.033255	-0.091559
H98	H	0.381839	-0.108391	-0.053232
H99	H	0.295176	-0.118327	-0.116750
H100	H	0.843352	0.313187	0.365806
H101	H	0.532868	-0.033903	0.000110
H102	H	0.676594	-0.030240	0.000090
