data_functionalizedCrystal
_audit_creation_method	'MofGen! by Chris Wilmer'
_symmetry_space_group_name_H-M	'P1'
_symmetry_Int_Tables_number	1
_symmetry_cell_setting	triclinic
loop_
_symmetry_equiv_pos_as_xyz
  x,y,z
_cell_length_a	20.016444
_cell_length_b	12.970454
_cell_length_c	12.970454
_cell_angle_alpha	59.999776
_cell_angle_beta	90.001047
_cell_angle_gamma	60.002422
loop_
_atom_site_label
_atom_site_type_symbol
_atom_site_fract_x
_atom_site_fract_y
_atom_site_fract_z
Zr1	Zr	0.643581	1.128568	-0.135306
O2	O	0.536909	1.343650	-0.299931
O3	O	0.676281	0.913480	-0.084839
O4	O	0.676282	1.128569	-0.299930
O5	O	0.536908	1.128561	0.084826
O6	O	0.786222	1.128577	-0.299930
O7	O	0.536908	1.128560	-0.084840
O8	O	0.786221	0.743821	0.084828
O9	O	0.536910	1.513317	-0.299932
O10	O	0.772275	1.001957	-0.063317
O11	O	0.690227	1.001951	0.063304
O12	O	0.690228	1.255192	-0.189938
O13	O	0.608181	1.255186	-0.063318
Zr14	Zr	0.818921	1.128582	0.135292
Zr15	Zr	0.818922	1.128581	-0.135307
Zr16	Zr	0.643580	1.128569	0.135292
Zr17	Zr	0.643581	1.399168	-0.135308
Zr18	Zr	0.818921	0.857982	0.135293
O19	O	0.786221	1.343670	0.084825
O20	O	0.786222	1.343668	-0.299931
O21	O	0.536908	1.343652	0.084825
O22	O	0.925593	0.913500	0.299916
O23	O	0.925594	0.913498	-0.084840
O24	O	0.676280	0.913482	0.299917
O25	O	0.925594	1.128589	-0.084841
O26	O	0.786220	1.128581	0.299916
O27	O	0.676280	1.128572	0.299916
O28	O	0.925594	1.128590	0.084826
O29	O	0.676283	1.513327	-0.299932
O30	O	0.786220	0.743822	0.299918
O31	O	0.925593	0.743833	0.299917
O32	O	0.925594	0.743831	0.084828
O33	O	0.536909	1.513318	-0.084842
O34	O	0.676282	1.513329	-0.084842
O35	O	0.772274	1.001958	0.189924
O36	O	0.854321	1.001963	0.063303
O37	O	0.772275	1.255198	-0.063318
O38	O	0.690227	1.255193	0.063302
C39	C	0.731251	0.790096	-0.000006
C40	C	0.731251	0.675219	-0.000005
C41	C	0.511926	1.128559	-0.000007
C42	C	0.437489	1.128553	-0.000007
C43	C	0.309049	0.996384	0.066091
C44	C	0.239104	0.996390	0.066094
C45	C	0.153455	1.260776	-0.066108
C46	C	0.223399	1.260768	-0.066103
C47	C	0.301196	1.128568	-0.000006
C48	C	0.161306	1.128582	-0.000008
C49	C	0.085468	1.128589	-0.000005
C50	C	0.377039	1.128560	-0.000007
C51	C	0.950576	1.128591	-0.000008
C52	C	1.025013	1.128597	-0.000008
C53	C	0.731253	1.128573	-0.338485
C54	C	0.731253	1.128572	-0.453361
C55	C	0.731251	1.467054	-0.000009
C56	C	0.731251	1.581931	-0.000010
C57	C	0.731250	1.128577	0.338470
C58	C	0.731249	1.128577	0.453346
C59	C	0.950576	0.790112	-0.000006
C60	C	1.025013	0.675241	-0.000006
C61	C	0.731249	0.790097	0.338472
C62	C	0.731249	0.675221	0.453349
C63	C	0.950575	0.790114	0.338472
C64	C	1.025011	0.675243	0.453348
C65	C	0.511927	1.467036	-0.338486
C66	C	0.437491	1.581907	-0.453363
C67	C	0.511926	1.467038	-0.000009
C68	C	0.437489	1.581909	-0.000009
C69	C	0.731253	1.467052	-0.338486
C70	C	0.731253	1.581928	-0.453363
C71	C	1.017142	0.621292	-0.066111
C72	C	1.087077	0.513373	-0.066136
C73	C	1.164882	0.459398	-0.000047
C74	C	1.172751	0.513356	0.066060
C75	C	1.102817	0.621281	0.066077
C76	C	1.102803	0.621301	0.441201
C77	C	1.172750	0.513383	0.549129
C78	C	1.164905	0.459401	0.669204
C79	C	1.087105	0.513354	0.681349
C80	C	1.017159	0.621277	0.573421
C81	C	0.359699	1.635862	-0.441215
C82	C	0.289752	1.743813	-0.549144
C83	C	0.297597	1.797801	-0.669218
C84	C	0.375397	1.743842	-0.681363
C85	C	0.445343	1.635899	-0.573436
C86	C	0.445360	1.635869	0.066085
C87	C	0.375425	1.743817	0.066080
C88	C	0.297620	1.797797	-0.000012
C89	C	0.289751	1.743833	-0.066115
C90	C	0.359685	1.635894	-0.066116
H91	H	0.372392	0.888738	0.119925
O92	O	1.110369	0.673915	0.324526
C93	C	1.072514	0.825151	0.258082
H94	H	1.024814	0.871009	0.299217
H95	H	1.041505	0.881014	0.154204
H96	H	1.120609	0.845724	0.267095
O97	O	0.214245	1.796001	-0.537105
C98	C	0.222329	1.725206	-0.407978
H99	H	0.284744	1.615811	-0.350442
H100	H	0.172173	1.706589	-0.392925
H101	H	0.216605	1.795970	-0.376152
O102	O	0.941533	0.673864	0.585006
C103	C	0.881469	0.780668	0.464010
H104	H	0.908704	0.827909	0.392441
H105	H	0.827534	0.871449	0.465222
H106	H	0.859599	0.729014	0.436525
H107	H	0.245505	0.888753	0.119919
H108	H	1.236110	0.469394	0.119867
H109	H	1.221820	0.371517	-0.000070
O110	O	1.110615	0.673462	0.130419
C111	C	1.194286	0.602691	0.188718
H112	H	1.231573	0.493305	0.201774
H113	H	1.204050	0.584057	0.284744
H114	H	1.214895	0.673481	0.126781
O115	O	0.351989	1.583334	-0.130147
C116	C	0.308814	1.520957	-0.081550
H117	H	0.314660	1.488560	0.019197
H118	H	0.335363	1.420166	-0.081718
H119	H	0.241510	1.603700	-0.142832
H120	H	0.226393	1.787800	-0.119925
O121	O	0.077823	1.389058	-0.130300
C122	C	0.017770	1.360724	-0.116110
H123	H	0.045022	1.247116	-0.091765
H124	H	-0.036160	1.445147	-0.208112
H125	H	-0.004112	1.366999	-0.036983
O126	O	0.383157	1.796019	-0.797913
C127	C	0.466816	1.725148	-0.785511
H128	H	0.504140	1.680847	-0.689287
H129	H	0.476558	1.806020	-0.863069
H130	H	0.487398	1.631272	-0.794149
O131	O	0.520976	1.583476	0.130106
C132	C	0.563989	1.609880	0.045247
H133	H	0.537287	1.623297	-0.041740
H134	H	0.631299	1.514016	0.093201
H135	H	0.558164	1.713674	0.015662
H136	H	0.216999	1.368415	-0.119924
H137	H	0.240682	1.885688	-0.000001
O138	O	0.520922	1.583646	-0.585194
C139	C	0.563956	1.609991	-0.526700
H140	H	0.518581	1.704557	-0.521678
H141	H	0.602605	1.638626	-0.583969
H142	H	0.605481	1.508096	-0.427156
O143	O	0.352173	1.583459	-0.324514
C144	C	0.390058	1.609863	-0.258142
H145	H	0.437724	1.623289	-0.299362
H146	H	0.421111	1.513994	-0.154265
H147	H	0.341974	1.713652	-0.267126
O148	O	1.248271	0.461242	0.537144
C149	C	1.257221	0.576446	0.470553
H150	H	1.194253	0.684405	0.411005
H151	H	1.293987	0.560192	0.406364
H152	H	1.290658	0.577900	0.540440
H153	H	0.953796	0.665238	-0.119944
O154	O	0.229563	1.902604	-0.773923
C155	C	0.159224	1.938660	-0.737437
H156	H	0.175292	1.843983	-0.637803
H157	H	0.109823	1.961081	-0.805616
H158	H	0.135677	2.040071	-0.739390
H159	H	1.080654	0.469453	-0.119968
H160	H	1.080729	0.469386	0.779128
O161	O	1.232939	0.354512	0.773908
C162	C	1.303278	0.318511	0.737423
H163	H	1.287210	0.348265	0.637788
H164	H	1.352678	0.196520	0.805600
H165	H	1.326826	0.381631	0.739377
H166	H	0.381848	1.787737	0.119914
