data_functionalizedCrystal
_audit_creation_method	'MofGen! by Chris Wilmer'
_symmetry_space_group_name_H-M	'P1'
_symmetry_Int_Tables_number	1
_symmetry_cell_setting	triclinic
loop_
_symmetry_equiv_pos_as_xyz
  x,y,z
_cell_length_a	19.188925
_cell_length_b	13.339070
_cell_length_c	11.804365
_cell_angle_alpha	105.112168
_cell_angle_beta	78.191909
_cell_angle_gamma	99.385922
loop_
_atom_site_label
_atom_site_type_symbol
_atom_site_fract_x
_atom_site_fract_y
_atom_site_fract_z
O1	O	0.960996	0.105686	-0.099050
O2	O	0.761011	0.122679	-0.099046
O3	O	0.838051	-0.032978	-0.099044
O4	O	0.883956	0.261343	-0.099052
O5	O	0.817762	0.007959	0.099011
O6	O	0.740721	0.163617	0.099009
O7	O	0.940706	0.146623	0.099005
Cu8	Cu	0.838861	0.158858	0.117091
Cu9	Cu	0.862856	0.110444	-0.117132
O10	O	0.863666	0.302280	0.099003
C11	C	0.820153	-0.050164	-0.000018
C12	C	0.797040	-0.162364	-0.000022
C13	C	0.724748	0.142599	-0.000018
C14	C	0.646920	0.140950	-0.000017
C15	C	0.976753	-0.527958	-0.000025
C16	C	0.998470	-0.422540	-0.000014
C17	C	0.948114	-0.357491	-0.000017
C18	C	0.876038	-0.397870	-0.000029
C19	C	0.854319	-0.503297	-0.000031
C20	C	0.825680	-0.332830	-0.000022
C21	C	0.753604	-0.373209	-0.000035
C22	C	0.731888	-0.478626	-0.000037
C23	C	0.782243	-0.543675	-0.000035
C24	C	0.847400	-0.227403	-0.000021
C25	C	0.724965	-0.202742	-0.000026
C26	C	0.703248	-0.308160	-0.000037
C27	C	0.100874	0.221241	-0.000022
C28	C	0.174003	0.222798	-0.000028
C29	C	0.201051	0.131464	-0.000024
C30	C	0.154966	0.038560	-0.000043
C31	C	0.081840	0.037003	-0.000049
N32	N	0.301872	0.079277	0.067398
N33	N	0.371339	0.080763	0.067405
C34	C	0.421375	0.136149	-0.000010
N35	N	0.399320	0.190011	-0.067418
N36	N	0.329846	0.188529	-0.067420
C37	C	0.280343	0.133142	-0.000019
C38	C	0.546746	0.230733	-0.000006
C39	C	0.619877	0.232285	-0.000020
C40	C	0.600837	0.048047	-0.000022
C41	C	0.527709	0.046495	-0.000021
C42	C	0.500668	0.137843	-0.000007
C43	C	0.976970	0.126703	-0.000025
C44	C	1.054798	0.128350	-0.000035
C45	C	0.881565	0.319466	-0.000026
C46	C	0.904678	0.431664	-0.000029
N47	N	0.821989	0.192908	0.281831
N48	N	0.879732	0.076386	-0.281872
C49	C	0.920243	-0.005402	0.655783
C50	C	0.933005	-0.031165	0.531121
C51	C	0.905252	0.024851	0.468793
C52	C	0.864735	0.106635	0.531138
C53	C	0.851977	0.132407	0.655811
C54	C	0.836986	0.162659	0.468821
C55	C	0.796469	0.244443	0.531166
C56	C	0.783712	0.270210	0.655827
C57	C	0.811466	0.214194	0.718156
C58	C	0.849744	0.136888	0.344148
C59	C	0.781478	0.274696	0.344176
C60	C	0.768716	0.300459	0.468838
H61	H	0.906084	-0.194537	-0.000010
Br62	Br	0.728739	0.381217	0.740442
Br63	Br	0.904730	0.025900	0.259552
Br64	Br	0.064179	0.345209	-0.000016
H65	H	0.211524	0.298445	-0.000007
Br66	Br	0.752789	-0.686783	-0.000211
Br67	Br	0.634068	-0.533420	-0.000031
H68	H	0.490192	-0.029145	-0.000024
H69	H	1.057154	-0.389670	-0.000002
Br70	Br	0.191672	-0.085397	-0.000047
Br71	Br	0.743817	0.350729	0.259597
H72	H	0.044324	-0.038642	-0.000059
Br73	Br	0.977589	-0.214422	-0.000006
H74	H	0.942841	-0.050998	0.706539
Br75	Br	0.987991	-0.142149	0.446512
Br76	Br	0.794138	0.249155	0.887347
H77	H	0.644562	-0.341052	-0.000047
H78	H	1.017744	-0.580927	-0.000013
H79	H	0.683960	-0.149778	-0.000022
Br80	Br	0.510043	0.354701	0.000012
H81	H	0.657393	0.307929	-0.000019
H82	H	0.915644	0.003870	0.367288
Br83	Br	0.637539	-0.075915	-0.000041
Br84	Br	0.713729	0.411449	0.553460
