data_functionalizedCrystal
_audit_creation_method	'MofGen! by Chris Wilmer'
_symmetry_space_group_name_H-M	'P1'
_symmetry_Int_Tables_number	1
_symmetry_cell_setting	triclinic
loop_
_symmetry_equiv_pos_as_xyz
  x,y,z
_cell_length_a	29.839134
_cell_length_b	29.839131
_cell_length_c	18.050582
_cell_angle_alpha	90.033130
_cell_angle_beta	90.024639
_cell_angle_gamma	90.030088
loop_
_atom_site_label
_atom_site_type_symbol
_atom_site_fract_x
_atom_site_fract_y
_atom_site_fract_z
Zn1	Zn	0.686751	-0.178943	0.420051
Zn2	Zn	0.686688	-0.254066	0.295838
Zn3	Zn	0.611630	-0.178944	0.295854
Zn4	Zn	0.611589	-0.254040	0.419965
O5	O	0.649164	-0.216498	0.357927
O6	O	0.749609	-0.188919	0.403602
O7	O	0.676722	-0.244111	0.191915
O8	O	0.621638	-0.116077	0.312371
O9	O	0.749563	-0.244111	0.312344
O10	O	0.676829	-0.116076	0.403618
O11	O	0.621577	-0.188920	0.191927
O12	O	0.548758	-0.188895	0.312288
O13	O	0.621569	-0.244068	0.523901
O14	O	0.548728	-0.244068	0.403472
O15	O	0.676790	-0.188895	0.523964
O16	O	0.676682	-0.316929	0.312261
O17	O	0.621508	-0.316911	0.403457
C18	C	0.532442	-0.216479	0.357873
C19	C	0.482507	-0.216482	0.357868
C20	C	0.172858	-0.245269	0.405348
C21	C	-0.014815	-0.245282	0.405381
O22	O	-0.039085	-0.269737	0.445719
N23	N	-0.038278	-0.216515	0.357983
C24	C	-0.014819	-0.187740	0.310576
O25	O	-0.039082	-0.163269	0.270267
C26	C	0.172853	-0.187726	0.310547
C27	C	0.196313	-0.216498	0.357943
C28	C	0.196318	-0.274039	0.452741
C29	C	0.243234	-0.274038	0.452729
C30	C	0.266689	-0.245266	0.405325
C31	C	0.243229	-0.216496	0.357932
C32	C	0.196311	-0.158949	0.263145
C33	C	0.243232	-0.158947	0.263143
C34	C	0.266692	-0.187720	0.310539
C35	C	0.313599	-0.187723	0.310516
N36	N	0.337062	-0.216490	0.357914
C37	C	0.313607	-0.245262	0.405319
C38	C	-0.113350	-0.187750	0.310593
C39	C	-0.160268	-0.187755	0.310599
C40	C	-0.160260	-0.245296	0.405406
C41	C	-0.113342	-0.245294	0.405395
C42	C	-0.089887	-0.216518	0.357992
C43	C	0.412133	-0.245256	0.405290
C44	C	0.459052	-0.245253	0.405272
C45	C	0.459041	-0.187710	0.310469
C46	C	0.412125	-0.187715	0.310484
C47	C	0.388672	-0.216489	0.357901
O48	O	0.337898	-0.163277	0.270205
O49	O	0.337877	-0.269723	0.445634
C50	C	0.125943	-0.245271	0.405360
C51	C	0.102482	-0.216501	0.357967
C52	C	0.125938	-0.187730	0.310562
C53	C	0.055564	-0.216506	0.357973
C54	C	0.032109	-0.245277	0.405377
C55	C	0.055572	-0.274044	0.452776
C56	C	0.102487	-0.274043	0.452764
C57	C	0.102475	-0.158963	0.263164
C58	C	0.055560	-0.158967	0.263178
C59	C	0.032104	-0.187739	0.310583
C60	C	0.649096	-0.333221	0.357864
C61	C	0.649108	-0.383155	0.357862
C62	C	0.677896	-0.692764	0.405507
C63	C	0.677945	-0.880437	0.405551
O64	O	0.702355	-0.904672	0.446014
N65	N	0.649241	-0.903940	0.358009
C66	C	0.620520	-0.880523	0.310456
O67	O	0.596104	-0.904820	0.270025
C68	C	0.620470	-0.692851	0.310415
C69	C	0.649179	-0.669349	0.357955
C70	C	0.706603	-0.669262	0.453043
C71	C	0.706592	-0.622347	0.453029
C72	C	0.677875	-0.598933	0.405478
C73	C	0.649168	-0.622434	0.357941
C74	C	0.591747	-0.669434	0.262866
C75	C	0.591736	-0.622513	0.262862
C76	C	0.620446	-0.599012	0.310402
C77	C	0.620440	-0.552104	0.310375
N78	N	0.649144	-0.528601	0.357917
C79	C	0.677861	-0.552015	0.405469
C80	C	0.620550	-0.979053	0.310479
C81	C	0.620563	-1.025971	0.310488
C82	C	0.677987	-1.025882	0.405585
C83	C	0.677976	-0.978963	0.405572
C84	C	0.649254	-0.955550	0.358022
C85	C	0.677837	-0.453489	0.405434
C86	C	0.677825	-0.406570	0.405413
C87	C	0.620399	-0.406663	0.310320
C88	C	0.620413	-0.453578	0.310338
C89	C	0.649133	-0.476990	0.357901
O90	O	0.596040	-0.527840	0.269940
O91	O	0.702267	-0.527709	0.445905
C92	C	0.677907	-0.739679	0.405521
C93	C	0.649200	-0.763180	0.357984
C94	C	0.620483	-0.739766	0.310433
C95	C	0.649213	-0.810098	0.357993
C96	C	0.677931	-0.833512	0.405545
C97	C	0.706635	-0.810009	0.453087
C98	C	0.706624	-0.763093	0.453072
C99	C	0.591779	-0.763270	0.262891
C100	C	0.591792	-0.810185	0.262909
C101	C	0.620510	-0.833599	0.310460
C102	C	0.766343	-0.216518	0.357981
C103	C	0.816277	-0.216526	0.358004
C104	C	0.649182	-0.216478	0.551632
C105	C	0.649190	-0.216470	0.634178
C106	C	0.649245	-0.099320	0.358006
C107	C	0.649280	-0.049385	0.358040
C108	C	0.649173	-0.216486	0.164975
C109	C	0.649252	-0.216368	0.082429
C110	C	0.619183	-0.246432	0.833595
C111	C	0.660169	-0.257417	0.882994
C112	C	0.649212	-0.216436	0.785309
C113	C	0.608248	-0.205438	0.882991
C114	C	0.649229	-0.216403	0.931294
C115	C	0.690219	-0.227442	0.833621
C116	C	0.638270	-0.175444	0.833613
C117	C	0.679285	-0.186413	0.882990
C118	C	0.649201	-0.216455	0.701210
C119	C	0.649245	-0.216384	1.015390
H120	H	-0.094243	-0.268722	0.443991
N121	N	0.707302	-0.954954	0.454123
N122	N	0.735934	-0.928763	0.428039
H123	H	0.756648	-0.911809	0.462329
H124	H	0.701221	-0.472546	0.444170
H125	H	0.628993	-0.140801	0.811906
H126	H	0.262326	-0.135511	0.224545
N127	N	0.172363	-0.129549	0.214733
N128	N	0.177635	-0.088100	0.219804
H129	H	0.160724	-0.067333	0.185611
N130	N	0.591202	-0.955144	0.261911
N131	N	0.549748	-0.960425	0.266768
H132	H	0.529020	-0.943542	0.232465
N133	N	0.707321	-1.049810	0.454149
N134	N	0.707325	-1.091701	0.454144
H135	H	0.728039	-1.108603	0.488443
H136	H	-0.179366	-0.268723	0.444005
N137	N	0.564780	-0.193790	0.910197
N138	N	0.531674	-0.217630	0.894356
H139	H	0.500973	-0.209408	0.913568
N140	N	0.671798	-0.300888	0.910200
N141	N	0.679764	-0.332023	0.865767
H142	H	0.687974	-0.362725	0.884978
H143	H	0.478151	-0.268685	0.443869
H144	H	0.393023	-0.164287	0.271889
H145	H	0.597020	-0.387592	0.271602
N146	N	0.562404	-0.598591	0.214287
N147	N	0.562396	-0.556700	0.214276
H148	H	0.541681	-0.539805	0.179969
H149	H	0.724879	-0.236770	0.812025
N150	N	0.711189	-0.154574	0.910021
N151	N	0.751736	-0.158698	0.894050
H152	H	0.774270	-0.136213	0.913141
N153	N	0.172372	-0.303440	0.501165
N154	N	0.177603	-0.344888	0.496095
H155	H	0.160695	-0.365657	0.530294
H156	H	0.036466	-0.297473	0.491372
H157	H	0.393043	-0.268686	0.443903
H158	H	-0.094257	-0.164317	0.271988
N159	N	-0.184235	-0.158366	0.262191
N160	N	-0.226126	-0.158368	0.262200
H161	H	-0.243053	-0.137609	0.228014
N162	N	0.587359	-0.278299	0.806392
N163	N	0.591462	-0.318865	0.822229
H164	H	0.568987	-0.341372	0.803017
H165	H	0.478147	-0.164287	0.271871
N166	N	0.267187	-0.303430	0.501150
N167	N	0.246231	-0.329113	0.543470
H168	H	0.263145	-0.349873	0.577672
H169	H	0.568393	-0.744210	0.224170
N170	N	0.591248	-1.049975	0.261910
N171	N	0.594256	-1.044759	0.193387
H172	H	0.573551	-1.061711	0.159078
N173	N	0.126441	-0.303437	0.501182
N174	N	0.105485	-0.329122	0.543499
H175	H	0.122399	-0.349884	0.577697
H176	H	0.568369	-0.688561	0.224154
H177	H	0.036462	-0.135538	0.224576
N178	N	0.591105	-0.477580	0.261741
N179	N	0.565478	-0.456667	0.219270
H180	H	0.544781	-0.473615	0.184943
H181	H	0.121568	-0.135533	0.224560
H182	H	0.701205	-0.387436	0.444126
N183	N	0.735954	-0.739098	0.501637
N184	N	0.761590	-0.760017	0.544085
H185	H	0.782306	-0.743073	0.578387
H186	H	0.729968	-0.603215	0.491742
H187	H	0.729987	-0.688321	0.491770
H188	H	0.730019	-0.829081	0.491802
N189	N	0.562465	-0.834181	0.214333
N190	N	0.536828	-0.813264	0.171883
H191	H	0.516114	-0.830210	0.137581
