data_functionalizedCrystal
_audit_creation_method	'MofGen! by Chris Wilmer'
_symmetry_space_group_name_H-M	'P1'
_symmetry_Int_Tables_number	1
_symmetry_cell_setting	triclinic
loop_
_symmetry_equiv_pos_as_xyz
  x,y,z
_cell_length_a	6.817900
_cell_length_b	17.253917
_cell_length_c	11.452834
_cell_angle_alpha	86.240844
_cell_angle_beta	108.697278
_cell_angle_gamma	102.659311
loop_
_atom_site_label
_atom_site_type_symbol
_atom_site_fract_x
_atom_site_fract_y
_atom_site_fract_z
V1	V	-4.054190	-0.057173	-0.386601
O2	O	-4.039390	0.056793	-0.367490
O3	O	-4.007242	-0.165345	-0.395260
O4	O	-4.016965	-0.032579	-0.550055
O5	O	-4.029599	-0.076891	-0.211624
V6	V	-4.536181	-0.046344	-0.364300
O7	O	-4.318807	-0.080929	-0.435522
O8	O	-4.721761	-0.022588	-0.315379
O9	O	-4.359923	0.061828	-0.355641
O10	O	-4.668378	-0.160310	-0.383411
O11	O	-4.678169	-0.026626	-0.539277
O12	O	-4.350199	-0.070938	-0.200846
C13	C	-3.852234	-0.192455	-0.392078
C14	C	-3.895210	-0.280734	-0.400247
C15	C	-3.867428	-0.326311	-0.292712
C16	C	-3.907828	-0.409259	-0.300392
C17	C	-3.975996	-0.446627	-0.415608
C18	C	-4.003785	-0.401044	-0.523151
C19	C	-3.963399	-0.318098	-0.515471
C20	C	-4.101938	-0.694258	-0.450522
C21	C	-4.142317	-0.777210	-0.458194
C22	C	-4.046361	-0.785419	-0.235434
C23	C	-4.005967	-0.702471	-0.227763
C24	C	-4.033770	-0.656896	-0.335307
N25	N	-4.017287	-0.531412	-0.423460
N26	N	-3.992494	-0.572112	-0.327453
C27	C	-3.864637	-0.023099	-0.589532
C28	C	-3.915495	-0.003707	-0.723231
C29	C	-3.978588	-0.061775	-0.806354
C30	C	-4.031153	-0.041733	-0.944539
C31	C	-4.178272	0.088934	-0.358820
C32	C	-4.114535	0.177213	-0.350659
C33	C	-4.165870	-0.080421	-0.161363
C34	C	-4.094250	-0.099810	-0.027663
H35	H	-4.124554	-0.657160	-0.538091
Br36	Br	-4.001127	-0.256242	-0.661418
Br37	Br	-4.235000	-0.827927	-0.614575
Br38	Br	-3.774893	-0.275605	-0.136338
Br39	Br	-4.096320	-0.451757	-0.679519
H40	H	-3.900406	0.060844	-0.754368
H41	H	-4.109361	-0.164366	-0.996534
H42	H	-3.885208	-0.446365	-0.212825
Br43	Br	-3.913444	-0.651763	-0.071392
H44	H	-4.023733	-0.822536	-0.147878
Br45	Br	-4.003793	-0.169370	-0.754474
Br46	Br	-4.005996	0.065865	-0.996416
