data_functionalizedCrystal
_audit_creation_method	'MofGen! by Chris Wilmer'
_symmetry_space_group_name_H-M	'P1'
_symmetry_Int_Tables_number	1
_symmetry_cell_setting	triclinic
loop_
_symmetry_equiv_pos_as_xyz
  x,y,z
_cell_length_a	16.992694
_cell_length_b	19.188930
_cell_length_c	16.053802
_cell_angle_alpha	92.551696
_cell_angle_beta	87.249047
_cell_angle_gamma	86.906503
loop_
_atom_site_label
_atom_site_type_symbol
_atom_site_fract_x
_atom_site_fract_y
_atom_site_fract_z
O1	O	1.043197	0.145267	-0.069340
O2	O	1.376530	0.478600	0.263993
O3	O	1.709863	0.811934	0.597327
O4	O	0.814918	0.143642	-0.069364
O5	O	1.148252	0.476976	0.263969
O6	O	1.481585	0.810309	0.597302
O7	O	0.935644	0.043185	-0.069335
O8	O	1.268978	0.376519	0.263998
O9	O	1.602311	0.709852	0.597331
O10	O	0.922471	0.245724	-0.069369
O11	O	1.255804	0.579057	0.263964
O12	O	1.589137	0.912391	0.597297
O13	O	0.928999	0.048690	0.069522
O14	O	1.262333	0.382024	0.402855
O15	O	1.595666	0.715357	0.736189
O16	O	0.808273	0.149147	0.069493
O17	O	1.141607	0.482481	0.402826
O18	O	1.474940	0.815814	0.736159
O19	O	1.036552	0.150772	0.069517
O20	O	1.369885	0.484106	0.402851
O21	O	1.703218	0.817439	0.736184
Zn22	Zn	0.921357	0.150834	0.091552
Zn23	Zn	1.254691	0.484167	0.424885
Zn24	Zn	1.588024	0.817501	0.758218
Zn25	Zn	0.930113	0.143581	-0.091399
Zn26	Zn	1.263446	0.476914	0.241934
Zn27	Zn	1.596779	0.810247	0.575268
O28	O	0.915826	0.251229	0.069488
O29	O	1.249159	0.584563	0.402821
O30	O	1.582492	0.917896	0.736155
C31	C	0.782390	0.144306	0.000061
C32	C	1.115724	0.477639	0.333395
C33	C	1.449057	0.810972	0.666728
C34	C	0.695368	0.138072	0.000053
C35	C	1.028701	0.471406	0.333386
C36	C	1.362035	0.804739	0.666719
C37	C	0.644922	0.198212	0.000043
C38	C	0.978255	0.531545	0.333377
C39	C	1.311588	0.864878	0.666710
C40	C	0.563155	0.192351	0.000056
C41	C	0.896488	0.525685	0.333389
C42	C	1.229821	0.859018	0.666722
C43	C	0.531836	0.126351	0.000072
C44	C	0.865169	0.459684	0.333405
C45	C	1.198502	0.793018	0.666738
C46	C	0.582288	0.066208	0.000084
C47	C	0.915622	0.399541	0.333417
C48	C	1.248955	0.732874	0.666750
C49	C	0.664054	0.072069	0.000077
C50	C	0.997387	0.405402	0.333410
C51	C	1.330720	0.738735	0.666744
C52	C	0.288320	0.102059	0.000098
C53	C	0.621653	0.435393	0.333431
C54	C	0.954987	0.768726	0.666765
C55	C	0.206548	0.096203	0.000102
C56	C	0.539882	0.429536	0.333435
C57	C	0.873215	0.762869	0.666769
C58	C	0.187420	0.222347	0.000076
C59	C	0.520754	0.555680	0.333409
C60	C	0.854087	0.889014	0.666742
C61	C	0.269188	0.228202	0.000064
C62	C	0.602522	0.561536	0.333398
C63	C	0.935855	0.894869	0.666731
C64	C	0.319633	0.168059	0.000081
C65	C	0.652967	0.501392	0.333414
C66	C	0.986300	0.834725	0.666747
N67	N	0.448257	0.120359	0.000082
N68	N	0.781590	0.453693	0.333415
N69	N	1.114924	0.787026	0.666749
N70	N	0.403210	0.174051	0.000076
N71	N	0.736544	0.507385	0.333410
N72	N	1.069877	0.840718	0.666743
C73	C	0.931895	0.019902	0.000096
C74	C	1.265228	0.353235	0.333429
C75	C	1.598562	0.686569	0.666762
C76	C	0.930614	-0.057677	0.000103
C77	C	1.263947	0.275656	0.333436
C78	C	1.597281	0.608989	0.666769
C79	C	1.001452	-0.098456	0.000114
C80	C	1.334786	0.234878	0.333448
C81	C	1.668119	0.568211	0.666781
C82	C	1.000250	-0.171350	0.000101
C83	C	1.333583	0.161983	0.333434
C84	C	1.666916	0.495316	0.666768
C85	C	0.928204	-0.203463	0.000093
C86	C	1.261537	0.129870	0.333426
C87	C	1.594870	0.463204	0.666759
C88	C	0.857356	-0.162676	0.000076
C89	C	1.190690	0.170658	0.333410
C90	C	1.524023	0.503991	0.666743
C91	C	0.858561	-0.089783	0.000081
C92	C	1.191895	0.243550	0.333415
C93	C	1.525228	0.576884	0.666748
N94	N	0.870872	-0.312817	0.047342
N95	N	1.204205	0.020516	0.380676
N96	N	1.537539	0.353849	0.714009
N97	N	0.869732	-0.382063	0.047339
N98	N	1.203065	-0.048729	0.380673
N99	N	1.536399	0.284604	0.714006
C100	C	0.924569	-0.423085	0.000075
C101	C	1.257902	-0.089752	0.333409
C102	C	1.591236	0.243581	0.666742
N103	N	0.980600	-0.392247	-0.047175
N104	N	1.313934	-0.058913	0.286158
N105	N	1.647267	0.274420	0.619492
N106	N	0.981742	-0.322995	-0.047168
N107	N	1.315076	0.010339	0.286165
N108	N	1.648409	0.343672	0.619498
C109	C	0.926889	-0.282503	0.000086
C110	C	1.260223	0.050831	0.333420
C111	C	1.593556	0.384164	0.666753
C112	C	0.994108	-0.542905	0.000071
C113	C	1.327442	-0.209571	0.333404
C114	C	1.660775	0.123762	0.666738
C115	C	0.992903	-0.615801	0.000052
C116	C	1.326236	-0.282467	0.333386
C117	C	1.659569	0.050866	0.666719
C118	C	0.850007	-0.607124	0.000036
C119	C	1.183340	-0.273791	0.333369
C120	C	1.516674	0.059542	0.666703
C121	C	0.851215	-0.534230	0.000046
C122	C	1.184548	-0.200897	0.333380
C123	C	1.517881	0.132437	0.666713
C124	C	0.923267	-0.502125	0.000068
C125	C	1.256601	-0.168791	0.333401
C126	C	1.589934	0.164542	0.666734
C127	C	1.069080	0.150109	0.000090
C128	C	1.402413	0.483442	0.333423
C129	C	1.735746	0.816775	0.666756
C130	C	1.156102	0.156342	0.000093
C131	C	1.489436	0.489675	0.333426
C132	C	1.822769	0.823008	0.666759
C133	C	0.919575	0.274513	0.000055
C134	C	1.252908	0.607846	0.333388
C135	C	1.586242	0.941179	0.666722
C136	C	0.920856	0.352091	0.000043
C137	C	1.254190	0.685425	0.333376
C138	C	1.587523	1.018758	0.666709
N139	N	0.915388	0.155784	0.216410
N140	N	1.248721	0.489117	0.549744
N141	N	1.582055	0.822451	0.883077
N142	N	0.936088	0.138625	-0.216258
N143	N	1.269421	0.471959	0.117076
N144	N	1.602755	0.805292	0.450409
C145	C	0.966776	0.113057	0.260117
C146	C	1.300109	0.446390	0.593450
C147	C	1.633442	0.779723	0.926784
C148	C	0.962607	0.116526	0.347523
C149	C	1.295941	0.449860	0.680856
C150	C	1.629274	0.783193	1.014189
C151	C	0.907054	0.162727	0.391220
C152	C	1.240388	0.496061	0.724554
C153	C	1.573721	0.829394	1.057887
C154	C	0.855661	0.205456	0.347508
C155	C	1.188995	0.538790	0.680841
C156	C	1.522328	0.872123	1.014175
C157	C	0.859826	0.201983	0.260104
C158	C	1.193160	0.535316	0.593437
C159	C	1.526493	0.868649	0.926770
C160	C	0.888860	0.177881	0.652626
C161	C	1.222193	0.511214	0.985959
C162	C	1.555527	0.844547	1.319292
C163	C	0.884700	0.181353	0.740036
C164	C	1.218034	0.514686	1.073369
C165	C	1.551367	0.848019	1.406703
C166	C	0.991646	0.092421	0.740045
C167	C	1.324979	0.425755	1.073378
C168	C	1.658313	0.759088	1.406711
C169	C	0.995810	0.088955	0.652639
C170	C	1.329143	0.422288	0.985972
C171	C	1.662476	0.755621	1.319305
C172	C	0.944414	0.131681	0.608934
C173	C	1.277747	0.465014	0.942267
C174	C	1.611080	0.798348	1.275601
N175	N	0.902794	0.166276	0.480563
N176	N	1.236127	0.499610	0.813896
N177	N	1.569461	0.832943	1.147230
N178	N	0.948671	0.128128	0.519593
N179	N	1.282004	0.461461	0.852926
N180	N	1.615338	0.794795	1.186259
H181	H	0.294682	0.281946	0.000042
H182	H	0.628015	0.615279	0.333375
H183	H	0.961349	0.948613	0.666708
N184	N	0.833441	0.223968	0.605486
N185	N	1.166775	0.557301	0.938819
N186	N	1.500108	0.890635	1.272152
H187	H	0.800551	0.193898	0.569236
H188	H	1.133885	0.527231	0.902569
H189	H	1.467218	0.860564	1.235903
H190	H	0.797670	0.253761	0.646480
H191	H	1.131003	0.587094	0.979813
H192	H	1.464336	0.920427	1.313146
H193	H	1.052778	-0.516763	0.000085
H194	H	1.386111	-0.183430	0.333418
H195	H	1.719445	0.149904	0.666751
N196	N	0.774811	-0.490239	0.000051
N197	N	1.108144	-0.156906	0.333384
N198	N	1.441478	0.176428	0.666718
H199	H	0.774588	-0.461834	-0.051421
H200	H	1.107921	-0.128501	0.281912
H201	H	1.441255	0.204833	0.615246
H202	H	0.729027	-0.521685	0.000077
H203	H	1.062361	-0.188351	0.333410
H204	H	1.395694	0.144982	0.666744
H205	H	1.060123	-0.072320	0.000129
H206	H	1.393457	0.261013	0.333462
H207	H	1.726790	0.594347	0.666796
N208	N	0.779646	-0.197302	0.000069
N209	N	1.112979	0.136032	0.333402
N210	N	1.446312	0.469365	0.666735
H211	H	0.778424	-0.229387	-0.051406
H212	H	1.111757	0.103947	0.281927
H213	H	1.445090	0.437280	0.615260
H214	H	0.773540	-0.225278	0.051577
H215	H	1.106873	0.108056	0.384910
H216	H	1.440207	0.441389	0.718243
N217	N	1.069311	-0.659787	0.000061
N218	N	1.402644	-0.326454	0.333395
N219	N	1.735978	0.006879	0.666728
H220	H	1.115135	-0.628384	0.000078
H221	H	1.448468	-0.295051	0.333412
H222	H	1.781802	0.038282	0.666745
H223	H	1.069453	-0.688189	0.051535
H224	H	1.402786	-0.354855	0.384868
H225	H	1.736120	-0.021522	0.718201
N226	N	0.342722	0.037194	0.000121
N227	N	0.676055	0.370527	0.333455
N228	N	1.009389	0.703860	0.666788
H229	H	0.310472	-0.005505	0.000131
H230	H	0.643805	0.327829	0.333464
H231	H	0.977139	0.661162	0.666798
H232	H	0.379524	0.034830	-0.051353
H233	H	0.712858	0.368164	0.281980
H234	H	1.046191	0.701497	0.615313
H235	H	0.556782	0.012469	0.000109
H236	H	0.890115	0.345802	0.333442
H237	H	1.223448	0.679136	0.666775
H238	H	0.705127	0.023097	0.000084
H239	H	1.038460	0.356430	0.333418
H240	H	1.371794	0.689763	0.666751
N241	N	1.076656	-0.215345	0.000112
N242	N	1.409990	0.117989	0.333445
N243	N	1.743323	0.451322	0.666778
H244	H	1.122483	-0.183945	0.000124
H245	H	1.455816	0.149388	0.333458
H246	H	1.789150	0.482722	0.666791
H247	H	1.076797	-0.243743	0.051587
H248	H	1.410131	0.089590	0.384921
H249	H	1.743464	0.422923	0.718254
N250	N	0.782154	-0.045795	0.000068
N251	N	1.115488	0.287538	0.333402
N252	N	1.448821	0.620871	0.666735
H253	H	0.736329	-0.077197	0.000058
H254	H	1.069662	0.256137	0.333391
H255	H	1.402996	0.589470	0.666725
H256	H	0.777078	-0.013332	0.051548
H257	H	1.110411	0.320001	0.384881
H258	H	1.443745	0.653335	0.718215
H259	H	0.791346	-0.633270	0.000025
H260	H	1.124679	-0.299937	0.333359
H261	H	1.458013	0.033397	0.666692
N262	N	0.172758	0.025017	0.000136
N263	N	0.506091	0.358351	0.333469
N264	N	0.839424	0.691684	0.666802
H265	H	0.141715	0.017730	-0.051335
H266	H	0.475049	0.351063	0.281998
H267	H	0.808382	0.684397	0.615331
H268	H	0.217157	-0.012154	0.000181
H269	H	0.550491	0.321179	0.333515
H270	H	0.883824	0.654512	0.666848
N271	N	1.026699	0.063229	0.212989
N272	N	1.360032	0.396563	0.546322
N273	N	1.693365	0.729896	0.879655
H274	H	1.058619	0.036688	0.253943
H275	H	1.391952	0.370021	0.587276
H276	H	1.725285	0.703355	0.920609
H277	H	0.998524	0.029237	0.176737
H278	H	1.331858	0.362570	0.510070
H279	H	1.665191	0.695904	0.843404
N280	N	1.047072	0.046334	0.787181
N281	N	1.380405	0.379667	1.120514
N282	N	1.713739	0.713001	1.453848
H283	H	1.103405	0.056903	0.771959
H284	H	1.436738	0.390237	1.105292
H285	H	1.770072	0.723570	1.438625
H286	H	1.035939	0.055564	0.849167
H287	H	1.369272	0.388897	1.182500
H288	H	1.702605	0.722230	1.515833
N289	N	0.795746	0.255287	0.394643
N290	N	1.129080	0.588620	0.727976
N291	N	1.462413	0.921954	1.061309
H292	H	0.805326	0.304735	0.379413
H293	H	1.138659	0.638068	0.712747
H294	H	1.471993	0.971401	1.046080
H295	H	0.740888	0.243450	0.379428
H296	H	1.074221	0.576783	0.712761
H297	H	1.407554	0.910117	1.046095
H298	H	1.004451	0.081734	0.383108
H299	H	1.337784	0.415067	0.716441
H300	H	1.671117	0.748400	1.049775
N301	N	0.824786	0.231186	0.787179
N302	N	1.158119	0.564519	1.120513
N303	N	1.491452	0.897852	1.453846
H304	H	0.834363	0.280634	0.771951
H305	H	1.167697	0.613967	1.105284
H306	H	1.501030	0.947301	1.438618
H307	H	0.769924	0.219350	0.771973
H308	H	1.103257	0.552684	1.105307
H309	H	1.436591	0.886017	1.438640
H310	H	0.670415	0.251956	0.000030
H311	H	1.003748	0.585289	0.333363
H312	H	1.337081	0.918623	0.666696
H313	H	1.041045	0.051334	0.617062
H314	H	1.374378	0.384668	0.950395
H315	H	1.707712	0.718001	1.283728
N316	N	0.804396	0.248066	0.212965
N317	N	1.137729	0.581399	0.546298
N318	N	1.471063	0.914733	0.879632
H319	H	0.812524	0.298724	0.228156
H320	H	1.145858	0.632057	0.561490
H321	H	1.479191	0.965391	0.894823
H322	H	0.815488	0.238796	0.150979
H323	H	1.148821	0.572129	0.484313
H324	H	1.482155	0.905463	0.817646
N325	N	0.508739	0.257219	0.000140
N326	N	0.842073	0.590552	0.333473
N327	N	1.175406	0.923886	0.666807
H328	H	0.540986	0.299920	0.000154
H329	H	0.874319	0.633253	0.333488
H330	H	1.207652	0.966586	0.666821
H331	H	0.476806	0.255544	-0.051302
H332	H	0.810140	0.588877	0.282031
H333	H	1.143473	0.922211	0.615365
N334	N	0.133013	0.287213	0.000060
N335	N	0.466346	0.620546	0.333393
N336	N	0.799680	0.953880	0.666726
H337	H	0.076462	0.273488	0.000067
H338	H	0.409796	0.606822	0.333400
H339	H	0.743129	0.940155	0.666733
H340	H	0.140674	0.317820	0.051530
H341	H	0.474007	0.651153	0.384863
H342	H	0.807340	0.984487	0.718197
