data_functionalizedCrystal
_audit_creation_method	'MofGen! by Chris Wilmer'
_symmetry_space_group_name_H-M	'P1'
_symmetry_Int_Tables_number	1
_symmetry_cell_setting	triclinic
loop_
_symmetry_equiv_pos_as_xyz
  x,y,z
_cell_length_a	14.853569
_cell_length_b	14.853559
_cell_length_c	13.930277
_cell_angle_alpha	89.997639
_cell_angle_beta	89.994756
_cell_angle_gamma	83.633509
loop_
_atom_site_label
_atom_site_type_symbol
_atom_site_fract_x
_atom_site_fract_y
_atom_site_fract_z
O1	O	1.196364	0.117711	-0.079782
O2	O	0.933904	0.131731	-0.079793
O3	O	1.072149	-0.006510	-0.079786
O4	O	1.058119	0.255951	-0.079789
O5	O	1.072130	-0.006513	0.079876
O6	O	0.933885	0.131728	0.079869
O7	O	1.196345	0.117708	0.079880
Zn8	Zn	1.065112	0.124717	0.105224
Zn9	Zn	1.065137	0.124721	-0.105137
O10	O	1.058100	0.255948	0.079873
C11	C	0.900306	0.131094	0.000036
C12	C	0.800222	0.129189	0.000032
C13	C	0.763848	0.046178	0.000029
C14	C	0.742554	0.210411	0.000039
C15	C	0.648520	0.208625	0.000040
C16	C	0.612146	0.125614	0.000037
C17	C	0.669806	0.044389	0.000033
C18	C	0.590853	0.289848	0.000053
C19	C	0.496812	0.288065	0.000055
C20	C	0.460437	0.205053	0.000046
C21	C	0.518103	0.123825	0.000041
C22	C	0.481729	0.040813	0.000039
C23	C	0.539394	-0.040416	0.000027
C24	C	0.633430	-0.038623	0.000024
C25	C	0.366401	0.203260	0.000049
C26	C	0.387687	0.039024	0.000042
C27	C	1.071505	-0.040100	0.000043
C28	C	1.069604	-0.140184	0.000037
C29	C	1.061551	-0.563358	-0.086995
C30	C	1.061530	-0.563355	0.087075
C31	C	1.063323	-0.469322	0.087076
C32	C	1.064229	-0.422302	0.000040
C33	C	1.063342	-0.469315	-0.086997
C34	C	1.064202	-0.422301	0.174111
C35	C	1.065994	-0.328262	0.174115
C36	C	1.066906	-0.281241	0.087078
C37	C	1.066020	-0.328260	0.000038
C38	C	1.066926	-0.281240	-0.086997
C39	C	1.066046	-0.328258	-0.174039
C40	C	1.064254	-0.422294	-0.174033
C41	C	1.068698	-0.187204	0.087073
C42	C	1.068717	-0.187197	-0.086999
C43	C	1.229943	0.118345	0.000048
C44	C	1.330027	0.120249	0.000046
C45	C	1.058744	0.289538	0.000042
C46	C	1.060645	0.389622	0.000041
N47	N	1.065101	0.124714	0.248790
N48	N	1.065155	0.124717	-0.248703
C49	C	1.003920	0.185910	0.701056
C50	C	1.126379	0.063525	0.701032
C51	C	1.126368	0.063523	0.600536
C52	C	1.065133	0.124715	0.550296
C53	C	1.003909	0.185911	0.600551
C54	C	1.187597	0.002334	0.550273
C55	C	1.187590	0.002330	0.449771
C56	C	1.126350	0.063519	0.399529
C57	C	1.065123	0.124716	0.449791
C58	C	1.003888	0.185909	0.399551
C59	C	0.942655	0.247102	0.449810
C60	C	0.942669	0.247100	0.550309
C61	C	1.126336	0.063521	0.299030
C62	C	1.003877	0.185909	0.299046
H63	H	0.772176	0.277995	0.000047
O64	O	1.185721	0.003972	0.250240
C65	C	1.171000	-0.085311	0.274810
H66	H	1.098832	-0.085904	0.302463
H67	H	1.181310	-0.130526	0.208709
H68	H	1.220955	-0.111700	0.333125
O69	O	1.069417	-0.141607	0.171670
C70	C	0.990934	-0.154449	0.224587
H71	H	0.963636	-0.219359	0.199842
H72	H	1.008391	-0.159929	0.304214
H73	H	0.937312	-0.094445	0.212497
H74	H	0.358079	-0.028574	0.000035
H75	H	0.954063	0.235731	0.741980
O76	O	0.689316	-0.117606	-0.000026
C77	C	0.637051	-0.191260	-0.000007
H78	H	0.566897	-0.168463	-0.030232
H79	H	0.671673	-0.248169	-0.046366
H80	H	0.630319	-0.216707	0.076589
H81	H	1.060786	-0.601644	0.157935
H82	H	0.319454	0.269396	0.000067
H83	H	1.063459	-0.460591	0.244970
H84	H	1.066777	-0.289961	-0.244903
O85	O	1.066898	-0.282739	0.258748
C86	C	1.065692	-0.344403	0.335566
H87	H	1.092927	-0.415135	0.310049
H88	H	1.109945	-0.322911	0.396435
H89	H	0.993230	-0.345027	0.362331
H90	H	0.954009	0.235737	0.258146
H91	H	1.069458	-0.148921	-0.157875
O92	O	0.440763	0.366941	0.000225
C93	C	0.385703	0.370810	0.082899
H94	H	0.420075	0.324751	0.140699
H95	H	0.375216	0.443417	0.110652
H96	H	0.317297	0.347392	0.064199
H97	H	0.620476	0.357431	0.000061
H98	H	1.063537	-0.460585	-0.244897
H99	H	0.892801	0.296930	0.408893
O100	O	1.060526	-0.609054	-0.171511
C101	C	0.981484	-0.653352	-0.176694
H102	H	0.927492	-0.617936	-0.127307
H103	H	0.955278	-0.651034	-0.253670
H104	H	0.997764	-0.726905	-0.153299
H105	H	0.509766	-0.108003	0.000019
O106	O	0.883162	0.306418	0.599240
C107	C	0.827486	0.258032	0.657375
H108	H	0.863310	0.187549	0.672420
H109	H	0.813286	0.295633	0.728051
H110	H	0.760843	0.251788	0.618667
O111	O	1.185774	0.004122	0.749980
C112	C	1.172673	0.017262	0.849460
H113	H	1.101042	0.050828	0.863200
H114	H	1.182627	-0.050993	0.887661
H115	H	1.223756	0.062575	0.877962
O116	O	0.819986	-0.032641	0.000062
C117	C	0.910787	-0.013269	0.000029
H118	H	0.914486	0.057544	0.030260
H119	H	0.953323	-0.065039	0.046376
H120	H	0.937976	-0.016649	-0.076572
O121	O	1.246947	-0.057192	0.599126
C122	C	1.198596	-0.112879	0.657283
H123	H	1.127503	-0.114534	0.626996
H124	H	1.235291	-0.184471	0.658434
H125	H	1.193897	-0.084665	0.733446
O126	O	1.247096	-0.057203	0.401102
C127	C	1.301161	-0.111195	0.466998
H128	H	1.264210	-0.112276	0.538648
H129	H	1.314824	-0.183170	0.437966
H130	H	1.368167	-0.081799	0.477664
