data_functionalizedCrystal
_audit_creation_method	'MofGen! by Chris Wilmer'
_symmetry_space_group_name_H-M	'P1'
_symmetry_Int_Tables_number	1
_symmetry_cell_setting	triclinic
loop_
_symmetry_equiv_pos_as_xyz
  x,y,z
_cell_length_a	16.992695
_cell_length_b	16.974897
_cell_length_c	15.455446
_cell_angle_alpha	90.984929
_cell_angle_beta	92.856195
_cell_angle_gamma	87.027201
loop_
_atom_site_label
_atom_site_type_symbol
_atom_site_fract_x
_atom_site_fract_y
_atom_site_fract_z
O1	O	0.106917	1.048908	0.145682
O2	O	0.606917	1.548908	0.645682
O3	O	0.118870	0.820228	0.129648
O4	O	0.618870	1.320228	0.629648
O5	O	-0.001252	0.933652	0.137594
O6	O	0.498748	1.433652	0.637594
O7	O	0.227038	0.935485	0.137736
O8	O	0.727038	1.435485	0.637736
O9	O	-0.008096	0.940101	-0.006213
O10	O	0.491904	1.440101	0.493787
O11	O	0.112025	0.826677	-0.014159
O12	O	0.612025	1.326677	0.485841
O13	O	0.100072	1.055357	0.001875
O14	O	0.600072	1.555357	0.501875
Cu15	Cu	0.105424	0.941606	-0.019273
Cu16	Cu	0.605424	1.441606	0.480727
Cu17	Cu	0.113518	0.933979	0.150796
Cu18	Cu	0.613518	1.433979	0.650796
O19	O	0.220194	0.941933	-0.006071
O20	O	0.720194	1.441933	0.493929
C21	C	0.114864	0.794056	0.055684
C22	C	0.614864	1.294056	0.555684
C23	C	0.113115	0.706465	0.049542
C24	C	0.613115	1.206465	0.549542
C25	C	0.116026	0.661792	0.125040
C26	C	0.616026	1.161792	0.625040
C27	C	0.114394	0.579490	0.119256
C28	C	0.614394	1.079490	0.619256
C29	C	0.109846	0.541862	0.037974
C30	C	0.609846	1.041862	0.537974
C31	C	0.106938	0.586541	-0.037529
C32	C	0.606938	1.086541	0.462471
C33	C	0.108575	0.668841	-0.031745
C34	C	0.608575	1.168841	0.468255
C35	C	0.104556	0.296099	0.012270
C36	C	0.604556	0.796099	0.512270
C37	C	0.102917	0.213793	0.006491
C38	C	0.602917	0.713793	0.506491
C39	C	0.110375	0.206747	0.163277
C40	C	0.610375	0.706747	0.663277
C41	C	0.112007	0.289049	0.169054
C42	C	0.612007	0.789049	0.669054
C43	C	0.109102	0.333721	0.093551
C44	C	0.609102	0.833721	0.593551
N45	N	0.108176	0.457737	0.032061
N46	N	0.608176	0.957737	0.532061
N47	N	0.110778	0.417844	0.099465
N48	N	0.610778	0.917844	0.599465
C49	C	-0.033892	0.934517	0.065525
C50	C	0.466108	1.434517	0.565525
C51	C	-0.120953	0.927480	0.065032
C52	C	0.379047	1.427480	0.565032
C53	C	-0.171036	0.995381	0.069792
C54	C	0.328964	1.495381	0.569792
C55	C	-0.252838	0.988764	0.069336
C56	C	0.247162	1.488764	0.569336
C57	C	-0.284554	0.914245	0.064114
C58	C	0.215446	1.414245	0.564114
C59	C	-0.234464	0.846339	0.059357
C60	C	0.265536	1.346339	0.559357
C61	C	-0.152664	0.852956	0.059819
C62	C	0.347336	1.352956	0.559819
C63	C	-0.528215	0.886816	0.062203
C64	C	-0.028215	1.386816	0.562203
C65	C	-0.610021	0.880204	0.061739
C66	C	-0.110021	1.380204	0.561739
C67	C	-0.628390	1.022629	0.071720
C68	C	-0.128390	1.522629	0.571720
C69	C	-0.546587	1.029241	0.072176
C70	C	-0.046587	1.529241	0.572176
C71	C	-0.496504	0.961334	0.067423
C72	C	0.003496	1.461334	0.567423
N73	N	-0.368168	0.907479	0.063646
N74	N	0.131832	1.407479	0.563646
N75	N	-0.412891	0.968101	0.067898
N76	N	0.087109	1.468101	0.567898
C77	C	0.252834	0.941067	0.066000
C78	C	0.752834	1.441067	0.566000
C79	C	0.339895	0.948105	0.066499
C80	C	0.839895	1.448105	0.566499
C81	C	0.104078	1.081529	0.075841
C82	C	0.604078	1.581529	0.575841
C83	C	0.105827	1.169120	0.081989
C84	C	0.605827	1.669120	0.581989
N85	N	0.099730	0.946976	-0.138890
N86	N	0.599730	1.446976	0.361110
C87	C	0.068194	0.976812	-0.680794
C88	C	0.568194	1.476812	-0.180794
C89	C	0.072509	0.972734	-0.590273
C90	C	0.572509	1.472734	-0.090273
C91	C	0.127833	0.920454	-0.548548
C92	C	0.627833	1.420454	-0.048548
C93	C	0.178851	0.872255	-0.597348
C94	C	0.678851	1.372255	-0.097348
C95	C	0.174538	0.876338	-0.687866
C96	C	0.674538	1.376338	-0.187866
C97	C	0.146435	0.902860	-0.278208
C98	C	0.646435	1.402860	0.221792
C99	C	0.150742	0.898779	-0.187683
C100	C	0.650742	1.398779	0.312317
C101	C	0.044401	0.999259	-0.180615
C102	C	0.544401	1.499259	0.319385
C103	C	0.040090	1.003334	-0.271135
C104	C	0.540090	1.503334	0.228865
C105	C	0.091110	0.955138	-0.319927
C106	C	0.591110	1.455138	0.180073
N107	N	0.132244	0.916282	-0.456022
N108	N	0.632244	1.416282	0.043978
N109	N	0.086703	0.959314	-0.412451
N110	N	0.586703	1.459314	0.087549
N111	N	0.119206	0.928615	0.270413
N112	N	0.619206	1.428615	0.770413
H113	H	0.116765	0.543120	0.180735
H114	H	0.616765	1.043120	0.680735
N115	N	0.105439	0.717023	-0.113177
N116	N	0.605439	1.217023	0.386823
H117	H	0.054956	0.707570	-0.148228
H118	H	0.554956	1.207570	0.351772
H119	H	0.107203	0.774850	-0.097111
H120	H	0.607203	1.274850	0.402889
N121	N	0.008526	1.033203	-0.725796
N122	N	0.508526	1.533203	-0.225796
H123	H	-0.046412	1.019923	-0.710929
H124	H	0.453588	1.519923	-0.210929
H125	H	0.018550	1.088972	-0.706042
H126	H	0.518550	1.588972	-0.206042
H127	H	-0.669176	1.077915	0.075591
H128	H	-0.169176	1.577915	0.575591
N129	N	-0.019559	1.059755	-0.316119
N130	N	0.480441	1.559755	0.183881
H131	H	-0.074503	1.046495	-0.301256
H132	H	0.425497	1.546495	0.198744
H133	H	-0.009508	1.115512	-0.296343
H134	H	0.490492	1.615512	0.203657
H135	H	0.112741	0.170367	0.224747
H136	H	0.612741	0.670367	0.724747
H137	H	-0.145220	1.056063	0.074039
H138	H	0.354780	1.556063	0.574039
N139	N	0.098008	0.173212	-0.081184
N140	N	0.598008	0.673212	0.418816
H141	H	0.095874	0.214038	-0.128130
H142	H	0.595874	0.714038	0.371870
H143	H	0.145999	0.136291	-0.087459
H144	H	0.645999	0.636291	0.412541
N145	N	-0.010625	1.051227	-0.127978
N146	N	0.489375	1.551227	0.372022
H147	H	0.021231	1.086312	-0.087826
H148	H	0.521231	1.586312	0.412174
H149	H	-0.046322	1.084916	-0.168196
H150	H	0.453678	1.584916	0.331804
N151	N	-0.644232	0.799826	0.056108
N152	N	-0.144232	1.299826	0.556108
H153	H	-0.600093	0.757811	0.053169
H154	H	-0.100093	1.257811	0.553169
H155	H	-0.675234	0.791596	0.109009
H156	H	-0.175234	1.291596	0.609009
H157	H	0.195796	0.856203	-0.153715
H158	H	0.695796	1.356203	0.346285
N159	N	0.120936	0.702369	0.212710
N160	N	0.620936	1.202369	0.712710
H161	H	0.121530	0.761285	0.204922
H162	H	0.621530	1.261285	0.704922
H163	H	0.073710	0.689768	0.246162
H164	H	0.573710	1.189768	0.746162
H165	H	0.102185	0.332461	-0.049211
H166	H	0.602185	0.832461	0.450789
H167	H	0.187976	0.863615	-0.317927
H168	H	0.687976	1.363615	0.182073
N169	N	0.238525	0.815870	-0.552349
N170	N	0.738525	1.315870	-0.052349
H171	H	0.233516	0.820593	-0.487602
H172	H	0.733516	1.320593	0.012398
H173	H	0.228545	0.760104	-0.572152
H174	H	0.728545	1.260104	-0.072152
H175	H	0.216079	0.837092	-0.727593
H176	H	0.716079	1.337092	-0.227593
N177	N	0.102036	0.545957	-0.125196
N178	N	0.602036	1.045957	0.374804
H179	H	0.053171	0.514441	-0.130414
H180	H	0.553171	1.014441	0.369586
H181	H	0.099407	0.586856	-0.172085
H182	H	0.599407	1.086856	0.327915
N183	N	0.116901	0.329632	0.256722
N184	N	0.616901	0.829632	0.756722
H185	H	0.118495	0.288843	0.303674
H186	H	0.618495	0.788843	0.803674
H187	H	0.166309	0.360305	0.262314
H188	H	0.666309	0.860305	0.762314
H189	H	-0.487446	0.831522	0.058333
H190	H	0.012554	1.331522	0.558333
H191	H	-0.293614	1.044056	0.073210
H192	H	0.206386	1.544056	0.573210
N193	N	-0.512381	1.109615	0.077803
N194	N	-0.012381	1.609615	0.577803
H195	H	-0.556522	1.151628	0.080749
H196	H	-0.056522	1.651628	0.580749
H197	H	-0.476299	1.113075	0.131522
H198	H	0.023701	1.613075	0.631522
H199	H	0.030972	1.011980	-0.550546
H200	H	0.530972	1.511980	-0.050546
H201	H	-0.260293	0.785663	0.055110
H202	H	0.239707	1.285663	0.555110
H203	H	-0.111885	0.797664	0.055943
H204	H	0.388115	1.297664	0.555943
