data_functionalizedCrystal
_audit_creation_method	'MofGen! by Chris Wilmer'
_symmetry_space_group_name_H-M	'P1'
_symmetry_Int_Tables_number	1
_symmetry_cell_setting	triclinic
loop_
_symmetry_equiv_pos_as_xyz
  x,y,z
_cell_length_a	17.019383
_cell_length_b	17.019294
_cell_length_c	16.098538
_cell_angle_alpha	88.846036
_cell_angle_beta	83.394151
_cell_angle_gamma	83.133350
loop_
_atom_site_label
_atom_site_type_symbol
_atom_site_fract_x
_atom_site_fract_y
_atom_site_fract_z
O1	O	1.054286	0.092839	-0.151449
O2	O	0.823816	0.106434	-0.135913
O3	O	0.945061	-0.014807	-0.135901
O4	O	0.933041	0.214080	-0.151462
O5	O	0.937978	-0.007752	0.002614
O6	O	0.816733	0.113488	0.002601
O7	O	1.047203	0.099894	-0.012935
Zn8	Zn	0.930844	0.107811	0.016825
Zn9	Zn	0.940175	0.098516	-0.165673
O10	O	0.925958	0.221134	-0.012948
C11	C	0.790777	0.109582	-0.064516
C12	C	0.702884	0.108445	-0.058138
C13	C	0.665445	0.104068	-0.130639
C14	C	0.582858	0.103012	-0.124635
C15	C	0.537712	0.106329	-0.046127
C16	C	0.575156	0.110709	0.026379
C17	C	0.657741	0.111770	0.020374
C18	C	0.288165	0.103323	-0.024217
C19	C	0.205575	0.102260	-0.018217
C20	C	0.213282	0.094564	-0.169231
C21	C	0.295868	0.095621	-0.175230
C22	C	0.333305	0.100005	-0.102723
C23	C	0.453295	0.105248	-0.039988
C24	C	0.417720	0.101092	-0.108864
C25	C	0.940924	-0.040559	-0.064502
C26	C	0.939141	-0.127803	-0.058120
C27	C	0.942165	-0.172631	-0.130625
C28	C	0.940484	-0.254605	-0.124625
C29	C	0.935784	-0.291750	-0.046120
C30	C	0.932757	-0.246915	0.026391
C31	C	0.934432	-0.164942	0.020391
C32	C	0.930527	-0.539063	-0.024226
C33	C	0.928854	-0.621042	-0.018231
C34	C	0.936580	-0.628726	-0.169248
C35	C	0.938260	-0.546752	-0.175241
C36	C	0.935229	-0.501924	-0.102730
C37	C	0.934068	-0.375540	-0.039985
C38	C	0.936939	-0.418134	-0.108865
C39	C	1.080242	0.096745	-0.084334
C40	C	1.168135	0.097882	-0.090718
C41	C	0.930095	0.246886	-0.084349
C42	C	0.931879	0.334130	-0.090736
N43	N	0.924481	0.114154	0.141375
N44	N	0.946545	0.092167	-0.290223
C45	C	0.975961	0.062713	0.184963
C46	C	0.971517	0.067157	0.272151
C47	C	0.915597	0.123048	0.315750
C48	C	0.864111	0.174491	0.272156
C49	C	0.868552	0.170042	0.184970
C50	C	0.899499	0.139162	0.578997
C51	C	0.895064	0.143608	0.666189
C52	C	1.002470	0.036273	0.666178
C53	C	1.006909	0.031832	0.578990
C54	C	0.955420	0.083273	0.535404
C55	C	0.911055	0.127594	0.404870
C56	C	0.959959	0.078723	0.446286
H57	H	0.332622	0.092914	-0.239158
C58	C	0.947335	-0.131779	-0.216982
H59	H	0.948888	-0.170219	-0.259302
H60	H	0.994272	-0.106170	-0.225323
H61	H	0.902018	-0.093752	-0.219601
C62	C	0.715102	0.100419	-0.216996
H63	H	0.769650	0.101671	-0.210191
H64	H	0.697232	0.144498	-0.249900
H65	H	0.709065	0.052827	-0.244169
H66	H	0.552378	0.099448	-0.183673
H67	H	0.865525	0.173102	0.440375
H68	H	0.168816	0.104983	0.045715
H69	H	0.925023	-0.651282	0.045701
H70	H	0.928074	-0.502575	0.034817
H71	H	0.182791	0.090996	-0.228262
C72	C	0.942110	-0.377281	-0.195218
H73	H	0.943669	-0.415716	-0.237545
H74	H	0.989047	-0.351670	-0.203548
H75	H	0.896793	-0.339254	-0.197837
H76	H	1.005487	0.033214	0.410786
C77	C	0.329334	0.108155	0.055536
H78	H	0.290617	0.109974	0.103150
H79	H	0.355466	0.154566	0.053461
H80	H	0.367312	0.062897	0.059209
C81	C	0.939904	-0.678036	-0.249002
H82	H	0.938226	-0.732176	-0.234188
H83	H	0.987887	-0.672392	-0.283872
H84	H	0.895633	-0.659968	-0.278144
C85	C	0.525502	0.114326	0.112737
H86	H	0.470958	0.113049	0.105933
H87	H	0.531525	0.161903	0.139937
H88	H	0.543388	0.070230	0.145618
C89	C	1.059094	-0.020313	0.714125
H90	H	1.048438	-0.009666	0.772295
H91	H	1.112681	-0.012729	0.695440
H92	H	1.051084	-0.073463	0.704230
H93	H	0.688222	0.115338	0.079412
C94	C	0.802601	0.235970	0.320112
H95	H	0.807335	0.231259	0.378279
H96	H	0.750470	0.226926	0.310223
H97	H	0.812064	0.287662	0.301424
C98	C	0.928902	-0.416400	0.046368
H99	H	0.927337	-0.377963	0.088695
H100	H	0.974210	-0.454431	0.048985
H101	H	0.881956	-0.442003	0.054702
H102	H	1.052444	-0.013678	0.543494
C103	C	0.833507	0.205048	0.714152
H104	H	0.803461	0.235031	0.675710
H105	H	0.860293	0.239403	0.743790
H106	H	0.798769	0.178596	0.752540
H107	H	0.454481	0.098396	-0.172785
H108	H	1.013436	0.025270	0.307640
H109	H	0.416528	0.107946	0.023933
C110	C	1.037473	0.001232	0.137012
H111	H	1.067490	-0.028772	0.175463
H112	H	1.072233	0.027631	0.098603
H113	H	1.010638	-0.033106	0.107400
H114	H	0.942950	-0.291101	-0.183667
C115	C	0.842871	0.195751	0.531062
H116	H	0.808939	0.229679	0.569516
H117	H	0.811574	0.165883	0.501447
H118	H	0.873168	0.226619	0.492655
H119	H	0.826630	0.211930	0.149481
H120	H	0.942088	-0.516514	-0.239169
H121	H	0.928925	-0.277164	0.090312
H122	H	0.931958	-0.128442	0.079433
