data_functionalizedCrystal
_audit_creation_method	'MofGen! by Chris Wilmer'
_symmetry_space_group_name_H-M	'P1'
_symmetry_Int_Tables_number	1
_symmetry_cell_setting	triclinic
loop_
_symmetry_equiv_pos_as_xyz
  x,y,z
_cell_length_a	16.992694
_cell_length_b	15.995350
_cell_length_c	15.455313
_cell_angle_alpha	92.667328
_cell_angle_beta	87.142206
_cell_angle_gamma	87.080299
loop_
_atom_site_label
_atom_site_type_symbol
_atom_site_fract_x
_atom_site_fract_y
_atom_site_fract_z
O1	O	1.043823	0.174116	-0.072015
O2	O	1.543823	0.674116	0.427985
O3	O	0.815539	0.172167	-0.072041
O4	O	1.315539	0.672167	0.427959
O5	O	0.935921	0.051671	-0.072026
O6	O	1.435921	0.551671	0.427974
O7	O	0.923440	0.294611	-0.072029
O8	O	1.423440	0.794611	0.427971
O9	O	0.929037	0.058531	0.072235
O10	O	1.429037	0.558531	0.572235
O11	O	0.808655	0.179027	0.072221
O12	O	1.308655	0.679027	0.572221
O13	O	1.036939	0.180976	0.072246
O14	O	1.536939	0.680976	0.572246
Cu15	Cu	0.922168	0.180628	0.085406
Cu16	Cu	1.422168	0.680628	0.585406
Cu17	Cu	0.930309	0.172515	-0.085200
Cu18	Cu	1.430309	0.672515	0.414800
O19	O	0.916556	0.301471	0.072232
O20	O	1.416556	0.801471	0.572232
C21	C	0.782884	0.173091	0.000087
C22	C	1.282884	0.673091	0.500087
C23	C	0.695840	0.165614	0.000077
C24	C	1.195840	0.665614	0.500077
C25	C	0.645600	0.237750	0.000077
C26	C	1.145600	0.737750	0.500077
C27	C	0.563813	0.230720	0.000089
C28	C	1.063813	0.730720	0.500089
C29	C	0.532268	0.151555	0.000095
C30	C	1.032268	0.651555	0.500095
C31	C	0.582515	0.079414	0.000098
C32	C	1.082515	0.579414	0.500098
C33	C	0.664300	0.086445	0.000092
C34	C	1.164300	0.586445	0.500092
C35	C	0.288669	0.122418	0.000118
C36	C	0.788669	0.622418	0.500118
C37	C	0.206878	0.115393	0.000122
C38	C	0.706878	0.615393	0.500122
C39	C	0.188181	0.266700	0.000114
C40	C	0.688181	0.766700	0.500114
C41	C	0.269969	0.273723	0.000103
C42	C	0.769969	0.773723	0.500103
C43	C	0.320208	0.201582	0.000111
C44	C	0.820208	0.701582	0.500111
N45	N	0.448669	0.144368	0.000104
N46	N	0.948669	0.644368	0.500104
N47	N	0.403806	0.208770	0.000107
N48	N	0.903806	0.708770	0.500107
C49	C	0.931963	0.023872	0.000103
C50	C	1.431963	0.523872	0.500103
C51	C	0.930416	-0.069182	0.000098
C52	C	1.430416	0.430818	0.500098
C53	C	0.924861	-0.407301	0.000100
C54	C	1.424861	0.092699	0.500100
C55	C	0.839142	-0.365620	-0.000233
C56	C	1.339142	0.134380	0.499767
C57	C	0.840674	-0.268811	0.000092
C58	C	1.340674	0.231189	0.500092
C59	C	0.927617	-0.239556	0.000098
C60	C	1.427617	0.260444	0.500098
C61	C	0.965973	-0.273887	0.082482
C62	C	1.465973	0.226113	0.582482
C63	C	0.963816	-0.370663	0.082550
C64	C	1.463816	0.129337	0.582550
C65	C	0.973415	-0.378704	-0.081501
C66	C	1.473415	0.121296	0.418499
C67	C	0.973447	-0.281812	-0.082590
C68	C	1.473447	0.218188	0.417410
C69	C	0.929178	-0.144754	0.000100
C70	C	1.429178	0.355246	0.500100
C71	C	0.923301	-0.502103	0.000104
C72	C	1.423301	-0.002103	0.500104
C73	C	1.069593	0.180052	0.000117
C74	C	1.569593	0.680052	0.500117
C75	C	1.156637	0.187528	0.000121
C76	C	1.656637	0.687528	0.500121
C77	C	0.920514	0.329271	0.000101
C78	C	1.420514	0.829271	0.500101
C79	C	0.922061	0.422324	0.000101
C80	C	1.422061	0.922324	0.500101
N81	N	0.916448	0.186334	0.205401
N82	N	1.416448	0.686334	0.705401
N83	N	0.936036	0.166802	-0.205195
N84	N	1.436036	0.666802	0.294805
C85	C	0.967608	0.135164	0.250801
C86	C	1.467608	0.635164	0.750801
C87	C	0.963289	0.139488	0.341608
C88	C	1.463289	0.639488	0.841608
C89	C	0.907813	0.194986	0.387014
C90	C	1.407813	0.694986	0.887014
C91	C	0.856647	0.246157	0.341607
C92	C	1.356647	0.746157	0.841607
C93	C	0.860963	0.241829	0.250801
C94	C	1.360963	0.741829	0.750801
C95	C	0.889185	0.213646	0.658593
C96	C	1.389185	0.713646	1.158593
C97	C	0.884875	0.217972	0.749405
C98	C	1.384875	0.717972	1.249405
C99	C	0.991517	0.111301	0.749400
C100	C	1.491517	0.611301	1.249400
C101	C	0.995831	0.106981	0.658592
C102	C	1.495831	0.606981	1.158592
C103	C	0.944662	0.158150	0.613194
C104	C	1.444662	0.658150	1.113194
N105	N	0.903399	0.199408	0.479833
N106	N	1.403399	0.699408	0.979833
N107	N	0.949073	0.153722	0.520376
N108	N	1.449073	0.653722	1.020376
H109	H	0.810251	-0.245421	-0.058964
H110	H	1.310251	0.254579	0.441036
N111	N	0.940233	-0.412324	-0.164214
N112	N	1.440233	0.087676	0.335786
H113	H	0.972254	-0.393226	-0.215747
H114	H	1.472254	0.106774	0.284253
H115	H	0.942639	-0.475585	-0.165287
H116	H	1.442639	0.024415	0.334713
N117	N	0.718487	0.008639	0.000097
N118	N	1.218487	0.508639	0.500097
H119	H	0.710889	-0.028205	-0.053378
H120	H	1.210889	0.471795	0.446622
H121	H	0.775060	0.025172	0.000129
H122	H	1.275060	0.525172	0.500129
H123	H	0.807694	-0.389254	-0.059312
H124	H	1.307694	0.110746	0.440688
N125	N	1.018489	0.084307	0.390562
N126	N	1.518489	0.584307	0.890562
H127	H	0.986758	0.046991	0.428248
H128	H	1.486758	0.546991	0.928248
H129	H	1.054275	0.048561	0.347951
H130	H	1.554275	0.548561	0.847951
H131	H	0.671277	0.302214	0.000071
H132	H	1.171277	0.802214	0.500071
N133	N	0.342840	0.044606	0.000127
N134	N	0.842840	0.544606	0.500127
H135	H	0.335237	0.007766	-0.053349
H136	H	0.835237	0.507766	0.446651
H137	H	0.399417	0.061128	0.000160
H138	H	0.899417	0.561128	0.500160
N139	N	0.923200	-0.235052	0.163695
N140	N	1.423200	0.264948	0.663695
H141	H	0.961310	-0.203332	0.199152
H142	H	1.461310	0.296668	0.699152
H143	H	0.878974	-0.195254	0.147246
H144	H	1.378974	0.304746	0.647246
N145	N	0.790233	-0.390890	0.077575
N146	N	1.290233	0.109110	0.577575
H147	H	0.823361	-0.429220	0.113039
H148	H	1.323361	0.070780	0.613039
H149	H	0.771384	-0.339178	0.114294
H150	H	1.271384	0.160822	0.614294
N151	N	0.303987	0.359110	0.000112
N152	N	0.803987	0.859110	0.500112
H153	H	0.363422	0.352617	0.000109
H154	H	0.863422	0.852617	0.500109
H155	H	0.288154	0.388378	-0.053365
H156	H	0.788154	0.888378	0.446635
H157	H	1.033175	0.069641	0.786372
H158	H	1.533175	0.569641	1.286372
H159	H	0.522910	0.289461	0.000087
H160	H	1.022910	0.789461	0.500087
N161	N	0.936399	-0.252241	-0.163326
N162	N	1.436399	0.247759	0.336674
H163	H	0.890122	-0.211639	-0.146419
H164	H	1.390122	0.288361	0.353581
H165	H	0.976748	-0.223397	-0.199881
H166	H	1.476748	0.276603	0.300119
N167	N	1.046954	-0.407560	0.087531
N168	N	1.546954	0.092440	0.587531
H169	H	1.050719	-0.440444	0.141532
H170	H	1.550719	0.059556	0.641532
H171	H	1.060959	-0.445969	0.034692
H172	H	1.560959	0.054031	0.534692
N173	N	0.792618	-0.231128	0.078444
N174	N	1.292618	0.268872	0.578444
H175	H	0.736390	-0.248371	0.075906
H176	H	1.236390	0.251629	0.575906
H177	H	0.815918	-0.251771	0.132904
H178	H	1.315918	0.248229	0.632904
H179	H	1.041003	0.061791	0.621625
H180	H	1.541003	0.561791	1.121625
N181	N	0.172842	0.030008	0.000131
N182	N	0.672842	0.530008	0.500131
H183	H	0.193705	-0.004394	-0.053343
H184	H	0.693705	0.495606	0.446657
H185	H	0.188617	0.000771	0.053648
H186	H	0.688617	0.500771	0.553648
N187	N	1.027430	0.075288	0.201834
N188	N	1.527430	0.575288	0.701834
H189	H	1.022401	0.080306	0.137419
H190	H	1.522401	0.580306	0.637419
H191	H	1.082302	0.089460	0.217691
H192	H	1.582302	0.589460	0.717691
H193	H	1.036653	-0.406261	-0.082051
H194	H	1.536653	0.093739	0.417949
N195	N	0.805782	0.297023	0.201837
N196	N	1.305782	0.797023	0.701837
H197	H	0.837529	0.334324	0.164150
H198	H	1.337529	0.834324	0.664150
H199	H	0.772868	0.260828	0.164224
H200	H	1.272868	0.760828	0.664224
N201	N	0.919079	-0.393769	0.164115
N202	N	1.419079	0.106231	0.664115
H203	H	0.900942	-0.341117	0.199686
H204	H	1.400942	0.158883	0.699686
H205	H	0.871719	-0.425705	0.148078
H206	H	1.371719	0.074295	0.648078
H207	H	0.811474	0.291342	0.378581
H208	H	1.311474	0.791342	0.878581
H209	H	0.839698	0.263168	0.786370
H210	H	1.339698	0.763168	1.286370
H211	H	0.147268	0.325432	0.000110
H212	H	0.647268	0.825432	0.500110
N213	N	0.548496	-0.005972	0.000118
N214	N	1.048496	0.494028	0.500118
H215	H	0.489061	0.000518	0.000121
H216	H	0.989061	0.500518	0.500121
H217	H	0.569418	-0.040329	-0.053358
H218	H	1.069418	0.459671	0.446642
N219	N	1.050398	-0.249355	0.086537
N220	N	1.550398	0.250645	0.586537
H221	H	1.064626	-0.215666	0.034888
H222	H	1.564626	0.284334	0.534888
H223	H	1.056492	-0.214497	0.141743
H224	H	1.556492	0.285503	0.641743
N225	N	1.057747	-0.256165	-0.089180
N226	N	1.557747	0.243835	0.410820
H227	H	1.067468	-0.216616	-0.038428
H228	H	1.567468	0.283384	0.461572
H229	H	1.094698	-0.307594	-0.088469
H230	H	1.594698	0.192406	0.411531
H231	H	0.847523	0.255311	0.621636
H232	H	1.347523	0.755311	1.121636
