data_functionalizedCrystal
_audit_creation_method	'MofGen! by Chris Wilmer'
_symmetry_space_group_name_H-M	'P1'
_symmetry_Int_Tables_number	1
_symmetry_cell_setting	triclinic
loop_
_symmetry_equiv_pos_as_xyz
  x,y,z
_cell_length_a	15.995350
_cell_length_b	9.130313
_cell_length_c	10.654550
_cell_angle_alpha	89.999890
_cell_angle_beta	83.988639
_cell_angle_gamma	90.003412
loop_
_atom_site_label
_atom_site_type_symbol
_atom_site_fract_x
_atom_site_fract_y
_atom_site_fract_z
O1	O	1.111921	-0.121671	0.161867
O2	O	0.868262	-0.121701	0.181857
O3	O	0.995693	-0.121680	-0.010950
O4	O	0.984489	-0.121692	0.354674
O5	O	0.995692	0.121919	-0.010945
O6	O	0.868260	0.121898	0.181862
O7	O	1.111919	0.121927	0.161873
Cu8	Cu	0.990089	0.144155	0.171868
Cu9	Cu	0.990091	-0.143929	0.171862
O10	O	0.984487	0.121906	0.354680
C11	C	0.837061	0.000095	0.181033
C12	C	0.744096	0.000083	0.178555
N13	N	0.990094	0.346778	0.171871
N14	N	0.990093	-0.346551	0.171848
C15	C	0.406297	0.000114	0.169658
C16	C	0.452934	0.000662	0.032344
C17	C	0.549639	0.000103	0.034822
C18	C	0.573883	0.000100	0.174071
C19	C	0.533190	-0.139004	0.241796
C20	C	0.436535	-0.139110	0.238347
C21	C	0.436210	0.137907	0.241190
C22	C	0.533156	0.139736	0.241157
C23	C	0.668595	0.000086	0.176573
C24	C	0.311585	0.000117	0.167161
C25	C	1.143119	0.000129	0.162696
C26	C	1.236084	0.000130	0.165174
C27	C	0.994870	0.000117	-0.057735
C28	C	0.992409	0.000112	-0.197146
C29	C	1.046536	0.423439	0.086525
C30	C	1.046533	0.576776	0.086510
C31	C	0.933646	0.576777	0.257198
C32	C	0.933644	0.423443	0.257206
C33	C	1.102985	0.346774	0.001190
C34	C	1.159432	0.423436	-0.084162
C35	C	1.159430	0.576772	-0.084177
C36	C	1.102981	0.653448	0.001160
C37	C	1.067438	0.000126	-0.277612
C38	C	1.065121	0.000115	-0.408603
C39	C	0.912737	0.000084	-0.378648
C40	C	0.915055	0.000084	-0.247660
C41	C	1.144792	0.000154	-0.227098
C42	C	1.219828	0.000169	-0.307565
C43	C	1.217510	0.000159	-0.438555
C44	C	1.140156	0.000133	-0.489079
C45	C	0.985311	0.000106	0.401464
C46	C	0.987772	0.000101	0.540875
H47	H	0.577758	0.099818	-0.018413
H48	H	0.549110	0.148136	0.342702
H49	H	0.887684	0.361024	0.326702
H50	H	0.415414	0.243344	0.196301
H51	H	0.853959	0.000074	-0.182142
H52	H	1.282806	0.000154	-0.266420
H53	H	0.405037	0.138846	0.342430
H54	H	0.547909	-0.144178	0.344099
H55	H	1.205385	0.639189	-0.153682
H56	H	0.561292	-0.242525	0.194753
H57	H	0.560185	0.242644	0.191718
H58	H	1.102978	0.778305	0.001132
H59	H	1.102994	0.221920	0.001197
H60	H	0.887688	0.639216	0.326678
H61	H	0.849759	0.000065	-0.419796
H62	H	1.138275	0.000109	-0.595741
H63	H	1.146687	0.000167	-0.120440
H64	H	1.278608	0.000156	-0.504069
H65	H	0.433024	-0.098541	-0.022293
H66	H	0.434092	0.100419	-0.022541
H67	H	0.417940	-0.243091	0.188954
H68	H	0.577186	-0.099783	-0.018777
H69	H	0.404872	-0.145425	0.339160
H70	H	1.205386	0.360999	-0.153648
