data_functionalizedCrystal
_audit_creation_method	'MofGen! by Chris Wilmer'
_symmetry_space_group_name_H-M	'P1'
_symmetry_Int_Tables_number	1
_symmetry_cell_setting	triclinic
loop_
_symmetry_equiv_pos_as_xyz
  x,y,z
_cell_length_a	16.120530
_cell_length_b	12.594516
_cell_length_c	16.120297
_cell_angle_alpha	92.877768
_cell_angle_beta	90.128140
_cell_angle_gamma	87.111852
loop_
_atom_site_label
_atom_site_type_symbol
_atom_site_fract_x
_atom_site_fract_y
_atom_site_fract_z
Zn1	Zn	1.247493	-0.539249	-0.534603
Zn2	Zn	1.254461	-0.708692	-0.395557
Zn3	Zn	1.115482	-0.521263	-0.388519
Zn4	Zn	1.108417	-0.707712	-0.527526
O5	O	1.181463	-0.619229	-0.461551
O6	O	1.364785	-0.569664	-0.522065
O7	O	1.241897	-0.676712	-0.278258
O8	O	1.133034	-0.374707	-0.407914
O9	O	1.369904	-0.694153	-0.419909
O10	O	1.230022	-0.387921	-0.515241
O11	O	1.139790	-0.539009	-0.273087
O12	O	0.998178	-0.538058	-0.401052
O13	O	1.120993	-0.692482	-0.644831
O14	O	0.992987	-0.675042	-0.503180
O15	O	1.223172	-0.568713	-0.650030
O16	O	1.235047	-0.857504	-0.413047
O17	O	1.127749	-0.856784	-0.510004
C18	C	0.965410	-0.604493	-0.450585
C19	C	0.872980	-0.598215	-0.445913
C20	C	0.703749	-0.586730	-0.437391
C21	C	0.660015	-0.651810	-0.485772
C22	C	0.565849	-0.645420	-0.481031
C23	C	0.797924	-0.593119	-0.442132
C24	C	1.181409	-0.895766	-0.461540
C25	C	1.181461	-1.014076	-0.461567
C26	C	1.123098	-1.082974	-0.514263
C27	C	1.106686	-1.147787	-0.437359
C28	C	1.197948	-1.160068	-0.538488
C29	C	1.165010	-1.077326	-0.384621
C30	C	1.256305	-1.089606	-0.485803
C31	C	1.239924	-1.154387	-0.408848
C32	C	1.398360	-0.634024	-0.472561
C33	C	1.490789	-0.640328	-0.477253
C34	C	1.170517	-0.632495	-0.678446
C35	C	1.165853	-0.638148	-0.770874
C36	C	1.181539	-0.341615	-0.461582
C37	C	1.181572	-0.223313	-0.461595
C38	C	1.157306	-0.648443	-0.940100
C39	C	1.205784	-0.589708	-0.983863
C40	C	1.201029	-0.595436	-1.078026
C41	C	1.162061	-0.642716	-0.845928
C42	C	1.192414	-0.605942	-0.245502
C43	C	1.197240	-0.600000	-0.153083
H44	H	0.693293	-0.712326	-0.530755
H45	H	0.670473	-0.526218	-0.392412
O46	O	1.214685	-1.203144	-0.616062
C47	C	1.311759	-1.220961	-0.729961
C48	C	1.292927	-1.172138	-0.642101
H49	H	1.375010	-1.195893	-0.751047
H50	H	1.312312	-1.311454	-0.729138
H51	H	1.261858	-1.191620	-0.774769
H52	H	1.342807	-1.201396	-0.597243
H53	H	1.292344	-1.081650	-0.642990
O54	O	1.259474	-0.524426	-0.944242
C55	C	1.301256	-0.344543	-0.919583
C56	C	1.240388	-0.418346	-0.964486
H57	H	1.285859	-0.258765	-0.935948
H58	H	1.295566	-0.351364	-0.849595
H59	H	1.367453	-0.368884	-0.940011
H60	H	1.174165	-0.394054	-0.944127
H61	H	1.246151	-0.411516	-1.034467
H62	H	1.112236	-0.703026	-0.973349
O63	O	1.064064	-1.045735	-0.567347
C64	C	0.955461	-1.089500	-0.664228
C65	C	1.022273	-1.131815	-0.604130
H66	H	0.921667	-1.159075	-0.693997
H67	H	0.909058	-1.033252	-0.628557
H68	H	0.986243	-1.044839	-0.714669
H69	H	0.991564	-1.176524	-0.553676
H70	H	1.068669	-1.188008	-0.639859
O71	O	1.031297	-1.178714	-0.412892
C72	C	0.947124	-1.325587	-0.384874
C73	C	1.032548	-1.290714	-0.412567
H74	H	0.948102	-1.416142	-0.384619
H75	H	0.932612	-1.290237	-0.319721
H76	H	0.897394	-1.296191	-0.429840
H77	H	1.082334	-1.320100	-0.367660
H78	H	1.046989	-1.326052	-0.477738
O79	O	1.148195	-1.034306	-0.307047
C80	C	1.056530	-0.918762	-0.221200
C81	C	1.075470	-0.967429	-0.309086
H82	H	0.997742	-0.864665	-0.222823
H83	H	1.047087	-0.985172	-0.177160
H84	H	1.110785	-0.870364	-0.198563
H85	H	1.021241	-1.015817	-0.331800
H86	H	1.084945	-0.900970	-0.353072
O87	O	1.298777	-1.191493	-0.355521
C88	C	1.347950	-1.190978	-0.214237
C89	C	1.281240	-1.148893	-0.274538
H90	H	1.333805	-1.156537	-0.148753
H91	H	1.347936	-1.281538	-0.214969
H92	H	1.411537	-1.165958	-0.234368
H93	H	1.217621	-1.173836	-0.254450
H94	H	1.281328	-1.058339	-0.273799
H95	H	1.319532	-1.063819	-0.506317
