data_functionalizedCrystal
_audit_creation_method	'MofGen! by Chris Wilmer'
_symmetry_space_group_name_H-M	'P1'
_symmetry_Int_Tables_number	1
_symmetry_cell_setting	triclinic
loop_
_symmetry_equiv_pos_as_xyz
  x,y,z
_cell_length_a	18.878441
_cell_length_b	21.606444
_cell_length_c	18.878441
_cell_angle_alpha	60.001279
_cell_angle_beta	90.000248
_cell_angle_gamma	59.999589
loop_
_atom_site_label
_atom_site_type_symbol
_atom_site_fract_x
_atom_site_fract_y
_atom_site_fract_z
Zr1	Zr	0.682368	0.677472	-0.092957
O2	O	0.569259	0.806590	-0.206056
O3	O	0.717043	0.548353	-0.058290
O4	O	0.717036	0.677476	-0.206066
O5	O	0.569271	0.677463	0.058292
O6	O	0.833604	0.677480	-0.206070
O7	O	0.569266	0.677467	-0.058280
O8	O	0.833617	0.446503	0.058274
O9	O	0.569258	0.908441	-0.206052
O10	O	0.818824	0.601464	-0.043504
O11	O	0.731834	0.601459	0.043496
O12	O	0.731825	0.753485	-0.130491
O13	O	0.644835	0.753479	-0.043492
Zr14	Zr	0.868287	0.677472	0.092955
Zr15	Zr	0.868280	0.677477	-0.092964
Zr16	Zr	0.682375	0.677466	0.092961
Zr17	Zr	0.682366	0.839912	-0.092951
Zr18	Zr	0.868289	0.515031	0.092949
O19	O	0.833612	0.806590	0.058288
O20	O	0.833602	0.806598	-0.206065
O21	O	0.569269	0.806582	0.058297
O22	O	0.981396	0.548353	0.206054
O23	O	0.981386	0.548362	-0.058299
O24	O	0.717053	0.548345	0.206063
O25	O	0.981385	0.677480	-0.058294
O26	O	0.833619	0.677467	0.206064
O27	O	0.717052	0.677463	0.206068
O28	O	0.981389	0.677476	0.058278
O29	O	0.717033	0.908445	-0.206057
O30	O	0.833622	0.446498	0.206055
O31	O	0.981398	0.446503	0.206050
O32	O	0.981392	0.446507	0.058269
O33	O	0.569263	0.908436	-0.058272
O34	O	0.717039	0.908441	-0.058277
O35	O	0.818830	0.601459	0.130489
O36	O	0.905820	0.601464	0.043490
O37	O	0.818822	0.753485	-0.043498
O38	O	0.731832	0.753479	0.043501
C39	C	0.775330	0.474284	-0.000009
C40	C	0.775331	0.405324	-0.000011
C41	C	0.542780	0.677464	0.000007
C42	C	0.463855	0.677462	0.000009
C43	C	0.472186	0.598110	0.045413
C44	C	0.398025	0.598113	0.045414
C45	C	0.315534	0.677469	0.000005
C46	C	0.307205	0.756827	-0.045400
C47	C	0.381365	0.756823	-0.045395
C48	C	0.152635	0.756829	-0.045409
C49	C	0.078469	0.756834	-0.045415
C50	C	0.169295	0.598119	0.045400
C51	C	0.243455	0.598115	0.045405
C52	C	0.235121	0.677474	-0.000002
C53	C	0.820737	0.372929	-0.045425
C54	C	0.820740	0.308129	-0.045419
C55	C	0.775332	0.275729	-0.000004
C56	C	0.729924	0.308127	0.045416
C57	C	0.729927	0.372921	0.045414
C58	C	0.729914	0.046817	0.045423
C59	C	0.729913	-0.017980	0.045418
C60	C	0.820727	-0.017975	-0.045411
C61	C	0.820730	0.046819	-0.045412
C62	C	0.775327	0.079208	0.000011
C63	C	0.775325	0.149470	0.000005
C64	C	0.775327	0.205472	-0.000003
C65	C	1.007876	0.677479	-0.000009
C66	C	1.086800	0.677481	-0.000012
C67	C	0.775319	0.677479	-0.232557
C68	C	0.775316	0.677481	-0.311485
C69	C	0.775325	0.880660	0.000006
C70	C	0.775324	0.949620	0.000009
C71	C	0.729904	0.756834	-0.393972
C72	C	0.729912	0.756831	-0.468129
C73	C	0.775328	0.677475	-0.459798
C74	C	0.820746	0.598116	-0.377302
C75	C	0.820742	0.598120	-0.303147
C76	C	0.820749	0.598114	-0.531870
C77	C	0.820752	0.598110	-0.606031
C78	C	0.729919	0.756824	-0.696852
C79	C	0.729915	0.756828	-0.622697
C80	C	0.775332	0.677470	-0.540206
C81	C	0.775337	0.677464	0.232555
C82	C	0.775340	0.677462	0.311482
C83	C	1.007878	0.474291	-0.000017
C84	C	1.086803	0.405333	-0.000022
C85	C	0.775339	0.474276	0.232547
C86	C	0.775343	0.405314	0.311472
C87	C	1.007887	0.474284	0.232540
C88	C	1.086815	0.405324	0.311462
C89	C	0.542769	0.880660	-0.232542
C90	C	0.463840	0.949620	-0.311464
C91	C	0.542777	0.880652	0.000014
C92	C	0.463852	0.949610	0.000020
C93	C	0.775316	0.880667	-0.232550
C94	C	0.775313	0.949630	-0.311475
C95	C	1.078456	0.372950	-0.045442
C96	C	1.152608	0.308166	-0.045464
C97	C	1.235106	0.275762	-0.000061
C98	C	1.243451	0.308151	0.045361
C99	C	1.169301	0.372939	0.045377
C100	C	0.820756	0.372928	0.393954
C101	C	0.820756	0.308140	0.468119
C102	C	0.775348	0.275733	0.459801
C103	C	0.729929	0.308125	0.377311
C104	C	0.729924	0.372917	0.303148
C105	C	1.169297	0.372942	0.303112
C106	C	1.243465	0.308156	0.377260
C107	C	1.235151	0.275748	0.459758
C108	C	1.152661	0.308136	0.468107
C109	C	1.078494	0.372925	0.393959
C110	C	0.381359	0.982009	-0.303114
C111	C	0.307190	1.046816	-0.377263
C112	C	0.315504	1.079227	-0.459760
C113	C	0.397994	1.046835	-0.468109
C114	C	0.472161	0.982034	-0.393961
C115	C	0.472199	0.982000	0.045432
C116	C	0.398047	1.046802	0.045434
C117	C	0.315549	1.079209	0.000028
C118	C	0.307204	1.046816	-0.045390
C119	C	0.381355	0.982019	-0.045396
C120	C	0.820730	0.982015	-0.303129
C121	C	0.820743	1.046804	-0.377280
C122	C	0.775334	1.079211	-0.459776
C123	C	0.729915	1.046819	-0.468120
C124	C	0.729907	0.982026	-0.393970
H125	H	0.539351	0.533489	0.082394
H126	H	1.176109	0.399297	0.082369
H127	H	1.145904	0.281739	0.535286
O128	O	0.218225	1.081731	-0.368249
H129	H	0.224911	1.048287	-0.298425
O130	O	0.235502	1.149119	-0.539728
H131	H	0.255133	1.166225	-0.598502
H132	H	0.404816	0.533496	0.082387
H133	H	0.857733	0.399306	0.400743
O134	O	0.680911	0.842429	-0.402966
H135	H	0.688527	0.829104	-0.337545
H136	H	0.857745	0.281774	0.535279
O137	O	1.332427	0.273260	0.368239
H138	H	1.382610	0.222782	0.433653
O139	O	0.407057	1.081722	0.094434
H140	H	0.476882	1.048285	0.126019
O141	O	1.143599	0.273234	-0.094452
H142	H	1.107603	0.243703	-0.068192
H143	H	1.310631	0.281759	0.082326
H144	H	0.404754	1.073233	-0.535287
H145	H	0.692920	0.955665	-0.400777
H146	H	0.857732	0.533491	-0.599241
H147	H	0.539319	0.955663	-0.400770
O148	O	1.315082	0.205877	-0.000074
H149	H	1.295409	0.188801	-0.039280
O150	O	0.989535	0.407826	0.402978
H151	H	0.981993	0.437333	0.439001
H152	H	0.692934	-0.044358	0.082404
O153	O	0.869716	0.512534	-0.214173
H154	H	0.901291	0.457352	-0.220836
O155	O	0.561175	0.947067	0.094393
H156	H	0.554507	0.980496	0.125955
H157	H	0.255178	1.131970	0.000040
O158	O	0.372348	0.947078	-0.094370
H159	H	0.302522	0.980496	-0.125931
O160	O	0.218222	1.081771	-0.094363
H161	H	0.168070	1.132263	-0.086716
H162	H	0.857707	0.955640	-0.235963
H163	H	0.145841	0.821452	-0.082367
H164	H	0.692950	0.399298	0.082393
H165	H	0.857700	-0.044355	-0.082394
H166	H	1.295549	0.222992	0.520127
H167	H	0.692929	0.821447	-0.629486
H168	H	0.857727	1.073171	-0.370469
O169	O	0.869713	0.273198	-0.094409
H170	H	0.919916	0.201724	-0.048566
O171	O	0.775332	1.149105	-0.539751
H172	H	0.814536	1.166184	-0.520079
H173	H	0.692944	1.073214	-0.535298
H174	H	0.310622	0.533496	0.082372
H175	H	0.775359	0.222976	0.520197
O176	O	0.680943	0.842420	-0.785822
H177	H	0.630761	0.846211	-0.821787
O178	O	0.178294	0.512521	0.094383
H179	H	0.112869	0.525852	0.086763
H180	H	0.857734	0.533492	-0.464703
H181	H	0.857729	0.533503	-0.370524
O182	O	-0.010507	0.842421	-0.094378
H183	H	-0.003845	0.897604	-0.125938
O184	O	1.178281	0.407897	0.214139
H185	H	1.214304	0.353509	0.206591
H186	H	0.692959	0.281730	0.370551
H187	H	0.240034	0.821440	-0.082367
O188	O	0.680944	0.273185	0.094394
H189	H	0.611152	0.327583	0.068153
H190	H	0.692947	0.073177	0.082413
O191	O	0.680929	0.842417	-0.557100
H192	H	0.649338	0.897598	-0.550434
O193	O	0.372383	0.947057	-0.214138
H194	H	0.336388	1.001447	-0.206589
O195	O	0.372386	0.842409	-0.094371
H196	H	0.302566	0.897592	-0.125955
O197	O	0.869714	0.407873	-0.094409
H198	H	0.901294	0.374452	-0.125980
O199	O	0.869705	0.081767	-0.094395
H200	H	0.901286	0.048348	-0.125969
H201	H	1.011289	0.399333	-0.082425
H202	H	0.692947	0.399277	0.235990
