data_functionalizedCrystal
_audit_creation_method	'MofGen! by Chris Wilmer'
_symmetry_space_group_name_H-M	'P1'
_symmetry_Int_Tables_number	1
_symmetry_cell_setting	triclinic
loop_
_symmetry_equiv_pos_as_xyz
  x,y,z
_cell_length_a	14.908742
_cell_length_b	19.120786
_cell_length_c	14.908308
_cell_angle_alpha	89.316475
_cell_angle_beta	83.239341
_cell_angle_gamma	89.311488
loop_
_atom_site_label
_atom_site_type_symbol
_atom_site_fract_x
_atom_site_fract_y
_atom_site_fract_z
Zn1	Zn	1.335634	-0.358153	0.413190
Zn2	Zn	1.835634	0.141847	0.913190
Zn3	Zn	1.338534	-0.468693	0.256101
Zn4	Zn	1.838534	0.031307	0.756101
Zn5	Zn	1.193670	-0.345430	0.271258
Zn6	Zn	1.693670	0.154570	0.771258
Zn7	Zn	1.178508	-0.468654	0.416167
Zn8	Zn	1.678508	0.031346	0.916167
O9	O	1.261586	-0.410233	0.339179
O10	O	1.761586	0.089767	0.839179
O11	O	1.462403	-0.378158	0.384764
O12	O	1.962403	0.121842	0.884764
O13	O	1.326876	-0.447034	0.131725
O14	O	1.826876	0.052966	0.631725
O15	O	1.217633	-0.249287	0.295183
O16	O	1.717633	0.250713	0.795183
O17	O	1.464533	-0.459371	0.269351
O18	O	1.964533	0.040629	0.769351
O19	O	1.321934	-0.258634	0.399460
O20	O	1.821934	0.241366	0.899460
O21	O	1.220445	-0.356473	0.142860
O22	O	1.720445	0.143527	0.642860
O23	O	1.065274	-0.356435	0.298069
O24	O	1.565274	0.143565	0.798069
O25	O	1.191793	-0.459304	0.542159
O26	O	1.691793	0.040696	1.042159
O27	O	1.054135	-0.446967	0.404533
O28	O	1.554135	0.053033	0.904533
O29	O	1.307233	-0.378120	0.539972
O30	O	1.807233	0.121880	1.039972
O31	O	1.312174	-0.566519	0.272237
O32	O	1.812174	-0.066519	0.772237
O33	O	1.194604	-0.566490	0.389836
O34	O	1.694604	-0.066490	0.889836
C35	C	1.026935	-0.400316	0.353269
C36	C	1.526935	0.099684	0.853269
C37	C	0.926548	-0.396092	0.359317
C38	C	1.426548	0.103908	0.859317
C39	C	1.252082	-0.591873	0.329733
C40	C	1.752082	-0.091873	0.829733
C41	C	1.248096	-0.669584	0.325717
C42	C	1.748096	-0.169584	0.825717
C43	C	0.783935	-0.347937	0.428010
C44	C	1.283935	0.152063	0.928010
C45	C	0.878257	-0.351900	0.422332
C46	C	1.378257	0.148100	0.922332
C47	C	0.880509	-0.436324	0.301978
C48	C	1.380509	0.063676	0.801978
C49	C	0.786186	-0.432361	0.307656
C50	C	1.286186	0.067639	0.807656
C51	C	0.737902	-0.388165	0.370673
C52	C	1.237902	0.111835	0.870673
C53	C	0.643578	-0.384198	0.376346
C54	C	1.143578	0.115802	0.876346
C55	C	0.645831	-0.468625	0.255997
C56	C	1.145831	0.031375	0.755997
C57	C	0.740154	-0.472589	0.250319
C58	C	1.240154	0.027411	0.750319
C59	C	1.300482	-0.710900	0.378171
C60	C	1.800482	-0.210900	0.878171
C61	C	1.296734	-0.783918	0.374400
C62	C	1.796734	-0.283918	0.874400
C63	C	1.240604	-0.815619	0.318168
C64	C	1.740604	-0.315619	0.818168
C65	C	1.188212	-0.774298	0.265712
C66	C	1.688212	-0.274298	0.765712
C67	C	1.191956	-0.701281	0.269489
C68	C	1.691956	-0.201281	0.769489
C69	C	1.226580	-1.035841	0.304050
C70	C	1.726580	-0.535841	0.804050
C71	C	1.222842	-1.108863	0.300275
C72	C	1.722842	-0.608863	0.800275
C73	C	1.331363	-1.118478	0.408964
C74	C	1.831363	-0.618478	0.908964
C75	C	1.335106	-1.045460	0.412732
C76	C	1.835106	-0.545460	0.912732
C77	C	1.282711	-1.004145	0.360280
C78	C	1.782711	-0.504145	0.860280
C79	C	1.236773	-0.890255	0.314310
C80	C	1.736773	-0.390255	0.814310
C81	C	1.286537	-0.929511	0.364144
C82	C	1.786537	-0.429511	0.864144
C83	C	1.497154	-0.420188	0.325035
C84	C	1.997154	0.079812	0.825035
C85	C	1.597539	-0.424431	0.319007
C86	C	2.097539	0.075569	0.819007
C87	C	1.247498	-0.420127	0.574753
C88	C	1.747498	0.079873	1.074753
C89	C	1.241495	-0.424343	0.675140
C90	C	1.741495	0.075657	1.175140
C91	C	1.271152	-0.227885	0.348680
C92	C	1.771152	0.272115	0.848680
C93	C	1.275228	-0.150179	0.352729
C94	C	1.775228	0.349821	0.852729
C95	C	1.275675	-0.400329	0.104521
C96	C	1.775675	0.099671	0.604521
C97	C	1.281863	-0.395923	0.004134
C98	C	1.781863	0.104077	0.504134
C99	C	1.350419	-0.347712	0.861505
C100	C	1.850419	0.152288	1.361505
C101	C	1.344781	-0.351671	0.955828
C102	C	1.844781	0.148329	1.455828
C103	C	1.224577	-0.436217	0.958111
C104	C	1.724577	0.063783	1.458111
C105	C	1.230215	-0.432257	0.863788
C106	C	1.730215	0.067743	1.363788
C107	C	1.293139	-0.388004	0.815488
C108	C	1.793139	0.111996	1.315488
C109	C	1.298781	-0.384049	0.721163
C110	C	1.798781	0.115951	1.221163
C111	C	1.178573	-0.468590	0.723449
C112	C	1.678573	0.031410	1.223449
C113	C	1.172935	-0.472550	0.817772
C114	C	1.672935	0.027450	1.317772
H115	H	0.604267	-0.348208	0.427655
H116	H	1.104267	0.151792	0.927655
N117	N	1.176246	-0.924450	0.253651
N118	N	1.676246	-0.424450	0.753651
H119	H	1.194842	-0.909636	0.188944
H120	H	1.694842	-0.409636	0.688944
H121	H	1.111537	-0.909636	0.272224
H122	H	1.611537	-0.409636	0.772224
N123	N	1.387853	-1.163047	0.465545
N124	N	1.887853	-0.663047	0.965545
H125	H	1.370561	-1.152445	0.531566
H126	H	1.870561	-0.652445	1.031566
H127	H	1.453867	-1.152423	0.448287
H128	H	1.953867	-0.652423	0.948287
N129	N	1.353187	-0.828481	0.431024
N130	N	1.853187	-0.328481	0.931024
H131	H	1.389301	-0.797319	0.467230
H132	H	1.889301	-0.297319	0.967230
H133	H	1.395666	-0.859004	0.390259
H134	H	1.895666	-0.359004	0.890259
H135	H	0.779479	-0.508574	0.199014
H136	H	1.279479	-0.008574	0.699014
N137	N	0.932595	-0.483988	0.234014
N138	N	1.432595	0.016012	0.734014
H139	H	0.912750	-0.533853	0.246324
H140	H	1.412750	-0.033853	0.746324
H141	H	0.999316	-0.480334	0.239158
H142	H	1.499316	0.019666	0.739158
H143	H	0.608341	-0.501384	0.209311
H144	H	1.108341	-0.001384	0.709311
N145	N	0.731851	-0.300263	0.495964
N146	N	1.231851	0.199737	0.995964
H147	H	0.775326	-0.275376	0.531423
H148	H	1.275326	0.224624	1.031423
H149	H	0.688741	-0.328876	0.538576
H150	H	1.188741	0.171124	1.038576
N151	N	1.366649	-0.336325	0.669064
N152	N	1.866649	0.163675	1.169064
H153	H	1.402077	-0.311400	0.712532
H154	H	1.902077	0.188600	1.212532
H155	H	1.333919	-0.300778	0.633820
H156	H	1.833919	0.199222	1.133820
H157	H	1.177130	-1.134671	0.254484
H158	H	1.677130	-0.634671	0.754484
N159	N	1.135459	-0.656712	0.212915
N160	N	1.635459	-0.156712	0.712915
H161	H	1.069429	-0.667321	0.230105
H162	H	1.569429	-0.167321	0.730105
H163	H	1.152819	-0.667328	0.146910
H164	H	1.652819	-0.167328	0.646910
N165	N	0.927908	-0.308515	0.484177
N166	N	1.427908	0.191485	0.984177
H167	H	0.883005	-0.279918	0.524958
H168	H	1.383005	0.220082	1.024958
H169	H	0.970919	-0.276219	0.446812
H170	H	1.470919	0.223781	0.946812
N171	N	1.170080	-0.991286	0.247470
N172	N	1.670080	-0.491286	0.747470
H173	H	1.133962	-1.022450	0.211270
H174	H	1.633962	-0.522450	0.711270
H175	H	1.210934	-0.960779	0.205063
H176	H	1.710934	-0.460779	0.705063
H177	H	1.380811	-1.019651	0.458520
H178	H	1.880811	-0.519651	0.958520
H179	H	1.346193	-0.685094	0.423957
H180	H	1.846193	-0.185094	0.923957
H181	H	1.142506	-0.800115	0.219931
H182	H	1.642506	-0.300115	0.719931
H183	H	1.332235	-0.903698	0.409931
H184	H	1.832235	-0.403698	0.909931
H185	H	1.401659	-0.311683	0.822178
H186	H	1.901659	0.188317	1.322178
H187	H	1.391422	-0.318859	0.993291
H188	H	1.891422	0.181141	1.493291
H189	H	1.173347	-0.472245	0.997453
H190	H	1.673347	0.027755	1.497453
H191	H	1.121702	-0.508578	0.857111
H192	H	1.621702	-0.008578	1.357111
H193	H	1.131933	-0.501401	0.685972
H194	H	1.631933	-0.001401	1.185972
