data_functionalizedCrystal
_audit_creation_method	'MofGen! by Chris Wilmer'
_symmetry_space_group_name_H-M	'P1'
_symmetry_Int_Tables_number	1
_symmetry_cell_setting	triclinic
loop_
_symmetry_equiv_pos_as_xyz
  x,y,z
_cell_length_a	17.699083
_cell_length_b	11.792241
_cell_length_c	16.776229
_cell_angle_alpha	89.993219
_cell_angle_beta	89.998886
_cell_angle_gamma	83.738215
loop_
_atom_site_label
_atom_site_type_symbol
_atom_site_fract_x
_atom_site_fract_y
_atom_site_fract_z
O1	O	1.004843	0.143527	-0.066177
O2	O	0.784565	0.162200	-0.066203
O3	O	0.900050	-0.012371	-0.066184
O4	O	0.889358	0.318098	-0.066196
O5	O	0.900034	-0.012382	0.066393
O6	O	0.784549	0.162189	0.066374
O7	O	1.004828	0.143516	0.066400
Zn8	Zn	0.894686	0.152851	0.087436
Zn9	Zn	0.894706	0.152865	-0.087239
O10	O	0.889343	0.318087	0.066381
C11	C	0.756356	0.161525	0.000082
C12	C	0.672328	0.159518	0.000072
C13	C	0.624253	0.261988	0.000069
C14	C	0.545299	0.260095	0.000079
C15	C	0.514422	0.155731	0.000087
C16	C	0.562503	0.053254	0.000093
C17	C	0.641455	0.055148	0.000089
C18	C	0.244099	0.045613	0.000113
C19	C	0.165141	0.043727	0.000116
C20	C	0.147944	0.250560	0.000104
C21	C	0.226896	0.252454	0.000099
C22	C	0.274970	0.149977	0.000109
C23	C	0.360580	0.152031	0.000099
C24	C	0.428814	0.153676	0.000091
C25	C	0.899370	-0.054660	0.000104
C26	C	0.897360	-0.180649	0.000103
C27	C	0.893664	-0.411317	0.000090
C28	C	0.895718	-0.282956	0.000097
C29	C	1.033036	0.144190	0.000113
C30	C	1.117065	0.146198	0.000118
C31	C	0.890022	0.360375	0.000091
C32	C	0.892032	0.486365	0.000087
N33	N	0.894678	0.152841	0.206647
N34	N	0.894721	0.152866	-0.206450
C35	C	0.945830	0.075572	0.248373
C36	C	0.945834	0.075571	0.331825
C37	C	0.894689	0.152845	0.373550
C38	C	0.843531	0.230117	0.331819
C39	C	0.843524	0.230112	0.248368
C40	C	0.843559	0.230139	0.668366
C41	C	0.843571	0.230141	0.751822
C42	C	0.945869	0.075599	0.751823
C43	C	0.945862	0.075593	0.668372
C44	C	0.894702	0.152861	0.626648
C45	C	0.894697	0.152860	0.536160
C46	C	0.894697	0.152853	0.464037
H47	H	0.537357	-0.031721	0.000112
O48	O	0.793903	0.305102	0.627719
C49	C	0.748593	0.373670	0.499161
C50	C	0.804853	0.288684	0.545099
H51	H	0.757437	0.360442	0.432355
H52	H	0.687897	0.359012	0.515517
H53	H	0.758831	0.464539	0.515612
H54	H	0.794684	0.197782	0.528672
H55	H	0.865530	0.303441	0.528739
O56	O	0.995527	0.000372	0.792269
C57	C	1.039040	-0.197064	0.817852
C58	C	0.982774	-0.112001	0.771985
H59	H	1.028739	-0.287936	0.801482
H60	H	1.099733	-0.182485	0.801423
H61	H	1.030269	-0.183736	0.884659
H62	H	0.991476	-0.125278	0.705168
H63	H	0.922102	-0.126602	0.788480
O64	O	0.793772	0.305220	0.372224
C65	C	0.692327	0.458547	0.363409
C66	C	0.748627	0.373536	0.317554
H67	H	0.655824	0.513819	0.319228
H68	H	0.654274	0.409673	0.402467
H69	H	0.725247	0.515141	0.402490
H70	H	0.715770	0.316921	0.278429
H71	H	0.786680	0.422482	0.278546
O72	O	0.135236	-0.057729	0.000023
C73	C	0.125737	-0.235067	-0.068664
C74	C	0.159670	-0.120229	-0.068648
H75	H	0.145465	-0.285621	-0.124187
H76	H	0.145520	-0.285770	-0.013213
H77	H	0.061051	-0.218785	-0.068628
H78	H	0.224356	-0.136407	-0.068713
H79	H	0.139827	-0.069562	-0.124094
H80	H	0.506159	0.343536	0.000075
H81	H	0.252031	0.337438	0.000089
O82	O	0.101166	0.350035	-0.000004
C83	C	0.002074	0.467977	-0.068715
C84	C	0.054990	0.355273	-0.068678
H85	H	-0.035261	0.472259	-0.124240
H86	H	-0.035368	0.472280	-0.013266
H87	H	0.037722	0.542872	-0.068687
H88	H	0.019403	0.280314	-0.068734
H89	H	0.092436	0.351069	-0.124122
O90	O	0.290866	-0.053857	0.000007
C91	C	0.389943	-0.171800	-0.068707
C92	C	0.337034	-0.059090	-0.068673
H93	H	0.427272	-0.176079	-0.124237
H94	H	0.427392	-0.176118	-0.013263
H95	H	0.354290	-0.246689	-0.068666
H96	H	0.372627	0.015863	-0.068742
H97	H	0.299582	-0.054872	-0.124112
H98	H	0.987512	0.012674	0.634402
H99	H	0.801920	0.293069	0.785794
O100	O	0.688049	-0.044496	0.000052
C101	C	0.696780	-0.249854	0.000109
C102	C	0.643927	-0.137090	0.000128
H103	H	0.661129	-0.324745	0.000188
H104	H	0.734158	-0.254212	-0.055388
H105	H	0.734191	-0.254079	0.055578
H106	H	0.606469	-0.132789	-0.055303
H107	H	0.606601	-0.132778	0.055663
O108	O	0.995542	0.000398	0.207968
C109	C	1.097040	-0.152851	0.216787
C110	C	1.040771	-0.067791	0.262641
H111	H	1.133632	-0.207987	0.260969
H112	H	1.064170	-0.209571	0.177750
H113	H	1.135010	-0.103902	0.177685
H114	H	1.002786	-0.116647	0.301785
H115	H	1.073687	-0.011072	0.301627
H116	H	0.987486	0.012653	0.365798
H117	H	0.649386	0.346973	0.000061
H118	H	0.801869	0.293030	0.214396
