data_functionalizedCrystal
_audit_creation_method	'MofGen! by Chris Wilmer'
_symmetry_space_group_name_H-M	'P1'
_symmetry_Int_Tables_number	1
_symmetry_cell_setting	triclinic
loop_
_symmetry_equiv_pos_as_xyz
  x,y,z
_cell_length_a	17.038272
_cell_length_b	17.019294
_cell_length_c	15.186229
_cell_angle_alpha	86.117288
_cell_angle_beta	90.002277
_cell_angle_gamma	87.244363
loop_
_atom_site_label
_atom_site_type_symbol
_atom_site_fract_x
_atom_site_fract_y
_atom_site_fract_z
O1	O	1.037219	0.171285	-0.086105
O2	O	1.537219	0.671285	0.413895
O3	O	0.809591	0.168566	-0.085924
O4	O	1.309591	0.668566	0.414076
O5	O	0.929755	0.055519	-0.077334
O6	O	1.429755	0.555519	0.422666
O7	O	0.917055	0.284332	-0.094695
O8	O	1.417055	0.784332	0.405305
O9	O	0.929747	0.055517	0.069123
O10	O	1.429747	0.555517	0.569123
O11	O	0.809583	0.168563	0.060533
O12	O	1.309583	0.668563	0.560533
O13	O	1.037211	0.171283	0.060353
O14	O	1.537211	0.671283	0.560353
Zn15	Zn	0.923396	0.169923	0.083696
Zn16	Zn	1.423396	0.669923	0.583696
Zn17	Zn	0.923406	0.169926	-0.109268
Zn18	Zn	1.423406	0.669926	0.390732
O19	O	0.917047	0.284330	0.051763
O20	O	1.417047	0.784330	0.551763
C21	C	0.780460	0.166091	-0.012511
C22	C	1.280460	0.666091	0.487489
C23	C	0.693674	0.158710	-0.011962
C24	C	1.193674	0.658710	0.488038
C25	C	0.643502	0.226471	-0.017102
C26	C	1.143502	0.726471	0.482898
C27	C	0.561957	0.219531	-0.016563
C28	C	1.061957	0.719531	0.483437
C29	C	0.530586	0.144831	-0.010891
C30	C	1.030586	0.644831	0.489109
C31	C	0.580765	0.077066	-0.005747
C32	C	1.080765	0.577066	0.494253
C33	C	0.662308	0.084006	-0.006280
C34	C	1.162308	0.584006	0.493720
C35	C	0.284849	0.120313	-0.009007
C36	C	0.784849	0.620313	0.490993
C37	C	0.203300	0.113378	-0.008477
C38	C	0.703300	0.613378	0.491523
C39	C	0.184498	0.255844	-0.019292
C40	C	0.684498	0.755844	0.480708
C41	C	0.266043	0.262778	-0.019829
C42	C	0.766043	0.762778	0.480171
C43	C	0.316215	0.195013	-0.014681
C44	C	0.816215	0.695013	0.485319
C45	C	0.447235	0.137736	-0.010343
C46	C	0.947235	0.637736	0.489657
C47	C	0.399564	0.202108	-0.015223
C48	C	0.899564	0.702108	0.484777
C49	C	0.929269	0.026096	-0.001875
C50	C	1.429269	0.526096	0.498125
C51	C	0.927825	-0.061571	0.004770
C52	C	1.427825	0.438429	0.504770
C53	C	0.927152	-0.102751	-0.071942
C54	C	1.427152	0.397249	0.428058
C55	C	0.925790	-0.185124	-0.065695
C56	C	1.425790	0.314876	0.434305
C57	C	0.925106	-0.226315	0.017264
C58	C	1.425106	0.273685	0.517264
C59	C	0.925776	-0.185128	0.093981
C60	C	1.425776	0.314872	0.593981
C61	C	0.927133	-0.102757	0.087733
C62	C	1.427133	0.397243	0.587733
C63	C	0.921004	-0.475023	0.040121
C64	C	1.421004	0.024977	0.540121
C65	C	0.919649	-0.557400	0.046362
C66	C	1.419649	-0.057400	0.546362
C67	C	0.919662	-0.557390	-0.113314
C68	C	1.419662	-0.057390	0.386686
C69	C	0.921023	-0.475017	-0.119554
C70	C	1.421023	0.024983	0.380446
C71	C	0.921689	-0.433838	-0.042837
C72	C	1.421689	0.066162	0.457163
C73	C	0.923716	-0.310513	0.023651
C74	C	1.423716	0.189487	0.523651
C75	C	0.923074	-0.349641	-0.049225
C76	C	1.423074	0.150359	0.450775
C77	C	1.066341	0.173758	-0.013062
C78	C	1.566341	0.673758	0.486938
C79	C	1.153128	0.181138	-0.013618
C80	C	1.653128	0.681138	0.486382
C81	C	0.917532	0.313752	-0.023698
C82	C	1.417532	0.813752	0.476302
C83	C	0.918977	0.401420	-0.030349
C84	C	1.418977	0.901420	0.469651
N85	N	0.923394	0.169921	0.215389
N86	N	1.423394	0.669921	0.715389
N87	N	0.923414	0.169922	-0.240960
N88	N	1.423414	0.669922	0.259040
C89	C	0.976621	0.119883	0.444914
C90	C	1.476621	0.619883	0.944914
C91	C	0.976623	0.119881	0.537104
C92	C	1.476623	0.619881	1.037104
C93	C	0.870181	0.219962	0.529508
C94	C	1.370181	0.719962	1.029508
C95	C	0.870176	0.219959	0.437320
C96	C	1.370176	0.719959	0.937320
C97	C	0.923400	0.169921	0.395026
C98	C	1.423400	0.669921	0.895026
C99	C	0.923408	0.169922	0.579403
C100	C	1.423408	0.669922	1.079403
C101	C	0.923410	0.169921	0.679359
C102	C	1.423410	0.669921	1.179359
C103	C	0.923397	0.169921	0.295063
C104	C	1.423397	0.669921	0.795063
H105	H	0.143640	0.311015	-0.023481
H106	H	0.643640	0.811015	0.476519
Br107	Br	0.797953	0.287870	0.586911
Br108	Br	1.297953	0.787870	1.086911
Br109	Br	0.918759	-0.613280	-0.217425
Br110	Br	1.418759	-0.113280	0.282575
H111	H	0.177762	0.052545	-0.003859
H112	H	0.677762	0.552545	0.496141
Br113	Br	1.048851	0.051966	0.604809
Br114	Br	1.548851	0.551966	1.104809
H115	H	0.826833	0.260706	0.396698
H116	H	1.326833	0.760706	0.896698
Br117	Br	0.924005	-0.293738	-0.161809
Br118	Br	1.424005	0.206262	0.338191
Br119	Br	0.928041	-0.046868	0.191846
Br120	Br	1.428041	0.453132	0.691846
Br121	Br	0.730400	-0.007958	0.000705
Br122	Br	1.230400	0.492042	0.500705
H123	H	1.019958	0.079138	0.410480
H124	H	1.519958	0.579138	0.910480
Br125	Br	0.308612	0.364160	-0.027538
Br126	Br	0.808612	0.864160	0.472462
Br127	Br	0.686068	0.327854	-0.024810
Br128	Br	1.186068	0.827854	0.475190
H129	H	0.425110	0.262929	-0.019837
H130	H	0.925110	0.762929	0.480163
Br131	Br	0.404653	0.036360	-0.002645
Br132	Br	0.904653	0.536360	0.497355
H133	H	0.521110	0.274709	-0.020750
H134	H	1.021110	0.774709	0.479250
H135	H	0.555216	0.016243	-0.001116
H136	H	1.055216	0.516243	0.498884
Br137	Br	0.928089	-0.046858	-0.184534
Br138	Br	1.428089	0.453142	0.315466
Br139	Br	0.921957	-0.419121	-0.232146
Br140	Br	1.421957	0.080879	0.267854
H141	H	0.325690	0.065133	-0.004814
H142	H	0.825690	0.565133	0.495186
H143	H	0.925246	-0.218650	-0.128162
H144	H	1.425246	0.281350	0.371838
H145	H	0.919088	-0.590935	0.113921
H146	H	1.419088	-0.090935	0.613921
H147	H	0.925214	-0.218672	0.161528
H148	H	1.425214	0.281328	0.661528
Br149	Br	0.921891	-0.419145	0.144238
Br150	Br	1.421891	0.080855	0.644238
H151	H	0.923161	-0.344060	0.091196
H152	H	1.423161	0.155940	0.591196
