data_functionalizedCrystal
_audit_creation_method	'MofGen! by Chris Wilmer'
_symmetry_space_group_name_H-M	'P1'
_symmetry_Int_Tables_number	1
_symmetry_cell_setting	triclinic
loop_
_symmetry_equiv_pos_as_xyz
  x,y,z
_cell_length_a	19.805407
_cell_length_b	19.805406
_cell_length_c	19.805399
_cell_angle_alpha	90.014352
_cell_angle_beta	89.980803
_cell_angle_gamma	90.003883
loop_
_atom_site_label
_atom_site_type_symbol
_atom_site_fract_x
_atom_site_fract_y
_atom_site_fract_z
Zn1	Zn	-1.034860	-0.269548	0.382775
Zn2	Zn	-0.534860	0.230452	0.882775
Zn3	Zn	-1.034827	-0.382737	0.269613
Zn4	Zn	-0.534827	0.117263	0.769613
Zn5	Zn	-0.921675	-0.269559	0.269600
Zn6	Zn	-0.421675	0.230441	0.769600
Zn7	Zn	-0.921690	-0.382693	0.382760
Zn8	Zn	-0.421690	0.117307	0.882760
O9	O	-0.978263	-0.326134	0.326187
O10	O	-0.478263	0.173866	0.826187
O11	O	-1.129572	-0.284577	0.367775
O12	O	-0.629572	0.215423	0.867775
O13	O	-1.019797	-0.367746	0.174895
O14	O	-0.519797	0.132254	0.674895
O15	O	-0.936696	-0.174841	0.284614
O16	O	-0.436696	0.325159	0.784614
O17	O	-1.129548	-0.367736	0.284636
O18	O	-0.629548	0.132264	0.784636
O19	O	-1.019853	-0.174833	0.367763
O20	O	-0.519853	0.325167	0.867763
O21	O	-0.936664	-0.284595	0.174885
O22	O	-0.436664	0.215405	0.674885
O23	O	-0.826960	-0.284553	0.284600
O24	O	-0.326960	0.215447	0.784600
O25	O	-0.936723	-0.367661	0.477479
O26	O	-0.436723	0.132339	0.977479
O27	O	-0.826972	-0.367672	0.367738
O28	O	-0.326972	0.132328	0.867738
O29	O	-1.019868	-0.284534	0.477490
O30	O	-0.519868	0.215466	0.977490
O31	O	-1.019812	-0.477447	0.284621
O32	O	-0.519812	0.022553	0.784621
O33	O	-0.936691	-0.477415	0.367750
O34	O	-0.436691	0.022585	0.867750
C35	C	-0.802407	-0.326110	0.326167
C36	C	-0.302407	0.173890	0.826167
C37	C	-0.727175	-0.326115	0.326174
C38	C	-0.227175	0.173885	0.826174
C39	C	-0.691844	-0.282890	0.369530
C40	C	-0.191844	0.217110	0.869530
C41	C	-0.621156	-0.282892	0.369530
C42	C	-0.121156	0.217108	0.869530
C43	C	-0.585800	-0.326123	0.326178
C44	C	-0.085800	0.173877	0.826178
C45	C	-0.621135	-0.369350	0.282818
C46	C	-0.121135	0.130650	0.782818
C47	C	-0.691822	-0.369344	0.282814
C48	C	-0.191822	0.130656	0.782814
C49	C	-0.336062	-0.369375	0.282832
C50	C	0.163938	0.130625	0.782832
C51	C	-0.265370	-0.369379	0.282840
C52	C	0.234630	0.130621	0.782840
C53	C	-0.265395	-0.282923	0.369548
C54	C	0.234605	0.217077	0.869548
C55	C	-0.336082	-0.282917	0.369544
C56	C	0.163918	0.217083	0.869544
C57	C	-0.371412	-0.326141	0.326181
C58	C	0.128588	0.173859	0.826181
C59	C	-0.448061	-0.326137	0.326180
C60	C	0.051939	0.173863	0.826180
C61	C	-0.509152	-0.326131	0.326183
C62	C	-0.009152	0.173869	0.826183
C63	C	-0.978268	-0.501990	0.326200
C64	C	-0.478268	-0.001990	0.826200
C65	C	-0.978332	-0.577222	0.326229
C66	C	-0.478332	-0.077222	0.826229
C67	C	-0.978301	-0.326092	0.502730
C68	C	-0.478301	0.173908	1.002730
C69	C	-0.978317	-0.326074	0.577962
C70	C	-0.478317	0.173926	1.077962
C71	C	-0.154806	-0.326155	0.326202
C72	C	0.345194	0.173845	0.826202
C73	C	-0.230038	-0.326150	0.326193
C74	C	0.269962	0.173850	0.826193
C75	C	-0.978276	-0.149592	0.326189
C76	C	-0.478276	0.350408	0.826189
C77	C	-0.978282	-0.074360	0.326190
C78	C	-0.478282	0.425640	0.826190
C79	C	-0.934992	-0.039019	0.282900
C80	C	-0.434992	0.460981	0.782900
C81	C	-0.934997	0.031670	0.282908
C82	C	-0.434997	0.531670	0.782908
C83	C	-0.978295	0.067016	0.326201
C84	C	-0.478295	0.567016	0.826201
C85	C	-1.021586	0.031670	0.369496
C86	C	-0.521586	0.531670	0.869496
C87	C	-1.021578	-0.039017	0.369491
C88	C	-0.521578	0.460983	0.869491
C89	C	-1.021620	0.316743	0.369515
C90	C	-0.521620	0.816743	0.869515
C91	C	-1.021626	0.387435	0.369515
C92	C	-0.521626	0.887435	0.869515
C93	C	-0.935038	0.387430	0.282932
C94	C	-0.435038	0.887430	0.782932
C95	C	-0.935030	0.316743	0.282927
C96	C	-0.435030	0.816743	0.782927
C97	C	-0.978319	0.281403	0.326224
C98	C	-0.478319	0.781403	0.826224
C99	C	-0.978313	0.204755	0.326216
C100	C	-0.478313	0.704755	0.826216
C101	C	-0.978305	0.143663	0.326206
C102	C	-0.478305	0.643663	0.826206
C103	C	-0.978264	-0.326128	0.150331
C104	C	-0.478264	0.173872	0.650331
C105	C	-0.978379	-0.325955	0.075100
C106	C	-0.478379	0.174045	0.575100
C107	C	-1.021612	-0.282787	0.613313
C108	C	-0.521612	0.217213	1.113313
C109	C	-1.021619	-0.282768	0.684001
C110	C	-0.521619	0.217232	1.184001
C111	C	-0.978334	-0.326038	0.719338
C112	C	-0.478334	0.173962	1.219338
C113	C	-0.935035	-0.369327	0.683982
C114	C	-0.435035	0.130673	1.183982
C115	C	-0.935025	-0.369342	0.613295
C116	C	-0.435025	0.130658	1.113295
C117	C	-0.935073	-0.369263	0.969055
C118	C	-0.435073	0.130737	1.469055
C119	C	-0.935087	-0.369246	1.039747
C120	C	-0.435087	0.130754	1.539747
C121	C	-1.021667	-0.282689	1.039762
C122	C	-0.521667	0.217311	1.539762
C123	C	-1.021657	-0.282704	0.969075
C124	C	-0.521657	0.217296	1.469075
C125	C	-0.978355	-0.325990	0.933725
C126	C	-0.478355	0.174010	1.433725
C127	C	-0.978347	-0.326010	0.857077
C128	C	-0.478347	0.173990	1.357077
C129	C	-0.978345	-0.326022	0.795985
C130	C	-0.478345	0.173978	1.295985
H131	H	-0.236621	-0.247725	0.404854
H132	H	0.263379	0.252275	0.904854
H133	H	-1.056906	-0.247471	0.940307
H134	H	-0.556906	0.252529	1.440307
N135	N	-0.227233	-0.416008	0.236079
N136	N	0.272767	0.083992	0.736079
H137	H	-0.260340	-0.443388	0.208606
H138	H	0.239660	0.056612	0.708606
H139	H	-0.197886	-0.388413	0.204806
H140	H	0.302114	0.111587	0.704806
N141	N	-1.068319	0.425564	0.416220
N142	N	-0.568319	0.925564	0.916220
H143	H	-1.099685	0.454881	0.388721
H144	H	-0.599685	0.954881	0.888721
H145	H	-1.095695	0.392410	0.443642
H146	H	-0.595695	0.892410	0.943642
N147	N	-0.888351	-0.415992	0.722103
N148	N	-0.388351	0.084008	1.222103
H149	H	-0.898853	-0.464358	0.709806
H150	H	-0.398853	0.035642	1.209806
H151	H	-0.840007	-0.405416	0.709783
H152	H	-0.340007	0.094584	1.209783
H153	H	-1.056876	0.287978	0.404762
H154	H	-0.556876	0.787978	0.904762
H155	H	-0.899824	-0.404519	0.940282
H156	H	-0.399824	0.095481	1.440282
N157	N	-1.068281	0.069789	0.416199
N158	N	-0.568281	0.569789	0.916199
H159	H	-1.061719	0.119932	0.409634
H160	H	-0.561719	0.619932	0.909634
H161	H	-1.116618	0.057423	0.405674
H162	H	-0.616618	0.557423	0.905674
N163	N	-0.888385	-0.415906	1.077860
N164	N	-0.388385	0.084094	1.577860
H165	H	-0.894964	-0.409326	1.128004
H166	H	-0.394964	0.090674	1.628004
H167	H	-0.898901	-0.464254	1.065510
H168	H	-0.398901	0.035746	1.565510
H169	H	-1.056923	-0.247441	1.068552
H170	H	-0.556923	0.252559	1.568552
N171	N	-0.374163	-0.415991	0.236062
N172	N	0.125837	0.084009	0.736062
H173	H	-0.341036	-0.443378	0.208602
H174	H	0.158964	0.056622	0.708602
H175	H	-0.403510	-0.447349	0.263558
H176	H	0.096490	0.052651	0.763558
H177	H	-0.899736	-0.067792	0.247643
H178	H	-0.399736	0.432208	0.747643
H179	H	-0.899763	-0.404584	0.584513
H180	H	-0.399763	0.095416	1.084513
N181	N	-1.068261	-0.077139	0.416190
N182	N	-0.568261	0.422861	0.916190
H183	H	-1.095691	-0.044022	0.443618
H184	H	-0.595691	0.455978	0.943618
H185	H	-1.099577	-0.106483	0.388648
H186	H	-0.599577	0.393517	0.888648
N187	N	-0.583051	-0.236278	0.416301
N188	N	-0.083051	0.263722	0.916301
H189	H	-0.532906	-0.242838	0.409725
H190	H	-0.032906	0.257162	0.909725
H191	H	-0.595396	-0.187922	0.405847
H192	H	-0.095396	0.312078	0.905847
H193	H	-0.720588	-0.404542	0.247509
H194	H	-0.220588	0.095458	0.747509
N195	N	-0.729976	-0.236266	0.416293
N196	N	-0.229976	0.263734	0.916293
H197	H	-0.696865	-0.208883	0.443757
H198	H	-0.196865	0.291117	0.943757
H199	H	-0.759290	-0.204904	0.388790
H200	H	-0.259290	0.295096	0.888790
N201	N	-0.374217	-0.236293	0.416306
N202	N	0.125783	0.263707	0.916306
H203	H	-0.341108	-0.208909	0.443772
H204	H	0.158892	0.291091	0.943772
H205	H	-0.403530	-0.204933	0.388801
H206	H	0.096470	0.295067	0.888801
H207	H	-0.592343	-0.404547	0.247517
H208	H	-0.092343	0.095453	0.747517
H209	H	-1.056875	-0.247521	0.712781
H210	H	-0.556875	0.252479	1.212781
N211	N	-0.888338	0.425549	0.236242
N212	N	-0.388338	0.925549	0.736242
H213	H	-0.860910	0.392430	0.208813
H214	H	-0.360910	0.892430	0.708813
H215	H	-0.915885	0.454868	0.204925
H216	H	-0.415885	0.954868	0.704925
N217	N	-0.888309	0.069788	0.236214
N218	N	-0.388309	0.569788	0.736214
H219	H	-0.860883	0.036671	0.208782
H220	H	-0.360883	0.536671	0.708782
H221	H	-0.915863	0.099105	0.204900
H222	H	-0.415863	0.599105	0.704900
H223	H	-0.899774	0.287968	0.247671
H224	H	-0.399774	0.787968	0.747671
H225	H	-1.056862	-0.247553	0.584547
H226	H	-0.556862	0.252447	1.084547
