data_functionalizedCrystal
_audit_creation_method	'MofGen! by Chris Wilmer'
_symmetry_space_group_name_H-M	'P1'
_symmetry_Int_Tables_number	1
_symmetry_cell_setting	triclinic
loop_
_symmetry_equiv_pos_as_xyz
  x,y,z
_cell_length_a	21.295411
_cell_length_b	12.827893
_cell_length_c	12.827892
_cell_angle_alpha	90.015172
_cell_angle_beta	90.013331
_cell_angle_gamma	90.022557
loop_
_atom_site_label
_atom_site_type_symbol
_atom_site_fract_x
_atom_site_fract_y
_atom_site_fract_z
Zn1	Zn	-0.355914	-1.597705	0.416153
Zn2	Zn	0.144086	-1.097705	0.916153
Zn3	Zn	-0.250655	-1.597589	0.590880
Zn4	Zn	0.249345	-1.097589	1.090880
Zn5	Zn	-0.250663	-1.422936	0.416154
Zn6	Zn	0.249337	-0.922936	0.916154
Zn7	Zn	-0.355890	-1.422932	0.590853
Zn8	Zn	0.144110	-0.922932	1.090853
O9	O	-0.303281	-1.510291	0.503510
O10	O	0.196719	-1.010291	1.003510
O11	O	-0.341958	-1.743926	0.439342
O12	O	0.158042	-1.243926	0.939342
O13	O	-0.162566	-1.574375	0.567714
O14	O	0.337434	-1.074375	1.067714
O15	O	-0.264638	-1.446170	0.269917
O16	O	0.235362	-0.946170	0.769917
O17	O	-0.264624	-1.743841	0.567713
O18	O	0.235376	-1.243841	1.067713
O19	O	-0.341966	-1.574571	0.269917
O20	O	0.158034	-1.074571	0.769917
O21	O	-0.162572	-1.446058	0.439343
O22	O	0.337428	-0.946058	0.939343
O23	O	-0.264615	-1.276700	0.439317
O24	O	0.235385	-0.776700	0.939317
O25	O	-0.443983	-1.446163	0.567666
O26	O	0.056017	-0.946163	1.067666
O27	O	-0.341925	-1.276697	0.567667
O28	O	0.158075	-0.776697	1.067667
O29	O	-0.444000	-1.574567	0.439315
O30	O	0.056000	-1.074567	0.939315
O31	O	-0.264601	-1.574371	0.737113
O32	O	0.235399	-1.074371	1.237113
O33	O	-0.341917	-1.446051	0.737092
O34	O	0.158083	-0.946051	1.237092
C35	C	-0.303269	-1.238781	0.503490
C36	C	0.196731	-0.738781	1.003490
C37	C	-0.303278	-1.122628	0.503506
C38	C	0.196722	-0.622628	1.003506
C39	C	-0.467471	-1.510377	0.503488
C40	C	0.032529	-1.010377	1.003488
C41	C	-0.537439	-1.510414	0.503478
C42	C	-0.037439	-1.010414	1.003478
C43	C	-0.303269	-1.510226	0.775020
C44	C	0.196731	-1.010226	1.275020
C45	C	-0.303286	-1.510294	0.891173
C46	C	0.196714	-1.010294	1.391173
C47	C	-0.570316	-1.577272	0.436643
C48	C	-0.070316	-1.077272	0.936643
C49	C	-0.636058	-1.577270	0.436598
C50	C	-0.136058	-1.077270	0.936598
C51	C	-0.668922	-1.510422	0.503406
C52	C	-0.168922	-1.010422	1.003406
C53	C	-0.636037	-1.443552	0.570246
C54	C	-0.136037	-0.943552	1.070246
C55	C	-0.570296	-1.443548	0.570282
C56	C	-0.070296	-0.943548	1.070282
N57	N	-0.772145	-1.502384	0.594824
N58	N	-0.272145	-1.002384	1.094824
N59	N	-0.834597	-1.502394	0.594786
N60	N	-0.334597	-1.002394	1.094786
C61	C	-0.866996	-1.510429	0.503300
C62	C	-0.366996	-1.010429	1.003300
N63	N	-0.834585	-1.518474	0.411851
N64	N	-0.334585	-1.018474	0.911851
N65	N	-0.772128	-1.518469	0.411889
N66	N	-0.272128	-1.018469	0.911889
C67	C	-0.740207	-1.510419	0.503374
C68	C	-0.240207	-1.010419	1.003374
C69	C	-0.971159	-1.577288	0.436410
C70	C	-0.471159	-1.077288	0.936410
C71	C	-1.036903	-1.577280	0.436363
C72	C	-0.536903	-1.077280	0.936363
C73	C	-1.036880	-1.443567	0.570021
C74	C	-0.536880	-0.943567	1.070021
C75	C	-0.971137	-1.443570	0.570059
C76	C	-0.471137	-0.943570	1.070059
C77	C	-0.938281	-1.510436	0.503255
C78	C	-0.438281	-1.010436	1.003255
C79	C	-0.139729	-1.510264	0.503456
C80	C	0.360271	-1.010264	1.003456
C81	C	-0.069761	-1.510430	0.503171
C82	C	0.430239	-1.010430	1.003171
C83	C	-0.303293	-1.782861	0.503531
C84	C	0.196707	-1.282861	1.003531
C85	C	-0.303298	-1.899014	0.503540
C86	C	0.196702	-1.399014	1.003540
C87	C	-0.341475	-1.070869	0.567117
C88	C	0.158525	-0.570869	1.067117
C89	C	-0.341486	-0.950819	0.567136
C90	C	0.158514	-0.450819	1.067136
C91	C	-0.303305	-1.510384	0.230940
C92	C	0.196695	-1.010384	0.730940
C93	C	-0.303316	-1.510424	0.114787
C94	C	0.196684	-1.010424	0.614787
C95	C	-0.265002	-1.446846	0.943041
C96	C	0.234998	-0.946846	1.443041
C97	C	-0.265018	-1.446915	1.063091
C98	C	0.234982	-0.946915	1.563091
H99	H	-0.543568	-1.631718	0.382245
H100	H	-0.043568	-1.131718	0.882245
Br101	Br	-0.680687	-1.667986	0.345860
Br102	Br	-0.180687	-1.167986	0.845860
Br103	Br	-0.926564	-1.668030	0.345747
Br104	Br	-0.426564	-1.168030	0.845747
H105	H	-0.232244	-1.392589	1.107697
H106	H	0.267756	-0.892589	1.607697
H107	H	-1.063670	-1.631722	0.381932
H108	H	-0.563670	-1.131722	0.881932
H109	H	-0.336097	-1.564743	1.070189
H110	H	0.163903	-1.064743	1.570189
H111	H	-1.063636	-1.389127	0.624408
H112	H	-0.563636	-0.889127	1.124408
Br113	Br	-0.357933	-1.600932	0.965282
Br114	Br	0.142067	-1.100932	1.465282
H115	H	-0.662798	-1.389121	0.624639
H116	H	-0.162798	-0.889121	1.124639
H117	H	-0.374170	-1.115433	0.621560
H118	H	0.125830	-0.615433	1.121560
Br119	Br	-0.525674	-1.352804	0.660993
Br120	Br	-0.025674	-0.852804	1.160993
H121	H	-0.270593	-0.943518	0.449081
H122	H	0.229407	-0.443518	0.949081
H123	H	-0.374185	-0.906307	0.621599
H124	H	0.125815	-0.406307	1.121599
H125	H	-0.944369	-1.389134	0.624490
H126	H	-0.444369	-0.889134	1.124490
H127	H	-0.270588	-1.078063	0.449056
H128	H	0.229412	-0.578063	0.949056
Br129	Br	-0.210344	-1.356225	0.868932
Br130	Br	0.289656	-0.856225	1.368932
