data_functionalizedCrystal
_audit_creation_method	'MofGen! by Chris Wilmer'
_symmetry_space_group_name_H-M	'P1'
_symmetry_Int_Tables_number	1
_symmetry_cell_setting	triclinic
loop_
_symmetry_equiv_pos_as_xyz
  x,y,z
_cell_length_a	16.992695
_cell_length_b	16.974755
_cell_length_c	14.750135
_cell_angle_alpha	80.914303
_cell_angle_beta	103.523793
_cell_angle_gamma	87.020338
loop_
_atom_site_label
_atom_site_type_symbol
_atom_site_fract_x
_atom_site_fract_y
_atom_site_fract_z
O1	O	1.059703	0.149231	0.091392
O2	O	1.559703	0.649231	0.591392
O3	O	0.831392	0.147418	0.091261
O4	O	1.331392	0.647418	0.591261
O5	O	0.950045	0.035392	0.082543
O6	O	1.450045	0.535392	0.582543
O7	O	0.941050	0.261256	0.100110
O8	O	1.441050	0.761256	0.600110
O9	O	0.916486	0.067072	-0.074658
O10	O	1.416486	0.567072	0.425342
O11	O	0.797833	0.179098	-0.065939
O12	O	1.297833	0.679098	0.434061
O13	O	1.026144	0.180911	-0.065809
O14	O	1.526144	0.680911	0.434191
Zn15	Zn	0.906660	0.185034	-0.090833
Zn16	Zn	1.406660	0.685034	0.409167
Zn17	Zn	0.950876	0.143294	0.116285
Zn18	Zn	1.450876	0.643294	0.616285
O19	O	0.907491	0.292936	-0.057090
O20	O	1.407491	0.792936	0.442910
C21	C	0.785364	0.160928	0.012481
C22	C	1.285364	0.660928	0.512481
C23	C	0.698214	0.153976	0.011944
C24	C	1.198214	0.653976	0.511944
C25	C	0.932302	0.022197	0.001686
C26	C	1.432302	0.522197	0.501686
C27	C	0.929421	-0.064317	-0.005037
C28	C	1.429421	0.435683	0.494963
C29	C	0.911179	-0.549453	-0.052038
C30	C	1.411179	-0.049453	0.447962
C31	C	0.913893	-0.468163	-0.045726
C32	C	1.413893	0.031837	0.454274
C33	C	0.933549	-0.444778	0.043122
C34	C	1.433549	0.055222	0.543122
C35	C	0.950485	-0.502689	0.125664
C36	C	1.450485	-0.002689	0.625664
C37	C	0.947766	-0.583977	0.119351
C38	C	1.447766	-0.083977	0.619351
C39	C	0.943638	-0.203516	0.071192
C40	C	1.443638	0.296484	0.571192
C41	C	0.946359	-0.122221	0.077499
C42	C	1.446359	0.377779	0.577499
C43	C	0.909764	-0.087700	-0.093892
C44	C	1.409764	0.412300	0.406108
C45	C	0.907051	-0.168991	-0.100197
C46	C	1.407051	0.331009	0.399803
C47	C	0.923983	-0.226894	-0.017656
C48	C	1.423983	0.273106	0.482344
N49	N	0.936326	-0.361688	0.049576
N50	N	1.436326	0.138312	0.549576
N51	N	0.921201	-0.309983	-0.024111
N52	N	1.421201	0.190017	0.475889
C53	C	1.072172	0.167400	0.012973
C54	C	1.572172	0.667400	0.512973
C55	C	1.159324	0.174350	0.013516
C56	C	1.659324	0.674350	0.513516
C57	C	1.208530	0.107285	0.008303
C58	C	1.708530	0.607285	0.508303
C59	C	1.290417	0.113821	0.008808
C60	C	1.790417	0.613821	0.508808
C61	C	1.323097	0.187422	0.014533
C62	C	1.823097	0.687422	0.514533
C63	C	1.273884	0.254493	0.019743
C64	C	1.773884	0.754493	0.519743
C65	C	1.191998	0.247958	0.019232
C66	C	1.691998	0.747958	0.519232
C67	C	1.567114	0.214512	0.016643
C68	C	2.067114	0.714512	0.516643
C69	C	1.649008	0.221042	0.017158
C70	C	2.149008	0.721042	0.517158
C71	C	1.665534	0.080369	0.006220
C72	C	2.165534	0.580369	0.506220
C73	C	1.583646	0.073839	0.005715
C74	C	2.083646	0.573839	0.505715
C75	C	1.534440	0.140911	0.010920
C76	C	2.034440	0.640911	0.510920
N77	N	1.406799	0.194104	0.015052
N78	N	1.906799	0.694104	0.515052
N79	N	1.450738	0.134229	0.010394
N80	N	1.950738	0.634229	0.510394
C81	C	0.925235	0.306130	0.023768
C82	C	1.425235	0.806130	0.523768
C83	C	0.928117	0.392644	0.030497
C84	C	1.428117	0.892644	0.530497
N85	N	0.876489	0.213520	-0.232186
N86	N	1.376489	0.713520	0.267814
C87	C	1.065301	0.035324	-0.597784
C88	C	1.565301	0.535324	-0.097784
C89	C	1.044162	0.055263	-0.696741
C90	C	1.544162	0.555263	-0.196741
C91	C	0.939062	0.154431	-0.689035
C92	C	1.439062	0.654431	-0.189035
C93	C	0.960195	0.134503	-0.590075
C94	C	1.460195	0.634503	-0.090075
C95	C	1.023315	0.074949	-0.544457
C96	C	1.523315	0.574949	-0.044457
C97	C	0.918208	0.174128	-0.536749
C98	C	1.418208	0.674128	-0.036749
C99	C	0.939337	0.154199	-0.437797
C100	C	1.439337	0.654199	0.062203
C101	C	1.002453	0.094645	-0.392173
C102	C	1.502453	0.594645	0.107827
C103	C	1.044444	0.055020	-0.445506
C104	C	1.544444	0.555020	0.054494
C105	C	0.855085	0.233678	-0.582369
C106	C	1.355085	0.733678	-0.082369
C107	C	0.813099	0.273303	-0.529042
C108	C	1.313099	0.773303	-0.029042
C109	C	0.834231	0.253378	-0.430089
C110	C	1.334231	0.753378	0.069911
C111	C	0.897347	0.193824	-0.384464
C112	C	1.397347	0.693824	0.115536
C113	C	0.792240	0.293003	-0.376755
C114	C	1.292240	0.793003	0.123245
C115	C	0.813369	0.273074	-0.277804
C116	C	1.313369	0.773074	0.222196
C117	C	0.918476	0.173895	-0.285513
C118	C	1.418476	0.673895	0.214487
N119	N	0.981053	0.114803	0.257638
N120	N	1.481053	0.614803	0.757638
H121	H	0.895176	-0.568484	-0.124388
H122	H	1.395176	-0.068484	0.375612
Br123	Br	1.500346	0.305537	0.023720
Br124	Br	2.000346	0.805537	0.523720
H125	H	0.761704	0.321791	-0.566196
H126	H	1.261704	0.821791	-0.066196
Br127	Br	1.150977	-0.045490	-0.535868
Br128	Br	1.650977	0.454510	-0.035868
H129	H	1.095848	0.006530	-0.408362
H130	H	1.595848	0.506530	0.091638
Br131	Br	1.125214	0.338981	0.026296
Br132	Br	1.625214	0.838981	0.526296
H133	H	0.837882	0.249899	-0.662942
H134	H	1.337882	0.749899	-0.162942
H135	H	0.900112	-0.421020	-0.112935
H136	H	1.400112	0.078980	0.387065
H137	H	1.078357	0.022989	-0.740156
H138	H	1.578357	0.522989	-0.240156
Br139	Br	1.539309	-0.026061	-0.002014
Br140	Br	2.039309	0.473939	0.497986
H141	H	1.675610	0.280983	0.021806
H142	H	2.175610	0.780983	0.521806
H143	H	0.966486	-0.483643	0.198006
H144	H	1.466486	0.016357	0.698006
H145	H	0.740842	0.341488	-0.413910
H146	H	1.240842	0.841488	0.086090
H147	H	1.019653	0.078417	-0.311600
H148	H	1.519653	0.578417	0.188400
Br149	Br	0.853398	0.235249	-0.750951
Br150	Br	1.353398	0.735249	-0.250951
H151	H	0.969880	0.125406	-0.248369
H152	H	1.469880	0.625406	0.251631
H153	H	1.330477	0.059210	0.004559
H154	H	1.830477	0.559210	0.504559
H155	H	0.961554	-0.631123	0.186560
H156	H	1.461554	-0.131123	0.686560
Br157	Br	1.318234	0.354383	0.027508
Br158	Br	1.818234	0.854383	0.527508
Br159	Br	1.732317	-0.010651	-0.000849
Br160	Br	2.232317	0.489349	0.499151
H161	H	0.779178	0.305340	-0.234385
H162	H	1.279178	0.805340	0.265615
H163	H	0.891049	-0.188023	-0.172547
H164	H	1.391049	0.311977	0.327453
H165	H	0.895978	-0.040547	-0.161092
H166	H	1.395978	0.459453	0.338908
H167	H	0.962365	-0.103186	0.149853
H168	H	1.462365	0.396814	0.649853
H169	H	1.181930	0.047350	0.003647
H170	H	1.681930	0.547350	0.503647
H171	H	0.957432	-0.250652	0.138403
H172	H	1.457432	0.249348	0.638403
