data_functionalizedCrystal
_audit_creation_method	'MofGen! by Chris Wilmer'
_symmetry_space_group_name_H-M	'P1'
_symmetry_Int_Tables_number	1
_symmetry_cell_setting	triclinic
loop_
_symmetry_equiv_pos_as_xyz
  x,y,z
_cell_length_a	12.759401
_cell_length_b	21.295417
_cell_length_c	12.759393
_cell_angle_alpha	90.038095
_cell_angle_beta	90.019676
_cell_angle_gamma	90.030933
loop_
_atom_site_label
_atom_site_type_symbol
_atom_site_fract_x
_atom_site_fract_y
_atom_site_fract_z
Zn1	Zn	1.606151	-0.250572	0.593929
Zn2	Zn	2.106151	0.249428	1.093929
Zn3	Zn	1.605994	-0.355854	0.418226
Zn4	Zn	2.105994	0.144146	0.918226
Zn5	Zn	1.430450	-0.250603	0.418268
Zn6	Zn	1.930450	0.249397	0.918268
Zn7	Zn	1.430393	-0.355808	0.593867
Zn8	Zn	1.930393	0.144192	1.093867
O9	O	1.518247	-0.303209	0.506073
O10	O	2.018247	0.196791	1.006073
O11	O	1.753151	-0.264544	0.570630
O12	O	2.253151	0.235456	1.070630
O13	O	1.582665	-0.341924	0.271210
O14	O	2.082665	0.158076	0.771210
O15	O	1.453846	-0.162509	0.441614
O16	O	1.953846	0.337491	0.941614
O17	O	1.753035	-0.341894	0.441542
O18	O	2.253035	0.158106	0.941542
O19	O	1.582933	-0.162486	0.570671
O20	O	2.082933	0.337514	1.070671
O21	O	1.453694	-0.264597	0.271242
O22	O	1.953694	0.235403	0.771242
O23	O	1.283421	-0.264553	0.441553
O24	O	1.783421	0.235447	0.941553
O25	O	1.453750	-0.341815	0.740896
O26	O	1.953750	0.158185	1.240896
O27	O	1.283380	-0.341846	0.570565
O28	O	1.783380	0.158154	1.070565
O29	O	1.582878	-0.264499	0.740942
O30	O	2.082878	0.235501	1.240942
O31	O	1.582610	-0.443937	0.441482
O32	O	2.082610	0.056063	0.941482
O33	O	1.453597	-0.443903	0.570524
O34	O	1.953597	0.056097	1.070524
C35	C	1.245279	-0.303198	0.506058
C36	C	1.745279	0.196802	1.006058
C37	C	1.128503	-0.303209	0.506076
C38	C	1.628503	0.196791	1.006076
C39	C	1.073702	-0.263005	0.573396
C40	C	1.573702	0.236995	1.073396
C41	C	0.963978	-0.263012	0.573403
C42	C	1.463978	0.236988	1.073403
C43	C	0.963866	-0.343430	0.438767
C44	C	1.463866	0.156570	0.938767
C45	C	1.073588	-0.343420	0.438756
C46	C	1.573588	0.156580	0.938756
C47	C	1.518109	-0.466761	0.506014
C48	C	2.018109	0.033239	1.006014
C49	C	1.518146	-0.536729	0.506025
C50	C	2.018146	-0.036729	1.006025
C51	C	1.585383	-0.569592	0.438901
C52	C	2.085383	-0.069592	0.938901
C53	C	1.585432	-0.635335	0.438925
C54	C	2.085432	-0.135335	0.938925
C55	C	1.518226	-0.668211	0.506061
C56	C	2.018226	-0.168211	1.006061
C57	C	1.450985	-0.635340	0.573198
C58	C	1.950985	-0.135340	1.073198
C59	C	1.450945	-0.569599	0.573180
C60	C	1.950945	-0.069599	1.073180
N61	N	1.426319	-0.771477	0.514065
N62	N	1.926319	-0.271477	1.014065
N63	N	1.426360	-0.833928	0.514076
N64	N	1.926360	-0.333928	1.014076
C65	C	1.518344	-0.866286	0.506121
C66	C	2.018344	-0.366286	1.006121
N67	N	1.610287	-0.833833	0.498134
N68	N	2.110287	-0.333833	0.998134
N69	N	1.610245	-0.771376	0.498117
N70	N	2.110245	-0.271376	0.998117
C71	C	1.518262	-0.739497	0.506089
C72	C	2.018262	-0.239497	1.006089
C73	C	1.585639	-0.970435	0.439019
C74	C	2.085639	-0.470435	0.939019
C75	C	1.585690	-1.036178	0.439050
C76	C	2.085690	-0.536178	0.939050
C77	C	1.451233	-1.036183	0.573318
C78	C	1.951233	-0.536183	1.073318
C79	C	1.451192	-0.970440	0.573293
C80	C	1.951192	-0.470440	1.073293
C81	C	1.518393	-0.937570	0.506138
C82	C	2.018393	-0.437570	1.006138
C83	C	1.792280	-0.303220	0.506088
C84	C	2.292280	0.196780	1.006088
C85	C	1.909057	-0.303225	0.506095
C86	C	2.409057	0.196775	1.006095
C87	C	1.518325	-0.303149	0.780106
C88	C	2.018325	0.196851	1.280106
C89	C	1.518359	-0.303123	0.896883
C90	C	2.018359	0.196877	1.396883
C91	C	1.518414	-0.139019	0.506154
C92	C	2.018414	0.360981	1.006154
C93	C	1.518485	-0.069051	0.506189
C94	C	2.018485	0.430949	1.006189
C95	C	1.518229	-0.303224	0.233105
C96	C	2.018229	0.196776	0.733105
C97	C	1.518399	-0.303072	0.116329
C98	C	2.018399	0.196928	0.616329
C99	C	1.585601	-0.262858	0.951770
C100	C	2.085601	0.237142	1.451770
C101	C	1.585619	-0.262831	1.061494
C102	C	2.085619	0.237169	1.561494
C103	C	1.451149	-0.343339	1.061434
C104	C	1.951149	0.156661	1.561434
C105	C	1.451127	-0.343363	0.951712
C106	C	1.951127	0.156637	1.451712
H107	H	0.919140	-0.376170	0.383959
H108	H	1.419140	0.123830	0.883959
H109	H	1.640343	-0.230090	0.907132
H110	H	2.140343	0.269910	1.407132
O111	O	1.132700	-0.386786	0.366140
O112	O	1.632700	0.113214	0.866140
H113	H	1.182673	-0.358563	0.312768
H114	H	1.682673	0.141437	0.812768
O115	O	0.904875	-0.219646	0.646013
O116	O	1.404875	0.280354	1.146013
H117	H	0.819352	-0.226400	0.634705
H118	H	1.319352	0.273600	1.134705
O119	O	1.658146	-0.934972	0.366627
O120	O	2.158146	-0.434972	0.866627
H121	H	1.611149	-0.905071	0.313113
H122	H	2.111149	-0.405071	0.813113
O123	O	1.378400	-0.534153	0.645566
O124	O	1.878400	-0.034153	1.145566
H125	H	1.396369	-0.546720	0.728045
H126	H	1.896369	-0.046720	1.228045
H127	H	1.396363	-0.376151	0.907021
H128	H	1.896363	0.123849	1.407021
H129	H	1.640105	-0.542831	0.384222
H130	H	2.140105	-0.042831	0.884222
H131	H	1.640373	-0.230042	1.106179
H132	H	2.140373	0.269958	1.606179
O133	O	1.657945	-0.670793	0.366516
O134	O	2.157945	-0.170793	0.866516
H135	H	1.704661	-0.636891	0.319811
H136	H	2.204661	-0.136891	0.819811
O137	O	1.378661	-0.934993	0.645687
O138	O	1.878661	-0.434993	1.145687
H139	H	1.389930	-0.883756	0.634402
H140	H	1.889930	-0.383756	1.134402
O141	O	1.132932	-0.219626	0.645988
O142	O	1.632932	0.280374	1.145988
H143	H	1.111896	-0.230475	0.728415
H144	H	1.611896	0.269525	1.228415
O145	O	1.378644	-0.386740	1.120578
O146	O	1.878644	0.113260	1.620578
H147	H	1.331874	-0.414738	1.063974
H148	H	1.831874	0.085262	1.563974
H149	H	1.396267	-0.662112	0.627862
H150	H	1.896267	-0.162112	1.127862
H151	H	1.396517	-1.062950	0.627986
H152	H	1.896517	-0.562950	1.127986
H153	H	1.640449	-1.062935	0.384392
H154	H	2.140449	-0.562935	0.884392
