data_functionalizedCrystal
_audit_creation_method	'MofGen! by Chris Wilmer'
_symmetry_space_group_name_H-M	'P1'
_symmetry_Int_Tables_number	1
_symmetry_cell_setting	triclinic
loop_
_symmetry_equiv_pos_as_xyz
  x,y,z
_cell_length_a	16.956995
_cell_length_b	15.944551
_cell_length_c	15.455313
_cell_angle_alpha	92.664316
_cell_angle_beta	87.515363
_cell_angle_gamma	79.776605
loop_
_atom_site_label
_atom_site_type_symbol
_atom_site_fract_x
_atom_site_fract_y
_atom_site_fract_z
O1	O	1.061537	0.030892	-0.072191
O2	O	1.561537	0.530892	0.427809
O3	O	0.829381	0.060381	-0.072180
O4	O	1.329381	0.560381	0.427820
O5	O	0.951798	-0.077078	-0.072178
O6	O	1.451798	0.422922	0.427822
O7	O	0.939119	0.168352	-0.072193
O8	O	1.439119	0.668352	0.427807
O9	O	0.944797	-0.069248	0.072084
O10	O	1.444797	0.430752	0.572084
O11	O	0.822380	0.068211	0.072082
O12	O	1.322380	0.568211	0.572082
O13	O	1.054536	0.038723	0.072071
O14	O	1.554536	0.538723	0.572071
Cu15	Cu	0.937819	0.054182	0.085249
Cu16	Cu	1.437819	0.554182	0.585249
Cu17	Cu	0.946098	0.044922	-0.085358
Cu18	Cu	1.446098	0.544922	0.414642
O19	O	0.932119	0.176182	0.072069
O20	O	1.432119	0.676182	0.572069
C21	C	0.796172	0.065806	-0.000048
C22	C	1.296172	0.565806	0.499952
C23	C	0.707652	0.070295	-0.000043
C24	C	1.207652	0.570295	0.499957
C25	C	0.947771	-0.104421	-0.000047
C26	C	1.447771	0.395579	0.499953
C27	C	0.946193	-0.197557	-0.000046
C28	C	1.446193	0.302443	0.499954
C29	C	0.208355	0.103873	-0.000078
C30	C	0.708355	0.603873	0.499922
C31	C	0.291530	0.099649	-0.000077
C32	C	0.791530	0.599649	0.499923
C33	C	0.342613	0.020359	-0.000065
C34	C	0.842613	0.520359	0.499935
C35	C	0.310519	-0.054712	-0.000064
C36	C	0.810519	0.445288	0.499936
C37	C	0.227345	-0.050487	-0.000071
C38	C	0.727345	0.449513	0.499929
C39	C	0.592384	-0.000552	-0.000049
C40	C	1.092384	0.499448	0.499951
C41	C	0.675562	-0.004770	-0.000039
C42	C	1.175562	0.495230	0.499961
C43	C	0.656568	0.149591	-0.000054
C44	C	1.156568	0.649591	0.499946
C45	C	0.573393	0.153809	-0.000056
C46	C	1.073393	0.653809	0.499944
C47	C	0.541306	0.078738	-0.000059
C48	C	1.041306	0.578738	0.499941
N49	N	0.427632	0.016040	-0.000062
N50	N	0.927632	0.516040	0.499938
N51	N	0.456290	0.083058	-0.000069
N52	N	0.956290	0.583058	0.499931
C53	C	0.866542	-0.406879	-0.000055
C54	C	1.366542	0.093121	0.499945
C55	C	0.900078	-0.466606	0.071073
C56	C	1.400078	0.033394	0.571073
C57	C	0.943339	-0.368085	-0.000053
C58	C	1.443339	0.131915	0.499947
C59	C	0.906998	-0.474311	-0.071158
C60	C	1.406998	0.025689	0.428842
C61	C	0.940576	-0.532806	-0.000063
C62	C	1.440576	-0.032806	0.499937
C63	C	0.976893	-0.426582	0.071134
C64	C	1.476893	0.073418	0.571134
C65	C	0.983805	-0.434283	-0.071161
C66	C	1.483805	0.065717	0.428839
C67	C	1.017397	-0.493995	-0.000016
C68	C	1.517397	0.006005	0.499984
C69	C	0.944928	-0.273193	-0.000046
C70	C	1.444928	0.226807	0.499954
C71	C	0.938992	-0.627697	-0.000063
C72	C	1.438992	-0.127697	0.499937
C73	C	1.087745	0.033297	-0.000064
C74	C	1.587745	0.533297	0.499936
C75	C	1.176265	0.028808	-0.000074
C76	C	1.676265	0.528808	0.499926
C77	C	0.936146	0.203524	-0.000064
C78	C	1.436146	0.703524	0.499936
C79	C	0.937724	0.296660	-0.000071
C80	C	1.437724	0.796660	0.499929
N81	N	0.932002	0.060694	0.205244
N82	N	1.432002	0.560694	0.705244
N83	N	0.951921	0.038402	-0.205353
N84	N	1.451921	0.538402	0.294647
C85	C	0.984027	0.002315	0.250639
C86	C	1.484027	0.502315	0.750639
C87	C	0.979635	0.007247	0.341447
C88	C	1.479635	0.507247	0.841447
C89	C	0.923222	0.070562	0.386858
C90	C	1.423222	0.570562	0.886858
C91	C	0.871191	0.128944	0.341457
C92	C	1.371191	0.628944	0.841457
C93	C	0.875579	0.124007	0.250650
C94	C	1.375579	0.624007	0.750650
C95	C	0.904279	0.091847	0.658439
C96	C	1.404279	0.591847	1.158439
C97	C	0.899896	0.096781	0.749252
C98	C	1.399896	0.596781	1.249252
C99	C	1.008340	-0.024917	0.749236
C100	C	1.508340	0.475083	1.249236
C101	C	1.012727	-0.029845	0.658428
C102	C	1.512727	0.470155	1.158428
C103	C	0.960693	0.028534	0.613034
C104	C	1.460693	0.528534	1.113034
N105	N	0.918733	0.075607	0.479678
N106	N	1.418733	0.575607	0.979678
N107	N	0.965179	0.023485	0.520216
N108	N	1.465179	0.523485	1.020216
H109	H	0.317653	0.160775	-0.000088
H110	H	0.817653	0.660775	0.499912
H111	H	0.531806	0.218375	-0.000068
H112	H	1.031806	0.718375	0.499932
N113	N	0.730660	-0.090296	-0.000033
N114	N	1.230660	0.409704	0.499967
H115	H	0.788218	-0.081577	-0.000022
H116	H	1.288218	0.418423	0.499978
H117	H	0.717665	-0.120357	0.053448
H118	H	1.217665	0.379643	0.553448
N119	N	1.035777	-0.055701	0.390397
N120	N	1.535777	0.444299	0.890397
H121	H	1.027384	-0.115553	0.374609
H122	H	1.527384	0.384447	0.874609
H123	H	1.093095	-0.050673	0.374534
H124	H	1.593095	0.449327	0.874534
N125	N	0.365608	-0.140235	-0.000051
N126	N	0.865608	0.359765	0.499949
H127	H	0.403145	-0.148336	-0.053523
H128	H	0.903145	0.351664	0.446477
H129	H	0.397882	-0.142468	0.053469
H130	H	0.897882	0.357532	0.553469
H131	H	0.833214	0.171544	0.213691
H132	H	1.333214	0.671544	0.713691
H133	H	0.682703	0.210710	-0.000053
H134	H	1.182703	0.710710	0.499947
N135	N	1.016018	-0.398772	0.150874
N136	N	1.516018	0.101228	0.650874
H137	H	1.016818	-0.335607	0.150400
H138	H	1.516818	0.164393	0.650400
H139	H	0.984604	-0.410804	0.204490
H140	H	1.484604	0.089196	0.704490
N141	N	0.853182	-0.485929	0.150725
N142	N	1.353182	0.014071	0.650725
H143	H	0.852905	-0.549234	0.150422
H144	H	1.352905	-0.049234	0.650422
H145	H	0.879038	-0.467636	0.204404
H146	H	1.379038	0.032364	0.704404
H147	H	1.081196	-0.531585	0.000022
H148	H	1.581196	-0.031585	0.500022
H149	H	1.029969	-0.049239	0.213671
H150	H	1.529969	0.450761	0.713671
H151	H	1.019178	-0.419672	-0.131300
H152	H	1.519178	0.080328	0.368700
H153	H	0.877424	-0.495394	-0.131295
H154	H	1.377424	0.004606	0.368705
N155	N	0.557781	-0.081517	-0.000045
N156	N	1.057781	0.418483	0.499955
H157	H	0.602764	-0.132385	-0.000031
H158	H	1.102764	0.367615	0.499969
H159	H	0.521083	-0.080219	0.053432
H160	H	1.021083	0.419781	0.553432
H161	H	1.058663	-0.081401	0.621456
H162	H	1.558663	0.418599	1.121456
N163	N	0.192730	-0.131450	-0.000071
N164	N	0.692730	0.368550	0.499929
H165	H	0.237711	-0.182321	-0.000062
H166	H	0.737711	0.317679	0.499938
H167	H	0.156031	-0.130155	0.053404
H168	H	0.656031	0.369845	0.553404
H169	H	0.802793	-0.369138	0.000019
H170	H	1.302793	0.130862	0.500019
N171	N	0.153264	0.189395	-0.000098
N172	N	0.653264	0.689395	0.499902
H173	H	0.095703	0.180684	-0.000101
H174	H	0.595703	0.680684	0.499899
H175	H	0.161054	0.225268	0.053377
H176	H	0.661054	0.725268	0.553377
N177	N	0.839044	0.165065	0.798242
N178	N	1.339044	0.665065	1.298242
H179	H	0.867696	0.202207	0.835898
H180	H	1.367696	0.702207	1.335898
H181	H	0.806758	0.201241	0.755659
H182	H	1.306758	0.701241	1.255659
H183	H	1.050702	-0.072447	0.786203
H184	H	1.550702	0.427553	1.286203
N185	N	0.848156	0.154806	0.609485
N186	N	1.348156	0.654806	1.109485
H187	H	0.811754	0.195663	0.652035
H188	H	1.311754	0.695663	1.152035
H189	H	0.880495	0.187795	0.571788
H190	H	1.380495	0.687795	1.071788
N191	N	0.810338	0.197230	0.390431
N192	N	1.310338	0.697230	0.890431
H193	H	0.815452	0.191501	0.454845
H194	H	1.315452	0.691501	0.954845
H195	H	0.820314	0.255322	0.374543
H196	H	1.320314	0.755322	0.874543
