data_functionalizedCrystal
_audit_creation_method	'MofGen! by Chris Wilmer'
_symmetry_space_group_name_H-M	'P1'
_symmetry_Int_Tables_number	1
_symmetry_cell_setting	triclinic
loop_
_symmetry_equiv_pos_as_xyz
  x,y,z
_cell_length_a	10.489716
_cell_length_b	10.489716
_cell_length_c	9.565339
_cell_angle_alpha	90.004273
_cell_angle_beta	89.996780
_cell_angle_gamma	84.529136
loop_
_atom_site_label
_atom_site_type_symbol
_atom_site_fract_x
_atom_site_fract_y
_atom_site_fract_z
O1	O	1.694055	0.179812	-0.116235
O2	O	1.322854	0.196737	-0.116239
O3	O	1.516917	0.002674	-0.116242
O4	O	1.499992	0.373875	-0.116232
O5	O	1.516902	0.002686	0.116278
O6	O	1.322839	0.196749	0.116281
O7	O	1.694040	0.179824	0.116285
Zn8	Zn	1.508437	0.188288	0.153201
Zn9	Zn	1.508457	0.188273	-0.153155
O10	O	1.499976	0.373887	0.116288
C11	C	1.275314	0.195472	0.000020
C12	C	1.133684	0.191667	0.000018
C13	C	1.035999	0.310673	0.000018
C14	C	0.958651	0.247794	0.114667
C15	C	0.958673	0.247753	-0.114579
C16	C	1.058201	0.128838	0.114762
C17	C	1.058228	0.128815	-0.114587
C18	C	0.980929	0.065848	0.000090
C19	C	1.515638	-0.044852	0.000014
C20	C	1.511833	-0.186483	0.000001
C21	C	1.630839	-0.284167	0.000015
C22	C	1.567961	-0.361528	-0.114626
C23	C	1.567919	-0.361480	0.114620
C24	C	1.449005	-0.261978	-0.114735
C25	C	1.448980	-0.261925	0.114614
C26	C	1.386015	-0.339237	-0.000055
C27	C	1.741580	0.181089	0.000023
C28	C	1.883210	0.184894	0.000016
C29	C	1.501256	0.421413	0.000029
C30	C	1.505061	0.563044	0.000033
N31	N	1.508432	0.188299	0.362280
N32	N	1.508472	0.188252	-0.362234
C33	C	1.418657	0.278016	0.453485
C34	C	1.534153	0.303817	0.546666
C35	C	1.392986	0.162508	0.546654
C36	C	1.623987	0.214157	0.453409
C37	C	1.482744	0.072798	0.453390
C38	C	1.598323	0.098550	0.546529
H39	H	0.956508	-0.037744	0.000153
H40	H	1.101515	0.078634	0.211785
Cl41	Cl	1.125424	0.051318	-0.264246
H42	H	1.398781	-0.218398	0.211540
Cl43	Cl	0.891542	0.325342	-0.264207
H44	H	1.342807	0.353958	0.412631
H45	H	1.618205	-0.405033	-0.211549
H46	H	1.398802	-0.218675	-0.211763
H47	H	1.282422	-0.363659	-0.000118
Cl48	Cl	1.645505	-0.428594	0.264257
Cl49	Cl	1.774784	0.247982	0.390448
Cl50	Cl	1.790654	-0.246076	-0.000157
H51	H	1.555907	0.401473	0.587636
H52	H	1.674344	0.022655	0.587126
Cl53	Cl	1.449102	-0.077930	0.390078
H54	H	1.060659	0.414190	0.000128
Cl55	Cl	0.891497	0.325361	0.264316
H56	H	1.295339	0.140715	0.587616
