data_functionalizedCrystal
_audit_creation_method	'MofGen! by Chris Wilmer'
_symmetry_space_group_name_H-M	'P1'
_symmetry_Int_Tables_number	1
_symmetry_cell_setting	triclinic
loop_
_symmetry_equiv_pos_as_xyz
  x,y,z
_cell_length_a	14.908571
_cell_length_b	16.959454
_cell_length_c	14.908308
_cell_angle_alpha	93.269679
_cell_angle_beta	90.175053
_cell_angle_gamma	86.716421
loop_
_atom_site_label
_atom_site_type_symbol
_atom_site_fract_x
_atom_site_fract_y
_atom_site_fract_z
Zn1	Zn	1.345297	-0.412496	-0.587603
Zn2	Zn	1.678631	-0.079163	-0.254269
Zn3	Zn	2.011964	0.254170	0.079064
Zn4	Zn	1.353878	-0.537521	-0.437249
Zn5	Zn	1.687211	-0.204188	-0.103916
Zn6	Zn	2.020545	0.129146	0.229417
Zn7	Zn	1.203612	-0.397314	-0.428600
Zn8	Zn	1.536946	-0.063981	-0.095266
Zn9	Zn	1.870279	0.269352	0.238067
Zn10	Zn	1.194906	-0.536582	-0.578901
Zn11	Zn	1.528239	-0.203248	-0.245567
Zn12	Zn	1.861572	0.130085	0.087766
O13	O	1.274423	-0.470978	-0.508088
O14	O	1.607757	-0.137645	-0.174755
O15	O	1.941090	0.195688	0.158579
O16	O	1.472261	-0.435828	-0.574920
O17	O	1.805595	-0.102495	-0.241586
O18	O	2.138928	0.230839	0.091747
O19	O	1.341180	-0.512961	-0.310277
O20	O	1.674513	-0.179628	0.023056
O21	O	2.007847	0.153705	0.356390
O22	O	1.222460	-0.288721	-0.449714
O23	O	1.555793	0.044612	-0.116380
O24	O	1.889126	0.377946	0.216953
O25	O	1.478566	-0.527683	-0.464456
O26	O	1.811899	-0.194350	-0.131122
O27	O	2.145232	0.138984	0.202211
O28	O	1.326555	-0.299875	-0.566532
O29	O	1.659888	0.033458	-0.233199
O30	O	1.993222	0.366791	0.100134
O31	O	1.230780	-0.409952	-0.303922
O32	O	1.564114	-0.076619	0.029411
O33	O	1.897447	0.256715	0.362745
O34	O	1.076631	-0.409042	-0.441276
O35	O	1.409965	-0.075708	-0.107943
O36	O	1.743298	0.257625	0.225391
O37	O	1.207621	-0.526082	-0.705880
O38	O	1.540954	-0.192749	-0.372547
O39	O	1.874287	0.140584	-0.039213
O40	O	1.070235	-0.511361	-0.551701
O41	O	1.403568	-0.178027	-0.218368
O42	O	1.736901	0.155306	0.114965
O43	O	1.318113	-0.434917	-0.712273
O44	O	1.651446	-0.101584	-0.378940
O45	O	1.984779	0.231749	-0.045607
O46	O	1.332737	-0.648003	-0.456018
O47	O	1.666071	-0.314670	-0.122684
O48	O	1.999404	0.018663	0.210649
O49	O	1.215941	-0.647313	-0.560089
O50	O	1.549274	-0.313980	-0.226755
O51	O	1.882608	0.019353	0.106578
C52	C	1.040808	-0.458452	-0.494606
C53	C	1.374141	-0.125119	-0.161273
C54	C	1.707474	0.208214	0.172060
C55	C	0.940865	-0.453114	-0.488860
C56	C	1.274198	-0.119780	-0.155527
C57	C	1.607531	0.213553	0.177807
C58	C	0.746458	-0.549777	-0.592894
C59	C	1.079791	-0.216443	-0.259561
C60	C	1.413124	0.116890	0.073773
C61	C	0.652552	-0.544763	-0.587498
C62	C	0.985885	-0.211430	-0.254165
C63	C	1.319219	0.121904	0.079169
C64	C	0.659146	-0.438070	-0.472677
C65	C	0.992479	-0.104737	-0.139344
C66	C	1.325813	0.228596	0.193989
C67	C	0.753052	-0.443084	-0.478073
C68	C	1.086385	-0.109750	-0.144740
C69	C	1.419718	0.223583	0.188593
C70	C	0.796704	-0.498940	-0.538183
C71	C	1.130037	-0.165606	-0.204849
C72	C	1.463371	0.167727	0.128484
C73	C	0.890612	-0.503956	-0.543574
C74	C	1.223945	-0.170623	-0.210240
C75	C	1.557278	0.162710	0.123093
C76	C	0.897204	-0.397260	-0.428758
C77	C	1.230537	-0.063927	-0.095425
C78	C	1.563870	0.269407	0.237909
C79	C	0.803298	-0.392247	-0.423362
C80	C	1.136631	-0.058913	-0.090029
C81	C	1.469965	0.274420	0.243305
C82	C	1.274349	-0.676340	-0.508068
C83	C	1.607682	-0.343007	-0.174735
C84	C	1.941016	-0.009673	0.158598
C85	C	1.274398	-0.764200	-0.508095
C86	C	1.607731	-0.430867	-0.174762
C87	C	1.941064	-0.097534	0.158572
C88	C	1.213691	-1.135352	-0.562276
C89	C	1.547025	-0.802018	-0.228943
C90	C	1.880358	-0.468685	0.104390
C91	C	1.335401	-1.136020	-0.454006
C92	C	1.668734	-0.802686	-0.120672
C93	C	2.002067	-0.469353	0.212661
C94	C	1.335370	-1.053472	-0.453996
C95	C	1.668703	-0.720138	-0.120662
C96	C	2.002036	-0.386805	0.212671
C97	C	1.274498	-1.011860	-0.508126
C98	C	1.607831	-0.678526	-0.174792
C99	C	1.941164	-0.345193	0.158541
C100	C	1.213657	-1.052796	-0.562266
C101	C	1.546990	-0.719462	-0.228933
C102	C	1.880323	-0.386129	0.104401
C103	C	1.396203	-1.012529	-0.399850
C104	C	1.729537	-0.679195	-0.066516
C105	C	2.062870	-0.345862	0.266817
C106	C	1.396174	-0.929976	-0.399837
C107	C	1.729508	-0.596642	-0.066503
C108	C	2.062841	-0.263309	0.266830
C109	C	1.335306	-0.888363	-0.453972
C110	C	1.668639	-0.555029	-0.120639
C111	C	2.001972	-0.221696	0.212694
C112	C	1.274463	-0.929304	-0.508115
C113	C	1.607796	-0.595971	-0.174782
C114	C	1.941130	-0.262637	0.158551
C115	C	1.213591	-0.887692	-0.562245
C116	C	1.546925	-0.554359	-0.228912
C117	C	1.880258	-0.221025	0.104421
C118	C	1.152752	-0.928632	-0.616394
C119	C	1.486085	-0.595299	-0.283061
C120	C	1.819419	-0.261966	0.050273
C121	C	1.152788	-1.011183	-0.616402
C122	C	1.486122	-0.677850	-0.283068
C123	C	1.819455	-0.344516	0.050265
C124	C	1.335269	-0.805812	-0.453965
C125	C	1.668603	-0.472479	-0.120631
C126	C	2.001936	-0.139145	0.212702
C127	C	1.213557	-0.805136	-0.562235
C128	C	1.546890	-0.471803	-0.228902
C129	C	1.880223	-0.138470	0.104432
C130	C	1.508951	-0.483554	-0.521623
C131	C	1.842284	-0.150220	-0.188290
C132	C	2.175618	0.183113	0.145044
C133	C	1.608893	-0.488913	-0.527391
C134	C	1.942226	-0.155579	-0.194057
C135	C	2.275560	0.177754	0.139276
C136	C	1.260938	-0.482089	-0.742614
C137	C	1.594272	-0.148755	-0.409281
C138	C	1.927605	0.184578	-0.075947
C139	C	1.255192	-0.486823	-0.842555
C140	C	1.588525	-0.153490	-0.509222
C141	C	1.921858	0.179843	-0.175888
C142	C	1.274521	-0.264817	-0.508129
C143	C	1.607855	0.068516	-0.174796
C144	C	1.941188	0.401850	0.158538
C145	C	1.274563	-0.176963	-0.508146
C146	C	1.607897	0.156370	-0.174813
C147	C	1.941230	0.489703	0.158520
C148	C	1.359446	-0.400771	-1.037013
C149	C	1.692779	-0.067438	-0.703680
C150	C	2.026113	0.265895	-0.370347
C151	C	1.354049	-0.405217	-1.130917
C152	C	1.687383	-0.071884	-0.797584
C153	C	2.020716	0.261449	-0.464250
C154	C	1.238998	-0.500156	-1.124267
C155	C	1.572331	-0.166823	-0.790934
C156	C	1.905665	0.166510	-0.457600
C157	C	1.244395	-0.495710	-1.030364
C158	C	1.577728	-0.162377	-0.697030
C159	C	1.911061	0.170956	-0.363697
C160	C	1.304622	-0.446017	-0.986740
C161	C	1.637955	-0.112684	-0.653407
C162	C	1.971288	0.220650	-0.320073
C163	C	1.310022	-0.441576	-0.892835
C164	C	1.643355	-0.108243	-0.559502
C165	C	1.976689	0.225091	-0.226168
C166	C	1.194967	-0.536510	-0.886187
C167	C	1.528300	-0.203177	-0.552853
C168	C	1.861633	0.130156	-0.219520
C169	C	1.189570	-0.540956	-0.980090
C170	C	1.522904	-0.207623	-0.646757
C171	C	1.856237	0.125710	-0.313424
C172	C	1.287908	-0.459857	-0.274478
C173	C	1.621241	-0.126524	0.058856
C174	C	1.954574	0.206810	0.392189
C175	C	1.293828	-0.454909	-0.174547
C176	C	1.627162	-0.121576	0.158786
C177	C	1.960495	0.211758	0.492119
H178	H	1.163990	-0.771261	-0.606318
H179	H	1.497324	-0.437928	-0.272985
H180	H	1.830657	-0.104594	0.060348
O181	O	1.461863	-1.057394	-0.341465
O182	O	1.795197	-0.724060	-0.008132
O183	O	2.128530	-0.390727	0.325201
H184	H	1.531518	-1.045993	-0.361015
H185	H	1.864851	-0.712660	-0.027682
H186	H	2.198184	-0.379327	0.305651
O187	O	1.374979	-0.387978	-0.845786
O188	O	1.708313	-0.054645	-0.512453
O189	O	2.041646	0.278688	-0.179119
H190	H	1.423178	-0.423780	-0.805645
H191	H	1.756512	-0.090447	-0.472312
H192	H	2.089845	0.242886	-0.138979
H193	H	0.767743	-0.346769	-0.374425
H194	H	1.101076	-0.013435	-0.041092
H195	H	1.434410	0.319898	0.292241
H196	H	1.140534	-0.581413	-1.015621
H197	H	1.473867	-0.248080	-0.682288
H198	H	1.807200	0.085253	-0.348955
H199	H	1.103186	-0.894742	-0.660463
H200	H	1.436519	-0.561409	-0.327130
H201	H	1.769852	-0.228075	0.006204
O202	O	1.135794	-0.585279	-0.831956
O203	O	1.469127	-0.251945	-0.498623
O204	O	1.802461	0.081388	-0.165290
H205	H	1.093002	-0.620570	-0.878070
H206	H	1.426335	-0.287237	-0.544736
H207	H	1.759668	0.046096	-0.211403
O208	O	0.612032	-0.377841	-0.407853
O209	O	0.945365	-0.044508	-0.074520
O210	O	1.278699	0.288825	0.258813
H211	H	0.629158	-0.317517	-0.424419
H212	H	0.962491	0.015816	-0.091086
H213	H	1.295825	0.349150	0.242247
O214	O	0.598400	-0.599664	-0.646465
O215	O	0.931733	-0.266331	-0.313132
O216	O	1.265067	0.067003	0.020202
H217	H	0.612380	-0.590561	-0.718110
H218	H	0.945714	-0.257228	-0.384777
H219	H	1.279047	0.076105	-0.051443
O220	O	0.951411	-0.342436	-0.369740
O221	O	1.284745	-0.009103	-0.036406
O222	O	1.618078	0.324230	0.296927
H223	H	0.937428	-0.351608	-0.298112
H224	H	1.270761	-0.018275	0.035221
H225	H	1.604094	0.315058	0.368555
O226	O	1.174039	-0.553743	-1.171331
O227	O	1.507372	-0.220409	-0.837998
O228	O	1.840705	0.112924	-0.504665
H229	H	1.136814	-0.584456	-1.120599
H230	H	1.470147	-0.251123	-0.787265
H231	H	1.803480	0.082211	-0.453932
H232	H	1.103256	-1.044524	-0.660485
H233	H	1.436589	-0.711190	-0.327152
H234	H	1.769922	-0.377857	0.006181
O235	O	1.401046	-1.180901	-0.395622
O236	O	1.734380	-0.847567	-0.062289
O237	O	2.067713	-0.514234	0.271044
H238	H	1.443342	-1.138564	-0.357969
H239	H	1.776676	-0.805231	-0.024636
H240	H	2.110009	-0.471898	0.308698
H241	H	1.408490	-0.360313	-1.001495
H242	H	1.741823	-0.026980	-0.668161
H243	H	2.075156	0.306353	-0.334828
H244	H	0.782000	-0.595261	-0.641833
H245	H	1.115334	-0.261927	-0.308499
H246	H	1.448667	0.071406	0.024834
O247	O	0.937700	-0.564192	-0.608407
O248	O	1.271034	-0.230859	-0.275074
O249	O	1.604367	0.102474	0.058259
H250	H	0.886980	-0.598693	-0.645553
H251	H	1.220313	-0.265359	-0.312219
H252	H	1.553646	0.067974	0.021114
H253	H	1.164160	-1.168689	-0.606365
H254	H	1.497493	-0.835356	-0.273032
H255	H	1.830827	-0.502022	0.060301
H256	H	1.445713	-0.896647	-0.355747
H257	H	1.779046	-0.563314	-0.022414
H258	H	2.112380	-0.229981	0.310919
H259	H	1.398691	-0.368371	-1.171846
H260	H	1.732024	-0.035038	-0.838513
H261	H	2.065357	0.298295	-0.505179
O262	O	1.400882	-0.761652	-0.395573
O263	O	1.734215	-0.428319	-0.062240
O264	O	2.067548	-0.094986	0.271093
H265	H	1.443217	-0.804457	-0.357937
H266	H	1.776550	-0.471123	-0.024604
H267	H	2.109884	-0.137790	0.308729
