data_functionalizedCrystal
_audit_creation_method	'MofGen! by Chris Wilmer'
_symmetry_space_group_name_H-M	'P1'
_symmetry_Int_Tables_number	1
_symmetry_cell_setting	triclinic
loop_
_symmetry_equiv_pos_as_xyz
  x,y,z
_cell_length_a	12.827893
_cell_length_b	13.032721
_cell_length_c	12.827893
_cell_angle_alpha	82.830576
_cell_angle_beta	90.003786
_cell_angle_gamma	97.204267
loop_
_atom_site_label
_atom_site_type_symbol
_atom_site_fract_x
_atom_site_fract_y
_atom_site_fract_z
Zn1	Zn	1.544592	-0.416240	0.643675
Zn2	Zn	1.877925	-0.082907	0.977009
Zn3	Zn	2.211259	0.250426	1.310342
Zn4	Zn	1.522321	-0.590959	0.491110
Zn5	Zn	1.855654	-0.257626	0.824444
Zn6	Zn	2.188987	0.075707	1.157777
Zn7	Zn	1.369883	-0.416222	0.468947
Zn8	Zn	1.703216	-0.082889	0.802280
Zn9	Zn	2.036550	0.250444	1.135613
Zn10	Zn	1.347607	-0.590950	0.665809
Zn11	Zn	1.680941	-0.257617	0.999142
Zn12	Zn	2.014274	0.075717	1.332476
O13	O	1.446101	-0.503593	0.567385
O14	O	1.779434	-0.170260	0.900719
O15	O	2.112767	0.163074	1.234052
O16	O	1.687872	-0.439428	0.623450
O17	O	2.021206	-0.106095	0.956783
O18	O	2.354539	0.227238	1.290116
O19	O	1.502101	-0.567776	0.341934
O20	O	1.835435	-0.234443	0.675267
O21	O	2.168768	0.098890	1.008600
O22	O	1.411701	-0.269980	0.473586
O23	O	1.745035	0.063353	0.806920
O24	O	2.078368	0.396687	1.140253
O25	O	1.671510	-0.567794	0.511361
O26	O	2.004843	-0.234460	0.844694
O27	O	2.338176	0.098873	1.178027
O28	O	1.540059	-0.269993	0.601959
O29	O	1.873393	0.063340	0.935292
O30	O	2.206726	0.396674	1.268625
O31	O	1.390106	-0.439398	0.325650
O32	O	1.723439	-0.106065	0.658984
O33	O	2.056773	0.227269	0.992317
O34	O	1.220693	-0.439389	0.495048
O35	O	1.554027	-0.106056	0.828382
O36	O	1.887360	0.227278	1.161715
O37	O	1.373736	-0.567778	0.809109
O38	O	1.707069	-0.234445	1.142443
O39	O	2.040403	0.098889	1.475776
O40	O	1.204328	-0.567761	0.639682
O41	O	1.537661	-0.234428	0.973016
O42	O	1.870994	0.098906	1.306349
O43	O	1.518460	-0.439420	0.792848
O44	O	1.851793	-0.106086	1.126181
O45	O	2.185126	0.227247	1.459514
O46	O	1.480502	-0.737203	0.532823
O47	O	1.813835	-0.403869	0.866156
O48	O	2.147168	-0.070536	1.199489
O49	O	1.352140	-0.737196	0.661173
O50	O	1.685474	-0.403863	0.994506
O51	O	2.018807	-0.070529	1.327840
C52	C	1.174593	-0.503573	0.567363
C53	C	1.507927	-0.170239	0.900696
C54	C	1.841260	0.163094	1.234029
C55	C	1.058438	-0.503589	0.567381
C56	C	1.391771	-0.170256	0.900715
C57	C	1.725105	0.163077	1.234048
C58	C	0.998570	-0.567211	0.638865
C59	C	1.331903	-0.233878	0.972199
C60	C	1.665237	0.099456	1.305532
C61	C	0.878517	-0.567230	0.638886
C62	C	1.211851	-0.233896	0.972219
C63	C	1.545184	0.099437	1.305553
C64	C	1.411515	-0.775119	0.601828
C65	C	1.744849	-0.441786	0.935161
C66	C	2.078182	-0.108452	1.268494
C67	C	1.396815	-0.891279	0.616597
C68	C	1.730149	-0.557946	0.949930
C69	C	2.063482	-0.224612	1.283264
C70	C	1.453828	-0.943035	0.559724
C71	C	1.787162	-0.609702	0.893057
C72	C	2.120495	-0.276369	1.226391
C73	C	1.438636	-1.063093	0.574988
C74	C	1.771970	-0.729760	0.908321
C75	C	2.105303	-0.396426	1.241654
C76	C	1.718668	-0.503614	0.567409
C77	C	2.052001	-0.170281	0.900742
C78	C	2.385335	0.163053	1.234075
C79	C	1.834820	-0.503623	0.567418
C80	C	2.168153	-0.170290	0.900752
C81	C	2.501487	0.163044	1.234085
C82	C	1.446097	-0.503600	0.839956
C83	C	1.779431	-0.170266	1.173290
C84	C	2.112764	0.163067	1.506623
C85	C	1.446096	-0.503603	0.956110
C86	C	1.779429	-0.170269	1.289443
C87	C	2.112762	0.163064	1.622776
C88	C	1.480850	-0.231007	0.532831
C89	C	1.814183	0.102327	0.866165
C90	C	2.147516	0.435660	1.199498
C91	C	1.495657	-0.114847	0.518107
C92	C	1.828991	0.218487	0.851440
C93	C	2.162324	0.551820	1.184773
C94	C	1.517702	-0.440095	0.999849
C95	C	1.851035	-0.106761	1.333182
C96	C	2.184368	0.226572	1.666515
C97	C	1.517702	-0.440096	1.119899
C98	C	1.851035	-0.106763	1.453233
C99	C	2.184368	0.226570	1.786566
C100	C	1.446093	-0.503610	1.295877
C101	C	1.779427	-0.170276	1.629211
C102	C	2.112760	0.163057	1.962544
C103	C	1.446095	-0.503607	1.179724
C104	C	1.779428	-0.170273	1.513057
C105	C	2.112762	0.163060	1.846391
H106	H	0.886267	-0.449155	0.506212
H107	H	1.219601	-0.115822	0.839545
H108	H	1.552934	0.217512	1.172879
H109	H	1.384786	-0.557969	1.007539
H110	H	1.718119	-0.224635	1.340872
H111	H	2.051452	0.108698	1.674206
H112	H	1.036194	-0.621662	0.700053
H113	H	1.369527	-0.288329	1.033386
H114	H	1.702861	0.045004	1.366720
H115	H	1.020815	-0.449130	0.506200
H116	H	1.354149	-0.115797	0.839534
H117	H	1.687482	0.217536	1.172867
H118	H	0.827063	-0.621701	0.700083
H119	H	1.160396	-0.288368	1.033417
H120	H	1.493730	0.044965	1.366750
Br121	Br	1.619894	-0.349476	1.182637
Br122	Br	1.953227	-0.016143	1.515970
Br123	Br	2.286561	0.317190	1.849304
Br124	Br	1.553943	-0.868758	0.459740
Br125	Br	1.887276	-0.535425	0.793074
Br126	Br	2.220610	-0.202091	1.126407
Br127	Br	1.338536	-1.137366	0.674994
Br128	Br	1.671869	-0.804033	1.008328
Br129	Br	2.005203	-0.470700	1.341661
Br130	Br	1.595775	-1.040576	0.418116
Br131	Br	1.929108	-0.707243	0.751449
Br132	Br	2.262442	-0.373910	1.084782
Br133	Br	1.296719	-0.965556	0.716599
Br134	Br	1.630053	-0.632223	1.049933
Br135	Br	1.963386	-0.298890	1.383266
Br136	Br	1.343915	-0.594247	1.116996
Br137	Br	1.677248	-0.260914	1.450329
Br138	Br	2.010581	0.072420	1.783662
H139	H	1.579003	-0.385718	0.948418
H140	H	1.912336	-0.052385	1.281751
H141	H	2.245669	0.280948	1.615085
