data_functionalizedCrystal
_audit_creation_method	'MofGen! by Chris Wilmer'
_symmetry_space_group_name_H-M	'P1'
_symmetry_Int_Tables_number	1
_symmetry_cell_setting	triclinic
loop_
_symmetry_equiv_pos_as_xyz
  x,y,z
_cell_length_a	18.215407
_cell_length_b	12.827892
_cell_length_c	18.215399
_cell_angle_alpha	89.974036
_cell_angle_beta	90.017368
_cell_angle_gamma	89.977439
loop_
_atom_site_label
_atom_site_type_symbol
_atom_site_fract_x
_atom_site_fract_y
_atom_site_fract_z
Zn1	Zn	1.125071	0.416115	0.416078
Zn2	Zn	1.124979	0.590874	0.293016
Zn3	Zn	1.002003	0.416140	0.293030
Zn4	Zn	1.001969	0.590807	0.416046
O5	O	1.063505	0.503484	0.354542
O6	O	1.228043	0.439315	0.399760
O7	O	1.108642	0.567734	0.190033
O8	O	1.018381	0.269901	0.309372
O9	O	1.227975	0.567710	0.309347
O10	O	1.108799	0.269882	0.399775
O11	O	1.018292	0.439358	0.190044
O12	O	0.899014	0.439292	0.309341
O13	O	1.018322	0.567595	0.519034
O14	O	0.898989	0.567619	0.399720
O15	O	1.108765	0.439250	0.519058
O16	O	1.108608	0.737101	0.309316
O17	O	1.018233	0.737052	0.399706
C18	C	0.872299	0.503452	0.354529
C19	C	0.790500	0.503463	0.354541
C20	C	0.602340	0.436746	0.401694
C21	C	0.525482	0.436755	0.401696
C22	C	0.525422	0.570252	0.307404
C23	C	0.602280	0.570237	0.307398
C24	C	0.640737	0.503485	0.354547
C25	C	0.487021	0.503509	0.354555
C26	C	0.403687	0.503520	0.354558
C27	C	0.724076	0.503473	0.354544
C28	C	1.063427	0.774994	0.354522
C29	C	1.063461	0.891147	0.354538
C30	C	1.108176	0.942839	0.399311
C31	C	1.108212	1.062890	0.399329
C32	C	1.255458	0.503517	0.354556
C33	C	1.337257	0.503531	0.354561
C34	C	1.063550	0.503412	0.546495
C35	C	1.063569	0.503381	0.628294
C36	C	1.063574	1.230914	0.354573
C37	C	1.063527	1.114761	0.354570
C38	C	1.063503	0.503481	0.163336
C39	C	1.063627	0.503217	0.081538
C40	C	1.110680	0.436489	0.816502
C41	C	1.110688	0.436459	0.893360
C42	C	1.016511	0.570112	0.893325
C43	C	1.016499	0.570136	0.816467
C44	C	1.063588	0.503327	0.778058
C45	C	1.063608	0.503272	0.931774
C46	C	1.063617	0.503239	1.015108
C47	C	1.063578	0.503357	0.694719
H48	H	0.494223	0.382407	0.440087
H49	H	1.146429	0.898221	0.437633
F50	F	1.158255	1.120991	0.449429
H51	H	1.025245	1.070314	0.316233
F52	F	1.013452	0.949465	0.304455
F53	F	1.160793	0.365382	0.775626
F54	F	0.966402	0.641215	0.934209
H55	H	0.494101	0.624599	0.269017
H56	H	1.149034	0.382032	0.924658
H57	H	0.633650	0.382389	0.440083
F58	F	0.643146	0.641265	0.257209
H59	H	0.978146	0.624562	0.785166
