data_functionalizedCrystal
_audit_creation_method	'MofGen! by Chris Wilmer'
_symmetry_space_group_name_H-M	'P1'
_symmetry_Int_Tables_number	1
_symmetry_cell_setting	triclinic
loop_
_symmetry_equiv_pos_as_xyz
  x,y,z
_cell_length_a	6.817900
_cell_length_b	11.102288
_cell_length_c	9.514088
_cell_angle_alpha	88.634974
_cell_angle_beta	118.843545
_cell_angle_gamma	108.605689
loop_
_atom_site_label
_atom_site_type_symbol
_atom_site_fract_x
_atom_site_fract_y
_atom_site_fract_z
V1	V	-4.243923	-0.178092	-0.500743
O2	O	-4.200435	0.006240	-0.491211
O3	O	-4.219795	-0.350897	-0.497319
O4	O	-4.278445	-0.176370	-0.719135
O5	O	-4.141379	-0.169496	-0.267860
V6	V	-4.713661	-0.155924	-0.472888
O7	O	-4.535420	-0.226720	-0.561845
O8	O	-4.872362	-0.107296	-0.411787
O9	O	-4.514583	0.016881	-0.476313
O10	O	-4.874546	-0.340256	-0.482421
O11	O	-4.933602	-0.164520	-0.705772
O12	O	-4.455933	-0.157646	-0.254497
C13	C	-4.068017	-0.392991	-0.489419
C14	C	-4.130129	-0.534268	-0.488075
C15	C	-4.142830	-0.170363	-0.772365
C16	C	-4.252499	-0.170099	-0.950901
C17	C	-4.345435	-0.607150	-0.495456
C18	C	-4.403793	-0.739895	-0.494206
C19	C	-4.031511	-0.726865	-0.478186
C20	C	-3.973165	-0.594123	-0.479448
C21	C	-4.329702	0.058969	-0.484208
C22	C	-4.246833	0.200244	-0.485563
C23	C	-4.254888	-0.163657	-0.201258
C24	C	-4.124455	-0.163915	-0.022720
H25	H	-4.579113	-0.799231	-0.500219
O26	O	-4.483462	-0.176336	-1.040697
C27	C	-4.617000	-0.287263	-1.159993
H28	H	-4.491628	-0.318584	-1.185127
H29	H	-4.753960	-0.264888	-1.276585
H30	H	-4.713395	-0.368013	-1.114738
H31	H	-4.473248	-0.558420	-0.502478
H32	H	-3.903722	-0.775615	-0.471159
O33	O	-3.763854	-0.523498	-0.472195
C34	C	-3.637841	-0.604792	-0.464336
H35	H	-3.699583	-0.694793	-0.414700
H36	H	-3.438040	-0.551858	-0.380768
H37	H	-3.674000	-0.633461	-0.591183
O38	O	-3.893715	-0.158049	-0.933026
C39	C	-3.886110	-0.268530	-0.857363
H40	H	-4.053431	-0.310985	-0.846744
H41	H	-3.720825	-0.241152	-0.730978
H42	H	-3.877924	-0.342788	-0.933181
