data_functionalizedCrystal
_audit_creation_method	'MofGen! by Chris Wilmer'
_symmetry_space_group_name_H-M	'P1'
_symmetry_Int_Tables_number	1
_symmetry_cell_setting	triclinic
loop_
_symmetry_equiv_pos_as_xyz
  x,y,z
_cell_length_a	25.639242
_cell_length_b	25.639240
_cell_length_c	19.805399
_cell_angle_alpha	89.964092
_cell_angle_beta	89.972605
_cell_angle_gamma	90.028283
loop_
_atom_site_label
_atom_site_type_symbol
_atom_site_fract_x
_atom_site_fract_y
_atom_site_fract_z
Zn1	Zn	0.799274	-0.208225	-0.382822
Zn2	Zn	1.299274	0.291775	0.117178
Zn3	Zn	0.799198	-0.295659	-0.269617
Zn4	Zn	1.299198	0.204341	0.230383
Zn5	Zn	0.711842	-0.208233	-0.269631
Zn6	Zn	1.211842	0.291767	0.230369
Zn7	Zn	0.711804	-0.295625	-0.382748
Zn8	Zn	1.211804	0.204375	0.117252
O9	O	0.755529	-0.251936	-0.326204
O10	O	1.255529	0.248064	0.173796
O11	O	0.872429	-0.219835	-0.367830
O12	O	1.372429	0.280165	0.132170
O13	O	0.787594	-0.284080	-0.174902
O14	O	1.287594	0.215920	0.325098
O15	O	0.723487	-0.135067	-0.284682
O16	O	1.223487	0.364933	0.215318
O17	O	0.872373	-0.284072	-0.284659
O18	O	1.372373	0.215928	0.215341
O19	O	0.787723	-0.135061	-0.367843
O20	O	1.287723	0.364939	0.132157
O21	O	0.723414	-0.219848	-0.174912
O22	O	1.223414	0.280152	0.325088
O23	O	0.638672	-0.219814	-0.284611
O24	O	1.138672	0.280186	0.215389
O25	O	0.723423	-0.284013	-0.477475
O26	O	1.223423	0.215987	0.022525
O27	O	0.638644	-0.284021	-0.367718
O28	O	1.138644	0.215979	0.132282
O29	O	0.787686	-0.219801	-0.477529
O30	O	1.287686	0.280199	0.022471
O31	O	0.787558	-0.368820	-0.284588
O32	O	1.287558	0.131180	0.215412
O33	O	0.723350	-0.368794	-0.367705
O34	O	1.223350	0.131206	0.132295
C35	C	0.619687	-0.251915	-0.326159
C36	C	1.119687	0.248085	0.173841
C37	C	0.561573	-0.251919	-0.326155
C38	C	1.061573	0.248081	0.173845
C39	C	0.755456	-0.387778	-0.326151
C40	C	1.255456	0.112222	0.173849
C41	C	0.755472	-0.445892	-0.326151
C42	C	1.255472	0.054108	0.173849
C43	C	0.201204	-0.285424	-0.369437
C44	C	0.701204	0.214576	0.130563
C45	C	0.146600	-0.285427	-0.369448
C46	C	0.646600	0.214573	0.130552
O47	O	0.118358	-0.313888	-0.406209
O48	O	0.618358	0.186112	0.093791
N49	N	0.119290	-0.251950	-0.326249
N50	N	0.619290	0.248050	0.173751
C51	C	0.146588	-0.218464	-0.283041
C52	C	0.646588	0.281536	0.216959
O53	O	0.118345	-0.189989	-0.246298
O54	O	0.618345	0.310011	0.253702
C55	C	0.201191	-0.218458	-0.283034
C56	C	0.701191	0.281542	0.216966
C57	C	0.228498	-0.251941	-0.326231
C58	C	0.728498	0.248059	0.173769
C59	C	0.228511	-0.318903	-0.412631
C60	C	0.728511	0.181097	0.087369
C61	C	0.283111	-0.318901	-0.412620
C62	C	0.783111	0.181099	0.087380
C63	C	0.310405	-0.285418	-0.369414
C64	C	0.810405	0.214582	0.130586
C65	C	0.283099	-0.251939	-0.326219
C66	C	0.783099	0.248061	0.173781
C67	C	0.228488	-0.184970	-0.239830
C68	C	0.728488	0.315030	0.260170
C69	C	0.283095	-0.184967	-0.239827
C70	C	0.783095	0.315033	0.260173
C71	C	0.310402	-0.218450	-0.283025
C72	C	0.810402	0.281550	0.216975
C73	C	0.364993	-0.218454	-0.283002
C74	C	0.864993	0.281546	0.216998
N75	N	0.392302	-0.251931	-0.326201
N76	N	0.892302	0.248069	0.173799
C77	C	0.365009	-0.285413	-0.369407
C78	C	0.865009	0.214587	0.130593
C79	C	0.031917	-0.218477	-0.283059
C80	C	0.531917	0.281523	0.216941
C81	C	-0.022685	-0.218485	-0.283062
C82	C	0.477315	0.281515	0.216938
C83	C	-0.022669	-0.285447	-0.369470
C84	C	0.477331	0.214553	0.130530
C85	C	0.031934	-0.285442	-0.369463
C86	C	0.531934	0.214558	0.130537
C87	C	0.059227	-0.251954	-0.326258
C88	C	0.559227	0.248046	0.173742
C89	C	0.479674	-0.285405	-0.369379
C90	C	0.979674	0.214595	0.130621
C91	C	0.534279	-0.285401	-0.369361
C92	C	1.034279	0.214599	0.130639
C93	C	0.534259	-0.218437	-0.282956
C94	C	1.034259	0.281563	0.217044
C95	C	0.479658	-0.218443	-0.282970
C96	C	0.979658	0.281557	0.217030
C97	C	0.452367	-0.251929	-0.326187
C98	C	0.952367	0.248071	0.173813
O99	O	0.393269	-0.190005	-0.246261
O100	O	0.893269	0.309995	0.253739
O101	O	0.393258	-0.313878	-0.406150
O102	O	0.893258	0.186122	0.093850
C103	C	0.788994	-0.806214	-0.369584
C104	C	1.288994	-0.306214	0.130416
C105	C	0.789009	-0.860818	-0.369598
C106	C	1.289009	-0.360818	0.130402
O107	O	0.817423	-0.889020	-0.406472
O108	O	1.317423	-0.389020	0.093528
N109	N	0.755602	-0.888175	-0.326270
N110	N	1.255602	-0.388175	0.173730
C111	C	0.722174	-0.860924	-0.282930
C112	C	1.222174	-0.360924	0.217070
O113	O	0.693759	-0.889207	-0.246077
O114	O	1.193759	-0.389207	0.253923
C115	C	0.722156	-0.806321	-0.282920
C116	C	1.222156	-0.306321	0.217080
C117	C	0.755569	-0.778967	-0.326246
C118	C	1.255569	-0.278967	0.173754
C119	C	0.822403	-0.778860	-0.412908
C120	C	1.322403	-0.278860	0.087092
C121	C	0.822388	-0.724260	-0.412893
C122	C	1.322388	-0.224260	0.087107
C123	C	0.788964	-0.697013	-0.369555
C124	C	1.288964	-0.197013	0.130445
C125	C	0.755554	-0.724366	-0.326231
C126	C	1.255554	-0.224366	0.173769
C127	C	0.688725	-0.779071	-0.239584
C128	C	1.188725	-0.279071	0.260416
C129	C	0.688710	-0.724464	-0.239578
C130	C	1.188710	-0.224464	0.260422
C131	C	0.722123	-0.697110	-0.282904
C132	C	1.222123	-0.197110	0.217096
C133	C	0.722115	-0.642519	-0.282879
C134	C	1.222115	-0.142519	0.217121
N135	N	0.755522	-0.615163	-0.326207
N136	N	1.255522	-0.115163	0.173793
C137	C	0.788946	-0.642409	-0.369545
C138	C	1.288946	-0.142409	0.130455
C139	C	0.722213	-0.975594	-0.282955
C140	C	1.222213	-0.475594	0.217045
C141	C	0.722233	-1.030197	-0.282961
C142	C	1.222233	-0.530197	0.217039
C143	C	0.789067	-1.030087	-0.369630
C144	C	1.289067	-0.530087	0.130370
C145	C	0.789050	-0.975484	-0.369620
C146	C	1.289050	-0.475484	0.130380
C147	C	0.755620	-0.948238	-0.326283
C148	C	1.255620	-0.448238	0.173717
C149	C	0.788913	-0.527744	-0.369510
C150	C	1.288913	-0.027744	0.130490
C151	C	0.788896	-0.473139	-0.369489
C152	C	1.288896	0.026861	0.130511
C153	C	0.722060	-0.473253	-0.282823
C154	C	1.222060	0.026747	0.217177
C155	C	0.722078	-0.527854	-0.282841
C156	C	1.222078	-0.027854	0.217159
C157	C	0.755506	-0.555098	-0.326190
C158	C	1.255506	-0.055098	0.173810
O159	O	0.693714	-0.614283	-0.246025
O160	O	1.193714	-0.114283	0.253975
O161	O	0.817351	-0.614120	-0.406397
O162	O	1.317351	-0.114120	0.093603
C163	C	0.891902	-0.251957	-0.326251
C164	C	1.391902	0.248043	0.173749
C165	C	0.950016	-0.251966	-0.326271
C166	C	1.450016	0.248034	0.173729
C167	C	0.755559	-0.251903	-0.502747
C168	C	1.255559	0.248097	-0.002747
C169	C	0.755571	-0.251889	-0.577979
C170	C	1.255571	0.248111	-0.077979
C171	C	0.755618	-0.115562	-0.326272
C172	C	1.255618	0.384438	0.173728
C173	C	0.755656	-0.057448	-0.326302
C174	C	1.255656	0.442552	0.173698
C175	C	0.789034	-0.218452	-0.613353
C176	C	1.289034	0.281548	-0.113353
C177	C	0.789039	-0.218437	-0.684041
C178	C	1.289039	0.281563	-0.184041
C179	C	0.755584	-0.251861	-0.719355
C180	C	1.255584	0.248139	-0.219355
C181	C	0.722118	-0.285300	-0.683977
C182	C	1.222118	0.214700	-0.183977
C183	C	0.722110	-0.285312	-0.613289
C184	C	1.222110	0.214688	-0.113289
C185	C	0.722147	-0.285251	-0.969050
C186	C	1.222147	0.214749	-0.469050
C187	C	0.722159	-0.285237	-1.039742
C188	C	1.222159	0.214763	-0.539742
C189	C	0.789077	-0.218376	-1.039802
C190	C	1.289077	0.281624	-0.539802
C191	C	0.789069	-0.218388	-0.969115
C192	C	1.289069	0.281612	-0.469115
C193	C	0.755601	-0.251824	-0.933742
C194	C	1.255601	0.248176	-0.433742
C195	C	0.755595	-0.251839	-0.857094
C196	C	1.255595	0.248161	-0.357094
C197	C	0.755593	-0.251849	-0.796002
C198	C	1.255593	0.248151	-0.296002
C199	C	0.755530	-0.251931	-0.150348
C200	C	1.255530	0.248069	0.349652
C201	C	0.755619	-0.251797	-0.075117
C202	C	1.255619	0.248203	0.424883
H203	H	0.556510	-0.312669	-0.404538
H204	H	1.056510	0.187331	0.095462
C205	C	0.825238	-0.443414	-0.416422
C206	C	1.325238	0.056586	0.083578
C207	C	0.858770	-0.412075	-0.378140
C208	C	1.358770	0.087925	0.121860
C209	C	0.892258	-0.384693	-0.421350
C210	C	1.392258	0.115307	0.078650
H211	H	0.805279	-0.422067	-0.445894
H212	H	1.305279	0.077933	0.054106
H213	H	0.845175	-0.467448	-0.442224
H214	H	1.345175	0.032552	0.057776
H215	H	0.838836	-0.388044	-0.352350
H216	H	1.338836	0.111956	0.147650
H217	H	0.878741	-0.433409	-0.348670
H218	H	1.378741	0.066591	0.151330
H219	H	0.912195	-0.408727	-0.447151
H220	H	1.412195	0.091273	0.052849
H221	H	0.872295	-0.363349	-0.450820
H222	H	1.372295	0.136651	0.049180
H223	H	0.915016	-0.363430	-0.395382
H224	H	1.415016	0.136570	0.104618
C225	C	-0.052242	-0.321768	-0.416496
C226	C	0.447758	0.178232	0.083504
C227	C	-0.038916	-0.310457	-0.483490
C228	C	0.461084	0.189543	0.016510
C229	C	-0.066144	-0.343907	-0.526824
C230	C	0.433856	0.156093	-0.026824
H231	H	-0.088680	-0.317006	-0.410404
H232	H	0.411320	0.182994	0.089596
H233	H	-0.043305	-0.356897	-0.406544
H234	H	0.456695	0.143103	0.093456
H235	H	-0.047857	-0.275336	-0.493438
H236	H	0.452143	0.224664	0.006562
H237	H	-0.002483	-0.315222	-0.489603
H238	H	0.497517	0.184778	0.010397
H239	H	-0.057206	-0.379036	-0.516873
H240	H	0.442794	0.120964	-0.016873
H241	H	-0.102580	-0.339142	-0.520726
H242	H	0.397420	0.160858	-0.020726
H243	H	-0.057102	-0.336241	-0.572284
H244	H	0.442898	0.163759	-0.072284
C245	C	0.825261	-0.557224	-0.416603
C246	C	1.325261	-0.057224	0.083397
C247	C	0.854521	-0.521573	-0.454525
C248	C	1.354521	-0.021573	0.045475
C249	C	0.888015	-0.548710	-0.497905
C250	C	1.388015	-0.048710	0.002095
H251	H	0.805312	-0.578522	-0.446134
H252	H	1.305312	-0.078522	0.053866
H253	H	0.848091	-0.578513	-0.390769
H254	H	1.348091	-0.078513	0.109231
H255	H	0.831694	-0.500292	-0.480357
H256	H	1.331694	-0.000292	0.019643
H257	H	0.874481	-0.500274	-0.425011
H258	H	1.374481	-0.000274	0.074989
H259	H	0.910845	-0.569999	-0.472072
H260	H	1.410845	-0.069999	0.027928
H261	H	0.868062	-0.570007	-0.527433
H262	H	1.368062	-0.070007	-0.027433
H263	H	0.907875	-0.524525	-0.523636
H264	H	1.407875	-0.024525	-0.023636
H265	H	0.816283	-1.052281	-0.404919
H266	H	1.316283	-0.552281	0.095081
H267	H	0.661517	-0.801333	-0.204303
H268	H	1.161517	-0.301333	0.295697
H269	H	0.816279	-0.191235	-0.584605
H270	H	1.316279	0.308765	-0.084605
C271	C	0.685869	-0.321637	-0.930696
C272	C	1.185869	0.178363	-0.430696
C273	C	0.697224	-0.373369	-0.947855
C274	C	1.197224	0.126631	-0.447855
C275	C	0.663814	-0.406903	-0.912530
C276	C	1.163814	0.093097	-0.412530
H277	H	0.650732	-0.314039	-0.942253
H278	H	1.150732	0.185961	-0.442253
H279	H	0.690649	-0.316896	-0.883531
H280	H	1.190649	0.183104	-0.383531
H281	H	0.692439	-0.378108	-0.995009
H282	H	1.192439	0.121892	-0.495009
H283	H	0.732355	-0.380984	-0.936296
H284	H	1.232355	0.119016	-0.436296
H285	H	0.668594	-0.402162	-0.865365
H286	H	1.168594	0.097838	-0.365365
H287	H	0.628678	-0.399300	-0.924090
H288	H	1.128678	0.100700	-0.424090
H289	H	0.671516	-0.442007	-0.924163
H290	H	1.171516	0.057993	-0.424163
H291	H	0.816289	-0.191210	-0.712839
H292	H	1.316289	0.308790	-0.212839
C293	C	0.825411	-0.182040	-0.930897
C294	C	1.325411	0.317960	-0.430897
C295	C	0.854708	-0.152743	-0.977006
C296	C	1.354708	0.347257	-0.477006
C297	C	0.888186	-0.119247	-0.941825
C298	C	1.388186	0.380753	-0.441825
H299	H	0.848223	-0.201989	-0.903317
H300	H	1.348223	0.298011	-0.403317
H301	H	0.805432	-0.159233	-0.903340
H302	H	1.305432	0.340767	-0.403340
H303	H	0.874686	-0.175546	-1.004550
H304	H	1.374686	0.324454	-0.504550
H305	H	0.831911	-0.132783	-1.004586
H306	H	1.331911	0.367217	-0.504586
H307	H	0.868207	-0.096440	-0.914269
H308	H	1.368207	0.403560	-0.414269
H309	H	0.910994	-0.139200	-0.914247
H310	H	1.410994	0.360800	-0.414247
H311	H	0.908065	-0.099361	-0.973105
H312	H	1.408065	0.400639	-0.473105
C313	C	0.858598	-0.694595	-0.460053
C314	C	1.358598	-0.194595	0.039947
C315	C	0.847172	-0.707842	-0.527005
C316	C	1.347172	-0.207842	-0.027005
C317	C	0.880514	-0.680525	-0.570472
C318	C	1.380514	-0.180525	-0.070472
H319	H	0.893753	-0.703503	-0.450289
H320	H	1.393753	-0.203503	0.049711
H321	H	0.853803	-0.658166	-0.453893
H322	H	1.353803	-0.158166	0.046107
H323	H	0.851972	-0.744263	-0.533162
H324	H	1.351972	-0.244263	-0.033162
H325	H	0.812023	-0.698933	-0.536790
H326	H	1.312023	-0.198933	-0.036790
H327	H	0.875718	-0.644096	-0.564312
H328	H	1.375718	-0.144096	-0.064312
H329	H	0.915667	-0.689435	-0.560702
H330	H	1.415667	-0.189435	-0.060702
H331	H	0.872763	-0.689506	-0.615904
H332	H	1.372763	-0.189506	-0.115904
C333	C	0.685715	-0.321532	-0.574850
C334	C	1.185715	0.178468	-0.074850
C335	C	0.652207	-0.291933	-0.534283
C336	C	1.152207	0.208067	-0.034283
C337	C	0.618666	-0.325281	-0.498874
C338	C	1.118666	0.174719	0.001126
H339	H	0.705636	-0.344332	-0.547217
H340	H	1.205636	0.155668	-0.047217
H341	H	0.665764	-0.341428	-0.605987
H342	H	1.165764	0.158572	-0.105987
H343	H	0.672156	-0.272046	-0.503150
H344	H	1.172156	0.227954	-0.003150
H345	H	0.632274	-0.269134	-0.561900
H346	H	1.132274	0.230866	-0.061900
H347	H	0.598714	-0.345176	-0.530011
H348	H	1.098714	0.154824	-0.030011
H349	H	0.638591	-0.348080	-0.471244
H350	H	1.138591	0.151920	0.028756
H351	H	0.595923	-0.305202	-0.471349
H352	H	1.095923	0.194798	0.028651
C353	C	0.685893	-0.557581	-0.235711
C354	C	1.185893	-0.057581	0.264289
C355	C	0.715524	-0.588926	-0.192367
C356	C	1.215524	-0.088926	0.307633
C357	C	0.682205	-0.616308	-0.148939
C358	C	1.182205	-0.116308	0.351061
H359	H	0.663092	-0.578924	-0.261496
H360	H	1.163092	-0.078924	0.238504
H361	H	0.665997	-0.533546	-0.209857
H362	H	1.165997	-0.033546	0.290143
H363	H	0.735411	-0.612958	-0.218217
H364	H	1.235411	-0.112958	0.281783
H365	H	0.738323	-0.567597	-0.166567
H366	H	1.238323	-0.067597	0.333433
H367	H	0.662309	-0.592273	-0.123085
H368	H	1.162309	-0.092273	0.376915
H369	H	0.659406	-0.637647	-0.174729
H370	H	1.159406	-0.137647	0.325271
H371	H	0.702305	-0.637575	-0.119520
H372	H	1.202305	-0.137575	0.380480
H373	H	0.816257	-0.953216	-0.404900
H374	H	1.316257	-0.453216	0.095100
H375	H	0.816326	-0.191148	-1.068610
H376	H	1.316326	0.308852	-0.568610
C377	C	0.652393	-0.694978	-0.192451
C378	C	1.152393	-0.194978	0.307549
C379	C	0.623147	-0.730625	-0.154504
C380	C	1.123147	-0.230625	0.345496
C381	C	0.589692	-0.703483	-0.111078
C382	C	1.089692	-0.203483	0.388922
H383	H	0.629548	-0.673677	-0.218232
H384	H	1.129548	-0.173677	0.281768
H385	H	0.672386	-0.673691	-0.162942
H386	H	1.172386	-0.173691	0.337058
H387	H	0.603155	-0.751903	-0.184009
H388	H	1.103155	-0.251903	0.315991
H389	H	0.645978	-0.751926	-0.128709
H390	H	1.145978	-0.251926	0.371291
H391	H	0.609684	-0.682196	-0.081569
H392	H	1.109684	-0.182196	0.418431
H393	H	0.566850	-0.682183	-0.136865
H394	H	1.066850	-0.182183	0.363135
H395	H	0.569848	-0.727665	-0.085322
H396	H	1.069848	-0.227665	0.414678
C397	C	0.858612	-0.808464	-0.460047
C398	C	1.358612	-0.308464	0.039953
C399	C	0.829007	-0.839802	-0.503414
C400	C	1.329007	-0.339802	-0.003414
C401	C	0.862349	-0.867070	-0.546853
C402	C	1.362349	-0.367070	-0.046853
H403	H	0.881424	-0.829802	-0.434270
H404	H	1.381424	-0.329802	0.065730
H405	H	0.878494	-0.784362	-0.485882
H406	H	1.378494	-0.284362	0.014118
H407	H	0.809133	-0.863901	-0.477581
H408	H	1.309133	-0.363901	0.022419
H409	H	0.806196	-0.818476	-0.529206
H410	H	1.306196	-0.318476	-0.029206
H411	H	0.882232	-0.842968	-0.572688
H412	H	1.382232	-0.342968	-0.072688
H413	H	0.885160	-0.888405	-0.521071
H414	H	1.385160	-0.388405	-0.021071
H415	H	0.842267	-0.888332	-0.576287
H416	H	1.342267	-0.388332	-0.076287
C417	C	0.685790	-0.443570	-0.235847
C418	C	1.185790	0.056430	0.264153
C419	C	0.692921	-0.389897	-0.245129
C420	C	1.192921	0.110103	0.254871
C421	C	0.659510	-0.362536	-0.201877
C422	C	1.159510	0.137464	0.298123
H423	H	0.693427	-0.452474	-0.190353
H424	H	1.193427	0.047526	0.309647
H425	H	0.650647	-0.452509	-0.245717
H426	H	1.150647	0.047491	0.254283
H427	H	0.728055	-0.380963	-0.235254
H428	H	1.228055	0.119037	0.264746
H429	H	0.685280	-0.380978	-0.290614
H430	H	1.185280	0.119022	0.209386
H431	H	0.624367	-0.371474	-0.211747
H432	H	1.124367	0.128526	0.288253
H433	H	0.667150	-0.371444	-0.156385
H434	H	1.167150	0.128556	0.343615
H435	H	0.664340	-0.326116	-0.208172
H436	H	1.164340	0.173884	0.291828
C437	C	0.563829	-0.182002	-0.236084
C438	C	1.063829	0.317998	0.263916
C439	C	0.550569	-0.130287	-0.250943
C440	C	1.050569	0.369713	0.249057
C441	C	0.577794	-0.096707	-0.207775
C442	C	1.077794	0.403293	0.292225
H443	H	0.600268	-0.186725	-0.242223
H444	H	1.100268	0.313275	0.257777
H445	H	0.554845	-0.189576	-0.190577
H446	H	1.054845	0.310424	0.309423
H447	H	0.559556	-0.122716	-0.296439
H448	H	1.059556	0.377284	0.203561
H449	H	0.514135	-0.125548	-0.244800
H450	H	1.014135	0.374452	0.255200
H451	H	0.568810	-0.104281	-0.162268
H452	H	1.068810	0.395719	0.337732
H453	H	0.614231	-0.101434	-0.213918
H454	H	1.114231	0.398566	0.286082
H455	H	0.568797	-0.061615	-0.217847
H456	H	1.068797	0.438385	0.282153
H457	H	0.695030	-1.052464	-0.247673
H458	H	1.195030	-0.552464	0.252327
H459	H	0.694913	-0.312457	-1.068493
H460	H	1.194913	0.187543	-0.568493
C461	C	0.685881	-0.321654	-0.722352
C462	C	1.185881	0.178346	-0.222352
C463	C	0.715468	-0.355173	-0.762914
C464	C	1.215468	0.144827	-0.262914
C465	C	0.682106	-0.388676	-0.798267
C466	C	1.182106	0.111324	-0.298267
H467	H	0.663107	-0.301706	-0.749984
H468	H	1.163107	0.198294	-0.249984
H469	H	0.665958	-0.341600	-0.691181
H470	H	1.165958	0.158400	-0.191181
H471	H	0.735382	-0.335229	-0.794081
H472	H	1.235382	0.164771	-0.294081
H473	H	0.738241	-0.375133	-0.735299
H474	H	1.238241	0.124867	-0.235299
H475	H	0.662183	-0.408622	-0.767096
H476	H	1.162183	0.091378	-0.267096
H477	H	0.659333	-0.368723	-0.825895
H478	H	1.159333	0.131277	-0.325895
H479	H	0.702176	-0.411425	-0.825787
H480	H	1.202176	0.088575	-0.325787
H481	H	-0.044913	-0.191225	-0.247879
H482	H	0.455087	0.308775	0.252121
H483	H	0.206264	-0.157706	-0.204652
H484	H	0.706264	0.342294	0.295348
H485	H	0.457460	-0.312671	-0.404571
H486	H	0.957460	0.187329	0.095429
H487	H	0.054163	-0.312706	-0.404639
H488	H	0.554163	0.187294	0.095361
H489	H	0.206294	-0.346169	-0.447819
H490	H	0.706294	0.153831	0.052181
C491	C	0.685900	-0.946110	-0.235818
C492	C	1.185900	-0.446110	0.264182
C493	C	0.656661	-0.981760	-0.197867
C494	C	1.156661	-0.481760	0.302133
C495	C	0.623209	-0.954621	-0.154433
C496	C	1.123209	-0.454621	0.345567
H497	H	0.663051	-0.924810	-0.261593
H498	H	1.163051	-0.424810	0.238407
H499	H	0.705895	-0.924823	-0.206312
H500	H	1.205895	-0.424823	0.293688
H501	H	0.636667	-1.003038	-0.227369
H502	H	1.136667	-0.503038	0.272631
H503	H	0.679496	-1.003061	-0.172078
H504	H	1.179496	-0.503061	0.327922
H505	H	0.643204	-0.933334	-0.124927
H506	H	1.143204	-0.433334	0.375073
H507	H	0.600364	-0.933322	-0.180214
H508	H	1.100364	-0.433322	0.319786
H509	H	0.603370	-0.978805	-0.128673
H510	H	1.103370	-0.478805	0.371327
H511	H	0.054136	-0.191208	-0.247871
H512	H	0.554136	0.308792	0.252129
C513	C	0.312725	-0.355185	-0.459642
C514	C	0.812725	0.144815	0.040358
C515	C	0.299480	-0.343853	-0.526637
C516	C	0.799480	0.156147	-0.026637
C517	C	0.326750	-0.377263	-0.569977
C518	C	0.826750	0.122737	-0.069977
H519	H	0.303777	-0.390324	-0.449742
H520	H	0.803777	0.109676	0.050258
H521	H	0.349161	-0.350389	-0.453503
H522	H	0.849161	0.149611	0.046497
H523	H	0.263053	-0.348654	-0.532772
H524	H	0.763053	0.151346	-0.032772
H525	H	0.308430	-0.308721	-0.536558
H526	H	0.808430	0.191279	-0.036558
H527	H	0.363186	-0.372467	-0.563839
H528	H	0.863186	0.127533	-0.063839
H529	H	0.317800	-0.412400	-0.560071
H530	H	0.817800	0.087600	-0.060071
H531	H	0.317771	-0.369576	-0.615438
H532	H	0.817771	0.130424	-0.115438
C533	C	0.312632	-0.148591	-0.192838
C534	C	0.812632	0.351409	0.307162
C535	C	0.277026	-0.119284	-0.155000
C536	C	0.777026	0.380716	0.345000
C537	C	0.304215	-0.085777	-0.111699
C538	C	0.804215	0.414223	0.388301
H539	H	0.333959	-0.125788	-0.218703
H540	H	0.833959	0.374212	0.281297
H541	H	0.333897	-0.168550	-0.163254
H542	H	0.833897	0.331450	0.336746
H543	H	0.255771	-0.099327	-0.184580
H544	H	0.755771	0.400673	0.315420
H545	H	0.255698	-0.142073	-0.129121
H546	H	0.755698	0.357927	0.370879
H547	H	0.325480	-0.105735	-0.082115
H548	H	0.825480	0.394265	0.417885
H549	H	0.325541	-0.062977	-0.137570
H550	H	0.825541	0.437023	0.362430
H551	H	0.280061	-0.065891	-0.086017
H552	H	0.780061	0.434109	0.413983
H553	H	0.457424	-0.191179	-0.247794
H554	H	0.957424	0.308821	0.252206
