data_functionalizedCrystal
_audit_creation_method	'MofGen! by Chris Wilmer'
_symmetry_space_group_name_H-M	'P1'
_symmetry_Int_Tables_number	1
_symmetry_cell_setting	triclinic
loop_
_symmetry_equiv_pos_as_xyz
  x,y,z
_cell_length_a	13.897449
_cell_length_b	13.897448
_cell_length_c	10.686551
_cell_angle_alpha	85.592616
_cell_angle_beta	85.604174
_cell_angle_gamma	90.018972
loop_
_atom_site_label
_atom_site_type_symbol
_atom_site_fract_x
_atom_site_fract_y
_atom_site_fract_z
Zn1	Zn	1.516569	-0.342068	-0.713463
Zn2	Zn	1.504081	-0.515777	-0.502453
Zn3	Zn	1.342877	-0.354500	-0.502476
Zn4	Zn	1.355236	-0.503330	-0.713403
O5	O	1.429691	-0.428919	-0.607949
O6	O	1.649895	-0.365117	-0.685488
O7	O	1.472298	-0.504795	-0.325875
O8	O	1.365972	-0.217867	-0.530498
O9	O	1.640720	-0.492741	-0.530460
O10	O	1.493583	-0.208734	-0.685510
O11	O	1.353863	-0.386305	-0.325891
O12	O	1.209534	-0.374236	-0.530440
O13	O	1.387036	-0.471527	-0.889993
O14	O	1.218614	-0.483581	-0.685407
O15	O	1.505567	-0.353048	-0.890037
O16	O	1.484282	-0.649110	-0.530402
O17	O	1.374927	-0.639965	-0.685385
C18	C	1.179075	-0.428908	-0.607920
C19	C	1.071862	-0.428924	-0.607938
C20	C	1.429618	-0.679535	-0.607912
C21	C	1.429678	-0.786748	-0.607939
C22	C	0.875569	-0.428926	-0.607971
C23	C	0.984800	-0.428922	-0.607949
C24	C	1.429784	-0.983038	-0.608018
C25	C	1.429723	-0.873808	-0.607978
C26	C	1.681286	-0.428931	-0.607978
C27	C	1.788500	-0.428936	-0.607991
C28	C	1.449073	-0.409512	-0.937081
C29	C	1.457333	-0.401242	-1.077337
C30	C	1.429792	-0.177322	-0.608013
C31	C	1.429835	-0.070107	-0.608040
C32	C	1.410440	-0.448180	-0.280097
C33	C	1.402367	-0.456178	-0.139842
H34	H	1.348993	-0.509541	-1.086054
C35	C	1.529451	-0.329157	-1.149997
H36	H	1.525728	-0.332864	-1.237896
H37	H	1.593000	-0.344534	-1.128457
H38	H	1.514102	-0.265596	-1.128478
