data_functionalizedCrystal
_audit_creation_method	'MofGen! by Chris Wilmer'
_symmetry_space_group_name_H-M	'P1'
_symmetry_Int_Tables_number	1
_symmetry_cell_setting	triclinic
loop_
_symmetry_equiv_pos_as_xyz
  x,y,z
_cell_length_a	15.995350
_cell_length_b	16.109301
_cell_length_c	15.186229
_cell_angle_alpha	89.997109
_cell_angle_beta	89.998050
_cell_angle_gamma	96.523072
loop_
_atom_site_label
_atom_site_type_symbol
_atom_site_fract_x
_atom_site_fract_y
_atom_site_fract_z
O1	O	0.107619	-1.103163	0.073168
O2	O	0.607619	-0.603163	0.573168
O3	O	0.121013	-0.861104	0.073182
O4	O	0.621013	-0.361104	0.573182
O5	O	-0.007573	-0.988750	0.073174
O6	O	0.492427	-0.488750	0.573174
O7	O	0.236206	-0.975517	0.073176
O8	O	0.736206	-0.475517	0.573176
O9	O	-0.007566	-0.988736	-0.073283
O10	O	0.492434	-0.488736	0.426717
O11	O	0.121020	-0.861090	-0.073275
O12	O	0.621020	-0.361090	0.426725
O13	O	0.107627	-1.103148	-0.073289
O14	O	0.607627	-0.603148	0.426711
Zn15	Zn	0.114325	-0.982116	-0.096535
Zn16	Zn	0.614325	-0.482116	0.403465
Zn17	Zn	0.114315	-0.982136	0.096428
Zn18	Zn	0.614315	-0.482136	0.596428
O19	O	0.236213	-0.975502	-0.073281
O20	O	0.736213	-0.475502	0.426719
C21	C	0.120474	-0.830122	-0.000045
C22	C	0.620474	-0.330122	0.499955
C23	C	0.118848	-0.737826	-0.000040
C24	C	0.618848	-0.237826	0.499960
C25	C	-0.038764	-0.988196	-0.000053
C26	C	0.461236	-0.488196	0.499947
C27	C	-0.131714	-0.986556	-0.000048
C28	C	0.368286	-0.486556	0.499952
C29	C	0.108166	-1.134130	-0.000060
C30	C	0.608166	-0.634130	0.499940
C31	C	0.109792	-1.226426	-0.000059
C32	C	0.609792	-0.726426	0.499941
C33	C	-0.469460	-0.980665	-0.000050
C34	C	0.030540	-0.480665	0.499950
C35	C	-0.422001	-0.889758	0.000283
C36	C	0.077999	-0.389758	0.500283
C37	C	-0.325311	-0.891399	-0.000047
C38	C	0.174689	-0.391399	0.499953
C39	C	-0.301900	-0.983587	-0.000049
C40	C	0.198100	-0.483587	0.499951
C41	C	-0.342986	-1.028417	-0.083684
C42	C	0.157014	-0.528417	0.416316
C43	C	-0.439621	-1.026133	-0.083754
C44	C	0.060379	-0.526133	0.416246
C45	C	-0.439988	-1.028028	0.082795
C46	C	0.060012	-0.528028	0.582795
C47	C	-0.343042	-1.028007	0.083901
C48	C	0.156958	-0.528007	0.583901
C49	C	-0.207203	-0.985243	-0.000051
C50	C	0.292797	-0.485243	0.499949
C51	C	-0.564157	-0.979012	-0.000054
C52	C	-0.064157	-0.479012	0.499946
C53	C	0.267404	-0.976056	-0.000052
C54	C	0.767404	-0.476056	0.499948
C55	C	0.360354	-0.977697	-0.000051
C56	C	0.860354	-0.477697	0.499949
N57	N	0.114331	-0.982109	-0.228228
N58	N	0.614331	-0.482109	0.271772
C59	C	0.191366	-0.515573	-0.000049
C60	C	0.691366	-0.015573	0.499951
C61	C	0.189831	-0.428853	-0.000055
C62	C	0.689831	0.071147	0.499945
C63	C	0.037268	-0.448686	-0.000053
C64	C	0.537268	0.051314	0.499947
C65	C	0.038804	-0.535405	-0.000053
C66	C	0.538804	-0.035405	0.499947
C67	C	0.115855	-0.568846	-0.000047
C68	C	0.615855	-0.068846	0.499953
C69	C	0.112785	-0.395406	-0.000052
C70	C	0.612785	0.104594	0.499948
C71	C	0.111120	-0.301380	-0.000058
C72	C	0.611120	0.198620	0.499942
C73	C	0.117520	-0.662879	-0.000043
C74	C	0.617520	-0.162879	0.499957
C75	C	0.165117	-1.032546	-0.453953
C76	C	0.665117	-0.532546	0.046047
C77	C	0.165111	-1.032555	-0.546143
C78	C	0.665111	-0.532555	-0.046143
C79	C	0.063511	-0.931711	-0.546147
C80	C	0.563511	-0.431711	-0.046147
C81	C	0.063513	-0.931706	-0.453959
C82	C	0.563513	-0.431706	0.046041
C83	C	0.114321	-0.982123	-0.407865
C84	C	0.614321	-0.482123	0.092135
C85	C	0.114313	-0.982136	-0.592242
C86	C	0.614313	-0.482136	-0.092242
C87	C	0.114306	-0.982145	-0.692198
C88	C	0.614306	-0.482145	-0.192198
C89	C	0.114327	-0.982115	-0.307902
C90	C	0.614327	-0.482115	0.192098
N91	N	0.114302	-0.982150	0.228121
N92	N	0.614302	-0.482150	0.728121
H93	H	-0.296883	-0.856159	0.059906
H94	H	0.203117	-0.356159	0.559906
Br95	Br	-0.297078	-0.973836	0.187042
Br96	Br	0.202922	-0.473836	0.687042
H97	H	0.022146	-0.890662	-0.583689
H98	H	0.522146	-0.390662	-0.083689
Br99	Br	0.295935	-0.560956	-0.000044
Br100	Br	0.795935	-0.060956	0.499956
H101	H	-0.460523	-0.998313	0.146186
H102	H	0.039477	-0.498313	0.646186
H103	H	-0.327699	-1.095235	0.088949
H104	H	0.172301	-0.595235	0.588949
Br105	Br	-0.063683	-0.607710	-0.000062
Br106	Br	0.436317	-0.107710	0.499938
H107	H	0.206487	-1.073599	-0.416426
H108	H	0.706487	-0.573599	0.083574
Br109	Br	0.292315	-0.356556	-0.000062
Br110	Br	0.792315	0.143444	0.499938
Br111	Br	-0.067297	-0.403296	-0.000058
Br112	Br	0.432703	0.096704	0.499942
Br113	Br	0.234047	-1.100994	-0.608689
Br114	Br	0.734047	-0.600994	-0.108689
H115	H	-0.471767	-1.095054	0.083356
H116	H	0.028233	-0.595054	0.583356
H117	H	0.022144	-0.890645	-0.416433
H118	H	0.522144	-0.390645	0.083567
Br119	Br	-0.455036	-0.829281	-0.098814
Br120	Br	0.044964	-0.329281	0.401186
H121	H	-0.440526	-0.853430	0.060260
H122	H	0.059474	-0.353430	0.560260
H123	H	-0.297434	-0.855909	-0.060099
H124	H	0.202566	-0.355909	0.439901
H125	H	-0.471887	-1.092876	-0.087550
H126	H	0.028113	-0.592876	0.412450
Br127	Br	-0.470109	-0.971624	-0.187951
Br128	Br	0.029891	-0.471624	0.312049
Br129	Br	-0.295666	-0.976503	-0.187421
Br130	Br	0.204334	-0.476503	0.312579
Br131	Br	-0.319478	-1.141304	-0.088875
Br132	Br	0.180522	-0.641304	0.411125
