data_functionalizedCrystal
_audit_creation_method	'MofGen! by Chris Wilmer'
_symmetry_space_group_name_H-M	'P1'
_symmetry_Int_Tables_number	1
_symmetry_cell_setting	triclinic
loop_
_symmetry_equiv_pos_as_xyz
  x,y,z
_cell_length_a	12.645331
_cell_length_b	29.839131
_cell_length_c	12.645323
_cell_angle_alpha	89.967288
_cell_angle_beta	89.977324
_cell_angle_gamma	90.040399
loop_
_atom_site_label
_atom_site_type_symbol
_atom_site_fract_x
_atom_site_fract_y
_atom_site_fract_z
Zn1	Zn	1.620556	-0.178862	-0.599388
Zn2	Zn	1.620365	-0.253994	-0.422104
Zn3	Zn	1.443271	-0.178877	-0.422133
Zn4	Zn	1.443179	-0.253964	-0.599320
O5	O	1.531843	-0.216424	-0.510736
O6	O	1.768878	-0.188834	-0.575888
O7	O	1.596831	-0.244048	-0.273761
O8	O	1.466907	-0.116008	-0.445687
O9	O	1.768737	-0.244033	-0.445638
O10	O	1.597158	-0.115997	-0.575916
O11	O	1.466721	-0.188860	-0.273782
O12	O	1.294912	-0.188832	-0.445620
O13	O	1.466751	-0.243983	-0.747676
O14	O	1.294844	-0.243998	-0.575799
O15	O	1.597069	-0.188806	-0.747727
O16	O	1.596742	-0.316857	-0.445571
O17	O	1.466565	-0.316835	-0.575771
C18	C	1.256413	-0.216414	-0.510706
C19	C	1.138583	-0.216420	-0.510718
C20	C	0.971026	-0.181555	-0.429274
C21	C	1.093586	-0.181645	-0.428915
C22	C	1.094017	-0.263746	-0.480188
C23	C	0.971418	-0.263555	-0.479632
C24	C	0.971445	-0.204409	-0.623006
C25	C	1.094052	-0.203352	-0.622382
C26	C	1.531651	-0.333147	-0.510684
C27	C	1.531667	-0.383081	-0.510697
C28	C	1.599749	-0.692723	-0.443041
C29	C	1.599880	-0.880396	-0.443082
O30	O	1.657615	-0.904660	-0.385518
N31	N	1.532063	-0.903866	-0.510816
C32	C	1.464212	-0.880415	-0.578550
O33	O	1.406540	-0.904684	-0.636171
C34	C	1.464088	-0.692743	-0.578514
C35	C	1.531902	-0.669275	-0.510767
C36	C	1.667559	-0.669256	-0.375300
C37	C	1.667522	-0.622340	-0.375287
C38	C	1.599674	-0.598892	-0.443013
C39	C	1.531865	-0.622360	-0.510753
C40	C	1.396244	-0.669293	-0.646252
C41	C	1.396220	-0.622372	-0.646239
C42	C	1.464035	-0.598904	-0.578492
C43	C	1.463980	-0.551997	-0.578466
N44	N	1.531798	-0.528527	-0.510732
C45	C	1.599645	-0.551975	-0.443005
C46	C	1.464281	-0.978946	-0.578563
C47	C	1.464311	-1.025864	-0.578571
C48	C	1.599980	-1.025842	-0.443104
C49	C	1.599945	-0.978923	-0.443091
C50	C	1.532099	-0.955476	-0.510829
C51	C	1.599560	-0.453449	-0.442981
C52	C	1.599514	-0.406529	-0.442970
C53	C	1.463849	-0.406555	-0.578441
C54	C	1.463891	-0.453471	-0.578448
C55	C	1.531755	-0.476916	-0.510715
O56	O	1.406284	-0.527704	-0.636009
O57	O	1.657325	-0.527697	-0.385409
C58	C	1.599787	-0.739639	-0.443054
C59	C	1.531977	-0.763106	-0.510794
C60	C	1.464130	-0.739659	-0.578521
C61	C	1.532007	-0.810024	-0.510802
C62	C	1.599854	-0.833472	-0.443076
C63	C	1.667672	-0.810002	-0.375341
C64	C	1.667634	-0.763087	-0.375328
C65	C	1.396312	-0.763129	-0.646256
C66	C	1.396354	-0.810044	-0.646263
C67	C	1.464202	-0.833492	-0.578536
C68	C	1.808348	-0.216435	-0.510768
C69	C	1.926178	-0.216440	-0.510781
C70	C	1.531921	-0.216390	-0.787242
C71	C	1.531954	-0.216375	-0.905072
C72	C	1.532064	-0.099246	-0.510812
C73	C	1.532158	-0.049312	-0.510845
C74	C	1.449718	-0.250923	-1.072604
C75	C	1.449934	-0.251094	-0.950044
C76	C	1.643641	-0.229224	-0.949588
C77	C	1.643190	-0.229441	-1.072186
C78	C	1.503559	-0.168784	-1.072285
C79	C	1.501067	-0.169069	-0.949679
C80	C	1.531826	-0.216427	-0.235307
C81	C	1.531998	-0.216315	-0.117477
H82	H	1.123721	-0.146552	-0.448053
Cl83	Cl	1.310998	-0.698783	-0.731438
Cl84	Cl	0.927171	-0.279305	-0.352964
H85	H	1.468704	-0.286331	-0.920719
Cl86	Cl	0.923368	-0.193686	-0.301635
H87	H	1.341064	-0.744041	-0.701408
H88	H	0.940582	-0.170502	-0.650768
H89	H	1.124662	-0.274123	-0.399026
H90	H	1.418876	-0.159379	-0.920582
Cl91	Cl	1.322065	-0.238678	-0.903568
Cl92	Cl	1.139057	-0.149587	-0.657941
Cl93	Cl	0.926665	-0.243637	-0.716769
H94	H	1.124687	-0.226907	-0.686360
Cl95	Cl	1.685272	-1.055327	-0.357961
H96	H	1.655165	-0.959818	-0.387927
Cl97	Cl	1.379042	-1.055360	-0.663729
H98	H	1.722745	-0.603236	-0.320125
H99	H	1.668166	-0.263606	-0.918888
Cl100	Cl	1.138996	-0.304949	-0.568971
Cl101	Cl	1.740831	-0.191538	-0.904622
Cl102	Cl	1.321462	-0.238627	-1.118102
H103	H	1.409030	-0.959858	-0.633725
Cl104	Cl	1.684773	-0.377030	-0.357797
Cl105	Cl	0.925604	-0.305045	-0.567280
H106	H	1.654824	-0.472533	-0.387828
H107	H	1.722814	-0.688342	-0.320149
H108	H	1.340973	-0.603284	-0.701402
Cl109	Cl	1.378616	-0.482974	-0.663595
H110	H	1.408605	-0.387457	-0.633580
H111	H	1.722855	-0.743983	-0.320162
Cl112	Cl	1.478351	-0.304980	-1.120245
Cl113	Cl	1.752962	-0.839488	-0.290198
Cl114	Cl	1.680412	-0.283086	-1.116346
Cl115	Cl	1.586850	-0.127153	-0.902433
Cl116	Cl	1.311092	-0.839540	-0.731438
H117	H	0.941597	-0.146356	-0.448207
Cl118	Cl	1.740989	-0.192188	-1.118024
H119	H	1.423538	-0.157071	-1.103193
H120	H	1.563489	-0.142999	-1.101307
H121	H	1.122856	-0.189597	-0.345753
