data_functionalizedCrystal
_audit_creation_method	'MofGen! by Chris Wilmer'
_symmetry_space_group_name_H-M	'P1'
_symmetry_Int_Tables_number	1
_symmetry_cell_setting	triclinic
loop_
_symmetry_equiv_pos_as_xyz
  x,y,z
_cell_length_a	29.839134
_cell_length_b	29.839131
_cell_length_c	29.839125
_cell_angle_alpha	90.017709
_cell_angle_beta	90.021980
_cell_angle_gamma	90.036281
loop_
_atom_site_label
_atom_site_type_symbol
_atom_site_fract_x
_atom_site_fract_y
_atom_site_fract_z
Zn1	Zn	0.686720	-0.178978	0.254125
Zn2	Zn	1.186720	0.321022	0.754125
Zn3	Zn	0.686652	-0.254090	0.178995
Zn4	Zn	1.186652	0.245910	0.678995
Zn5	Zn	0.611602	-0.178968	0.178995
Zn6	Zn	1.111602	0.321032	0.678995
Zn7	Zn	0.611550	-0.254075	0.254083
Zn8	Zn	1.111550	0.245925	0.754083
O9	O	0.649131	-0.216528	0.216549
O10	O	1.149131	0.283472	0.716549
O11	O	0.749578	-0.188952	0.244176
O12	O	1.249578	0.311048	0.744176
O13	O	0.676690	-0.244127	0.116128
O14	O	1.176690	0.255873	0.616128
O15	O	0.621617	-0.116102	0.188978
O16	O	1.121617	0.383898	0.688978
O17	O	0.749528	-0.244137	0.188979
O18	O	1.249528	0.255863	0.688979
O19	O	0.676805	-0.116109	0.244176
O20	O	1.176805	0.383891	0.744176
O21	O	0.621551	-0.188935	0.116127
O22	O	1.121551	0.311065	0.616127
O23	O	0.548728	-0.188921	0.188938
O24	O	1.048728	0.311079	0.688938
O25	O	0.621528	-0.244111	0.316956
O26	O	1.121528	0.255889	0.816956
O27	O	0.548690	-0.244101	0.244105
O28	O	1.048690	0.255899	0.744105
O29	O	0.676755	-0.188937	0.316987
O30	O	1.176755	0.311063	0.816987
O31	O	0.676639	-0.316955	0.188938
O32	O	1.176639	0.183045	0.688938
O33	O	0.621462	-0.316944	0.244105
O34	O	1.121462	0.183056	0.744105
C35	C	0.532408	-0.216509	0.216517
C36	C	1.032408	0.283491	0.716517
C37	C	0.482474	-0.216511	0.216514
C38	C	0.982474	0.283489	0.716514
C39	C	0.172820	-0.245303	0.245240
C40	C	0.672820	0.254697	0.745240
C41	C	-0.014853	-0.245315	0.245260
C42	C	0.485147	0.254685	0.745260
O43	O	-0.039127	-0.269774	0.269665
O44	O	0.460873	0.230226	0.769665
N45	N	-0.038311	-0.216544	0.216583
N46	N	0.461689	0.283456	0.716583
C47	C	-0.014848	-0.187766	0.187902
C48	C	0.485152	0.312234	0.687902
O49	O	-0.039107	-0.163291	0.163514
O50	O	0.460893	0.336709	0.663514
C51	C	0.172824	-0.187751	0.187884
C52	C	0.672824	0.312249	0.687884
C53	C	0.196280	-0.216527	0.216560
C54	C	0.696280	0.283473	0.716560
C55	C	0.196276	-0.274076	0.273913
C56	C	0.696276	0.225924	0.773913
C57	C	0.243191	-0.274075	0.273906
C58	C	0.743191	0.225925	0.773906
C59	C	0.266651	-0.245299	0.245226
C60	C	0.766651	0.254701	0.745226
C61	C	0.243195	-0.216526	0.216553
C62	C	0.743195	0.283474	0.716553
C63	C	0.196286	-0.158971	0.159205
C64	C	0.696286	0.341029	0.659205
C65	C	0.243207	-0.158969	0.159204
C66	C	0.743207	0.341031	0.659204
C67	C	0.266663	-0.187745	0.187880
C68	C	0.766663	0.312255	0.687880
C69	C	0.313570	-0.187749	0.187865
C70	C	0.813570	0.312251	0.687865
N71	N	0.337029	-0.216520	0.216542
N72	N	0.837029	0.283480	0.716542
C73	C	0.313569	-0.245295	0.245222
C74	C	0.813569	0.254705	0.745222
C75	C	-0.113379	-0.187776	0.187912
C76	C	0.386621	0.312224	0.687912
C77	C	-0.160297	-0.187780	0.187916
C78	C	0.339703	0.312220	0.687916
C79	C	-0.160298	-0.245329	0.245275
C80	C	0.339702	0.254671	0.745275
C81	C	-0.113380	-0.245327	0.245269
C82	C	0.386620	0.254673	0.745269
C83	C	-0.089921	-0.216547	0.216589
C84	C	0.410079	0.283453	0.716589
C85	C	0.412095	-0.245290	0.245205
C86	C	0.912095	0.254710	0.745205
C87	C	0.459014	-0.245287	0.245194
C88	C	0.959014	0.254713	0.745194
C89	C	0.459012	-0.187736	0.187837
C90	C	0.959012	0.312264	0.687837
C91	C	0.412096	-0.187740	0.187846
C92	C	0.912096	0.312260	0.687846
C93	C	0.388639	-0.216519	0.216534
C94	C	0.888639	0.283481	0.716534
O95	O	0.337873	-0.163299	0.163477
O96	O	0.837873	0.336701	0.663477
O97	O	0.337836	-0.269759	0.269613
O98	O	0.837836	0.230241	0.769613
C99	C	0.125905	-0.245304	0.245247
C100	C	0.625905	0.254696	0.745247
C101	C	0.102449	-0.216531	0.216574
C102	C	0.602449	0.283469	0.716574
C103	C	0.125909	-0.187755	0.187893
C104	C	0.625909	0.312245	0.687893
C105	C	0.055531	-0.216535	0.216577
C106	C	0.555531	0.283465	0.716577
C107	C	0.032071	-0.245310	0.245258
C108	C	0.532071	0.254690	0.745258
C109	C	0.055529	-0.274082	0.273934
C110	C	0.555529	0.225918	0.773934
C111	C	0.102445	-0.274080	0.273927
C112	C	0.602445	0.225920	0.773927
C113	C	0.102451	-0.158984	0.159217
C114	C	0.602451	0.341016	0.659217
C115	C	0.055535	-0.158989	0.159226
C116	C	0.555535	0.341011	0.659226
C117	C	0.032075	-0.187764	0.187906
C118	C	0.532075	0.312236	0.687906
C119	C	0.649050	-0.333250	0.216527
C120	C	1.149050	0.166750	0.716527
C121	C	0.649056	-0.383185	0.216533
C122	C	1.149056	0.116815	0.716533
C123	C	0.677914	-0.692821	0.187866
C124	C	1.177914	-0.192821	0.687866
C125	C	0.677969	-0.880494	0.187883
C126	C	1.177969	-0.380494	0.687883
O127	O	0.702441	-0.904753	0.163493
O128	O	1.202441	-0.404753	0.663493
N129	N	0.649224	-0.903970	0.216583
N130	N	1.149224	-0.403970	0.716583
C131	C	0.620465	-0.880524	0.245283
C132	C	1.120465	-0.380524	0.745283
O133	O	0.596020	-0.904798	0.269698
O134	O	1.096020	-0.404798	0.769698
C135	C	0.620412	-0.692852	0.245268
C136	C	1.120412	-0.192852	0.745268
C137	C	0.649156	-0.669379	0.216563
C138	C	1.149156	-0.169379	0.716563
C139	C	0.706656	-0.669348	0.159164
C140	C	1.206656	-0.169348	0.659164
C141	C	0.706640	-0.622433	0.159158
C142	C	1.206640	-0.122433	0.659158
C143	C	0.677882	-0.598990	0.187854
C144	C	1.177882	-0.098990	0.687854
C145	C	0.649140	-0.622463	0.216557
C146	C	1.149140	-0.122463	0.716557
C147	C	0.591656	-0.669407	0.273969
C148	C	1.091656	-0.169407	0.773969
C149	C	0.591646	-0.622486	0.273964
C150	C	1.091646	-0.122486	0.773964
C151	C	0.620390	-0.599013	0.245259
C152	C	1.120390	-0.099013	0.745259
C153	C	0.620367	-0.552106	0.245248
C154	C	1.120367	-0.052106	0.745248
N155	N	0.649112	-0.528630	0.216548
N156	N	1.149112	-0.028630	0.716548
C157	C	0.677869	-0.552072	0.187851
C158	C	1.177869	-0.052072	0.687851
C159	C	0.620494	-0.979055	0.245289
C160	C	1.120494	-0.479055	0.745289
C161	C	0.620507	-1.025973	0.245292
C162	C	1.120507	-0.525973	0.745292
C163	C	0.678012	-1.025939	0.187893
C164	C	1.178012	-0.525939	0.687893
C165	C	0.677996	-0.979021	0.187887
C166	C	1.177996	-0.479021	0.687887
C167	C	0.649239	-0.955579	0.216589
C168	C	1.149239	-0.455579	0.716589
C169	C	0.677834	-0.453547	0.187841
C170	C	1.177834	0.046453	0.687841
C171	C	0.677814	-0.406627	0.187836
C172	C	1.177814	0.093373	0.687836
C173	C	0.620311	-0.406664	0.245237
C174	C	1.120311	0.093336	0.745237
C175	C	0.620329	-0.453580	0.245240
C176	C	1.120329	0.046420	0.745240
C177	C	0.649094	-0.477020	0.216540
C178	C	1.149094	0.022980	0.716540
O179	O	0.595912	-0.527818	0.269629
O180	O	1.095912	-0.027818	0.769629
O181	O	0.702318	-0.527791	0.163447
O182	O	1.202318	-0.027791	0.663447
C183	C	0.677930	-0.739737	0.187872
C184	C	1.177930	-0.239737	0.687872
C185	C	0.649188	-0.763210	0.216574
C186	C	1.149188	-0.263210	0.716574
C187	C	0.620430	-0.739767	0.245271
C188	C	1.120430	-0.239767	0.745271
C189	C	0.649200	-0.810128	0.216578
C190	C	1.149200	-0.310128	0.716578
C191	C	0.677958	-0.833570	0.187881
C192	C	1.177958	-0.333570	0.687881
C193	C	0.706703	-0.810094	0.159181
C194	C	1.206703	-0.310094	0.659181
C195	C	0.706687	-0.763179	0.159175
C196	C	1.206687	-0.263179	0.659175
C197	C	0.591685	-0.763243	0.273971
C198	C	1.091685	-0.263243	0.773971
C199	C	0.591703	-0.810158	0.273974
C200	C	1.091703	-0.310158	0.773974
C201	C	0.620461	-0.833601	0.245277
C202	C	1.120461	-0.333601	0.745277
C203	C	0.766309	-0.216547	0.216582
C204	C	1.266309	0.283453	0.716582
C205	C	0.816244	-0.216555	0.216596
C206	C	1.316244	0.283445	0.716596
C207	C	0.649143	-0.216524	0.333728
C208	C	1.149143	0.283476	0.833728
C209	C	0.649148	-0.216522	0.383662
C210	C	1.149148	0.283478	0.883662
C211	C	0.649225	-0.099349	0.216582
C212	C	1.149225	0.400651	0.716582
C213	C	0.649265	-0.049415	0.216595
C214	C	1.149265	0.450585	0.716595
C215	C	0.649145	-0.216499	0.099827
C216	C	1.149145	0.283501	0.599827
C217	C	0.649227	-0.216374	0.049893
C218	C	1.149227	0.283626	0.549893
C219	C	0.677935	-0.187718	0.693325
C220	C	1.177935	0.312282	1.193325
C221	C	0.677957	-0.187680	0.880998
C222	C	1.177957	0.312320	1.380998
O223	O	0.702399	-0.163232	0.905279
O224	O	1.202399	0.336768	1.405279
N225	N	0.649208	-0.216402	0.904448
N226	N	1.149208	0.283598	1.404448
C227	C	0.620449	-0.245133	0.880976
C228	C	1.120449	0.254867	1.380976
O229	O	0.595993	-0.269559	0.905228
O230	O	1.095993	0.230441	1.405228
C231	C	0.620424	-0.245169	0.693304
C232	C	1.120424	0.254831	1.193304
C233	C	0.649179	-0.216448	0.669857
C234	C	1.149179	0.283552	1.169857
C235	C	0.706687	-0.158999	0.669877
C236	C	1.206687	0.341001	1.169877
C237	C	0.706683	-0.159011	0.622962
C238	C	1.206683	0.340989	1.122962
C239	C	0.677927	-0.187741	0.599494
C240	C	1.177927	0.312259	1.099494
C241	C	0.649175	-0.216460	0.622941
C242	C	1.149175	0.283540	1.122941
C243	C	0.591663	-0.273898	0.669833
C244	C	1.091663	0.226102	1.169833
C245	C	0.591659	-0.273903	0.622912
C246	C	1.091659	0.226097	1.122912
C247	C	0.620414	-0.245183	0.599465
C248	C	1.120414	0.254817	1.099465
C249	C	0.620415	-0.245202	0.552558
C250	C	1.120415	0.254798	1.052558
N251	N	0.649164	-0.216480	0.529108
N252	N	1.149164	0.283520	1.029108
C253	C	0.677920	-0.187749	0.552576
C254	C	1.177920	0.312251	1.052576
C255	C	0.620464	-0.245113	0.979507
C256	C	1.120464	0.254887	1.479507
C257	C	0.620471	-0.245105	1.026425
C258	C	1.120471	0.254895	1.526425
C259	C	0.677979	-0.187650	1.026443
C260	C	1.177979	0.312350	1.526443
C261	C	0.677974	-0.187661	0.979524
C262	C	1.177974	0.312339	1.479524
C263	C	0.649214	-0.216391	0.956057
C264	C	1.149214	0.283609	1.456057
C265	C	0.677910	-0.187776	0.454050
C266	C	1.177910	0.312224	0.954050
C267	C	0.677904	-0.187792	0.407130
C268	C	1.177904	0.312208	0.907130
C269	C	0.620395	-0.245244	0.407116
C270	C	1.120395	0.254756	0.907116
C271	C	0.620401	-0.245230	0.454032
C272	C	1.120401	0.254770	0.954032
C273	C	0.649161	-0.216493	0.477497
C274	C	1.149161	0.283507	0.977497
O275	O	0.595982	-0.269633	0.528248
O276	O	1.095982	0.230367	1.028248
O277	O	0.702366	-0.163320	0.528316
O278	O	1.202366	0.336680	1.028316
C279	C	0.677939	-0.187706	0.740240
C280	C	1.177939	0.312294	1.240240
C281	C	0.649187	-0.216425	0.763688
C282	C	1.149187	0.283575	1.263688
C283	C	0.620431	-0.245155	0.740219
C284	C	1.120431	0.254845	1.240219
C285	C	0.649194	-0.216417	0.810605
C286	C	1.149194	0.283583	1.310605
C287	C	0.677950	-0.187686	0.834074
C288	C	1.177950	0.312314	1.334074
C289	C	0.706699	-0.158964	0.810624
C290	C	1.206699	0.341036	1.310624
C291	C	0.706695	-0.158976	0.763708
C292	C	1.206695	0.341024	1.263708
C293	C	0.591682	-0.273877	0.763669
C294	C	1.091682	0.226123	1.263669
C295	C	0.591689	-0.273864	0.810585
C296	C	1.091689	0.226136	1.310585
C297	C	0.620445	-0.245133	0.834053
C298	C	1.120445	0.254867	1.334053
H299	H	0.478121	-0.164309	0.164485
H300	H	0.978121	0.335691	0.664485
H301	H	0.121547	-0.135551	0.135861
H302	H	0.621547	0.364449	0.635861
O303	O	-0.090545	-0.159882	0.160026
O304	O	0.409455	0.340118	0.660026
C305	C	-0.063444	-0.185412	0.130950
C306	C	0.436556	0.314588	0.630950
H307	H	-0.056419	-0.219479	0.146734
H308	H	0.443581	0.280521	0.646734
H309	H	-0.081548	-0.190304	0.097654
H310	H	0.418452	0.309696	0.597654
C311	C	-0.027499	-0.118831	0.103463
C312	C	0.472501	0.381169	0.603463
C313	C	-0.018868	-0.160671	0.122850
C314	C	0.481132	0.339329	0.622850
H315	H	-0.000004	-0.103569	0.098464
H316	H	0.499996	0.396431	0.598464
H317	H	-0.045759	-0.101630	0.123050
H318	H	0.454241	0.398370	0.623050
H319	H	-0.042588	-0.122914	0.075718
H320	H	0.457412	0.377086	0.575718
H321	H	-0.003785	-0.156588	0.150597
H322	H	0.496215	0.343412	0.650597
H323	H	-0.000604	-0.177871	0.103267
H324	H	0.499396	0.322129	0.603267
H325	H	0.568274	-0.297256	0.829671
H326	H	1.068274	0.202744	1.329671
H327	H	0.596984	-0.268637	0.388000
H328	H	1.096984	0.231363	0.888000
O329	O	0.173450	-0.131009	0.131405
O330	O	0.673450	0.368991	0.631405
C331	C	0.146338	-0.102024	0.157026
C332	C	0.646338	0.397976	0.657026
H333	H	0.139319	-0.117909	0.191049
H334	H	0.639319	0.382091	0.691049
H335	H	0.164431	-0.068730	0.162009
H336	H	0.664431	0.431270	0.662009
C337	C	0.110384	-0.074367	0.090533
C338	C	0.610384	0.425633	0.590533
C339	C	0.101760	-0.093879	0.132320
C340	C	0.601760	0.406121	0.632320
H341	H	0.082886	-0.069341	0.075293
H342	H	0.582886	0.430659	0.575293
H343	H	0.128651	-0.093893	0.073272
H344	H	0.628651	0.406107	0.573272
H345	H	0.125462	-0.046624	0.094692
H346	H	0.625462	0.453376	0.594692
H347	H	0.086687	-0.121624	0.128161
H348	H	0.586687	0.378376	0.628161
H349	H	0.083489	-0.074357	0.149580
H350	H	0.583489	0.425643	0.649580
O351	O	0.734611	-0.130992	0.833376
O352	O	1.234611	0.369008	1.333376
C353	C	0.724818	-0.086217	0.821923
C354	C	1.224818	0.413783	1.321923
H355	H	0.707550	-0.085288	0.787851
H356	H	1.207550	0.414712	1.287851
H357	H	0.701731	-0.071079	0.848322
H358	H	1.201731	0.428921	1.348322
C359	C	0.789843	-0.060148	0.861626
C360	C	1.289843	0.439852	1.361626
C361	C	0.768638	-0.059008	0.819776
C362	C	1.268638	0.440992	1.319776
H363	H	0.816873	-0.043363	0.860304
H364	H	1.316873	0.456637	1.360304
H365	H	0.796440	-0.090314	0.869344
H366	H	1.296440	0.409686	1.369344
H367	H	0.770600	-0.047534	0.883621
H368	H	1.270600	0.452466	1.383621
H369	H	0.787879	-0.071626	0.797783
H370	H	1.287879	0.428374	1.297783
H371	H	0.762045	-0.028843	0.812055
H372	H	1.262045	0.471157	1.312055
H373	H	0.701427	-1.045034	0.164527
H374	H	1.201427	-0.545034	0.664527
H375	H	0.701220	-0.387517	0.164459
H376	H	1.201220	0.112483	0.664459
H377	H	0.036441	-0.135556	0.135871
H378	H	0.536441	0.364444	0.635871
H379	H	0.568268	-0.744160	0.297340
H380	H	1.068268	-0.244160	0.797340
H381	H	0.262305	-0.135529	0.135852
H382	H	0.762305	0.364471	0.635852
O383	O	0.563673	-0.301752	0.600099
O384	O	1.063673	0.198248	1.100099
C385	C	0.534679	-0.276181	0.572944
C386	C	1.034679	0.223819	1.072944
H387	H	0.531935	-0.240792	0.587080
H388	H	1.031935	0.259208	1.087080
H389	H	0.548564	-0.274649	0.537389
H390	H	1.048564	0.225351	1.037389
C391	C	0.491330	-0.341587	0.554854
C392	C	0.991330	0.158413	1.054854
C393	C	0.487956	-0.298123	0.572218
C394	C	0.987956	0.201877	1.072218
H395	H	0.462510	-0.355123	0.554405
H396	H	0.962510	0.144877	1.054405
H397	H	0.510865	-0.358815	0.573148
H398	H	1.010865	0.141185	1.073148
H399	H	0.502903	-0.340305	0.525226
H400	H	1.002903	0.159695	1.025226
H401	H	0.476390	-0.299406	0.601848
H402	H	0.976390	0.200594	1.101848
H403	H	0.468419	-0.280895	0.553930
H404	H	0.968419	0.219105	1.053930
O405	O	0.734560	-0.131047	0.740889
O406	O	1.234560	0.368953	1.240889
C407	C	0.709000	-0.102022	0.713759
C408	C	1.209000	0.397978	1.213759
H409	H	0.674945	-0.117867	0.706711
H410	H	1.174945	0.382133	1.206711
H411	H	0.704083	-0.068731	0.731852
H412	H	1.204083	0.431269	1.231852
C413	C	0.775550	-0.074421	0.677862
C414	C	1.275550	0.425579	1.177862
C415	C	0.733725	-0.093884	0.669202
C416	C	1.233725	0.406116	1.169202
H417	H	0.790802	-0.069400	0.650378
H418	H	1.290802	0.430600	1.150378
H419	H	0.792771	-0.093974	0.696141
H420	H	1.292771	0.406026	1.196141
H421	H	0.771447	-0.046681	0.692941
H422	H	1.271447	0.453319	1.192941
H423	H	0.737828	-0.121626	0.654129
H424	H	1.237828	0.378374	1.154129
H425	H	0.716505	-0.074335	0.650920
H426	H	1.216505	0.425665	1.150920
H427	H	0.701402	-0.959912	0.164514
H428	H	1.201402	-0.459912	0.664514
H429	H	0.392998	-0.164309	0.164496
H430	H	0.892998	0.335691	0.664496
O431	O	0.125157	-0.302046	0.301827
O432	O	0.625157	0.197954	0.801827
C433	C	0.094382	-0.327448	0.327131
C434	C	0.594382	0.172552	0.827131
H435	H	0.060950	-0.309047	0.328719
H436	H	0.560950	0.190953	0.828719
H437	H	0.089363	-0.361543	0.310618
H438	H	0.589363	0.138457	0.810618
C439	C	0.153767	-0.356595	0.372984
C440	C	0.653767	0.143405	0.872984
C441	C	0.112707	-0.333994	0.374937
C442	C	0.612707	0.166006	0.874937
H443	H	0.165070	-0.360635	0.402472
H444	H	0.665070	0.139365	0.902472
H445	H	0.174501	-0.339483	0.355935
H446	H	0.674501	0.160517	0.855935
H447	H	0.149579	-0.385005	0.359221
H448	H	0.649579	0.114995	0.859221
H449	H	0.116896	-0.305582	0.388695
H450	H	0.616896	0.194418	0.888695
H451	H	0.091973	-0.351102	0.391989
H452	H	0.591973	0.148898	0.891989
H453	H	0.568265	-0.297274	0.744566
H454	H	1.068265	0.202726	1.244566
O455	O	0.705788	-0.476242	0.159918
O456	O	1.205788	0.023758	0.659918
C457	C	0.731157	-0.445456	0.134595
C458	C	1.231157	0.054544	0.634595
H459	H	0.712742	-0.412031	0.133021
H460	H	1.212742	0.087969	0.633021
H461	H	0.765264	-0.440425	0.151081
H462	H	1.265264	0.059575	0.651081
C463	C	0.760288	-0.504826	0.088719
C464	C	1.260288	-0.004826	0.588719
C465	C	0.737668	-0.463774	0.086784
C466	C	1.237668	0.036226	0.586784
H467	H	0.764306	-0.516126	0.059227
H468	H	1.264306	-0.016126	0.559227
H469	H	0.743197	-0.525568	0.105781
H470	H	1.243197	-0.025568	0.605781
H471	H	0.788708	-0.500628	0.102460
H472	H	1.288708	-0.000628	0.602460
H473	H	0.709247	-0.467974	0.073048
H474	H	1.209247	0.032026	0.573048
H475	H	0.754754	-0.443033	0.069718
H476	H	1.254754	0.056967	0.569718
H477	H	0.730047	-0.603324	0.135785
H478	H	1.230047	-0.103324	0.635785
O479	O	0.705918	-0.159718	0.956819
O480	O	1.205918	0.340282	1.456819
C481	C	0.731307	-0.134369	0.987600
C482	C	1.231307	0.365631	1.487600
H483	H	0.712910	-0.132809	1.021039
H484	H	1.212910	0.367191	1.521039
H485	H	0.765414	-0.150826	0.992595
H486	H	1.265414	0.349174	1.492595
C487	C	0.760415	-0.088475	0.928231
C488	C	1.260415	0.411525	1.428231
C489	C	0.737817	-0.086555	0.969301
C490	C	1.237817	0.413445	1.469301
H491	H	0.764432	-0.058981	0.916944
H492	H	1.264432	0.441019	1.416944
H493	H	0.743311	-0.105553	0.907493
H494	H	1.243311	0.394447	1.407493
H495	H	0.788835	-0.102191	0.932400
H496	H	1.288835	0.397809	1.432400
H497	H	0.709396	-0.072844	0.965131
H498	H	1.209396	0.427156	1.465131
H499	H	0.754917	-0.069473	0.990038
H500	H	1.254917	0.430527	1.490038
H501	H	0.036420	-0.297513	0.297286
H502	H	0.536420	0.202487	0.797286
H503	H	0.568248	-0.688511	0.297342
H504	H	1.068248	-0.188511	0.797342
H505	H	0.597097	-1.045080	0.268662
H506	H	1.097097	-0.545080	0.768662
O507	O	0.734606	-0.692046	0.131242
O508	O	1.234606	-0.192046	0.631242
C509	C	0.759976	-0.661258	0.105920
C510	C	1.259976	-0.161258	0.605920
H511	H	0.741563	-0.627833	0.104351
H512	H	1.241563	-0.127833	0.604351
H513	H	0.794084	-0.656230	0.122407
H514	H	1.294084	-0.156230	0.622407
C515	C	0.789103	-0.720625	0.060039
C516	C	1.289103	-0.220625	0.560039
C517	C	0.766486	-0.679572	0.058108
C518	C	1.266486	-0.179572	0.558108
H519	H	0.793121	-0.731922	0.030546
H520	H	1.293121	-0.231922	0.530546
H521	H	0.772013	-0.741368	0.077099
H522	H	1.272013	-0.241368	0.577099
H523	H	0.817524	-0.716430	0.073779
H524	H	1.317524	-0.216430	0.573779
H525	H	0.738064	-0.683769	0.044372
H526	H	1.238064	-0.183769	0.544372
H527	H	0.783572	-0.658830	0.041044
H528	H	1.283572	-0.158830	0.541044
O529	O	0.705825	-0.159800	0.476791
O530	O	1.205825	0.340200	0.976791
C531	C	0.696036	-0.115026	0.465331
C532	C	1.196036	0.384974	0.965331
H533	H	0.678759	-0.114102	0.431264
H534	H	1.178759	0.385898	0.931264
H535	H	0.672959	-0.099879	0.491734
H536	H	1.172959	0.400121	0.991734
C537	C	0.761077	-0.088959	0.505011
C538	C	1.261077	0.411041	1.005011
C539	C	0.739860	-0.087824	0.463167
C540	C	1.239860	0.412176	0.963167
H541	H	0.788108	-0.072178	0.503678
H542	H	1.288108	0.427822	1.003678
H543	H	0.767671	-0.119124	0.512733
H544	H	1.267671	0.380876	1.012733
H545	H	0.741841	-0.076337	0.527009
H546	H	1.241841	0.423663	1.027009
H547	H	0.759093	-0.100450	0.441171
H548	H	1.259093	0.399550	0.941171
H549	H	0.733269	-0.057660	0.455441
H550	H	1.233269	0.442340	0.955441
H551	H	0.597076	-0.959972	0.268661
H552	H	1.097076	-0.459972	0.768661
H553	H	0.568229	-0.603402	0.297337
H554	H	1.068229	-0.103402	0.797337
O555	O	0.592454	-0.476365	0.273185
O556	O	1.092454	0.023635	0.773185
C557	C	0.602231	-0.464859	0.317968
C558	C	1.102231	0.035141	0.817968
H559	H	0.638114	-0.451923	0.320271
H560	H	1.138114	0.048077	0.820271
H561	H	0.578125	-0.437645	0.329681
H562	H	1.078125	0.062355	0.829681
C563	C	0.552928	-0.522417	0.345124
C564	C	1.052928	-0.022417	0.845124
C565	C	0.597002	-0.506532	0.347954
C566	C	1.097002	-0.006532	0.847954
H567	H	0.549701	-0.548122	0.363622
H568	H	1.049701	-0.048122	0.863622
H569	H	0.546340	-0.530168	0.314953
H570	H	1.046340	-0.030168	0.814953
H571	H	0.532846	-0.499735	0.354884
H572	H	1.032846	0.000265	0.854884
H573	H	0.617083	-0.529212	0.338189
H574	H	1.117083	-0.029212	0.838189
H575	H	0.603593	-0.498785	0.378124
H576	H	1.103593	0.001215	0.878124
O577	O	0.481729	-0.273255	0.273094
O578	O	0.981729	0.226745	0.773094
C579	C	0.450958	-0.298659	0.298402
C580	C	0.950958	0.201341	0.798402
H581	H	0.417526	-0.280259	0.299994
H582	H	0.917526	0.219741	0.799994
H583	H	0.445939	-0.332754	0.281889
H584	H	0.945939	0.167246	0.781889
C585	C	0.510350	-0.327804	0.344247
C586	C	1.010350	0.172196	0.844247
C587	C	0.469289	-0.305204	0.346205
C588	C	0.969289	0.194796	0.846205
H589	H	0.521657	-0.331843	0.373734
H590	H	1.021657	0.168157	0.873734
H591	H	0.531081	-0.310690	0.327196
H592	H	1.031081	0.189310	0.827196
H593	H	0.506161	-0.356214	0.330484
H594	H	1.006161	0.143786	0.830484
H595	H	0.473479	-0.276792	0.359963
H596	H	0.973479	0.223208	0.859963
H597	H	0.448558	-0.322313	0.363260
H598	H	0.948558	0.177687	0.863260
H599	H	0.730104	-0.135601	0.688980
H600	H	1.230104	0.364399	1.188980
O601	O	0.705867	-0.159752	1.049314
O602	O	1.205867	0.340248	1.549314
C603	C	0.699709	-0.165914	1.095751
C604	C	1.199709	0.334086	1.595751
H605	H	0.665031	-0.180629	1.102142
H606	H	1.165031	0.319371	1.602142
H607	H	0.726343	-0.189833	1.109073
H608	H	1.226343	0.310167	1.609073
C609	C	0.746443	-0.102380	1.112000
C610	C	1.246443	0.397620	1.612000
C611	C	0.703849	-0.120451	1.119849
C612	C	1.203849	0.379549	1.619849
H613	H	0.748998	-0.074338	1.126865
H614	H	1.248998	0.425662	1.626865
H615	H	0.750593	-0.098230	1.080714
H616	H	1.250593	0.401770	1.580714
H617	H	0.768633	-0.122318	1.123101
H618	H	1.268633	0.377682	1.623101
H619	H	0.681660	-0.100516	1.108743
H620	H	1.181660	0.399484	1.608743
H621	H	0.699695	-0.124597	1.151134
H622	H	1.199695	0.375403	1.651134
O623	O	0.592500	-0.273022	1.049129
O624	O	1.092500	0.226978	1.549129
C625	C	0.567127	-0.298387	1.018349
C626	C	1.067127	0.201613	1.518349
H627	H	0.565585	-0.279989	0.984907
H628	H	1.065585	0.220011	1.484907
H629	H	0.583551	-0.332510	1.013358
H630	H	1.083551	0.167490	1.513358
C631	C	0.521202	-0.327448	1.077716
C632	C	1.021202	0.172552	1.577716
C633	C	0.519306	-0.304849	1.036643
C634	C	1.019306	0.195151	1.536643
H635	H	0.491704	-0.331436	1.089001
H636	H	0.991704	0.168564	1.589001
H637	H	0.538297	-0.310360	1.098453
H638	H	1.038297	0.189640	1.598453
H639	H	0.534891	-0.355882	1.073551
H640	H	1.034891	0.144118	1.573551
H641	H	0.505623	-0.276414	1.040809
H642	H	1.005623	0.223586	1.540809
H643	H	0.502207	-0.321932	1.015906
H644	H	1.002207	0.178068	1.515906
O645	O	-0.183111	-0.273216	0.273185
O646	O	0.316889	0.226784	0.773185
C647	C	-0.210230	-0.247677	0.302237
C648	C	0.289770	0.252323	0.802237
H649	H	-0.196066	-0.212299	0.305071
H650	H	0.303934	0.287701	0.805071
H651	H	-0.245792	-0.246109	0.288349
H652	H	0.254208	0.253891	0.788349
C653	C	-0.228345	-0.313141	0.345423
C654	C	0.271655	0.186859	0.845423
C655	C	-0.210945	-0.269689	0.348906
C656	C	0.289055	0.230311	0.848906
H657	H	-0.228788	-0.326720	0.374210
H658	H	0.271212	0.173280	0.874210
H659	H	-0.210076	-0.330348	0.325849
H660	H	0.289924	0.169652	0.825849
H661	H	-0.257979	-0.311828	0.333848
H662	H	0.242021	0.188172	0.833848
H663	H	-0.181310	-0.271003	0.360475
H664	H	0.318690	0.228997	0.860475
H665	H	-0.229209	-0.252483	0.368483
H666	H	0.270791	0.247517	0.868483
O667	O	-0.090666	-0.273292	0.273168
O668	O	0.409334	0.226708	0.773168
C669	C	-0.121439	-0.298697	0.298472
C670	C	0.378561	0.201303	0.798472
H671	H	-0.154872	-0.280300	0.300059
H672	H	0.345128	0.219700	0.800059
H673	H	-0.126455	-0.332793	0.281958
H674	H	0.373545	0.167207	0.781958
C675	C	-0.062052	-0.327840	0.344325
C676	C	0.437948	0.172160	0.844325
C677	C	-0.103115	-0.305242	0.346278
C678	C	0.396885	0.194758	0.846278
H679	H	-0.050748	-0.331879	0.373813
H680	H	0.449252	0.168121	0.873813
H681	H	-0.041319	-0.310725	0.327277
H682	H	0.458681	0.189275	0.827277
H683	H	-0.066237	-0.356250	0.330561
H684	H	0.433763	0.143750	0.830561
H685	H	-0.098928	-0.276830	0.360036
H686	H	0.401072	0.223170	0.860036
H687	H	-0.123846	-0.322352	0.363329
H688	H	0.376154	0.177648	0.863329
H689	H	0.596895	-0.387570	0.268600
H690	H	1.096895	0.112430	0.768600
O691	O	0.734698	-0.832885	0.131375
O692	O	1.234698	-0.332885	0.631375
C693	C	0.763692	-0.859986	0.157002
C694	C	1.263692	-0.359986	0.657002
H695	H	0.766420	-0.845825	0.192386
H696	H	1.266420	-0.345825	0.692386
H697	H	0.749818	-0.895559	0.158536
H698	H	1.249818	-0.395559	0.658536
C699	C	0.807068	-0.878058	0.091664
C700	C	1.307068	-0.378058	0.591664
C701	C	0.810422	-0.860663	0.135123
C702	C	1.310422	-0.360663	0.635123
H703	H	0.835893	-0.878477	0.078168
H704	H	1.335893	-0.378477	0.578168
H705	H	0.787533	-0.859801	0.074399
H706	H	1.287533	-0.359801	0.574399
H707	H	0.795505	-0.907700	0.092949
H708	H	1.295505	-0.407700	0.592949
H709	H	0.821980	-0.831019	0.133837
H710	H	1.321980	-0.331019	0.633837
H711	H	0.829960	-0.878914	0.152388
H712	H	1.329960	-0.378914	0.652388
O713	O	0.563764	-0.832888	0.301902
O714	O	1.063764	-0.332888	0.801902
C715	C	0.538374	-0.802130	0.327220
C716	C	1.038374	-0.302130	0.827220
H717	H	0.556764	-0.768668	0.328785
H718	H	1.056764	-0.268668	0.828785
H719	H	0.504262	-0.797181	0.310733
H720	H	1.004262	-0.297181	0.810733
C721	C	0.509287	-0.861519	0.373110
C722	C	1.009287	-0.361519	0.873110
C723	C	0.531877	-0.820421	0.375035
C724	C	1.031877	-0.320421	0.875035
H725	H	0.505278	-0.872802	0.402604
H726	H	1.005278	-0.372802	0.902604
H727	H	0.526392	-0.882242	0.356052
H728	H	1.026392	-0.382242	0.856052
H729	H	0.480864	-0.857390	0.359369
H730	H	0.980864	-0.357390	0.859369
H731	H	0.560302	-0.824552	0.388770
H732	H	1.060302	-0.324552	0.888770
H733	H	0.514777	-0.799700	0.392096
H734	H	1.014777	-0.299700	0.892096
H735	H	0.730093	-0.744071	0.135801
H736	H	1.230093	-0.244071	0.635801
H737	H	0.701321	-0.164403	0.388042
H738	H	1.201321	0.335597	0.888042
O739	O	0.734563	-0.131038	0.600214
O740	O	1.234563	0.368962	1.100214
C741	C	0.724778	-0.086265	0.611704
C742	C	1.224778	0.413735	1.111704
H743	H	0.688889	-0.084001	0.624586
H744	H	1.188889	0.415999	1.124586
H745	H	0.748869	-0.074526	0.638955
H746	H	1.248869	0.425474	1.138955
C747	C	0.774108	-0.059058	0.554221
C748	C	1.274108	0.440942	1.054221
C749	C	0.730026	-0.056275	0.570039
C750	C	1.230026	0.443725	1.070039
H751	H	0.777347	-0.040558	0.528520
H752	H	1.277347	0.459442	1.028520
H753	H	0.780702	-0.089222	0.546481
H754	H	1.280702	0.410778	1.046481
H755	H	0.794179	-0.049275	0.576933
H756	H	1.294179	0.450725	1.076933
H757	H	0.709957	-0.066063	0.547328
H758	H	1.209957	0.433937	1.047328
H759	H	0.723429	-0.026112	0.577774
H760	H	1.223429	0.473888	1.077774
O761	O	0.592588	-0.273048	0.956666
O762	O	1.092588	0.226952	1.456666
C763	C	0.618136	-0.302084	0.929539
C764	C	1.118136	0.197916	1.429539
H765	H	0.652192	-0.286246	0.922512
H766	H	1.152192	0.213754	1.422512
H767	H	0.623053	-0.335371	0.947622
H768	H	1.123053	0.164629	1.447622
C769	C	0.551571	-0.329684	0.893600
C770	C	1.051571	0.170316	1.393600
C771	C	0.593397	-0.310230	0.884966
C772	C	1.093397	0.189770	1.384966
H773	H	0.536311	-0.334711	0.866106
H774	H	1.036311	0.165289	1.366106
H775	H	0.534358	-0.310124	0.911877
H776	H	1.034358	0.189876	1.411877
H777	H	0.555674	-0.357421	0.908671
H778	H	1.055674	0.142579	1.408671
H779	H	0.589294	-0.282491	0.869901
H780	H	1.089294	0.217509	1.369901
H781	H	0.610609	-0.329786	0.866686
H782	H	1.110609	0.170214	1.366686
H783	H	0.568248	-0.297285	0.688916
H784	H	1.068248	0.202715	1.188916
H785	H	0.262285	-0.297506	0.297258
H786	H	0.762285	0.202494	0.797258
O787	O	0.389264	-0.273268	0.273008
O788	O	0.889264	0.226732	0.773008
C789	C	0.362104	-0.302257	0.247384
C790	C	0.862104	0.197743	0.747384
H791	H	0.355059	-0.286361	0.213370
H792	H	0.855059	0.213639	0.713370
H793	H	0.380169	-0.335538	0.242380
H794	H	0.880169	0.164462	0.742380
C795	C	0.326203	-0.329965	0.313876
C796	C	0.826203	0.170035	0.813876
C797	C	0.317547	-0.310438	0.272100
C798	C	0.817547	0.189562	0.772100
H799	H	0.298718	-0.335013	0.329122
H800	H	0.798718	0.164987	0.829122
H801	H	0.344502	-0.310435	0.331140
H802	H	0.844502	0.189565	0.831140
H803	H	0.341257	-0.357697	0.309700
H804	H	0.841257	0.142303	0.809700
H805	H	0.302497	-0.282704	0.276277
H806	H	0.802497	0.217296	0.776277
H807	H	0.299244	-0.329963	0.254837
H808	H	0.799244	0.170037	0.754837
H809	H	0.177180	-0.297509	0.297271
H810	H	0.677180	0.202491	0.797271
H811	H	0.596991	-0.268621	0.473123
H812	H	1.096991	0.231379	0.973123
H813	H	-0.179390	-0.164352	0.164561
H814	H	0.320610	0.335648	0.664561
