data_functionalizedCrystal
_audit_creation_method	'MofGen! by Chris Wilmer'
_symmetry_space_group_name_H-M	'P1'
_symmetry_Int_Tables_number	1
_symmetry_cell_setting	triclinic
loop_
_symmetry_equiv_pos_as_xyz
  x,y,z
_cell_length_a	25.639242
_cell_length_b	25.639240
_cell_length_c	25.639234
_cell_angle_alpha	89.973348
_cell_angle_beta	90.026995
_cell_angle_gamma	89.961311
loop_
_atom_site_label
_atom_site_type_symbol
_atom_site_fract_x
_atom_site_fract_y
_atom_site_fract_z
Zn1	Zn	0.799234	0.208247	0.295735
Zn2	Zn	0.799143	0.295674	0.208296
Zn3	Zn	0.711803	0.208248	0.208299
Zn4	Zn	0.711748	0.295646	0.295686
O5	O	0.755482	0.251954	0.252004
O6	O	0.872387	0.219855	0.284155
O7	O	0.787542	0.284089	0.135131
O8	O	0.723461	0.135083	0.219919
O9	O	0.872320	0.284088	0.219914
O10	O	0.787697	0.135082	0.284158
O11	O	0.723373	0.219858	0.135133
O12	O	0.638630	0.219830	0.219872
O13	O	0.723369	0.284040	0.368858
O14	O	0.638590	0.284041	0.284074
O15	O	0.787644	0.219828	0.368893
O16	O	0.787489	0.368836	0.219867
O17	O	0.723281	0.368815	0.284072
C18	C	0.619639	0.251933	0.251968
C19	C	0.561525	0.251937	0.251966
C20	C	0.755383	0.387796	0.251975
C21	C	0.755389	0.445910	0.251980
C22	C	0.201150	0.285444	0.285403
C23	C	0.146546	0.285448	0.285411
O24	O	0.118299	0.313911	0.313810
N25	N	0.119243	0.251968	0.252038
C26	C	0.146547	0.218480	0.218658
O27	O	0.118309	0.190003	0.190273
C28	C	0.201150	0.218474	0.218653
C29	C	0.228450	0.251960	0.252024
C30	C	0.228451	0.318926	0.318772
C31	C	0.283051	0.318924	0.318762
C32	C	0.310351	0.285439	0.285384
C33	C	0.283051	0.251957	0.252015
C34	C	0.228453	0.184983	0.185277
C35	C	0.283060	0.184981	0.185275
C36	C	0.310360	0.218466	0.218646
C37	C	0.364952	0.218469	0.218628
N38	N	0.392255	0.251949	0.252001
C39	C	0.364955	0.285434	0.285379
C40	C	0.031876	0.218493	0.218673
C41	C	-0.022726	0.218501	0.218675
C42	C	-0.022723	0.285468	0.285428
C43	C	0.031880	0.285463	0.285423
C44	C	0.059179	0.251972	0.252045
C45	C	0.479620	0.285426	0.285357
C46	C	0.534225	0.285422	0.285344
C47	C	0.534217	0.218453	0.218593
C48	C	0.479617	0.218459	0.218604
C49	C	0.452319	0.251947	0.251991
O50	O	0.393233	0.190019	0.190245
O51	O	0.393199	0.313901	0.313764
C52	C	0.788959	0.806272	0.218609
C53	C	0.788975	0.860876	0.218614
O54	O	0.817448	0.889111	0.190225
N55	N	0.755524	0.888193	0.252015
C56	C	0.722059	0.860903	0.285418
O57	O	0.693608	0.889152	0.313829
C58	C	0.722046	0.806299	0.285415
C59	C	0.755495	0.778985	0.252008
C60	C	0.822406	0.778958	0.185205
C61	C	0.822390	0.724357	0.185200
C62	C	0.788926	0.697071	0.218598
C63	C	0.755478	0.724385	0.252002
C64	C	0.688583	0.779010	0.318819
C65	C	0.688573	0.724403	0.318814
C66	C	0.722023	0.697089	0.285407
C67	C	0.721997	0.642498	0.285395
N68	N	0.755449	0.615181	0.251994
C69	C	0.788913	0.642467	0.218595
C70	C	0.722089	0.975573	0.285422
C71	C	0.722099	1.030175	0.285422
C72	C	0.789016	1.030145	0.218619
C73	C	0.789003	0.975542	0.218616
C74	C	0.755540	0.948256	0.252020
C75	C	0.788874	0.527802	0.218586
C76	C	0.788853	0.473197	0.218582
C77	C	0.721938	0.473232	0.285386
C78	C	0.721957	0.527833	0.285389
C79	C	0.755430	0.555116	0.251987
O80	O	0.693540	0.614228	0.313771
O81	O	0.817364	0.614212	0.190194
C82	C	0.891855	0.251975	0.252040
C83	C	0.949969	0.251984	0.252055
C84	C	0.755510	0.251931	0.388377
C85	C	0.755522	0.251921	0.446491
C86	C	0.755575	1.115581	0.252035
C87	C	0.755565	1.057467	0.252025
C88	C	0.755484	0.251939	0.116161
C89	C	0.755573	0.251802	0.058048
C90	C	0.788949	0.285323	0.697676
C91	C	0.788943	0.285334	0.643071
O92	O	0.817339	0.313792	0.614827
N93	N	0.755534	0.251895	0.615765
C94	C	0.722124	0.218447	0.643065
O95	O	0.693706	0.190006	0.614825
C96	C	0.722127	0.218439	0.697669
C97	C	0.755542	0.251877	0.724973
C98	C	0.822361	0.318758	0.724980
C99	C	0.822367	0.318747	0.779580
C100	C	0.788961	0.285300	0.806877
C101	C	0.755549	0.251865	0.779573
C102	C	0.688715	0.184994	0.724968
C103	C	0.688721	0.184990	0.779575
C104	C	0.722136	0.218427	0.806879
C105	C	0.722148	0.218406	0.861470
N106	N	0.755558	0.251845	0.888777
C107	C	0.788964	0.285292	0.861480
C108	C	0.722119	0.218467	0.528395
C109	C	0.722118	0.218472	0.473792
C110	C	0.788937	0.285360	0.473802
C111	C	0.788940	0.285352	0.528406
C112	C	0.755528	0.251906	0.555701
C113	C	0.788975	0.285265	0.976145
C114	C	0.788979	0.285248	1.030751
C115	C	0.722159	0.218363	1.030736
C116	C	0.722156	0.218377	0.976136
C117	C	0.755565	0.251832	0.948842
O118	O	0.693765	0.189965	0.889749
O119	O	0.817373	0.313733	0.889727
H120	H	0.556451	0.312691	0.312519
O121	O	0.689510	0.446695	0.317885
C122	C	0.719258	0.415055	0.351667
H123	H	0.760437	0.431477	0.354938
H124	H	0.700330	0.414423	0.391886
H125	H	0.721063	0.373682	0.335495
H126	H	0.661324	0.702190	0.346017
O127	O	0.656039	0.805559	0.351200
C128	C	0.622297	0.837205	0.321413
H129	H	0.619079	0.820782	0.280227
H130	H	0.582052	0.837847	0.340288
H131	H	0.638472	0.878575	0.319636
H132	H	0.849629	0.702121	0.157998
H133	H	-0.044961	0.312732	0.312608
O134	O	0.855001	0.805465	0.152850
C135	C	0.888757	0.836991	0.182672
H136	H	0.891911	0.820519	0.223860
H137	H	0.929020	0.837542	0.163836
H138	H	0.872635	0.878402	0.184434
O139	O	0.202023	0.152403	0.152845
C140	C	0.237838	0.122859	0.123383
H141	H	0.276774	0.121086	0.144801
H142	H	0.222092	0.081654	0.117888
H143	H	0.243611	0.141945	0.083635
O144	O	0.058369	0.186020	0.186166
C145	C	0.044974	0.197373	0.134040
H146	H	0.029941	0.239141	0.131330
H147	H	0.080868	0.192830	0.108209
H148	H	0.013284	0.169329	0.120430
O149	O	-0.049261	0.186057	0.186189
C150	C	-0.080889	0.215783	0.152376
H151	H	-0.064465	0.256959	0.149083
H152	H	-0.081507	0.196827	0.112170
H153	H	-0.122267	0.217600	0.168533
H154	H	0.694721	0.550073	0.312593
H155	H	0.305284	0.157705	0.158097
O156	O	0.854841	0.351178	0.698411
C157	C	0.888646	0.321421	0.666862
H158	H	0.870237	0.281799	0.658679
H159	H	0.895642	0.342728	0.628465
H160	H	0.927394	0.315673	0.687930
O161	O	0.821456	0.317781	1.057192
C162	C	0.850947	0.347295	1.021386
H163	H	0.829523	0.349108	0.982455
H164	H	0.856492	0.388488	1.037152
H165	H	0.890671	0.328157	1.015597
O166	O	0.689636	0.185901	1.057201
C167	C	0.637515	0.197334	1.043849
H168	H	0.636409	0.217435	1.004194
H169	H	0.614097	0.159599	1.041990
H170	H	0.619891	0.224213	1.074564
O171	O	0.821456	0.317688	0.949580
C172	C	0.855259	0.287935	0.918027
H173	H	0.836850	0.248313	0.909842
H174	H	0.862251	0.309245	0.879631
H175	H	0.894008	0.282187	0.939092
O176	O	0.689613	0.185970	0.447354
C177	C	0.660142	0.156440	0.483162
H178	H	0.658321	0.177850	0.522078
H179	H	0.618949	0.150857	0.467377
H180	H	0.679323	0.116733	0.488988
H181	H	0.661504	0.157767	0.702747
O182	O	0.854839	0.351282	0.806018
C183	C	0.884327	0.380793	0.770207
H184	H	0.862903	0.382598	0.731277
H185	H	0.889868	0.421989	0.785967
H186	H	0.924053	0.361657	0.764421
O187	O	0.453189	0.318004	0.317806
C188	C	0.489003	0.347542	0.347262
H189	H	0.527909	0.349317	0.325832
H190	H	0.473209	0.388747	0.352769
H191	H	0.494850	0.328449	0.387004
O192	O	0.821545	1.056576	0.186129
C193	C	0.851080	1.020763	0.156653
H194	H	0.829658	0.981860	0.154810
H195	H	0.856688	1.036562	0.115468
H196	H	0.890774	1.014909	0.175844
H197	H	0.694953	0.191142	0.953904
H198	H	0.816150	0.312580	0.550633
O199	O	0.689658	1.056681	0.317945
C200	C	0.701041	1.043284	0.370064
H201	H	0.742806	1.028235	0.372746
H202	H	0.696529	1.079180	0.395897
H203	H	0.672995	1.011604	0.383694
O204	O	0.560802	0.186000	0.186146
C205	C	0.592340	0.215720	0.152311
H206	H	0.600499	0.255370	0.170674
H207	H	0.630749	0.194415	0.145347
H208	H	0.571275	0.221405	0.113553
H209	H	0.305274	0.346190	0.345938
O210	O	0.202017	0.351507	0.351213
C211	C	0.237833	0.381043	0.380669
H212	H	0.276741	0.382810	0.359242
H213	H	0.222045	0.422250	0.386170
H214	H	0.243675	0.361954	0.420414
H215	H	0.457388	0.191193	0.191429
H216	H	0.694835	0.953360	0.312621
O217	O	0.689737	0.185946	0.554967
C218	C	0.719533	0.152166	0.586565
H219	H	0.759140	0.170611	0.594760
H220	H	0.698241	0.145147	0.624953
H221	H	0.725310	0.113425	0.565533
O222	O	0.821463	0.554239	0.186164
C223	C	0.873560	0.540839	0.197656
H224	H	0.874611	0.501185	0.217761
H225	H	0.897026	0.538955	0.159947
H226	H	0.891171	0.571540	0.224551
O227	O	0.821323	0.446722	0.186057
C228	C	0.809924	0.460098	0.133936
H229	H	0.789835	0.499763	0.132836
H230	H	0.847673	0.461946	0.110533
H231	H	0.783046	0.429403	0.116291
H232	H	0.816241	0.953306	0.191414
H233	H	0.816137	0.312595	0.451567
H234	H	0.661512	0.157753	0.801797
H235	H	0.054105	0.312728	0.312597
