data_functionalizedCrystal
_audit_creation_method	'MofGen! by Chris Wilmer'
_symmetry_space_group_name_H-M	'P1'
_symmetry_Int_Tables_number	1
_symmetry_cell_setting	triclinic
loop_
_symmetry_equiv_pos_as_xyz
  x,y,z
_cell_length_a	14.044202
_cell_length_b	19.288865
_cell_length_c	17.766277
_cell_angle_alpha	90.006751
_cell_angle_beta	90.004327
_cell_angle_gamma	88.164474
loop_
_atom_site_label
_atom_site_type_symbol
_atom_site_fract_x
_atom_site_fract_y
_atom_site_fract_z
O1	O	-1.256996	-0.167439	-0.062573
O2	O	-0.756996	0.332561	0.437427
O3	O	-0.981052	-0.161391	-0.062582
O4	O	-0.481052	0.338609	0.437418
O5	O	-1.126997	-0.063797	-0.062562
O6	O	-0.626997	0.436203	0.437438
O7	O	-1.111050	-0.265033	-0.062593
O8	O	-0.611050	0.234967	0.437407
O9	O	-1.126978	-0.063800	0.062626
O10	O	-0.626978	0.436200	0.562626
O11	O	-0.981033	-0.161394	0.062607
O12	O	-0.481033	0.338606	0.562607
O13	O	-1.256976	-0.167441	0.062616
O14	O	-0.756976	0.332559	0.562616
Cu15	Cu	-1.119003	-0.164418	0.074042
Cu16	Cu	-0.619003	0.335582	0.574042
Cu17	Cu	-1.119026	-0.164415	-0.074008
Cu18	Cu	-0.619026	0.335585	0.425992
O19	O	-1.111031	-0.265035	0.062596
O20	O	-0.611031	0.234965	0.562596
C21	C	-0.945739	-0.158747	0.000011
C22	C	-0.445739	0.341253	0.500011
C23	C	-0.840547	-0.150857	0.000008
C24	C	-0.340547	0.349143	0.500008
C25	C	-0.590084	-0.192387	0.000009
C26	C	-0.090084	0.307613	0.500009
C27	C	-0.647951	-0.136443	0.000017
C28	C	-0.147951	0.363557	0.500017
C29	C	-0.755121	-0.144465	0.000012
C30	C	-0.255121	0.355535	0.500012
C31	C	-0.482904	-0.184366	0.000014
C32	C	0.017096	0.315634	0.500014
C33	C	-0.292289	-0.170084	0.000021
C34	C	0.207711	0.329916	0.500021
C35	C	-0.397482	-0.177970	0.000018
C36	C	0.102518	0.322030	0.500018
C37	C	-1.126474	-0.037889	0.000034
C38	C	-0.626474	0.462111	0.500034
C39	C	-1.124934	0.039314	0.000041
C40	C	-0.624934	0.539314	0.500041
C41	C	-1.111554	-0.290943	-0.000002
C42	C	-0.611554	0.209057	0.499998
C43	C	-1.113094	-0.368146	-0.000014
C44	C	-0.613094	0.131854	0.499986
N45	N	-1.118993	-0.164420	0.178172
N46	N	-0.618993	0.335580	0.678172
C47	C	-1.210568	0.078506	0.000047
C48	C	-0.710568	0.578506	0.500047
C49	C	-1.209121	0.151046	0.000035
C50	C	-0.709121	0.651046	0.500035
C51	C	-1.122035	0.184391	0.000032
C52	C	-0.622035	0.684391	0.500032
C53	C	-1.036390	0.145190	0.000021
C54	C	-0.536390	0.645190	0.500021
C55	C	-1.037839	0.072651	0.000026
C56	C	-0.537839	0.572651	0.500026
C57	C	-1.053569	0.297078	0.043881
C58	C	-0.553569	0.797078	0.543881
C59	C	-1.052123	0.369615	0.043881
C60	C	-0.552123	0.869615	0.543881
C61	C	-1.117561	0.408124	0.000015
C62	C	-0.617561	0.908124	0.500015
C63	C	-1.184461	0.374087	-0.043841
C64	C	-0.684461	0.874087	0.456159
C65	C	-1.185910	0.301549	-0.043837
C66	C	-0.685910	0.801549	0.456163
C67	C	-1.120454	0.263047	0.000027
C68	C	-0.620454	0.763047	0.500027
C69	C	-1.201632	0.525973	0.000008
C70	C	-0.701632	1.025973	0.500008
C71	C	-1.200181	0.598514	-0.000009
C72	C	-0.700181	1.098514	0.499991
C73	C	-1.027447	0.592656	-0.000016
C74	C	-0.527447	1.092656	0.499984
C75	C	-1.028900	0.520117	-0.000007
C76	C	-0.528900	1.020117	0.499993
C77	C	-1.115995	0.486779	0.000009
C78	C	-0.615995	0.986779	0.500009
N79	N	-1.119042	-0.164407	-0.178138
N80	N	-0.619042	0.335593	0.321862
C81	C	-1.176333	-0.210104	0.782456
C82	C	-0.676333	0.289896	1.282456
C83	C	-1.176324	-0.210110	0.703654
C84	C	-0.676324	0.289890	1.203654
C85	C	-1.119035	-0.164408	0.664261
C86	C	-0.619035	0.335592	1.164261
C87	C	-1.061732	-0.118708	0.703677
C88	C	-0.561732	0.381292	1.203677
C89	C	-1.061736	-0.118708	0.782477
C90	C	-0.561736	0.381292	1.282477
C91	C	-1.116679	-0.101632	0.539426
C92	C	-0.616679	0.398368	1.039426
C93	C	-1.116682	-0.101631	0.460627
C94	C	-0.616682	0.398369	0.960627
C95	C	-1.119017	-0.164408	0.421215
C96	C	-0.619017	0.335592	0.921215
C97	C	-1.121369	-0.227189	0.460611
C98	C	-0.621369	0.272811	0.960611
C99	C	-1.121373	-0.227189	0.539411
C100	C	-0.621373	0.272811	1.039411
C101	C	-1.119024	-0.164403	0.578815
C102	C	-0.619024	0.335597	1.078815
C103	C	-1.176300	-0.210115	0.296363
C104	C	-0.676300	0.289885	0.796363
C105	C	-1.176284	-0.210122	0.217559
C106	C	-0.676284	0.289878	0.717559
C107	C	-1.061698	-0.118714	0.217584
C108	C	-0.561698	0.381286	0.717584
C109	C	-1.061709	-0.118713	0.296386
C110	C	-0.561709	0.381287	0.796386
C111	C	-1.119015	-0.164412	0.335770
C112	C	-0.619015	0.335588	0.835770
H113	H	-1.281488	0.051367	0.000057
H114	H	-0.781488	0.551367	0.500057
Cl115	Cl	-1.113746	-0.022703	0.588965
Cl116	Cl	-0.613746	0.477297	1.088965
Cl117	Cl	-1.248367	-0.267560	0.831964
Cl118	Cl	-0.748367	0.232440	1.331964
H119	H	-1.015085	-0.081498	0.671598
H120	H	-0.515085	0.418502	1.171598
H121	H	-1.222935	-0.247338	0.185476
H122	H	-0.722935	0.252662	0.685476
H123	H	-0.621027	-0.246303	-0.000001
H124	H	-0.121027	0.253697	0.499999
Cl125	Cl	-1.113718	-0.022708	0.411109
Cl126	Cl	-0.613718	0.477292	0.911109
Cl127	Cl	-0.600179	-0.053193	0.000028
Cl128	Cl	-0.100179	0.446807	0.500028
H129	H	-1.222975	-0.247324	0.671563
H130	H	-0.722975	0.252676	1.171563
H131	H	-1.278857	0.182962	0.000038
H132	H	-0.778857	0.682962	0.500038
Cl133	Cl	-1.270003	0.258761	-0.098973
Cl134	Cl	-0.770003	0.758761	0.401027
Cl135	Cl	-1.266731	0.422490	-0.098992
Cl136	Cl	-0.766731	0.922490	0.401008
H137	H	-1.272549	0.498828	0.000017
H138	H	-0.772549	0.998828	0.500017
H139	H	-1.269917	0.630423	-0.000008
H140	H	-0.769917	1.130423	0.499992
H141	H	-1.123285	-0.278307	0.571484
H142	H	-0.623285	0.221693	1.071484
H143	H	-0.959168	0.488206	-0.000008
H144	H	-0.459168	0.988206	0.499992
Cl145	Cl	-0.917966	0.634569	-0.000024
Cl146	Cl	-0.417966	1.134569	0.499976
Cl147	Cl	-0.968024	0.412397	0.099017
Cl148	Cl	-0.468024	0.912397	0.599017
Cl149	Cl	-1.124309	-0.306114	0.411073
Cl150	Cl	-0.624309	0.193886	0.911073
H151	H	-1.000278	0.265729	0.079605
H152	H	-0.500278	0.765729	0.579605
Cl153	Cl	-0.926910	0.187108	0.000011
Cl154	Cl	-0.426910	0.687108	0.500011
H155	H	-0.968104	0.040741	0.000021
H156	H	-0.468104	0.540741	0.500021
H157	H	-1.015082	-0.081495	0.814561
H158	H	-0.515082	0.418505	1.314561
H159	H	-1.222958	-0.247329	0.328431
H160	H	-0.722958	0.252671	0.828431
Cl161	Cl	-0.989669	-0.061263	0.168069
Cl162	Cl	-0.489669	0.438737	0.668069
Cl163	Cl	-0.989687	-0.061259	0.345928
Cl164	Cl	-0.489687	0.438741	0.845928
