data_functionalizedCrystal
_audit_creation_method	'MofGen! by Chris Wilmer'
_symmetry_space_group_name_H-M	'P1'
_symmetry_Int_Tables_number	1
_symmetry_cell_setting	triclinic
loop_
_symmetry_equiv_pos_as_xyz
  x,y,z
_cell_length_a	6.817900
_cell_length_b	13.212833
_cell_length_c	27.924317
_cell_angle_alpha	90.868608
_cell_angle_beta	98.979858
_cell_angle_gamma	106.298119
loop_
_atom_site_label
_atom_site_type_symbol
_atom_site_fract_x
_atom_site_fract_y
_atom_site_fract_z
V1	V	-3.986316	-0.145997	-0.144874
O2	O	-3.965103	0.005358	-0.148635
O3	O	-3.947243	-0.287893	-0.137613
O4	O	-3.916109	-0.144479	-0.210918
O5	O	-3.996453	-0.139049	-0.074822
V6	V	-4.471561	-0.127807	-0.137257
O7	O	-4.243797	-0.185898	-0.161582
O8	O	-4.664278	-0.087907	-0.120548
O9	O	-4.287428	0.014089	-0.144517
O10	O	-4.610171	-0.279162	-0.133495
O11	O	-4.578822	-0.134755	-0.207308
O12	O	-4.318562	-0.129326	-0.071212
C13	C	-3.795218	-0.322461	-0.133710
C14	C	-3.844413	-0.438468	-0.128214
C15	C	-3.887151	-0.586605	-0.076715
C16	C	-3.840921	-0.477604	-0.081874
C17	C	-3.894133	-0.508340	-0.169396
C18	C	-3.940363	-0.617340	-0.164237
C19	C	-3.936873	-0.656468	-0.117895
C20	C	-3.983118	-0.765471	-0.112736
C21	C	-4.036314	-0.796204	-0.200257
C22	C	-3.990084	-0.687204	-0.205416
C23	C	-3.755503	-0.139521	-0.227218
C24	C	-3.779447	-0.139219	-0.281168
C25	C	-3.993852	-0.232391	-0.669162
C26	C	-3.904181	-0.233692	-0.466402
O27	O	-3.929958	-0.315195	-0.442515
N28	N	-3.848929	-0.138212	-0.438306
C29	C	-3.816081	-0.042400	-0.460904
O30	O	-3.767008	0.038782	-0.432354
C31	C	-3.905738	-0.041099	-0.663663
C32	C	-3.961011	-0.136586	-0.691756
C33	C	-4.049119	-0.327870	-0.697255
C34	C	-4.071546	-0.327544	-0.747943
C35	C	-4.038706	-0.231739	-0.770537
C36	C	-3.983438	-0.136260	-0.742444
C37	C	-3.872875	0.054712	-0.686259
C38	C	-3.895290	0.055029	-0.736953
C39	C	-3.950563	-0.040458	-0.765046
C40	C	-3.973025	-0.040130	-0.815725
N41	N	-4.028276	-0.135609	-0.843821
C42	C	-4.061117	-0.231414	-0.821226
C43	C	-3.769017	-0.043089	-0.354452
C44	C	-3.746606	-0.043414	-0.303762
C45	C	-3.834704	-0.234706	-0.309264
C46	C	-3.857129	-0.234381	-0.359955
C47	C	-3.824268	-0.138569	-0.382548
C48	C	-4.108213	-0.230723	-0.927673
C49	C	-4.130647	-0.230388	-0.978365
C50	C	-4.042537	-0.039097	-0.972859
C51	C	-4.020116	-0.039430	-0.922172
C52	C	-4.052952	-0.135252	-0.899580
O53	O	-3.947258	0.041332	-0.839643
O54	O	-4.110143	-0.312583	-0.849784
C55	C	-3.971425	-0.232717	-0.618475
C56	C	-3.916157	-0.137238	-0.590382
C57	C	-3.883317	-0.041433	-0.612976
C58	C	-3.893747	-0.137563	-0.539692
C59	C	-3.926587	-0.233367	-0.517098
C60	C	-3.981838	-0.328847	-0.545194
C61	C	-4.004265	-0.328521	-0.595881
C62	C	-3.828066	0.054047	-0.584881
C63	C	-3.805645	0.053713	-0.534194
C64	C	-3.838485	-0.042092	-0.511599
C65	C	-4.102796	0.048652	-0.148419
C66	C	-4.032839	0.164657	-0.153918
C67	C	-4.142511	-0.134287	-0.054910
C68	C	-4.097806	-0.134584	-0.000959
H69	H	-3.980279	-0.797326	-0.075002
C70	C	-3.689252	-0.341078	-0.253319
C71	C	-3.870772	-0.340015	-0.284420
H72	H	-3.711504	-0.406090	-0.237981
H73	H	-3.653170	-0.284258	-0.229341
H74	H	-3.579986	-0.333626	-0.271545
H75	H	-3.980035	-0.347460	-0.266194
H76	H	-3.906880	-0.396852	-0.308401
H77	H	-3.760651	0.131475	-0.511324
C78	C	-3.914401	0.063335	-0.410386
C79	C	-3.732911	0.062236	-0.379283
H80	H	-3.892108	0.128356	-0.425716
H81	H	-4.023670	0.055878	-0.392168
H82	H	-3.950486	0.006522	-0.434375
H83	H	-3.696834	0.119044	-0.355291
H84	H	-3.623608	0.069704	-0.397502
H85	H	-3.992911	-0.655330	-0.243146
H86	H	-3.884324	-0.618463	-0.038982
H87	H	-4.076801	-0.853100	-0.233788
C88	C	-3.935294	0.149686	-0.921828
C89	C	-3.959373	0.065528	-0.891289
H90	H	-3.897770	0.214483	-0.902763
H91	H	-4.062073	0.142488	-0.943150
H92	H	-3.829679	0.149170	-0.940276
H93	H	-4.065000	0.066039	-0.872842
H94	H	-3.832577	0.072728	-0.869958
C95	C	-4.215464	-0.419510	-0.978703
C96	C	-4.191393	-0.335354	-1.009244
H97	H	-4.252949	-0.484307	-0.997767
H98	H	-4.321079	-0.419004	-0.960260
H99	H	-4.088669	-0.412299	-0.957376
H100	H	-4.318193	-0.342561	-1.030569
H101	H	-4.085771	-0.335862	-1.027696
H102	H	-4.134948	-0.308749	-0.909285
C103	C	-3.753916	-0.495942	-0.243517
C104	C	-3.897948	-0.465321	-0.220333
H105	H	-3.756266	-0.469379	-0.274963
H106	H	-3.788588	-0.570849	-0.246338
H107	H	-3.619206	-0.468348	-0.224977
H108	H	-4.032661	-0.492922	-0.238871
H109	H	-3.863289	-0.390399	-0.217514
H110	H	-3.800430	-0.420724	-0.048342
C111	C	-4.089070	-0.517631	-0.596211
C112	C	-4.065000	-0.433484	-0.626757
H113	H	-4.126550	-0.582433	-0.615271
H114	H	-4.194689	-0.517121	-0.577770
H115	H	-3.962278	-0.510415	-0.574883
H116	H	-4.191798	-0.440696	-0.648083
H117	H	-3.959374	-0.433995	-0.645206
H118	H	-4.075860	-0.405889	-0.678865
H119	H	-4.116548	-0.405299	-0.770812
H120	H	-3.902129	-0.312134	-0.382825
H121	H	-3.701631	0.034340	-0.280893
H122	H	-3.827871	0.132468	-0.663394
C123	C	-4.037769	0.046319	-1.048125
C124	C	-4.006427	0.066209	-0.997701
H125	H	-4.015451	0.111333	-1.063460
H126	H	-4.175738	0.003742	-1.058998
H127	H	-3.943345	0.010408	-1.056111
H128	H	-4.100862	0.102114	-0.989714
H129	H	-3.868437	0.108804	-0.986823
C130	C	-3.805961	0.244083	-0.726419
C131	C	-3.859194	0.160351	-0.761786
H132	H	-3.783699	0.309101	-0.741751
H133	H	-3.682849	0.243324	-0.705325
H134	H	-3.915256	0.236616	-0.708201
H135	H	-3.749892	0.167813	-0.780002
H136	H	-3.982321	0.161111	-0.782888
H137	H	-4.008583	-0.406855	-0.526789
H138	H	-3.801310	0.132064	-0.603271
