data_functionalizedCrystal
_audit_creation_method	'MofGen! by Chris Wilmer'
_symmetry_space_group_name_H-M	'P1'
_symmetry_Int_Tables_number	1
_symmetry_cell_setting	triclinic
loop_
_symmetry_equiv_pos_as_xyz
  x,y,z
_cell_length_a	13.897447
_cell_length_b	21.295418
_cell_length_c	13.897441
_cell_angle_alpha	90.045201
_cell_angle_beta	90.026528
_cell_angle_gamma	90.039407
loop_
_atom_site_label
_atom_site_type_symbol
_atom_site_fract_x
_atom_site_fract_y
_atom_site_fract_z
Zn1	Zn	0.383515	-0.962380	-0.546038
Zn2	Zn	0.544837	-0.962305	-0.384751
Zn3	Zn	0.383609	-0.857108	-0.384688
Zn4	Zn	0.544821	-0.857090	-0.545935
O5	O	0.464195	-0.909721	-0.465353
O6	O	0.404882	-1.050459	-0.524713
O7	O	0.523495	-0.948326	-0.249761
O8	O	0.248615	-0.871112	-0.406108
O9	O	0.523405	-1.050404	-0.406216
O10	O	0.248546	-0.948455	-0.524652
O11	O	0.405042	-0.871039	-0.249715
O12	O	0.405027	-0.769016	-0.406008
O13	O	0.523378	-0.871081	-0.680930
O14	O	0.523469	-0.769003	-0.524475
O15	O	0.404867	-0.948437	-0.681006
O16	O	0.679816	-0.948308	-0.406116
O17	O	0.679805	-0.871007	-0.524537
C18	C	0.464257	-0.746169	-0.465224
C19	C	0.464306	-0.676201	-0.465192
C20	C	0.526063	-0.643344	-0.526782
C21	C	0.526043	-0.577601	-0.526818
C22	C	0.464277	-0.544718	-0.465247
C23	C	0.402509	-0.577583	-0.403652
C24	C	0.402523	-0.643325	-0.403625
N25	N	0.456756	-0.441444	-0.380868
N26	N	0.456748	-0.378993	-0.380897
C27	C	0.464228	-0.346644	-0.465327
N28	N	0.471736	-0.379105	-0.549730
N29	N	0.471750	-0.441563	-0.549700
C30	C	0.464254	-0.473433	-0.465270
C31	C	0.525967	-0.242501	-0.526962
C32	C	0.525941	-0.176757	-0.526999
C33	C	0.402411	-0.176741	-0.403825
C34	C	0.402432	-0.242483	-0.403796
C35	C	0.464215	-0.275359	-0.465363
C36	C	0.714810	-0.909665	-0.465343
C37	C	0.822024	-0.909698	-0.465371
C38	C	0.909093	-0.909727	-0.465397
C39	C	1.018326	-0.909769	-0.465427
C40	C	1.212602	-0.909789	-0.465397
C41	C	1.105388	-0.909806	-0.465447
C42	C	0.464110	-0.909765	-0.716946
C43	C	0.464074	-0.909784	-0.824160
C44	C	0.464151	-0.073911	-0.465456
C45	C	0.464173	-0.143879	-0.465428
C46	C	0.464009	-0.909801	-1.020456
C47	C	0.464048	-0.909790	-0.911223
C48	C	0.464211	-0.909712	-0.214739
C49	C	0.463975	-0.909815	-0.107525
H50	H	0.352148	-0.269236	-0.353637
F51	F	0.336790	-0.678295	-0.338069
H52	H	0.352217	-0.550806	-0.353522
F53	F	0.591716	-0.277492	-0.592490
F54	F	0.591815	-0.678329	-0.592311
F55	F	0.336669	-0.141749	-0.338300
F56	F	0.591669	-0.141788	-0.592561
H57	H	0.576332	-0.550844	-0.576976
