data_functionalizedCrystal
_audit_creation_method	'MofGen! by Chris Wilmer'
_symmetry_space_group_name_H-M	'P1'
_symmetry_Int_Tables_number	1
_symmetry_cell_setting	triclinic
loop_
_symmetry_equiv_pos_as_xyz
  x,y,z
_cell_length_a	18.215407
_cell_length_b	25.639239
_cell_length_c	18.215399
_cell_angle_alpha	89.969965
_cell_angle_beta	89.980167
_cell_angle_gamma	90.039134
loop_
_atom_site_label
_atom_site_type_symbol
_atom_site_fract_x
_atom_site_fract_y
_atom_site_fract_z
Zn1	Zn	1.125001	-0.208150	-0.416105
Zn2	Zn	1.625001	0.291850	0.083895
Zn3	Zn	1.124880	-0.295586	-0.293034
Zn4	Zn	1.624880	0.204414	0.206966
Zn5	Zn	1.001934	-0.208167	-0.293053
Zn6	Zn	1.501934	0.291833	0.206947
Zn7	Zn	1.001870	-0.295557	-0.416059
Zn8	Zn	1.501870	0.204443	0.083941
O9	O	1.063421	-0.251865	-0.354563
O10	O	1.563421	0.248135	0.145437
O11	O	1.227970	-0.219754	-0.399791
O12	O	1.727970	0.280246	0.100209
O13	O	1.108547	-0.284009	-0.190052
O14	O	1.608547	0.215991	0.309948
O15	O	1.018337	-0.135000	-0.309403
O16	O	1.518337	0.365000	0.190597
O17	O	1.227880	-0.283992	-0.309372
O18	O	1.727880	0.216008	0.190628
O19	O	1.108754	-0.134987	-0.399809
O20	O	1.608754	0.365013	0.100191
O21	O	1.018219	-0.219783	-0.190066
O22	O	1.518219	0.280217	0.309934
O23	O	0.898941	-0.219754	-0.309358
O24	O	1.398941	0.280246	0.190642
O25	O	1.018228	-0.283943	-0.519050
O26	O	1.518228	0.216057	-0.019050
O27	O	0.898894	-0.283959	-0.399731
O28	O	1.398894	0.216041	0.100269
O29	O	1.108692	-0.219725	-0.519083
O30	O	1.608692	0.280275	-0.019083
O31	O	1.108485	-0.368747	-0.309327
O32	O	1.608485	0.131253	0.190673
O33	O	1.018110	-0.368726	-0.399713
O34	O	1.518110	0.131274	0.100287
C35	C	0.872215	-0.251856	-0.354542
C36	C	1.372215	0.248144	0.145458
C37	C	0.790416	-0.251865	-0.354550
C38	C	1.290416	0.248135	0.145450
C39	C	0.602217	-0.285349	-0.401548
C40	C	1.102217	0.214651	0.098452
C41	C	0.525358	-0.285350	-0.401557
C42	C	1.025358	0.214650	0.098443
C43	C	0.525378	-0.218391	-0.307594
C44	C	1.025378	0.281609	0.192406
C45	C	0.602235	-0.218387	-0.307589
C46	C	1.102235	0.281613	0.192411
C47	C	0.640653	-0.251869	-0.354565
C48	C	1.140653	0.248131	0.145435
C49	C	0.486937	-0.251874	-0.354579
C50	C	0.986937	0.248126	0.145421
C51	C	0.403603	-0.251876	-0.354589
C52	C	0.903603	0.248124	0.145411
C53	C	0.723992	-0.251867	-0.354556
C54	C	1.223992	0.248133	0.145444
C55	C	1.063298	-0.387708	-0.354529
C56	C	1.563298	0.112292	0.145471
C57	C	1.063312	-0.445822	-0.354539
C58	C	1.563312	0.054178	0.145461
C59	C	1.110602	-0.806183	-0.307579
C60	C	1.610602	-0.306183	0.192421
C61	C	1.110631	-0.860787	-0.307589
C62	C	1.610631	-0.360787	0.192411
O63	O	1.150711	-0.889023	-0.267625
O64	O	1.650711	-0.389023	0.232375
N65	N	1.063551	-0.888104	-0.354612
N66	N	1.563551	-0.388104	0.145388
C67	C	1.016444	-0.860813	-0.401633
C68	C	1.516444	-0.360813	0.098367
O69	O	0.976402	-0.889062	-0.441631
O70	O	1.476402	-0.389062	0.058369
C71	C	1.016420	-0.806210	-0.401626
C72	C	1.516420	-0.306210	0.098374
C73	C	1.063498	-0.778896	-0.354595
C74	C	1.563498	-0.278896	0.145405
C75	C	1.157677	-0.778869	-0.260553
C76	C	1.657677	-0.278869	0.239447
C77	C	1.157647	-0.724269	-0.260542
C78	C	1.657647	-0.224269	0.239458
C79	C	1.110543	-0.696982	-0.307558
C80	C	1.610543	-0.196982	0.192442
C81	C	1.063468	-0.724296	-0.354584
C82	C	1.563468	-0.224296	0.145416
C83	C	0.969318	-0.778920	-0.448650
C84	C	1.469318	-0.278920	0.051350
C85	C	0.969298	-0.724313	-0.448640
C86	C	1.469298	-0.224313	0.051360
C87	C	1.016376	-0.697000	-0.401609
C88	C	1.516376	-0.197000	0.098391
C89	C	1.016334	-0.642408	-0.401590
C90	C	1.516334	-0.142408	0.098410
N91	N	1.063414	-0.615092	-0.354567
N92	N	1.563414	-0.115092	0.145433
C93	C	1.110519	-0.642379	-0.307551
C94	C	1.610519	-0.142379	0.192449
C95	C	1.016500	-0.975484	-0.401644
C96	C	1.516500	-0.475484	0.098356
C97	C	1.016520	-1.030086	-0.401648
C98	C	1.516520	-0.530086	0.098352
C99	C	1.110708	-1.030057	-0.307605
C100	C	1.610708	-0.530057	0.192395
C101	C	1.110683	-0.975453	-0.307598
C102	C	1.610683	-0.475453	0.192402
C103	C	1.063580	-0.948167	-0.354621
C104	C	1.563580	-0.448167	0.145379
C105	C	1.110452	-0.527714	-0.307532
C106	C	1.610452	-0.027714	0.192468
C107	C	1.110416	-0.473108	-0.307523
C108	C	1.610416	0.026892	0.192477
C109	C	1.016232	-0.473143	-0.401569
C110	C	1.516232	0.026857	0.098431
C111	C	1.016265	-0.527743	-0.401575
C112	C	1.516265	-0.027743	0.098425
C113	C	1.063381	-0.555027	-0.354554
C114	C	1.563381	-0.055027	0.145446
O115	O	0.976277	-0.614138	-0.441536
O116	O	1.476277	-0.114138	0.058464
O117	O	1.150561	-0.614123	-0.267567
O118	O	1.650561	-0.114123	0.232433
C119	C	1.255374	-0.251874	-0.354584
C120	C	1.755374	0.248126	0.145416
C121	C	1.337173	-0.251878	-0.354594
C122	C	1.837173	0.248122	0.145406
C123	C	1.063466	-0.251829	-0.546516
C124	C	1.563466	0.248171	-0.046516
C125	C	1.063485	-0.251814	-0.628315
C126	C	1.563485	0.248186	-0.128315
C127	C	1.063566	-0.115492	-0.354613
C128	C	1.563566	0.384508	0.145387
C129	C	1.063627	-0.057378	-0.354634
C130	C	1.563627	0.442622	0.145366
C131	C	1.110607	-0.218344	-0.816528
C132	C	1.610607	0.281656	-0.316528
C133	C	1.110616	-0.218329	-0.893386
C134	C	1.610616	0.281671	-0.393386
C135	C	1.016416	-0.285202	-0.893340
C136	C	1.516416	0.214798	-0.393340
C137	C	1.016404	-0.285214	-0.816483
C138	C	1.516404	0.214786	-0.316483
C139	C	1.063504	-0.251786	-0.778078
C140	C	1.563504	0.248214	-0.278078
C141	C	1.063524	-0.251759	-0.931795
C142	C	1.563524	0.248241	-0.431795
C143	C	1.063534	-0.251742	-1.015128
C144	C	1.563534	0.248258	-0.515128
C145	C	1.063494	-0.251801	-0.694739
C146	C	1.563494	0.248199	-0.194739
C147	C	1.063419	-0.251863	-0.163357
C148	C	1.563419	0.248137	0.336643
C149	C	1.063543	-0.251731	-0.081558
C150	C	1.563543	0.248269	0.418442
H151	H	1.148753	-0.450871	-0.269223
H152	H	1.648753	0.049129	0.230777
O153	O	0.643657	-0.321453	-0.452221
O154	O	1.143657	0.178547	0.047779
H155	H	0.604015	-0.344730	-0.484898
H156	H	1.104015	0.155270	0.015102
O157	O	1.161414	-0.182253	-0.934853
O158	O	1.661414	0.317747	-0.434853
H159	H	1.153503	-0.187852	-0.994750
H160	H	1.653503	0.312148	-0.494750
O161	O	0.965595	-0.321280	-0.774998
O162	O	1.465595	0.178720	-0.274998
H163	H	0.928177	-0.297872	-0.739994
H164	H	1.428177	0.202128	-0.239994
H165	H	0.977932	-0.549983	-0.439874
H166	H	1.477932	-0.049983	0.060126
H167	H	0.978071	-0.312419	-0.924618
H168	H	1.478071	0.187581	-0.424618
H169	H	0.494068	-0.312613	-0.439817
H170	H	0.994068	0.187387	0.060183
O171	O	0.918542	-0.808373	-0.499379
O172	O	1.418542	-0.308373	0.000621
H173	H	0.931139	-0.797855	-0.557144
H174	H	1.431139	-0.297855	-0.057144
O175	O	0.483943	-0.182296	-0.256903
O176	O	0.983943	0.317704	0.243097
H177	H	0.424041	-0.187931	-0.264786
H178	H	0.924041	0.312069	0.235214
O179	O	0.918484	-0.694882	-0.499350
O180	O	1.418484	-0.194882	0.000650
H181	H	0.885749	-0.723053	-0.532044
H182	H	1.385749	-0.223053	-0.032044
O183	O	0.965426	-0.443709	-0.452279
O184	O	1.465426	0.056291	0.047721
H185	H	0.998337	-0.418795	-0.489747
H186	H	1.498337	0.081205	0.010253
O187	O	0.643699	-0.182282	-0.256901
O188	O	1.143699	0.317718	0.243099
H189	H	0.604074	-0.159009	-0.224225
H190	H	1.104074	0.340991	0.275775
H191	H	1.148821	-0.549922	-0.269245
H192	H	1.648821	-0.049922	0.230755
H193	H	0.978136	-0.953270	-0.439934
H194	H	1.478136	-0.453270	0.060066
O195	O	1.208438	-0.694814	-0.209826
O196	O	1.708438	-0.194814	0.290174
H197	H	1.195864	-0.705335	-0.152057
H198	H	1.695864	-0.205335	0.347943
O199	O	1.208482	-0.808296	-0.209834
O200	O	1.708482	-0.308296	0.290166
H201	H	1.241202	-0.780121	-0.177133
H202	H	1.741202	-0.280121	0.322867
H203	H	1.149019	-0.953218	-0.269302
H204	H	1.649019	-0.453218	0.230698
H205	H	1.149065	-1.052283	-0.269324
H206	H	1.649065	-0.552283	0.230676
O207	O	0.965738	-1.059545	-0.452368
O208	O	1.465738	-0.559545	0.047632
H209	H	0.932985	-1.031391	-0.485060
H210	H	1.432985	-0.531391	0.014940
O211	O	1.161399	-0.182288	-0.775102
O212	O	1.661399	0.317712	-0.275102
H213	H	1.194149	-0.159028	-0.814754
H214	H	1.694149	0.340972	-0.314754
