data_functionalizedCrystal
_audit_creation_method	'MofGen! by Chris Wilmer'
_symmetry_space_group_name_H-M	'P1'
_symmetry_Int_Tables_number	1
_symmetry_cell_setting	triclinic
loop_
_symmetry_equiv_pos_as_xyz
  x,y,z
_cell_length_a	15.944551
_cell_length_b	26.210047
_cell_length_c	15.944551
_cell_angle_alpha	90.003550
_cell_angle_beta	96.501262
_cell_angle_gamma	90.004547
loop_
_atom_site_label
_atom_site_type_symbol
_atom_site_fract_x
_atom_site_fract_y
_atom_site_fract_z
O1	O	1.114531	0.042377	-0.108320
O2	O	0.869981	0.042390	-0.121676
O3	O	0.998934	0.042378	0.007277
O4	O	0.985578	0.042388	-0.237273
O5	O	0.998909	-0.042480	0.007257
O6	O	0.869956	-0.042468	-0.121696
O7	O	1.114506	-0.042481	-0.108340
Cu8	Cu	0.992229	-0.050223	-0.115020
Cu9	Cu	0.992258	0.050132	-0.114996
O10	O	0.985553	-0.042470	-0.237293
C11	C	0.838675	-0.000038	-0.121132
C12	C	0.745429	-0.000033	-0.119470
N13	N	0.992214	-0.120807	-0.115036
C14	C	0.530572	-0.000046	-0.035565
C15	C	0.469564	0.041795	-0.074518
C16	C	0.574703	-0.000039	-0.116462
C17	C	0.469562	-0.041869	-0.074557
C18	C	0.409790	-0.000047	-0.113551
C19	C	0.514923	0.041837	-0.155437
C20	C	0.514927	-0.041864	-0.155465
C21	C	0.453937	-0.000013	-0.194476
C22	C	0.669705	-0.000034	-0.118137
C23	C	0.314789	-0.000049	-0.111883
C24	C	1.049353	-0.473326	-0.057909
C25	C	1.049372	-0.686985	-0.057897
O26	O	1.097920	-0.714611	-0.009329
N27	N	0.992263	-0.713701	-0.114978
C28	C	0.935142	-0.686999	-0.172062
O29	O	0.886562	-0.714625	-0.220606
C30	C	0.935120	-0.473342	-0.172069
C31	C	0.992238	-0.446628	-0.114990
C32	C	1.106466	-0.446612	-0.000834
C33	C	1.106464	-0.393201	-0.000841
C34	C	1.049349	-0.366503	-0.057922
C35	C	0.992236	-0.393217	-0.114997
C36	C	0.877996	-0.446641	-0.229148
C37	C	0.877994	-0.393223	-0.229143
C38	C	0.935112	-0.366510	-0.172065
C39	C	0.935119	-0.313107	-0.172084
N40	N	0.992228	-0.286391	-0.115004
C41	C	1.049342	-0.313089	-0.057923
C42	C	0.935159	-0.799172	-0.172055
C43	C	0.935165	-0.852587	-0.172055
C44	C	1.049394	-0.852568	-0.057889
C45	C	1.049391	-0.799153	-0.057894
C46	C	0.992267	-0.772456	-0.114975
C47	C	1.049334	-0.200921	-0.057941
C48	C	1.049329	-0.147505	-0.057955
C49	C	0.935098	-0.147528	-0.172118
C50	C	0.935105	-0.200939	-0.172107
C51	C	0.992227	-0.227635	-0.115012
O52	O	0.886589	-0.285448	-0.220621
O53	O	1.097902	-0.285453	-0.009373
C54	C	1.049355	-0.526737	-0.057902
C55	C	0.992242	-0.553451	-0.114977
C56	C	0.935128	-0.526753	-0.172058
C57	C	0.992249	-0.606865	-0.114976
C58	C	1.049364	-0.633563	-0.057895
C59	C	1.106472	-0.606847	-0.000814
C60	C	1.106470	-0.553435	-0.000821
C61	C	0.878019	-0.553469	-0.229139
C62	C	0.878026	-0.606881	-0.229128
C63	C	0.935141	-0.633579	-0.172047
C64	C	1.145813	-0.000053	-0.108885
C65	C	1.239059	-0.000054	-0.110547
C66	C	0.998367	-0.000051	0.038561
C67	C	0.996705	-0.000051	0.131807
N68	N	0.992280	0.120715	-0.114973
C69	C	0.986120	-0.000040	-0.268577
C70	C	0.987782	-0.000036	-0.361823
C71	C	0.912801	-0.000039	0.346663
C72	C	0.951751	-0.041882	0.407671
C73	C	0.993698	-0.000047	0.302533
C74	C	0.951794	0.041782	0.407674
C75	C	0.990787	-0.000041	0.467445
C76	C	1.032670	-0.041924	0.362312
C77	C	1.032702	0.041777	0.362309
C78	C	1.071711	-0.000075	0.423298
C79	C	0.995372	-0.000051	0.207530
C80	C	0.989119	-0.000040	0.562446
H81	H	0.563905	0.000003	0.031573
H82	H	1.066847	-0.077337	0.342313
H83	H	0.449465	0.077166	-0.040293
H84	H	0.888663	-0.874333	-0.218542
H85	H	0.831508	-0.531736	-0.275620
C86	C	1.169284	-0.363823	0.061956
H87	H	1.203289	-0.387379	0.095954
H88	H	1.204253	-0.342983	0.031728
H89	H	1.139061	-0.342990	0.096946
H90	H	1.138919	-0.000102	0.456457
H91	H	1.152975	-0.468345	0.045652
C92	C	0.872271	-0.118153	-0.234896
H93	H	0.880447	-0.082517	-0.226712
H94	H	0.881380	-0.126905	-0.290967
H95	H	0.816215	-0.126910	-0.225722
H96	H	0.534922	0.077248	-0.189619
C97	C	0.409134	0.000021	-0.285261
H98	H	0.424653	0.029770	-0.313852
H99	H	0.425352	-0.029417	-0.314217
H100	H	0.349749	-0.000257	-0.283719
H101	H	1.066900	0.077150	0.342187
H102	H	1.152981	-0.531689	0.045658
C103	C	1.112212	-0.881942	0.004906
H104	H	1.104024	-0.917579	-0.003268
H105	H	1.168272	-0.873189	-0.004238
H106	H	1.103073	-0.873188	0.060972
H107	H	0.917578	0.077159	0.427759
H108	H	1.095900	-0.777406	-0.011415
H109	H	1.152980	-0.628593	0.045661
C110	C	0.542120	-0.089648	-0.201657
H111	H	0.526771	-0.119350	-0.172840
H112	H	0.514824	-0.089947	-0.257792
H113	H	0.601553	-0.089133	-0.202818
C114	C	0.442415	-0.089654	-0.028331
H115	H	0.468931	-0.089601	0.028114
H116	H	0.382871	-0.089478	-0.028054
H117	H	0.458715	-0.119365	-0.056527
H118	H	0.888641	-0.777439	-0.218539
H119	H	1.095845	-0.125756	-0.011475
H120	H	1.095847	-0.222650	-0.011448
H121	H	0.831485	-0.468384	-0.275626
H122	H	0.831475	-0.371489	-0.275624
H123	H	0.888603	-0.222690	-0.218594
C124	C	0.815189	-0.636260	-0.291916
H125	H	0.781169	-0.612705	-0.325902
H126	H	0.845389	-0.657101	-0.326906
H127	H	0.780223	-0.657092	-0.261662
H128	H	0.845652	-0.000078	0.313356
C129	C	0.905517	-0.089663	0.434830
H130	H	0.849067	-0.089610	0.408329
H131	H	0.933703	-0.119375	0.418540
H132	H	0.905243	-0.089473	0.494379
