data_functionalizedCrystal
_audit_creation_method	'MofGen! by Chris Wilmer'
_symmetry_space_group_name_H-M	'P1'
_symmetry_Int_Tables_number	1
_symmetry_cell_setting	triclinic
loop_
_symmetry_equiv_pos_as_xyz
  x,y,z
_cell_length_a	19.077236
_cell_length_b	21.295416
_cell_length_c	19.076919
_cell_angle_alpha	92.269099
_cell_angle_beta	90.112677
_cell_angle_gamma	87.676979
loop_
_atom_site_label
_atom_site_type_symbol
_atom_site_fract_x
_atom_site_fract_y
_atom_site_fract_z
Zn1	Zn	1.058266	0.228507	0.440531
Zn2	Zn	1.308266	0.478507	0.690531
Zn3	Zn	1.558266	0.728507	0.940531
Zn4	Zn	1.808266	0.978507	1.190531
Zn5	Zn	1.062894	0.329388	0.323019
Zn6	Zn	1.312894	0.579388	0.573019
Zn7	Zn	1.562894	0.829388	0.823019
Zn8	Zn	1.812894	1.079388	1.073019
Zn9	Zn	0.945481	0.228177	0.318311
Zn10	Zn	1.195481	0.478177	0.568311
Zn11	Zn	1.445481	0.728177	0.818311
Zn12	Zn	1.695481	0.978177	1.068311
Zn13	Zn	0.940713	0.337786	0.435757
Zn14	Zn	1.190713	0.587786	0.685757
Zn15	Zn	1.440713	0.837786	0.935757
Zn16	Zn	1.690713	1.087786	1.185757
O17	O	1.001838	0.280965	0.379404
O18	O	1.251838	0.530965	0.629404
O19	O	1.501838	0.780965	0.879404
O20	O	1.751838	1.030965	1.129404
O21	O	1.157214	0.238513	0.428911
O22	O	1.407214	0.488513	0.678911
O23	O	1.657214	0.738513	0.928911
O24	O	1.907214	0.988513	1.178911
O25	O	1.051252	0.312309	0.224064
O26	O	1.301252	0.562309	0.474064
O27	O	1.551252	0.812309	0.724064
O28	O	1.801252	1.062309	0.974064
O29	O	0.960501	0.140131	0.334551
O30	O	1.210501	0.390131	0.584551
O31	O	1.460501	0.640131	0.834551
O32	O	1.710501	0.890131	1.084551
O33	O	1.160614	0.312629	0.342576
O34	O	1.410614	0.562629	0.592576
O35	O	1.660614	0.812629	0.842576
O36	O	1.910614	1.062629	1.092576
O37	O	1.043363	0.140373	0.424345
O38	O	1.293363	0.390373	0.674345
O39	O	1.543363	0.640373	0.924345
O40	O	1.793363	0.890373	1.174345
O41	O	0.964989	0.237950	0.220605
O42	O	1.214989	0.487950	0.470605
O43	O	1.464989	0.737950	0.720605
O44	O	1.714989	0.987950	0.970605
O45	O	0.846515	0.246094	0.329922
O46	O	1.096515	0.496094	0.579922
O47	O	1.346515	0.746094	0.829922
O48	O	1.596515	0.996094	1.079922
O49	O	0.952373	0.326943	0.534721
O50	O	1.202373	0.576943	0.784721
O51	O	1.452373	0.826943	1.034721
O52	O	1.702373	1.076943	1.284721
O53	O	0.843011	0.326623	0.416209
O54	O	1.093011	0.576623	0.666209
O55	O	1.343011	0.826623	0.916209
O56	O	1.593011	1.076623	1.166209
O57	O	1.038739	0.246656	0.538228
O58	O	1.288739	0.496656	0.788228
O59	O	1.538739	0.746656	1.038228
O60	O	1.788739	0.996656	1.288228
O61	O	1.046628	0.418593	0.337947
O62	O	1.296628	0.668593	0.587947
O63	O	1.546628	0.918593	0.837947
O64	O	1.796628	1.168593	1.087947
O65	O	0.956862	0.424763	0.420775
O66	O	1.206862	0.674763	0.670775
O67	O	1.456862	0.924763	0.920775
O68	O	1.706862	1.174763	1.170775
C69	C	0.819266	0.287234	0.372037
C70	C	1.069266	0.537234	0.622037
C71	C	1.319266	0.787234	0.872037
C72	C	1.569266	1.037234	1.122037
C73	C	0.741160	0.289932	0.368902
C74	C	0.991160	0.539932	0.618902
C75	C	1.241160	0.789932	0.868902
C76	C	1.491160	1.039932	1.118902
C77	C	0.702693	0.252678	0.412448
C78	C	0.952693	0.502678	0.662448
C79	C	1.202693	0.752678	0.912448
C80	C	1.452693	1.002678	1.162448
C81	C	0.629304	0.255209	0.409496
C82	C	0.879304	0.505209	0.659496
C83	C	1.129304	0.755209	0.909496
C84	C	1.379304	1.005209	1.159496
C85	C	0.594384	0.294999	0.363001
C86	C	0.844384	0.544999	0.613001
C87	C	1.094384	0.794999	0.863001
C88	C	1.344384	1.044999	1.113001
C89	C	0.632856	0.332255	0.319451
C90	C	0.882856	0.582255	0.569451
C91	C	1.132856	0.832255	0.819451
C92	C	1.382856	1.082255	1.069451
C93	C	0.706244	0.329720	0.322399
C94	C	0.956244	0.579720	0.572399
C95	C	1.206244	0.829720	0.822399
C96	C	1.456244	1.079720	1.072399
C97	C	0.375089	0.306710	0.349351
C98	C	0.625089	0.556710	0.599351
C99	C	0.875089	0.806710	0.849351
C100	C	1.125089	1.056710	1.099351
C101	C	0.301696	0.309244	0.346407
C102	C	0.551696	0.559244	0.596407
C103	C	0.801696	0.809244	0.846407
C104	C	1.051696	1.059244	1.096407
C105	C	0.298149	0.232197	0.436452
C106	C	0.548149	0.482197	0.686452
C107	C	0.798149	0.732197	0.936452
C108	C	1.048149	0.982197	1.186452
C109	C	0.371538	0.229668	0.439399
C110	C	0.621538	0.479668	0.689399
C111	C	0.871538	0.729668	0.939399
C112	C	1.121538	0.979668	1.189399
C113	C	0.410004	0.266921	0.395846
C114	C	0.660004	0.516921	0.645846
C115	C	0.910004	0.766921	0.895846
C116	C	1.160004	1.016921	1.145846
N117	N	0.519369	0.297589	0.359984
N118	N	0.769369	0.547589	0.609984
N119	N	1.019369	0.797589	0.859984
N120	N	1.269369	1.047589	1.109984
N121	N	0.485018	0.264327	0.398860
N122	N	0.735018	0.514327	0.648860
N123	N	0.985018	0.764327	0.898860
N124	N	1.235018	1.014327	1.148860
C125	C	1.001748	0.444518	0.379370
C126	C	1.251748	0.694518	0.629370
C127	C	1.501748	0.944518	0.879370
C128	C	1.751748	1.194518	1.129370
C129	C	1.001773	0.514486	0.379381
C130	C	1.251773	0.764486	0.629381
C131	C	1.501773	1.014486	0.879381
C132	C	1.751773	1.264486	1.129381
C133	C	1.048552	0.544119	0.336302
C134	C	1.298552	0.794119	0.586302
C135	C	1.548552	1.044119	0.836302
C136	C	1.798552	1.294119	1.086302
C137	C	1.048585	0.609861	0.336322
C138	C	1.298585	0.859861	0.586322
C139	C	1.548585	1.109861	0.836322
C140	C	1.798585	1.359861	1.086322
C141	C	1.001825	0.645968	0.379414
C142	C	1.251825	0.895968	0.629414
C143	C	1.501825	1.145968	0.879414
C144	C	1.751825	1.395968	1.129414
C145	C	0.955042	0.616327	0.422502
C146	C	1.205042	0.866327	0.672502
C147	C	1.455042	1.116327	0.922502
C148	C	1.705042	1.366327	1.172502
C149	C	0.955016	0.550586	0.422485
C150	C	1.205016	0.800586	0.672485
C151	C	1.455016	1.050586	0.922485
C152	C	1.705016	1.300586	1.172485
N153	N	0.940138	0.751549	0.382295
N154	N	1.190138	1.001549	0.632295
N155	N	1.440138	1.251549	0.882295
N156	N	1.690138	1.501549	1.132295
N157	N	0.940165	0.814000	0.382306
N158	N	1.190165	1.064000	0.632306
N159	N	1.440165	1.314000	0.882306
N160	N	1.690165	1.564000	1.132306
C161	C	1.001903	0.844042	0.379467
C162	C	1.251903	1.094042	0.629467
C163	C	1.501903	1.344042	0.879467
C164	C	1.751903	1.594042	1.129467
N165	N	1.063614	0.809273	0.376601
N166	N	1.313614	1.059273	0.626601
N167	N	1.563614	1.309273	0.876601
N168	N	1.813614	1.559273	1.126601
N169	N	1.063586	0.746816	0.376586
N170	N	1.313586	0.996816	0.626586
N171	N	1.563586	1.246816	0.876586
N172	N	1.813586	1.496816	1.126586
C173	C	1.001849	0.717253	0.379437
C174	C	1.251849	0.967253	0.629437
C175	C	1.501849	1.217253	0.879437
C176	C	1.751849	1.467253	1.129437
C177	C	1.048721	0.944960	0.336407
C178	C	1.298721	1.194960	0.586407
C179	C	1.548721	1.444960	0.836407
C180	C	1.798721	1.694960	1.086407
C181	C	1.048755	1.010703	0.336432
C182	C	1.298755	1.260703	0.586432
C183	C	1.548755	1.510703	0.836432
C184	C	1.798755	1.760703	1.086432
C185	C	0.955206	1.017167	0.422608
C186	C	1.205206	1.267167	0.672608
C187	C	1.455206	1.517167	0.922608
C188	C	1.705206	1.767167	1.172608
C189	C	0.955179	0.951425	0.422587
C190	C	1.205179	1.201425	0.672587
C191	C	1.455179	1.451425	0.922587
C192	C	1.705179	1.701425	1.172587
C193	C	1.001936	0.915325	0.379483
C194	C	1.251936	1.165325	0.629483
C195	C	1.501936	1.415325	0.879483
C196	C	1.751936	1.665325	1.129483
C197	C	1.185124	0.274671	0.386801
C198	C	1.435124	0.524671	0.636801
C199	C	1.685124	0.774671	0.886801
C200	C	1.935124	1.024671	1.136801
C201	C	1.263229	0.271989	0.389953
C202	C	1.513229	0.521989	0.639953
C203	C	1.763229	0.771989	0.889953
C204	C	2.013229	1.021989	1.139953
C205	C	1.001948	1.116773	0.379468
C206	C	1.251948	1.366773	0.629468
C207	C	1.501948	1.616773	0.879468
C208	C	1.751948	1.866773	1.129468
C209	C	1.001996	1.046805	0.379525
C210	C	1.251996	1.296805	0.629525
C211	C	1.501996	1.546805	0.879525
C212	C	1.751996	1.796805	1.129525
C213	C	0.994508	0.287773	0.562683
C214	C	1.244508	0.537773	0.812683
C215	C	1.494508	0.787773	1.062683
C216	C	1.744508	1.037773	1.312683
C217	C	0.991384	0.290674	0.640786
C218	C	1.241384	0.540674	0.890786
C219	C	1.491384	0.790674	1.140786
C220	C	1.741384	1.040674	1.390786
C221	C	1.009181	0.274136	0.196840
C222	C	1.259181	0.524136	0.446840
C223	C	1.509181	0.774136	0.696840
C224	C	1.759181	1.024136	0.946840
C225	C	1.012441	0.271053	0.118743
C226	C	1.262441	0.521053	0.368743
C227	C	1.512441	0.771053	0.618743
C228	C	1.762441	1.021053	0.868743
C229	C	1.034880	0.250239	0.679306
C230	C	1.284880	0.500239	0.929306
C231	C	1.534880	0.750239	1.179306
C232	C	1.784880	1.000239	1.429306
C233	C	1.031937	0.252963	0.752691
C234	C	1.281937	0.502963	1.002691
C235	C	1.531937	0.752963	1.252691
C236	C	1.781937	1.002963	1.502691
C237	C	0.985500	0.296126	0.787555
C238	C	1.235500	0.546126	1.037555
C239	C	1.485500	0.796126	1.287555
C240	C	1.735500	1.046126	1.537555
C241	C	0.941999	0.336564	0.749030
C242	C	1.191999	0.586564	0.999030
C243	C	1.441999	0.836564	1.249030
C244	C	1.691999	1.086564	1.499030
C245	C	0.944940	0.333836	0.675646
C246	C	1.194940	0.583836	0.925646
C247	C	1.444940	0.833836	1.175646
C248	C	1.694940	1.083836	1.425646
C249	C	0.971880	0.308763	1.006834
C250	C	1.221880	0.558763	1.256834
C251	C	1.471880	0.808763	1.506834
C252	C	1.721880	1.058763	1.756834
C253	C	0.968944	0.311489	1.080224
C254	C	1.218944	0.561489	1.330224
C255	C	1.468944	0.811489	1.580224
C256	C	1.718944	1.061489	1.830224
C257	C	1.058882	0.227886	1.083879
C258	C	1.308882	0.477886	1.333879
C259	C	1.558882	0.727886	1.583879
C260	C	1.808882	0.977886	1.833879
C261	C	1.061821	0.225165	1.010494
C262	C	1.311821	0.475165	1.260494
C263	C	1.561821	0.725165	1.510494
C264	C	1.811821	0.975165	1.760494
C265	C	1.018318	0.265600	0.971975
C266	C	1.268318	0.515600	1.221975
C267	C	1.518318	0.765600	1.471975
C268	C	1.768318	1.015600	1.721975
N269	N	0.982492	0.298913	0.862567
N270	N	1.232492	0.548913	1.112567
N271	N	1.482492	0.798913	1.362567
N272	N	1.732492	1.048913	1.612567
N273	N	1.021323	0.262810	0.896965
N274	N	1.271323	0.512810	1.146965
N275	N	1.521323	0.762810	1.396965
N276	N	1.771323	1.012810	1.646965
H277	H	0.604418	0.364650	0.281590
H278	H	0.854418	0.614650	0.531590
H279	H	1.104418	0.864650	0.781590
H280	H	1.354418	1.114650	1.031590
F281	F	0.925580	0.351798	0.965849
F282	F	1.175580	0.601798	1.215849
F283	F	1.425580	0.851798	1.465849
F284	F	1.675580	1.101798	1.715849
H285	H	1.086852	1.034829	0.301354
H286	H	1.336852	1.284829	0.551354
H287	H	1.586852	1.534829	0.801354
H288	H	1.836852	1.784829	1.051354
H289	H	0.273266	0.341649	0.308545
H290	H	0.523266	0.591649	0.558545
H291	H	0.773266	0.841649	0.808545
H292	H	1.023266	1.091649	1.058545
H293	H	0.597987	0.224874	0.444957
H294	H	0.847987	0.474874	0.694957
H295	H	1.097987	0.724874	0.944957
H296	H	1.347987	0.974874	1.194957
H297	H	0.904187	0.371706	0.777422
H298	H	1.154187	0.621706	1.027422
H299	H	1.404187	0.871706	1.277422
H300	H	1.654187	1.121706	1.527422
F301	F	0.416019	0.346347	0.302986
F302	F	0.666019	0.596347	0.552986
F303	F	0.916019	0.846347	0.802986
F304	F	1.166019	1.096347	1.052986
H305	H	0.909513	0.366757	0.644284
H306	H	1.159513	0.616757	0.894284
H307	H	1.409513	0.866757	1.144284
H308	H	1.659513	1.116757	1.394284
F309	F	0.257206	0.192551	0.482800
F310	F	0.507206	0.442551	0.732800
F311	F	0.757206	0.692551	0.982800
F312	F	1.007206	0.942551	1.232800
F313	F	0.919515	0.357429	1.117327
F314	F	1.169515	0.607429	1.367327
F315	F	1.419515	0.857429	1.617327
F316	F	1.669515	1.107429	1.867327
H317	H	0.731119	0.220278	0.450311
H318	H	0.981119	0.470278	0.700311
H319	H	1.231119	0.720278	0.950311
H320	H	1.481119	0.970278	1.200311
F321	F	0.905445	1.055590	0.468474
F322	F	1.155445	1.305590	0.718474
F323	F	1.405445	1.555590	0.968474
F324	F	1.655445	1.805590	1.218474
H325	H	1.067358	0.220037	0.784051
H326	H	1.317358	0.470037	1.034051
H327	H	1.567358	0.720037	1.284051
H328	H	1.817358	0.970037	1.534051
F329	F	0.747183	0.369372	0.276052
F330	F	0.997183	0.619372	0.526052
F331	F	1.247183	0.869372	0.776052
F332	F	1.497183	1.119372	1.026052
F333	F	1.084309	0.204301	0.642207
F334	F	1.334309	0.454301	0.892207
F335	F	1.584309	0.704301	1.142207
F336	F	1.834309	0.954301	1.392207
F337	F	0.408698	0.187321	0.488889
F338	F	0.658698	0.437321	0.738889
F339	F	0.908698	0.687321	0.988889
F340	F	1.158698	0.937321	1.238889
H341	H	1.086626	0.514728	0.301206
H342	H	1.336626	0.764728	0.551206
H343	H	1.586626	1.014728	0.801206
H344	H	1.836626	1.264728	1.051206
H345	H	1.086681	0.633994	0.301242
H346	H	1.336681	0.883994	0.551242
H347	H	1.586681	1.133994	0.801242
H348	H	1.836681	1.383994	1.051242
H349	H	0.917084	0.927296	0.457663
H350	H	1.167084	1.177296	0.707663
H351	H	1.417084	1.427296	0.957663
H352	H	1.667084	1.677296	1.207663
H353	H	0.916972	0.645729	0.457588
H354	H	1.166972	0.895729	0.707588
H355	H	1.416972	1.145729	0.957588
H356	H	1.666972	1.395729	1.207588
F357	F	1.111246	0.179225	0.973394
F358	F	1.361246	0.429225	1.223394
F359	F	1.611246	0.679225	1.473394
F360	F	1.861246	0.929225	1.723394
F361	F	1.105176	0.184854	1.124879
F362	F	1.355176	0.434854	1.374879
F363	F	1.605176	0.684854	1.624879
F364	F	1.855176	0.934854	1.874879
F365	F	0.905225	0.519047	0.468338
F366	F	1.155225	0.769047	0.718338
F367	F	1.405225	1.019047	0.968338
F368	F	1.655225	1.269047	1.218338
H369	H	1.086796	0.915566	0.301311
H370	H	1.336796	1.165566	0.551311
H371	H	1.586796	1.415566	0.801311
H372	H	1.836796	1.665566	1.051311
