data_functionalizedCrystal
_audit_creation_method	'MofGen! by Chris Wilmer'
_symmetry_space_group_name_H-M	'P1'
_symmetry_Int_Tables_number	1
_symmetry_cell_setting	triclinic
loop_
_symmetry_equiv_pos_as_xyz
  x,y,z
_cell_length_a	12.837943
_cell_length_b	10.654550
_cell_length_c	9.130313
_cell_angle_alpha	90.001310
_cell_angle_beta	90.002305
_cell_angle_gamma	90.343078
loop_
_atom_site_label
_atom_site_type_symbol
_atom_site_fract_x
_atom_site_fract_y
_atom_site_fract_z
O1	O	1.377801	-0.326742	0.121766
O2	O	1.877801	0.173258	0.621766
O3	O	1.075880	-0.310601	0.121775
O4	O	1.575880	0.189399	0.621775
O5	O	1.233782	-0.136690	0.121765
O6	O	1.733782	0.363310	0.621765
O7	O	1.219899	-0.500653	0.121776
O8	O	1.719899	-0.000653	0.621776
O9	O	1.233772	-0.136700	-0.121834
O10	O	1.733772	0.363300	0.378166
O11	O	1.075869	-0.310611	-0.121824
O12	O	1.575869	0.189389	0.378176
O13	O	1.377791	-0.326752	-0.121833
O14	O	1.877791	0.173248	0.378167
Cu15	Cu	1.226829	-0.318683	-0.144071
Cu16	Cu	1.726829	0.181317	0.355929
Cu17	Cu	1.226842	-0.318671	0.144013
Cu18	Cu	1.726842	0.181329	0.644013
O19	O	1.219888	-0.500663	-0.121823
O20	O	1.719888	-0.000663	0.378177
C21	C	1.037215	-0.305153	-0.000023
C22	C	1.537215	0.194847	0.499977
C23	C	0.922021	-0.288891	-0.000020
C24	C	1.422021	0.211109	0.499980
C25	C	0.682468	-0.484395	-0.000035
C26	C	1.182468	0.015605	0.499965
C27	C	0.574232	-0.469121	-0.000033
C28	C	1.074232	0.030879	0.499967
C29	C	0.597312	-0.243070	-0.000024
C30	C	1.097312	0.256930	0.499976
C31	C	0.705547	-0.258344	-0.000026
C32	C	1.205547	0.241656	0.499974
C33	C	0.748121	-0.379010	-0.000029
C34	C	1.248121	0.120990	0.499971
C35	C	0.856359	-0.394284	-0.000021
C36	C	1.356359	0.105716	0.499979
C37	C	0.879436	-0.168233	-0.000023
C38	C	1.379436	0.331767	0.499977
C39	C	0.771201	-0.152959	-0.000021
C40	C	1.271201	0.347041	0.499979
C41	C	1.232758	-0.089786	-0.000033
C42	C	1.732758	0.410214	0.499967
C43	C	1.229708	0.049990	-0.000027
C44	C	1.729708	0.549990	0.499973
C45	C	1.416456	-0.332200	-0.000031
C46	C	1.916456	0.167800	0.499969
C47	C	1.531650	-0.348462	-0.000025
C48	C	2.031650	0.151538	0.499975
C49	C	1.220913	-0.547568	-0.000022
C50	C	1.720913	-0.047568	0.499978
C51	C	1.223963	-0.687344	-0.000017
C52	C	1.723963	-0.187344	0.499983
N53	N	1.226827	-0.318691	-0.346693
N54	N	1.726827	0.181309	0.153307
C55	C	1.322678	0.119331	-0.000035
C56	C	1.822678	0.619331	0.499965
C57	C	1.319806	0.250665	-0.000024
C58	C	1.819806	0.750665	0.499976
C59	C	1.130985	0.243307	-0.000006
C60	C	1.630985	0.743307	0.499994
C61	C	1.133858	0.111975	-0.000006
C62	C	1.633858	0.611975	0.499994
C63	C	1.431693	0.123580	-0.000052
C64	C	1.931693	0.623580	0.499948
C65	C	1.428821	0.254914	-0.000041
C66	C	1.928821	0.754914	0.499959
C67	C	1.290296	-0.402492	-0.423359
C68	C	1.790296	0.097508	0.076641
C69	C	1.290311	-0.402470	-0.576696
C70	C	1.790311	0.097530	-0.076696
C71	C	1.163380	-0.234843	-0.576688
C72	C	1.663380	0.265157	-0.076688
C73	C	1.163371	-0.234860	-0.423354
C74	C	1.663371	0.265140	0.076646
C75	C	1.363575	-0.499274	-0.423365
C76	C	1.863575	0.000726	0.076635
C77	C	1.363591	-0.499253	-0.576701
C78	C	1.863591	0.000747	-0.076701
N79	N	1.226851	-0.318653	0.346636
N80	N	1.726851	0.181347	0.846636
H81	H	0.891020	-0.492536	-0.000026
H82	H	1.391020	0.007464	0.499974
H83	H	1.052947	0.293790	0.000013
H84	H	1.552947	0.793790	0.500013
H85	H	0.932904	-0.082421	-0.000008
H86	H	1.432904	0.417579	0.499992
H87	H	1.330919	-0.590279	-0.375826
H88	H	1.830919	-0.090279	0.124174
H89	H	1.058152	0.055522	0.000021
H90	H	1.558152	0.555522	0.500021
F91	F	0.551983	-0.114658	-0.000038
F92	F	1.051983	0.385342	0.499962
F93	F	1.470526	-0.470613	-0.368945
F94	F	1.970526	0.029387	0.131055
H95	H	1.441732	-0.468302	-0.624238
H96	H	1.941732	0.031698	-0.124238
F97	F	1.477046	0.072049	-0.137539
F98	F	1.977046	0.572049	0.362461
F99	F	0.727781	-0.612816	-0.000020
F100	F	1.227781	-0.112816	0.499980
F101	F	0.504362	-0.581287	-0.000043
F102	F	1.004362	-0.081287	0.499957
H103	H	1.474337	0.089573	0.101886
H104	H	1.974337	0.589573	0.601886
H105	H	1.461771	0.296967	0.105137
H106	H	1.961771	0.796967	0.605137
F107	F	1.482499	0.303640	-0.133288
F108	F	1.982499	0.803640	0.366712
F109	F	1.095816	-0.145672	-0.341766
F110	F	1.595816	0.354328	0.158234
F111	F	1.095849	-0.145629	-0.658288
F112	F	1.595849	0.354371	-0.158288
F113	F	1.330192	-0.625049	-0.631131
F114	F	1.830192	-0.125049	-0.131131
H115	H	0.736522	-0.054715	-0.000035
H116	H	1.236522	0.445285	0.499965
