data_functionalizedCrystal
_audit_creation_method	'MofGen! by Chris Wilmer'
_symmetry_space_group_name_H-M	'P1'
_symmetry_Int_Tables_number	1
_symmetry_cell_setting	triclinic
loop_
_symmetry_equiv_pos_as_xyz
  x,y,z
_cell_length_a	27.732048
_cell_length_b	19.288865
_cell_length_c	18.366186
_cell_angle_alpha	90.011479
_cell_angle_beta	89.996446
_cell_angle_gamma	97.110548
loop_
_atom_site_label
_atom_site_type_symbol
_atom_site_fract_x
_atom_site_fract_y
_atom_site_fract_z
O1	O	0.641180	-0.082649	-0.060464
O2	O	0.891180	0.167351	0.189536
O3	O	1.141180	0.417351	0.439536
O4	O	1.391180	0.667351	0.689536
O5	O	0.500424	-0.095216	-0.060487
O6	O	0.750424	0.154784	0.189513
O7	O	1.000424	0.404784	0.439513
O8	O	1.250424	0.654784	0.689513
O9	O	0.574869	0.012223	-0.060461
O10	O	0.824869	0.262223	0.189539
O11	O	1.074869	0.512223	0.439539
O12	O	1.324869	0.762223	0.689539
O13	O	0.566735	-0.190088	-0.060491
O14	O	0.816735	0.059912	0.189509
O15	O	1.066735	0.309912	0.439509
O16	O	1.316735	0.559912	0.689509
O17	O	0.574857	0.012228	0.060639
O18	O	0.824857	0.262228	0.310639
O19	O	1.074857	0.512228	0.560639
O20	O	1.324857	0.762228	0.810639
O21	O	0.500412	-0.095211	0.060612
O22	O	0.750412	0.154789	0.310612
O23	O	1.000412	0.404789	0.560612
O24	O	1.250412	0.654789	0.810612
O25	O	0.641167	-0.082644	0.060635
O26	O	0.891167	0.167356	0.310635
O27	O	1.141167	0.417356	0.560635
O28	O	1.391167	0.667356	0.810635
Zn29	Zn	0.570788	-0.088927	0.079851
Zn30	Zn	0.820788	0.161073	0.329851
Zn31	Zn	1.070788	0.411073	0.579851
Zn32	Zn	1.320788	0.661073	0.829851
Zn33	Zn	0.570804	-0.088933	-0.079703
Zn34	Zn	0.820804	0.161067	0.170297
Zn35	Zn	1.070804	0.411067	0.420297
Zn36	Zn	1.320804	0.661067	0.670297
O37	O	0.566722	-0.190083	0.060609
O38	O	0.816722	0.059917	0.310609
O39	O	1.066722	0.309917	0.560609
O40	O	1.316722	0.559917	0.810609
C41	C	0.482410	-0.094950	0.000060
C42	C	0.732410	0.155050	0.250060
C43	C	0.982410	0.405050	0.500060
C44	C	1.232410	0.655050	0.750060
C45	C	0.428753	-0.094155	0.000052
C46	C	0.678753	0.155845	0.250052
C47	C	0.928753	0.405845	0.500052
C48	C	1.178753	0.655845	0.750052
C49	C	0.090115	-0.152644	0.000074
C50	C	0.340115	0.097356	0.250074
C51	C	0.590115	0.347356	0.500074
C52	C	0.840115	0.597356	0.750074
C53	C	-0.111554	-0.149697	0.000081
C54	C	0.138446	0.100303	0.250081
C55	C	0.388446	0.350303	0.500081
C56	C	0.638446	0.600303	0.750081
O57	O	-0.142648	-0.203181	0.000105
O58	O	0.107352	0.046819	0.250105
O59	O	0.357352	0.296819	0.500105
O60	O	0.607352	0.546819	0.750105
N61	N	-0.130870	-0.085990	0.000089
N62	N	0.119130	0.164010	0.250089
N63	N	0.369130	0.414010	0.500089
N64	N	0.619130	0.664010	0.750089
C65	C	-0.099766	-0.023015	0.000101
C66	C	0.150234	0.226985	0.250101
C67	C	0.400234	0.476985	0.500101
C68	C	0.650234	0.726985	0.750101
O69	O	-0.120823	0.031239	0.000115
O70	O	0.129177	0.281239	0.250115
O71	O	0.379177	0.531239	0.500115
O72	O	0.629177	0.781239	0.750115
C73	C	0.101902	-0.025963	0.000099
C74	C	0.351902	0.224037	0.250099
C75	C	0.601902	0.474037	0.500099
C76	C	0.851902	0.724037	0.750099
C77	C	0.121215	-0.089674	0.000083
C78	C	0.371215	0.160326	0.250083
C79	C	0.621215	0.410326	0.500083
C80	C	0.871215	0.660326	0.750083
C81	C	0.109428	-0.216350	0.000060
C82	C	0.359428	0.033650	0.250060
C83	C	0.609428	0.283650	0.500060
C84	C	0.859428	0.533650	0.750060
C85	C	0.159843	-0.217086	0.000054
C86	C	0.409843	0.032914	0.250054
C87	C	0.659843	0.282914	0.500054
C88	C	0.909843	0.532914	0.750054
C89	C	0.190943	-0.154116	0.000063
C90	C	0.440943	0.095884	0.250063
C91	C	0.690943	0.345884	0.500063
C92	C	0.940943	0.595884	0.750063
C93	C	0.171629	-0.090410	0.000078
C94	C	0.421629	0.159590	0.250078
C95	C	0.671629	0.409590	0.500078
C96	C	0.921629	0.659590	0.750078
C97	C	0.133005	0.037011	0.000115
C98	C	0.383005	0.287011	0.250115
C99	C	0.633005	0.537011	0.500115
C100	C	0.883005	0.787011	0.750115
C101	C	0.183425	0.036268	0.000117
C102	C	0.433425	0.286268	0.250117
C103	C	0.683425	0.536268	0.500117
C104	C	0.933425	0.786268	0.750117
C105	C	0.202738	-0.027443	0.000101
C106	C	0.452738	0.222557	0.250101
C107	C	0.702738	0.472557	0.500101
C108	C	0.952738	0.722557	0.750101
C109	C	0.253144	-0.028177	0.000081
C110	C	0.503144	0.221823	0.250081
C111	C	0.753144	0.471823	0.500081
C112	C	1.003144	0.721823	0.750081
N113	N	0.272460	-0.091884	0.000073
N114	N	0.522460	0.158116	0.250073
N115	N	0.772460	0.408116	0.500073
N116	N	1.022460	0.658116	0.750073
C117	C	0.241360	-0.154853	0.000064
C118	C	0.491360	0.095147	0.250064
C119	C	0.741360	0.345147	0.500064
C120	C	0.991360	0.595147	0.750064
C121	C	-0.205644	-0.021472	0.000100
C122	C	0.044356	0.228528	0.250100
C123	C	0.294356	0.478528	0.500100
C124	C	0.544356	0.728528	0.750100
C125	C	-0.256061	-0.020735	0.000099
C126	C	-0.006061	0.229265	0.250099
C127	C	0.243939	0.479265	0.500099
C128	C	0.493939	0.729265	0.750099
C129	C	-0.267846	-0.147417	0.000081
C130	C	-0.017846	0.102583	0.250081
C131	C	0.232154	0.352583	0.500081
C132	C	0.482154	0.602583	0.750081
C133	C	-0.217428	-0.148153	0.000077
C134	C	0.032572	0.101847	0.250077
C135	C	0.282572	0.351847	0.500077
C136	C	0.532572	0.601847	0.750077
C137	C	-0.186328	-0.085179	0.000092
C138	C	0.063672	0.164821	0.250092
C139	C	0.313672	0.414821	0.500092
C140	C	0.563672	0.664821	0.750092
C141	C	0.347234	-0.156395	0.000051
C142	C	0.597234	0.093605	0.250051
C143	C	0.847234	0.343605	0.500051
C144	C	1.097234	0.593605	0.750051
C145	C	0.397653	-0.157125	0.000042
C146	C	0.647653	0.092875	0.250042
C147	C	0.897653	0.342875	0.500042
C148	C	1.147653	0.592875	0.750042
C149	C	0.409433	-0.030444	0.000064
C150	C	0.659433	0.219556	0.250064
C151	C	0.909433	0.469556	0.500064
C152	C	1.159433	0.719556	0.750064
C153	C	0.359018	-0.029713	0.000069
C154	C	0.609018	0.220287	0.250069
C155	C	0.859018	0.470287	0.500069
C156	C	1.109018	0.720287	0.750069
C157	C	0.327919	-0.092694	0.000065
C158	C	0.577919	0.157306	0.250065
C159	C	0.827919	0.407306	0.500065
C160	C	1.077919	0.657306	0.750065
O161	O	0.284266	0.025278	0.000066
O162	O	0.534266	0.275278	0.250066
O163	O	0.784266	0.525278	0.500066
O164	O	1.034266	0.775278	0.750066
O165	O	0.262426	-0.209100	0.000065
O166	O	0.512426	0.040900	0.250065
O167	O	0.762426	0.290900	0.500065
O168	O	1.012426	0.540900	0.750065
C169	C	0.039701	-0.151908	0.000080
C170	C	0.289701	0.098092	0.250080
C171	C	0.539701	0.348092	0.500080
C172	C	0.789701	0.598092	0.750080
C173	C	0.020387	-0.088202	0.000095
C174	C	0.270387	0.161798	0.250095
C175	C	0.520387	0.411798	0.500095
C176	C	0.770387	0.661798	0.750095
C177	C	0.051487	-0.025232	0.000104
C178	C	0.301487	0.224768	0.250104
C179	C	0.551487	0.474768	0.500104
C180	C	0.801487	0.724768	0.750104
C181	C	-0.030030	-0.087465	0.000094
C182	C	0.219970	0.162535	0.250094
C183	C	0.469970	0.412535	0.500094
C184	C	0.719970	0.662535	0.750094
C185	C	-0.061130	-0.150435	0.000085
C186	C	0.188870	0.099565	0.250085
C187	C	0.438870	0.349565	0.500085
C188	C	0.688870	0.599565	0.750085
C189	C	-0.041814	-0.214142	0.000077
C190	C	0.208186	0.035858	0.250077
C191	C	0.458186	0.285858	0.500077
C192	C	0.708186	0.535858	0.750077
C193	C	0.008600	-0.214878	0.000071
C194	C	0.258600	0.035122	0.250071
C195	C	0.508600	0.285122	0.500071
C196	C	0.758600	0.535122	0.750071
C197	C	0.032171	0.038475	0.000112
C198	C	0.282171	0.288475	0.250112
C199	C	0.532171	0.538475	0.500112
C200	C	0.782171	0.788475	0.750112
C201	C	-0.018244	0.039206	0.000117
C202	C	0.231756	0.289206	0.250117
C203	C	0.481756	0.539206	0.500117
C204	C	0.731756	0.789206	0.750117
C205	C	-0.049344	-0.023764	0.000108
C206	C	0.200656	0.226236	0.250108
C207	C	0.450656	0.476236	0.500108
C208	C	0.700656	0.726236	0.750108
C209	C	0.574601	0.038100	0.000091
C210	C	0.824601	0.288100	0.250091
C211	C	1.074601	0.538100	0.500091
C212	C	1.324601	0.788100	0.750091
C213	C	0.573816	0.115199	0.000098
C214	C	0.823816	0.365199	0.250098
C215	C	1.073816	0.615199	0.500098
C216	C	1.323816	0.865199	0.750098
C217	C	0.659181	-0.082910	0.000087
C218	C	0.909181	0.167090	0.250087
C219	C	1.159181	0.417090	0.500087
C220	C	1.409181	0.667090	0.750087
C221	C	0.712839	-0.083705	0.000090
C222	C	0.962839	0.166295	0.250090
C223	C	1.212839	0.416295	0.500090
C224	C	1.462839	0.666295	0.750090
C225	C	0.566990	-0.215961	0.000055
C226	C	0.816990	0.034039	0.250055
C227	C	1.066990	0.284039	0.500055
C228	C	1.316990	0.534039	0.750055
C229	C	0.567776	-0.293059	0.000044
C230	C	0.817776	-0.043059	0.250044
C231	C	1.067776	0.206941	0.500044
C232	C	1.317776	0.456941	0.750044
N233	N	0.570780	-0.088922	0.188742
N234	N	0.820780	0.161078	0.438742
N235	N	1.070780	0.411078	0.688742
N236	N	1.320780	0.661078	0.938742
C237	C	0.617496	0.160168	0.000108
C238	C	0.867496	0.410168	0.250108
C239	C	1.117496	0.660168	0.500108
C240	C	1.367496	0.910168	0.750108
C241	C	0.616758	0.232610	0.000097
C242	C	0.866758	0.482610	0.250097
C243	C	1.116758	0.732610	0.500097
C244	C	1.366758	0.982610	0.750097
C245	C	0.572337	0.260081	0.000089
C246	C	0.822337	0.510081	0.250089
C247	C	1.072337	0.760081	0.500089
C248	C	1.322337	1.010081	0.750089
C249	C	0.528650	0.215102	0.000074
C250	C	0.778650	0.465102	0.250074
C251	C	1.028650	0.715102	0.500074
C252	C	1.278650	0.965102	0.750074
C253	C	0.529390	0.142661	0.000078
C254	C	0.779390	0.392661	0.250078
C255	C	1.029390	0.642661	0.500078
C256	C	1.279390	0.892661	0.750078
C257	C	0.537412	0.368152	0.042502
C258	C	0.787412	0.618152	0.292502
C259	C	1.037412	0.868152	0.542502
C260	C	1.287412	1.118152	0.792502
C261	C	0.536674	0.440592	0.042502
C262	C	0.786674	0.690592	0.292502
C263	C	1.036674	0.940592	0.542502
C264	C	1.286674	1.190592	0.792502
C265	C	0.570054	0.483512	0.000072
C266	C	0.820054	0.733512	0.250072
C267	C	1.070054	0.983512	0.500072
C268	C	1.320054	1.233512	0.750072
C269	C	0.604180	0.453985	-0.042348
C270	C	0.854180	0.703985	0.207652
C271	C	1.104180	0.953985	0.457652
C272	C	1.354180	1.203985	0.707652
C273	C	0.604920	0.381544	-0.042344
C274	C	0.854920	0.631544	0.207656
C275	C	1.104920	0.881544	0.457656
C276	C	1.354920	1.131544	0.707656
C277	C	0.571530	0.338630	0.000084
C278	C	0.821530	0.588630	0.250084
C279	C	1.071530	0.838630	0.500084
C280	C	1.321530	1.088630	0.750084
C281	C	0.612938	0.607032	0.000069
C282	C	0.862938	0.857032	0.250069
C283	C	1.112938	1.107032	0.500069
C284	C	1.362938	1.357032	0.750069
C285	C	0.612198	0.679475	0.000053
C286	C	0.862198	0.929475	0.250053
C287	C	1.112198	1.179475	0.500053
C288	C	1.362198	1.429475	0.750053
C289	C	0.524089	0.661966	0.000038
C290	C	0.774089	0.911966	0.250038
C291	C	1.024089	1.161966	0.500038
C292	C	1.274089	1.411966	0.750038
C293	C	0.524830	0.589524	0.000047
C294	C	0.774830	0.839524	0.250047
C295	C	1.024830	1.089524	0.500047
C296	C	1.274830	1.339524	0.750047
C297	C	0.569256	0.562062	0.000066
C298	C	0.819256	0.812062	0.250066
C299	C	1.069256	1.062062	0.500066
C300	C	1.319256	1.312062	0.750066
N301	N	0.570816	-0.088933	-0.188594
N302	N	0.820816	0.161067	0.061406
N303	N	1.070816	0.411067	0.311406
N304	N	1.320816	0.661067	0.561406
C305	C	0.603755	-0.041371	0.226854
C306	C	0.853755	0.208629	0.476854
C307	C	1.103755	0.458629	0.726854
C308	C	1.353755	0.708629	0.976854
C309	C	0.603758	-0.041368	0.303082
C310	C	0.853758	0.208632	0.553082
C311	C	1.103758	0.458632	0.803082
C312	C	1.353758	0.708632	1.053082
C313	C	0.570790	-0.088927	0.341195
C314	C	0.820790	0.161073	0.591195
C315	C	1.070790	0.411073	0.841195
C316	C	1.320790	0.661073	1.091195
C317	C	0.537809	-0.136482	0.303073
C318	C	0.787809	0.113518	0.553073
C319	C	1.037809	0.363518	0.803073
C320	C	1.287809	0.613518	1.053073
C321	C	0.537804	-0.136479	0.226847
C322	C	0.787804	0.113521	0.476847
C323	C	1.037804	0.363521	0.726847
C324	C	1.287804	0.613521	0.976847
C325	C	0.564320	-0.152255	0.461945
C326	C	0.814320	0.097745	0.711945
C327	C	1.064320	0.347745	0.961945
C328	C	1.314320	0.597745	1.211945
C329	C	0.564328	-0.152259	0.538170
C330	C	0.814328	0.097741	0.788170
C331	C	1.064328	0.347741	1.038170
C332	C	1.314328	0.597741	1.288170
C333	C	0.570804	-0.088936	0.576302
C334	C	0.820804	0.161064	0.826302
C335	C	1.070804	0.411064	1.076302
C336	C	1.320804	0.661064	1.326302
C337	C	0.577281	-0.025606	0.538200
C338	C	0.827281	0.224394	0.788200
C339	C	1.077281	0.474394	1.038200
C340	C	1.327281	0.724394	1.288200
C341	C	0.577276	-0.025603	0.461974
C342	C	0.827276	0.224397	0.711974
C343	C	1.077276	0.474397	0.961974
C344	C	1.327276	0.724397	1.211974
C345	C	0.570792	-0.088935	0.423850
C346	C	0.820792	0.161065	0.673850
C347	C	1.070792	0.411065	0.923850
C348	C	1.320792	0.661065	1.173850
C349	C	0.603784	-0.041378	0.697069
C350	C	0.853784	0.208622	0.947069
C351	C	1.103784	0.458622	1.197069
C352	C	1.353784	0.708622	1.447069
C353	C	0.603784	-0.041374	0.773299
C354	C	0.853784	0.208626	1.023299
C355	C	1.103784	0.458626	1.273299
C356	C	1.353784	0.708626	1.523299
C357	C	0.537838	-0.136494	0.773289
C358	C	0.787838	0.113506	1.023289
C359	C	1.037838	0.363506	1.273289
C360	C	1.287838	0.613506	1.523289
C361	C	0.537836	-0.136492	0.697061
C362	C	0.787836	0.113508	0.947061
C363	C	1.037836	0.363508	1.197061
C364	C	1.287836	0.613508	1.447061
C365	C	0.570812	-0.088934	0.658956
C366	C	0.820812	0.161066	0.908956
C367	C	1.070812	0.411066	1.158956
C368	C	1.320812	0.661066	1.408956
H369	H	-0.067145	-0.265414	0.000066
H370	H	0.182855	-0.015414	0.250066
H371	H	0.432855	0.234586	0.500066
H372	H	0.682855	0.484586	0.750066
F373	F	0.663251	0.280478	0.000107
F374	F	0.913251	0.530478	0.250107
F375	F	1.163251	0.780478	0.500107
F376	F	1.413251	1.030478	0.750107
H377	H	0.057489	0.089753	0.000121
H378	H	0.307489	0.339753	0.250121
H379	H	0.557489	0.589753	0.500121
H380	H	0.807489	0.839753	0.750121
F381	F	0.500357	0.472011	0.087652
F382	F	0.750357	0.722011	0.337652
F383	F	1.000357	0.972011	0.587652
F384	F	1.250357	1.222011	0.837652
H385	H	0.489260	0.552909	0.000042
H386	H	0.739260	0.802909	0.250042
H387	H	0.989260	1.052909	0.500042
H388	H	1.239260	1.302909	0.750042
H389	H	-0.033963	0.091091	0.000124
H390	H	0.216037	0.341091	0.250124
H391	H	0.466037	0.591091	0.500124
H392	H	0.716037	0.841091	0.750124
F393	F	0.584166	0.041795	0.421426
F394	F	0.834166	0.291795	0.671426
F395	F	1.084166	0.541795	0.921426
F396	F	1.334166	0.791795	1.171426
F397	F	0.639709	0.499658	-0.087509
F398	F	0.889709	0.749658	0.162491
F399	F	1.139709	0.999658	0.412491
F400	F	1.389709	1.249658	0.662491
F401	F	0.658692	0.727335	0.000060
F402	F	0.908692	0.977335	0.250060
F403	F	1.158692	1.227335	0.500060
F404	F	1.408692	1.477335	0.750060
H405	H	0.649112	0.584671	0.000082
H406	H	0.899112	0.834671	0.250082
H407	H	1.149112	1.084671	0.500082
H408	H	1.399112	1.334671	0.750082
H409	H	0.630604	-0.002645	0.195831
H410	H	0.880604	0.247355	0.445831
H411	H	1.130604	0.497355	0.695831
H412	H	1.380604	0.747355	0.945831
F413	F	0.476811	0.691197	0.000026
F414	F	0.726811	0.941197	0.250026
F415	F	0.976811	1.191197	0.500026
F416	F	1.226811	1.441197	0.750026
H417	H	0.632705	0.357506	-0.076885
H418	H	0.882705	0.607506	0.173115
H419	H	1.132705	0.857506	0.423115
H420	H	1.382705	1.107506	0.673115
H421	H	0.343293	0.022166	0.000071
H422	H	0.593293	0.272166	0.250071
H423	H	0.843293	0.522166	0.500071
H424	H	1.093293	0.772166	0.750071
F425	F	0.584177	0.041793	0.578777
F426	F	0.834177	0.291793	0.828777
F427	F	1.084177	0.541793	1.078777
F428	F	1.334177	0.791793	1.328777
F429	F	0.638856	0.009245	0.343651
F430	F	0.888856	0.259245	0.593651
F431	F	1.138856	0.509245	0.843651
F432	F	1.388856	0.759245	1.093651
H433	H	0.321918	-0.207680	0.000050
H434	H	0.571918	0.042320	0.250050
H435	H	0.821918	0.292320	0.500050
H436	H	1.071918	0.542320	0.750050
F437	F	0.501882	0.322480	0.087665
F438	F	0.751882	0.572480	0.337665
F439	F	1.001882	0.822480	0.587665
F440	F	1.251882	1.072480	0.837665
F441	F	-0.276610	0.047075	0.000100
F442	F	-0.026610	0.297075	0.250100
F443	F	0.223390	0.547075	0.500100
F444	F	0.473390	0.797075	0.750100
F445	F	0.076336	-0.283377	0.000050
F446	F	0.326336	-0.033377	0.250050
F447	F	0.576336	0.216623	0.500050
F448	F	0.826336	0.466623	0.750050
H449	H	0.492482	0.237473	0.000066
H450	H	0.742482	0.487473	0.250066
H451	H	0.992482	0.737473	0.500066
H452	H	1.242482	0.987473	0.750066
F453	F	0.180390	-0.284897	0.000041
F454	F	0.430390	-0.034897	0.250041
F455	F	0.680390	0.215103	0.500041
F456	F	0.930390	0.465103	0.750041
F457	F	0.482896	0.094800	0.000067
F458	F	0.732896	0.344800	0.250067
F459	F	0.982896	0.594800	0.500067
F460	F	1.232896	0.844800	0.750067
H461	H	0.630634	-0.002651	0.666043
H462	H	0.880634	0.247349	0.916043
H463	H	1.130634	0.497349	1.166043
H464	H	1.380634	0.747349	1.416043
H465	H	0.630635	-0.002648	0.804330
H466	H	0.880635	0.247352	1.054330
H467	H	1.130635	0.497352	1.304330
H468	H	1.380635	0.747352	1.554330
H469	H	0.510966	-0.175205	0.334109
H470	H	0.760966	0.074795	0.584109
H471	H	1.010966	0.324795	0.834109
H472	H	1.260966	0.574795	1.084109
F473	F	0.502749	-0.187106	0.813847
F474	F	0.752749	0.062894	1.063847
F475	F	1.002749	0.312894	1.313847
F476	F	1.252749	0.562894	1.563847
F477	F	0.029148	-0.282688	0.000055
F478	F	0.279148	-0.032688	0.250055
F479	F	0.529148	0.217312	0.500055
F480	F	0.779148	0.467312	0.750055
F481	F	0.502741	-0.187105	0.656496
F482	F	0.752741	0.062895	0.906496
F483	F	1.002741	0.312895	1.156496
F484	F	1.252741	0.562895	1.406496
F485	F	-0.196878	-0.215962	0.000062
F486	F	0.053122	0.034038	0.250062
F487	F	0.303122	0.284038	0.500062
F488	F	0.553122	0.534038	0.750062
F489	F	0.557438	-0.219660	0.578714
F490	F	0.807438	0.030340	0.828714
F491	F	1.057438	0.280340	1.078714
F492	F	1.307438	0.530340	1.328714
F493	F	0.664779	0.130945	0.000113
F494	F	0.914779	0.380945	0.250113
F495	F	1.164779	0.630945	0.500113
F496	F	1.414779	0.880945	0.750113
F497	F	0.442541	0.036570	0.000075
F498	F	0.692541	0.286570	0.250075
F499	F	0.942541	0.536570	0.500075
F500	F	1.192541	0.786570	0.750075
H501	H	0.510951	-0.175201	0.195815
H502	H	0.760951	0.074799	0.445815
H503	H	1.010951	0.324799	0.695815
H504	H	1.260951	0.574799	0.945815
F505	F	0.418204	-0.224938	0.000023
F506	F	0.668204	0.025062	0.250023
F507	F	0.918204	0.275062	0.500023
F508	F	1.168204	0.525062	0.750023
F509	F	-0.300954	-0.214434	0.000072
F510	F	-0.050954	0.035566	0.250072
F511	F	0.199046	0.285566	0.500072
F512	F	0.449046	0.535566	0.750072
F513	F	0.557462	-0.219659	0.421369
F514	F	0.807462	0.030341	0.671369
F515	F	1.057462	0.280341	0.921369
F516	F	1.307462	0.530341	1.171369
H517	H	0.117290	0.088891	0.000129
H518	H	0.367290	0.338891	0.250129
H519	H	0.617290	0.588891	0.500129
H520	H	0.867290	0.838891	0.750129
F521	F	-0.172551	0.045558	0.000116
F522	F	0.077449	0.295558	0.250116
F523	F	0.327449	0.545558	0.500116
F524	F	0.577449	0.795558	0.750116
H525	H	0.208745	0.087550	0.000130
H526	H	0.458745	0.337550	0.250130
H527	H	0.708745	0.587550	0.500130
H528	H	0.958745	0.837550	0.750130
