data_functionalizedCrystal
_audit_creation_method	'MofGen! by Chris Wilmer'
_symmetry_space_group_name_H-M	'P1'
_symmetry_Int_Tables_number	1
_symmetry_cell_setting	triclinic
loop_
_symmetry_equiv_pos_as_xyz
  x,y,z
_cell_length_a	16.974897
_cell_length_b	16.974813
_cell_length_c	14.048226
_cell_angle_alpha	86.339005
_cell_angle_beta	86.341962
_cell_angle_gamma	83.164002
loop_
_atom_site_label
_atom_site_type_symbol
_atom_site_fract_x
_atom_site_fract_y
_atom_site_fract_z
O1	O	1.049029	0.100839	-0.167657
O2	O	1.382362	0.434172	0.165676
O3	O	1.715695	0.767505	0.499009
O4	O	0.818811	0.113662	-0.150930
O5	O	1.152144	0.446995	0.182403
O6	O	1.485477	0.780329	0.515737
O7	O	0.940337	-0.007860	-0.150915
O8	O	1.273671	0.325473	0.182418
O9	O	1.607004	0.658807	0.515751
O10	O	0.927502	0.222361	-0.167672
O11	O	1.260835	0.555694	0.165662
O12	O	1.594169	0.889027	0.498995
O13	O	0.940323	-0.007867	0.007408
O14	O	1.273656	0.325466	0.340741
O15	O	1.606989	0.658799	0.674074
O16	O	0.818796	0.113655	0.007393
O17	O	1.152129	0.446988	0.340726
O18	O	1.485463	0.780321	0.674060
O19	O	1.049014	0.100831	-0.009334
O20	O	1.382347	0.434165	0.323999
O21	O	1.715681	0.767498	0.657332
Zn22	Zn	0.933903	0.107242	0.024167
Zn23	Zn	1.267236	0.440575	0.357500
Zn24	Zn	1.600569	0.773909	0.690833
Zn25	Zn	0.933922	0.107251	-0.184431
Zn26	Zn	1.267255	0.440585	0.148903
Zn27	Zn	1.600589	0.773918	0.482236
O28	O	0.927488	0.222353	-0.009349
O29	O	1.260821	0.555687	0.323985
O30	O	1.594154	0.889020	0.657318
C31	C	0.789346	0.113168	-0.069464
C32	C	1.122679	0.446502	0.263869
C33	C	1.456013	0.779835	0.597203
C34	C	0.701572	0.111699	-0.062597
C35	C	1.034905	0.445032	0.270737
C36	C	1.368238	0.778366	0.604070
C37	C	0.660336	0.111015	-0.145665
C38	C	0.993669	0.444348	0.187668
C39	C	1.327002	0.777681	0.521001
C40	C	0.577861	0.109647	-0.139199
C41	C	0.911194	0.442980	0.194134
C42	C	1.244528	0.776313	0.527467
C43	C	0.536624	0.108958	-0.049664
C44	C	0.869958	0.442291	0.283670
C45	C	1.203291	0.775624	0.617003
C46	C	0.577866	0.109645	0.033411
C47	C	0.911199	0.442978	0.366744
C48	C	1.244532	0.776311	0.700078
C49	C	0.660338	0.111018	0.026944
C50	C	0.993672	0.444352	0.360277
C51	C	1.327005	0.777685	0.693611
C52	C	0.289967	0.104855	-0.021068
C53	C	0.623300	0.438188	0.312265
C54	C	0.956634	0.771521	0.645598
C55	C	0.207489	0.103479	-0.014607
C56	C	0.540822	0.436812	0.318726
C57	C	0.874156	0.770145	0.652059
C58	C	0.207490	0.103482	-0.187219
C59	C	0.540823	0.436816	0.146115
C60	C	0.874157	0.770149	0.479448
C61	C	0.289965	0.104851	-0.193677
C62	C	0.623298	0.438184	0.139656
C63	C	0.956631	0.771518	0.472989
C64	C	0.331198	0.105542	-0.110603
C65	C	0.664532	0.438876	0.222730
C66	C	0.997865	0.772209	0.556064
N67	N	0.452322	0.107557	-0.043052
N68	N	0.785655	0.440890	0.290281
N69	N	1.118989	0.774224	0.623614
N70	N	0.415498	0.106949	-0.117216
N71	N	0.748832	0.440282	0.216118
N72	N	1.082165	0.773615	0.549451
C73	C	0.939842	-0.037322	-0.069448
C74	C	1.273175	0.296012	0.263885
C75	C	1.606508	0.629345	0.597219
C76	C	0.938377	-0.125097	-0.062576
C77	C	1.271710	0.208236	0.270757
C78	C	1.605044	0.541570	0.604091
C79	C	0.937699	-0.166326	-0.145649
C80	C	1.271032	0.167007	0.187684
C81	C	1.604365	0.500341	0.521018
C82	C	0.936317	-0.248800	-0.139189
C83	C	1.269651	0.084534	0.194145
C84	C	1.602984	0.417867	0.527478
C85	C	0.935620	-0.290044	-0.049655
C86	C	1.268953	0.043289	0.283678
C87	C	1.602287	0.376623	0.617012
C88	C	0.936296	-0.248809	0.033424
C89	C	1.269629	0.084524	0.366758
C90	C	1.602963	0.417858	0.700091
C91	C	0.937672	-0.166336	0.026964
C92	C	1.271005	0.166997	0.360297
C93	C	1.604338	0.500331	0.693630
C94	C	0.931500	-0.536702	-0.021078
C95	C	1.264833	-0.203368	0.312255
C96	C	1.598166	0.129965	0.645589
C97	C	0.930126	-0.619181	-0.014624
C98	C	1.263460	-0.285847	0.318710
C99	C	1.596793	0.047486	0.652043
C100	C	0.930146	-0.619165	-0.187237
C101	C	1.263479	-0.285832	0.146096
C102	C	1.596813	0.047501	0.479429
C103	C	0.931527	-0.536692	-0.193690
C104	C	1.264860	-0.203358	0.139643
C105	C	1.598193	0.129975	0.472976
C106	C	0.932198	-0.495463	-0.110611
C107	C	1.265532	-0.162130	0.222722
C108	C	1.598865	0.171203	0.556056
N109	N	0.934211	-0.374346	-0.043050
N110	N	1.267544	-0.041012	0.290284
N111	N	1.600877	0.292321	0.623617
N112	N	0.933602	-0.411162	-0.117217
N113	N	1.266935	-0.077829	0.216117
N114	N	1.600269	0.255504	0.549450
C115	C	1.078479	0.101325	-0.090802
C116	C	1.411812	0.434658	0.242531
C117	C	1.745146	0.767992	0.575864
C118	C	1.166253	0.102794	-0.097676
C119	C	1.499586	0.436128	0.235657
C120	C	1.832920	0.769461	0.568991
C121	C	0.927983	0.251815	-0.090818
C122	C	1.261317	0.585148	0.242515
C123	C	1.594650	0.918482	0.575848
C124	C	0.929448	0.339590	-0.097697
C125	C	1.262781	0.672924	0.235637
C126	C	1.596115	1.006257	0.568970
N127	N	0.933895	0.107235	0.166528
N128	N	1.267229	0.440568	0.499862
N129	N	1.600562	0.773902	0.833195
N130	N	0.933936	0.107252	-0.326793
N131	N	1.267269	0.440585	0.006541
N132	N	1.600602	0.773919	0.339874
C133	C	0.987724	0.053447	0.216350
C134	C	1.321058	0.386781	0.549683
C135	C	1.654391	0.720114	0.883017
C136	C	0.987730	0.053447	0.316007
C137	C	1.321063	0.386780	0.649340
C138	C	1.654396	0.720113	0.982674
C139	C	0.933909	0.107239	0.365841
C140	C	1.267243	0.440572	0.699174
C141	C	1.600576	0.773905	1.032507
C142	C	0.880075	0.161029	0.316012
C143	C	1.213408	0.494362	0.649346
C144	C	1.546741	0.827696	0.982679
C145	C	0.880066	0.161025	0.216357
C146	C	1.213400	0.494358	0.549691
C147	C	1.546733	0.827692	0.883024
C148	C	0.880098	0.161035	0.523724
C149	C	1.213431	0.494368	0.857058
C150	C	1.546764	0.827701	1.190391
C151	C	0.880107	0.161040	0.623386
C152	C	1.213440	0.494373	0.956719
C153	C	1.546774	0.827706	1.290053
C154	C	0.987761	0.053456	0.623374
C155	C	1.321094	0.386790	0.956707
C156	C	1.654428	0.720123	1.290041
C157	C	0.987752	0.053453	0.523719
C158	C	1.321086	0.386786	0.857053
C159	C	1.654419	0.720119	1.190386
C160	C	0.933919	0.107244	0.473898
C161	C	1.267252	0.440577	0.807231
C162	C	1.600585	0.773911	1.140564
H163	H	0.693905	0.111573	-0.218575
H164	H	1.027238	0.444907	0.114759
H165	H	1.360572	0.778240	0.448092
H166	H	0.932062	-0.503146	0.046570
H167	H	1.265396	-0.169812	0.379904
H168	H	1.598729	0.163521	0.713237
F169	F	0.935545	-0.292705	0.128714
F170	F	1.268878	0.040628	0.462047
F171	F	1.602212	0.373961	0.795380
F172	F	0.938446	-0.122439	-0.240944
F173	F	1.271779	0.210895	0.092389
F174	F	1.605113	0.544228	0.425722
H175	H	0.932095	-0.503116	-0.266598
H176	H	1.265429	-0.169783	0.066735
H177	H	1.598762	0.163550	0.400068
F178	F	0.822822	0.218292	0.676416
F179	F	1.156156	0.551625	1.009749
F180	F	1.489489	0.884958	1.343082
F181	F	0.938393	-0.122458	0.115381
F182	F	1.271726	0.210876	0.448715
F183	F	1.605059	0.544209	0.782048
H184	H	1.031581	0.009655	0.483144
H185	H	1.364914	0.342989	0.816478
H186	H	1.698247	0.676322	1.149811
H187	H	0.836249	0.204825	0.356593
H188	H	1.169583	0.538158	0.689926
H189	H	1.502916	0.871491	1.023260
H190	H	0.935768	-0.282365	-0.206836
H191	H	1.269102	0.050968	0.126497
H192	H	1.602435	0.384302	0.459831
F193	F	1.045012	-0.003803	0.163322
F194	F	1.378346	0.329531	0.496656
F195	F	1.711679	0.662864	0.829989
H196	H	0.929598	-0.652742	-0.254876
H197	H	1.262931	-0.319409	0.078458
H198	H	1.596264	0.013925	0.411791
H199	H	0.929554	-0.652759	0.058289
H200	H	1.262888	-0.319426	0.391623
H201	H	1.596221	0.013908	0.724956
F202	F	1.045019	-0.003801	0.369031
F203	F	1.378352	0.329532	0.702365
F204	F	1.711686	0.662866	1.035698
H205	H	1.031594	0.009658	0.663945
H206	H	1.364927	0.342991	0.997278
H207	H	1.698261	0.676324	1.330611
F208	F	0.822798	0.218284	0.470705
F209	F	1.156131	0.551618	0.804039
F210	F	1.489465	0.884951	1.137372
F211	F	0.822772	0.218271	0.163335
F212	F	1.156105	0.551605	0.496669
F213	F	1.489438	0.884938	0.830002
H214	H	0.544290	0.109089	-0.206843
H215	H	0.877624	0.442423	0.126490
H216	H	1.210957	0.775756	0.459824
H217	H	0.323535	0.105407	-0.266587
H218	H	0.656868	0.438740	0.066747
H219	H	0.990201	0.772073	0.400080
F220	F	0.163601	0.102740	-0.275625
F221	F	0.496935	0.436073	0.057708
F222	F	0.830268	0.769406	0.391041
F223	F	0.163605	0.102732	0.080694
F224	F	0.496939	0.436066	0.414027
F225	F	0.830272	0.769399	0.747361
H226	H	0.323530	0.105412	0.046577
H227	H	0.656864	0.438745	0.379911
H228	H	0.990197	0.772079	0.713244
F229	F	0.533975	0.108918	0.128702
F230	F	0.867309	0.442251	0.462035
F231	F	1.200642	0.775584	0.795368
H232	H	0.693911	0.111579	0.094587
H233	H	1.027244	0.444912	0.427921
H234	H	1.360578	0.778246	0.761254
