data_functionalizedCrystal
_audit_creation_method	'MofGen! by Chris Wilmer'
_symmetry_space_group_name_H-M	'P1'
_symmetry_Int_Tables_number	1
_symmetry_cell_setting	triclinic
loop_
_symmetry_equiv_pos_as_xyz
  x,y,z
_cell_length_a	17.640112
_cell_length_b	13.032721
_cell_length_c	13.032268
_cell_angle_alpha	76.710373
_cell_angle_beta	106.658984
_cell_angle_gamma	73.266420
loop_
_atom_site_label
_atom_site_type_symbol
_atom_site_fract_x
_atom_site_fract_y
_atom_site_fract_z
Zn1	Zn	1.166105	0.141814	-0.297687
Zn2	Zn	1.666105	0.641814	0.202313
Zn3	Zn	1.166013	0.296927	-0.142663
Zn4	Zn	1.666013	0.796927	0.357337
Zn5	Zn	1.046101	0.156075	-0.156796
Zn6	Zn	1.546101	0.656075	0.343204
Zn7	Zn	1.005226	0.368662	-0.369363
Zn8	Zn	1.505226	0.868662	0.130637
O9	O	1.095861	0.240870	-0.241627
O10	O	1.595861	0.740870	0.258373
O11	O	1.283604	0.126400	-0.241212
O12	O	1.783604	0.626400	0.258788
O13	O	1.167175	0.254189	0.009301
O14	O	1.667175	0.754189	0.509301
O15	O	1.079165	0.000300	-0.151403
O16	O	1.579165	0.500300	0.348597
O17	O	1.283537	0.240361	-0.127316
O18	O	1.783537	0.740361	0.372684
O19	O	1.167331	-0.010177	-0.254916
O20	O	1.667331	0.489823	0.245084
O21	O	1.079076	0.150706	-0.001083
O22	O	1.579076	0.650706	0.498917
O23	O	0.923167	0.220265	-0.220904
O24	O	1.423167	0.720265	0.279096
O25	O	1.009498	0.362623	-0.513693
O26	O	1.509498	0.862623	-0.013693
O27	O	0.893136	0.376452	-0.377076
O28	O	1.393136	0.876452	0.122924
O29	O	1.127695	0.195959	-0.461033
O30	O	1.627695	0.695959	0.038967
O31	O	1.127539	0.460326	-0.196817
O32	O	1.627539	0.960326	0.303183
O33	O	1.009409	0.513029	-0.363372
O34	O	1.509409	1.013029	0.136628
C35	C	0.877682	0.307691	-0.308302
C36	C	1.377682	0.807691	0.191698
C37	C	0.784338	0.336308	-0.336856
C38	C	1.284338	0.836308	0.163144
C39	C	1.064048	0.285702	-0.528367
C40	C	1.564048	0.785702	-0.028367
C41	C	1.050490	0.304807	-0.650558
C42	C	1.550490	0.804807	-0.150558
C43	C	1.064049	0.526575	-0.286356
C44	C	1.564049	1.026575	0.213644
C45	C	1.050512	0.648783	-0.305504
C46	C	1.550512	1.148783	0.194496
C47	C	0.555400	0.023451	-0.024711
C48	C	1.055400	0.523451	0.475289
C49	C	0.467685	0.050365	-0.051560
C50	C	0.967685	0.550365	0.448440
C51	C	0.436473	0.213158	-0.213970
C52	C	0.936473	0.713158	0.286030
C53	C	0.524187	0.186254	-0.187137
C54	C	1.024187	0.686254	0.312863
C55	C	0.583644	0.091399	-0.092506
C56	C	1.083644	0.591399	0.407494
C57	C	0.552432	0.254202	-0.254932
C58	C	1.052432	0.754202	0.245068
C59	C	0.640138	0.227303	-0.228098
C60	C	1.140138	0.727303	0.271902
C61	C	0.699600	0.132456	-0.133469
C62	C	1.199600	0.632456	0.366531
C63	C	0.671351	0.064500	-0.065671
C64	C	1.171351	0.564500	0.434329
C65	C	0.492973	0.349061	-0.349559
C66	C	0.992973	0.849061	0.150441
C67	C	0.521217	0.417010	-0.417354
C68	C	1.021217	0.917010	0.082646
C69	C	0.608925	0.390106	-0.390525
C70	C	1.108925	0.890106	0.109475
C71	C	0.668387	0.295259	-0.295895
C72	C	1.168387	0.795259	0.204105
C73	C	0.637175	0.458062	-0.458322
C74	C	1.137175	0.958062	0.041678
C75	C	0.724881	0.431163	-0.431488
C76	C	1.224881	0.931163	0.068512
C77	C	0.756094	0.268359	-0.269061
C78	C	1.256094	0.768359	0.230939
C79	C	1.314892	0.173788	-0.174692
C80	C	1.814892	0.673788	0.325308
C81	C	1.408230	0.145202	-0.146169
C82	C	1.908230	0.645202	0.353831
C83	C	1.127818	-0.045954	-0.196741
C84	C	1.627818	0.454046	0.303259
C85	C	1.141436	-0.168182	-0.177613
C86	C	1.641436	0.331818	0.322387
C87	C	1.102965	0.677150	-0.231669
C88	C	1.602965	1.177150	0.268331
C89	C	1.088976	0.803457	-0.251458
C90	C	1.588976	1.303457	0.248542
C91	C	1.102928	0.230863	-0.678980
C92	C	1.602928	0.730863	-0.178980
C93	C	1.088917	0.250607	-0.805271
C94	C	1.588917	0.750607	-0.305271
C95	C	1.127608	0.196117	0.044024
C96	C	1.627608	0.696117	0.544024
C97	C	1.141362	0.176652	0.166313
C98	C	1.641362	0.676652	0.666313
H99	H	0.804508	0.191106	-0.192017
H100	H	1.304508	0.691106	0.307983
H101	H	1.033643	0.328531	-0.874433
H102	H	1.533643	0.828531	-0.374433
F103	F	0.618684	-0.077511	0.076002
F104	F	1.118684	0.422489	0.576002
F105	F	0.399627	0.377697	-0.378106
F106	F	0.899627	0.877697	0.121894
H107	H	1.033711	0.872678	-0.329330
H108	H	1.533711	1.372678	0.170670
H109	H	1.196628	0.098718	-0.764527
H110	H	1.696628	0.598718	-0.264527
F111	F	1.175152	0.128991	-0.588585
F112	F	1.675152	0.628991	-0.088585
H113	H	0.771015	0.110558	-0.111620
H114	H	1.271015	0.610558	0.388380
H115	H	0.995220	0.382726	-0.719722
H116	H	1.495220	0.882726	-0.219722
H117	H	1.196706	0.762598	-0.099747
H118	H	1.696706	1.262598	0.400253
H119	H	1.158232	0.607928	-0.153808
H120	H	1.658232	1.107928	0.346192
H121	H	0.719765	-0.012753	0.011373
H122	H	1.219765	0.487247	0.511373
F123	F	0.573887	0.559023	-0.559017
F124	F	1.073887	1.059023	-0.059017
H125	H	0.388052	0.290391	-0.291016
H126	H	0.888052	0.790391	0.208984
F127	F	0.437630	-0.021958	0.020610
F128	F	0.937630	0.478042	0.520610
F129	F	0.457931	0.517967	-0.518055
F130	F	0.957931	1.017967	-0.018055
H131	H	0.995252	0.718006	-0.383371
H132	H	1.495252	1.218006	0.116629
H133	H	0.747877	0.486492	-0.486695
H134	H	1.247877	0.986492	0.013305
