data_functionalizedCrystal
_audit_creation_method	'MofGen! by Chris Wilmer'
_symmetry_space_group_name_H-M	'P1'
_symmetry_Int_Tables_number	1
_symmetry_cell_setting	triclinic
loop_
_symmetry_equiv_pos_as_xyz
  x,y,z
_cell_length_a	13.262390
_cell_length_b	10.489716
_cell_length_c	11.804365
_cell_angle_alpha	101.956103
_cell_angle_beta	62.657606
_cell_angle_gamma	84.480389
loop_
_atom_site_label
_atom_site_type_symbol
_atom_site_fract_x
_atom_site_fract_y
_atom_site_fract_z
O1	O	1.519425	0.018741	-0.591143
O2	O	1.191433	0.064929	-0.484911
O3	O	1.362908	-0.144434	-0.540454
O4	O	1.347951	0.228104	-0.535601
O5	O	1.317765	-0.089368	-0.327775
O6	O	1.146290	0.119995	-0.272233
O7	O	1.474282	0.073807	-0.378465
Cu8	Cu	1.306164	0.101929	-0.305930
Cu9	Cu	1.359551	0.036807	-0.557446
O10	O	1.302807	0.283170	-0.322922
C11	C	1.126862	0.094937	-0.364969
C12	C	1.001718	0.102298	-0.324437
C13	C	0.747400	0.002958	-0.673928
C14	C	0.864980	-0.003964	-0.712012
C15	C	0.899171	0.022601	-0.615121
C16	C	0.815769	0.056089	-0.480141
C17	C	0.698178	0.063001	-0.442053
C18	C	0.849949	0.082644	-0.383247
C19	C	0.766547	0.116132	-0.248266
C20	C	0.648968	0.123044	-0.210185
C21	C	0.614778	0.096479	-0.307075
C22	C	0.967540	0.075732	-0.421334
C23	C	0.918318	0.135775	-0.189459
C24	C	0.800738	0.142697	-0.151375
C25	C	1.339214	-0.164334	-0.433754
C26	C	1.335854	-0.305667	-0.432677
C27	C	1.441005	-0.412730	-0.466723
C28	C	1.407697	-0.512277	-0.553585
C29	C	1.363165	-0.457949	-0.343893
C30	C	1.302608	-0.403375	-0.519639
C31	C	1.258072	-0.349019	-0.309858
C32	C	1.224692	-0.448516	-0.396720
C33	C	1.538854	0.043798	-0.498410
C34	C	1.664000	0.036435	-0.538950
C35	C	1.326502	0.303069	-0.429624
C36	C	1.329864	0.444401	-0.430710
N37	N	1.268623	0.147730	-0.129029
N38	N	1.397101	-0.009005	-0.734350
C39	C	1.487252	-0.119015	0.174104
C40	C	1.515650	-0.153669	0.040243
C41	C	1.453896	-0.078322	-0.002082
C42	C	1.363738	0.031684	0.089467
C43	C	1.335342	0.066348	0.223339
C44	C	1.301986	0.107041	0.047154
C45	C	1.211829	0.217048	0.138703
C46	C	1.183437	0.251705	0.272561
C47	C	1.245192	0.176358	0.314886
C48	C	1.330382	0.072377	-0.086718
C49	C	1.178473	0.257740	-0.037482
C50	C	1.150074	0.292394	0.096378
H51	H	0.519036	0.102118	-0.276074
H52	H	0.719550	-0.018680	-0.752802
O53	O	1.174402	-0.255701	-0.173404
H54	H	1.199798	-0.277140	-0.100682
O55	O	0.955182	0.164461	-0.084948
H56	H	0.877436	0.188899	0.015310
O57	O	1.562180	-0.390867	-0.506098
H58	H	1.624082	-0.457374	-0.607336
H59	H	1.470903	-0.582690	-0.656614
O60	O	1.268809	-0.371228	-0.618181
H61	H	1.271653	-0.265842	-0.618278
H62	H	1.388760	-0.482436	-0.269630
O63	O	1.214562	0.213728	0.459269
H64	H	1.141494	0.302878	0.515822
O65	O	1.052844	0.411054	0.195119
H66	H	1.043486	0.422498	0.295307
O67	O	1.111839	0.339005	-0.083105
H68	H	1.146717	0.296408	-0.191565
H69	H	0.994911	0.016964	-0.646138
H70	H	1.537530	-0.180346	0.208573
O71	O	0.559008	0.159159	-0.064602
H72	H	0.602531	0.176484	-0.003624
H73	H	1.133170	-0.464786	-0.367130
H74	H	0.932879	-0.031237	-0.821913
H75	H	1.035435	0.048469	-0.531236
H76	H	1.110035	0.341287	0.347099
O77	O	0.710537	0.179298	-0.005849
H78	H	0.664864	0.096515	0.014307
H79	H	1.403788	-0.017190	-0.161246
H80	H	1.477022	-0.106543	-0.111078
O81	O	1.612874	-0.272319	-0.058495
H82	H	1.651037	-0.318900	-0.006575
