data_functionalizedCrystal
_audit_creation_method	'MofGen! by Chris Wilmer'
_symmetry_space_group_name_H-M	'P1'
_symmetry_Int_Tables_number	1
_symmetry_cell_setting	triclinic
loop_
_symmetry_equiv_pos_as_xyz
  x,y,z
_cell_length_a	10.654544
_cell_length_b	11.792254
_cell_length_c	10.868271
_cell_angle_alpha	89.998414
_cell_angle_beta	89.994573
_cell_angle_gamma	84.341725
loop_
_atom_site_label
_atom_site_type_symbol
_atom_site_fract_x
_atom_site_fract_y
_atom_site_fract_z
O1	O	1.667400	0.159413	-0.102354
O2	O	1.301879	0.174601	-0.102350
O3	O	1.493501	0.001858	-0.102343
O4	O	1.475777	0.332156	-0.102360
O5	O	1.493484	0.001863	0.102302
O6	O	1.301861	0.174607	0.102295
O7	O	1.667382	0.159418	0.102291
Zn8	Zn	1.484619	0.167013	0.134785
Zn9	Zn	1.484642	0.167006	-0.134843
O10	O	1.475760	0.332162	0.102284
C11	C	1.255075	0.173489	-0.000027
C12	C	1.115641	0.170152	-0.000025
C13	C	1.115597	0.170172	0.223085
C14	C	1.050070	0.168617	0.334636
C15	C	0.919060	0.165480	0.334631
C16	C	0.853575	0.163894	0.223063
C17	C	0.919102	0.165449	0.111512
C18	C	1.050115	0.168589	0.111529
C19	C	0.919147	0.165422	-0.111596
C20	C	1.050156	0.168567	-0.111593
C21	C	0.853662	0.163836	-0.223164
C22	C	0.919189	0.165399	-0.334718
C23	C	1.050206	0.168537	-0.334708
C24	C	1.115684	0.170121	-0.223144
C25	C	1.492376	-0.040433	-0.000021
C26	C	1.489034	-0.166453	-0.000022
C27	C	1.486319	-0.268796	-0.000027
C28	C	1.482924	-0.397191	-0.000038
C29	C	1.714186	0.160531	-0.000035
C30	C	1.853620	0.163867	-0.000045
C31	C	1.476885	0.374452	-0.000040
C32	C	1.480227	0.500473	-0.000047
N33	N	1.484613	0.167018	0.318799
N34	N	1.484658	0.166993	-0.318858
C35	C	1.484622	0.167018	0.430136
C36	C	1.484639	0.167008	0.569814
H37	H	0.865862	0.164101	-0.425548
H38	H	0.865706	0.164223	0.425465
H39	H	1.103402	0.169905	0.425473
H40	H	1.222270	0.172741	0.223101
H41	H	0.746902	0.161326	0.223068
O42	O	1.113938	0.169848	-0.443040
C43	C	1.275480	0.075260	-0.572477
C44	C	1.203390	0.073620	-0.449758
H45	H	1.347836	-0.002520	-0.577937
H46	H	1.206233	0.073514	-0.652257
H47	H	1.325801	0.156057	-0.578052
H48	H	1.153065	-0.007164	-0.444063
H49	H	1.272696	0.075426	-0.370036
H50	H	0.746988	0.161274	-0.223161
H51	H	1.222358	0.172684	-0.223125
