data_functionalizedCrystal
_audit_creation_method	'MofGen! by Chris Wilmer'
_symmetry_space_group_name_H-M	'P1'
_symmetry_Int_Tables_number	1
_symmetry_cell_setting	triclinic
loop_
_symmetry_equiv_pos_as_xyz
  x,y,z
_cell_length_a	14.519709
_cell_length_b	12.811457
_cell_length_c	11.892095
_cell_angle_alpha	91.498327
_cell_angle_beta	86.097450
_cell_angle_gamma	96.137891
loop_
_atom_site_label
_atom_site_type_symbol
_atom_site_fract_x
_atom_site_fract_y
_atom_site_fract_z
O1	O	-0.127233	1.389438	0.048453
O2	O	-0.138800	1.086099	0.017356
O3	O	0.001152	1.245812	0.033719
O4	O	-0.267185	1.229725	0.032090
O5	O	-0.010499	1.232495	0.220362
O6	O	-0.150451	1.072783	0.203999
O7	O	-0.138884	1.376121	0.235097
Zn8	Zn	-0.146517	1.222338	0.249181
Zn9	Zn	-0.131167	1.239883	0.003271
O10	O	-0.278836	1.216409	0.218733
C11	C	-0.143621	1.040619	0.106697
C12	C	-0.140614	0.924944	0.094837
C13	C	-0.147651	0.693059	0.276053
C14	C	-0.144826	0.584371	0.264915
C15	C	-0.132134	0.598880	0.061426
C16	C	-0.134959	0.707567	0.072563
C17	C	-0.142719	0.754653	0.179880
C18	C	-0.145550	0.863342	0.191017
C19	C	-0.132851	0.877849	-0.012472
C20	C	-0.130026	0.769161	-0.023609
C21	C	-0.307377	1.223816	0.125491
C22	C	-0.409778	1.226062	0.125729
C23	C	-0.784744	1.234335	0.126532
C24	C	-0.680417	1.232038	0.126310
C25	C	-0.597265	1.230199	0.126132
C26	C	-0.492931	1.227901	0.125907
C27	C	0.029693	1.238404	0.126959
C28	C	0.132095	1.236159	0.126713
C29	C	-0.134064	1.421601	0.145753
C30	C	-0.137069	1.537277	0.157605
N31	N	-0.156993	1.210371	0.417009
N32	N	-0.120684	1.251858	-0.164556
C33	C	-0.047736	1.335126	0.666439
C34	C	-0.055065	1.326769	0.783925
C35	C	-0.178976	1.185296	0.769468
C36	C	-0.171646	1.193653	0.651982
C37	C	-0.106026	1.268571	0.600472
C38	C	-0.098701	1.276933	0.482985
C39	C	-0.222607	1.135455	0.468530
C40	C	-0.229936	1.127099	0.586016
H41	H	-0.123704	0.730810	-0.110984
H42	H	-0.125800	0.560526	-0.025947
C43	C	-0.127432	0.945603	-0.118266
H44	H	-0.130224	1.017078	-0.096266
H45	H	-0.178029	0.922918	-0.162686
H46	H	-0.070691	0.938625	-0.161104
C47	C	-0.026529	1.359342	0.426320
H48	H	-0.030518	1.354798	0.346902
H49	H	0.033945	1.346548	0.444395
H50	H	-0.038502	1.427531	0.452695
C51	C	-0.302116	1.044700	0.642684
H52	H	-0.298138	1.049258	0.722103
H53	H	-0.290162	0.976509	0.616314
H54	H	-0.362589	1.057514	0.624607
H55	H	0.005689	1.396134	0.624500
C56	C	-0.156168	0.744859	0.394093
H57	H	-0.158692	0.692610	0.449777
H58	H	-0.211193	0.779122	0.401885
H59	H	-0.103853	0.794794	0.403447
C60	C	0.009050	1.399981	0.856485
H61	H	0.049175	1.445798	0.808977
H62	H	0.044983	1.359170	0.898473
H63	H	-0.027456	1.440161	0.906759
C64	C	-0.251148	1.102893	0.826143
H65	H	-0.247164	1.107454	0.905561
H66	H	-0.239189	1.034704	0.799773
H67	H	-0.311625	1.115699	0.808073
H68	H	-0.270072	1.081265	0.414807
H69	H	-0.148848	0.534224	0.343229
C70	C	-0.154066	0.915138	0.309059
H71	H	-0.156584	0.862886	0.364740
H72	H	-0.209092	0.949397	0.316857
H73	H	-0.101752	0.965076	0.318412
