data_functionalizedCrystal
_audit_creation_method	'MofGen! by Chris Wilmer'
_symmetry_space_group_name_H-M	'P1'
_symmetry_Int_Tables_number	1
_symmetry_cell_setting	triclinic
loop_
_symmetry_equiv_pos_as_xyz
  x,y,z
_cell_length_a	23.096457
_cell_length_b	14.560438
_cell_length_c	14.560438
_cell_angle_alpha	89.999727
_cell_angle_beta	60.000829
_cell_angle_gamma	60.002212
loop_
_atom_site_label
_atom_site_type_symbol
_atom_site_fract_x
_atom_site_fract_y
_atom_site_fract_z
Zr1	Zr	0.633735	-0.120490	0.884781
O2	O	0.754518	-0.267127	0.738141
O3	O	0.512950	-0.075544	0.929731
O4	O	0.633733	-0.267137	0.929738
O5	O	0.633736	0.075604	0.738133
O6	O	0.633734	-0.267138	1.080876
O7	O	0.633734	-0.075534	0.738135
O8	O	0.417674	0.075586	1.080865
O9	O	0.849796	-0.267121	0.738145
O10	O	0.562632	-0.056369	1.061699
O11	O	0.562632	0.056425	0.948905
O12	O	0.704839	-0.169151	0.948913
O13	O	0.704840	-0.056357	0.836118
Zr14	Zr	0.633739	0.120555	1.125828
Zr15	Zr	0.633736	-0.120493	1.125830
Zr16	Zr	0.633737	0.120558	0.884779
Zr17	Zr	0.785692	-0.120480	0.884788
Zr18	Zr	0.481782	0.120545	1.125822
O19	O	0.754524	0.075609	1.080878
O20	O	0.754520	-0.267130	1.080881
O21	O	0.754521	0.075612	0.738138
O22	O	0.512956	0.267192	1.272468
O23	O	0.512952	-0.075547	1.272471
O24	O	0.512953	0.267195	0.929728
O25	O	0.633738	-0.075539	1.272476
O26	O	0.633740	0.267202	1.080871
O27	O	0.633739	0.267203	0.929733
O28	O	0.633740	0.075599	1.272475
O29	O	0.849797	-0.267122	0.929747
O30	O	0.417676	0.267187	1.080863
O31	O	0.417678	0.267186	1.272464
O32	O	0.417676	0.075584	1.272466
O33	O	0.849798	-0.075520	0.738143
O34	O	0.849799	-0.075521	0.929745
O35	O	0.562634	0.169216	1.061697
O36	O	0.562634	0.056422	1.174491
O37	O	0.704841	-0.056360	1.061705
O38	O	0.704842	0.056434	0.948910
C39	C	0.443661	0.000020	1.005297
C40	C	0.379151	0.000015	1.005294
C41	C	0.633734	0.000035	0.703790
C42	C	0.633734	0.000036	0.601458
C43	C	0.633740	0.301547	1.005302
C44	C	0.633741	0.403878	1.005301
C45	C	0.348850	-0.058866	1.064164
C46	C	0.288228	-0.058857	1.064175
C47	C	0.257921	0.000019	1.005295
C48	C	0.288226	0.058913	0.946422
C49	C	0.348841	0.058911	0.946422
N50	N	0.195524	-0.008145	0.909478
N51	N	0.137943	-0.008149	0.909480
C52	C	0.075289	0.000029	1.005293
N53	N	0.072397	0.008190	1.101102
N54	N	0.129986	0.008189	1.101098
C55	C	0.192193	0.000027	1.005289
C56	C	-0.020747	-0.058845	1.064180
C57	C	-0.081374	-0.058828	1.064195
C58	C	-0.081369	0.058934	0.946431
C59	C	-0.020749	0.058924	0.946427
C60	C	0.009561	0.000029	1.005300
C61	C	0.823812	0.000045	1.005312
C62	C	0.888322	0.000050	1.005315
C63	C	0.633734	-0.301482	1.005308
C64	C	0.633732	-0.403813	1.005308
C65	C	0.707971	0.393085	0.946433
C66	C	0.707967	0.489240	0.946433
C67	C	0.559497	0.606977	1.064178
C68	C	0.559502	0.510823	1.064171
C69	C	0.782210	0.286140	0.887563
C70	C	0.856445	0.275343	0.828692
C71	C	0.856442	0.371498	0.828692
C72	C	0.782202	0.478450	0.887564
C73	C	0.633742	0.083294	0.457220
C74	C	0.633736	0.083300	0.553377
C75	C	0.633729	-0.083233	0.553384
C76	C	0.633730	-0.083234	0.457234
C77	C	0.633752	0.166556	0.409137
C78	C	0.633755	0.249828	0.457206
C79	C	0.633749	0.249834	0.553362
C80	C	0.633740	0.166570	0.601451
C81	C	0.633739	0.000030	1.306820
C82	C	0.633740	0.000028	1.409151
C83	C	0.443664	0.000017	1.306812
C84	C	0.379154	0.000011	1.409141
C85	C	0.443665	0.301534	1.005294
C86	C	0.379156	0.403861	1.005291
C87	C	0.443667	0.301531	1.306809
C88	C	0.379159	0.403857	1.409137
C89	C	0.823807	-0.301466	0.703800
C90	C	0.888315	-0.403792	0.601472
C91	C	0.823810	0.000048	0.703797
C92	C	0.888319	0.000054	0.601468
C93	C	0.823809	-0.301469	1.005315
C94	C	0.888318	-0.403796	1.005319
C95	C	0.348859	-0.058877	1.398319
C96	C	0.288254	-0.058905	1.494459
C97	C	0.257942	-0.000036	1.601419
C98	C	0.288243	0.058854	1.612239
C99	C	0.348851	0.058874	1.516100
C100	C	0.348863	0.510801	1.064165
C101	C	0.288259	0.606957	1.064158
C102	C	0.257944	0.596171	1.005281
C103	C	0.288243	0.489220	0.946399
C104	C	0.348850	0.393066	0.946401
C105	C	0.348865	0.393033	1.516079
C106	C	0.288261	0.489170	1.612236
C107	C	0.257948	0.596130	1.601449
C108	C	0.288248	0.606951	1.494496
C109	C	0.348855	0.510816	1.398341
C110	C	0.918616	-0.392968	0.494530
C111	C	0.979238	-0.489105	0.398373
C112	C	1.009554	-0.596065	0.409160
C113	C	0.979251	-0.606886	0.516113
C114	C	0.918634	-0.510751	0.612268
C115	C	0.918621	0.058932	0.612290
C116	C	0.979242	0.058933	0.516150
C117	C	1.009557	0.000061	0.409190
C118	C	0.979253	-0.058825	0.398371
C119	C	0.918636	-0.058831	0.494509
C120	C	0.918613	-0.392974	1.064206
C121	C	0.979218	-0.489112	1.064232
C122	C	1.009530	-0.596070	1.005362
C123	C	0.979229	-0.606891	0.946473
C124	C	0.918621	-0.510754	0.946455
H125	H	0.373525	-0.106819	1.112105
H126	H	1.003906	0.106889	0.524982
H127	H	0.208590	-0.000061	1.679692
F128	F	0.256022	0.477629	1.726052
H129	H	0.373510	0.106835	1.524927
H130	H	0.916888	0.188258	0.780752
F131	F	0.381111	-0.121541	1.284493
H132	H	0.208598	0.674400	1.679754
F133	F	0.886386	-0.522288	0.726081
H134	H	1.058914	0.000076	0.330917
H135	H	0.782221	0.207839	0.887560
F136	F	0.255971	0.477758	0.883744
H137	H	0.003925	0.106868	0.898485
F138	F	1.011504	-0.720734	0.883815
H139	H	0.893942	-0.305891	1.112145
F140	F	-0.113621	-0.121504	1.126852
H141	H	0.208594	0.674475	1.005289
F142	F	0.255966	-0.121519	1.126845
H143	H	1.003883	-0.480280	1.112185
H144	H	0.893967	-0.106774	0.485683
F145	F	0.633723	-0.171845	0.604564
F146	F	0.381080	0.279255	0.883741
H147	H	0.263554	0.106782	1.699338
F148	F	1.074037	-0.698379	1.005389
F149	F	0.935448	0.360004	0.766019
H150	H	1.003944	-0.106756	0.311271
H151	H	0.893962	-0.519581	0.898496
F152	F	0.011509	-0.121519	1.126844
H153	H	0.373537	0.305950	1.524883
H154	H	0.633743	0.317643	0.592505
H155	H	0.263559	0.694051	1.485730
H156	H	1.003901	-0.480272	0.311297
F157	F	0.381086	0.522353	1.284528
H158	H	0.263545	0.106851	0.898482
H159	H	0.373513	0.106860	0.898480
H160	H	0.373538	0.519605	1.112110
H161	H	0.893943	0.106880	0.699374
H162	H	0.782205	0.556741	0.887547
F163	F	-0.113620	0.121594	0.883765
H164	H	0.263591	-0.106860	1.485628
H165	H	0.263596	0.694032	1.112110
H166	H	0.633755	0.317624	0.418053
H167	H	0.499058	0.519615	1.112103
F168	F	0.480492	0.720802	1.126832
F169	F	0.633724	0.166591	0.703798
F170	F	0.633762	0.166552	0.306796
F171	F	0.633725	-0.171854	0.406077
H172	H	1.058913	-0.674335	0.330856
F173	F	1.011522	-0.720730	0.527576
F174	F	0.886361	-0.279142	0.483024
