data_functionalizedCrystal
_audit_creation_method	'MofGen! by Chris Wilmer'
_symmetry_space_group_name_H-M	'P1'
_symmetry_Int_Tables_number	1
_symmetry_cell_setting	triclinic
loop_
_symmetry_equiv_pos_as_xyz
  x,y,z
_cell_length_a	10.654550
_cell_length_b	9.730223
_cell_length_c	16.109301
_cell_angle_alpha	90.005536
_cell_angle_beta	83.973192
_cell_angle_gamma	90.005341
loop_
_atom_site_label
_atom_site_type_symbol
_atom_site_fract_x
_atom_site_fract_y
_atom_site_fract_z
O1	O	1.666252	0.114408	0.116773
O2	O	1.300623	0.114386	0.127899
O3	O	1.493482	0.114384	0.001365
O4	O	1.473393	0.114410	0.243307
O5	O	1.493475	-0.114196	0.001362
O6	O	1.300616	-0.114194	0.127896
O7	O	1.666245	-0.114172	0.116770
Zn8	Zn	1.483429	-0.150475	0.122332
Zn9	Zn	1.483439	0.150689	0.122337
O10	O	1.473386	-0.114170	0.243304
C11	C	1.253832	0.000093	0.127080
C12	C	1.114422	0.000085	0.124636
N13	N	1.483432	-0.356011	0.122329
C14	C	1.033926	0.000113	0.199138
C15	C	0.902936	0.000136	0.196836
C16	C	0.932952	0.000109	0.045526
C17	C	1.063939	0.000076	0.047828
C18	C	1.084409	0.000122	0.275946
C19	C	1.003911	0.000152	0.350453
C20	C	0.872921	0.000175	0.348152
C21	C	0.822430	0.000169	0.271343
C22	C	1.407304	-0.427970	0.071433
C23	C	1.407307	-0.571853	0.071437
C24	C	1.559577	-0.571806	0.173235
C25	C	1.559567	-0.427925	0.173235
C26	C	1.331170	-0.356056	0.020527
C27	C	1.255036	-0.428015	-0.030373
C28	C	1.255039	-0.571898	-0.030369
C29	C	1.331176	-0.643822	0.020536
C30	C	1.713036	0.000124	0.117589
C31	C	1.852446	0.000141	0.120033
C32	C	1.492665	0.000093	-0.029616
C33	C	1.490225	0.000091	-0.121926
N34	N	1.483446	0.356225	0.122333
C35	C	1.598991	0.000119	-0.343552
C36	C	1.596689	0.000130	-0.430286
C37	C	1.367868	0.000111	-0.411772
C38	C	1.370172	0.000110	-0.325040
C39	C	1.485737	0.000107	-0.290932
C40	C	1.481131	0.000119	-0.464399
C41	C	1.478634	0.000131	-0.558440
C42	C	1.488234	0.000097	-0.196885
C43	C	1.474204	0.000124	0.274286
C44	C	1.476643	0.000135	0.366595
H45	H	1.191065	0.000109	0.277828
O46	O	1.633406	-0.357803	0.222647
C47	C	1.617090	-0.215391	0.211715
H48	H	1.521988	-0.195768	0.187427
H49	H	1.695870	-0.174555	0.164832
C50	C	1.738123	-0.165598	0.325745
C51	C	1.621311	-0.141496	0.295920
H52	H	1.740732	-0.120014	0.377685
H53	H	1.749120	-0.261543	0.333109
H54	H	1.803760	-0.131568	0.286668
H55	H	1.555678	-0.175542	0.334992
H56	H	1.610304	-0.045555	0.288565
O57	O	0.883699	0.000176	-0.029010
C58	C	0.750825	0.000181	-0.015065
H59	H	0.720053	0.043466	0.049640
H60	H	0.714329	-0.109471	-0.019307
C61	C	0.734341	0.036672	-0.160982
C62	C	0.696547	0.089846	-0.081512
H63	H	0.700858	0.091976	-0.201971
H64	H	0.823861	0.036664	-0.170378
H65	H	0.703925	-0.054703	-0.164505
H66	H	0.726976	0.181213	-0.077987
H67	H	0.607031	0.089872	-0.072118
H68	H	0.715768	0.000166	0.269475
H69	H	1.688912	0.000143	-0.473126
H70	H	1.693091	0.000119	-0.315785
H71	H	1.331161	-0.238899	0.020517
O72	O	1.181003	-0.358005	-0.079698
C73	C	1.095266	-0.274807	-0.029530
H74	H	1.134315	-0.253229	0.032399
H75	H	1.000869	-0.330271	-0.017381
C76	C	1.028420	-0.164653	-0.150860
C77	C	1.076385	-0.138141	-0.074800
H78	H	1.016767	-0.080354	-0.178786
H79	H	1.086178	-0.220709	-0.184660
H80	H	0.949760	-0.210877	-0.140725
H81	H	1.155050	-0.091934	-0.084937
H82	H	1.018639	-0.082075	-0.041003
H83	H	1.193038	-0.630483	-0.071809
H84	H	1.277941	0.000104	-0.282194
O85	O	1.331081	-0.783591	0.020406
C86	C	1.247539	-0.831686	-0.035418
H87	H	1.234073	-0.748775	-0.083684
H88	H	1.152566	-0.857246	0.000637
C89	C	1.319302	-1.063529	-0.020618
C90	C	1.302772	-0.961700	-0.079905
H91	H	1.353368	-1.143731	-0.048058
H92	H	1.375583	-1.031128	0.016994
H93	H	1.240153	-1.084812	0.009423
H94	H	1.381922	-0.940406	-0.109937
H95	H	1.246505	-0.994101	-0.117523
H96	H	1.129482	0.000056	-0.012837
O97	O	1.255584	0.000348	-0.444868
C98	C	1.186532	0.118708	-0.418021
H99	H	1.254106	0.201458	-0.399589
H100	H	1.116530	0.091937	-0.361907
C101	C	1.031388	0.070745	-0.512033
C102	C	1.114385	0.172384	-0.489401
H103	H	0.986880	0.103853	-0.556061
H104	H	1.077907	-0.009000	-0.530118
H105	H	0.973065	0.048445	-0.465265
H106	H	1.172716	0.194669	-0.536165
H107	H	1.067875	0.252134	-0.471324
O108	O	1.633506	-0.641882	0.222598
C109	C	1.617169	-0.784305	0.211697
H110	H	1.581401	-0.803969	0.148504
H111	H	1.545606	-0.825143	0.263403
C112	C	1.788240	-0.833998	0.292922
C113	C	1.744319	-0.858151	0.215304
H114	H	1.866670	-0.879552	0.295150
H115	H	1.799244	-0.738045	0.300269
H116	H	1.728593	-0.868030	0.336002
H117	H	1.803958	-0.824104	0.172227
H118	H	1.733328	-0.954100	0.207950
H119	H	1.045031	0.000145	0.412988
H120	H	0.807383	0.000186	0.408819
