data_functionalizedCrystal
_audit_creation_method	'MofGen! by Chris Wilmer'
_symmetry_space_group_name_H-M	'P1'
_symmetry_Int_Tables_number	1
_symmetry_cell_setting	triclinic
loop_
_symmetry_equiv_pos_as_xyz
  x,y,z
_cell_length_a	22.610064
_cell_length_b	10.723024
_cell_length_c	10.723024
_cell_angle_alpha	95.532131
_cell_angle_beta	89.990353
_cell_angle_gamma	89.992350
loop_
_atom_site_label
_atom_site_type_symbol
_atom_site_fract_x
_atom_site_fract_y
_atom_site_fract_z
O1	O	-0.049179	-1.657166	0.175040
O2	O	-0.049181	-1.294013	0.191794
O3	O	-0.049178	-1.483966	0.001841
O4	O	-0.049182	-1.467213	0.364993
O5	O	0.049191	-1.483995	0.001808
O6	O	0.049188	-1.294042	0.191761
O7	O	0.049190	-1.657195	0.175008
Zn8	Zn	0.064807	-1.475623	0.183380
Zn9	Zn	-0.064798	-1.475585	0.183422
O10	O	0.049187	-1.467242	0.364961
C11	C	0.000003	-1.247528	0.190558
C12	C	0.000003	-1.108974	0.186911
N13	N	-0.153251	-1.475560	0.183442
C14	C	0.000006	-1.482762	-0.044675
C15	C	0.000004	-1.479114	-0.183229
C16	C	-0.561891	-1.559913	0.099457
C17	C	-0.623811	-1.559922	0.099451
O18	O	-0.655828	-1.631623	0.028095
N19	N	-0.654788	-1.475649	0.183381
C20	C	-0.623842	-1.391369	0.267331
O21	O	-0.655876	-1.319690	0.338720
C22	C	-0.561923	-1.391367	0.267342
C23	C	-0.530949	-1.475637	0.183398
C24	C	-0.530917	-1.644177	0.015521
C25	C	-0.469001	-1.644166	0.015525
C26	C	-0.438059	-1.559891	0.099466
C27	C	-0.469034	-1.475626	0.183402
C28	C	-0.530978	-1.307094	0.351297
C29	C	-0.469055	-1.307100	0.351301
C30	C	-0.438081	-1.391370	0.267357
C31	C	-0.376176	-1.391339	0.267348
N32	N	-0.345199	-1.475613	0.183418
C33	C	-0.376141	-1.559888	0.099477
C34	C	-0.753876	-1.391382	0.267303
C35	C	-0.815793	-1.391377	0.267287
C36	C	-0.815758	-1.559932	0.099408
C37	C	-0.753839	-1.559930	0.099419
C38	C	-0.722898	-1.475655	0.183373
C39	C	-0.246113	-1.559858	0.099493
C40	C	-0.184192	-1.559836	0.099501
C41	C	-0.184233	-1.391286	0.267384
C42	C	-0.246149	-1.391303	0.267371
C43	C	-0.277087	-1.475599	0.183421
O44	O	-0.344119	-1.319679	0.338671
O45	O	-0.344099	-1.631567	0.028111
N46	N	0.153260	-1.475658	0.183350
C47	C	0.000004	-1.703680	0.176243
C48	C	0.000001	-1.842234	0.179891
C49	C	0.000001	-1.033991	0.293198
C50	C	0.000000	-0.890788	0.289431
C51	C	0.000004	-1.585401	-0.258212
C52	C	0.000002	-1.581634	-0.401415
C53	C	0.000002	-1.468447	0.411477
C54	C	-0.000000	-1.472094	0.550031
H55	H	-0.158975	-1.628459	0.031140
H56	H	-0.000004	-0.826355	0.380421
H57	H	-0.841008	-1.322744	0.335628
O58	O	-0.000105	-1.363565	-0.373067
C59	C	-0.051042	-1.358850	-0.296889
H60	H	-0.086651	-1.422197	-0.344068
H61	H	-0.068145	-1.258455	-0.282983
H62	H	-0.039521	-1.392083	-0.202019
O63	O	-0.000076	-0.919212	0.071412
C64	C	-0.051031	-0.995305	0.066697
H65	H	-0.068017	-1.002605	0.165832
H66	H	-0.039573	-1.092784	0.021161
H67	H	-0.086704	-0.952059	0.009287
H68	H	-0.271297	-1.628501	0.031134
O69	O	-0.439009	-1.726163	-0.066048
C70	C	-0.479607	-1.800524	-0.140142
H71	H	-0.523749	-1.802247	-0.088951
H72	H	-0.461716	-1.900040	-0.158066
H73	H	-0.486183	-1.759417	-0.233322
O74	O	0.000029	-1.059300	0.074911
C75	C	0.000014	-1.156822	-0.023184
H76	H	0.018638	-1.245611	0.012422
H77	H	0.028573	-1.128831	-0.103560
H78	H	-0.047179	-1.174884	-0.057736
H79	H	0.000004	-1.672624	-0.465848
O80	O	0.000080	-1.367145	-0.232963
C81	C	0.051034	-1.298882	-0.192830
H82	H	0.068023	-1.333541	-0.102213
H83	H	0.039575	-1.195103	-0.175786
H84	H	0.086706	-1.312801	-0.268036
H85	H	-0.271368	-1.322670	0.335714
O86	O	-0.439093	-1.225106	0.432896
C87	C	-0.479714	-1.150758	0.506996
H88	H	-0.523847	-1.149025	0.455799
H89	H	-0.461839	-1.051243	0.524940
H90	H	-0.486304	-1.191882	0.600166
O91	O	0.000031	-1.697186	-0.208125
C92	C	0.000017	-1.676062	-0.076294
H93	H	0.018639	-1.578916	-0.046696
H94	H	0.028577	-1.749833	-0.035605
H95	H	-0.047175	-1.682356	-0.039977
O96	O	-0.154079	-1.309547	0.348877
C97	C	-0.092787	-1.327602	0.330855
H98	H	-0.084324	-1.426480	0.285286
H99	H	-0.069262	-1.314363	0.425226
H100	H	-0.075213	-1.256566	0.267481
H101	H	-0.556104	-1.712811	-0.052834
O102	O	-0.723845	-1.641911	0.017833
C103	C	-0.764440	-1.716261	-0.056279
H104	H	-0.808582	-1.718006	-0.005090
H105	H	-0.746545	-1.815771	-0.074230
H106	H	-0.771019	-1.675129	-0.149445
O107	O	-0.000024	-1.084078	0.404983
C108	C	-0.000005	-1.215910	0.383859
H109	H	-0.018629	-1.245511	0.286716
H110	H	-0.028562	-1.256604	0.457634
H111	H	0.047189	-1.252216	0.390146
H112	H	-0.728687	-1.322745	0.335665
O113	O	-0.845912	-1.641565	0.017794
C114	C	-0.907204	-1.623362	0.035669
H115	H	-0.915702	-1.577659	0.134482
H116	H	-0.930783	-1.717676	0.022479
H117	H	-0.924688	-1.560034	-0.035496
O118	O	-0.561120	-1.225414	0.432910
C119	C	-0.596921	-1.292753	0.510671
H120	H	-0.606195	-1.390038	0.462017
H121	H	-0.640463	-1.240804	0.529875
H122	H	-0.573055	-1.301867	0.602998
