data_functionalizedCrystal
_audit_creation_method	'MofGen! by Chris Wilmer'
_symmetry_space_group_name_H-M	'P1'
_symmetry_Int_Tables_number	1
_symmetry_cell_setting	triclinic
loop_
_symmetry_equiv_pos_as_xyz
  x,y,z
_cell_length_a	6.817900
_cell_length_b	16.256208
_cell_length_c	16.256237
_cell_angle_alpha	95.342051
_cell_angle_beta	103.499434
_cell_angle_gamma	103.499088
loop_
_atom_site_label
_atom_site_type_symbol
_atom_site_fract_x
_atom_site_fract_y
_atom_site_fract_z
V1	V	-4.026870	-0.117749	-0.264172
O2	O	-4.014286	0.004984	-0.258833
O3	O	-3.978478	-0.232829	-0.262664
O4	O	-3.978475	-0.116234	-0.379250
O5	O	-4.014289	-0.112418	-0.141439
V6	V	-4.510496	-0.103034	-0.249456
O7	O	-4.287902	-0.150029	-0.296453
O8	O	-4.699662	-0.070755	-0.217175
O9	O	-4.335682	0.012046	-0.250964
O10	O	-4.640477	-0.225768	-0.254795
O11	O	-4.640474	-0.108365	-0.372189
O12	O	-4.335685	-0.104550	-0.134377
C13	C	-3.823480	-0.260874	-0.258573
C14	C	-3.865201	-0.354955	-0.258107
C15	C	-4.181092	-0.643059	-0.261099
C16	C	-4.024660	-0.573395	-0.189038
C17	C	-4.015225	-0.693588	-0.256393
C18	C	-4.097435	-0.595617	-0.329272
C19	C	-3.941524	-0.527207	-0.257237
C20	C	-3.859310	-0.625153	-0.184268
C21	C	-3.932147	-0.647391	-0.324566
C22	C	-3.775577	-0.577746	-0.252484
C23	C	-4.057687	-0.789436	-0.255907
C24	C	-3.899045	-0.431359	-0.257717
C25	C	-3.823476	-0.112144	-0.407290
C26	C	-3.865191	-0.111666	-0.501369
C27	C	-4.181091	-0.114672	-0.789476
C28	C	-4.097497	-0.182877	-0.742031
C29	C	-4.015230	-0.109977	-0.840006
C30	C	-4.024628	-0.042641	-0.719824
C31	C	-3.941520	-0.110806	-0.673623
C32	C	-3.932213	-0.178234	-0.793810
C33	C	-3.859340	-0.037936	-0.771598
C34	C	-3.775627	-0.106155	-0.724178
C35	C	-4.057698	-0.109501	-0.935855
C36	C	-3.899042	-0.111288	-0.577776
C37	C	-4.154022	0.040086	-0.255053
C38	C	-4.091539	0.134166	-0.255524
C39	C	-4.154026	-0.108642	-0.106333
C40	C	-4.091550	-0.109116	-0.012253
H41	H	-4.352850	-0.671574	-0.264647
H42	H	-3.603700	-0.549367	-0.248824
F43	F	-3.881721	-0.253210	-0.835778
F44	F	-4.075210	0.032246	-0.677732
F45	F	-4.075194	-0.531290	-0.114146
H46	H	-3.893560	-0.679625	-0.381867
H47	H	-4.352921	-0.118350	-0.818004
F48	F	-3.551027	-0.101476	-0.687097
H49	H	-4.197712	-0.582202	-0.390556
F50	F	-4.228518	-0.262980	-0.724478
H51	H	-3.759173	0.023350	-0.785045
F52	F	-3.728254	-0.642543	-0.104084
