data_functionalizedCrystal
_audit_creation_method	'MofGen! by Chris Wilmer'
_symmetry_space_group_name_H-M	'P1'
_symmetry_Int_Tables_number	1
_symmetry_cell_setting	triclinic
loop_
_symmetry_equiv_pos_as_xyz
  x,y,z
_cell_length_a	12.594516
_cell_length_b	18.101398
_cell_length_c	18.101376
_cell_angle_alpha	89.935227
_cell_angle_beta	89.907701
_cell_angle_gamma	90.011320
loop_
_atom_site_label
_atom_site_type_symbol
_atom_site_fract_x
_atom_site_fract_y
_atom_site_fract_z
Zn1	Zn	-0.423150	1.132494	-0.418870
Zn2	Zn	-0.601365	1.132335	-0.295041
Zn3	Zn	-0.423387	1.008566	-0.295031
Zn4	Zn	-0.601072	1.008636	-0.418830
O5	O	-0.512243	1.070508	-0.356943
O6	O	-0.446814	1.236106	-0.402465
O7	O	-0.577978	1.115821	-0.191407
O8	O	-0.274409	1.025042	-0.311471
O9	O	-0.577748	1.235989	-0.311488
O10	O	-0.274235	1.116092	-0.402455
O11	O	-0.447218	1.024888	-0.191399
O12	O	-0.446933	0.904942	-0.311432
O13	O	-0.577248	1.025163	-0.522469
O14	O	-0.577478	0.904994	-0.402387
O15	O	-0.446530	1.116160	-0.522498
O16	O	-0.750272	1.115889	-0.311449
O17	O	-0.750057	1.025008	-0.402397
C18	C	-0.512200	0.878097	-0.356904
C19	C	-0.512207	0.795783	-0.356905
C20	C	-0.512274	0.496692	-0.356968
C21	C	-0.429727	0.527960	-0.300021
C22	C	-0.429949	0.613578	-0.299778
C23	C	-0.512240	0.645075	-0.356937
C24	C	-0.624399	0.613962	-0.335620
C25	C	-0.623941	0.528317	-0.335224
C26	C	-0.483636	0.528357	-0.435365
C27	C	-0.481140	0.614007	-0.434937
C28	C	-0.512228	0.728934	-0.356921
C29	C	-0.512294	0.412833	-0.356982
C30	C	-0.788784	1.070459	-0.356936
C31	C	-0.907090	1.070506	-0.356957
C32	C	-0.976264	1.021071	-0.406389
C33	C	-1.047240	1.002982	-0.338811
C34	C	-1.046913	1.088663	-0.424547
C35	C	-0.976507	1.052382	-0.289344
C36	C	-0.976174	1.138094	-0.375125
C37	C	-1.047118	1.120030	-0.307501
C38	C	-0.234623	1.070577	-0.356967
C39	C	-0.116317	1.070606	-0.356977
C40	C	-0.512288	1.263670	-0.356982
C41	C	-0.512306	1.345984	-0.356999
C42	C	-0.512579	1.070372	-0.164532
C43	C	-0.512455	1.070439	-0.082218
C44	C	-0.511830	1.070687	-0.550106
C45	C	-0.511654	1.070764	-0.632420
C46	C	-0.511922	1.070654	0.216872
C47	C	-0.593365	1.128450	0.185585
C48	C	-0.593842	1.128222	0.099968
C49	C	-0.512187	1.070548	0.068490
C50	C	-0.543386	0.992685	0.099777
C51	C	-0.543825	0.993082	0.185422
C52	C	-0.399140	1.090016	0.185053
C53	C	-0.399869	1.091680	0.099401
C54	C	-0.512334	1.070483	-0.015369
C55	C	-0.511777	1.070714	0.300731
H56	H	-0.649088	0.635341	-0.278927
H57	H	-0.574227	1.185978	0.078807
H58	H	-0.945704	1.036999	-0.232177
N59	N	-0.319225	0.500698	-0.317509
H60	H	-0.321596	0.467813	-0.362515
H61	H	-0.290894	0.471783	-0.274055
N62	N	-1.088602	0.927336	-0.318454
H63	H	-1.061887	0.913276	-0.267773
H64	H	-1.062829	0.890037	-0.355857
H65	H	-0.676437	1.115838	0.207289
H66	H	-0.448456	0.506374	-0.242267
N67	N	-0.377151	0.499801	-0.461006
H68	H	-0.327379	0.542744	-0.469505
H69	H	-0.386387	0.471473	-0.508601
N70	N	-0.361612	1.163936	0.213447
H71	H	-0.293191	1.157232	0.241696
H72	H	-0.417412	1.185584	0.247201
H73	H	-0.338454	1.047912	0.205282
N74	N	-1.087884	1.108952	-0.500249
H75	H	-1.060924	1.159602	-0.514351
H76	H	-1.168068	1.109266	-0.499528
N77	N	-1.088069	1.175467	-0.252083
H78	H	-1.062322	1.161696	-0.201081
H79	H	-1.168252	1.175487	-0.252758
N80	N	-0.455033	0.640631	-0.222830
H81	H	-0.465996	0.596919	-0.188937
H82	H	-0.521784	0.671515	-0.224056
N83	N	-0.651540	0.970417	0.071627
H84	H	-0.650149	0.968183	0.015884
H85	H	-0.705966	1.007926	0.088121
H86	H	-0.945156	0.979191	-0.448131
H87	H	-0.944939	1.195192	-0.390508
H88	H	-0.536870	0.635454	-0.479640
H89	H	-0.335956	1.052581	0.077958
H90	H	-0.573894	1.186418	0.206038
N91	N	-0.656087	0.501753	-0.259311
H92	H	-0.670420	0.545679	-0.226418
H93	H	-0.596893	0.471098	-0.237512
N94	N	-0.708171	0.500913	-0.387769
H95	H	-0.745439	0.544470	-0.411083
H96	H	-0.761443	0.469941	-0.359738
N97	N	-0.704607	1.111266	0.073063
H98	H	-0.753312	1.103906	0.116838
H99	H	-0.703245	1.064786	0.042263
N100	N	-0.653058	0.971242	0.212140
H101	H	-0.700472	0.961451	0.168282
H102	H	-0.684036	1.012595	0.242757
N103	N	-0.708059	0.640960	-0.388856
H104	H	-0.673979	0.673701	-0.427393
H105	H	-0.763642	0.669959	-0.360969
N106	N	-0.468742	0.934130	0.212854
H107	H	-0.435508	0.907999	0.169309
H108	H	-0.509290	0.897290	0.243931
H109	H	-0.486012	0.948449	0.079392
N110	N	-0.368707	1.167580	0.072296
H111	H	-0.427093	1.188196	0.040125
H112	H	-0.300884	1.164010	0.042672
H113	H	-0.346783	0.634613	-0.313138
H114	H	-0.543758	0.508142	-0.477796
N115	N	-0.371805	0.640937	-0.456231
H116	H	-0.342533	0.673130	-0.415529
H117	H	-0.376427	0.670497	-0.503471
