data_functionalizedCrystal
_audit_creation_method	'MofGen! by Chris Wilmer'
_symmetry_space_group_name_H-M	'P1'
_symmetry_Int_Tables_number	1
_symmetry_cell_setting	triclinic
loop_
_symmetry_equiv_pos_as_xyz
  x,y,z
_cell_length_a	16.109302
_cell_length_b	14.853567
_cell_length_c	15.186229
_cell_angle_alpha	90.000050
_cell_angle_beta	89.994701
_cell_angle_gamma	83.548356
loop_
_atom_site_label
_atom_site_type_symbol
_atom_site_fract_x
_atom_site_fract_y
_atom_site_fract_z
O1	O	1.103293	0.115884	-0.073261
O2	O	1.436626	0.449217	0.260073
O3	O	1.769960	0.782550	0.593406
O4	O	0.861251	0.130304	-0.073253
O5	O	1.194585	0.463638	0.260081
O6	O	1.527918	0.796971	0.593414
O7	O	0.988738	-0.008146	-0.073260
O8	O	1.322071	0.325187	0.260074
O9	O	1.655404	0.658520	0.593407
O10	O	0.975807	0.254334	-0.073254
O11	O	1.309140	0.587668	0.260080
O12	O	1.642474	0.921001	0.593413
O13	O	0.988729	-0.008148	0.073198
O14	O	1.322062	0.325185	0.406531
O15	O	1.655396	0.658518	0.739864
O16	O	0.861243	0.130302	0.073204
O17	O	1.194576	0.463636	0.406538
O18	O	1.527910	0.796969	0.739871
O19	O	1.103285	0.115882	0.073197
O20	O	1.436618	0.449215	0.406530
O21	O	1.769951	0.782548	0.739863
Zn22	Zn	0.982262	0.123092	0.096454
Zn23	Zn	1.315596	0.456425	0.429787
Zn24	Zn	1.648929	0.789758	0.763120
Zn25	Zn	0.982274	0.123094	-0.096510
Zn26	Zn	1.315607	0.456428	0.236823
Zn27	Zn	1.648940	0.789761	0.570157
O28	O	0.975798	0.254332	0.073203
O29	O	1.309132	0.587666	0.406537
O30	O	1.642465	0.920999	0.739870
C31	C	0.830271	0.129719	-0.000023
C32	C	1.163605	0.463052	0.333310
C33	C	1.496938	0.796386	0.666643
C34	C	0.737974	0.127967	-0.000021
C35	C	1.071307	0.461301	0.333313
C36	C	1.404640	0.794634	0.666646
C37	C	0.525622	0.123916	0.079804
C38	C	0.858956	0.457249	0.413138
C39	C	1.192289	0.790583	0.746471
C40	C	0.438900	0.122261	0.079801
C41	C	0.772233	0.455594	0.413135
C42	C	1.105567	0.788927	0.746468
C43	C	0.438920	0.122267	-0.079874
C44	C	0.772253	0.455601	0.253459
C45	C	1.105587	0.788934	0.586792
C46	C	0.525641	0.123916	-0.079870
C47	C	0.858975	0.457250	0.253463
C48	C	1.192308	0.790583	0.586796
C49	C	0.568990	0.124745	-0.000028
C50	C	0.902323	0.458079	0.333305
C51	C	1.235657	0.791412	0.666638
C52	C	0.395546	0.121441	-0.000035
C53	C	0.728879	0.454774	0.333298
C54	C	1.062213	0.788107	0.666631
C55	C	0.301518	0.119646	-0.000039
C56	C	0.634851	0.452979	0.333294
C57	C	0.968184	0.786312	0.666627
C58	C	0.663024	0.126539	-0.000024
C59	C	0.996358	0.459872	0.333309
C60	C	1.329691	0.793205	0.666643
C61	C	0.988147	-0.041735	-0.000033
C62	C	1.321481	0.291598	0.333300
C63	C	1.654814	0.624932	0.666633
C64	C	0.986392	-0.141816	-0.000041
C65	C	1.319725	0.191517	0.333292
C66	C	1.653058	0.524851	0.666626
C67	C	0.903240	-0.554213	-0.000022
C68	C	1.236574	-0.220879	0.333312
C69	C	1.569907	0.112454	0.666645
C70	C	1.054697	-0.575743	-0.000027
C71	C	1.388030	-0.242410	0.333307
C72	C	1.721363	0.090923	0.666640
C73	C	1.056348	-0.481712	-0.000032
C74	C	1.389681	-0.148379	0.333302
C75	C	1.723014	0.184954	0.666635
C76	C	0.981444	-0.423927	-0.000031
C77	C	1.314777	-0.090594	0.333303
C78	C	1.648110	0.242740	0.666636
C79	C	0.904889	-0.460173	-0.000024
C80	C	1.238222	-0.126839	0.333309
C81	C	1.571556	0.206494	0.666642
C82	C	1.132901	-0.445459	-0.000029
C83	C	1.466234	-0.112126	0.333304
C84	C	1.799568	0.221207	0.666637
C85	C	1.134555	-0.351423	-0.000034
C86	C	1.467888	-0.018090	0.333300
C87	C	1.801222	0.315244	0.666633
C88	C	1.059650	-0.293636	-0.000039
C89	C	1.392983	0.039697	0.333295
C90	C	1.726317	0.373031	0.666628
C91	C	0.983092	-0.329887	-0.000033
C92	C	1.316426	0.003446	0.333300
C93	C	1.649759	0.336780	0.666633
C94	C	0.908188	-0.272102	-0.000032
C95	C	1.241522	0.061232	0.333301
C96	C	1.574855	0.394565	0.666635
C97	C	0.831630	-0.308351	-0.000033
C98	C	1.164963	0.024983	0.333300
C99	C	1.498296	0.358316	0.666634
C100	C	0.829984	-0.402385	-0.000029
C101	C	1.163317	-0.069052	0.333304
C102	C	1.496651	0.264281	0.666637
C103	C	1.061296	-0.199601	-0.000042
C104	C	1.394629	0.133732	0.333291
C105	C	1.727962	0.467065	0.666624
C106	C	0.909837	-0.178062	-0.000035
C107	C	1.243170	0.155272	0.333299
C108	C	1.576504	0.488605	0.666632
C109	C	1.134264	0.116467	-0.000035
C110	C	1.467598	0.449800	0.333299
C111	C	1.800931	0.783134	0.666632
C112	C	1.226562	0.118219	-0.000043
C113	C	1.559896	0.451552	0.333290
C114	C	1.893229	0.784885	0.666623
C115	C	0.976389	0.287921	-0.000025
C116	C	1.309722	0.621255	0.333309
C117	C	1.643055	0.954588	0.666642
C118	C	0.978144	0.388002	-0.000023
C119	C	1.311478	0.721335	0.333311
C120	C	1.644811	1.054669	0.666644
N121	N	0.982261	0.123089	0.228146
N122	N	1.315594	0.456423	0.561480
N123	N	1.648927	0.789756	0.894813
N124	N	0.982282	0.123090	-0.228203
N125	N	1.315615	0.456423	0.105131
N126	N	1.648948	0.789756	0.438464
C127	C	1.038731	0.061804	0.453866
C128	C	1.372064	0.395137	0.787200
C129	C	1.705398	0.728471	1.120533
C130	C	1.038733	0.061802	0.546056
C131	C	1.372067	0.395135	0.879389
C132	C	1.705400	0.728469	1.212723
C133	C	0.925806	0.184378	0.546071
C134	C	1.259139	0.517711	0.879404
C135	C	1.592472	0.851044	1.212738
C136	C	0.925800	0.184375	0.453883
C137	C	1.259133	0.517708	0.787216
C138	C	1.592466	0.851042	1.120550
C139	C	0.982267	0.123089	0.407783
C140	C	1.315600	0.456422	0.741116
C141	C	1.648934	0.789756	1.074450
C142	C	0.982276	0.123090	0.592161
C143	C	1.315609	0.456423	0.925494
C144	C	1.648942	0.789757	1.258827
C145	C	0.982278	0.123088	0.692117
C146	C	1.315611	0.456421	1.025450
C147	C	1.648945	0.789755	1.358784
C148	C	0.982264	0.123090	0.307821
C149	C	1.315597	0.456423	0.641154
C150	C	1.648930	0.789756	0.974487
H151	H	0.560914	0.124591	0.144817
H152	H	0.894248	0.457924	0.478150
H153	H	1.227581	0.791258	0.811484
H154	H	0.840908	-0.583731	-0.000026
H155	H	1.174241	-0.250398	0.333308
H156	H	1.507575	0.082936	0.666641
H157	H	0.403594	0.121586	0.144809
H158	H	0.736927	0.454919	0.478143
H159	H	1.070261	0.788252	0.811476
O160	O	0.392165	0.121387	-0.165988
O161	O	0.725499	0.454720	0.167345
O162	O	1.058832	0.788053	0.500678
H163	H	0.324575	0.120112	-0.152581
H164	H	0.657908	0.453445	0.180752
H165	H	0.991241	0.786778	0.514086
O166	O	0.572426	0.124814	-0.165979
O167	O	0.905759	0.458147	0.167354
O168	O	1.239093	0.791481	0.500687
H169	H	0.527714	0.123975	-0.221499
H170	H	0.861047	0.457308	0.111834
H171	H	1.194380	0.790641	0.445167
O172	O	0.829047	-0.115735	-0.000025
O173	O	1.162380	0.217598	0.333308
O174	O	1.495713	0.550931	0.666641
H175	H	0.775539	-0.156742	-0.000017
H176	H	1.108873	0.176591	0.333316
H177	H	1.442206	0.509925	0.666650
H178	H	0.879816	0.234281	0.416360
H179	H	1.213149	0.567614	0.749693
H180	H	1.546483	0.900947	1.083026
O181	O	0.750840	-0.246024	-0.000024
O182	O	1.084173	0.087309	0.333309
O183	O	1.417506	0.420643	0.666643
H184	H	0.747971	-0.202667	-0.059718
H185	H	1.081304	0.130666	0.273616
H186	H	1.414637	0.464000	0.606949
O187	O	0.747418	-0.441487	-0.000011
O188	O	1.080751	-0.108154	0.333322
O189	O	1.414085	0.225180	0.666656
H190	H	0.743047	-0.483830	-0.059694
H191	H	1.076381	-0.150497	0.273639
H192	H	1.409714	0.182837	0.606973
O193	O	1.135484	-0.638061	-0.000019
O194	O	1.468818	-0.304728	0.333314
O195	O	1.802151	0.028605	0.666647
H196	H	1.121477	-0.709540	-0.000017
H197	H	1.454810	-0.376206	0.333316
H198	H	1.788143	-0.042873	0.666649
O199	O	1.213687	-0.507779	-0.000018
O200	O	1.547021	-0.174446	0.333315
O201	O	1.880354	0.158887	0.666649
H202	H	1.199677	-0.579257	-0.000023
H203	H	1.533011	-0.245923	0.333310
H204	H	1.866344	0.087410	0.666643
H205	H	1.196894	-0.321918	-0.000034
H206	H	1.530227	0.011416	0.333299
H207	H	1.863560	0.344749	0.666633
O208	O	1.143858	-0.160499	-0.000047
O209	O	1.477191	0.172835	0.333286
O210	O	1.810524	0.506168	0.666620
H211	H	1.195666	-0.216479	-0.000051
H212	H	1.528999	0.116855	0.333283
H213	H	1.862332	0.450188	0.666616
H214	H	1.084709	0.011900	0.416334
H215	H	1.418042	0.345234	0.749667
H216	H	1.751375	0.678567	1.083001
H217	H	1.084710	0.011897	0.583574
H218	H	1.418044	0.345231	0.916908
H219	H	1.751377	0.678564	1.250241
H220	H	0.879832	0.234277	0.583615
H221	H	1.213166	0.567610	0.916948
H222	H	1.546499	0.900943	1.250282
