data_functionalizedCrystal
_audit_creation_method	'MofGen! by Chris Wilmer'
_symmetry_space_group_name_H-M	'P1'
_symmetry_Int_Tables_number	1
_symmetry_cell_setting	triclinic
loop_
_symmetry_equiv_pos_as_xyz
  x,y,z
_cell_length_a	18.101398
_cell_length_b	18.101395
_cell_length_c	18.101398
_cell_angle_alpha	89.998392
_cell_angle_beta	90.012704
_cell_angle_gamma	90.026371
loop_
_atom_site_label
_atom_site_type_symbol
_atom_site_fract_x
_atom_site_fract_y
_atom_site_fract_z
Zn1	Zn	1.132036	-0.295136	0.418847
Zn2	Zn	1.131957	-0.418921	0.295009
Zn3	Zn	1.008220	-0.295088	0.295008
Zn4	Zn	1.008146	-0.418930	0.418797
O5	O	1.070090	-0.357019	0.356915
O6	O	1.235658	-0.311573	0.402440
O7	O	1.115541	-0.402471	0.191376
O8	O	1.024709	-0.191462	0.311456
O9	O	1.235600	-0.402518	0.311457
O10	O	1.115676	-0.191496	0.402440
O11	O	1.024632	-0.311492	0.191375
O12	O	0.904577	-0.311499	0.311408
O13	O	1.024582	-0.402531	0.522436
O14	O	0.904523	-0.402485	0.402355
O15	O	1.115604	-0.311581	0.522473
O16	O	1.115469	-0.522555	0.311409
O17	O	1.024505	-0.522561	0.402356
C18	C	0.877679	-0.356989	0.356876
C19	C	0.795365	-0.356994	0.356877
C20	C	1.069991	-0.549429	0.356893
C21	C	1.070016	-0.631743	0.356909
C22	C	0.496274	-0.357040	0.356940
C23	C	0.527609	-0.299508	0.299997
C24	C	0.613227	-0.299662	0.299754
C25	C	0.644657	-0.357016	0.356909
C26	C	0.613543	-0.435017	0.335586
C27	C	0.527898	-0.434698	0.335190
C28	C	0.527873	-0.337249	0.435338
C29	C	0.613524	-0.335511	0.434911
C30	C	0.728516	-0.357008	0.356893
C31	C	0.412415	-0.357054	0.356954
C32	C	1.070178	-0.930834	0.356949
C33	C	1.013079	-0.899544	0.414312
C34	C	1.012808	-0.813926	0.414132
C35	C	1.070098	-0.782452	0.356929
C36	C	1.048984	-0.813562	0.278878
C37	C	1.048616	-0.899207	0.279221
C38	C	1.148516	-0.899195	0.376950
C39	C	1.148055	-0.813544	0.378661
C40	C	1.070053	-0.698592	0.356914
C41	C	1.070221	-1.014694	0.356959
C42	C	1.263252	-0.357049	0.356954
C43	C	1.345566	-0.357063	0.356971
C44	C	1.070093	-0.357062	0.550077
C45	C	1.070095	-0.357081	0.632391
C46	C	1.070209	-0.163857	0.356953
C47	C	1.070260	-0.081543	0.356969
C48	C	1.070077	-0.357038	0.931482
C49	C	1.012618	-0.414070	0.900134
C50	C	1.012791	-0.414307	0.814516
C51	C	1.070085	-0.357059	0.783099
C52	C	1.148104	-0.378260	0.814206
C53	C	1.147767	-0.378662	0.899851
C54	C	1.050202	-0.278669	0.899904
C55	C	1.048484	-0.279094	0.814253
C56	C	1.070095	-0.357070	0.699240
C57	C	1.070073	-0.357029	1.015341
C58	C	1.070078	-0.357003	1.164504
C59	C	1.070068	-0.357017	1.082190
H60	H	0.634265	-0.241820	0.313119
F61	F	1.173681	-0.927397	0.450075
H62	H	1.191057	-0.919427	0.335170
H63	H	1.192030	-0.338926	0.920590
F64	F	1.169790	-0.453541	0.925975
H65	H	1.192074	-0.338012	0.793859
F66	F	1.170523	-0.452327	0.786183
F67	F	0.501754	-0.456639	0.260278
H68	H	1.025609	-0.471805	0.921661
F69	F	1.168868	-0.786969	0.453742
F70	F	0.977121	-0.253445	0.928115
H71	H	0.991068	-0.263107	0.793921
H72	H	0.633899	-0.479030	0.375763
H73	H	0.507608	-0.379153	0.477766
F74	F	0.499674	-0.264200	0.460678
H75	H	1.025921	-0.472383	0.794035
F76	F	1.101633	-0.786914	0.221488
F77	F	0.936911	-0.787213	0.396818
F78	F	1.104904	-0.223128	0.926403
F79	F	1.099211	-0.220585	0.786310
F80	F	0.499446	-0.316399	0.224509
H81	H	0.992327	-0.792164	0.261632
F82	F	0.936756	-0.396920	0.927033
H83	H	0.634969	-0.452098	0.278892
F84	F	0.640120	-0.260490	0.455933
H85	H	0.634920	-0.374364	0.479610
H86	H	0.507036	-0.241489	0.313215
F87	F	0.639980	-0.316756	0.223822
H88	H	0.954936	-0.401039	0.793483
F89	F	1.030069	-0.786431	0.489778
F90	F	0.500800	-0.492622	0.387032
F91	F	1.030167	-0.926442	0.490204
H92	H	0.955366	-0.921119	0.401229
H93	H	0.991352	-0.919237	0.262279
F94	F	1.206604	-0.785532	0.328037
F95	F	1.100612	-0.926264	0.221447
