data_functionalizedCrystal
_audit_creation_method	'MofGen! by Chris Wilmer'
_symmetry_space_group_name_H-M	'P1'
_symmetry_Int_Tables_number	1
_symmetry_cell_setting	triclinic
loop_
_symmetry_equiv_pos_as_xyz
  x,y,z
_cell_length_a	17.077404
_cell_length_b	18.215405
_cell_length_c	17.077396
_cell_angle_alpha	89.968409
_cell_angle_beta	89.980499
_cell_angle_gamma	90.025110
loop_
_atom_site_label
_atom_site_type_symbol
_atom_site_fract_x
_atom_site_fract_y
_atom_site_fract_z
Zn1	Zn	1.200044	-0.292980	-0.443826
Zn2	Zn	1.700044	0.207020	0.056174
Zn3	Zn	1.199946	-0.416053	-0.312553
Zn4	Zn	1.699946	0.083947	0.187447
Zn5	Zn	1.068776	-0.293006	-0.312574
Zn6	Zn	1.568776	0.206994	0.187426
Zn7	Zn	1.068739	-0.416010	-0.443776
Zn8	Zn	1.568739	0.083990	0.056224
O9	O	1.134376	-0.354512	-0.378182
O10	O	1.634376	0.145488	0.121818
O11	O	1.309878	-0.309313	-0.426424
O12	O	1.809878	0.190687	0.073576
O13	O	1.182521	-0.399760	-0.202708
O14	O	1.682521	0.100240	0.297292
O15	O	1.086245	-0.190018	-0.330014
O16	O	1.586245	0.309982	0.169986
O17	O	1.309806	-0.399735	-0.329978
O18	O	1.809806	0.100265	0.170022
O19	O	1.182687	-0.189999	-0.426444
O20	O	1.682687	0.310001	0.073556
O21	O	1.086150	-0.309357	-0.202724
O22	O	1.586150	0.190643	0.297276
O23	O	0.958924	-0.309315	-0.329966
O24	O	1.458924	0.190685	0.170034
O25	O	1.086182	-0.399660	-0.553630
O26	O	1.586182	0.100340	-0.053630
O27	O	0.958897	-0.399685	-0.426360
O28	O	1.458897	0.100315	0.073640
O29	O	1.182651	-0.309271	-0.553666
O30	O	1.682651	0.190729	-0.053666
O31	O	1.182485	-0.519032	-0.329930
O32	O	1.682485	-0.019032	0.170070
O33	O	1.086088	-0.519000	-0.426340
O34	O	1.586088	-0.019000	0.073660
C35	C	0.930428	-0.354499	-0.378160
C36	C	1.430428	0.145501	0.121840
C37	C	0.843178	-0.354511	-0.378170
C38	C	1.343178	0.145489	0.121830
C39	C	0.802195	-0.401638	-0.428282
C40	C	1.302195	0.098362	0.071718
C41	C	0.720214	-0.401639	-0.428294
C42	C	1.220214	0.098361	0.071706
C43	C	0.679219	-0.354517	-0.378190
C44	C	1.179219	0.145483	0.121810
C45	C	0.720208	-0.307385	-0.328076
C46	C	1.220208	0.192615	0.171924
C47	C	0.802187	-0.307380	-0.328068
C48	C	1.302187	0.192620	0.171932
C49	C	0.549338	-0.307400	-0.328095
C50	C	1.049338	0.192600	0.171905
C51	C	0.467354	-0.307405	-0.328102
C52	C	0.967354	0.192595	0.171898
C53	C	0.467365	-0.401659	-0.428321
C54	C	0.967365	0.098341	0.071679
C55	C	0.549344	-0.401654	-0.428313
C56	C	1.049344	0.098346	0.071687
C57	C	0.590328	-0.354522	-0.378198
C58	C	1.090328	0.145478	0.121802
C59	C	1.134293	-0.545718	-0.378144
C60	C	1.634293	-0.045718	0.121856
C61	C	1.134330	-0.627517	-0.378154
C62	C	1.634330	-0.127517	0.121846
C63	C	1.184642	-0.815703	-0.328046
C64	C	1.684642	-0.315703	0.171954
C65	C	1.184677	-0.892562	-0.328065
C66	C	1.684677	-0.392562	0.171935
C67	C	1.084211	-0.892569	-0.428374
C68	C	1.584211	-0.392569	0.071626
C69	C	1.084180	-0.815711	-0.428359
C70	C	1.584180	-0.315711	0.071641
C71	C	1.134395	-0.777281	-0.378190
C72	C	1.634395	-0.277281	0.121810
C73	C	1.134460	-0.930997	-0.378225
C74	C	1.634460	-0.430997	0.121775
C75	C	1.134498	-1.014330	-0.378246
C76	C	1.634498	-0.514330	0.121754
C77	C	1.134358	-0.693942	-0.378170
C78	C	1.634358	-0.193942	0.121830
C79	C	1.339120	-0.354526	-0.378204
C80	C	1.839120	0.145474	0.121796
C81	C	1.426370	-0.354532	-0.378214
C82	C	1.926370	0.145468	0.121786
C83	C	1.134424	-0.354458	-0.582926
C84	C	1.634424	0.145542	-0.082926
C85	C	1.134444	-0.354435	-0.670176
C86	C	1.634444	0.145565	-0.170176
C87	C	1.134481	-0.162559	-0.378237
C88	C	1.634481	0.337441	0.121763
C89	C	1.134525	-0.080760	-0.378261
C90	C	1.634525	0.419240	0.121739
C91	C	1.184677	-0.307365	-0.711187
C92	C	1.684677	0.192635	-0.211187
C93	C	1.184687	-0.307341	-0.793167
C94	C	1.684687	0.192659	-0.293167
C95	C	1.134466	-0.354390	-0.834136
C96	C	1.634466	0.145610	-0.334136
C97	C	1.084227	-0.401462	-0.793120
C98	C	1.584227	0.098538	-0.293120
C99	C	1.084214	-0.401482	-0.711141
C100	C	1.584214	0.098518	-0.211141
C101	C	1.084259	-0.401418	-0.963990
C102	C	1.584259	0.098582	-0.463990
C103	C	1.084273	-0.401399	-1.045974
C104	C	1.584273	0.098601	-0.545974
C105	C	1.184731	-0.307276	-1.046016
C106	C	1.684731	0.192724	-0.546016
C107	C	1.184718	-0.307296	-0.964037
C108	C	1.684718	0.192704	-0.464037
C109	C	1.134480	-0.354369	-0.923027
C110	C	1.634480	0.145631	-0.423027
C111	C	1.134374	-0.354513	-0.174234
C112	C	1.634374	0.145487	0.325766
C113	C	1.134506	-0.354329	-0.086985
C114	C	1.634506	0.145671	0.413015
H115	H	0.686823	-0.269014	-0.287284
H116	H	1.186823	0.230986	0.212716
H117	H	1.225530	-0.784415	-0.287197
H118	H	1.725530	-0.284415	0.212803
C119	C	0.594418	-0.255554	-0.272963
C120	C	1.094418	0.244446	0.227037
N121	N	0.628373	-0.216508	-0.231435
N122	N	1.128373	0.283492	0.268565
C123	C	1.028970	-0.934850	-0.483548
C124	C	1.528970	-0.434850	0.016452
N125	N	0.987357	-0.966695	-0.525102
N126	N	1.487357	-0.466695	-0.025102
C127	C	0.847269	-0.255539	-0.272940
C128	C	1.347269	0.244461	0.227060
N129	N	0.881223	-0.216489	-0.231416
N130	N	1.381223	0.283511	0.268584
H131	H	0.582721	-0.440029	-0.469108
H132	H	1.082721	0.059971	0.030892
C133	C	1.239949	-0.934824	-0.272900
C134	C	1.739949	-0.434824	0.227100
N135	N	1.281582	-0.966655	-0.231346
N136	N	1.781582	-0.466655	0.268654
H137	H	0.433993	-0.440032	-0.469129
H138	H	0.933993	0.059968	0.030871
C139	C	1.028955	-0.453264	-0.666030
C140	C	1.528955	0.046736	-0.166030
N141	N	0.987331	-0.492266	-0.632053
N142	N	1.487331	0.007734	-0.132053
H143	H	1.225616	-0.268989	-0.930683
H144	H	1.725616	0.231011	-0.430683
H145	H	1.043263	-0.784426	-0.469195
H146	H	1.543263	-0.284426	0.030805
C147	C	1.239924	-0.255605	-0.666129
C148	C	1.739924	0.244395	-0.166129
N149	N	1.281535	-0.216616	-0.632193
N150	N	1.781535	0.283384	-0.132193
H151	H	1.225635	-0.268946	-1.079411
H152	H	1.725635	0.231054	-0.579411
C153	C	0.422260	-0.255566	-0.272988
C154	C	0.922260	0.244434	0.227012
N155	N	0.388296	-0.216519	-0.231476
N156	N	0.888296	0.283481	0.268524
H157	H	1.043377	-0.439709	-1.079329
H158	H	1.543377	0.060291	-0.579329
C159	C	1.239949	-0.255561	-0.838275
C160	C	1.739949	0.244439	-0.338275
N161	N	1.281574	-0.216559	-0.872249
N162	N	1.781574	0.283441	-0.372249
H163	H	1.043338	-0.439738	-0.930602
H164	H	1.543338	0.060262	-0.430602
H165	H	0.835567	-0.440013	-0.469079
H166	H	1.335567	0.059987	0.030921
H167	H	0.686849	-0.440016	-0.469099
H168	H	1.186849	0.059984	0.030901
C169	C	1.028977	-0.453210	-0.838188
C170	C	1.528977	0.046790	-0.338188
N171	N	0.987360	-0.492187	-0.872133
N172	N	1.487360	0.007813	-0.372133
