data_functionalizedCrystal
_audit_creation_method	'MofGen! by Chris Wilmer'
_symmetry_space_group_name_H-M	'P1'
_symmetry_Int_Tables_number	1
_symmetry_cell_setting	triclinic
loop_
_symmetry_equiv_pos_as_xyz
  x,y,z
_cell_length_a	14.044191
_cell_length_b	14.044220
_cell_length_c	9.130313
_cell_angle_alpha	90.006686
_cell_angle_beta	89.998197
_cell_angle_gamma	93.190327
loop_
_atom_site_label
_atom_site_type_symbol
_atom_site_fract_x
_atom_site_fract_y
_atom_site_fract_z
O1	O	1.277167	0.230201	0.121735
O2	O	1.777167	0.730201	0.621735
O3	O	1.000495	0.221888	0.121753
O4	O	1.500495	0.721888	0.621753
O5	O	1.134678	0.087709	0.121730
O6	O	1.634678	0.587709	0.621730
O7	O	1.142984	0.364380	0.121758
O8	O	1.642984	0.864380	0.621758
O9	O	1.134676	0.087701	-0.121869
O10	O	1.634676	0.587701	0.378131
O11	O	1.000492	0.221880	-0.121845
O12	O	1.500492	0.721880	0.378155
O13	O	1.277165	0.230193	-0.121864
O14	O	1.777165	0.730193	0.378136
Cu15	Cu	1.138828	0.226036	-0.144097
Cu16	Cu	1.638828	0.726036	0.355903
Cu17	Cu	1.138831	0.226045	0.143987
Cu18	Cu	1.638831	0.726045	0.643987
O19	O	1.142981	0.364373	-0.121840
O20	O	1.642981	0.864373	0.378160
C21	C	0.964872	0.218248	-0.000044
C22	C	1.464872	0.718248	0.499956
C23	C	0.858728	0.207401	-0.000037
C24	C	1.358728	0.707401	0.499963
C25	C	0.613270	0.264501	-0.000046
C26	C	1.113270	0.764501	0.499954
C27	C	0.664395	0.187585	-0.000051
C28	C	1.164395	0.687585	0.499949
C29	C	0.772532	0.198613	-0.000044
C30	C	1.272532	0.698613	0.499956
C31	C	0.505123	0.253474	-0.000054
C32	C	1.005123	0.753474	0.499946
C33	C	1.131041	0.052083	-0.000070
C34	C	1.631041	0.552083	0.499930
C35	C	1.120197	-0.054060	-0.000071
C36	C	1.620197	0.445940	0.499929
C37	C	1.312788	0.233834	-0.000063
C38	C	1.812788	0.733834	0.499937
C39	C	1.418931	0.244681	-0.000060
C40	C	1.918931	0.744681	0.499940
C41	C	1.100370	-0.248398	-0.000048
C42	C	1.600370	0.251602	0.499952
C43	C	1.177285	-0.299526	-0.000049
C44	C	1.677285	0.200474	0.499951
C45	C	1.166253	-0.407663	-0.000037
C46	C	1.666253	0.092337	0.499963
C47	C	1.111400	-0.140252	-0.000061
C48	C	1.611400	0.359748	0.499939
C49	C	1.146618	0.399998	-0.000037
C50	C	1.646618	0.899998	0.499963
C51	C	1.157463	0.506142	-0.000027
C52	C	1.657463	1.006142	0.499973
N53	N	1.138833	0.226045	0.346609
N54	N	1.638833	0.726045	0.846609
N55	N	1.138833	0.226030	-0.346720
N56	N	1.638833	0.726030	0.153280
C57	C	1.198380	0.166766	0.423251
C58	C	1.698380	0.666766	0.923251
C59	C	1.198383	0.166760	0.576588
C60	C	1.698383	0.666760	1.076588
C61	C	1.079284	0.285315	0.576628
C62	C	1.579284	0.785315	1.076628
C63	C	1.079287	0.285325	0.423294
C64	C	1.579287	0.785325	0.923294
C65	C	1.257927	0.107486	0.346567
C66	C	1.757927	0.607486	0.846567
C67	C	1.317478	0.048201	0.423208
C68	C	1.817478	0.548201	0.923208
C69	C	1.317481	0.048196	0.576545
C70	C	1.817481	0.548196	1.076545
C71	C	1.257932	0.107475	0.653240
C72	C	1.757932	0.607475	1.153240
H73	H	0.626952	0.113452	0.000044
H74	H	1.126952	0.613452	0.500044
H75	H	0.650711	0.338628	-0.000034
H76	H	1.150711	0.838628	0.499966
N77	N	1.275487	-0.249942	-0.000063
N78	N	1.775487	0.250058	0.499937
H79	H	1.269553	-0.178601	-0.000073
H80	H	1.769553	0.321399	0.499927
H81	H	1.311291	-0.269086	-0.090374
H82	H	1.811291	0.230914	0.409626
H83	H	1.026242	-0.285837	-0.000040
H84	H	1.526242	0.214163	0.499960
H85	H	1.257928	0.107483	0.221712
H86	H	1.757928	0.607483	0.721712
H87	H	1.365966	-0.000056	0.360755
H88	H	1.865966	0.499944	0.860755
N89	N	1.381708	-0.015748	0.659196
N90	N	1.881708	0.484252	1.159196
H91	H	1.341730	-0.061198	0.722801
H92	H	1.841730	0.438802	1.222801
H93	H	1.426988	0.024470	0.722741
H94	H	1.926988	0.524470	1.222741
N95	N	1.257928	0.107482	0.818625
N96	N	1.757928	0.607482	1.318625
H97	H	1.323936	0.127016	0.855566
H98	H	1.823936	0.627016	1.355566
H99	H	1.238638	0.041389	0.855431
H100	H	1.738638	0.541389	1.355431
N101	N	1.015057	0.349245	0.659341
N102	N	1.515057	0.849245	1.159341
H103	H	1.024090	0.340242	0.768107
H104	H	1.524090	0.840242	1.268107
H105	H	0.946424	0.332322	0.632532
H106	H	1.446424	0.832322	1.132532
H107	H	1.030799	0.333596	0.360892
H108	H	1.530799	0.833596	0.860892
