data_functionalizedCrystal
_audit_creation_method	'MofGen! by Chris Wilmer'
_symmetry_space_group_name_H-M	'P1'
_symmetry_Int_Tables_number	1
_symmetry_cell_setting	triclinic
loop_
_symmetry_equiv_pos_as_xyz
  x,y,z
_cell_length_a	10.723024
_cell_length_b	26.210047
_cell_length_c	10.723023
_cell_angle_alpha	89.994436
_cell_angle_beta	84.467709
_cell_angle_gamma	90.008813
loop_
_atom_site_label
_atom_site_type_symbol
_atom_site_fract_x
_atom_site_fract_y
_atom_site_fract_z
O1	O	1.657198	0.042424	0.175010
O2	O	1.294046	0.042426	0.191763
O3	O	1.483999	0.042423	0.001810
O4	O	1.467245	0.042427	0.364962
O5	O	1.483962	-0.042435	0.001839
O6	O	1.294009	-0.042432	0.191792
O7	O	1.657161	-0.042434	0.175039
Cu8	Cu	1.475582	-0.050181	0.183418
Cu9	Cu	1.475625	0.050174	0.183383
O10	O	1.467208	-0.042431	0.364992
C11	C	1.247528	-0.000003	0.190558
C12	C	1.108973	-0.000002	0.186911
N13	N	1.475560	-0.120765	0.183442
C14	C	1.033991	-0.000001	0.293198
C15	C	0.890787	0.000000	0.289431
C16	C	1.559728	-0.473280	0.099291
C17	C	1.559755	-0.686939	0.099274
O18	O	1.631270	-0.714562	0.027731
N19	N	1.475632	-0.713659	0.183356
C20	C	1.391489	-0.686961	0.267443
O21	O	1.319929	-0.714590	0.338950
C22	C	1.391457	-0.473303	0.267453
C23	C	1.475595	-0.446586	0.183374
C24	C	1.643858	-0.446563	0.015219
C25	C	1.643855	-0.393152	0.015228
C26	C	1.559722	-0.366457	0.099311
C27	C	1.475592	-0.393175	0.183384
C28	C	1.307310	-0.446606	0.351532
C29	C	1.307307	-0.393188	0.351525
C30	C	1.391445	-0.366471	0.267446
C31	C	1.391456	-0.313069	0.267476
N32	N	1.475579	-0.286349	0.183394
C33	C	1.559713	-0.313043	0.099312
C34	C	1.391514	-0.799134	0.267433
C35	C	1.391523	-0.852548	0.267432
C36	C	1.559788	-0.852523	0.099262
C37	C	1.559784	-0.799107	0.099270
C38	C	1.475638	-0.772414	0.183351
C39	C	1.559701	-0.200875	0.099339
C40	C	1.559693	-0.147459	0.099360
C41	C	1.391425	-0.147489	0.267525
C42	C	1.391436	-0.200901	0.267509
C43	C	1.475578	-0.227593	0.183406
O44	O	1.319969	-0.285413	0.338972
O45	O	1.631244	-0.285404	0.027796
C46	C	1.559731	-0.526692	0.099282
C47	C	1.475601	-0.553409	0.183355
C48	C	1.391468	-0.526715	0.267437
C49	C	1.475610	-0.606823	0.183354
C50	C	1.559744	-0.633517	0.099271
C51	C	1.643867	-0.606797	0.015189
C52	C	1.643864	-0.553386	0.015199
C53	C	1.307344	-0.553435	0.351519
C54	C	1.307355	-0.606846	0.351503
C55	C	1.391488	-0.633540	0.267421
C56	C	1.703679	-0.000004	0.176243
C57	C	1.842234	-0.000001	0.179891
C58	C	1.482762	-0.000005	-0.044675
C59	C	1.479114	-0.000004	-0.183229
N60	N	1.475657	0.120757	0.183350
C61	C	1.473700	-0.043959	-0.388188
C62	C	1.477469	-0.043962	-0.244985
C63	C	1.468445	-0.000001	0.411477
C64	C	1.472093	0.000001	0.550031
H65	H	1.075812	-0.000002	0.386984
H66	H	1.238797	-0.468352	0.419996
H67	H	1.477739	0.037634	-0.236352
N68	N	0.927554	-0.000002	0.059345
H69	H	0.982200	0.031454	0.055759
H70	H	0.982091	-0.031481	0.055855
N71	N	1.479311	-0.093816	-0.174614
H72	H	1.403511	-0.095851	-0.111138
H73	H	1.477742	-0.123122	-0.235589
H74	H	0.826354	0.000004	0.380421
H75	H	1.067152	0.000010	0.093125
H76	H	1.628213	-0.125708	0.030893
H77	H	1.628215	-0.222602	0.030853
N78	N	1.734599	-0.364339	-0.075462
H79	H	1.787887	-0.389361	-0.128725
H80	H	1.686355	-0.342180	-0.131071
H81	H	1.472278	-0.081592	-0.441311
H82	H	1.322935	-0.222655	0.335986
H83	H	1.712369	-0.468293	-0.053257
N84	N	1.473953	0.049845	-0.379575
H85	H	1.550585	0.070088	-0.411598
H86	H	1.396087	0.070039	-0.392727
N87	N	1.650531	-0.770293	0.008587
H88	H	1.703828	-0.795314	-0.044672
H89	H	1.602290	-0.748134	-0.047027
H90	H	1.238781	-0.371457	0.419993
N91	N	1.650536	-0.881319	0.008573
H92	H	1.637766	-0.919210	0.021338
H93	H	1.635358	-0.871982	-0.080088
H94	H	1.323024	-0.874298	0.335910
N95	N	1.300768	-0.770344	0.358136
H96	H	1.245099	-0.748185	0.309953
H97	H	1.247569	-0.795410	0.411379
H98	H	1.712377	-0.531637	-0.053266
N99	N	1.300685	-0.118693	0.358211
H100	H	1.313452	-0.080802	0.345446
H101	H	1.212042	-0.128034	0.342973
H102	H	1.712377	-0.628540	-0.053270
N103	N	1.216594	-0.635660	0.442187
H104	H	1.231702	-0.626369	0.530895
H105	H	1.127957	-0.626351	0.426876
N106	N	1.216589	-0.524647	0.442206
H107	H	1.163303	-0.549684	0.495461
H108	H	1.264823	-0.502486	0.497822
