data_functionalizedCrystal
_audit_creation_method	'MofGen! by Chris Wilmer'
_symmetry_space_group_name_H-M	'P1'
_symmetry_Int_Tables_number	1
_symmetry_cell_setting	triclinic
loop_
_symmetry_equiv_pos_as_xyz
  x,y,z
_cell_length_a	17.699104
_cell_length_b	10.723023
_cell_length_c	16.776229
_cell_angle_alpha	89.994384
_cell_angle_beta	89.991971
_cell_angle_gamma	83.879533
loop_
_atom_site_label
_atom_site_type_symbol
_atom_site_fract_x
_atom_site_fract_y
_atom_site_fract_z
O1	O	1.005064	0.157921	-0.066303
O2	O	0.784817	0.178424	-0.066300
O3	O	0.900022	-0.013490	-0.066298
O4	O	0.889860	0.349835	-0.066305
O5	O	0.900006	-0.013502	0.066278
O6	O	0.784802	0.178412	0.066276
O7	O	1.005049	0.157909	0.066274
Zn8	Zn	0.894923	0.168159	0.087324
Zn9	Zn	0.894943	0.168174	-0.087351
O10	O	0.889845	0.349823	0.066272
C11	C	0.756608	0.177679	-0.000012
C12	C	0.672577	0.175461	-0.000011
C13	C	0.148338	0.275607	-0.000021
C14	C	0.227294	0.277683	-0.000024
C15	C	0.275202	0.165022	-0.000021
C16	C	0.244148	0.050278	-0.000025
C17	C	0.165193	0.048203	-0.000028
C18	C	0.562567	0.058641	-0.000012
C19	C	0.641527	0.060725	-0.000007
C20	C	0.624669	0.288121	-0.000008
C21	C	0.545713	0.286046	-0.000011
C22	C	0.514667	0.171303	-0.000019
C23	C	0.429053	0.169054	-0.000018
C24	C	0.360814	0.167270	-0.000017
C25	C	0.899274	-0.059983	-0.000011
C26	C	0.897062	-0.198500	-0.000013
C27	C	0.896084	-0.260243	-0.068693
C28	C	0.893798	-0.403407	-0.068697
C29	C	1.033258	0.158654	-0.000016
C30	C	1.117289	0.160871	-0.000022
C31	C	0.890592	0.396316	-0.000017
C32	C	0.892804	0.534833	-0.000020
N33	N	0.894915	0.168147	0.206536
N34	N	0.894958	0.168176	-0.206562
C35	C	0.945943	0.083203	0.248254
C36	C	0.945947	0.083201	0.331706
C37	C	0.894926	0.168152	0.373438
C38	C	0.843892	0.253101	0.331715
C39	C	0.843885	0.253095	0.248264
C40	C	0.843920	0.253125	0.668262
C41	C	0.843933	0.253127	0.751718
C42	C	0.945982	0.083232	0.751704
C43	C	0.945974	0.083226	0.668253
C44	C	0.894938	0.168170	0.626536
C45	C	0.894934	0.168168	0.536048
C46	C	0.894934	0.168161	0.463925
H47	H	0.537299	-0.034789	-0.000017
Br48	Br	0.892405	-0.491899	-0.166706
Br49	Br	0.309164	-0.102622	-0.000027
Br50	Br	1.015195	-0.032086	0.191625
Br51	Br	0.774660	0.368405	0.611651
H52	H	0.506710	0.377787	-0.000009
H53	H	0.987497	0.014032	0.365672
H54	H	0.139915	-0.045226	-0.000031
H55	H	0.896202	-0.251627	0.058783
Br56	Br	0.897527	-0.171709	-0.166697
Br57	Br	1.015223	-0.032060	0.611618
H58	H	0.109336	0.367349	-0.000017
Br59	Br	0.774642	0.368385	0.388349
H60	H	0.649956	0.381551	-0.000005
H61	H	0.252570	0.371111	-0.000030
Br62	Br	0.774624	0.368374	0.191646
Br63	Br	0.894215	-0.376687	0.097992
H64	H	0.987536	0.014062	0.785678
Br65	Br	0.706545	-0.092183	-0.000002
H66	H	0.802382	0.322307	0.785696
