data_functionalizedCrystal
_audit_creation_method	'MofGen! by Chris Wilmer'
_symmetry_space_group_name_H-M	'P1'
_symmetry_Int_Tables_number	1
_symmetry_cell_setting	triclinic
loop_
_symmetry_equiv_pos_as_xyz
  x,y,z
_cell_length_a	6.817900
_cell_length_b	16.305550
_cell_length_c	16.417825
_cell_angle_alpha	95.393303
_cell_angle_beta	103.385495
_cell_angle_gamma	103.455250
loop_
_atom_site_label
_atom_site_type_symbol
_atom_site_fract_x
_atom_site_fract_y
_atom_site_fract_z
V1	V	-4.025833	-0.263329	-0.116593
O2	O	-4.013858	-0.258012	0.004875
O3	O	-3.976882	-0.261820	-0.230485
O4	O	-3.977245	-0.378042	-0.115119
O5	O	-4.013493	-0.140986	-0.111289
V6	V	-4.509557	-0.248660	-0.102026
O7	O	-4.286651	-0.295506	-0.148546
O8	O	-4.698937	-0.216483	-0.070073
O9	O	-4.335302	-0.250168	0.011865
O10	O	-4.638929	-0.253977	-0.223495
O11	O	-4.639295	-0.371003	-0.107330
O12	O	-4.334939	-0.133947	-0.103501
C13	C	-3.821754	-0.257742	-0.258239
C14	C	-3.863016	-0.257273	-0.351349
C15	C	-3.917930	-0.178925	-0.553403
C16	C	-3.956722	-0.178491	-0.640891
C17	C	-4.036841	-0.333073	-0.665217
C18	C	-3.998063	-0.333506	-0.577730
C19	C	-3.938597	-0.256429	-0.521825
C20	C	-4.016167	-0.255563	-0.696800
C21	C	-4.058228	-0.255093	-0.791658
C22	C	-3.896538	-0.256899	-0.426960
C23	C	-3.822216	-0.405993	-0.111077
C24	C	-3.863770	-0.499774	-0.110625
C25	C	-4.014863	-0.840515	-0.108875
C26	C	-3.778833	-0.799573	-0.103678
C27	C	-3.735637	-0.702080	-0.104494
C28	C	-3.939902	-0.671469	-0.109743
C29	C	-4.106643	-0.722307	-0.192464
C30	C	-4.148508	-0.819855	-0.191996
C31	C	-4.069890	-0.794475	-0.032013
C32	C	-4.021963	-0.696631	-0.031358
C33	C	-3.897551	-0.575932	-0.110236
C34	C	-4.057223	-0.936052	-0.108387
C35	C	-4.153772	-0.254245	0.039616
C36	C	-4.091748	-0.254719	0.132725
C37	C	-4.153310	-0.105991	-0.107545
C38	C	-4.090995	-0.012210	-0.107992
H39	H	-3.609350	-0.666905	-0.045018
F40	F	-4.306803	-0.697613	-0.201396
H41	H	-4.112157	-0.850385	-0.250183
H42	H	-3.939892	-0.115380	-0.666597
H43	H	-3.901132	-0.662097	0.029827
F44	F	-4.020073	-0.416001	-0.544122
F45	F	-4.033926	-0.700526	-0.268540
H46	H	-3.672906	-0.811784	-0.043921
H47	H	-3.978710	-0.807683	0.030664
H48	H	-4.169254	-0.675281	-0.030329
H49	H	-4.241944	-0.821299	-0.035084
H50	H	-4.322319	-0.847865	-0.199250
H51	H	-3.669013	-0.685929	-0.160354
H52	H	-3.733547	-0.831226	-0.158900
H53	H	-3.869510	-0.116164	-0.507886
F54	F	-4.100122	-0.415098	-0.724722
