data_functionalizedCrystal
_audit_creation_method	'MofGen! by Chris Wilmer'
_symmetry_space_group_name_H-M	'P1'
_symmetry_Int_Tables_number	1
_symmetry_cell_setting	triclinic
loop_
_symmetry_equiv_pos_as_xyz
  x,y,z
_cell_length_a	13.032127
_cell_length_b	12.827893
_cell_length_c	12.827885
_cell_angle_alpha	89.978811
_cell_angle_beta	97.216231
_cell_angle_gamma	82.811319
loop_
_atom_site_label
_atom_site_type_symbol
_atom_site_fract_x
_atom_site_fract_y
_atom_site_fract_z
Zn1	Zn	-0.416108	-1.544849	0.537998
Zn2	Zn	-0.590917	-1.522553	0.341032
Zn3	Zn	-0.416153	-1.370085	0.363260
Zn4	Zn	-0.590834	-1.347896	0.515737
O5	O	-0.503503	-1.446346	0.439507
O6	O	-0.439312	-1.688126	0.511884
O7	O	-0.567788	-1.502283	0.197738
O8	O	-0.269885	-1.411885	0.405057
O9	O	-0.567744	-1.671745	0.367174
O10	O	-0.269851	-1.540283	0.533436
O11	O	-0.439390	-1.390265	0.214068
O12	O	-0.439309	-1.220907	0.383472
O13	O	-0.567602	-1.374067	0.664933
O14	O	-0.567646	-1.204606	0.495497
O15	O	-0.439232	-1.518768	0.681288
O16	O	-0.737169	-1.480768	0.345589
O17	O	-0.737108	-1.352448	0.473944
C18	C	-0.503475	-1.174840	0.439481
C19	C	-0.503488	-1.058685	0.439492
C20	C	-0.440046	-1.014992	0.511182
C21	C	-0.440058	-0.894940	0.511195
C22	C	-0.775062	-1.411809	0.404962
C23	C	-0.891236	-1.397130	0.390218
C24	C	-1.063008	-1.438895	0.431991
C25	C	-0.942935	-1.454076	0.447232
C26	C	-0.230883	-1.481046	0.474209
C27	C	-0.114709	-1.495833	0.488997
C28	C	-0.503403	-1.446430	0.712090
C29	C	-0.503360	-1.446465	0.828248
C30	C	-0.503524	-0.718913	0.439525
C31	C	-0.503511	-0.835068	0.439515
C32	C	-0.503528	-1.446332	0.167994
C33	C	-0.503276	-1.446536	0.051873
C34	C	-0.439826	-1.518076	0.888128
C35	C	-0.439780	-1.518115	1.008184
H36	H	-0.557834	-0.872667	0.378140
N37	N	-0.367721	-1.599335	1.076333
H38	H	-0.410223	-1.642327	1.116214
H39	H	-0.319315	-1.562928	1.127716
N40	N	-0.575440	-0.990512	0.358197
H41	H	-0.623889	-0.939088	0.394467
H42	H	-0.617706	-1.036236	0.310373
H43	H	-1.107637	-1.378906	0.371907
N44	N	-1.055607	-1.575285	0.568603
H45	H	-0.978209	-1.574864	0.568210
H46	H	-1.074586	-1.647547	0.550018
H47	H	-0.385462	-1.579353	0.850512
H48	H	-0.898311	-1.514061	0.507329
N49	N	-0.950344	-1.317670	0.310616
H50	H	-0.931443	-1.336316	0.238348
H51	H	-0.931423	-1.245398	0.329248
H52	H	-0.557677	-1.385228	1.000415
N53	N	-0.575365	-1.365294	0.878076
H54	H	-0.650072	-1.371990	0.849634
H55	H	-0.559060	-1.292708	0.861184
N56	N	-0.368103	-1.083154	0.592491
H57	H	-0.378302	-1.159252	0.580966
H58	H	-0.384469	-1.062075	0.665027
N59	N	-0.368114	-0.845138	0.592506
H60	H	-0.378322	-0.766437	0.580991
H61	H	-0.293428	-0.873643	0.585879
