data_functionalizedCrystal
_audit_creation_method	'MofGen! by Chris Wilmer'
_symmetry_space_group_name_H-M	'P1'
_symmetry_Int_Tables_number	1
_symmetry_cell_setting	triclinic
loop_
_symmetry_equiv_pos_as_xyz
  x,y,z
_cell_length_a	23.532407
_cell_length_b	23.532407
_cell_length_c	12.996460
_cell_angle_alpha	89.998354
_cell_angle_beta	90.010797
_cell_angle_gamma	82.848712
loop_
_atom_site_label
_atom_site_type_symbol
_atom_site_fract_x
_atom_site_fract_y
_atom_site_fract_z
O1	O	0.069137	0.755256	0.085512
O2	O	0.402470	1.088590	0.418846
O3	O	0.735803	1.421923	0.752179
O4	O	0.079140	0.589393	0.085530
O5	O	0.412473	0.922726	0.418863
O6	O	0.745807	1.256060	0.752197
O7	O	-0.008793	0.677326	0.085502
O8	O	0.324540	1.010660	0.418835
O9	O	0.657873	1.343993	0.752168
O10	O	0.157070	0.667323	0.085541
O11	O	0.490403	1.000656	0.418874
O12	O	0.823737	1.333990	0.752207
O13	O	-0.008799	0.677325	-0.085632
O14	O	0.324534	1.010658	0.247701
O15	O	0.657868	1.343992	0.581035
O16	O	0.079134	0.589392	-0.085604
O17	O	0.412468	0.922725	0.247730
O18	O	0.745801	1.256058	0.581063
O19	O	0.069131	0.755255	-0.085622
O20	O	0.402464	1.088588	0.247712
O21	O	0.735798	1.421922	0.581045
Cu22	Cu	0.074132	0.672323	-0.101239
Cu23	Cu	0.407465	1.005656	0.232095
Cu24	Cu	0.740799	1.338990	0.565428
Cu25	Cu	0.074139	0.672325	0.101147
Cu26	Cu	0.407472	1.005658	0.434480
Cu27	Cu	0.740806	1.338992	0.767814
O28	O	0.157064	0.667322	-0.085593
O29	O	0.490398	1.000655	0.247740
O30	O	0.823731	1.333988	0.581073
C31	C	0.078882	0.568176	-0.000035
C32	C	0.412216	0.901510	0.333298
C33	C	0.745549	1.234843	0.666632
C34	C	0.078116	0.504959	-0.000029
C35	C	0.411450	0.838293	0.333304
C36	C	0.744783	1.171626	0.666638
C37	C	-0.030012	0.677071	-0.000068
C38	C	0.303321	1.010404	0.333266
C39	C	0.636654	1.343738	0.666599
C40	C	-0.093229	0.676305	-0.000076
C41	C	0.240104	1.009638	0.333258
C42	C	0.573437	1.342972	0.666591
C43	C	0.022921	0.238792	-0.000070
C44	C	0.356254	0.572125	0.333263
C45	C	0.689588	0.905458	0.666597
C46	C	0.023632	0.298192	-0.000069
C47	C	0.356966	0.631525	0.333264
C48	C	0.690299	0.964859	0.666597
O49	O	-0.020153	0.334937	-0.000115
O50	O	0.313180	0.668270	0.333218
O51	O	0.646513	1.001603	0.666551
N52	N	0.075909	0.320818	-0.000050
N53	N	0.409242	0.654152	0.333283
N54	N	0.742575	0.987485	0.666616
C55	C	0.127477	0.284041	-0.000042
C56	C	0.460810	0.617374	0.333291
C57	C	0.794144	0.950707	0.666625
O58	O	0.172007	0.308740	-0.000026
O59	O	0.505341	0.642074	0.333307
O60	O	0.838674	0.975407	0.666640
C61	C	0.126765	0.224642	-0.000050
C62	C	0.460098	0.557975	0.333284
C63	C	0.793432	0.891308	0.666617
C64	C	0.074485	0.202019	-0.000058
C65	C	0.407819	0.535352	0.333275
C66	C	0.741152	0.868686	0.666608
C67	C	-0.029354	0.216169	-0.000080
C68	C	0.303979	0.549502	0.333254
C69	C	0.637312	0.882835	0.666587
C70	C	-0.030066	0.156772	-0.000078
C71	C	0.303268	0.490106	0.333255
C72	C	0.636601	0.823439	0.666588
C73	C	0.021499	0.119999	-0.000067
C74	C	0.354832	0.453333	0.333266
C75	C	0.688165	0.786666	0.666600
C76	C	0.073774	0.142623	-0.000057
C77	C	0.407107	0.475956	0.333276
C78	C	0.740441	0.809289	0.666610
C79	C	0.178333	0.187865	-0.000049
C80	C	0.511666	0.521199	0.333285
C81	C	0.844999	0.854532	0.666618
C82	C	0.177616	0.128463	-0.000057
C83	C	0.510949	0.461796	0.333276
C84	C	0.844283	0.795129	0.666609
C85	C	0.125336	0.105840	-0.000066
C86	C	0.458670	0.439173	0.333267
C87	C	0.792003	0.772507	0.666601
C88	C	0.124627	0.046454	-0.000044
C89	C	0.457960	0.379787	0.333289
C90	C	0.791294	0.713120	0.666623
N91	N	0.072351	0.023828	-0.000063
N92	N	0.405684	0.357161	0.333270
N93	N	0.739017	0.690494	0.666603
C94	C	0.020787	0.060600	-0.000075
C95	C	0.354120	0.393934	0.333259
C96	C	0.687453	0.727267	0.666592
C97	C	0.128968	0.408783	-0.000027
C98	C	0.462302	0.742117	0.333306
C99	C	0.795635	1.075450	0.666639
C100	C	0.129681	0.468181	-0.000012
C101	C	0.463014	0.801514	0.333321
C102	C	0.796348	1.134848	0.666655
C103	C	0.025836	0.482328	-0.000042
C104	C	0.359170	0.815662	0.333292
C105	C	0.692503	1.148995	0.666625
C106	C	0.025124	0.422929	-0.000049
C107	C	0.358457	0.756263	0.333284
C108	C	0.691791	1.089596	0.666617
C109	C	0.076692	0.386157	-0.000047
C110	C	0.410025	0.719490	0.333287
C111	C	0.743359	1.052824	0.666620
C112	C	0.019297	-0.064136	-0.000071
C113	C	0.352630	0.269197	0.333263
C114	C	0.685964	0.602530	0.666596
C115	C	0.018590	-0.123538	-0.000065
C116	C	0.351924	0.209795	0.333268
C117	C	0.685257	0.543128	0.666602
C118	C	0.122435	-0.137680	-0.000041
C119	C	0.455768	0.195653	0.333292
C120	C	0.789101	0.528986	0.666626
C121	C	0.123142	-0.078284	-0.000041
C122	C	0.456475	0.255050	0.333292
C123	C	0.789808	0.588383	0.666625
C124	C	0.071568	-0.041512	-0.000060
C125	C	0.404901	0.291821	0.333274
C126	C	0.738235	0.625154	0.666607
O127	O	0.168390	0.009675	-0.000002
O128	O	0.501723	0.343008	0.333331
O129	O	0.835057	0.676341	0.666664
O130	O	-0.023737	0.035892	-0.000104
O131	O	0.309597	0.369226	0.333230
O132	O	0.642930	0.702559	0.666563
C133	C	-0.492332	0.723538	-0.000024
C134	C	-0.158999	1.056872	0.333309
C135	C	0.174334	1.390205	0.666642
C136	C	-0.551733	0.722827	-0.000016
C137	C	-0.218399	1.056160	0.333317
C138	C	0.114934	1.389494	0.666650
O139	O	-0.588477	0.766613	0.000017
O140	O	-0.255144	1.099946	0.333350
O141	O	0.078190	1.433280	0.666684
N142	N	-0.574359	0.670551	-0.000012
N143	N	-0.241025	1.003884	0.333322
N144	N	0.092308	1.337217	0.666655
C145	C	-0.537581	0.618982	-0.000004
C146	C	-0.204248	0.952316	0.333329
C147	C	0.129085	1.285649	0.666663
O148	O	-0.562281	0.574452	0.000002
O149	O	-0.228948	0.907785	0.333335
O150	O	0.104386	1.241119	0.666668
C151	C	-0.478182	0.619695	-0.000005
C152	C	-0.144849	0.953028	0.333329
C153	C	0.188485	1.286361	0.666662
C154	C	-0.455559	0.671974	-0.000020
C155	C	-0.122226	1.005308	0.333313
C156	C	0.211107	1.338641	0.666647
C157	C	-0.469709	0.775814	-0.000038
C158	C	-0.136376	1.109147	0.333295
C159	C	0.196958	1.442481	0.666628
C160	C	-0.410313	0.776525	-0.000048
C161	C	-0.076980	1.109858	0.333285
C162	C	0.256354	1.443192	0.666619
C163	C	-0.373540	0.724961	-0.000044
C164	C	-0.040207	1.058294	0.333289
C165	C	0.293127	1.391628	0.666623
C166	C	-0.396163	0.672685	-0.000030
C167	C	-0.062830	1.006019	0.333304
C168	C	0.270503	1.339352	0.666637
C169	C	-0.441406	0.568127	0.000010
C170	C	-0.108072	0.901460	0.333344
C171	C	0.225261	1.234794	0.666677
C172	C	-0.382003	0.568843	0.000010
C173	C	-0.048670	0.902177	0.333344
C174	C	0.284663	1.235510	0.666677
C175	C	-0.359381	0.621123	-0.000005
C176	C	-0.026047	0.954457	0.333328
C177	C	0.307286	1.287790	0.666662
C178	C	-0.299994	0.621832	-0.000035
C179	C	0.033339	0.955166	0.333298
C180	C	0.366672	1.288499	0.666631
N181	N	-0.277368	0.674109	-0.000040
N182	N	0.055965	1.007442	0.333293
N183	N	0.389299	1.340775	0.666627
C184	C	-0.314141	0.725673	-0.000044
C185	C	0.019192	1.059006	0.333289
C186	C	0.352526	1.392340	0.666622
C187	C	-0.662324	0.617491	-0.000001
C188	C	-0.328990	0.950824	0.333332
C189	C	0.004343	1.284158	0.666665
C190	C	-0.721722	0.616778	-0.000008
C191	C	-0.388388	0.950112	0.333325
C192	C	-0.055055	1.283445	0.666659
C193	C	-0.735869	0.720623	-0.000018
C194	C	-0.402536	1.053957	0.333315
C195	C	-0.069202	1.387290	0.666648
C196	C	-0.676470	0.721335	-0.000019
C197	C	-0.343137	1.054669	0.333314
C198	C	-0.009803	1.388002	0.666648
C199	C	-0.639698	0.669767	-0.000006
C200	C	-0.306364	1.003101	0.333327
C201	C	0.026969	1.336434	0.666661
C202	C	-0.189404	0.727163	-0.000066
C203	C	0.143929	1.060496	0.333267
C204	C	0.477262	1.393829	0.666601
C205	C	-0.130002	0.727869	-0.000080
C206	C	0.203331	1.061203	0.333253
C207	C	0.536664	1.394536	0.666587
C208	C	-0.115860	0.624025	-0.000064
C209	C	0.217473	0.957358	0.333269
C210	C	0.550807	1.290691	0.666603
C211	C	-0.175257	0.623318	-0.000056
C212	C	0.158076	0.956651	0.333278
C213	C	0.491410	1.289984	0.666611
C214	C	-0.212028	0.674891	-0.000053
C215	C	0.121305	1.008225	0.333280
C216	C	0.454639	1.341558	0.666614
O217	O	-0.263215	0.578069	-0.000064
O218	O	0.070118	0.911403	0.333269
O219	O	0.403452	1.244736	0.666602
O220	O	-0.289433	0.770196	-0.000037
O221	O	0.043900	1.103529	0.333297
O222	O	0.377234	1.436863	0.666630
C223	C	0.178283	0.667577	-0.000021
C224	C	0.511617	1.000910	0.333312
C225	C	0.844950	1.334244	0.666645
C226	C	0.241500	0.668343	-0.000007
C227	C	0.574834	1.001676	0.333326
C228	C	0.908167	1.335010	0.666660
C229	C	0.069389	0.776472	-0.000054
C230	C	0.402722	1.109805	0.333279
C231	C	0.736055	1.443138	0.666612
C232	C	0.070155	0.839689	-0.000054
C233	C	0.403488	1.173022	0.333280
C234	C	0.736821	1.506355	0.666613
N235	N	0.074139	0.672326	0.243494
N236	N	0.407473	1.005660	0.576827
N237	N	0.740806	1.338993	0.910161
N238	N	0.074127	0.672326	-0.243586
N239	N	0.407460	1.005659	0.089748
N240	N	0.740794	1.338993	0.423081
C241	C	0.074134	0.672324	0.663308
C242	C	0.407467	1.005657	0.996642
C243	C	0.740801	1.338990	1.329975
C244	C	0.074137	0.672322	0.546503
C245	C	0.407471	1.005656	0.879837
C246	C	0.740804	1.338989	1.213170
C247	C	0.074136	0.672325	0.453405
C248	C	0.407470	1.005658	0.786738
C249	C	0.740803	1.338991	1.120072
C250	C	0.074140	0.672324	0.336592
C251	C	0.407474	1.005658	0.669926
C252	C	0.740807	1.338991	1.003259
H253	H	-0.023984	-0.141954	-0.000069
H254	H	0.309349	0.191379	0.333264
H255	H	0.642683	0.524713	0.666597
C256	C	-0.775775	0.776627	-0.000224
C257	C	-0.442441	1.109960	0.333109
C258	C	-0.109108	1.443293	0.666443
C259	C	-0.765624	0.808123	-0.088283
C260	C	-0.432291	1.141457	0.245050
C261	C	-0.098958	1.474790	0.578384
C262	C	-0.802381	0.859709	-0.088514
C263	C	-0.469048	1.193042	0.244819
C264	C	-0.135714	1.526376	0.578153
H265	H	-0.768976	0.798145	0.059383
H266	H	-0.435642	1.131478	0.392717
H267	H	-0.102309	1.464811	0.726050
H268	H	-0.814398	0.768734	-0.000273
H269	H	-0.481064	1.102067	0.333061
H270	H	-0.147731	1.435400	0.666394
H271	H	-0.727010	0.816018	-0.088225
H272	H	-0.393677	1.149351	0.245109
H273	H	-0.060344	1.482684	0.578442
H274	H	-0.772427	0.786623	-0.147904
H275	H	-0.439094	1.119956	0.185429
H276	H	-0.105761	1.453290	0.518762
H277	H	-0.841004	0.851816	-0.088563
H278	H	-0.507670	1.185149	0.244771
H279	H	-0.174337	1.518483	0.578104
H280	H	-0.795579	0.881222	-0.028903
H281	H	-0.462245	1.214555	0.304430
H282	H	-0.128912	1.547888	0.637764
H283	H	-0.795502	0.881084	-0.148265
H284	H	-0.462169	1.214417	0.185068
H285	H	-0.128836	1.547750	0.518402
H286	H	-0.740135	0.574207	-0.000013
H287	H	-0.406802	0.907540	0.333320
H288	H	-0.073469	1.240874	0.666653
C289	C	-0.466033	0.511405	0.000200
C290	C	-0.132700	0.844738	0.333533
C291	C	0.200633	1.178071	0.666866
C292	C	-0.499717	0.507970	0.088240
C293	C	-0.166384	0.841304	0.421573
C294	C	0.166949	1.174637	0.754906
C295	C	-0.522417	0.455726	0.088447
C296	C	-0.189084	0.789059	0.421780
C297	C	0.144250	1.122392	0.755114
H298	H	-0.435676	0.480755	0.000263
H299	H	-0.102342	0.814088	0.333596
H300	H	0.230991	1.147421	0.666929
H301	H	-0.488951	0.508950	-0.059442
H302	H	-0.155617	0.842283	0.273892
H303	H	0.177716	1.175617	0.607225
H304	H	-0.476801	0.510419	0.147866
H305	H	-0.143468	0.843753	0.481199
H306	H	0.189866	1.177086	0.814532
H307	H	-0.530084	0.538608	0.088195
H308	H	-0.196750	0.871942	0.421529
H309	H	0.136583	1.205275	0.754862
H310	H	-0.545334	0.453271	0.028805
H311	H	-0.212001	0.786605	0.362139
H312	H	0.121332	1.119938	0.695472
H313	H	-0.492056	0.425080	0.088507
H314	H	-0.158723	0.758413	0.421840
H315	H	0.174611	1.091746	0.755174
H316	H	-0.545278	0.453391	0.148175
H317	H	-0.211945	0.786724	0.481509
H318	H	0.121388	1.120057	0.814842
H319	H	0.172252	0.486595	0.000009
H320	H	0.505586	0.819928	0.333343
H321	H	0.838919	1.153261	0.666676
C322	C	0.233589	0.088512	-0.000261
C323	C	0.566922	0.421845	0.333073
C324	C	0.900256	0.755179	0.666406
C325	C	0.236220	0.054009	-0.088317
C326	C	0.569553	0.387342	0.245016
C327	C	0.902887	0.720675	0.578350
C328	C	0.287776	0.017206	-0.088543
C329	C	0.621109	0.350540	0.244790
C330	C	0.954443	0.683873	0.578124
H331	H	0.235530	0.064991	0.059348
H332	H	0.568863	0.398324	0.392682
H333	H	0.902196	0.731658	0.726015
H334	H	0.264839	0.110477	-0.000310
H335	H	0.598172	0.443810	0.333024
H336	H	0.931506	0.777143	0.666357
H337	H	0.204978	0.032046	-0.088259
H338	H	0.538312	0.365379	0.245075
H339	H	0.871645	0.698713	0.578408
H340	H	0.234289	0.077514	-0.147940
H341	H	0.567622	0.410847	0.185393
H342	H	0.900956	0.744181	0.518726
H343	H	0.319026	0.039171	-0.088592
H344	H	0.652360	0.372504	0.244742
H345	H	0.985693	0.705838	0.578075
H346	H	0.289712	-0.006311	-0.028930
H347	H	0.623046	0.327023	0.304403
H348	H	0.956379	0.660356	0.637737
H349	H	0.289570	-0.006205	-0.148292
H350	H	0.622904	0.327129	0.185041
H351	H	0.956237	0.660462	0.518374
H352	H	-0.352065	0.526850	0.000022
H353	H	-0.018732	0.860183	0.333356
H354	H	0.314601	1.193516	0.666689
C355	C	-0.229349	0.783138	0.000142
C356	C	0.103984	1.116472	0.333476
C357	C	0.437318	1.449805	0.666809
C358	C	-0.263842	0.785781	0.088203
C359	C	0.069491	1.119114	0.421536
C360	C	0.402824	1.452448	0.754869
C361	C	-0.300640	0.837340	0.088429
C362	C	0.032693	1.170673	0.421763
C363	C	0.366026	1.504007	0.755096
H364	H	-0.252877	0.785076	-0.059464
H365	H	0.080457	1.118409	0.273869
H366	H	0.413790	1.451742	0.607203
H367	H	-0.207381	0.814386	0.000187
H368	H	0.125952	1.147720	0.333520
H369	H	0.459286	1.481053	0.666853
H370	H	-0.285808	0.754542	0.088149
H371	H	0.047525	1.087875	0.421483
H372	H	0.380858	1.421209	0.754816
H373	H	-0.240330	0.783854	0.147823
H374	H	0.093003	1.117187	0.481157
H375	H	0.426337	1.450520	0.814490
H376	H	-0.278673	0.868588	0.088473
H377	H	0.054661	1.201921	0.421807
H378	H	0.387994	1.535254	0.755140
H379	H	-0.324164	0.839273	0.028819
H380	H	0.009169	1.172606	0.362152
H381	H	0.342502	1.505939	0.695486
H382	H	-0.324045	0.839142	0.148181
H383	H	0.009288	1.172476	0.481515
H384	H	0.342622	1.505809	0.814848
C385	C	0.184918	0.368794	0.000156
C386	C	0.518251	0.702128	0.333489
C387	C	0.851585	1.035461	0.666823
C388	C	0.187540	0.334267	0.088187
C389	C	0.520873	0.667601	0.421520
C390	C	0.854207	1.000934	0.754854
C391	C	0.239068	0.297422	0.088384
C392	C	0.572401	0.630755	0.421717
C393	C	0.905735	0.964088	0.755051
H394	H	0.216197	0.390710	0.000224
H395	H	0.549531	0.724043	0.333557
H396	H	0.882864	1.057376	0.666891
H397	H	0.186808	0.345296	-0.059491
H398	H	0.520142	0.678630	0.273842
H399	H	0.853475	1.011963	0.607175
H400	H	0.185655	0.357763	0.147819
H401	H	0.518989	0.691096	0.481152
H402	H	0.852322	1.024429	0.814486
H403	H	0.156273	0.312340	0.088138
H404	H	0.489606	0.645673	0.421471
H405	H	0.822939	0.979007	0.754804
H406	H	0.240958	0.273924	0.028736
H407	H	0.574292	0.607257	0.362070
H408	H	0.907625	0.940590	0.695403
H409	H	0.270343	0.319342	0.088449
H410	H	0.603676	0.652675	0.421782
H411	H	0.937010	0.986008	0.755116
H412	H	0.240852	0.273987	0.148106
H413	H	0.574185	0.607320	0.481440
H414	H	0.907518	0.940654	0.814773
H415	H	-0.499644	0.817806	-0.000038
H416	H	-0.166311	1.151140	0.333295
H417	H	0.167022	1.484473	0.666629
H418	H	-0.072637	0.138359	-0.000090
H419	H	0.260696	0.471692	0.333244
H420	H	0.594030	0.805026	0.666577
C421	C	-0.385867	0.833346	-0.000002
C422	C	-0.052534	1.166679	0.333331
C423	C	0.280800	1.500012	0.666664
C424	C	-0.430794	0.878345	0.000024
C425	C	-0.097461	1.211678	0.333358
C426	C	0.235873	1.545011	0.666691
C427	C	-0.408301	0.930699	0.000084
C428	C	-0.074968	1.264032	0.333417
C429	C	0.258366	1.597365	0.666750
H430	H	-0.363006	0.835869	-0.059665
H431	H	-0.029673	1.169202	0.273669
H432	H	0.303661	1.502536	0.607002
H433	H	-0.363000	0.835816	0.059699
H434	H	-0.029667	1.169149	0.393033
H435	H	0.303666	1.502482	0.726366
H436	H	-0.453651	0.875876	-0.059671
H437	H	-0.120318	1.209209	0.273662
H438	H	0.213016	1.542543	0.606996
H439	H	-0.453659	0.875841	0.059682
H440	H	-0.120325	1.209174	0.393016
H441	H	0.213008	1.542507	0.726349
H442	H	-0.385434	0.933169	0.059785
H443	H	-0.052101	1.266502	0.393119
H444	H	0.281232	1.599835	0.726452
H445	H	-0.385440	0.933216	-0.059580
H446	H	-0.052107	1.266549	0.273754
H447	H	0.281226	1.599883	0.607087
H448	H	-0.438780	0.961237	0.000111
H449	H	-0.105447	1.294570	0.333445
H450	H	0.227887	1.627903	0.666778
H451	H	-0.632386	0.575496	0.000000
H452	H	-0.299053	0.908829	0.333334
H453	H	0.034281	1.242162	0.666667
C454	C	-0.105552	0.784692	-0.000039
C455	C	0.227781	1.118025	0.333294
C456	C	0.561114	1.451358	0.666628
C457	C	-0.150475	0.829695	-0.000009
C458	C	0.182859	1.163029	0.333324
C459	C	0.516192	1.496362	0.666657
C460	C	-0.127976	0.882046	0.000045
C461	C	0.205358	1.215379	0.333378
C462	C	0.538691	1.548712	0.666711
H463	H	-0.082693	0.787212	-0.059704
H464	H	0.250641	1.120545	0.273629
H465	H	0.583974	1.453878	0.606963
H466	H	-0.082683	0.787160	0.059660
H467	H	0.250650	1.120493	0.392993
H468	H	0.583984	1.453826	0.726327
H469	H	-0.173334	0.827228	-0.059702
H470	H	0.159999	1.160562	0.273631
H471	H	0.493332	1.493895	0.606964
H472	H	-0.173338	0.827194	0.059651
H473	H	0.159995	1.160528	0.392985
H474	H	0.493329	1.493861	0.726318
H475	H	-0.105106	0.884514	0.059744
H476	H	0.228227	1.217847	0.393077
H477	H	0.561560	1.551180	0.726410
H478	H	-0.105116	0.884560	-0.059621
H479	H	0.228217	1.217893	0.273712
H480	H	0.561550	1.551226	0.607045
H481	H	-0.158452	0.912587	0.000074
H482	H	0.174882	1.245920	0.333407
H483	H	0.508215	1.579253	0.666741
H484	H	-0.658055	0.763906	-0.000030
H485	H	-0.324722	1.097239	0.333303
H486	H	0.008612	1.430573	0.666636
C487	C	-0.199903	0.566601	0.000112
C488	C	0.133430	0.899934	0.333446
C489	C	0.466764	1.233267	0.666779
C490	C	-0.233585	0.563167	0.088155
C491	C	0.099748	0.896500	0.421488
C492	C	0.433081	1.229833	0.754821
C493	C	-0.256301	0.510931	0.088348
C494	C	0.077033	0.844264	0.421681
C495	C	0.410366	1.177597	0.755014
H496	H	-0.169553	0.535943	0.000162
H497	H	0.163780	0.869276	0.333496
H498	H	0.497114	1.202609	0.666829
H499	H	-0.222825	0.564159	-0.059527
H500	H	0.110509	0.897492	0.273806
H501	H	0.443842	1.230825	0.607139
H502	H	-0.210665	0.565603	0.147779
H503	H	0.122669	0.898936	0.481112
H504	H	0.456002	1.232270	0.814446
H505	H	-0.263944	0.593812	0.088123
H506	H	0.069389	0.927146	0.421457
H507	H	0.402723	1.260479	0.754790
H508	H	-0.279222	0.508489	0.028708
H509	H	0.054111	0.841822	0.362041
H510	H	0.387444	1.175155	0.695375
H511	H	-0.225947	0.480277	0.088395
H512	H	0.107386	0.813610	0.421728
H513	H	0.440720	1.146944	0.755062
H514	H	-0.279161	0.508596	0.148078
H515	H	0.054173	0.841929	0.481411
H516	H	0.387506	1.175263	0.814745
H517	H	0.220904	0.206274	-0.000037
H518	H	0.554238	0.539607	0.333296
H519	H	0.887571	0.872940	0.666630
C520	C	-0.075994	0.568000	0.000109
C521	C	0.257339	0.901334	0.333442
C522	C	0.590673	1.234667	0.666775
C523	C	-0.086171	0.536502	0.088152
C524	C	0.247162	0.869835	0.421486
C525	C	0.580496	1.203169	0.754819
C526	C	-0.049461	0.484886	0.088349
C527	C	0.283872	0.818220	0.421683
C528	C	0.617206	1.151553	0.755016
H529	H	-0.037360	0.575836	0.000160
H530	H	0.295973	0.909169	0.333493
H531	H	0.629306	1.242503	0.666826
H532	H	-0.082831	0.546511	-0.059530
H533	H	0.250502	0.879845	0.273803
H534	H	0.583835	1.213178	0.607136
H535	H	-0.079330	0.557986	0.147776
H536	H	0.254004	0.891320	0.481109
H537	H	0.587337	1.224653	0.814442
H538	H	-0.124798	0.528651	0.088120
H539	H	0.208536	0.861984	0.421453
H540	H	0.541869	1.195318	0.754787
H541	H	-0.056298	0.463398	0.028710
H542	H	0.277035	0.796731	0.362044
H543	H	0.610369	1.130064	0.695377
H544	H	-0.010829	0.492728	0.088398
H545	H	0.322504	0.826061	0.421731
H546	H	0.655837	1.159395	0.755064
H547	H	-0.056364	0.463506	0.148081
H548	H	0.276969	0.796840	0.481414
H549	H	0.610302	1.130173	0.814747
H550	H	0.165712	-0.059864	-0.000033
H551	H	0.499045	0.273470	0.333300
H552	H	0.832379	0.606803	0.666634
H553	H	-0.022699	-0.034204	-0.000085
H554	H	0.310634	0.299130	0.333248
H555	H	0.643967	0.632463	0.666581
H556	H	-0.017447	0.404515	-0.000057
H557	H	0.315887	0.737848	0.333276
H558	H	0.649220	1.071181	0.666609
C559	C	-0.085363	0.256060	0.000126
C560	C	0.247971	0.589393	0.333460
C561	C	0.581304	0.922726	0.666793
C562	C	-0.116843	0.245873	0.088179
C563	C	0.216491	0.579207	0.421512
C564	C	0.549824	0.912540	0.754846
C565	C	-0.168440	0.282611	0.088420
C566	C	0.164893	0.615944	0.421753
C567	C	0.498226	0.949277	0.755087
H568	H	-0.106884	0.249266	-0.059485
H569	H	0.226449	0.582600	0.273848
H570	H	0.559782	0.915933	0.607181
H571	H	-0.077486	0.294688	0.000191
H572	H	0.255847	0.628021	0.333524
H573	H	0.589181	0.961354	0.666857
H574	H	-0.124721	0.207254	0.088105
H575	H	0.208613	0.540588	0.421438
H576	H	0.541946	0.873921	0.754772
H577	H	-0.095338	0.252670	0.147805
H578	H	0.237995	0.586004	0.481138
H579	H	0.571328	0.919337	0.814471
H580	H	-0.160564	0.321239	0.088485
H581	H	0.172770	0.654572	0.421818
H582	H	0.506103	0.987906	0.755151
H583	H	-0.189957	0.275815	0.028805
H584	H	0.143376	0.609148	0.362138
H585	H	0.476710	0.942481	0.695471
H586	H	-0.189803	0.275708	0.148167
H587	H	0.143530	0.609041	0.481500
H588	H	0.476863	0.942375	0.814834
H589	H	-0.016150	0.512280	-0.000051
H590	H	0.317183	0.845613	0.333282
H591	H	0.650516	1.178947	0.666616
H592	H	0.164417	-0.167631	-0.000026
H593	H	0.497750	0.165702	0.333307
H594	H	0.831084	0.499035	0.666640
