data_functionalizedCrystal
_audit_creation_method	'MofGen! by Chris Wilmer'
_symmetry_space_group_name_H-M	'P1'
_symmetry_Int_Tables_number	1
_symmetry_cell_setting	triclinic
loop_
_symmetry_equiv_pos_as_xyz
  x,y,z
_cell_length_a	15.995350
_cell_length_b	26.210047
_cell_length_c	15.995350
_cell_angle_alpha	90.006733
_cell_angle_beta	96.507625
_cell_angle_gamma	90.005390
loop_
_atom_site_label
_atom_site_type_symbol
_atom_site_fract_x
_atom_site_fract_y
_atom_site_fract_z
O1	O	1.110992	0.042383	-0.107915
O2	O	1.444326	0.375717	0.225419
O3	O	1.777659	0.709050	0.558752
O4	O	0.867217	0.042393	-0.121242
O5	O	1.200550	0.375727	0.212091
O6	O	1.533884	0.709060	0.545425
O7	O	0.995769	0.042388	0.007309
O8	O	1.329102	0.375721	0.340643
O9	O	1.662435	0.709054	0.673976
O10	O	0.982441	0.042389	-0.236466
O11	O	1.315774	0.375722	0.096867
O12	O	1.649108	0.709056	0.430201
O13	O	0.995744	-0.042470	0.007289
O14	O	1.329077	0.290863	0.340623
O15	O	1.662410	0.624196	0.673956
O16	O	0.867192	-0.042465	-0.121262
O17	O	1.200526	0.290869	0.212071
O18	O	1.533859	0.624202	0.545405
O19	O	1.110968	-0.042475	-0.107935
O20	O	1.444301	0.290858	0.225399
O21	O	1.777634	0.624192	0.558732
Cu22	Cu	0.989078	-0.050218	-0.114600
Cu23	Cu	1.322411	0.283115	0.218733
Cu24	Cu	1.655744	0.616449	0.552066
Cu25	Cu	0.989107	0.050137	-0.114577
Cu26	Cu	1.322440	0.383470	0.218757
Cu27	Cu	1.655774	0.716803	0.552090
O28	O	0.982416	-0.042469	-0.236486
O29	O	1.315750	0.290864	0.096847
O30	O	1.649083	0.624198	0.430181
C31	C	0.836010	-0.000034	-0.120701
C32	C	1.169343	0.333299	0.212632
C33	C	1.502677	0.666632	0.545966
C34	C	0.743060	-0.000030	-0.119049
C35	C	1.076393	0.333303	0.214284
C36	C	1.409726	0.666636	0.547617
N37	N	0.989063	-0.120802	-0.114616
N38	N	1.322396	0.212531	0.218717
N39	N	1.655730	0.545865	0.552050
C40	C	0.405312	-0.000041	-0.113117
C41	C	0.738645	0.333292	0.220216
C42	C	1.071979	0.666626	0.553550
C43	C	0.452746	-0.000231	-0.021565
C44	C	0.786079	0.333102	0.311768
C45	C	1.119413	0.666436	0.645101
C46	C	0.549436	-0.000036	-0.023217
C47	C	0.882770	0.333297	0.310116
C48	C	1.216103	0.666631	0.643449
C49	C	0.572873	-0.000036	-0.116060
C50	C	0.906206	0.333297	0.217274
C51	C	1.239539	0.666631	0.550607
C52	C	0.531800	0.048420	-0.161205
C53	C	0.865133	0.381754	0.172129
C54	C	1.198466	0.715087	0.505462
C55	C	0.435164	0.048457	-0.158905
C56	C	0.768497	0.381791	0.174429
C57	C	1.101831	0.715124	0.507762
C58	C	0.434797	-0.048042	-0.160819
C59	C	0.768130	0.285291	0.172514
C60	C	1.101463	0.618625	0.505848
C61	C	0.531742	-0.048679	-0.160798
C62	C	0.865075	0.284654	0.172536
C63	C	1.198409	0.617988	0.505869
C64	C	0.667570	-0.000031	-0.117727
C65	C	1.000903	0.333302	0.215606
C66	C	1.334237	0.666635	0.548939
C67	C	0.310614	-0.000042	-0.111452
C68	C	0.643948	0.333291	0.221881
C69	C	0.977281	0.666625	0.555215
C70	C	1.046024	-0.473319	-0.057667
C71	C	1.379357	-0.139985	0.275667
C72	C	1.712690	0.193348	0.609000
C73	C	1.046042	-0.686977	-0.057655
C74	C	1.379376	-0.353644	0.275678
C75	C	1.712709	-0.020310	0.609011
O76	O	1.094440	-0.714601	-0.009238
O77	O	1.427773	-0.381268	0.324095
O78	O	1.761107	-0.047935	0.657428
N79	N	0.989111	-0.713696	-0.114558
N80	N	1.322445	-0.380362	0.218775
N81	N	1.655778	-0.047029	0.552109
C82	C	0.932168	-0.686997	-0.171464
C83	C	1.265502	-0.353663	0.161869
C84	C	1.598835	-0.020330	0.495202
O85	O	0.883740	-0.714625	-0.219858
O86	O	1.217073	-0.381292	0.113476
O87	O	1.550407	-0.047958	0.446809
C88	C	0.932147	-0.473339	-0.171471
C89	C	1.265480	-0.140006	0.161862
C90	C	1.598813	0.193328	0.495195
C91	C	0.989087	-0.446623	-0.114570
C92	C	1.322420	-0.113290	0.218763
C93	C	1.655753	0.220044	0.552096
C94	C	1.102959	-0.446603	-0.000770
C95	C	1.436292	-0.113269	0.332563
C96	C	1.769625	0.220064	0.665897
C97	C	1.102957	-0.393191	-0.000776
C98	C	1.436290	-0.059858	0.332557
C99	C	1.769623	0.273476	0.665890
C100	C	1.046020	-0.366496	-0.057680
C101	C	1.379353	-0.033162	0.275653
C102	C	1.712686	0.300171	0.608987
C103	C	0.989085	-0.393212	-0.114577
C104	C	1.322418	-0.059878	0.218756
C105	C	1.655751	0.273455	0.552090
C106	C	0.875200	-0.446641	-0.228373
C107	C	1.208534	-0.113307	0.104961
C108	C	1.541867	0.220026	0.438294
C109	C	0.875198	-0.393223	-0.228368
C110	C	1.208532	-0.059890	0.104965
C111	C	1.541865	0.273444	0.438299
C112	C	0.932139	-0.366507	-0.171467
C113	C	1.265472	-0.033174	0.161866
C114	C	1.598805	0.300160	0.495200
C115	C	0.932146	-0.313105	-0.171487
C116	C	1.265479	0.020229	0.161846
C117	C	1.598812	0.353562	0.495180
N118	N	0.989076	-0.286386	-0.114584
N119	N	1.322410	0.046947	0.218749
N120	N	1.655743	0.380281	0.552083
C121	C	1.046013	-0.313081	-0.057680
C122	C	1.379347	0.020252	0.275653
C123	C	1.712680	0.353585	0.608986
C124	C	0.932185	-0.799170	-0.171458
C125	C	1.265518	-0.465837	0.161876
C126	C	1.598852	-0.132503	0.495209
C127	C	0.932191	-0.852584	-0.171457
C128	C	1.265525	-0.519251	0.161876
C129	C	1.598858	-0.185917	0.495209
C130	C	1.046064	-0.852561	-0.057647
C131	C	1.379398	-0.519228	0.275687
C132	C	1.712731	-0.185894	0.609020
C133	C	1.046061	-0.799146	-0.057652
C134	C	1.379395	-0.465812	0.275681
C135	C	1.712728	-0.132479	0.609015
C136	C	0.989116	-0.772451	-0.114555
C137	C	1.322449	-0.439118	0.218778
C138	C	1.655782	-0.105785	0.552112
C139	C	1.046005	-0.200914	-0.057699
C140	C	1.379338	0.132420	0.275634
C141	C	1.712672	0.465753	0.608968
C142	C	1.046000	-0.147497	-0.057713
C143	C	1.379333	0.185836	0.275620
C144	C	1.712667	0.519169	0.608954
C145	C	0.932125	-0.147525	-0.171520
C146	C	1.265458	0.185808	0.161813
C147	C	1.598791	0.519141	0.495147
C148	C	0.932132	-0.200937	-0.171509
C149	C	1.265465	0.132397	0.161824
C150	C	1.598799	0.465730	0.495157
C151	C	0.989075	-0.227630	-0.114592
C152	C	1.322409	0.105704	0.218741
C153	C	1.655742	0.439037	0.552075
O154	O	0.883767	-0.285448	-0.219872
O155	O	1.217100	0.047886	0.113461
O156	O	1.550434	0.381219	0.446795
O157	O	1.094422	-0.285444	-0.009282
O158	O	1.427755	0.047889	0.324051
O159	O	1.761089	0.381223	0.657385
C160	C	1.046026	-0.526730	-0.057660
C161	C	1.379359	-0.193397	0.275673
C162	C	1.712693	0.139937	0.609006
C163	C	0.989091	-0.553446	-0.114557
C164	C	1.322424	-0.220113	0.218776
C165	C	1.655758	0.113221	0.552109
C166	C	0.932154	-0.526750	-0.171461
C167	C	1.265487	-0.193417	0.161873
C168	C	1.598821	0.139916	0.495206
C169	C	0.989097	-0.606860	-0.114557
C170	C	1.322431	-0.273527	0.218777
C171	C	1.655764	0.059807	0.552110
C172	C	1.046034	-0.633556	-0.057653
C173	C	1.379368	-0.300222	0.275680
C174	C	1.712701	0.033111	0.609013
C175	C	1.102965	-0.606837	-0.000750
C176	C	1.436298	-0.273504	0.332583
C177	C	1.769632	0.059830	0.665916
C178	C	1.102963	-0.553425	-0.000757
C179	C	1.436296	-0.220092	0.332577
C180	C	1.769630	0.113241	0.665910
C181	C	0.875223	-0.553469	-0.228364
C182	C	1.208557	-0.220136	0.104970
C183	C	1.541890	0.113198	0.438303
C184	C	0.875231	-0.606881	-0.228353
C185	C	1.208564	-0.273547	0.104980
C186	C	1.541897	0.059786	0.438314
C187	C	0.932168	-0.633576	-0.171450
C188	C	1.265501	-0.300243	0.161884
C189	C	1.598834	0.033091	0.495217
C190	C	1.142175	-0.000046	-0.108476
C191	C	1.475508	0.333287	0.224858
C192	C	1.808841	0.666621	0.558191
C193	C	1.235125	-0.000047	-0.110127
C194	C	1.568458	0.333287	0.223206
C195	C	1.901792	0.666620	0.556539
C196	C	0.995205	-0.000040	0.038494
C197	C	1.328538	0.333293	0.371827
C198	C	1.661872	0.666626	0.705161
C199	C	0.993553	-0.000038	0.131444
C200	C	1.326887	0.333296	0.464778
C201	C	1.660220	0.666629	0.798111
N202	N	0.989128	0.120720	-0.114554
N203	N	1.322462	0.454054	0.218780
N204	N	1.655795	0.787387	0.552113
C205	C	0.982980	-0.000040	-0.267671
C206	C	1.316313	0.333293	0.065663
C207	C	1.649646	0.666627	0.398996
C208	C	0.984631	-0.000039	-0.360621
C209	C	1.317965	0.333294	-0.027288
C210	C	1.651298	0.666627	0.306046
C211	C	0.987621	-0.000039	0.469192
C212	C	1.320954	0.333294	0.802525
C213	C	1.654288	0.666628	1.135859
C214	C	0.896069	0.000155	0.421758
C215	C	1.229403	0.333488	0.755091
C216	C	1.562736	0.666822	1.088425
C217	C	0.897721	-0.000036	0.325068
C218	C	1.231055	0.333297	0.658401
C219	C	1.564388	0.666630	0.991734
C220	C	0.990564	-0.000038	0.301631
C221	C	1.323897	0.333295	0.634965
C222	C	1.657230	0.666629	0.968298
C223	C	1.035706	-0.048497	0.342697
C224	C	1.369039	0.284836	0.676031
C225	C	1.702373	0.618170	1.009364
C226	C	1.033406	-0.048538	0.439333
C227	C	1.366740	0.284796	0.772666
C228	C	1.700073	0.618129	1.106000
C229	C	1.035326	0.047962	0.439714
C230	C	1.368659	0.381295	0.773047
C231	C	1.701992	0.714629	1.106381
C232	C	1.035304	0.048602	0.342769
C233	C	1.368637	0.381936	0.676102
C234	C	1.701971	0.715269	1.009436
C235	C	0.992231	-0.000039	0.206934
C236	C	1.325565	0.333294	0.540267
C237	C	1.658898	0.666628	0.873601
C238	C	0.985956	-0.000041	0.563890
C239	C	1.319289	0.333292	0.897223
C240	C	1.652623	0.666625	1.230556
H241	H	0.577855	-0.034772	0.012270
H242	H	0.911188	0.298562	0.345603
H243	H	1.244522	0.631895	0.678937
H244	H	0.859629	-0.034399	0.441344
H245	H	1.192962	0.298934	0.774677
H246	H	1.526296	0.632267	1.108010
H247	H	1.149320	-0.371442	0.045559
H248	H	1.482653	-0.038109	0.378893
H249	H	1.815986	0.295225	0.712226
H250	H	1.149329	-0.628581	0.045580
H251	H	1.482662	-0.295248	0.378914
H252	H	1.815995	0.038086	0.712247
H253	H	0.859487	0.034906	0.440298
H254	H	1.192820	0.368240	0.773631
H255	H	1.526154	0.701573	1.106965
H256	H	0.559048	-0.084527	-0.127842
H257	H	0.892381	0.248806	0.205491
H258	H	1.225715	0.582140	0.538825
H259	H	0.828865	-0.628629	-0.274696
H260	H	1.162198	-0.295296	0.058637
H261	H	1.495531	0.038038	0.391971
H262	H	0.828857	-0.531738	-0.274700
H263	H	1.162191	-0.198404	0.058633
H264	H	1.495524	0.134929	0.391966
H265	H	0.861976	-0.034830	0.297195
H266	H	1.195310	0.298503	0.630528
H267	H	1.528643	0.631837	0.963861
H268	H	0.862235	0.034701	0.296654
H269	H	1.195569	0.368035	0.629987
H270	H	1.528902	0.701368	0.963320
H271	H	1.092371	-0.125747	-0.011377
H272	H	1.425704	0.207586	0.321956
H273	H	1.759037	0.540920	0.655289
H274	H	0.414251	-0.084771	-0.130897
H275	H	0.747584	0.248562	0.202436
H276	H	1.080917	0.581896	0.535769
H277	H	1.149324	-0.468333	0.045572
H278	H	1.482657	-0.135000	0.378905
H279	H	1.815990	0.198333	0.712238
H280	H	0.885769	-0.125781	-0.217853
H281	H	1.219103	0.207552	0.115481
H282	H	1.552436	0.540885	0.448814
H283	H	0.433162	0.034327	0.014870
H284	H	0.766496	0.367660	0.348203
H285	H	1.099829	0.700994	0.681537
H286	H	0.434214	-0.034981	0.015022
H287	H	0.767547	0.298353	0.348356
H288	H	1.100880	0.631686	0.681689
H289	H	1.002299	0.084451	0.315529
H290	H	1.335633	0.417784	0.648862
H291	H	1.668966	0.751118	0.982195
H292	H	1.103009	0.051527	0.327408
H293	H	1.436343	0.384860	0.660741
H294	H	1.769676	0.718193	0.994074
H295	H	1.000467	-0.084760	0.457626
H296	H	1.333801	0.248573	0.790959
H297	H	1.667134	0.581907	1.124293
H298	H	0.403035	-0.048370	-0.228320
H299	H	0.736369	0.284964	0.105014
H300	H	1.069702	0.618297	0.438347
H301	H	1.100622	-0.050737	0.471581
H302	H	1.433955	0.282596	0.804914
H303	H	1.767288	0.615929	1.138247
H304	H	0.828824	-0.371491	-0.274704
H305	H	1.162157	-0.038157	0.058629
H306	H	1.495490	0.295176	0.391962
H307	H	1.092426	-0.777397	-0.011318
H308	H	1.425760	-0.444063	0.322015
H309	H	1.759093	-0.110730	0.655349
H310	H	0.416866	0.084680	-0.125966
H311	H	0.750199	0.418013	0.207367
H312	H	1.083533	0.751346	0.540701
H313	H	1.103914	-0.050301	0.328571
H314	H	1.437248	0.283033	0.661905
H315	H	1.770581	0.616366	0.995238
H316	H	1.149329	-0.531677	0.045577
H317	H	1.482662	-0.198344	0.378911
H318	H	1.815995	0.134989	0.712244
H319	H	1.092426	-0.874305	-0.011315
H320	H	1.425759	-0.540972	0.322019
H321	H	1.759093	-0.207639	0.655352
H322	H	0.577304	0.034760	0.012526
H323	H	0.910638	0.368093	0.345860
H324	H	1.243971	0.701426	0.679193
H325	H	1.102827	0.048286	0.471475
H326	H	1.436160	0.381620	0.804808
H327	H	1.769493	0.714953	1.138142
H328	H	1.004332	-0.084557	0.314307
H329	H	1.337665	0.248776	0.647641
H330	H	1.670999	0.582109	0.980974
H331	H	1.005404	0.084691	0.460262
H332	H	1.338737	0.418024	0.793596
H333	H	1.672070	0.751357	1.126929
H334	H	0.545925	0.050222	-0.229413
H335	H	0.879258	0.383556	0.103920
H336	H	1.212592	0.716889	0.437254
H337	H	0.560185	0.084483	-0.129832
H338	H	0.893518	0.417816	0.203501
H339	H	1.226851	0.751149	0.536834
H340	H	0.402916	0.050656	-0.226120
H341	H	0.736249	0.383990	0.107213
H342	H	1.069583	0.717323	0.440547
H343	H	0.547106	-0.051606	-0.228502
H344	H	0.880440	0.281727	0.104832
H345	H	1.213773	0.615061	0.438165
H346	H	0.885774	-0.222689	-0.217851
H347	H	1.219108	0.110644	0.115482
H348	H	1.552441	0.443977	0.448815
H349	H	0.885834	-0.874332	-0.217800
H350	H	1.219167	-0.540999	0.115533
H351	H	1.552501	-0.207666	0.448867
H352	H	1.092373	-0.222641	-0.011351
H353	H	1.425706	0.110692	0.321983
H354	H	1.759039	0.444026	0.655316
H355	H	0.885812	-0.777439	-0.217797
H356	H	1.219145	-0.444105	0.115536
H357	H	1.552478	-0.110772	0.448870
H358	H	0.828834	-0.468385	-0.274706
H359	H	1.162167	-0.135052	0.058627
H360	H	1.495501	0.198281	0.391961
