data_functionalizedCrystal
_audit_creation_method	'MofGen! by Chris Wilmer'
_symmetry_space_group_name_H-M	'P1'
_symmetry_Int_Tables_number	1
_symmetry_cell_setting	triclinic
loop_
_symmetry_equiv_pos_as_xyz
  x,y,z
_cell_length_a	23.532407
_cell_length_b	14.044190
_cell_length_c	13.101039
_cell_angle_alpha	93.663707
_cell_angle_beta	86.668910
_cell_angle_gamma	88.020228
loop_
_atom_site_label
_atom_site_type_symbol
_atom_site_fract_x
_atom_site_fract_y
_atom_site_fract_z
O1	O	0.764357	0.109758	-0.085096
O2	O	1.264357	0.609758	0.414904
O3	O	0.599397	0.126397	-0.085128
O4	O	1.099397	0.626397	0.414872
O5	O	0.679398	-0.019883	-0.085092
O6	O	1.179398	0.480117	0.414908
O7	O	0.684355	0.256038	-0.085131
O8	O	1.184355	0.756038	0.414869
O9	O	0.673659	-0.009370	0.085335
O10	O	1.173659	0.490630	0.585335
O11	O	0.593657	0.136910	0.085300
O12	O	1.093657	0.636910	0.585300
O13	O	0.758617	0.120271	0.085331
O14	O	1.258617	0.620271	0.585331
Zn15	Zn	0.675226	0.130260	0.112375
Zn16	Zn	1.175226	0.630260	0.612375
Zn17	Zn	0.682788	0.116409	-0.112171
Zn18	Zn	1.182788	0.616409	0.387829
O19	O	0.678616	0.266551	0.085296
O20	O	1.178616	0.766551	0.585296
C21	C	0.575288	0.131230	0.000082
C22	C	1.075288	0.631230	0.500082
C23	C	0.512002	0.129955	0.000071
C24	C	1.012002	0.629955	0.500071
C25	C	0.674360	-0.049920	0.000124
C26	C	1.174360	0.450080	0.500124
C27	C	0.667892	-0.155085	0.000132
C28	C	1.167892	0.344915	0.500132
C29	C	0.701938	-0.405694	0.000098
C30	C	1.201938	0.094306	0.500098
C31	C	0.656078	-0.347633	0.000097
C32	C	1.156078	0.152367	0.500097
C33	C	0.662653	-0.240489	0.000116
C34	C	1.162653	0.259511	0.500116
C35	C	0.695365	-0.512847	0.000079
C36	C	1.195365	-0.012847	0.500079
C37	C	0.117158	0.208532	0.000106
C38	C	0.617158	0.708532	0.500106
C39	C	0.057694	0.207349	0.000113
C40	C	0.557694	0.707349	0.500113
O41	O	0.024897	0.280191	0.000140
O42	O	0.524897	0.780191	0.500140
N43	N	0.030352	0.120385	0.000123
N44	N	0.530352	0.620385	0.500123
C45	C	0.062478	0.034600	0.000138
C46	C	0.562478	0.534600	0.500138
O47	O	0.033762	-0.039478	0.000149
O48	O	0.533762	0.460522	0.500149
C49	C	0.121941	0.035784	0.000139
C50	C	0.621941	0.535784	0.500139
C51	C	0.149280	0.122753	0.000118
C52	C	0.649280	0.622753	0.500118
C53	C	0.144497	0.295494	0.000086
C54	C	0.644497	0.795494	0.500086
C55	C	0.203957	0.296677	0.000078
C56	C	0.703957	0.796677	0.500078
C57	C	0.236079	0.210898	0.000090
C58	C	0.736079	0.710898	0.500090
C59	C	0.208741	0.123936	0.000110
C60	C	0.708741	0.623936	0.500110
C61	C	0.154066	-0.050000	0.000161
C62	C	0.654066	0.450000	0.500161
C63	C	0.213533	-0.048808	0.000163
C64	C	0.713533	0.451192	0.500163
C65	C	0.240872	0.038161	0.000142
C66	C	0.740872	0.538161	0.500142
C67	C	0.300323	0.039339	0.000113
C68	C	0.800323	0.539339	0.500113
N69	N	0.327664	0.126303	0.000102
N70	N	0.827664	0.626303	0.500102
C71	C	0.295543	0.212082	0.000091
C72	C	0.795543	0.712082	0.500091
C73	C	-0.062399	0.032119	0.000138
C74	C	0.437601	0.532119	0.500138
C75	C	-0.121861	0.030933	0.000130
C76	C	0.378139	0.530933	0.500130
C77	C	-0.126641	0.203683	0.000106
C78	C	0.373359	0.703683	0.500106
C79	C	-0.067178	0.204867	0.000107
C80	C	0.432822	0.704867	0.500107
C81	C	-0.035057	0.119083	0.000127
C82	C	0.464943	0.619083	0.500127
C83	C	0.420414	0.214559	0.000072
C84	C	0.920414	0.714559	0.500072
C85	C	0.479880	0.215734	0.000060
C86	C	0.979880	0.715734	0.500060
C87	C	0.484656	0.042985	0.000088
C88	C	0.984656	0.542985	0.500088
C89	C	0.425195	0.041809	0.000096
C90	C	0.925195	0.541809	0.500096
C91	C	0.393075	0.127604	0.000091
C92	C	0.893075	0.627604	0.500091
O93	O	0.333156	-0.033464	0.000090
O94	O	0.833156	0.466536	0.500090
O95	O	0.324266	0.286149	0.000093
O96	O	0.824266	0.786149	0.500093
C97	C	0.782726	0.115438	0.000119
C98	C	1.282726	0.615438	0.500119
C99	C	0.846012	0.116713	0.000124
C100	C	1.346012	0.616713	0.500124
C101	C	0.683654	0.296588	0.000077
C102	C	1.183654	0.796588	0.500077
C103	C	0.690122	0.401752	0.000063
C104	C	1.190122	0.901752	0.500063
N105	N	0.670070	0.139712	0.265621
N106	N	1.170070	0.639712	0.765621
N107	N	0.687948	0.106949	-0.265417
N108	N	1.187948	0.606949	0.234583
C109	C	0.663055	0.152581	0.474660
C110	C	1.163055	0.652581	0.974660
C111	C	0.694962	0.094083	0.525550
C112	C	1.194962	0.594083	1.025550
C113	C	0.691058	0.101244	0.641867
C114	C	1.191058	0.601244	1.141867
C115	C	0.666957	0.145421	0.358333
C116	C	1.166957	0.645421	0.858333
H117	H	0.611879	-0.378393	0.000082
H118	H	1.111879	0.121607	0.500082
F119	F	0.623522	0.225067	0.531890
F120	F	1.123522	0.725067	1.031890
H121	H	0.510820	-0.026854	0.000094
H122	H	1.010820	0.473146	0.500094
H123	H	-0.044923	0.275685	0.000096
H124	H	0.455077	0.775685	0.500096
H125	H	0.502137	0.286558	0.000042
H126	H	1.002137	0.786558	0.500042
F127	F	0.759707	-0.365490	0.000122
F128	F	1.259707	0.134510	0.500122
F129	F	0.386238	0.305872	0.000068
F130	F	0.886238	0.805872	0.500068
F131	F	-0.150949	-0.061633	0.000129
F132	F	0.349051	0.438367	0.500129
H133	H	0.226211	0.367496	0.000060
H134	H	0.726211	0.867496	0.500060
H135	H	0.725210	0.038625	0.481761
H136	H	1.225210	0.538625	0.981761
F137	F	0.110319	0.386801	0.000074
F138	F	0.610319	0.886801	0.500074
H139	H	-0.152806	0.273529	0.000102
H140	H	0.347194	0.773529	0.500102
H141	H	-0.036249	-0.037743	0.000145
H142	H	0.463751	0.462257	0.500145
F143	F	0.124984	-0.142566	0.000169
F144	F	0.624984	0.357434	0.500169
H145	H	0.239683	-0.118666	0.000180
H146	H	0.739683	0.381334	0.500180
F147	F	0.396098	-0.050752	0.000119
F148	F	0.896098	0.449248	0.500119
