data_functionalizedCrystal
_audit_creation_method	'MofGen! by Chris Wilmer'
_symmetry_space_group_name_H-M	'P1'
_symmetry_Int_Tables_number	1
_symmetry_cell_setting	triclinic
loop_
_symmetry_equiv_pos_as_xyz
  x,y,z
_cell_length_a	19.805406
_cell_length_b	13.032951
_cell_length_c	19.805399
_cell_angle_alpha	97.191120
_cell_angle_beta	89.985648
_cell_angle_gamma	97.196438
loop_
_atom_site_label
_atom_site_type_symbol
_atom_site_fract_x
_atom_site_fract_y
_atom_site_fract_z
Zn1	Zn	-0.401165	-1.597866	-0.514019
Zn2	Zn	-0.514349	-1.597815	-0.400852
Zn3	Zn	-0.386781	-1.423103	-0.386490
Zn4	Zn	-0.499917	-1.423127	-0.499652
O5	O	-0.450553	-1.510478	-0.450253
O6	O	-0.428239	-1.744105	-0.511030
O7	O	-0.497448	-1.574608	-0.304228
O8	O	-0.293974	-1.446297	-0.403408
O9	O	-0.511395	-1.744068	-0.427888
O10	O	-0.304542	-1.574694	-0.497103
O11	O	-0.403724	-1.446247	-0.293676
O12	O	-0.389729	-1.276860	-0.389477
O13	O	-0.486797	-1.446338	-0.596277
O14	O	-0.472849	-1.276878	-0.472617
O15	O	-0.414245	-1.574718	-0.606832
O16	O	-0.607151	-1.574631	-0.413957
O17	O	-0.596547	-1.446289	-0.486544
C18	C	-0.428162	-1.238949	-0.427930
C19	C	-0.418600	-1.122788	-0.418396
C20	C	-0.626410	-1.510485	-0.450267
C21	C	-0.701650	-1.510584	-0.450303
C22	C	-0.455529	-1.071036	-0.455220
C23	C	-0.445646	-0.950977	-0.445367
C24	C	-0.274012	-1.510498	-0.450256
C25	C	-0.198781	-1.510507	-0.450258
C26	C	-0.157934	-1.443666	-0.401478
C27	C	-0.087246	-1.443672	-0.401486
C28	C	-0.057407	-1.510526	-0.450271
C29	C	-0.098259	-1.577371	-0.499056
C30	C	-0.168945	-1.577358	-0.499050
C31	C	0.186810	-1.577422	-0.499080
C32	C	0.257502	-1.577432	-0.499080
C33	C	0.268509	-1.443736	-0.401516
C34	C	0.197823	-1.443724	-0.401510
C35	C	0.156977	-1.510564	-0.450297
C36	C	0.080330	-1.510554	-0.450288
C37	C	0.019239	-1.510542	-0.450277
C38	C	-0.450515	-1.510536	-0.626801
C39	C	-0.450499	-1.510561	-0.702035
C40	C	-0.473024	-0.783067	-0.472659
C41	C	-0.482581	-0.899228	-0.482196
C42	C	-0.412719	-1.577410	-0.742876
C43	C	-0.412701	-1.577421	-0.813566
C44	C	-0.450466	-1.510587	-0.843412
C45	C	-0.488247	-1.443731	-0.802565
C46	C	-0.488262	-1.443716	-0.731877
C47	C	-0.488189	-1.443790	-1.087644
C48	C	-0.488173	-1.443813	-1.158338
C49	C	-0.412628	-1.577495	-1.169332
C50	C	-0.412642	-1.577480	-1.098644
C51	C	-0.450420	-1.510620	-1.057803
C52	C	-0.450439	-1.510608	-0.981153
C53	C	-0.450451	-1.510604	-0.920061
C54	C	-0.450547	-1.510479	-0.274397
C55	C	-0.450389	-1.510657	-0.199180
H56	H	-0.406708	-0.906405	-0.406546
H57	H	-0.519019	-1.389270	-0.698623
H58	H	-0.518962	-1.389364	-1.054400
H59	H	-0.494459	-1.115612	-0.494043
O60	O	-0.529021	-0.952552	-0.528465
C61	C	-0.581160	-1.120834	-0.580524
C62	C	-0.528558	-1.060575	-0.528090
H63	H	-0.580793	-1.208181	-0.580248
H64	H	-0.633996	-1.099520	-0.566817
H65	H	-0.567599	-1.099400	-0.633364
H66	H	-0.542055	-1.081977	-0.475231
H67	H	-0.475737	-1.081895	-0.541855
H68	H	-0.381938	-1.631858	-0.846816
O69	O	-0.187030	-1.378819	-0.354118
C70	C	-0.291039	-1.319491	-0.310894
C71	C	-0.258182	-1.393005	-0.364557
H72	H	-0.348568	-1.330919	-0.319324
H73	H	-0.278713	-1.337826	-0.257809
H74	H	-0.270146	-1.235241	-0.315850
H75	H	-0.279055	-1.477280	-0.359664
H76	H	-0.270503	-1.374581	-0.417620
H77	H	-0.202201	-1.631779	-0.538776
H78	H	-0.379665	-1.078211	-0.379578
H79	H	-0.053989	-1.389244	-0.361767
O80	O	0.168951	-1.378683	-0.354091
C81	C	0.187328	-1.246109	-0.257296
C82	C	0.220114	-1.319702	-0.310967
H83	H	0.228676	-1.198419	-0.222407
H84	H	0.158772	-1.191399	-0.283840
H85	H	0.150250	-1.294088	-0.225876
H86	H	0.257221	-1.271807	-0.342403
H87	H	0.248627	-1.374414	-0.284380
H88	H	-0.518994	-1.389310	-0.826872
O89	O	-0.376091	-1.642296	-0.713778
C90	C	-0.342588	-1.701468	-0.609751
C91	C	-0.384117	-1.627954	-0.642615
H92	H	-0.349050	-1.689882	-0.552210
H93	H	-0.361418	-1.785765	-0.630532
H94	H	-0.286504	-1.683128	-0.622186
H95	H	-0.440208	-1.646199	-0.630193
H96	H	-0.365230	-1.543679	-0.621833
H97	H	-0.381892	-1.631906	-1.074347
O98	O	0.308290	-1.378831	-0.354194
C99	C	0.422060	-1.319631	-0.310932
C100	C	0.377093	-1.393165	-0.364571
H101	H	0.477695	-1.331210	-0.319295
H102	H	0.415165	-1.235340	-0.315886
H103	H	0.406599	-1.337956	-0.257869
H104	H	0.392526	-1.374933	-0.417658
H105	H	0.383994	-1.477434	-0.359558
H106	H	-0.073959	-1.631801	-0.538781
H107	H	-0.381864	-1.631932	-1.202594
H108	H	0.281795	-1.631874	-0.538810
H109	H	0.153561	-1.631859	-0.538798
H110	H	-0.518928	-1.389384	-1.182636
