data_functionalizedCrystal
_audit_creation_method	'MofGen! by Chris Wilmer'
_symmetry_space_group_name_H-M	'P1'
_symmetry_Int_Tables_number	1
_symmetry_cell_setting	triclinic
loop_
_symmetry_equiv_pos_as_xyz
  x,y,z
_cell_length_a	21.295417
_cell_length_b	18.215407
_cell_length_c	18.215399
_cell_angle_alpha	89.983176
_cell_angle_beta	89.965438
_cell_angle_gamma	90.030955
loop_
_atom_site_label
_atom_site_type_symbol
_atom_site_fract_x
_atom_site_fract_y
_atom_site_fract_z
Zn1	Zn	-0.250593	1.125021	-0.416094
Zn2	Zn	0.249407	1.625021	0.083906
Zn3	Zn	-0.355869	1.124924	-0.293019
Zn4	Zn	0.144131	1.624924	0.206981
Zn5	Zn	-0.250618	1.001960	-0.293042
Zn6	Zn	0.249382	1.501960	0.206958
Zn7	Zn	-0.355829	1.001908	-0.416044
Zn8	Zn	0.144171	1.501908	0.083956
O9	O	-0.303227	1.063453	-0.354550
O10	O	0.196773	1.563453	0.145450
O11	O	-0.264564	1.227993	-0.399780
O12	O	0.235436	1.727993	0.100220
O13	O	-0.341934	1.108594	-0.190038
O14	O	0.158066	1.608594	0.309962
O15	O	-0.162525	1.018347	-0.309396
O16	O	0.337475	1.518347	0.190604
O17	O	-0.341910	1.227921	-0.309357
O18	O	0.158090	1.727921	0.190643
O19	O	-0.162507	1.108760	-0.399802
O20	O	0.337493	1.608760	0.100198
O21	O	-0.264607	1.018253	-0.190054
O22	O	0.235393	1.518253	0.309946
O23	O	-0.264569	0.898969	-0.309347
O24	O	0.235431	1.398969	0.190653
O25	O	-0.341843	1.018258	-0.519035
O26	O	0.158157	1.518258	-0.019035
O27	O	-0.341867	0.898930	-0.399716
O28	O	0.158133	1.398930	0.100284
O29	O	-0.264526	1.108709	-0.519072
O30	O	0.235474	1.608709	-0.019072
O31	O	-0.443953	1.108543	-0.309308
O32	O	0.056047	1.608543	0.190692
O33	O	-0.443924	1.018163	-0.399694
O34	O	0.056076	1.518163	0.100306
C35	C	-0.303217	0.872247	-0.354529
C36	C	0.196783	1.372247	0.145471
C37	C	-0.303227	0.790448	-0.354537
C38	C	0.196773	1.290448	0.145463
C39	C	-0.466779	1.063357	-0.354509
C40	C	0.033221	1.563357	0.145491
C41	C	-0.536747	1.063383	-0.354516
C42	C	-0.036747	1.563383	0.145484
C43	C	-0.343540	0.602253	-0.401533
C44	C	0.156460	1.102253	0.098467
C45	C	-0.343542	0.525395	-0.401542
C46	C	0.156458	1.025395	0.098458
C47	C	-0.262927	0.525405	-0.307582
C48	C	0.237073	1.025405	0.192418
C49	C	-0.262922	0.602263	-0.307577
C50	C	0.237078	1.102263	0.192423
C51	C	-0.303232	0.640685	-0.354552
C52	C	0.196768	1.140685	0.145448
C53	C	-0.303239	0.486969	-0.354566
C54	C	0.196761	0.986969	0.145434
C55	C	-0.303240	0.403635	-0.354575
C56	C	0.196760	0.903635	0.145425
C57	C	-0.303229	0.724024	-0.354543
C58	C	0.196771	1.224024	0.145457
C59	C	-0.569608	1.110485	-0.307500
C60	C	-0.069608	1.610485	0.192500
C61	C	-0.635350	1.110520	-0.307517
C62	C	-0.135350	1.610520	0.192483
C63	C	-0.668230	1.063439	-0.354542
C64	C	-0.168230	1.563439	0.145458
C65	C	-0.635361	1.016333	-0.401566
C66	C	-0.135361	1.516333	0.098434
C67	C	-0.569620	1.016305	-0.401554
C68	C	-0.069620	1.516305	0.098446
N69	N	-0.771496	0.999060	-0.360145
N70	N	-0.271496	1.499060	0.139855
N71	N	-0.833947	0.999088	-0.360153
N72	N	-0.333947	1.499088	0.139847
C73	C	-0.866304	1.063521	-0.354584
C74	C	-0.366304	1.563521	0.145416
N75	N	-0.833851	1.127926	-0.348993
N76	N	-0.333851	1.627926	0.151007
N77	N	-0.771394	1.127896	-0.348981
N78	N	-0.271394	1.627896	0.151019
C79	C	-0.739515	1.063464	-0.354561
C80	C	-0.239515	1.563464	0.145439
C81	C	-0.970451	1.110665	-0.307584
C82	C	-0.470451	1.610665	0.192416
C83	C	-1.036194	1.110701	-0.307605
C84	C	-0.536194	1.610701	0.192395
C85	C	-1.036203	1.016507	-0.401651
C86	C	-0.536203	1.516507	0.098349
C87	C	-0.970461	1.016478	-0.401633
C88	C	-0.470461	1.516478	0.098367
C89	C	-0.937589	1.063556	-0.354595
C90	C	-0.437589	1.563556	0.145405
C91	C	-0.139037	1.063570	-0.354607
C92	C	0.360963	1.563570	0.145393
C93	C	-0.069069	1.063620	-0.354631
C94	C	0.430931	1.563620	0.145369
C95	C	-0.303177	1.063488	-0.546503
C96	C	0.196823	1.563488	-0.046503
C97	C	-0.303156	1.063503	-0.628302
C98	C	0.196844	1.563503	-0.128302
C99	C	-0.303239	1.255406	-0.354571
C100	C	0.196761	1.755406	0.145429
C101	C	-0.303243	1.337205	-0.354581
C102	C	0.196757	1.837205	0.145419
C103	C	-0.262864	1.016502	-0.816505
C104	C	0.237136	1.516502	-0.316505
C105	C	-0.262852	1.016515	-0.893364
C106	C	0.237148	1.516515	-0.393364
C107	C	-0.343372	1.110592	-0.893336
C108	C	0.156628	1.610592	-0.393336
C109	C	-0.343387	1.110575	-0.816479
C110	C	0.156613	1.610575	-0.316479
C111	C	-0.303130	1.063531	-0.778065
C112	C	0.196870	1.563531	-0.278065
C113	C	-0.303102	1.063561	-0.931781
C114	C	0.196898	1.563561	-0.431781
C115	C	-0.303088	1.063575	-1.015115
C116	C	0.196912	1.563575	-0.515115
C117	C	-0.303144	1.063516	-0.694726
C118	C	0.196856	1.563516	-0.194726
C119	C	-0.303232	1.063461	-0.163344
C120	C	0.196768	1.563461	0.336656
C121	C	-0.303076	1.063589	-0.081545
C122	C	0.196924	1.563589	0.418455
H123	H	-0.376361	0.633534	-0.439785
H124	H	0.123639	1.133534	0.060215
C125	C	-0.423230	0.533109	-0.494408
C126	C	0.076770	1.033109	0.005592
C127	C	-0.387852	0.483151	-0.453183
C128	C	0.112148	0.983151	0.046817
H129	H	-0.450589	0.507028	-0.526287
H130	H	0.049411	1.007028	-0.026287
H131	H	-0.395833	0.563111	-0.522614
H132	H	0.104167	1.063111	-0.022614
H133	H	-0.447272	0.563062	-0.462281
H134	H	0.052728	1.063062	0.037719
H135	H	-0.363807	0.453202	-0.485311
H136	H	0.136193	0.953202	0.014689
H137	H	-0.415253	0.453137	-0.424975
H138	H	0.084747	0.953137	0.075025
H139	H	-0.230108	0.494113	-0.269336
H140	H	0.269892	0.994113	0.230664
C141	C	-0.254089	0.917537	-0.979777
C142	C	0.245911	1.417537	-0.479777
C143	C	-0.218592	0.964815	-0.935614
C144	C	0.281408	1.464815	-0.435614
H145	H	-0.226764	0.885614	-1.005855
H146	H	0.273236	1.385614	-0.505855
H147	H	-0.278051	0.945555	-1.013656
H148	H	0.221949	1.445555	-0.513656
H149	H	-0.281520	0.889371	-0.949768
H150	H	0.218480	1.389371	-0.449768
H151	H	-0.191164	0.992985	-0.965623
H152	H	0.308836	1.492985	-0.465623
H153	H	-0.194619	0.936793	-0.901731
H154	H	0.305381	1.436793	-0.401731
H155	H	-0.230095	0.633554	-0.269319
H156	H	0.269905	1.133554	0.230681
H157	H	-0.542845	1.148821	-0.269202
H158	H	-0.042845	1.648821	0.230798
H159	H	-0.662111	1.148879	-0.269231
H160	H	-0.162111	1.648879	0.230769
H161	H	-0.662135	0.978001	-0.439855
H162	H	-0.162135	1.478001	0.060145
C163	C	-0.379098	1.152394	-1.011141
C164	C	0.120902	1.652394	-0.511141
C165	C	-0.387617	1.162306	-0.935563
C166	C	0.112383	1.662306	-0.435563
H167	H	-0.406411	1.184326	-1.037208
H168	H	0.093589	1.684326	-0.537208
H169	H	-0.388309	1.102950	-1.023726
H170	H	0.111691	1.602950	-0.523726
H171	H	-0.336799	1.163197	-1.023747
H172	H	0.163201	1.663197	-0.523747
H173	H	-0.429915	1.151498	-0.922956
H174	H	0.070085	1.651498	-0.422956
H175	H	-0.378411	1.211761	-0.922973
H176	H	0.121589	1.711761	-0.422973
H177	H	-0.542864	0.977948	-0.439840
H178	H	-0.042864	1.477948	0.060160
H179	H	-0.943685	1.149001	-0.269285
H180	H	-0.443685	1.649001	0.230715
C181	C	-1.029578	1.203789	-0.214632
C182	C	-0.529578	1.703789	0.285368
C183	C	-1.072318	1.162479	-0.255920
C184	C	-0.572318	1.662479	0.244080
H185	H	-1.051881	1.235751	-0.182720
H186	H	-0.551881	1.735751	0.317280
H187	H	-1.003893	1.231910	-0.246712
H188	H	-0.503893	1.731910	0.253288
H189	H	-1.003980	1.171719	-0.186451
H190	H	-0.503980	1.671719	0.313549
H191	H	-1.097913	1.194549	-0.284105
H192	H	-0.597913	1.694549	0.215895
H193	H	-1.098013	1.134357	-0.223835
H194	H	-0.598013	1.634357	0.276165
C195	C	-0.178201	1.006309	-0.730113
C196	C	0.321799	1.506309	-0.230113
C197	C	-0.218618	0.964787	-0.774282
C198	C	0.281382	1.464787	-0.274282
H199	H	-0.150883	0.974378	-0.704053
H200	H	0.349117	1.474378	-0.204053
H201	H	-0.202182	1.034307	-0.696220
H202	H	0.297818	1.534307	-0.196220
H203	H	-0.154118	1.038392	-0.760117
H204	H	0.345882	1.538392	-0.260117
H205	H	-0.242704	0.932706	-0.744278
H206	H	0.257296	1.432706	-0.244278
H207	H	-0.194635	0.936775	-0.808180
H208	H	0.305365	1.436775	-0.308180
H209	H	-0.376179	1.148873	-0.785180
H210	H	0.123821	1.648873	-0.285180
H211	H	-1.062973	0.978176	-0.439942
H212	H	-0.562973	1.478176	0.060058
C213	C	-0.977076	0.923369	-0.494582
C214	C	-0.477076	1.423369	0.005418
C215	C	-0.934336	0.964691	-0.453305
C216	C	-0.434336	1.464691	0.046695
H217	H	-0.954772	0.891394	-0.526480
H218	H	-0.454772	1.391394	-0.026480
H219	H	-1.002670	0.955425	-0.522769
H220	H	-0.502670	1.455425	-0.022769
H221	H	-1.002763	0.895255	-0.462488
H222	H	-0.502763	1.395255	0.037512
H223	H	-0.908652	0.992810	-0.485399
H224	H	-0.408652	1.492810	0.014601
H225	H	-0.908730	0.932631	-0.425116
H226	H	-0.408730	1.432631	0.074884
