data_functionalizedCrystal
_audit_creation_method	'MofGen! by Chris Wilmer'
_symmetry_space_group_name_H-M	'P1'
_symmetry_Int_Tables_number	1
_symmetry_cell_setting	triclinic
loop_
_symmetry_equiv_pos_as_xyz
  x,y,z
_cell_length_a	19.805407
_cell_length_b	12.759394
_cell_length_c	19.805399
_cell_angle_alpha	89.976033
_cell_angle_beta	89.979591
_cell_angle_gamma	90.016777
loop_
_atom_site_label
_atom_site_type_symbol
_atom_site_fract_x
_atom_site_fract_y
_atom_site_fract_z
Zn1	Zn	1.034790	-0.418236	-0.382752
Zn2	Zn	1.534790	0.081764	0.117248
Zn3	Zn	1.034728	-0.593930	-0.269571
Zn4	Zn	1.534728	-0.093930	0.230429
Zn5	Zn	0.921605	-0.418271	-0.269575
Zn6	Zn	1.421605	0.081729	0.230425
Zn7	Zn	0.921591	-0.593880	-0.382716
Zn8	Zn	1.421591	-0.093880	0.117284
O9	O	0.978178	-0.506079	-0.326153
O10	O	1.478178	-0.006079	0.173847
O11	O	1.129498	-0.441549	-0.367751
O12	O	1.629498	0.058451	0.132249
O13	O	1.019701	-0.570664	-0.174855
O14	O	1.519701	-0.070664	0.325145
O15	O	0.936651	-0.271246	-0.284605
O16	O	1.436651	0.228754	0.215395
O17	O	1.129453	-0.570630	-0.284598
O18	O	1.629453	-0.070630	0.215402
O19	O	1.019808	-0.271220	-0.367755
O20	O	1.519808	0.228780	0.132245
O21	O	0.936590	-0.441608	-0.174858
O22	O	1.436590	0.058392	0.325142
O23	O	0.826886	-0.441560	-0.284570
O24	O	1.326886	0.058440	0.215430
O25	O	0.936628	-0.570545	-0.477437
O26	O	1.436628	-0.070545	0.022563
O27	O	0.826876	-0.570579	-0.367694
O28	O	1.326876	-0.070579	0.132306
O29	O	1.019794	-0.441500	-0.477464
O30	O	1.519794	0.058500	0.022536
O31	O	1.019688	-0.740944	-0.284563
O32	O	1.519688	-0.240944	0.215437
O33	O	0.936567	-0.740908	-0.367690
O34	O	1.436567	-0.240908	0.132310
C35	C	0.802322	-0.506069	-0.326129
C36	C	1.302322	-0.006069	0.173871
C37	C	0.727090	-0.506089	-0.326134
C38	C	1.227090	-0.006089	0.173866
C39	C	0.265327	-0.438993	-0.369544
C40	C	0.765327	0.061007	0.130456
C41	C	0.336015	-0.438994	-0.369539
C42	C	0.836015	0.061006	0.130461
C43	C	0.371329	-0.506095	-0.326175
C44	C	0.871329	-0.006095	0.173825
C45	C	0.335950	-0.573206	-0.282818
C46	C	0.835950	-0.073206	0.217182
C47	C	0.265263	-0.573209	-0.282827
C48	C	0.765263	-0.073209	0.217173
C49	C	0.621023	-0.573198	-0.282782
C50	C	1.121023	-0.073198	0.217218
C51	C	0.691716	-0.573188	-0.282775
C52	C	1.191716	-0.073188	0.217225
C53	C	0.691776	-0.438984	-0.369494
C54	C	1.191776	0.061016	0.130506
C55	C	0.621088	-0.438986	-0.369503
C56	C	1.121088	0.061014	0.130497
C57	C	0.585716	-0.506101	-0.326149
C58	C	1.085716	-0.006101	0.173851
C59	C	0.509068	-0.506099	-0.326156
C60	C	1.009068	-0.006099	0.173844
C61	C	0.447976	-0.506092	-0.326164
C62	C	0.947976	-0.006092	0.173836
C63	C	0.978138	-0.779047	-0.326137
C64	C	1.478138	-0.279047	0.173863
C65	C	0.978182	-0.895824	-0.326153
C66	C	1.478182	-0.395824	0.173847
C67	C	1.064801	-0.895808	-0.239657
C68	C	1.564801	-0.395808	0.260343
C69	C	1.108128	-0.950662	-0.196417
C70	C	1.608128	-0.450662	0.303583
C71	C	1.108168	-1.060383	-0.196436
C72	C	1.608168	-0.560383	0.303564
C73	C	1.064877	-1.115254	-0.239700
C74	C	1.564877	-0.615254	0.260300
C75	C	1.021550	-1.060401	-0.282940
C76	C	1.521550	-0.560401	0.217060
C77	C	1.021514	-0.950677	-0.282915
C78	C	1.521514	-0.450677	0.217085
C79	C	0.934936	-1.060416	-0.369438
C80	C	1.434936	-0.560416	0.130562
C81	C	0.934892	-0.950694	-0.369417
C82	C	1.434892	-0.450694	0.130583
C83	C	0.891645	-1.115287	-0.412702
C84	C	1.391645	-0.615287	0.087298
C85	C	0.848314	-1.060434	-0.455939
C86	C	1.348314	-0.560434	0.044061
C87	C	0.848275	-0.950706	-0.455919
C88	C	1.348275	-0.450706	0.044081
C89	C	0.891565	-0.895841	-0.412657
C90	C	1.391565	-0.395841	0.087343
C91	C	1.154721	-0.506091	-0.326178
C92	C	1.654721	-0.006091	0.173822
C93	C	1.229953	-0.506096	-0.326189
C94	C	1.729953	-0.006096	0.173811
C95	C	0.978216	-0.506013	-0.502696
C96	C	1.478216	-0.006013	-0.002696
C97	C	0.978233	-0.505985	-0.577928
C98	C	1.478233	-0.005985	-0.077928
C99	C	0.978238	-0.232046	-0.326184
C100	C	1.478238	0.267954	0.173816
C101	C	0.978263	-0.115269	-0.326198
C102	C	1.478263	0.384731	0.173802
C103	C	1.021539	-0.438788	-0.613287
C104	C	1.521539	0.061212	-0.113287
C105	C	1.021545	-0.438758	-0.683976
C106	C	1.521545	0.061242	-0.183976
C107	C	0.978249	-0.505930	-0.719304
C108	C	1.478249	-0.005930	-0.219304
C109	C	0.934939	-0.573130	-0.683940
C110	C	1.434939	-0.073130	-0.183940
C111	C	0.934929	-0.573154	-0.613253
C112	C	1.434929	-0.073154	-0.113253
C113	C	0.934977	-0.573032	-0.969013
C114	C	1.434977	-0.073032	-0.469013
C115	C	0.934992	-0.573005	-1.039705
C116	C	1.434992	-0.073005	-0.539705
C117	C	1.021594	-0.438635	-1.039736
C118	C	1.521594	0.061365	-0.539736
C119	C	1.021584	-0.438660	-0.969049
C120	C	1.521584	0.061340	-0.469049
C121	C	0.978271	-0.505855	-0.933691
C122	C	1.478271	-0.005855	-0.433691
C123	C	0.978263	-0.505886	-0.857043
C124	C	1.478263	-0.005886	-0.357043
C125	C	0.978260	-0.505905	-0.795951
C126	C	1.478260	-0.005905	-0.295951
C127	C	0.978180	-0.506069	-0.150297
C128	C	1.478180	-0.006069	0.349703
C129	C	0.978295	-0.505802	-0.075066
C130	C	1.478295	-0.005802	0.424934
H131	H	0.236463	-0.627854	-0.247524
H132	H	0.736463	-0.127854	0.252476
C133	C	1.069187	-0.364838	-0.722867
C134	C	1.569187	0.135162	-0.222867
N135	N	1.105072	-0.309157	-0.752160
N136	N	1.605072	0.190843	-0.252160
H137	H	0.592232	-0.627844	-0.247479
H138	H	1.092232	-0.127844	0.252521
C139	C	0.730692	-0.365163	-0.417190
C140	C	1.230692	0.134837	0.082810
N141	N	0.760002	-0.309561	-0.453112
N142	N	1.260002	0.190439	0.046888
C143	C	0.887290	-0.647078	-0.574358
C144	C	1.387290	-0.147078	-0.074358
N145	N	0.851406	-0.702758	-0.545063
N146	N	1.351406	-0.202758	-0.045063
C147	C	0.891530	-0.775144	-0.412633
C148	C	1.391530	-0.275144	0.087367
N149	N	0.891509	-0.684234	-0.412616
N150	N	1.391509	-0.184234	0.087384
C151	C	1.069168	-0.364891	-0.574433
C152	C	1.569168	0.135109	-0.074433
N153	N	1.105041	-0.309225	-0.545169
N154	N	1.605041	0.190775	-0.045169
C155	C	0.730559	-0.647014	-0.235073
C156	C	1.230559	-0.147014	0.264927
N157	N	0.759816	-0.702617	-0.199146
N158	N	1.259816	-0.202617	0.300854
C159	C	0.374923	-0.365167	-0.417228
C160	C	0.874923	0.134833	0.082772
N161	N	0.404228	-0.309554	-0.453147
N162	N	0.904228	0.190446	0.046853
C163	C	0.374798	-0.647014	-0.235115
C164	C	0.874798	-0.147014	0.264885
N165	N	0.404057	-0.702602	-0.199180
N166	N	0.904057	-0.202602	0.300820
C167	C	0.887306	-0.647010	-0.722803
C168	C	1.387306	-0.147010	-0.222803
N169	N	0.851428	-0.702658	-0.752075
N170	N	1.351428	-0.202658	-0.252075
C171	C	1.155744	-0.890296	-0.148827
C172	C	1.655744	-0.390296	0.351173
N173	N	1.191608	-0.844831	-0.112982
N174	N	1.691608	-0.344831	0.387018
C175	C	0.582248	-0.365172	-0.417208
C176	C	1.082248	0.134828	0.082792
N177	N	0.552994	-0.309577	-0.453142
N178	N	1.052994	0.190423	0.046858
C179	C	0.891689	-1.235984	-0.412719
C180	C	1.391689	-0.735984	0.087281
N181	N	0.891718	-1.326894	-0.412731
N182	N	1.391718	-0.826894	0.087269
C183	C	0.887356	-0.646896	-1.078565
C184	C	1.387356	-0.146896	-0.578565
N185	N	0.851477	-0.702547	-1.107834
N186	N	1.351477	-0.202547	-0.607834
H187	H	1.064765	-0.806467	-0.239629
H188	H	1.564765	-0.306467	0.260371
C189	C	0.887329	-0.646946	-0.930129
C190	C	1.387329	-0.146946	-0.430129
N191	N	0.851438	-0.702620	-0.900839
N192	N	1.351438	-0.202620	-0.400839
H193	H	1.056842	-0.383965	-0.940288
H194	H	1.556842	0.116035	-0.440288
H195	H	1.143452	-1.105044	-0.161229
H196	H	1.643452	-0.605044	0.338771
C197	C	1.069231	-0.364705	-1.078636
C198	C	1.569231	0.135295	-0.578636
N199	N	1.105110	-0.309022	-1.107934
N200	N	1.605110	0.190978	-0.607934
H201	H	1.064919	-1.204595	-0.239717
H202	H	1.564919	-0.704595	0.260283
C203	C	0.800698	-1.120798	-0.503523
C204	C	1.300698	-0.620798	-0.003523
N205	N	0.764831	-1.166269	-0.539363
N206	N	1.264831	-0.666269	-0.039363
C207	C	0.226488	-0.365175	-0.417249
C208	C	0.726488	0.134825	0.082751
N209	N	0.197237	-0.309577	-0.453184
N210	N	0.697237	0.190423	0.046816
H211	H	0.812996	-0.906050	-0.491132
H212	H	1.312996	-0.406050	0.008868
