data_functionalizedCrystal
_audit_creation_method	'MofGen! by Chris Wilmer'
_symmetry_space_group_name_H-M	'P1'
_symmetry_Int_Tables_number	1
_symmetry_cell_setting	triclinic
loop_
_symmetry_equiv_pos_as_xyz
  x,y,z
_cell_length_a	14.853567
_cell_length_b	11.026607
_cell_length_c	9.482900
_cell_angle_alpha	101.400185
_cell_angle_beta	80.700209
_cell_angle_gamma	96.110474
loop_
_atom_site_label
_atom_site_type_symbol
_atom_site_fract_x
_atom_site_fract_y
_atom_site_fract_z
O1	O	1.232898	0.139513	-0.120788
O2	O	0.973487	0.158388	-0.120812
O3	O	1.081692	-0.027738	-0.120797
O4	O	1.124693	0.325639	-0.120804
O5	O	1.059738	0.010220	0.120992
O6	O	0.951533	0.196346	0.120977
O7	O	1.210944	0.177471	0.121001
Cu8	Cu	1.079233	0.190375	0.143066
Cu9	Cu	1.105197	0.145484	-0.142878
O10	O	1.102738	0.363598	0.120986
C11	C	1.062783	-0.053984	0.000095
C12	C	1.039135	-0.188739	0.000088
C13	C	0.928783	0.176511	0.000079
C14	C	0.828287	0.173946	0.000070
C15	C	1.104430	-0.262434	0.000092
C16	C	1.079992	-0.401711	0.000084
C17	C	0.396161	0.052552	0.000105
C18	C	0.410561	0.273676	0.000099
C19	C	0.504984	0.276085	0.000094
C20	C	0.545000	0.166726	0.000093
C21	C	0.490593	0.054957	0.000096
C22	C	0.559399	0.387850	0.000077
C23	C	0.653829	0.390263	0.000070
C24	C	0.693845	0.280904	0.000079
C25	C	0.639432	0.169131	0.000084
C26	C	0.679448	0.059772	0.000082
C27	C	0.625035	-0.052001	0.000097
C28	C	0.530609	-0.054402	0.000104
C29	C	0.788271	0.283306	0.000072
C30	C	0.773880	0.062177	0.000073
C31	C	1.255647	0.159348	0.000107
C32	C	1.356145	0.161911	0.000106
C33	C	1.121648	0.389842	0.000090
C34	C	1.145296	0.524596	0.000088
N35	N	1.060979	0.221947	0.344184
N36	N	1.123457	0.113902	-0.343995
C37	C	1.099805	0.154791	0.416389
C38	C	1.084625	0.181069	0.583804
H39	H	1.178424	-0.222415	0.000108
Br40	Br	0.679355	-0.200414	0.000077
Br41	Br	0.322319	-0.099131	0.000138
Br42	Br	1.010475	0.309324	0.687329
H43	H	0.698124	0.481275	0.000058
Br44	Br	0.356256	0.422081	0.000075
H45	H	0.965142	-0.228758	0.000071
H46	H	0.526813	0.476881	0.000063
Br47	Br	0.956655	-0.468392	0.000052
H48	H	0.832569	0.374309	0.000062
Br49	Br	1.268636	-0.408732	0.000087
Br50	Br	0.986832	0.350197	0.447715
H51	H	0.806452	-0.026877	0.000077
H52	H	0.486295	-0.145396	0.000151
H53	H	1.144281	0.077836	0.354267
H54	H	1.167936	0.036943	0.593887
