data_functionalizedCrystal
_audit_creation_method	'MofGen! by Chris Wilmer'
_symmetry_space_group_name_H-M	'P1'
_symmetry_Int_Tables_number	1
_symmetry_cell_setting	triclinic
loop_
_symmetry_equiv_pos_as_xyz
  x,y,z
_cell_length_a	9.130307
_cell_length_b	14.971486
_cell_length_c	14.971486
_cell_angle_alpha	83.614129
_cell_angle_beta	89.996495
_cell_angle_gamma	90.003437
loop_
_atom_site_label
_atom_site_type_symbol
_atom_site_fract_x
_atom_site_fract_y
_atom_site_fract_z
O1	O	0.121632	-1.186941	-0.116561
O2	O	0.121672	-0.926541	-0.130520
O3	O	0.121640	-1.063720	0.006659
O4	O	0.121663	-1.049762	-0.253741
O5	O	-0.121959	-1.063716	0.006661
O6	O	-0.121927	-0.926536	-0.130519
O7	O	-0.121967	-1.186937	-0.116560
Cu8	Cu	-0.144190	-1.056736	-0.123539
Cu9	Cu	0.143894	-1.056741	-0.123541
O10	O	-0.121936	-1.049757	-0.253739
C11	C	-0.000123	-0.893214	-0.129895
C12	C	-0.000108	-0.793917	-0.128024
C13	C	-0.000159	-1.063094	0.039985
C14	C	-0.000157	-1.061223	0.139282
N15	N	-0.346813	-1.056739	-0.123538
C16	C	-0.346831	-1.178261	-0.002100
C17	C	-0.423506	-1.239027	0.058616
C18	C	-0.576840	-1.239036	0.058617
C19	C	-0.653501	-1.178270	-0.002104
C20	C	-0.576825	-1.117503	-0.062820
C21	C	-0.423488	-1.117503	-0.062816
C22	C	-0.576807	-0.995979	-0.184251
C23	C	-0.423474	-0.995973	-0.184258
C24	C	-0.653469	-0.935213	-0.244972
C25	C	-0.576793	-0.874449	-0.305694
C26	C	-0.423450	-0.874443	-0.305692
C27	C	-0.346798	-0.935206	-0.244974
N28	N	0.346517	-1.056746	-0.123535
C29	C	-0.000170	-1.220263	-0.117185
C30	C	-0.000175	-1.319561	-0.119056
C31	C	-0.000103	-0.736692	-0.208614
C32	C	-0.000125	-0.643392	-0.206850
C33	C	-0.000141	-0.607320	-0.124497
C34	C	-0.000151	-0.664552	-0.043902
C35	C	-0.000139	-0.757850	-0.045666
C36	C	-0.000171	-0.470090	-0.040231
C37	C	-0.000180	-0.376786	-0.038466
C38	C	-0.000157	-0.355632	-0.201415
C39	C	-0.000145	-0.448930	-0.203179
C40	C	-0.000152	-0.506156	-0.122584
C41	C	-0.000134	-1.050384	-0.287065
C42	C	-0.000126	-1.052254	-0.386362
C43	C	-0.000171	-1.141812	0.196507
C44	C	-0.000156	-1.140049	0.289807
C45	C	-0.000138	-1.057696	0.325879
C46	C	-0.000120	-0.977101	0.268646
C47	C	-0.000124	-0.978865	0.175349
C48	C	-0.000114	-0.973430	0.463109
C49	C	-0.000112	-0.971665	0.556413
C50	C	-0.000145	-1.134614	0.577567
C51	C	-0.000150	-1.136378	0.484269
C52	C	-0.000135	-1.055782	0.427043
H53	H	-0.221978	-1.178267	-0.002102
H54	H	-0.361075	-1.288501	0.108056
Cl55	Cl	-0.000156	-1.235935	0.649508
Cl56	Cl	-0.000181	-0.619204	0.059629
Cl57	Cl	-0.846232	-0.935218	-0.244969
Cl58	Cl	-0.000091	-0.868134	0.601760
Cl59	Cl	-0.154035	-0.935208	-0.244970
H60	H	-0.000179	-0.516682	0.025399
Cl61	Cl	-0.673234	-1.315425	0.134951
H62	H	-0.778353	-1.178274	-0.002092
H63	H	-0.000098	-0.907800	0.416517
H64	H	-0.000143	-0.804443	0.019958
H65	H	-0.000096	-0.910047	0.298024
H66	H	-0.639220	-0.824973	-0.355124
H67	H	-0.000113	-0.913240	0.128756
H68	H	-0.361029	-0.824956	-0.355131
H69	H	-0.000088	-0.766054	-0.275675
H70	H	-0.000175	-1.203437	0.454903
Cl71	Cl	-0.000109	-0.571455	-0.308168
H72	H	-0.000118	-0.478296	-0.270239
H73	H	-0.000158	-0.309033	-0.267039
Cl74	Cl	-0.000250	-0.331439	0.065065
H75	H	-0.000194	-1.208874	0.167145
Cl76	Cl	-0.000177	-1.241366	0.361744
