data_functionalizedCrystal
_audit_creation_method	'MofGen! by Chris Wilmer'
_symmetry_space_group_name_H-M	'P1'
_symmetry_Int_Tables_number	1
_symmetry_cell_setting	triclinic
loop_
_symmetry_equiv_pos_as_xyz
  x,y,z
_cell_length_a	19.121063
_cell_length_b	18.050591
_cell_length_c	18.050582
_cell_angle_alpha	90.023636
_cell_angle_beta	92.414363
_cell_angle_gamma	87.537236
loop_
_atom_site_label
_atom_site_type_symbol
_atom_site_fract_x
_atom_site_fract_y
_atom_site_fract_z
Zn1	Zn	-0.279776	-1.122681	-0.432667
Zn2	Zn	-0.397222	-1.117293	-0.313766
Zn3	Zn	-0.279775	-0.998498	-0.308474
Zn4	Zn	-0.397178	-0.993153	-0.437896
O5	O	-0.338488	-1.057907	-0.373201
O6	O	-0.295375	-1.225890	-0.416921
O7	O	-0.381660	-1.101517	-0.209141
O8	O	-0.181491	-1.019463	-0.320546
O9	O	-0.381661	-1.221932	-0.329565
O10	O	-0.181492	-1.110700	-0.411790
O11	O	-0.295373	-1.014239	-0.205253
O12	O	-0.295330	-0.893866	-0.325616
O13	O	-0.381586	-1.010354	-0.541126
O14	O	-0.381585	-0.889939	-0.420701
O15	O	-0.295332	-1.105517	-0.537285
O16	O	-0.495500	-1.096334	-0.334635
O17	O	-0.495468	-1.005129	-0.425833
C18	C	-0.338453	-0.864956	-0.373152
C19	C	-0.338456	-0.782410	-0.373150
C20	C	-0.520968	-1.049587	-0.381392
C21	C	-0.599034	-1.046096	-0.384921
C22	C	-0.291489	-0.535701	-0.321544
C23	C	-0.274391	-0.585905	-0.388553
C24	C	-0.338477	-0.485289	-0.373196
C25	C	-0.355531	-0.582168	-0.306167
C26	C	-0.338465	-0.631274	-0.373170
C27	C	-0.321346	-0.534407	-0.440239
C28	C	-0.402516	-0.530664	-0.357809
C29	C	-0.385442	-0.580845	-0.424866
C30	C	-0.338482	-0.401190	-0.373210
C31	C	-0.338460	-0.715371	-0.373163
C32	C	-0.635703	-1.091978	-0.339137
C33	C	-0.709054	-1.088699	-0.342460
C34	C	-0.745735	-1.039533	-0.391565
C35	C	-0.709061	-0.993649	-0.437354
C36	C	-0.635711	-0.996933	-0.434034
C37	C	-0.967205	-1.027246	-0.403966
C38	C	-1.040560	-1.023964	-0.407281
C39	C	-1.040548	-1.119015	-0.312388
C40	C	-0.967197	-1.122291	-0.309069
C41	C	-0.930529	-1.076410	-0.354861
C42	C	-0.820712	-1.036179	-0.394961
C43	C	-0.855554	-1.079769	-0.351468
C44	C	-0.155295	-1.066279	-0.364994
C45	C	-0.077229	-1.069847	-0.361497
C46	C	-0.338454	-1.057940	-0.566905
C47	C	-0.338440	-1.057954	-0.649450
C48	C	-0.338510	-0.251611	-0.373237
C49	C	-0.338488	-0.334158	-0.373217
C50	C	-0.385269	-1.006254	-0.900362
C51	C	-0.321206	-0.991003	-0.848086
C52	C	-0.338337	-1.058022	-0.946566
C53	C	-0.402447	-1.073205	-0.851762
C54	C	-0.338391	-1.057987	-0.800584
C55	C	-0.274240	-1.042738	-0.895377
C56	C	-0.355525	-1.124968	-0.899059
C57	C	-0.291417	-1.109745	-0.846804
C58	C	-0.338307	-1.058040	-1.030663
C59	C	-0.338414	-1.057969	-0.716488
C60	C	-0.338470	-1.057918	-0.180248
C61	C	-0.338287	-1.058057	-0.097695
H62	H	-0.251729	-0.515814	-0.277925
H63	H	-0.369961	-0.603176	-0.249493
O64	O	-0.432617	-0.954058	-0.928257
C65	C	-0.499967	-0.969513	-0.905065
H66	H	-0.494993	-1.004646	-0.852490
H67	H	-0.530260	-0.915292	-0.893341
H68	H	-0.529110	-1.001096	-0.950610
H69	H	-0.306852	-0.513494	-0.496927
O70	O	-0.432761	-0.604386	-0.477114
C71	C	-0.414523	-0.579936	-0.547636
H72	H	-0.356255	-0.568794	-0.546535
H73	H	-0.426362	-0.624489	-0.590594
H74	H	-0.446204	-0.526755	-0.562806
O75	O	-0.372947	-1.192444	-0.925860
C76	C	-0.433721	-1.184282	-0.972645
H77	H	-0.439184	-1.124988	-0.994515
H78	H	-0.429495	-1.224417	-1.021189
H79	H	-0.481625	-1.196843	-0.940062
H80	H	-1.070423	-0.983937	-0.447281
O81	O	-0.931676	-1.170123	-0.261356
C82	C	-0.979771	-1.209907	-0.221646
H83	H	-1.032039	-1.210115	-0.254431
H84	H	-0.958544	-1.269376	-0.212832
H85	H	-0.987619	-1.182401	-0.165567
O86	O	-0.856424	-0.988516	-0.442695
C87	C	-0.898783	-1.028873	-0.492634
H88	H	-0.909740	-1.084683	-0.467001
H89	H	-0.950381	-0.996313	-0.504882
H90	H	-0.870481	-1.038255	-0.546401
O91	O	-0.244002	-1.161866	-0.818893
C92	C	-0.193784	-1.127416	-0.772681
H93	H	-0.216884	-1.072344	-0.751925
H94	H	-0.178450	-1.164989	-0.723370
H95	H	-0.145412	-1.117060	-0.805376
H96	H	-0.456662	-0.506481	-0.344780
O97	O	-0.304003	-0.923398	-0.821434
C98	C	-0.353576	-0.868995	-0.848808
H99	H	-0.404714	-0.896198	-0.864982
H100	H	-0.363437	-0.825670	-0.804046
H101	H	-0.332663	-0.841126	-0.899529
O102	O	-0.209617	-1.027290	-0.918357
C103	C	-0.210372	-1.027481	-0.996496
H104	H	-0.266333	-1.016675	-1.019458
H105	H	-0.175886	-0.982210	-1.016502
H106	H	-0.189508	-1.083711	-1.016715
O107	O	-0.600183	-1.139801	-0.291415
C108	C	-0.648281	-1.179581	-0.251705
H109	H	-0.700547	-1.179794	-0.284494
H110	H	-0.627054	-1.239049	-0.242882
H111	H	-0.656135	-1.152069	-0.195630
H112	H	-0.220227	-0.610061	-0.401570
O113	O	-0.467079	-1.088682	-0.828829
C114	C	-0.485542	-1.158769	-0.855941
H115	H	-0.436040	-1.193203	-0.868346
H116	H	-0.515757	-1.188377	-0.812491
H117	H	-0.519756	-1.151401	-0.908907
O118	O	-0.744653	-1.133447	-0.298144
C119	C	-0.786960	-1.179480	-0.342478
H120	H	-0.764818	-1.184865	-0.399983
H121	H	-0.787669	-1.236672	-0.315820
H122	H	-0.842604	-1.154128	-0.347478
H123	H	-1.070411	-1.156370	-0.275108
H124	H	-0.937356	-0.989886	-0.441251
H125	H	-0.605856	-0.959571	-0.471317
O126	O	-0.744660	-0.945972	-0.485160
C127	C	-0.726671	-0.962948	-0.558380
H128	H	-0.706466	-1.023179	-0.561278
H129	H	-0.774893	-0.954370	-0.597245
H130	H	-0.684110	-0.925025	-0.575826
O131	O	-0.819894	-1.127421	-0.303688
C132	C	-0.777507	-1.087059	-0.253779
H133	H	-0.799658	-1.027581	-0.250136
H134	H	-0.776683	-1.113987	-0.196615
H135	H	-0.721907	-1.086971	-0.274228
