data_functionalizedCrystal
_audit_creation_method	'MofGen! by Chris Wilmer'
_symmetry_space_group_name_H-M	'P1'
_symmetry_Int_Tables_number	1
_symmetry_cell_setting	triclinic
loop_
_symmetry_equiv_pos_as_xyz
  x,y,z
_cell_length_a	25.639243
_cell_length_b	25.639239
_cell_length_c	25.639233
_cell_angle_alpha	90.019301
_cell_angle_beta	90.015962
_cell_angle_gamma	90.042008
loop_
_atom_site_label
_atom_site_type_symbol
_atom_site_fract_x
_atom_site_fract_y
_atom_site_fract_z
Zn1	Zn	0.799223	-0.208176	0.295654
Zn2	Zn	1.299223	0.291824	0.795654
Zn3	Zn	0.799145	-0.295595	0.208217
Zn4	Zn	1.299145	0.204405	0.708217
Zn5	Zn	0.711799	-0.208180	0.208227
Zn6	Zn	1.211799	0.291820	0.708227
Zn7	Zn	0.711743	-0.295587	0.295617
Zn8	Zn	1.211743	0.204413	0.795617
O9	O	0.755478	-0.251885	0.251929
O10	O	1.255478	0.248115	0.751929
O11	O	0.872378	-0.219775	0.284066
O12	O	1.372378	0.280225	0.784066
O13	O	0.787550	-0.284004	0.135053
O14	O	1.287550	0.215996	0.635053
O15	O	0.723452	-0.135014	0.219844
O16	O	1.223452	0.364986	0.719844
O17	O	0.872321	-0.284001	0.219827
O18	O	1.372321	0.215999	0.719827
O19	O	0.787682	-0.135012	0.284076
O20	O	1.287682	0.364988	0.784076
O21	O	0.723377	-0.219781	0.135061
O22	O	1.223377	0.280219	0.635061
O23	O	0.638627	-0.219772	0.219808
O24	O	1.138627	0.280228	0.719808
O25	O	0.723357	-0.283987	0.368787
O26	O	1.223357	0.216013	0.868787
O27	O	0.638586	-0.283990	0.284013
O28	O	1.138586	0.216010	0.784013
O29	O	0.787628	-0.219767	0.368814
O30	O	1.287628	0.280233	0.868814
O31	O	0.787496	-0.368759	0.219791
O32	O	1.287496	0.131241	0.719791
O33	O	0.723282	-0.368753	0.284003
O34	O	1.223282	0.131247	0.784003
C35	C	0.619635	-0.251881	0.251908
C36	C	1.119635	0.248119	0.751908
C37	C	0.561521	-0.251892	0.251911
C38	C	1.061521	0.248108	0.751911
C39	C	0.201182	-0.218495	0.285434
C40	C	0.701182	0.281505	0.785434
C41	C	0.146578	-0.218494	0.285437
C42	C	0.646578	0.281506	0.785437
O43	O	0.118361	-0.190088	0.313913
O44	O	0.618361	0.309912	0.813913
N45	N	0.119239	-0.251883	0.251943
N46	N	0.619239	0.248117	0.751943
C47	C	0.146507	-0.285271	0.218440
C48	C	0.646507	0.214729	0.718440
O49	O	0.118239	-0.313670	0.189951
O50	O	0.618239	0.186330	0.689951
C51	C	0.201110	-0.285268	0.218434
C52	C	0.701110	0.214732	0.718434
C53	C	0.228446	-0.251881	0.251934
C54	C	0.728446	0.248119	0.751934
C55	C	0.228518	-0.185109	0.318931
C56	C	0.728518	0.314891	0.818931
C57	C	0.283119	-0.185111	0.318928
C58	C	0.783119	0.314889	0.818928
C59	C	0.310383	-0.218497	0.285428
C60	C	0.810383	0.281503	0.785428
C61	C	0.283047	-0.251882	0.251932
C62	C	0.783047	0.248118	0.751932
C63	C	0.228377	-0.318653	0.184929
C64	C	0.728377	0.181347	0.684929
C65	C	0.282984	-0.318647	0.184926
C66	C	0.782984	0.181353	0.684926
C67	C	0.310320	-0.285260	0.218426
C68	C	0.810320	0.214740	0.718426
C69	C	0.364912	-0.285270	0.218429
C70	C	0.864912	0.214730	0.718429
N71	N	0.392251	-0.251881	0.251923
N72	N	0.892251	0.248119	0.751923
C73	C	0.364987	-0.218494	0.285423
C74	C	0.864987	0.281506	0.785423
C75	C	0.031836	-0.285273	0.218453
C76	C	0.531836	0.214727	0.718453
C77	C	-0.022766	-0.285279	0.218461
C78	C	0.477234	0.214721	0.718461
C79	C	-0.022691	-0.218501	0.285458
C80	C	0.477309	0.281499	0.785458
C81	C	0.031912	-0.218499	0.285452
C82	C	0.531912	0.281501	0.785452
C83	C	0.059175	-0.251884	0.251947
C84	C	0.559175	0.248116	0.751947
C85	C	0.479652	-0.218500	0.285415
C86	C	0.979652	0.281500	0.785415
C87	C	0.534257	-0.218506	0.285411
C88	C	1.034257	0.281494	0.785411
C89	C	0.534177	-0.285281	0.218413
C90	C	1.034177	0.214719	0.718413
C91	C	0.479577	-0.285278	0.218418
C92	C	0.979577	0.214722	0.718418
C93	C	0.452315	-0.251883	0.251921
C94	C	0.952315	0.248117	0.751921
O95	O	0.393163	-0.313659	0.189966
O96	O	0.893163	0.186341	0.689966
O97	O	0.393261	-0.190095	0.313903
O98	O	0.893261	0.309905	0.813903
C99	C	0.755388	-0.387727	0.251903
C100	C	1.255388	0.112273	0.751903
C101	C	0.755398	-0.445841	0.251910
C102	C	1.255398	0.054159	0.751910
C103	C	0.722035	-0.697044	0.285353
C104	C	1.222035	-0.197044	0.785353
C105	C	0.722016	-0.642440	0.285347
C106	C	1.222016	-0.142440	0.785347
O107	O	0.693564	-0.614211	0.313764
O108	O	1.193564	-0.114211	0.813764
N109	N	0.755464	-0.615115	0.251937
N110	N	1.255464	-0.115115	0.751937
C111	C	0.788937	-0.642398	0.218535
C112	C	1.288937	-0.142398	0.718535
O113	O	0.817386	-0.614142	0.190118
O114	O	1.317386	-0.114142	0.690118
C115	C	0.788959	-0.697001	0.218545
C116	C	1.288959	-0.197001	0.718545
C117	C	0.755505	-0.724323	0.251953
C118	C	1.255505	-0.224323	0.751953
C119	C	0.688584	-0.724366	0.318759
C120	C	1.188584	-0.224366	0.818759
C121	C	0.688603	-0.778966	0.318764
C122	C	1.188603	-0.278966	0.818764
C123	C	0.722073	-0.806245	0.285364
C124	C	1.222073	-0.306245	0.785364
C125	C	0.755524	-0.778923	0.251958
C126	C	1.255524	-0.278923	0.751958
C127	C	0.822434	-0.724283	0.185145
C128	C	1.322434	-0.224283	0.685145
C129	C	0.822453	-0.778890	0.185158
C130	C	1.322453	-0.278890	0.685158
C131	C	0.788999	-0.806211	0.218566
C132	C	1.288999	-0.306211	0.718566
C133	C	0.789012	-0.860803	0.218563
C134	C	1.289012	-0.360803	0.718563
N135	N	0.755564	-0.888127	0.251972
N136	N	1.255564	-0.388127	0.751972
C137	C	0.722094	-0.860848	0.285373
C138	C	1.222094	-0.360848	0.785373
C139	C	0.788890	-0.527727	0.218519
C140	C	1.288890	-0.027727	0.718519
C141	C	0.788866	-0.473125	0.218507
C142	C	1.288866	0.026875	0.718507
C143	C	0.721945	-0.473170	0.285320
C144	C	1.221945	0.026830	0.785320
C145	C	0.721967	-0.527774	0.285329
C146	C	1.221967	-0.027774	0.785329
C147	C	0.755442	-0.555052	0.251929
C148	C	1.255442	-0.055052	0.751929
C149	C	0.722136	-0.975513	0.285381
C150	C	1.222136	-0.475513	0.785381
C151	C	0.722156	-1.030119	0.285382
C152	C	1.222156	-0.530119	0.785382
C153	C	0.789079	-1.030068	0.218571
C154	C	1.289079	-0.530068	0.718571
C155	C	0.789057	-0.975468	0.218568
C156	C	1.289057	-0.475468	0.718568
C157	C	0.755584	-0.948191	0.251977
C158	C	1.255584	-0.448191	0.751977
O159	O	0.817451	-0.889066	0.190162
O160	O	1.317451	-0.389066	0.690162
O161	O	0.693655	-0.889110	0.313791
O162	O	1.193655	-0.389110	0.813791
C163	C	0.891851	-0.251888	0.251950
C164	C	1.391851	0.248112	0.751950
C165	C	0.949965	-0.251890	0.251959
C166	C	1.449965	0.248110	0.751959
C167	C	0.755495	-0.251875	0.388302
C168	C	1.255495	0.248125	0.888302
C169	C	0.755502	-0.251871	0.446416
C170	C	1.255502	0.248129	0.946416
C171	C	0.755582	-0.115512	0.251965
C172	C	1.255582	0.384488	0.751965
C173	C	0.755626	-0.057397	0.251981
C174	C	1.255626	0.442603	0.751981
C175	C	0.755491	-0.251856	0.116086
C176	C	1.255491	0.248144	0.616086
C177	C	0.755585	-0.251713	0.057972
C178	C	1.255585	0.248287	0.557972
C179	C	0.789010	-0.218333	0.806799
C180	C	1.289010	0.281667	1.306799
C181	C	0.789016	-0.218318	0.861403
C182	C	1.289016	0.281682	1.361403
O183	O	0.817464	-0.189864	0.889657
O184	O	1.317464	0.310136	1.389657
N185	N	0.755559	-0.251749	0.888698
N186	N	1.255559	0.248251	1.388698
C187	C	0.722090	-0.285192	0.861387
C188	C	1.222090	0.214808	1.361387
O189	O	0.693632	-0.313626	0.889617
O190	O	1.193632	0.186374	1.389617
C191	C	0.722081	-0.285204	0.806783
C192	C	1.222081	0.214796	1.306783
C193	C	0.755544	-0.251775	0.779491
C194	C	1.255544	0.248225	1.279491
C195	C	0.822470	-0.184906	0.779506
C196	C	1.322470	0.315094	1.279506
C197	C	0.822464	-0.184921	0.724906
C198	C	1.322464	0.315079	1.224906
C199	C	0.788998	-0.218363	0.697598
C200	C	1.288998	0.281637	1.197598
C201	C	0.755538	-0.251790	0.724890
C202	C	1.255538	0.248210	1.224890
C203	C	0.688610	-0.318644	0.779472
C204	C	1.188610	0.181356	1.279472
C205	C	0.688603	-0.318653	0.724865
C206	C	1.188603	0.181347	1.224865
C207	C	0.722066	-0.285224	0.697573
C208	C	1.222066	0.214776	1.197573
C209	C	0.722067	-0.285247	0.642982
C210	C	1.222067	0.214753	1.142982
N211	N	0.755524	-0.251817	0.615686
N212	N	1.255524	0.248183	1.115686
C213	C	0.788990	-0.218375	0.642994
C214	C	1.288990	0.281625	1.142994
C215	C	0.722110	-0.285165	0.976057
C216	C	1.222110	0.214835	1.476057
C217	C	0.722121	-0.285157	1.030660
C218	C	1.222121	0.214843	1.530660
C219	C	0.789047	-0.218282	1.030672
C220	C	1.289047	0.281718	1.530672
C221	C	0.789038	-0.218293	0.976069
C222	C	1.289038	0.281707	1.476069
C223	C	0.755567	-0.251735	0.948762
C224	C	1.255567	0.248265	1.448762
C225	C	0.788975	-0.218410	0.528329
C226	C	1.288975	0.281590	1.028329
C227	C	0.788968	-0.218429	0.473724
C228	C	1.288968	0.281571	0.973724
C229	C	0.722040	-0.285302	0.473716
C230	C	1.222040	0.214698	0.973716
C231	C	0.722049	-0.285285	0.528316
C232	C	1.222049	0.214715	1.028316
C233	C	0.755518	-0.251834	0.555622
C234	C	1.255518	0.248166	1.055622
O235	O	0.693632	-0.313686	0.614693
O236	O	1.193632	0.186314	1.114693
O237	O	0.817437	-0.189941	0.614757
O238	O	1.317437	0.310059	1.114757
H239	H	0.694913	-1.052361	0.312588
H240	H	1.194913	-0.552361	0.812588
H241	H	0.849715	-0.801096	0.157961
H242	H	1.349715	-0.301096	0.657961
C243	C	0.692417	-0.314845	1.114352
C244	C	1.192417	0.185155	1.614352
C245	C	0.685347	-0.321912	1.060657
C246	C	1.185347	0.178088	1.560657
H247	H	0.669715	-0.337540	1.132868
H248	H	1.169715	0.162460	1.632868
H249	H	0.684786	-0.279720	1.123303
H250	H	1.184786	0.220280	1.623303
H251	H	0.727544	-0.322493	1.123301
H252	H	1.227544	0.177507	1.623301
H253	H	0.650221	-0.314260	1.051707
H254	H	1.150221	0.185740	1.551707
H255	H	0.692974	-0.357045	1.051702
H256	H	1.192974	0.142955	1.551702
C257	C	0.655967	-0.351278	0.981538
C258	C	1.155967	0.148722	1.481538
C259	C	0.685325	-0.321937	0.946044
C260	C	1.185325	0.178063	1.446044
H261	H	0.633261	-0.373981	0.963010
H262	H	1.133261	0.126019	1.463010
H263	H	0.635987	-0.328492	1.002831
H264	H	1.135987	0.171508	1.502831
H265	H	0.678745	-0.371265	1.002839
H266	H	1.178745	0.128735	1.502839
H267	H	0.662547	-0.301947	0.924745
H268	H	1.162547	0.198053	1.424745
H269	H	0.705307	-0.344726	0.924741
H270	H	1.205307	0.155274	1.424741
C271	C	0.093204	-0.292447	0.148097
C272	C	0.593204	0.207553	0.648097
C273	C	0.061801	-0.321981	0.181627
C274	C	0.561801	0.178019	0.681627
H275	H	0.111698	-0.315109	0.125361
H276	H	0.611698	0.184891	0.625361
H277	H	0.117302	-0.272569	0.168041
H278	H	0.617302	0.227431	0.668041
H279	H	0.071907	-0.269638	0.128143
H280	H	0.571907	0.230362	0.628143
H281	H	0.083099	-0.344786	0.201584
H282	H	0.583099	0.155214	0.701584
H283	H	0.037700	-0.341867	0.161681
H284	H	0.537700	0.158133	0.661681
H285	H	0.816286	-0.191071	0.953851
H286	H	1.316286	0.308929	1.453851
C287	C	0.859322	-0.211125	0.589739
C288	C	1.359322	0.288875	1.089739
C289	C	0.825766	-0.181643	0.558340
C290	C	1.325766	0.318357	1.058340
H291	H	0.882033	-0.188428	0.608268
H292	H	1.382033	0.311572	1.108268
H293	H	0.879296	-0.233909	0.568439
H294	H	1.379296	0.266091	1.068439
H295	H	0.839391	-0.231026	0.613811
H296	H	1.339391	0.268974	1.113811
H297	H	0.845696	-0.161745	0.534265
H298	H	1.345696	0.338255	1.034265
H299	H	0.805789	-0.158850	0.579642
H300	H	1.305789	0.341150	1.079642
C301	C	0.418312	-0.148168	0.292826
C302	C	0.918312	0.351832	0.792826
C303	C	0.449692	-0.181794	0.322245
C304	C	0.949692	0.318206	0.822245
H305	H	0.399820	-0.125509	0.315565
H306	H	0.899820	0.374491	0.815565
H307	H	0.394213	-0.168048	0.272885
H308	H	0.894213	0.331952	0.772885
H309	H	0.439625	-0.128138	0.270081
H310	H	0.939625	0.371862	0.770081
H311	H	0.428379	-0.201828	0.344987
H312	H	0.928379	0.298172	0.844987
H313	H	0.473794	-0.161913	0.342195
H314	H	0.973794	0.338087	0.842195
H315	H	0.694795	-0.312531	0.451472
H316	H	1.194795	0.187469	0.951472
H317	H	0.305371	-0.157922	0.346206
H318	H	0.805371	0.342078	0.846206
C319	C	0.528838	-0.152496	0.351635
C320	C	1.028838	0.347504	0.851635
C321	C	0.564304	-0.181801	0.322234
C322	C	1.064304	0.318199	0.822234
H323	H	0.547388	-0.129835	0.374364
H324	H	1.047388	0.370165	0.874364
H325	H	0.507532	-0.175305	0.371592
H326	H	1.007532	0.324695	0.871592
H327	H	0.507547	-0.132465	0.328885
H328	H	1.007547	0.367535	0.828885
H329	H	0.585593	-0.201835	0.344984
H330	H	1.085593	0.298165	0.844984
H331	H	0.585619	-0.158989	0.302275
H332	H	1.085619	0.341011	0.802275
C333	C	0.618287	-0.840443	0.325985
C334	C	1.118287	-0.340443	0.825985
C335	C	0.651836	-0.808994	0.355494
C336	C	1.151836	-0.308994	0.855494
H337	H	0.595587	-0.858976	0.348664
H338	H	1.095587	-0.358976	0.848664
H339	H	0.638219	-0.864506	0.306100
H340	H	1.138219	-0.364506	0.806100
H341	H	0.598295	-0.819171	0.303184
H342	H	1.098295	-0.319171	0.803184
H343	H	0.671831	-0.830267	0.378292
H344	H	1.171831	-0.330267	0.878292
H345	H	0.631901	-0.784928	0.375387
H346	H	1.131901	-0.284928	0.875387
C347	C	0.234092	-0.119112	0.385157
C348	C	0.734092	0.380888	0.885157
C349	C	0.198556	-0.148410	0.355761
C350	C	0.698556	0.351590	0.855761
H351	H	0.215596	-0.096459	0.407900
H352	H	0.715596	0.403541	0.907900
H353	H	0.255390	-0.099079	0.362409
H354	H	0.755390	0.400921	0.862409
H355	H	0.255383	-0.141931	0.405104
H356	H	0.755383	0.358069	0.905104
H357	H	0.177266	-0.125591	0.335811
H358	H	0.677266	0.374409	0.835811
H359	H	0.177248	-0.168445	0.378511
H360	H	0.677248	0.331555	0.878511
C361	C	0.595541	-0.355591	0.211017
C362	C	1.095541	0.144409	0.711017
C363	C	0.564156	-0.321976	0.181590
C364	C	1.064156	0.178024	0.681590
H365	H	0.614052	-0.378240	0.188281
H366	H	1.114052	0.121760	0.688281
H367	H	0.574233	-0.375629	0.233751
H368	H	1.074233	0.124371	0.733751
H369	H	0.619629	-0.335699	0.230968
H370	H	1.119629	0.164301	0.730968
H371	H	0.540065	-0.341868	0.161642
H372	H	1.040065	0.158132	0.661642
H373	H	0.585465	-0.301935	0.158846
H374	H	1.085465	0.198065	0.658846
C375	C	0.366653	-0.348300	0.155163
C376	C	0.866653	0.151700	0.655163
C377	C	0.312952	-0.355347	0.148096
C378	C	0.812952	0.144653	0.648096
H379	H	0.385151	-0.370956	0.132424
H380	H	0.885151	0.129044	0.632424
H381	H	0.375606	-0.356008	0.190272
H382	H	0.875606	0.143992	0.690272
H383	H	0.375621	-0.313158	0.147575
H384	H	0.875621	0.186842	0.647575
H385	H	0.303983	-0.390489	0.155688
H386	H	0.803983	0.109511	0.655688
H387	H	0.303995	-0.347643	0.112979
H388	H	0.803995	0.152357	0.612979
C389	C	0.026489	-0.152495	0.351676
C390	C	0.526489	0.347505	0.851676
C391	C	0.061957	-0.181795	0.322273
C392	C	0.561957	0.318205	0.822273
H393	H	0.045037	-0.129833	0.374405
H394	H	0.545037	0.370167	0.874405
H395	H	0.005186	-0.175308	0.371633
H396	H	0.505186	0.324692	0.871633
H397	H	0.005195	-0.132466	0.328928
H398	H	0.505195	0.367534	0.828928
H399	H	0.083249	-0.201827	0.345021
H400	H	0.583249	0.298173	0.845021
H401	H	0.083269	-0.158979	0.302314
H402	H	0.583269	0.341021	0.802314
C403	C	0.658901	-0.348337	0.863160
C404	C	1.158901	0.151663	1.363160
C405	C	0.651832	-0.355397	0.809463
C406	C	1.151832	0.144603	1.309463
H407	H	0.636198	-0.371033	0.881673
H408	H	1.136198	0.128967	1.381673
H409	H	0.651271	-0.313212	0.872115
H410	H	1.151271	0.186788	1.372115
H411	H	0.694027	-0.355986	0.872108
H412	H	1.194027	0.144014	1.372108
H413	H	0.616706	-0.347744	0.800514
H414	H	1.116706	0.152256	1.300514
H415	H	0.659458	-0.390530	0.800505
H416	H	1.159458	0.109470	1.300505
H417	H	0.816101	-0.450883	0.191298
H418	H	1.316101	0.049117	0.691298
C419	C	0.233811	-0.384643	0.118694
C420	C	0.733811	0.115357	0.618694
C421	C	0.198339	-0.355349	0.148099
C422	C	0.698339	0.144651	0.648099
H423	H	0.215266	-0.407295	0.095952
H424	H	0.715266	0.092705	0.595952
H425	H	0.255098	-0.404678	0.141436
H426	H	0.755098	0.095322	0.641436
H427	H	0.255121	-0.361821	0.098745
H428	H	0.755121	0.138179	0.598745
H429	H	0.177031	-0.378171	0.168051
H430	H	0.677031	0.121829	0.668051
H431	H	0.177043	-0.335313	0.125354
H432	H	0.677043	0.164687	0.625354
C433	C	0.484990	-0.351287	0.152197
C434	C	0.984990	0.148713	0.652197
C435	C	0.449525	-0.321981	0.181599
C436	C	0.949525	0.178019	0.681599
H437	H	0.466439	-0.373941	0.129463
H438	H	0.966439	0.126059	0.629463
H439	H	0.506276	-0.371319	0.174942
H440	H	1.006276	0.128681	0.674942
H441	H	0.506301	-0.328473	0.132241
H442	H	1.006301	0.171527	0.632241
H443	H	0.428217	-0.344795	0.201559
H444	H	0.928217	0.155205	0.701559
H445	H	0.428230	-0.301946	0.158852
H446	H	0.928230	0.198054	0.658852
H447	H	0.849722	-0.157671	0.801735
H448	H	1.349722	0.342329	1.301735
H449	H	-0.044900	-0.191315	0.312733
H450	H	0.455100	0.308685	0.812733
C451	C	0.658866	-0.348370	0.641158
C452	C	1.158866	0.151630	1.141158
C453	C	0.651811	-0.355414	0.694850
C454	C	1.151811	0.144586	1.194850
H455	H	0.636150	-0.371063	0.622629
H456	H	1.136150	0.128937	1.122629
H457	H	0.693984	-0.356029	0.632216
H458	H	1.193984	0.143971	1.132216
H459	H	0.651241	-0.313241	0.632215
H460	H	1.151241	0.186759	1.132215
H461	H	0.659440	-0.390542	0.703793
H462	H	1.159440	0.109458	1.203793
H463	H	0.616685	-0.347758	0.703795
H464	H	1.116685	0.152242	1.203795
H465	H	0.816327	-1.052289	0.191376
H466	H	1.316327	-0.552289	0.691376
H467	H	0.694880	-0.953311	0.312586
H468	H	1.194880	-0.453311	0.812586
H469	H	-0.045019	-0.312472	0.191188
H470	H	0.454981	0.187528	0.691188
C471	C	0.855202	-0.980910	0.152523
C472	C	1.355202	-0.480910	0.652523
C473	C	0.825824	-0.945432	0.181841
C474	C	1.325824	-0.445432	0.681841
H475	H	0.877904	-0.962369	0.129853
H476	H	1.377904	-0.462369	0.629853
H477	H	0.832440	-1.002238	0.132506
H478	H	1.332440	-0.502238	0.632506
H479	H	0.875192	-1.002178	0.175329
H480	H	1.375192	-0.502178	0.675329
H481	H	0.805830	-0.924167	0.159035
H482	H	1.305830	-0.424167	0.659035
H483	H	0.848588	-0.924096	0.201859
H484	H	1.348588	-0.424096	0.701859
C485	C	0.622435	-0.729910	0.384792
C486	C	1.122435	-0.229910	0.884792
C487	C	0.651787	-0.694387	0.355474
C488	C	1.151787	-0.194387	0.855474
H489	H	0.599712	-0.711404	0.407455
H490	H	1.099712	-0.211404	0.907455
H491	H	0.645212	-0.751167	0.404816
H492	H	1.145212	-0.251167	0.904816
H493	H	0.602468	-0.751244	0.361985
H494	H	1.102468	-0.251244	0.861985
H495	H	0.671757	-0.673055	0.378280
H496	H	1.171757	-0.173055	0.878280
H497	H	0.629008	-0.673120	0.335448
H498	H	1.129008	-0.173120	0.835448
H499	H	0.694729	-0.550015	0.312536
H500	H	1.194729	-0.050015	0.812536
C501	C	0.855030	-0.522189	0.152470
C502	C	1.355030	-0.022189	0.652470
C503	C	0.825681	-0.557708	0.181795
C504	C	1.325681	-0.057708	0.681795
H505	H	0.877740	-0.540697	0.129797
H506	H	1.377740	-0.040697	0.629797
H507	H	0.875004	-0.500861	0.175267
H508	H	1.375004	-0.000861	0.675267
H509	H	0.832246	-0.500925	0.132452
H510	H	1.332246	-0.000925	0.632452
H511	H	0.848465	-0.578970	0.201817
H512	H	1.348465	-0.078970	0.701817
H513	H	0.805705	-0.579046	0.158996
H514	H	1.305705	-0.079046	0.658996
C515	C	0.888597	-0.729746	0.119123
C516	C	1.388597	-0.229746	0.619123
C517	C	0.859215	-0.694260	0.148428
C518	C	1.359215	-0.194260	0.648428
H519	H	0.911308	-0.711211	0.096457
H520	H	1.411308	-0.211211	0.596457
H521	H	0.865838	-0.751073	0.099102
H522	H	1.365838	-0.251073	0.599102
H523	H	0.908577	-0.751014	0.141937
H524	H	1.408577	-0.251014	0.641937
H525	H	0.839231	-0.672995	0.125613
H526	H	1.339231	-0.172995	0.625613
H527	H	0.881976	-0.672924	0.168450
H528	H	1.381976	-0.172924	0.668450
C529	C	0.692212	-0.389482	0.314977
C530	C	1.192212	0.110518	0.814977
C531	C	0.685159	-0.443178	0.322041
C532	C	1.185159	0.056822	0.822041
H533	H	0.669505	-0.370967	0.337648
H534	H	1.169505	0.129033	0.837648
H535	H	0.684577	-0.380563	0.279843
H536	H	1.184577	0.119437	0.779843
H537	H	0.727336	-0.380501	0.322658
H538	H	1.227336	0.119499	0.822658
H539	H	0.650035	-0.452160	0.314356
H540	H	1.150035	0.047840	0.814356
H541	H	0.692790	-0.452101	0.357182
H542	H	1.192790	0.047899	0.857182
H543	H	0.816219	-0.191207	0.451505
H544	H	1.316219	0.308793	0.951505
H545	H	0.849712	-0.157699	0.702689
H546	H	1.349712	0.342301	1.202689
C547	C	0.818758	-0.188561	1.114386
C548	C	1.318758	0.311439	1.614386
C549	C	0.825826	-0.181512	1.060697
C550	C	1.325826	0.318488	1.560697
H551	H	0.841460	-0.165858	1.132922
H552	H	1.341460	0.334142	1.632922
H553	H	0.826392	-0.223683	1.123330
H554	H	1.326392	0.276317	1.623330
H555	H	0.783631	-0.180912	1.123319
H556	H	1.283631	0.319088	1.623319
H557	H	0.860952	-0.189165	1.051763
H558	H	1.360952	0.310835	1.551763
H559	H	0.818196	-0.146382	1.051749
H560	H	1.318196	0.353618	1.551749
H561	H	0.694806	-0.312510	0.550539
H562	H	1.194806	0.187490	1.050539
