data_functionalizedCrystal
_audit_creation_method	'MofGen! by Chris Wilmer'
_symmetry_space_group_name_H-M	'P1'
_symmetry_Int_Tables_number	1
_symmetry_cell_setting	triclinic
loop_
_symmetry_equiv_pos_as_xyz
  x,y,z
_cell_length_a	16.992694
_cell_length_b	16.992695
_cell_length_c	15.455313
_cell_angle_alpha	92.847427
_cell_angle_beta	87.142206
_cell_angle_gamma	90.668223
loop_
_atom_site_label
_atom_site_type_symbol
_atom_site_fract_x
_atom_site_fract_y
_atom_site_fract_z
O1	O	1.054080	0.163694	-0.072023
O2	O	0.825681	0.161862	-0.072048
O3	O	0.938965	0.048579	-0.072029
O4	O	0.940797	0.276978	-0.072042
O5	O	0.932485	0.055028	0.072232
O6	O	0.819202	0.168312	0.072213
O7	O	1.047601	0.170144	0.072238
Cu8	Cu	0.932809	0.169817	0.085398
Cu9	Cu	0.940473	0.162189	-0.085207
O10	O	0.934317	0.283428	0.072219
C11	C	0.793081	0.162731	0.000079
C12	C	0.705597	0.155702	0.000070
C13	C	0.659607	0.223520	0.000066
C14	C	0.577405	0.216911	0.000079
C15	C	0.541197	0.142484	0.000088
C16	C	0.587193	0.074661	0.000094
C17	C	0.669393	0.081271	0.000088
C18	C	0.295881	0.115091	0.000113
C19	C	0.213676	0.108486	0.000116
C20	C	0.203893	0.250737	0.000103
C21	C	0.286095	0.257340	0.000091
C22	C	0.332084	0.189517	0.000102
N23	N	0.457174	0.135727	0.000098
N24	N	0.416105	0.196275	0.000098
C25	C	0.933369	0.022443	0.000102
C26	C	0.926341	-0.065041	0.000101
C27	C	0.994158	-0.111032	0.000109
C28	C	0.987550	-0.193233	0.000100
C29	C	0.913123	-0.229442	0.000089
C30	C	0.845300	-0.183445	0.000078
C31	C	0.851910	-0.101246	0.000081
C32	C	0.885729	-0.474757	0.000074
C33	C	0.879124	-0.556962	0.000074
C34	C	1.021375	-0.566744	0.000094
C35	C	1.027977	-0.484543	0.000102
C36	C	0.960155	-0.438554	0.000087
N37	N	0.906366	-0.313464	0.000082
N38	N	0.966913	-0.354533	0.000087
C39	C	1.080201	0.169275	0.000109
C40	C	1.167685	0.176304	0.000113
C41	C	0.939913	0.309563	0.000087
C42	C	0.946942	0.397047	0.000082
N43	N	0.927425	0.175181	0.205392
N44	N	0.945863	0.156819	-0.205202
C45	C	0.975571	0.127074	0.250795
C46	C	0.971507	0.131139	0.341602
C47	C	0.919301	0.183315	0.387005
C48	C	0.871149	0.231424	0.341596
C49	C	0.875210	0.227355	0.250791
C50	C	0.901772	0.200858	0.658584
C51	C	0.897717	0.204926	0.749395
C52	C	0.998074	0.104639	0.749395
C53	C	1.002133	0.100578	0.658588
C54	C	0.953979	0.148684	0.613187
N55	N	0.915147	0.187473	0.479825
N56	N	0.958129	0.144522	0.520369
H57	H	0.557705	0.014061	0.000114
H58	H	1.042774	-0.230675	0.000109
O59	O	0.785980	-0.056656	-0.000042
C60	C	0.744466	-0.077088	-0.074774
H61	H	0.761009	-0.139275	-0.099679
H62	H	0.678419	-0.074672	-0.057982
H63	H	0.760399	-0.033841	-0.127091
O64	O	1.018251	0.084300	0.385605
C65	C	1.001568	0.004568	0.363447
H66	H	0.974173	-0.000211	0.297524
H67	H	1.058457	-0.030585	0.360330
H68	H	0.958585	-0.019974	0.414567
O69	O	1.044803	0.057791	0.793405
C70	C	1.028097	-0.021936	0.771245
H71	H	1.000712	-0.026707	0.705317
H72	H	1.084975	-0.057107	0.768140
H73	H	0.985099	-0.046464	0.822359
H74	H	1.044644	0.058092	0.621622
H75	H	0.333316	0.059864	0.000122
O76	O	1.066520	-0.075991	0.000079
C77	C	1.124958	-0.134213	0.000104
H78	H	1.100620	-0.192592	-0.027210
H79	H	1.178492	-0.115758	-0.041776
H80	H	1.143019	-0.141370	0.069314
H81	H	1.088584	-0.455068	0.000112
O82	O	0.846923	0.255623	0.793367
C83	C	0.805301	0.297220	0.733825
H84	H	0.805291	0.261993	0.669099
H85	H	0.742014	0.306414	0.760072
H86	H	0.834941	0.356889	0.724156
H87	H	1.076591	-0.604197	0.000106
H88	H	0.818513	-0.586440	0.000079
H89	H	1.018087	0.084591	0.213834
H90	H	0.862564	0.240030	0.621625
O91	O	0.819766	-0.430205	0.000109
C92	C	0.752662	-0.479794	0.000083
H93	H	0.767581	-0.538604	0.027393
H94	H	0.702947	-0.450756	0.041966
H95	H	0.733194	-0.490122	-0.069127
H96	H	0.706838	0.026046	0.000090
O97	O	0.820504	0.282089	0.385833
C98	C	0.827230	0.275355	0.475716
H99	H	0.887417	0.250447	0.488115
H100	H	0.820662	0.335962	0.510215
H101	H	0.779050	0.234210	0.501501
O102	O	0.532687	0.282771	0.000220
C103	C	0.481487	0.286544	0.074925
H104	H	0.506698	0.250519	0.127155
H105	H	0.475100	0.350498	0.099989
H106	H	0.421262	0.261666	0.058042
O107	O	0.828413	0.274168	0.206818
C108	C	0.781449	0.321080	0.266362
H109	H	0.810885	0.326913	0.331086
H110	H	0.774548	0.382010	0.240114
H111	H	0.720941	0.292253	0.276033
H112	H	0.689081	0.284126	0.000058
O113	O	0.773050	-0.218713	-0.000049
C114	C	0.768321	-0.269290	-0.074774
H115	H	0.830202	-0.286964	-0.099676
H116	H	0.732817	-0.324271	-0.057974
H117	H	0.738119	-0.237533	-0.127096
O118	O	0.321137	0.329701	0.000126
C119	C	0.262918	0.388143	0.000104
H120	H	0.204534	0.363804	0.027421
H121	H	0.281371	0.441669	0.041982
H122	H	0.255770	0.406214	-0.069106
H123	H	0.166440	0.305954	0.000096
O124	O	0.178376	0.036242	0.000095
C125	C	0.095963	0.044957	0.000118
H126	H	0.081759	0.103956	-0.027207
H127	H	0.069720	-0.004853	-0.041754
H128	H	0.069767	0.042816	0.069329
