data_functionalizedCrystal
_audit_creation_method	'MofGen! by Chris Wilmer'
_symmetry_space_group_name_H-M	'P1'
_symmetry_Int_Tables_number	1
_symmetry_cell_setting	triclinic
loop_
_symmetry_equiv_pos_as_xyz
  x,y,z
_cell_length_a	12.594517
_cell_length_b	16.994746
_cell_length_c	12.594509
_cell_angle_alpha	90.002845
_cell_angle_beta	90.021327
_cell_angle_gamma	90.009910
loop_
_atom_site_label
_atom_site_type_symbol
_atom_site_fract_x
_atom_site_fract_y
_atom_site_fract_z
Zn1	Zn	1.627311	-0.314008	0.602048
Zn2	Zn	1.627220	-0.445929	0.424148
Zn3	Zn	1.449315	-0.314042	0.424077
Zn4	Zn	1.449316	-0.445874	0.602078
O5	O	1.538290	-0.379963	0.513088
O6	O	1.776245	-0.331517	0.578466
O7	O	1.603583	-0.428471	0.275193
O8	O	1.472964	-0.203657	0.447642
O9	O	1.776178	-0.428438	0.447764
O10	O	1.603737	-0.203632	0.578397
O11	O	1.472876	-0.331574	0.275140
O12	O	1.300369	-0.331521	0.447672
O13	O	1.472965	-0.428345	0.751020
O14	O	1.300370	-0.428377	0.578449
O15	O	1.603738	-0.331464	0.750998
O16	O	1.603583	-0.556303	0.447794
O17	O	1.472877	-0.556262	0.578518
C18	C	1.261749	-0.379947	0.513056
C19	C	1.143444	-0.379960	0.513068
C20	C	1.538234	-0.584903	0.513164
C21	C	1.538243	-0.674225	0.513173
Zn22	Zn	1.449490	-0.945107	0.423894
Zn23	Zn	1.627387	-0.813168	0.424267
Zn24	Zn	1.627211	-0.945096	0.602139
Zn25	Zn	1.449207	-0.813282	0.601922
O26	O	1.538324	-0.879163	0.513055
O27	O	1.473280	-0.927562	0.274998
O28	O	1.776309	-0.830616	0.448109
O29	O	1.603681	-1.055478	0.578429
O30	O	1.603980	-0.830627	0.275272
O31	O	1.473110	-1.055486	0.447473
O32	O	1.776180	-0.927543	0.578791
O33	O	1.603407	-0.927653	0.751056
O34	O	1.300299	-0.830821	0.578059
O35	O	1.472629	-0.830810	0.750897
O36	O	1.300507	-0.927672	0.447263
O37	O	1.603706	-0.702802	0.447899
O38	O	1.472798	-0.702886	0.578421
C39	C	1.074160	-0.327208	0.442074
C40	C	1.003359	-0.399159	0.415937
C41	C	1.003446	-0.308044	0.539223
C42	C	1.074201	-0.451948	0.486880
C43	C	1.074295	-0.360785	0.610212
C44	C	1.003526	-0.432786	0.584112
C45	C	1.815911	-0.379980	0.513120
C46	C	1.934217	-0.379987	0.513133
C47	C	1.538362	-0.379894	0.790709
C48	C	1.538392	-0.379865	0.909014
C49	C	1.538353	-0.174223	0.513005
C50	C	1.538384	-0.084901	0.512971
C51	C	1.538281	-0.379975	0.236547
C52	C	1.538456	-0.379782	0.118242
C53	C	1.467287	-0.432528	0.978280
C54	C	1.564411	-0.451801	1.049081
C55	C	1.441345	-0.360544	1.049011
C56	C	1.635566	-0.399176	0.978258
C57	C	1.512435	-0.307885	0.978182
C58	C	1.609625	-0.327130	1.048952
C59	C	1.537968	-0.879243	0.789596
C60	C	1.537790	-0.879258	0.907901
C61	C	1.260703	-0.879261	0.512595
C62	C	1.142398	-0.879302	0.512399
C63	C	1.538681	-0.879083	0.235435
C64	C	1.538833	-0.879049	0.117129
C65	C	1.814865	-0.879122	0.513453
C66	C	1.933170	-0.879301	0.513446
C67	C	1.608686	-0.932020	0.977272
C68	C	1.634720	-0.860084	1.048131
C69	C	1.511436	-0.951211	1.047842
C70	C	1.563877	-0.807284	0.977202
C71	C	1.440548	-0.898459	0.976907
C72	C	1.466545	-0.826474	1.047733
C73	C	1.073032	-0.826660	0.583418
C74	C	1.002370	-0.807370	0.486197
C75	C	1.002261	-0.898656	0.609240
C76	C	1.073294	-0.859974	0.415130
C77	C	1.073191	-0.951293	0.538239
C78	C	1.002562	-0.932031	0.440952
H79	H	1.105174	-0.282641	0.381963
H80	H	0.972706	-0.477460	0.644177
H81	H	1.105477	-0.344529	0.692311
C82	C	1.690988	-0.266916	1.090613
N83	N	1.752273	-0.221566	1.121994
C84	C	1.746509	-0.421307	0.936451
N85	N	1.830067	-0.437980	0.904959
H86	H	1.716800	-0.843849	1.079409
C87	C	1.689953	-0.992204	0.935458
N88	N	1.751166	-1.037530	0.903959
H89	H	0.972202	-0.415393	0.333813
C90	C	0.961462	-0.225866	0.569078
N91	N	0.929845	-0.163968	0.591557
C92	C	1.482685	-0.225722	0.936071
N93	N	1.460266	-0.163837	0.904350
H94	H	1.359246	-0.344237	1.080092
C95	C	1.329685	-0.920416	0.934631
N96	N	1.246180	-0.936961	0.902793
H97	H	1.407203	-0.477134	0.947249
H98	H	1.586401	-0.512638	1.080223
H99	H	1.406428	-0.781815	1.078469
C100	C	1.593921	-0.725070	0.935460
N101	N	1.616554	-0.663149	0.904017
H102	H	1.489299	-1.012050	1.078875
C103	C	0.960336	-0.725181	0.456454
N104	N	0.928678	-0.663274	0.434060
C105	C	1.114850	-0.766417	0.664659
N106	N	1.146350	-0.721040	0.725843
H107	H	1.104362	-0.843566	0.333061
C108	C	0.961008	-0.992225	0.359513
N109	N	0.929705	-1.037559	0.298169
C110	C	1.115250	-1.033462	0.568025
N111	N	1.146930	-1.095353	0.590470
C112	C	0.960116	-0.920717	0.720086
N113	N	0.928377	-0.937328	0.803577
H114	H	1.105151	-0.512796	0.464695
