data_functionalizedCrystal
_audit_creation_method	'MofGen! by Chris Wilmer'
_symmetry_space_group_name_H-M	'P1'
_symmetry_Int_Tables_number	1
_symmetry_cell_setting	triclinic
loop_
_symmetry_equiv_pos_as_xyz
  x,y,z
_cell_length_a	12.759401
_cell_length_b	12.759394
_cell_length_c	12.759393
_cell_angle_alpha	89.968780
_cell_angle_beta	89.979062
_cell_angle_gamma	90.016362
loop_
_atom_site_label
_atom_site_type_symbol
_atom_site_fract_x
_atom_site_fract_y
_atom_site_fract_z
Zn1	Zn	1.606265	-0.418173	-0.594015
Zn2	Zn	1.606156	-0.593889	-0.418333
Zn3	Zn	1.430564	-0.418229	-0.418350
Zn4	Zn	1.430556	-0.593815	-0.593970
O5	O	1.518385	-0.506026	-0.506167
O6	O	1.753272	-0.441489	-0.570722
O7	O	1.582821	-0.570641	-0.271314
O8	O	1.453921	-0.271200	-0.441678
O9	O	1.753192	-0.570587	-0.441649
O10	O	1.583008	-0.271159	-0.570739
O11	O	1.453815	-0.441585	-0.271327
O12	O	1.283542	-0.441513	-0.441635
O13	O	1.453906	-0.570462	-0.740997
O14	O	1.283536	-0.570516	-0.570662
O15	O	1.582999	-0.441418	-0.741030
O16	O	1.582813	-0.740900	-0.441605
O17	O	1.453800	-0.740846	-0.570645
C18	C	1.245418	-0.506014	-0.506146
C19	C	1.128641	-0.506033	-0.506162
C20	C	1.073804	-0.573307	-0.573241
C21	C	0.964080	-0.573311	-0.573262
C22	C	0.964041	-0.438765	-0.439116
C23	C	1.073763	-0.438756	-0.439101
C24	C	1.518322	-0.778994	-0.506141
C25	C	1.518391	-0.895771	-0.506166
C26	C	1.652833	-0.895773	-0.371897
C27	C	1.720082	-0.950636	-0.304775
C28	C	1.720143	-1.060357	-0.304804
C29	C	1.652951	-1.115219	-0.371964
C30	C	1.585703	-1.060357	-0.439086
C31	C	1.585647	-0.950633	-0.439048
C32	C	1.451268	-1.060354	-0.573358
C33	C	1.451200	-0.950632	-0.573326
C34	C	1.384076	-1.115216	-0.640518
C35	C	1.316821	-1.060354	-0.707636
C36	C	1.316761	-0.950626	-0.707604
C37	C	1.383951	-0.895770	-0.640448
C38	C	1.792419	-0.506040	-0.506188
C39	C	1.909195	-0.506046	-0.506198
C40	C	1.518464	-0.505925	-0.780200
C41	C	1.518497	-0.505883	-0.896977
C42	C	1.518477	-0.231993	-0.506215
C43	C	1.518516	-0.115216	-0.506236
C44	C	1.585721	-0.438679	-0.951858
C45	C	1.585739	-0.438633	-1.061582
C46	C	1.451306	-0.573005	-1.061535
C47	C	1.451284	-0.573044	-0.951813
C48	C	1.518367	-0.506051	-0.233200
C49	C	1.518537	-0.505798	-0.116423
H50	H	0.919435	-0.628091	-0.627885
H51	H	1.118483	-0.628086	-0.627849
O52	O	0.910842	-0.373473	-0.373826
C53	C	0.877138	-0.322305	-0.195205
C54	C	0.937467	-0.396294	-0.269031
H55	H	0.898625	-0.340743	-0.110462
H56	H	0.898755	-0.237591	-0.213713
H57	H	0.789302	-0.333853	-0.206791
H58	H	1.025316	-0.384840	-0.257485
H59	H	0.915763	-0.480981	-0.250504
O60	O	1.127154	-0.373550	-0.373883
C61	C	1.250925	-0.359240	-0.232009
C62	C	1.190543	-0.433202	-0.305810
H63	H	1.302173	-0.407441	-0.176939
H64	H	1.302400	-0.304378	-0.280279
H65	H	1.192837	-0.311140	-0.184124
H66	H	1.248556	-0.481371	-0.353711
H67	H	1.139053	-0.487996	-0.257480
O68	O	1.651036	-0.373335	-0.898752
C69	C	1.784415	-0.240091	-0.910385
C70	C	1.710483	-0.314026	-0.970653
H71	H	1.832513	-0.192136	-0.968491
H72	H	1.736238	-0.185101	-0.859047
H73	H	1.839280	-0.288363	-0.858987
H74	H	1.655603	-0.265839	-1.022108
H75	H	1.758725	-0.369019	-1.021925
H76	H	1.652776	-0.806432	-0.371854
H77	H	1.774791	-0.905957	-0.250096
H78	H	1.774908	-1.105026	-0.250152
O79	O	1.650890	-0.373237	-1.114937
C80	C	1.665099	-0.231376	-1.238877
C81	C	1.591196	-0.305362	-1.178503
H82	H	1.616868	-0.176495	-1.290301
H83	H	1.713109	-0.183307	-1.180877
H84	H	1.720050	-0.279612	-1.290205
H85	H	1.536182	-0.257207	-1.127173
H86	H	1.543260	-0.353435	-1.236559
O87	O	1.653213	-1.221802	-0.372002
C88	C	1.754009	-1.379140	-0.399191
C89	C	1.753864	-1.258436	-0.399161
H90	H	1.835370	-1.408796	-0.421168
H91	H	1.732334	-1.409079	-0.317818
H92	H	1.694394	-1.408906	-0.458685
H93	H	1.813479	-1.228581	-0.339718
H94	H	1.775491	-1.228569	-0.480571
H95	H	1.384136	-1.204557	-0.640541
H96	H	1.262124	-1.105031	-0.762317
O97	O	1.251340	-0.897498	-0.772846
C98	C	1.118060	-0.909089	-0.906092
C99	C	1.192077	-0.969380	-0.832238
H100	H	1.070142	-0.967179	-0.954146
H101	H	1.063040	-0.857835	-0.857857
H102	H	1.166266	-0.857606	-0.961002
H103	H	1.143956	-1.020920	-0.777314
H104	H	1.247100	-1.020568	-0.880539
O105	O	1.386122	-0.638213	-1.114967
C106	C	1.326533	-0.697662	-1.283978
C107	C	1.400424	-0.623775	-1.223601
H108	H	1.338054	-0.685999	-1.371819
H109	H	1.344948	-0.782411	-1.262469
H110	H	1.241831	-0.679224	-1.262332
H111	H	1.485151	-0.642118	-1.245215
H112	H	1.381918	-0.539048	-1.245115
O113	O	1.385868	-0.638182	-0.898448
C114	C	1.244037	-0.652346	-0.774491
C115	C	1.318037	-0.578466	-0.834878
H116	H	1.189192	-0.604097	-0.723063
H117	H	1.195931	-0.700329	-0.832482
H118	H	1.292266	-0.707322	-0.723164
H119	H	1.269889	-0.523427	-0.886206
H120	H	1.366146	-0.530557	-0.776831
H121	H	1.383902	-0.806429	-0.640408
