data_functionalizedCrystal
_audit_creation_method	'MofGen! by Chris Wilmer'
_symmetry_space_group_name_H-M	'P1'
_symmetry_Int_Tables_number	1
_symmetry_cell_setting	triclinic
loop_
_symmetry_equiv_pos_as_xyz
  x,y,z
_cell_length_a	13.339070
_cell_length_b	10.489741
_cell_length_c	11.804365
_cell_angle_alpha	101.953620
_cell_angle_beta	74.875130
_cell_angle_gamma	100.084234
loop_
_atom_site_label
_atom_site_type_symbol
_atom_site_fract_x
_atom_site_fract_y
_atom_site_fract_z
O1	O	1.367264	0.622515	-0.099068
O2	O	1.072122	0.538369	-0.099061
O3	O	1.226407	0.397145	-0.099058
O4	O	1.212978	0.763739	-0.099072
O5	O	1.185789	0.434272	0.098997
O6	O	1.031504	0.575496	0.098994
O7	O	1.326646	0.659642	0.098987
Cu8	Cu	1.175366	0.620959	0.117074
Cu9	Cu	1.223401	0.577052	-0.117149
O10	O	1.172361	0.800866	0.098983
C11	C	1.014020	0.542719	-0.000033
C12	C	0.901409	0.500350	-0.000030
C13	C	1.205084	0.367829	-0.000031
C14	C	1.202049	0.225160	-0.000033
C15	C	0.539023	0.829782	-0.000062
C16	C	0.644827	0.869592	-0.000068
C17	C	0.708977	0.777285	-0.000058
C18	C	0.667314	0.645161	-0.000043
C19	C	0.561501	0.605345	-0.000046
C20	C	0.731456	0.552848	-0.000042
C21	C	0.689793	0.420724	-0.000027
C22	C	0.583990	0.380914	-0.000029
C23	C	0.519840	0.473222	-0.000039
C24	C	0.837269	0.592664	-0.000039
C25	C	0.859747	0.368227	-0.000024
C26	C	0.753943	0.328417	-0.000017
C27	C	1.103883	0.123412	-0.000040
C28	C	1.130230	0.065470	0.097611
C29	C	1.170299	0.028899	-0.097656
C30	C	1.228420	0.169113	0.097698
C31	C	1.268494	0.132530	-0.097657
C32	C	1.294907	0.074645	0.000017
C33	C	1.384748	0.655292	-0.000044
C34	C	1.497361	0.697659	-0.000055
C35	C	1.193684	0.830182	-0.000046
C36	C	1.196721	0.972849	-0.000052
N37	N	1.141588	0.651843	0.281814
N38	N	1.257187	0.546161	-0.281889
C39	C	1.338301	0.471974	0.655767
C40	C	1.363852	0.448605	0.531106
C41	C	1.308288	0.499412	0.468777
C42	C	1.227169	0.573593	0.531121
C43	C	1.201620	0.596973	0.655794
C44	C	1.171607	0.624411	0.468804
C45	C	1.090488	0.698592	0.531148
C46	C	1.064942	0.721968	0.655809
C47	C	1.120506	0.671160	0.718139
C48	C	1.197156	0.601031	0.344131
C49	C	1.060475	0.726030	0.344158
C50	C	1.034923	0.749399	0.468819
H51	H	0.871179	0.700241	-0.000047
Br52	Br	1.342965	0.467695	0.299591
H53	H	1.023150	0.145450	0.000061
Br54	Br	1.413713	0.403047	0.740356
Br55	Br	1.085819	0.702867	0.887329
H56	H	0.433684	0.440814	-0.000033
H57	H	1.263204	0.540633	0.293381
Br58	Br	1.129257	-0.072252	-0.235245
H59	H	0.998898	0.782382	0.706570
Br60	Br	1.473939	0.347941	0.446497
Br61	Br	1.032784	0.015879	0.235216
H62	H	0.720008	0.220837	-0.000015
H63	H	0.968874	0.809800	0.519595
Br64	Br	0.701366	1.048894	-0.000098
H65	H	1.252971	0.229646	0.180346
Br66	Br	1.365891	0.182163	-0.235267
Br67	Br	0.852571	0.831316	-0.000065
Br68	Br	0.451965	0.955035	-0.000100
Br69	Br	0.946803	0.242941	-0.000025
H70	H	0.550074	0.273328	-0.000030
H71	H	1.375682	0.052888	0.000070
Br72	Br	0.985069	0.794998	0.259578
