data_functionalizedCrystal
_audit_creation_method	'MofGen! by Chris Wilmer'
_symmetry_space_group_name_H-M	'P1'
_symmetry_Int_Tables_number	1
_symmetry_cell_setting	triclinic
loop_
_symmetry_equiv_pos_as_xyz
  x,y,z
_cell_length_a	19.805407
_cell_length_b	19.805405
_cell_length_c	19.805399
_cell_angle_alpha	90.029301
_cell_angle_beta	90.019573
_cell_angle_gamma	90.026410
loop_
_atom_site_label
_atom_site_type_symbol
_atom_site_fract_x
_atom_site_fract_y
_atom_site_fract_z
Zn1	Zn	1.034736	-0.269479	0.382712
Zn2	Zn	1.534736	0.230521	0.882712
Zn3	Zn	1.034651	-0.382667	0.269520
Zn4	Zn	1.534651	0.117333	0.769520
Zn5	Zn	0.921550	-0.269498	0.269536
Zn6	Zn	1.421550	0.230502	0.769536
Zn7	Zn	0.921514	-0.382631	0.382667
Zn8	Zn	1.421514	0.117369	0.882667
O9	O	0.978113	-0.326069	0.326109
O10	O	1.478113	0.173931	0.826109
O11	O	1.129441	-0.284501	0.367708
O12	O	1.629441	0.215499	0.867708
O13	O	1.019627	-0.367678	0.174805
O14	O	1.519627	0.132322	0.674805
O15	O	0.936616	-0.174778	0.284575
O16	O	1.436616	0.325222	0.784575
O17	O	1.129378	-0.367660	0.284547
O18	O	1.629378	0.132340	0.784547
O19	O	1.019772	-0.174765	0.367724
O20	O	1.519772	0.325235	0.867724
O21	O	0.936533	-0.284533	0.174817
O22	O	1.436533	0.215467	0.674817
O23	O	0.826829	-0.284498	0.284531
O24	O	1.326829	0.215502	0.784531
O25	O	0.936553	-0.367598	0.477389
O26	O	1.436553	0.132402	0.977389
O27	O	0.826802	-0.367617	0.367648
O28	O	1.326802	0.132383	0.867648
O29	O	1.019737	-0.284466	0.477422
O30	O	1.519737	0.215534	0.977422
O31	O	1.019592	-0.477379	0.284503
O32	O	1.519592	0.022621	0.784503
O33	O	0.936471	-0.477353	0.367632
O34	O	1.436471	0.022647	0.867632
C35	C	0.802257	-0.326056	0.326087
C36	C	1.302257	0.173944	0.826087
C37	C	0.727025	-0.326067	0.326093
C38	C	1.227025	0.173933	0.826093
C39	C	0.691684	-0.369412	0.369302
C40	C	1.191684	0.130588	0.869302
C41	C	0.620996	-0.369413	0.369312
C42	C	1.120996	0.130587	0.869312
C43	C	0.585649	-0.326072	0.326109
C44	C	1.085649	0.173928	0.826109
C45	C	0.620994	-0.282722	0.282898
C46	C	1.120994	0.217278	0.782898
C47	C	0.691681	-0.282718	0.282892
C48	C	1.191681	0.217282	0.782892
C49	C	0.335921	-0.282737	0.282920
C50	C	0.835921	0.217263	0.782920
C51	C	0.265229	-0.282746	0.282928
C52	C	0.765229	0.217254	0.782928
C53	C	0.265235	-0.369432	0.369340
C54	C	0.765235	0.130568	0.869340
C55	C	0.335922	-0.369428	0.369334
C56	C	0.835922	0.130572	0.869334
C57	C	0.371262	-0.326076	0.326126
C58	C	0.871262	0.173924	0.826126
C59	C	0.447910	-0.326074	0.326117
C60	C	0.947910	0.173926	0.826117
C61	C	0.509002	-0.326076	0.326114
C62	C	1.009002	0.173924	0.826114
C63	C	0.978036	-0.501925	0.326076
C64	C	1.478036	-0.001925	0.826076
C65	C	0.978066	-0.577157	0.326084
C66	C	1.478066	-0.077157	0.826084
C67	C	1.021389	-0.612492	0.282845
C68	C	1.521389	-0.112492	0.782845
C69	C	1.021418	-0.683181	0.282860
C70	C	1.521418	-0.183181	0.782860
C71	C	0.978119	-0.718532	0.326111
C72	C	1.478119	-0.218532	0.826111
C73	C	0.934794	-0.683192	0.369356
C74	C	1.434794	-0.183192	0.869356
C75	C	0.934769	-0.612505	0.369344
C76	C	1.434769	-0.112505	0.869344
C77	C	0.934894	-0.968265	0.369406
C78	C	1.434894	-0.468265	0.869406
C79	C	0.934921	-1.038957	0.369413
C80	C	1.434921	-0.538957	0.869413
C81	C	1.021542	-1.038941	0.282922
C82	C	1.521542	-0.538941	0.782922
C83	C	1.021517	-0.968254	0.282910
C84	C	1.521517	-0.468254	0.782910
C85	C	0.978195	-0.932920	0.326157
C86	C	1.478195	-0.432920	0.826157
C87	C	0.978166	-0.856271	0.326141
C88	C	1.478166	-0.356271	0.826141
C89	C	0.978145	-0.795179	0.326124
C90	C	1.478145	-0.295179	0.826124
C91	C	1.154655	-0.326082	0.326131
C92	C	1.654655	0.173918	0.826131
C93	C	1.229887	-0.326088	0.326140
C94	C	1.729887	0.173912	0.826140
C95	C	0.978151	-0.326026	0.502651
C96	C	1.478151	0.173974	1.002651
C97	C	0.978167	-0.326008	0.577883
C98	C	1.478167	0.173992	1.077883
C99	C	0.978207	-0.149526	0.326156
C100	C	1.478207	0.350474	0.826156
C101	C	0.978248	-0.074294	0.326177
C102	C	1.478248	0.425706	0.826177
C103	C	0.978114	-0.326062	0.150253
C104	C	1.478114	0.173938	0.650253
C105	C	0.978229	-0.325890	0.075021
C106	C	1.478229	0.174110	0.575021
C107	C	1.021481	-0.282719	0.613246
C108	C	1.521481	0.217281	1.113246
C109	C	1.021488	-0.282699	0.683934
C110	C	1.521488	0.217301	1.183934
C111	C	0.978184	-0.325973	0.719259
C112	C	1.478184	0.174027	1.219259
C113	C	0.934864	-0.369264	0.683892
C114	C	1.434864	0.130736	1.183892
C115	C	0.934854	-0.369279	0.613204
C116	C	1.434854	0.130721	1.113204
C117	C	0.934902	-0.369201	0.968965
C118	C	1.434902	0.130799	1.468965
C119	C	0.934917	-0.369183	1.039657
C120	C	1.434917	0.130817	1.539657
C121	C	1.021536	-0.282620	1.039695
C122	C	1.521536	0.217380	1.539695
C123	C	1.021527	-0.282636	0.969008
C124	C	1.521527	0.217364	1.469008
C125	C	0.978205	-0.325924	0.933647
C126	C	1.478205	0.174076	1.433647
C127	C	0.978197	-0.325944	0.856998
C128	C	1.478197	0.174056	1.356998
C129	C	0.978194	-0.325957	0.795906
C130	C	1.478194	0.174043	1.295906
H131	H	0.592209	-0.247430	0.247724
H132	H	1.092209	0.252570	0.747724
H133	H	0.899663	-1.067739	0.404639
H134	H	1.399663	-0.567739	0.904639
H135	H	0.720458	-0.404707	0.404481
H136	H	1.220458	0.095293	0.904481
C137	C	0.887256	-0.416823	0.930074
C138	C	1.387256	0.083177	1.430074
C139	C	0.839627	-0.464426	0.968932
C140	C	1.339627	0.035574	1.468932
C141	C	0.791979	-0.512051	0.930037
C142	C	1.291979	-0.012051	1.430037
C143	C	0.791960	-0.512074	0.852284
C144	C	1.291960	-0.012074	1.352284
C145	C	0.839590	-0.464469	0.813421
C146	C	1.339590	0.035531	1.313421
C147	C	0.887238	-0.416843	0.852316
C148	C	1.387238	0.083157	1.352316
H149	H	0.839640	-0.464411	1.026493
H150	H	1.339640	0.035589	1.526493
H151	H	0.756720	-0.547291	0.958806
H152	H	1.256720	-0.047291	1.458806
H153	H	0.756688	-0.547329	0.823492
H154	H	1.256688	-0.047329	1.323492
H155	H	0.839577	-0.464484	0.755860
H156	H	1.339577	0.035516	1.255860
H157	H	0.922497	-0.381603	0.823547
H158	H	1.422497	0.118397	1.323547
C159	C	0.226346	-0.235064	0.235405
C160	C	0.726346	0.264936	0.735405
C161	C	0.265215	-0.187376	0.187879
C162	C	0.765215	0.312624	0.687879
C163	C	0.226332	-0.139698	0.140359
C164	C	0.726332	0.360302	0.640359
C165	C	0.148579	-0.139708	0.140364
C166	C	0.648579	0.360292	0.640364
C167	C	0.109705	-0.187398	0.187891
C168	C	0.609705	0.312602	0.687891
C169	C	0.148588	-0.235076	0.235412
C170	C	0.648588	0.264924	0.735412
H171	H	0.322777	-0.187367	0.187874
H172	H	0.822777	0.312633	0.687874
H173	H	0.255109	-0.104395	0.105176
H174	H	0.755109	0.395605	0.605176
H175	H	0.119795	-0.104414	0.105186
H176	H	0.619795	0.395586	0.605186
H177	H	0.052143	-0.187407	0.187896
H178	H	0.552143	0.312593	0.687896
H179	H	0.119811	-0.270379	0.270595
H180	H	0.619811	0.229621	0.770595
H181	H	0.899618	-0.939502	0.404618
H182	H	1.399618	-0.439502	0.904618
H183	H	1.056809	-0.247370	1.068495
H184	H	1.556809	0.252630	1.568495
C185	C	0.887164	-0.722077	0.416933
C186	C	1.387164	-0.222077	0.916933
C187	C	0.839510	-0.683206	0.464498
C188	C	1.339510	-0.183206	0.964498
C189	C	0.791877	-0.722089	0.512074
C190	C	1.291877	-0.222089	1.012074
C191	C	0.791898	-0.799842	0.512087
C192	C	1.291898	-0.299842	1.012087
C193	C	0.839554	-0.838717	0.464521
C194	C	1.339554	-0.338717	0.964521
C195	C	0.887187	-0.799834	0.416944
C196	C	1.387187	-0.299834	0.916944
H197	H	0.839493	-0.625645	0.464490
H198	H	1.339493	-0.125645	0.964490
H199	H	0.756598	-0.693311	0.547286
H200	H	1.256598	-0.193311	1.047286
H201	H	0.756637	-0.828626	0.547306
H202	H	1.256637	-0.328626	1.047306
H203	H	0.839571	-0.896278	0.464529
H204	H	1.339571	-0.396278	0.964529
H205	H	0.922465	-0.828612	0.381733
H206	H	1.422465	-0.328612	0.881733
H207	H	0.899602	-0.404495	0.712659
H208	H	1.399602	0.095505	1.212659
C209	C	0.887211	-0.416905	0.574306
C210	C	1.387211	0.083095	1.074306
C211	C	0.916507	-0.470057	0.525702
C212	C	1.416507	0.029943	1.025702
C213	C	0.868861	-0.517684	0.486805
C214	C	1.368861	-0.017684	0.986805
C215	C	0.791920	-0.512157	0.496512
C216	C	1.291920	-0.012157	0.996512
C217	C	0.762621	-0.459003	0.545119
C218	C	1.262621	0.040997	1.045119
C219	C	0.810266	-0.411376	0.584015
C220	C	1.310266	0.088624	1.084015
H221	H	0.973467	-0.474150	0.518514
H222	H	1.473467	0.025850	1.018514
H223	H	0.890551	-0.557032	0.450823
H224	H	1.390551	-0.057032	0.950823
H225	H	0.756650	-0.547413	0.467719
H226	H	1.256650	-0.047413	0.967719
H227	H	0.705661	-0.454910	0.552307
H228	H	1.205661	0.045090	1.052307
H229	H	0.788577	-0.372028	0.619997
H230	H	1.288577	0.127972	1.119997
H231	H	0.364698	-0.404723	0.404512
H232	H	0.864698	0.095277	0.904512
C233	C	0.582121	-0.417094	0.416842
C234	C	1.082121	0.082906	0.916842
C235	C	0.621000	-0.464772	0.464361
C236	C	1.121000	0.035228	0.964361
C237	C	0.582126	-0.512453	0.511894
C238	C	1.082126	-0.012453	1.011894
C239	C	0.504373	-0.512457	0.511909
C240	C	1.004373	-0.012457	1.011909
C241	C	0.465490	-0.464778	0.464389
C242	C	0.965490	0.035222	0.964389
C243	C	0.504364	-0.417096	0.416855
C244	C	1.004364	0.082904	0.916855
H245	H	0.678561	-0.464770	0.464351
H246	H	1.178561	0.035230	0.964351
H247	H	0.610910	-0.547749	0.547072
H248	H	1.110910	-0.047749	1.047072
H249	H	0.475596	-0.547754	0.547097
H250	H	0.975596	-0.047754	1.047097
H251	H	0.407928	-0.464779	0.464398
H252	H	0.907928	0.035221	0.964398
H253	H	0.475579	-0.381800	0.381677
H254	H	0.975579	0.118200	0.881677
H255	H	0.899492	-0.583735	0.404555
H256	H	1.399492	-0.083735	0.904555
H257	H	0.236454	-0.404729	0.404524
H258	H	0.736454	0.095271	0.904524
C259	C	0.730560	-0.235037	0.235363
C260	C	1.230560	0.264963	0.735363
C261	C	0.720872	-0.158100	0.241031
C262	C	1.220872	0.341900	0.741031
C263	C	0.759751	-0.110415	0.193505
C264	C	1.259751	0.389585	0.693505
C265	C	0.808318	-0.139667	0.140310
C266	C	1.308318	0.360333	0.640310
C267	C	0.818008	-0.216608	0.134639
C268	C	1.318008	0.283392	0.634639
C269	C	0.779129	-0.264293	0.182166
C270	C	1.279129	0.235707	0.682166
H271	H	0.684919	-0.136443	0.280411
H272	H	1.184919	0.363557	0.780411
H273	H	0.752577	-0.053459	0.197702
H274	H	1.252577	0.446541	0.697702
H275	H	0.837098	-0.104368	0.105128
H276	H	1.337098	0.395632	0.605128
H277	H	0.853961	-0.238265	0.095259
H278	H	1.353961	0.261735	0.595259
H279	H	0.786302	-0.321250	0.177968
H280	H	1.286302	0.178750	0.677968
C281	C	1.069019	-0.573608	0.235267
C282	C	1.569019	-0.073608	0.735267
C283	C	1.063548	-0.583386	0.158318
C284	C	1.563548	-0.083386	0.658318
C285	C	1.111181	-0.544504	0.110740
C286	C	1.611181	-0.044504	0.610740
C287	C	1.164285	-0.495844	0.140111
C288	C	1.664285	0.004156	0.640111
C289	C	1.169758	-0.486064	0.217064
C290	C	1.669758	0.013936	0.717064
C291	C	1.122125	-0.524946	0.264642
C292	C	1.622125	-0.024946	0.764642
H293	H	1.024236	-0.619409	0.136572
H294	H	1.524236	-0.119409	0.636572
H295	H	1.107129	-0.551744	0.053775
H296	H	1.607129	-0.051744	0.553775
H297	H	1.199545	-0.467061	0.104892
H298	H	1.699545	0.032939	0.604892
H299	H	1.209070	-0.450041	0.238810
H300	H	1.709070	0.049959	0.738810
H301	H	1.126176	-0.517706	0.321608
H302	H	1.626176	-0.017706	0.821608
C303	C	0.374780	-0.235064	0.235374
C304	C	0.874780	0.264936	0.735374
C305	C	0.365088	-0.158125	0.241017
C306	C	0.865088	0.341875	0.741017
C307	C	0.403947	-0.110454	0.193461
C308	C	0.903947	0.389546	0.693461
C309	C	0.452498	-0.139721	0.140260
C310	C	0.952498	0.360279	0.640260
C311	C	0.462193	-0.216663	0.134614
C312	C	0.962193	0.283337	0.634614
C313	C	0.423334	-0.264334	0.182171
C314	C	0.923334	0.235666	0.682171
H315	H	0.329145	-0.136457	0.280402
H316	H	0.829145	0.363543	0.780402
H317	H	0.396770	-0.053496	0.197641
H318	H	0.896770	0.446504	0.697641
H319	H	0.481264	-0.104432	0.105056
H320	H	0.981264	0.395568	0.605056
H321	H	0.498135	-0.238332	0.095230
H322	H	0.998135	0.261668	0.595230
H323	H	0.430511	-0.321292	0.177991
H324	H	0.930511	0.178708	0.677991
H325	H	1.056773	-0.939473	0.247688
H326	H	1.556773	-0.439473	0.747688
H327	H	1.056695	-0.711948	0.247649
H328	H	1.556695	-0.211948	0.747649
H329	H	0.899650	-0.404423	1.068417
H330	H	1.399650	0.095577	1.568417
H331	H	1.056820	-1.067719	0.247711
H332	H	1.556820	-0.567719	0.747711
H333	H	1.056747	-0.247482	0.584489
H334	H	1.556747	0.252518	1.084489
C335	C	1.069134	-0.235078	0.722833
C336	C	1.569134	0.264922	1.222833
C337	C	1.116770	-0.187480	0.683978
C338	C	1.616770	0.312520	1.183978
C339	C	1.164415	-0.139855	0.722877
C340	C	1.664415	0.360145	1.222877
C341	C	1.164424	-0.139827	0.800630
C342	C	1.664424	0.360173	1.300630
C343	C	1.116786	-0.187427	0.839489
C344	C	1.616786	0.312573	1.339489
C345	C	1.069141	-0.235052	0.800591
C346	C	1.569141	0.264948	1.300591
H347	H	1.116765	-0.187499	0.626417
H348	H	1.616765	0.312501	1.126417
H349	H	1.199680	-0.104618	0.694110
H350	H	1.699680	0.395382	1.194110
H351	H	1.199693	-0.104572	0.829425
H352	H	1.699693	0.395428	1.329425
H353	H	1.116790	-0.187408	0.897050
H354	H	1.616790	0.312592	1.397050
H355	H	1.033876	-0.270289	0.829357
H356	H	1.533876	0.229711	1.329357
H357	H	1.056792	-0.247400	0.940250
H358	H	1.556792	0.252600	1.440250
