data_functionalizedCrystal
_audit_creation_method	'MofGen! by Chris Wilmer'
_symmetry_space_group_name_H-M	'P1'
_symmetry_Int_Tables_number	1
_symmetry_cell_setting	triclinic
loop_
_symmetry_equiv_pos_as_xyz
  x,y,z
_cell_length_a	14.044220
_cell_length_b	11.026607
_cell_length_c	9.482900
_cell_angle_alpha	78.599815
_cell_angle_beta	79.851548
_cell_angle_gamma	79.112553
loop_
_atom_site_label
_atom_site_type_symbol
_atom_site_fract_x
_atom_site_fract_y
_atom_site_fract_z
O1	O	1.320314	-0.280341	-0.120884
O2	O	1.820314	0.219659	0.379116
O3	O	1.042510	-0.269584	-0.120888
O4	O	1.542510	0.230416	0.379112
O5	O	1.158387	-0.095818	-0.120881
O6	O	1.658387	0.404182	0.379119
O7	O	1.204437	-0.454107	-0.120891
O8	O	1.704437	0.045893	0.379109
O9	O	1.134877	-0.131268	0.120910
O10	O	1.634877	0.368732	0.620910
O11	O	1.018999	-0.305035	0.120903
O12	O	1.518999	0.194965	0.620903
O13	O	1.296803	-0.315791	0.120907
O14	O	1.796803	0.184209	0.620907
Cu15	Cu	1.155754	-0.313650	0.142982
Cu16	Cu	1.655754	0.186350	0.642982
Cu17	Cu	1.183559	-0.271725	-0.142964
Cu18	Cu	1.683559	0.228275	0.357036
O19	O	1.180926	-0.489558	0.120900
O20	O	1.680926	0.010442	0.620900
C21	C	0.994637	-0.282601	0.000007
C22	C	1.494637	0.217399	0.500007
C23	C	0.887015	-0.268557	0.000005
C24	C	1.387015	0.231443	0.500005
C25	C	1.344677	-0.302774	0.000009
C26	C	1.844677	0.197226	0.500009
C27	C	1.452300	-0.316816	0.000001
C28	C	1.952300	0.183184	0.500001
C29	C	1.138137	-0.067412	0.000012
C30	C	1.638137	0.432588	0.500012
C31	C	1.112813	0.070044	0.000007
C32	C	1.612813	0.570044	0.500007
C33	C	1.649342	-0.342492	0.000001
C34	C	2.149342	0.157508	0.500001
C35	C	1.689979	-0.242888	0.000004
C36	C	2.189979	0.257112	0.500004
C37	C	1.799620	-0.257174	0.000005
C38	C	2.299620	0.242826	0.500005
C39	C	1.539691	-0.328207	0.000001
C40	C	2.039691	0.171793	0.500001
C41	C	1.201177	-0.517963	0.000003
C42	C	1.701177	-0.017963	0.500003
C43	C	1.226501	-0.655417	-0.000001
C44	C	1.726501	-0.155417	0.499999
N45	N	1.136205	-0.343137	0.344101
N46	N	1.636205	0.156863	0.844101
C47	C	1.182738	0.136280	0.000006
C48	C	1.682738	0.636280	0.500006
C49	C	1.156566	0.278349	-0.000000
C50	C	1.656566	0.778349	0.500000
N51	N	1.203114	-0.242229	-0.344083
N52	N	1.703114	0.257771	0.155917
C53	C	1.177785	-0.280416	0.416303
C54	C	1.677785	0.219584	0.916303
C55	C	1.161528	-0.304960	0.583719
C56	C	1.661528	0.195040	1.083719
H57	H	1.642437	-0.146869	-0.000098
H58	H	2.142437	0.353131	0.499902
H59	H	1.696892	-0.438486	-0.000003
H60	H	2.196892	0.061514	0.499997
F61	F	1.099258	-0.398898	0.664913
F62	F	1.599258	0.101102	1.164913
H63	H	1.261978	0.087810	0.000016
H64	H	1.761978	0.587810	0.500016
H65	H	1.077322	0.326814	-0.000011
H66	H	1.577322	0.826814	0.499989
H67	H	1.250746	-0.170350	0.593796
H68	H	1.750746	0.329650	1.093796
F69	F	1.330083	0.281245	-0.000006
F70	F	1.830083	0.781245	0.499994
F71	F	1.009239	0.133392	-0.000008
F72	F	1.509239	0.633392	0.499992
H73	H	1.088568	-0.415002	0.406228
H74	H	1.588568	0.084998	0.906228
F75	F	1.239837	-0.186239	0.335104
F76	F	1.739837	0.313761	0.835104
