data_functionalizedCrystal
_audit_creation_method	'MofGen! by Chris Wilmer'
_symmetry_space_group_name_H-M	'P1'
_symmetry_Int_Tables_number	1
_symmetry_cell_setting	triclinic
loop_
_symmetry_equiv_pos_as_xyz
  x,y,z
_cell_length_a	11.026607
_cell_length_b	9.730217
_cell_length_c	11.026607
_cell_angle_alpha	90.001709
_cell_angle_beta	108.586017
_cell_angle_gamma	90.000989
loop_
_atom_site_label
_atom_site_type_symbol
_atom_site_fract_x
_atom_site_fract_y
_atom_site_fract_z
O1	O	1.726727	0.114287	0.533620
O2	O	1.360147	0.114289	0.472857
O3	O	1.513056	0.114283	0.319948
O4	O	1.573819	0.114292	0.686528
O5	O	1.513049	-0.114297	0.319945
O6	O	1.360141	-0.114291	0.472854
O7	O	1.726721	-0.114293	0.533617
Zn8	Zn	1.543430	-0.150584	0.503235
Zn9	Zn	1.543438	0.150580	0.503239
O10	O	1.573813	-0.114288	0.686525
C11	C	1.312485	-0.000001	0.461645
C12	C	1.170471	-0.000000	0.428228
C13	C	1.116821	0.000003	0.520498
C14	C	0.970043	0.000004	0.485962
N15	N	1.543434	-0.356121	0.503233
C16	C	1.678915	-0.356117	0.367898
C17	C	1.746665	-0.428055	0.300236
C18	C	1.746678	-0.571934	0.300238
C19	C	1.678930	-0.643880	0.367907
C20	C	1.611180	-0.571942	0.435569
C21	C	1.611178	-0.428059	0.435562
C22	C	1.475693	-0.571946	0.570895
C23	C	1.475686	-0.428066	0.570902
C24	C	1.407945	-0.643891	0.638563
C25	C	1.340201	-0.571953	0.706234
C26	C	1.340192	-0.428065	0.706230
C27	C	1.407936	-0.356128	0.638564
C28	C	1.774384	-0.000001	0.544828
C29	C	1.916398	0.000007	0.578245
N30	N	1.543443	0.356116	0.503233
C31	C	1.501843	-0.000005	0.272287
C32	C	1.468426	-0.000000	0.130273
C33	C	1.560695	0.000001	0.076624
C34	C	1.526160	0.000006	-0.070155
C35	C	1.585026	0.000004	0.734187
C36	C	1.618443	0.000008	0.876200
H37	H	0.907314	0.000037	0.381393
Br38	Br	1.020937	-0.000014	0.752539
H39	H	1.421590	0.000016	-0.132884
H40	H	1.179555	-0.000002	0.625061
Br41	Br	1.792736	0.000018	-0.019260
H42	H	1.363863	0.000009	0.067540
H43	H	1.801840	-0.630506	0.245137
H44	H	1.107738	0.000032	0.323666
Br45	Br	1.838595	-0.330415	0.208394
H46	H	1.678924	-0.238962	0.367903
H47	H	1.678932	-0.761034	0.367891
Br48	Br	1.407948	-0.839158	0.638558
Br49	Br	1.248254	-0.669595	0.798046
Br50	Br	1.407940	-0.160861	0.638562
Br51	Br	1.248227	-0.330448	0.798050
Br52	Br	1.734981	0.000014	0.181171
