data_functionalizedCrystal
_audit_creation_method	'MofGen! by Chris Wilmer'
_symmetry_space_group_name_H-M	'P1'
_symmetry_Int_Tables_number	1
_symmetry_cell_setting	triclinic
loop_
_symmetry_equiv_pos_as_xyz
  x,y,z
_cell_length_a	21.395362
_cell_length_b	21.295417
_cell_length_c	21.395355
_cell_angle_alpha	89.978549
_cell_angle_beta	89.956060
_cell_angle_gamma	90.046383
loop_
_atom_site_label
_atom_site_type_symbol
_atom_site_fract_x
_atom_site_fract_y
_atom_site_fract_z
Zn1	Zn	0.957860	-0.250415	-0.354573
Zn2	Zn	1.291194	0.082918	-0.021239
Zn3	Zn	1.624527	0.416251	0.312094
Zn4	Zn	0.957763	-0.355667	-0.249790
Zn5	Zn	1.291097	-0.022334	0.083543
Zn6	Zn	1.624430	0.311000	0.416877
Zn7	Zn	0.853075	-0.250445	-0.249774
Zn8	Zn	1.186409	0.082889	0.083559
Zn9	Zn	1.519742	0.416222	0.416893
Zn10	Zn	0.853045	-0.355680	-0.354495
Zn11	Zn	1.186378	-0.022346	-0.021161
Zn12	Zn	1.519712	0.310987	0.312172
O13	O	0.905436	-0.303052	-0.302158
O14	O	1.238769	0.030282	0.031175
O15	O	1.572103	0.363615	0.364509
O16	O	1.045525	-0.264359	-0.340713
O17	O	1.378859	0.068974	-0.007379
O18	O	1.712192	0.402307	0.325954
O19	O	0.943848	-0.341716	-0.162110
O20	O	1.277182	-0.008382	0.171223
O21	O	1.610515	0.324951	0.504557
O22	O	0.867029	-0.162351	-0.263702
O23	O	1.200362	0.170982	0.069631
O24	O	1.533695	0.504315	0.402965
O25	O	1.045454	-0.341687	-0.263729
O26	O	1.378787	-0.008354	0.069604
O27	O	1.712121	0.324979	0.402938
O28	O	0.944014	-0.162330	-0.340697
O29	O	1.277347	0.171004	-0.007364
O30	O	1.610680	0.504337	0.325970
O31	O	0.866934	-0.264409	-0.162098
O32	O	1.200268	0.068924	0.171235
O33	O	1.533601	0.402257	0.504568
O34	O	0.765393	-0.264422	-0.263626
O35	O	1.098727	0.068911	0.069707
O36	O	1.432060	0.402245	0.403041
O37	O	0.866977	-0.341709	-0.442183
O38	O	1.200310	-0.008376	-0.108850
O39	O	1.533643	0.324957	0.224484
O40	O	0.765371	-0.341738	-0.340564
O41	O	1.098704	-0.008404	-0.007231
O42	O	1.432038	0.324929	0.326103
O43	O	0.943984	-0.264372	-0.442240
O44	O	1.277318	0.068961	-0.108907
O45	O	1.610651	0.402295	0.224426
O46	O	0.943819	-0.443758	-0.263653
O47	O	1.277152	-0.110425	0.069680
O48	O	1.610485	0.222909	0.403013
O49	O	0.866883	-0.443767	-0.340579
O50	O	1.200216	-0.110434	-0.007246
O51	O	1.533549	0.222899	0.326087
C52	C	0.742648	-0.303085	-0.302085
C53	C	1.075982	0.030248	0.031248
C54	C	1.409315	0.363582	0.364581
C55	C	0.673007	-0.303114	-0.302069
C56	C	1.006340	0.030219	0.031264
C57	C	1.339674	0.363552	0.364598
C58	C	0.640299	-0.343426	-0.342070
C59	C	0.973632	-0.010093	-0.008737
C60	C	1.306965	0.323241	0.324596
C61	C	0.574863	-0.343411	-0.342098
C62	C	0.908197	-0.010077	-0.008765
C63	C	1.241530	0.323256	0.324568
C64	C	0.542139	-0.303090	-0.302114
C65	C	0.875472	0.030243	0.031220
C66	C	1.208805	0.363577	0.364553
C67	C	0.574855	-0.262771	-0.262109
C68	C	0.908188	0.070563	0.071224
C69	C	1.241522	0.403896	0.404557
C70	C	0.640289	-0.262783	-0.262087
C71	C	0.973622	0.070551	0.071246
C72	C	1.306956	0.403884	0.404580
C73	C	0.438414	-0.298019	-0.245709
C74	C	0.771747	0.035314	0.087625
C75	C	1.105081	0.368648	0.420958
C76	C	0.372981	-0.298011	-0.245730
C77	C	0.706314	0.035322	0.087603
C78	C	1.039648	0.368655	0.420937
C79	C	0.340318	-0.303049	-0.302183
C80	C	0.673651	0.030284	0.031151
C81	C	1.006985	0.363618	0.364484
C82	C	0.373096	-0.308108	-0.358616
C83	C	0.706429	0.025226	-0.025283
C84	C	1.039763	0.358559	0.308051
C85	C	0.438530	-0.308120	-0.358594
C86	C	0.771863	0.025213	-0.025261
C87	C	1.105197	0.358547	0.308073
C88	C	0.471186	-0.303072	-0.302134
C89	C	0.804520	0.030261	0.031200
C90	C	1.137853	0.363594	0.364533
C91	C	0.236657	-0.343346	-0.342218
C92	C	0.569990	-0.010013	-0.008885
C93	C	0.903324	0.323321	0.324449
C94	C	0.171221	-0.343326	-0.342247
C95	C	0.504554	-0.009993	-0.008914
C96	C	0.837887	0.323340	0.324420
C97	C	0.171214	-0.262690	-0.262252
C98	C	0.504547	0.070644	0.071081
C99	C	0.837880	0.403977	0.404414
C100	C	0.236649	-0.262706	-0.262229
C101	C	0.569982	0.070627	0.071104
C102	C	0.903316	0.403961	0.404438
C103	C	0.269367	-0.303038	-0.302211
C104	C	0.602700	0.030296	0.031122
C105	C	0.936033	0.363629	0.364456
C106	C	0.905354	-0.466603	-0.302123
C107	C	1.238687	-0.133270	0.031210
C108	C	1.572020	0.200063	0.364543
C109	C	0.905376	-0.536571	-0.302129
C110	C	1.238709	-0.203238	0.031204
C111	C	1.572043	0.130095	0.364537
C112	C	0.945472	-0.569412	-0.262115
C113	C	1.278806	-0.236079	0.071218
C114	C	1.612139	0.097254	0.404552
C115	C	0.945502	-0.635155	-0.262129
C116	C	1.278835	-0.301821	0.071204
C117	C	1.612168	0.031512	0.404538
C118	C	0.905424	-0.668054	-0.302151
C119	C	1.238757	-0.334721	0.031182
C120	C	1.572090	-0.001387	0.364516
C121	C	0.865324	-0.635205	-0.342173
C122	C	1.198658	-0.301872	-0.008840
C123	C	1.531991	0.031462	0.324494
C124	C	0.865301	-0.569464	-0.342162
C125	C	1.198634	-0.236131	-0.008829
C126	C	1.531967	0.097203	0.324504
N127	N	0.850614	-0.771336	-0.306903
N128	N	1.183947	-0.438002	0.026430
N129	N	1.517280	-0.104669	0.359764
N130	N	0.850638	-0.833787	-0.306910
N131	N	1.183971	-0.500454	0.026424
N132	N	1.517305	-0.167121	0.359757
C133	C	0.905494	-0.866129	-0.302187
C134	C	1.238827	-0.532795	0.031146
C135	C	1.572160	-0.199462	0.364480
N136	N	0.960325	-0.833659	-0.297445
N137	N	1.293659	-0.500326	0.035888
N138	N	1.626992	-0.166993	0.369222
N139	N	0.960300	-0.771202	-0.297435
N140	N	1.293634	-0.437869	0.035898
N141	N	1.626967	-0.104535	0.369231
C142	C	0.905445	-0.739339	-0.302167
C143	C	1.238778	-0.406006	0.031166
C144	C	1.572112	-0.072673	0.364499
C145	C	0.945625	-0.970255	-0.262186
C146	C	1.278959	-0.636922	0.071148
C147	C	1.612292	-0.303588	0.404481
C148	C	0.945656	-1.035999	-0.262204
C149	C	1.278989	-0.702665	0.071129
C150	C	1.612322	-0.369332	0.404463
C151	C	0.865473	-1.036048	-0.342245
C152	C	1.198806	-0.702714	-0.008912
C153	C	1.532140	-0.369381	0.324422
C154	C	0.865448	-0.970305	-0.342230
C155	C	1.198781	-0.636972	-0.008896
C156	C	1.532115	-0.303639	0.324437
C157	C	0.905523	-0.937413	-0.302197
C158	C	1.238857	-0.604079	0.031137
C159	C	1.572190	-0.270746	0.364470
C160	C	1.068859	-0.303019	-0.302231
C161	C	1.402193	0.030315	0.031102
C162	C	1.735526	0.363648	0.364435
C163	C	1.138501	-0.303005	-0.302262
C164	C	1.471834	0.030329	0.031071
C165	C	1.805167	0.363662	0.364404
C166	C	0.905488	-0.303039	-0.465581
C167	C	1.238821	0.030294	-0.132248
C168	C	1.572155	0.363628	0.201085
C169	C	0.905510	-0.303033	-0.535223
C170	C	1.238843	0.030300	-0.201889
C171	C	1.572177	0.363633	0.131444
C172	C	0.905535	-0.138861	-0.302206
C173	C	1.238869	0.194472	0.031127
C174	C	1.572202	0.527805	0.364460
C175	C	0.905578	-0.068893	-0.302227
C176	C	1.238911	0.264440	0.031106
C177	C	1.572245	0.597773	0.364439
C178	C	0.945606	-0.262762	-0.567967
C179	C	1.278940	0.070571	-0.234633
C180	C	1.612273	0.403904	0.098700
C181	C	0.945605	-0.262735	-0.633402
C182	C	1.278939	0.070598	-0.300069
C183	C	1.612272	0.403932	0.033265
C184	C	0.905515	-0.302991	-0.666091
C185	C	1.238848	0.030343	-0.332758
C186	C	1.572182	0.363676	0.000576
C187	C	0.865411	-0.343265	-0.633339
C188	C	1.198744	-0.009931	-0.300006
C189	C	1.532078	0.323402	0.033328
C190	C	0.865409	-0.343286	-0.567905
C191	C	1.198742	-0.009953	-0.234571
C192	C	1.532075	0.323381	0.098762
C193	C	0.900539	-0.359672	-0.769752
C194	C	1.233873	-0.026339	-0.436419
C195	C	1.567206	0.306995	-0.103085
C196	C	0.900546	-0.359652	-0.835185
C197	C	1.233879	-0.026318	-0.501852
C198	C	1.567213	0.307015	-0.168518
C199	C	0.905519	-0.302924	-0.867912
C200	C	1.238852	0.030409	-0.534578
C201	C	1.572186	0.363743	-0.201245
C202	C	0.910498	-0.246215	-0.835198
C203	C	1.243831	0.087118	-0.501864
C204	C	1.577165	0.420452	-0.168531
C205	C	0.910496	-0.246237	-0.769763
C206	C	1.243829	0.087097	-0.436430
C207	C	1.577162	0.420430	-0.103097
C208	C	0.905513	-0.302972	-0.737043
C209	C	1.238846	0.030362	-0.403710
C210	C	1.572180	0.363695	-0.070377
C211	C	0.945616	-0.262620	-0.971608
C212	C	1.278950	0.070713	-0.638275
C213	C	1.612283	0.404047	-0.304942
C214	C	0.945611	-0.262592	-1.037045
C215	C	1.278944	0.070741	-0.703712
C216	C	1.612278	0.404075	-0.370378
C217	C	0.865420	-0.343127	-1.036981
C218	C	1.198753	-0.009794	-0.703647
C219	C	1.532087	0.323540	-0.370314
C220	C	0.865422	-0.343150	-0.971545
C221	C	1.198755	-0.009816	-0.638212
C222	C	1.532089	0.323517	-0.304879
C223	C	0.905523	-0.302897	-0.938863
C224	C	1.238857	0.030436	-0.605530
C225	C	1.572190	0.363770	-0.272196
C226	C	0.905420	-0.303019	-0.139370
C227	C	1.238754	0.030314	0.193963
C228	C	1.572087	0.363648	0.527296
C229	C	0.905519	-0.302847	-0.069729
C230	C	1.238853	0.030486	0.263604
C231	C	1.572186	0.363820	0.596937
H232	H	0.144590	-0.376152	-0.374825
H233	H	0.477924	-0.042818	-0.041491
H234	H	0.811257	0.290515	0.291842
N235	N	0.271923	-0.219229	-0.219074
N236	N	0.605256	0.114104	0.114259
N237	N	0.938590	0.447438	0.447592
H238	H	0.299014	-0.244771	-0.189981
H239	H	0.632348	0.088562	0.143352
H240	H	0.965681	0.421896	0.476685
H241	H	0.299092	-0.190106	-0.244623
H242	H	0.632425	0.143228	0.088710
H243	H	0.965759	0.476561	0.422043
H244	H	0.914548	-0.200022	-0.861842
H245	H	1.247882	0.133311	-0.528509
H246	H	1.581215	0.466645	-0.195176
H247	H	0.465215	-0.312237	-0.404544
H248	H	0.798549	0.021096	-0.071210
H249	H	1.131882	0.354430	0.262123
N250	N	0.822051	-0.534038	-0.385321
N251	N	1.155385	-0.200705	-0.051988
N252	N	1.488718	0.132629	0.281346
H253	H	0.796666	-0.564853	-0.410679
H254	H	1.130000	-0.231519	-0.077346
H255	H	1.463333	0.101814	0.255987
H256	H	0.793058	-0.506812	-0.359774
H257	H	1.126392	-0.173479	-0.026440
H258	H	1.459725	0.159854	0.306893
N259	N	0.135928	-0.219195	-0.219129
N260	N	0.469261	0.114138	0.114204
N261	N	0.802594	0.447472	0.447537
H262	H	0.089511	-0.225302	-0.225214
H263	H	0.422845	0.108031	0.108120
H264	H	0.756178	0.441365	0.441453
H265	H	0.147304	-0.228927	-0.174359
H266	H	0.480638	0.104406	0.158974
H267	H	0.813971	0.437739	0.492308
N268	N	0.822239	-1.071518	-0.385410
N269	N	1.155573	-0.738185	-0.052077
N270	N	1.488906	-0.404852	0.281256
H271	H	0.831943	-1.060040	-0.430188
H272	H	1.165276	-0.726707	-0.096854
H273	H	1.498610	-0.393374	0.236479
H274	H	0.828355	-1.118138	-0.379296
H275	H	1.161689	-0.784805	-0.045962
H276	H	1.495022	-0.451472	0.287371
H277	H	0.346503	-0.312209	-0.404586
H278	H	0.679837	0.021124	-0.071252
H279	H	1.013170	0.354458	0.262081
N280	N	0.473637	-0.292585	-0.184814
N281	N	0.806970	0.040748	0.148519
N282	N	1.140303	0.374082	0.481852
H283	H	0.500742	-0.330929	-0.178860
H284	H	0.834075	0.002405	0.154473
H285	H	1.167409	0.335738	0.487807
H286	H	0.500788	-0.253778	-0.185758
H287	H	0.834121	0.079556	0.147576
H288	H	1.167455	0.412889	0.480909
N289	N	0.539564	-0.219289	-0.218975
N290	N	0.872897	0.114044	0.114359
N291	N	1.206231	0.447378	0.447692
H292	H	0.493148	-0.225403	-0.225053
H293	H	0.826481	0.107931	0.108280
H294	H	1.159815	0.441264	0.441613
H295	H	0.550949	-0.229031	-0.174209
H296	H	0.884283	0.104302	0.159125
H297	H	1.217616	0.437635	0.492458
H298	H	0.263297	-0.376183	-0.374777
H299	H	0.596631	-0.042850	-0.041444
H300	H	0.929964	0.290483	0.291890
H301	H	0.666920	-0.229954	-0.229513
H302	H	1.000253	0.103379	0.103821
H303	H	1.333587	0.436713	0.437154
N304	N	0.822160	-0.386674	-0.668592
N305	N	1.155493	-0.053340	-0.335258
N306	N	1.488827	0.279993	-0.001925
H307	H	0.828244	-0.380548	-0.715013
H308	H	1.161578	-0.047215	-0.381680
H309	H	1.494911	0.286118	-0.048346
H310	H	0.831875	-0.431636	-0.657162
H311	H	1.165208	-0.098303	-0.323829
H312	H	1.498541	0.235031	0.009505
H313	H	0.346298	-0.293896	-0.199778
H314	H	0.679632	0.039437	0.133555
H315	H	1.012965	0.372771	0.466888
N316	N	0.988703	-0.533937	-0.218946
N317	N	1.322037	-0.200604	0.114387
N318	N	1.655370	0.132729	0.447720
H319	H	1.017715	-0.506615	-0.244445
H320	H	1.351048	-0.173282	0.088888
H321	H	1.684382	0.160051	0.422222
H322	H	0.963204	-0.506741	-0.189882
H323	H	1.296537	-0.173407	0.143451
H324	H	1.629871	0.159926	0.476784
N325	N	0.675579	-0.386920	-0.385203
N326	N	1.008913	-0.053586	-0.051870
N327	N	1.342246	0.279747	0.281464
H328	H	0.702783	-0.361385	-0.414278
H329	H	1.036116	-0.028052	-0.080944
H330	H	1.369450	0.305281	0.252389
H331	H	0.702637	-0.416053	-0.359638
H332	H	1.035970	-0.082720	-0.026305
H333	H	1.369303	0.250614	0.307028
N334	N	0.822099	-0.670685	-0.385342
N335	N	1.155432	-0.337351	-0.052009
N336	N	1.488765	-0.004018	0.281325
H337	H	0.828196	-0.717315	-0.379276
H338	H	1.161529	-0.383982	-0.045942
H339	H	1.494863	-0.050649	0.287391
H340	H	0.777352	-0.659250	-0.375533
H341	H	1.110685	-0.325916	-0.042199
H342	H	1.444018	0.007417	0.291134
H343	H	0.978311	-1.062736	-0.229621
H344	H	1.311644	-0.729403	0.103712
H345	H	1.644977	-0.396070	0.437046
N346	N	0.822179	-0.386549	-1.072226
N347	N	1.155512	-0.053216	-0.738893
N348	N	1.488846	0.280117	-0.405559
H349	H	0.777418	-0.376785	-1.060805
H350	H	1.110752	-0.043451	-0.727471
H351	H	1.444085	0.289882	-0.394138
H352	H	0.828315	-0.380406	-1.118637
H353	H	1.161648	-0.047073	-0.785303
H354	H	1.494982	0.286260	-0.451970
N355	N	0.822165	-0.386575	-0.936224
N356	N	1.155499	-0.053242	-0.602890
N357	N	1.488832	0.280091	-0.269557
H358	H	0.796763	-0.412070	-0.966859
H359	H	1.130096	-0.078736	-0.633526
H360	H	1.463430	0.254597	-0.300192
H361	H	0.847638	-0.415715	-0.909085
H362	H	1.180971	-0.082382	-0.575751
H363	H	1.514305	0.250952	-0.242418
N364	N	0.988750	-0.670587	-0.218970
N365	N	1.322084	-0.337253	0.114363
N366	N	1.655417	-0.003920	0.447697
H367	H	1.014135	-0.639774	-0.193609
H368	H	1.347468	-0.306440	0.139724
H369	H	1.680801	0.026893	0.473057
H370	H	0.963265	-0.697908	-0.189951
H371	H	1.296599	-0.364575	0.143383
H372	H	1.629932	-0.031241	0.476716
H373	H	0.978259	-0.943473	-0.229590
H374	H	1.311592	-0.610139	0.103743
H375	H	1.644926	-0.276806	0.437076
N376	N	0.822197	-0.934879	-0.385384
N377	N	1.155530	-0.601546	-0.052050
N378	N	1.488863	-0.268212	0.281283
H379	H	0.796810	-0.965694	-0.410740
H380	H	1.130143	-0.632361	-0.077406
H381	H	1.463477	-0.299028	0.255927
H382	H	0.793205	-0.907652	-0.359836
H383	H	1.126538	-0.574319	-0.026502
H384	H	1.459872	-0.240985	0.306831
H385	H	0.978259	-0.229985	-0.541361
H386	H	1.311593	0.103349	-0.208027
H387	H	1.644926	0.436682	0.125306
H388	H	0.978255	-0.229938	-0.660067
H389	H	1.311588	0.103395	-0.326734
H390	H	1.644922	0.436729	0.006599
N391	N	0.915867	-0.185078	-0.734478
N392	N	1.249201	0.148255	-0.401144
N393	N	1.582534	0.481588	-0.067811
H394	H	0.919020	-0.149136	-0.765134
H395	H	1.252353	0.184198	-0.431801
H396	H	1.585687	0.517531	-0.098468
H397	H	0.877695	-0.179250	-0.707300
H398	H	1.211029	0.154084	-0.373967
H399	H	1.544362	0.487417	-0.040633
N400	N	0.988864	-0.219206	-0.936352
N401	N	1.322197	0.114127	-0.603019
N402	N	1.655530	0.447461	-0.269686
H403	H	1.014262	-0.193685	-0.967028
H404	H	1.347595	0.139648	-0.633694
H405	H	1.680928	0.472981	-0.300361
H406	H	0.963377	-0.190090	-0.909183
H407	H	1.296710	0.143243	-0.575850
H408	H	1.630044	0.476576	-0.242516
N409	N	0.895178	-0.420811	-0.870469
N410	N	1.228512	-0.087478	-0.537135
N411	N	1.561845	0.245855	-0.203802
H412	H	0.931386	-0.448982	-0.859103
H413	H	1.264720	-0.115649	-0.525770
H414	H	1.598053	0.217684	-0.192437
H415	H	0.854592	-0.442187	-0.859038
H416	H	1.187925	-0.108854	-0.525705
H417	H	1.521258	0.224480	-0.192372
N418	N	0.988848	-0.219143	-1.072365
N419	N	1.322182	0.114190	-0.739032
N420	N	1.655515	0.447524	-0.405699
H421	H	1.014248	-0.193647	-1.041730
H422	H	1.347582	0.139687	-0.708396
H423	H	1.680915	0.473020	-0.375063
H424	H	1.017828	-0.244746	-1.099541
H425	H	1.351162	0.088588	-0.766208
H426	H	1.684495	0.421921	-0.432875
H427	H	0.896322	-0.405855	-0.743111
H428	H	1.229656	-0.072521	-0.409778
H429	H	1.562989	0.260812	-0.076445
H430	H	0.832755	-0.376079	-0.541245
H431	H	1.166088	-0.042746	-0.207912
H432	H	1.499421	0.290588	0.125422
H433	H	0.548227	-0.376237	-0.374675
H434	H	0.881560	-0.042904	-0.041341
H435	H	1.214894	0.290430	0.291992
