data_functionalizedCrystal
_audit_creation_method	'MofGen! by Chris Wilmer'
_symmetry_space_group_name_H-M	'P1'
_symmetry_Int_Tables_number	1
_symmetry_cell_setting	triclinic
loop_
_symmetry_equiv_pos_as_xyz
  x,y,z
_cell_length_a	9.065218
_cell_length_b	15.944551
_cell_length_c	7.540329
_cell_angle_alpha	89.995457
_cell_angle_beta	89.996962
_cell_angle_gamma	84.257312
loop_
_atom_site_label
_atom_site_type_symbol
_atom_site_fract_x
_atom_site_fract_y
_atom_site_fract_z
O1	O	1.957520	0.123161	-0.147492
O2	O	1.527999	0.133263	-0.147494
O3	O	1.754488	0.006026	-0.147477
O4	O	1.731030	0.250398	-0.147509
O5	O	1.754475	0.006024	0.147488
O6	O	1.527985	0.133261	0.147471
O7	O	1.957506	0.123159	0.147473
Cu8	Cu	1.742744	0.128210	0.174405
Cu9	Cu	1.742760	0.128212	-0.174426
O10	O	1.731016	0.250396	0.147456
C11	C	1.473028	0.132291	-0.000012
C12	C	1.309253	0.129388	-0.000013
C13	C	1.753508	-0.025276	0.000006
C14	C	1.750588	-0.118544	0.000007
C15	C	1.603221	-0.334518	-0.000019
C16	C	1.671647	-0.395017	0.145418
C17	C	1.745306	-0.289310	-0.000007
C18	C	1.671693	-0.394999	-0.145395
C19	C	1.740194	-0.454262	-0.000028
C20	C	1.813771	-0.348582	0.145549
C21	C	1.813798	-0.348557	-0.145394
C22	C	1.882327	-0.409038	0.000078
C23	C	1.748247	-0.194286	0.000007
C24	C	1.737264	-0.549285	-0.000029
C25	C	2.012477	0.124131	-0.000013
C26	C	2.176252	0.127034	-0.000024
C27	C	1.731997	0.281698	-0.000031
C28	C	1.734917	0.374966	-0.000043
N29	N	1.742744	0.128208	0.419753
N30	N	1.742773	0.128207	-0.419774
H31	H	1.485283	-0.302103	0.000126
O32	O	1.885639	-0.324103	-0.292026
C33	C	2.113175	-0.335706	-0.459482
C34	C	2.031998	-0.363488	-0.293355
H35	H	2.231529	-0.367523	-0.460593
H36	H	2.052557	-0.354608	-0.583442
H37	H	2.115554	-0.264362	-0.457336
H38	H	2.029596	-0.434829	-0.295329
H39	H	2.092643	-0.344524	-0.169469
O40	O	2.023169	-0.447500	0.000483
C41	C	2.257126	-0.467407	0.154126
C42	C	2.097657	-0.423810	0.153900
H43	H	2.317406	-0.448257	0.278132
H44	H	2.253972	-0.538704	0.153066
H45	H	2.318094	-0.447490	0.031260
H46	H	2.036597	-0.443659	0.276746
H47	H	2.100919	-0.352521	0.154868
O48	O	1.599812	-0.419649	0.291913
C49	C	1.395457	-0.489084	0.405910
C50	C	1.476699	-0.461261	0.239867
H51	H	1.295887	-0.522718	0.363890
H52	H	1.474261	-0.533747	0.488098
H53	H	1.356025	-0.431324	0.488679
H54	H	1.516138	-0.518970	0.156961
H55	H	1.397842	-0.416569	0.157811
H56	H	1.873812	-0.328137	0.268639
H57	H	1.611584	-0.415530	-0.268358
