data_functionalizedCrystal
_audit_creation_method	'MofGen! by Chris Wilmer'
_symmetry_space_group_name_H-M	'P1'
_symmetry_Int_Tables_number	1
_symmetry_cell_setting	triclinic
loop_
_symmetry_equiv_pos_as_xyz
  x,y,z
_cell_length_a	6.817900
_cell_length_b	15.301126
_cell_length_c	15.301140
_cell_angle_alpha	94.939987
_cell_angle_beta	104.177739
_cell_angle_gamma	104.177575
loop_
_atom_site_label
_atom_site_type_symbol
_atom_site_fract_x
_atom_site_fract_y
_atom_site_fract_z
V1	V	-4.037905	-0.125370	-0.281420
O2	O	-4.021623	0.005396	-0.275781
O3	O	-3.992791	-0.247983	-0.279767
O4	O	-3.992792	-0.123717	-0.404034
O5	O	-4.021622	-0.119730	-0.150654
V6	V	-4.520681	-0.109696	-0.265747
O7	O	-4.300801	-0.159751	-0.315802
O8	O	-4.707981	-0.075314	-0.231365
O9	O	-4.342588	0.012917	-0.267400
O10	O	-4.654359	-0.240462	-0.271386
O11	O	-4.654360	-0.115336	-0.396513
O12	O	-4.342587	-0.111349	-0.143133
C13	C	-3.838484	-0.277865	-0.275397
C14	C	-3.882907	-0.378105	-0.274863
C15	C	-4.086135	-0.429800	-0.279119
C16	C	-4.127866	-0.523986	-0.278622
C17	C	-3.966363	-0.566475	-0.273862
C18	C	-3.763119	-0.514773	-0.269608
C19	C	-3.721394	-0.420589	-0.270111
C20	C	-3.850098	-0.711082	-0.268556
C21	C	-3.891824	-0.805271	-0.268051
C22	C	-4.256570	-0.814479	-0.277067
C23	C	-4.214845	-0.720295	-0.277571
C24	C	-4.011603	-0.668599	-0.273315
C25	C	-3.838485	-0.119350	-0.433911
C26	C	-3.882906	-0.118810	-0.534150
C27	C	-4.086136	-0.123071	-0.585846
C28	C	-4.127862	-0.122563	-0.680030
C29	C	-3.966358	-0.117800	-0.722518
C30	C	-3.763109	-0.113536	-0.670815
C31	C	-3.721382	-0.114038	-0.576631
C32	C	-3.850094	-0.112493	-0.867125
C33	C	-3.891823	-0.111993	-0.961316
C34	C	-4.256573	-0.121018	-0.970524
C35	C	-4.214847	-0.121520	-0.876340
C36	C	-4.011601	-0.117257	-0.824644
C37	C	-4.160236	0.042794	-0.271767
C38	C	-4.095052	0.143033	-0.272308
C39	C	-4.160236	-0.115719	-0.113251
C40	C	-4.095053	-0.116254	-0.013012
H41	H	-3.684604	-0.668994	-0.265098
H42	H	-3.760306	-0.108110	-0.995906
C43	C	-3.497828	-0.363724	-0.265426
N44	N	-3.329433	-0.320895	-0.261898
C45	C	-4.263812	-0.128309	-0.539118
N46	N	-4.397643	-0.132250	-0.503925
H47	H	-4.217651	-0.395212	-0.282987
C48	C	-4.351423	-0.127240	-0.736891
N49	N	-4.519816	-0.130758	-0.779716
H50	H	-3.631626	-0.549375	-0.265738
C51	C	-4.392525	-0.673565	-0.282838
N52	N	-4.526364	-0.638370	-0.286820
H53	H	-4.346364	-0.125404	-0.841751
H54	H	-3.760325	-0.839867	-0.264202
C55	C	-4.480145	-0.125702	-1.027392
N56	N	-4.648536	-0.129233	-1.070228
H57	H	-3.631609	-0.109653	-0.705415
H58	H	-3.555882	-0.110546	-0.534538
C59	C	-4.480139	-0.871345	-0.281748
N60	N	-4.648525	-0.914181	-0.285269
H61	H	-4.293352	-0.566073	-0.282090
H62	H	-3.684575	-0.108989	-0.825031
