data_functionalizedCrystal
_audit_creation_method	'MofGen! by Chris Wilmer'
_symmetry_space_group_name_H-M	'P1'
_symmetry_Int_Tables_number	1
_symmetry_cell_setting	triclinic
loop_
_symmetry_equiv_pos_as_xyz
  x,y,z
_cell_length_a	12.759401
_cell_length_b	25.639240
_cell_length_c	12.759393
_cell_angle_alpha	89.955715
_cell_angle_beta	89.981504
_cell_angle_gamma	90.033035
loop_
_atom_site_label
_atom_site_type_symbol
_atom_site_fract_x
_atom_site_fract_y
_atom_site_fract_z
Zn1	Zn	1.606123	-0.208116	-0.593890
Zn2	Zn	1.605962	-0.295563	-0.418171
Zn3	Zn	1.430425	-0.208143	-0.418229
Zn4	Zn	1.430358	-0.295523	-0.593813
O5	O	1.518217	-0.251836	-0.506026
O6	O	1.753123	-0.219721	-0.570589
O7	O	1.582637	-0.283995	-0.271158
O8	O	1.453827	-0.134975	-0.441588
O9	O	1.753005	-0.283968	-0.441489
O10	O	1.582912	-0.134954	-0.570645
O11	O	1.453671	-0.219768	-0.271200
O12	O	1.283395	-0.219729	-0.441513
O13	O	1.453713	-0.283899	-0.740844
O14	O	1.283346	-0.283926	-0.570513
O15	O	1.582847	-0.219682	-0.740901
O16	O	1.582573	-0.368723	-0.441414
O17	O	1.453557	-0.368693	-0.570457
C18	C	1.245250	-0.251827	-0.506011
C19	C	1.128473	-0.251835	-0.506030
C20	C	0.963882	-0.285322	-0.573102
C21	C	1.073606	-0.285316	-0.573091
C22	C	1.073611	-0.218362	-0.438968
C23	C	0.963889	-0.218371	-0.438974
C24	C	1.518069	-0.387679	-0.505943
C25	C	1.518101	-0.445793	-0.505943
C26	C	1.585465	-0.806107	-0.573347
C27	C	1.585496	-0.860711	-0.573368
O28	O	1.642594	-0.888906	-0.630593
N29	N	1.518363	-0.888075	-0.506127
C30	C	1.451187	-0.860832	-0.438868
O31	O	1.394088	-0.889121	-0.381677
C32	C	1.451152	-0.806229	-0.438853
C33	C	1.518297	-0.778868	-0.506091
C34	C	1.652603	-0.778745	-0.640580
C35	C	1.652574	-0.724145	-0.640557
C36	C	1.585405	-0.696906	-0.573301
C37	C	1.518267	-0.724267	-0.506068
C38	C	1.383971	-0.778987	-0.371599
C39	C	1.383941	-0.724380	-0.371591
C40	C	1.451086	-0.697019	-0.438829
C41	C	1.451068	-0.642427	-0.438788
N42	N	1.518201	-0.615063	-0.506029
C43	C	1.585370	-0.642302	-0.573286
C44	C	1.451266	-0.975503	-0.438906
C45	C	1.451306	-1.030105	-0.438916
C46	C	1.585613	-1.029980	-0.573418
C47	C	1.585578	-0.975377	-0.573403
C48	C	1.518398	-0.948139	-0.506148
C49	C	1.585302	-0.527637	-0.573232
C50	C	1.585270	-0.473032	-0.573200
C51	C	1.450959	-0.473162	-0.438702
C52	C	1.450995	-0.527762	-0.438730
C53	C	1.518170	-0.554999	-0.506003
O54	O	1.393996	-0.614198	-0.381596
O55	O	1.642450	-0.614006	-0.630477
C56	C	1.792250	-0.251846	-0.506041
C57	C	1.909027	-0.251850	-0.506047
C58	C	1.518291	-0.251783	-0.780059
C59	C	1.518322	-0.251761	-0.896836
C60	C	1.518395	-0.115463	-0.506131
C61	C	1.518471	-0.057349	-0.506176
C62	C	1.451193	-0.218312	-0.951720
C63	C	1.451218	-0.218296	-1.061444
C64	C	1.585508	-0.285179	-1.061391
C65	C	1.585478	-0.285197	-0.951669
C66	C	1.518205	-0.251851	-0.233058
C67	C	1.518377	-0.251726	-0.116282
H68	H	1.118264	-0.312572	-0.627693
Cl69	Cl	1.142587	-0.176274	-0.354659
Cl70	Cl	0.894917	-0.327411	-0.657418
Cl71	Cl	0.894923	-0.176291	-0.354666
H72	H	1.329232	-0.702205	-0.316825
Cl73	Cl	1.366597	-0.562160	-0.354188
Cl74	Cl	1.669688	-0.438638	-0.657733
H75	H	1.396554	-0.191059	-1.106125
Cl76	Cl	1.366764	-0.176280	-0.882791
Cl77	Cl	1.669756	-0.561869	-0.657802
H78	H	1.707245	-0.701870	-0.695311
Cl79	Cl	1.737052	-0.812979	-0.725146
H80	H	1.640252	-0.953102	-0.628154
H81	H	1.640185	-0.312401	-1.106049
Cl82	Cl	1.670053	-1.064234	-0.657971
Cl83	Cl	1.669871	-0.327253	-0.882667
H84	H	1.396641	-1.052378	-0.384152
Cl85	Cl	1.366810	-0.941266	-0.354341
H86	H	1.329295	-0.801255	-0.316847
H87	H	1.396274	-0.450975	-0.383939
