data_functionalizedCrystal
_audit_creation_method	'MofGen! by Chris Wilmer'
_symmetry_space_group_name_H-M	'P1'
_symmetry_Int_Tables_number	1
_symmetry_cell_setting	triclinic
loop_
_symmetry_equiv_pos_as_xyz
  x,y,z
_cell_length_a	16.120566
_cell_length_b	21.395361
_cell_length_c	16.120297
_cell_angle_alpha	87.133067
_cell_angle_beta	89.874982
_cell_angle_gamma	87.126572
loop_
_atom_site_label
_atom_site_type_symbol
_atom_site_fract_x
_atom_site_fract_y
_atom_site_fract_z
Zn1	Zn	-1.247386	0.317418	-0.534590
Zn2	Zn	-0.747386	0.817418	-0.034590
Zn3	Zn	-1.254321	0.417160	-0.395520
Zn4	Zn	-0.754321	0.917160	0.104480
Zn5	Zn	-1.115378	0.306832	-0.388503
Zn6	Zn	-0.615378	0.806832	0.111497
Zn7	Zn	-1.108277	0.416584	-0.527482
Zn8	Zn	-0.608277	0.916584	-0.027482
O9	O	-1.181341	0.364498	-0.461524
O10	O	-0.681341	0.864498	0.038476
O11	O	-1.364671	0.335321	-0.522054
O12	O	-0.864671	0.835321	-0.022054
O13	O	-1.241764	0.398335	-0.278225
O14	O	-0.741764	0.898335	0.221775
O15	O	-1.132959	0.220562	-0.407920
O16	O	-0.632959	0.720562	0.092080
O17	O	-1.369766	0.408601	-0.419880
O18	O	-0.869766	0.908601	0.080120
O19	O	-1.229944	0.228340	-0.515250
O20	O	-0.729944	0.728340	-0.015250
O21	O	-1.139683	0.317277	-0.273069
O22	O	-0.639683	0.817277	0.226931
O23	O	-0.998071	0.316719	-0.401027
O24	O	-0.498071	0.816719	0.098973
O25	O	-1.120857	0.407619	-0.644789
O26	O	-0.620857	0.907619	-0.144789
O27	O	-0.992854	0.397353	-0.503134
O28	O	-0.492854	0.897353	-0.003134
O29	O	-1.223059	0.334762	-0.650012
O30	O	-0.723059	0.834762	-0.150012
O31	O	-1.234878	0.504757	-0.412987
O32	O	-0.734878	1.004757	0.087013
O33	O	-1.127581	0.504334	-0.509938
O34	O	-0.627581	1.004334	-0.009938
C35	C	-0.965290	0.355825	-0.450548
C36	C	-0.465290	0.855825	0.049452
C37	C	-0.872862	0.352130	-0.445872
C38	C	-0.372862	0.852130	0.054128
C39	C	-0.703634	0.345371	-0.437342
C40	C	-0.203634	0.845371	0.062658
C41	C	-0.659887	0.383680	-0.485712
C42	C	-0.159887	0.883680	0.014288
C43	C	-0.565723	0.379919	-0.480966
C44	C	-0.065723	0.879919	0.019034
C45	C	-0.797807	0.349131	-0.442087
C46	C	-0.297807	0.849131	0.057913
C47	C	-0.398235	0.373207	-0.472529
C48	C	0.101765	0.873207	0.027471
C49	C	-0.490664	0.376922	-0.477184
C50	C	0.009336	0.876922	0.022816
C51	C	-1.181233	0.527280	-0.461472
C52	C	-0.681233	1.027280	0.038528
C53	C	-1.181262	0.596923	-0.461481
C54	C	-0.681262	1.096923	0.038519
C55	C	-1.170392	0.372307	-0.678416
C56	C	-0.670392	0.872307	-0.178416
C57	C	-1.165727	0.375635	-0.770843
C58	C	-0.665727	0.875635	-0.270843
C59	C	-1.181470	0.201083	-0.461595
C60	C	-0.681470	0.701083	0.038405
C61	C	-1.181525	0.131445	-0.461625
C62	C	-0.681525	0.631445	0.038375
C63	C	-1.237176	0.629839	-0.411055
C64	C	-0.737176	1.129839	0.088945
C65	C	-1.237214	0.695277	-0.411076
C66	C	-0.737214	1.195277	0.088924
C67	C	-1.181323	0.727794	-0.461513
C68	C	-0.681323	1.227794	0.038487
C69	C	-1.125405	0.694870	-0.511949
C70	C	-0.625405	1.194870	-0.011949
C71	C	-1.125374	0.629434	-0.511933
C72	C	-0.625374	1.129434	-0.011933
C73	C	-1.106118	0.828743	-0.464234
C74	C	-0.606118	1.328743	0.035766
C75	C	-1.106148	0.894178	-0.464244
C76	C	-0.606148	1.394178	0.035756
C77	C	-1.181417	0.929621	-0.461567
C78	C	-0.681417	1.429621	0.038433
C79	C	-1.256660	0.899621	-0.458863
C80	C	-0.756660	1.399621	0.041137
C81	C	-1.256630	0.834185	-0.458847
C82	C	-0.756630	1.334185	0.041153
C83	C	-1.181350	0.798749	-0.461536
C84	C	-0.681350	1.298749	0.038464
C85	C	-1.237377	1.033492	-0.411161
C86	C	-0.737377	1.533492	0.088839
C87	C	-1.237416	1.098931	-0.411187
C88	C	-0.737416	1.598931	0.088813
C89	C	-1.125600	1.098523	-0.512055
C90	C	-0.625600	1.598523	-0.012055
C91	C	-1.125568	1.033086	-0.512033
C92	C	-0.625568	1.533086	-0.012033
C93	C	-1.181456	1.000574	-0.461582
C94	C	-0.681456	1.500574	0.038418
C95	C	-1.157178	0.381695	-0.940066
C96	C	-0.657178	0.881695	-0.440066
C97	C	-1.205667	0.347121	-0.983841
C98	C	-0.705667	0.847121	-0.483841
C99	C	-1.200911	0.350492	-1.078003
C100	C	-0.700911	0.850492	-0.578003
C101	C	-1.161933	0.378324	-0.845896
C102	C	-0.661933	0.878324	-0.345896
C103	C	-1.192294	0.356677	-0.245477
C104	C	-0.692294	0.856677	0.254523
C105	C	-1.197121	0.353179	-0.153059
C106	C	-0.697121	0.853179	0.346941
H107	H	-1.282685	0.603370	-0.369977
H108	H	-0.782685	1.103370	0.130023
C109	C	-1.023310	0.789761	-0.467158
C110	C	-0.523310	1.289761	0.032842
N111	N	-0.960940	0.760400	-0.469354
N112	N	-0.460940	1.260400	0.030646
C113	C	-0.704827	0.431810	-0.546465
C114	C	-0.204827	0.931810	-0.046465
N115	N	-0.738680	0.468061	-0.592219
N116	N	-0.238680	0.968061	-0.092219
C117	C	-1.266582	0.303716	-0.938937
C118	C	-0.766582	0.803716	-0.438937
N119	N	-1.312466	0.271028	-0.905111
N120	N	-0.812466	0.771028	-0.405111
C121	C	-0.658695	0.297252	-0.376583
C122	C	-0.158695	0.797252	0.123417
N123	N	-0.624837	0.261011	-0.330818
N124	N	-0.124837	0.761011	0.169182
C125	C	-1.096273	0.425101	-0.984971
C126	C	-0.596273	0.925101	-0.484971
N127	N	-1.050400	0.457794	-1.018803
N128	N	-0.550400	0.957794	-0.518803
H129	H	-1.044880	0.918598	-0.466437
H130	H	-0.544880	1.418598	0.033563
C131	C	-1.339395	0.801187	-0.455872
C132	C	-0.839395	1.301187	0.044128
N133	N	-1.401736	0.776334	-0.453632
N134	N	-0.901736	1.276334	0.046368
C135	C	-1.339464	0.938604	-0.455925
C136	C	-0.839464	1.438604	0.044075
N137	N	-1.401829	0.967969	-0.453713
N138	N	-0.901829	1.467969	0.046287
C139	C	-1.298722	0.731492	-0.355597
C140	C	-0.798722	1.231492	0.144403
N141	N	-1.345048	0.758767	-0.313808
N142	N	-0.845048	1.258767	0.186192
H143	H	-1.282953	1.125731	-0.370126
H144	H	-0.782953	1.625731	0.129874
H145	H	-1.282887	1.007020	-0.370082
H146	H	-0.782887	1.507020	0.129918
C147	C	-1.064120	1.134289	-0.567538
C148	C	-0.564120	1.634289	-0.067538
N149	N	-1.017814	1.161231	-0.609331
N150	N	-0.517814	1.661231	-0.109331
C151	C	-1.063922	0.730641	-0.567427
C152	C	-0.563922	1.230641	-0.067427
N153	N	-1.017612	0.757583	-0.609215
N154	N	-0.517612	1.257583	-0.109215
H155	H	-1.079841	0.602633	-0.552997
H156	H	-0.579841	1.102633	-0.052997
C157	C	-1.064073	0.996877	-0.567524
C158	C	-0.564073	1.496877	-0.067524
N159	N	-1.017762	0.969606	-0.609333
N160	N	-0.517762	1.469606	-0.109333
