data_functionalizedCrystal
_audit_creation_method	'MofGen! by Chris Wilmer'
_symmetry_space_group_name_H-M	'P1'
_symmetry_Int_Tables_number	1
_symmetry_cell_setting	triclinic
loop_
_symmetry_equiv_pos_as_xyz
  x,y,z
_cell_length_a	16.109301
_cell_length_b	16.109318
_cell_length_c	15.186229
_cell_angle_alpha	89.999617
_cell_angle_beta	89.994299
_cell_angle_gamma	83.465022
loop_
_atom_site_label
_atom_site_type_symbol
_atom_site_fract_x
_atom_site_fract_y
_atom_site_fract_z
O1	O	0.106935	1.103122	-0.073158
O2	O	0.356935	1.353122	0.176842
O3	O	0.606935	1.603122	0.426842
O4	O	0.856935	1.853122	0.676842
O5	O	0.120220	0.861062	-0.073176
O6	O	0.370220	1.111062	0.176824
O7	O	0.620220	1.361062	0.426824
O8	O	0.870220	1.611062	0.676824
O9	O	-0.007453	0.988742	-0.073158
O10	O	0.242547	1.238742	0.176842
O11	O	0.492547	1.488742	0.426842
O12	O	0.742547	1.738742	0.676842
O13	O	0.234608	0.975443	-0.073177
O14	O	0.484608	1.225443	0.176823
O15	O	0.734608	1.475443	0.426823
O16	O	0.984608	1.725443	0.676823
O17	O	-0.007456	0.988732	0.073300
O18	O	0.242544	1.238732	0.323300
O19	O	0.492544	1.488732	0.573300
O20	O	0.742544	1.738732	0.823300
O21	O	0.120217	0.861052	0.073281
O22	O	0.370217	1.111052	0.323281
O23	O	0.620217	1.361052	0.573281
O24	O	0.870217	1.611052	0.823281
O25	O	0.106932	1.103112	0.073299
O26	O	0.356932	1.353112	0.323299
O27	O	0.606932	1.603112	0.573299
O28	O	0.856932	1.853112	0.823299
Zn29	Zn	0.113574	0.982081	0.096543
Zn30	Zn	0.363574	1.232081	0.346543
Zn31	Zn	0.613574	1.482081	0.596543
Zn32	Zn	0.863574	1.732081	0.846543
Zn33	Zn	0.113578	0.982094	-0.096420
Zn34	Zn	0.363578	1.232094	0.153580
Zn35	Zn	0.613578	1.482094	0.403580
Zn36	Zn	0.863578	1.732094	0.653580
O37	O	0.234605	0.975433	0.073281
O38	O	0.484605	1.225433	0.323281
O39	O	0.734605	1.475433	0.573281
O40	O	0.984605	1.725433	0.823281
C41	C	0.119677	0.830083	0.000050
C42	C	0.369677	1.080083	0.250050
C43	C	0.619677	1.330083	0.500050
C44	C	0.869677	1.580083	0.750050
C45	C	0.118057	0.737788	0.000043
C46	C	0.368057	0.987788	0.250043
C47	C	0.618057	1.237788	0.500043
C48	C	0.868057	1.487788	0.750043
C49	C	0.112823	0.438720	-0.079774
C50	C	0.362823	0.688720	0.170226
C51	C	0.612823	0.938720	0.420226
C52	C	0.862823	1.188720	0.670226
C53	C	0.114341	0.525441	-0.079780
C54	C	0.364341	0.775441	0.170220
C55	C	0.614341	1.025441	0.420220
C56	C	0.864341	1.275441	0.670220
C57	C	0.114326	0.525449	0.079896
C58	C	0.364326	0.775449	0.329896
C59	C	0.614326	1.025449	0.579896
C60	C	0.864326	1.275449	0.829896
C61	C	0.112803	0.438730	0.079900
C62	C	0.362803	0.688730	0.329900
C63	C	0.612803	0.938730	0.579900
C64	C	0.862803	1.188730	0.829900
C65	C	0.112056	0.395367	0.000063
C66	C	0.362056	0.645367	0.250063
C67	C	0.612056	0.895367	0.500063
C68	C	0.862056	1.145367	0.750063
C69	C	0.115096	0.568807	0.000052
C70	C	0.365096	0.818807	0.250052
C71	C	0.615096	1.068807	0.500052
C72	C	0.865096	1.318807	0.750052
C73	C	0.116742	0.662835	0.000047
C74	C	0.366742	0.912835	0.250047
C75	C	0.616742	1.162835	0.500047
C76	C	0.866742	1.412835	0.750047
C77	C	0.110409	0.301334	0.000068
C78	C	0.360409	0.551334	0.250068
C79	C	0.610409	0.801334	0.500068
C80	C	0.860409	1.051334	0.750068
C81	C	-0.038430	0.988198	0.000071
C82	C	0.211570	1.238198	0.250071
C83	C	0.461570	1.488198	0.500071
C84	C	0.711570	1.738198	0.750071
C85	C	-0.130725	0.986583	0.000072
C86	C	0.119275	1.236583	0.250072
C87	C	0.369275	1.486583	0.500072
C88	C	0.619275	1.736583	0.750072
C89	C	-0.352993	1.058590	0.000064
C90	C	-0.102993	1.308590	0.250064
C91	C	0.147007	1.558590	0.500064
C92	C	0.397007	1.808590	0.750064
C93	C	-0.439713	1.057066	0.000057
C94	C	-0.189713	1.307066	0.250057
C95	C	0.060287	1.557066	0.500057
C96	C	0.310287	1.807066	0.750057
C97	C	-0.419848	0.905579	0.000049
C98	C	-0.169848	1.155579	0.250049
C99	C	0.080152	1.405579	0.500049
C100	C	0.330152	1.655579	0.750049
C101	C	-0.333130	0.907104	0.000050
C102	C	-0.083130	1.157104	0.250050
C103	C	0.166870	1.407104	0.500050
C104	C	0.416870	1.657104	0.750050
C105	C	-0.299704	0.983612	0.000062
C106	C	-0.049704	1.233612	0.250062
C107	C	0.200296	1.483612	0.500062
C108	C	0.450296	1.733612	0.750062
C109	C	-0.473144	0.980563	0.000053
C110	C	-0.223144	1.230563	0.250053
C111	C	0.026856	1.480563	0.500053
C112	C	0.276856	1.730563	0.750053
C113	C	-0.567170	0.978910	0.000045
C114	C	-0.317170	1.228910	0.250045
C115	C	-0.067170	1.478910	0.500045
C116	C	0.182830	1.728910	0.750045
C117	C	-0.205672	0.985265	0.000068
C118	C	0.044328	1.235265	0.250068
C119	C	0.294328	1.485265	0.500068
C120	C	0.544328	1.735265	0.750068
C121	C	0.265581	0.975976	0.000050
C122	C	0.515581	1.225976	0.250050
C123	C	0.765581	1.475976	0.500050
C124	C	1.015581	1.725976	0.750050
C125	C	0.357877	0.977592	0.000043
C126	C	0.607877	1.227592	0.250043
C127	C	0.857877	1.477592	0.500043
C128	C	1.107877	1.727592	0.750043
C129	C	0.107474	1.134092	0.000071
C130	C	0.357474	1.384092	0.250071
C131	C	0.607474	1.634092	0.500071
C132	C	0.857474	1.884092	0.750071
C133	C	0.109095	1.226387	0.000072
C134	C	0.359095	1.476387	0.250072
C135	C	0.609095	1.726387	0.500072
C136	C	0.859095	1.976387	0.750072
N137	N	0.113571	0.982078	0.228236
N138	N	0.363571	1.232078	0.478236
N139	N	0.613571	1.482078	0.728236
N140	N	0.863571	1.732078	0.978236
N141	N	0.113574	0.982103	-0.228113
N142	N	0.363574	1.232103	0.021887
N143	N	0.613574	1.482103	0.271887
N144	N	0.863574	1.732103	0.521887
C145	C	0.057056	1.038638	0.546163
C146	C	0.307056	1.288638	0.796163
C147	C	0.557056	1.538638	1.046163
C148	C	0.807056	1.788638	1.296163
C149	C	0.057056	1.038635	0.453973
C150	C	0.307056	1.288635	0.703973
C151	C	0.557056	1.538635	0.953973
C152	C	0.807056	1.788635	1.203973
C153	C	0.170095	0.925541	0.453967
C154	C	0.420095	1.175541	0.703967
C155	C	0.670095	1.425541	0.953967
C156	C	0.920095	1.675541	1.203967
C157	C	0.170098	0.925548	0.546155
C158	C	0.420098	1.175548	0.796155
C159	C	0.670098	1.425548	1.046155
C160	C	0.920098	1.675548	1.296155
C161	C	0.113574	0.982095	0.592250
C162	C	0.363574	1.232095	0.842250
C163	C	0.613574	1.482095	1.092250
C164	C	0.863574	1.732095	1.342250
C165	C	0.113571	0.982086	0.407873
C166	C	0.363571	1.232086	0.657873
C167	C	0.613571	1.482086	0.907873
C168	C	0.863571	1.732086	1.157873
C169	C	0.113572	0.982083	0.307916
C170	C	0.363572	1.232083	0.557916
C171	C	0.613572	1.482083	0.807916
C172	C	0.863572	1.732083	1.057916
C173	C	0.113574	0.982099	0.692213
C174	C	0.363574	1.232099	0.942213
C175	C	0.613574	1.482099	1.192213
C176	C	0.863574	1.732099	1.442213
H177	H	0.114965	0.560735	-0.144791
H178	H	0.364965	0.810735	0.105209
H179	H	0.614965	1.060735	0.355209
H180	H	0.864965	1.310735	0.605209
F181	F	0.230258	0.865368	0.595208
F182	F	0.480258	1.115368	0.845208
F183	F	0.730258	1.365368	1.095208
F184	F	0.980258	1.615368	1.345208
F185	F	0.115128	0.571606	0.164860
F186	F	0.365128	0.821606	0.414860
F187	F	0.615128	1.071606	0.664860
F188	F	0.865128	1.321606	0.914860
F189	F	-0.496424	1.136869	0.000057
F190	F	-0.246424	1.386869	0.250057
F191	F	0.003576	1.636869	0.500057
F192	F	0.253576	1.886869	0.750057
H193	H	0.112214	0.403416	-0.144784
H194	H	0.362214	0.653416	0.105216
H195	H	0.612214	0.903416	0.355216
H196	H	0.862214	1.153416	0.605216
H197	H	0.011036	1.084678	0.416451
H198	H	0.261036	1.334678	0.666451
H199	H	0.511036	1.584678	0.916451
H200	H	0.761036	1.834678	1.166451
F201	F	0.230247	0.865360	0.404903
F202	F	0.480247	1.115360	0.654903
F203	F	0.730247	1.365360	0.904903
F204	F	0.980247	1.615360	1.154903
H205	H	-0.447074	0.843288	0.000040
H206	H	-0.197074	1.093288	0.250040
H207	H	0.052926	1.343288	0.500040
H208	H	0.302926	1.593288	0.750040
F209	F	0.111984	0.392589	0.164879
F210	F	0.361984	0.642589	0.414879
F211	F	0.611984	0.892589	0.664879
F212	F	0.861984	1.142589	0.914879
F213	F	-0.317422	1.140017	0.000076
F214	F	-0.067422	1.390017	0.250076
F215	F	0.182578	1.640017	0.500076
F216	F	0.432578	1.890017	0.750076
H217	H	-0.289740	0.846043	0.000045
H218	H	-0.039740	1.096043	0.250045
H219	H	0.210260	1.346043	0.500045
H220	H	0.460260	1.596043	0.750045
H221	H	0.011032	1.084683	0.583691
H222	H	0.261032	1.334683	0.833691
H223	H	0.511032	1.584683	1.083691
H224	H	0.761032	1.834683	1.333691
