data_functionalizedCrystal
_audit_creation_method	'MofGen! by Chris Wilmer'
_symmetry_space_group_name_H-M	'P1'
_symmetry_Int_Tables_number	1
_symmetry_cell_setting	triclinic
loop_
_symmetry_equiv_pos_as_xyz
  x,y,z
_cell_length_a	23.532407
_cell_length_b	23.532407
_cell_length_c	8.140239
_cell_angle_alpha	89.991844
_cell_angle_beta	89.999964
_cell_angle_gamma	82.848712
loop_
_atom_site_label
_atom_site_type_symbol
_atom_site_fract_x
_atom_site_fract_y
_atom_site_fract_z
O1	O	0.755258	0.069134	-0.136526
O2	O	0.589395	0.079138	-0.136555
O3	O	0.677328	-0.008796	-0.136510
O4	O	0.667325	0.157068	-0.136571
O5	O	0.677323	-0.008797	0.136718
O6	O	0.589390	0.079137	0.136672
O7	O	0.755253	0.069133	0.136701
Zn8	Zn	0.672321	0.074135	0.180067
Zn9	Zn	0.672327	0.074136	-0.179921
O10	O	0.667320	0.157067	0.136656
C11	C	0.568176	0.078882	0.000056
C12	C	0.504959	0.078116	0.000046
C13	C	0.238792	0.022921	0.000112
C14	C	0.298192	0.023632	0.000111
O15	O	0.334937	-0.020153	0.000184
N16	N	0.320818	0.075909	0.000080
C17	C	0.284041	0.127477	0.000067
O18	O	0.308740	0.172007	0.000042
C19	C	0.224642	0.126765	0.000079
C20	C	0.202019	0.074485	0.000093
C21	C	0.216169	-0.029354	0.000127
C22	C	0.156772	-0.030066	0.000125
C23	C	0.119999	0.021499	0.000107
C24	C	0.142623	0.073774	0.000091
C25	C	0.187865	0.178333	0.000078
C26	C	0.128463	0.177616	0.000092
C27	C	0.105840	0.125336	0.000106
C28	C	0.046454	0.124627	0.000070
N29	N	0.023828	0.072351	0.000101
C30	C	0.060600	0.020787	0.000119
C31	C	0.408783	0.128968	0.000044
C32	C	0.468181	0.129681	0.000019
C33	C	0.482328	0.025836	0.000066
C34	C	0.422929	0.025124	0.000079
C35	C	0.386157	0.076692	0.000074
C36	C	-0.064136	0.019297	0.000113
C37	C	-0.123538	0.018590	0.000104
C38	C	-0.137680	0.122435	0.000065
C39	C	-0.078284	0.123142	0.000066
C40	C	-0.041512	0.071568	0.000095
O41	O	0.009675	0.168390	0.000004
O42	O	0.035892	-0.023737	0.000165
C43	C	0.677071	-0.030012	0.000108
C44	C	0.676305	-0.093229	0.000121
C45	C	0.723538	-0.492332	0.000039
C46	C	0.722827	-0.551733	0.000026
O47	O	0.766613	-0.588477	-0.000027
N48	N	0.670551	-0.574359	0.000018
C49	C	0.618982	-0.537581	0.000007
O50	O	0.574452	-0.562281	-0.000003
C51	C	0.619695	-0.478182	0.000007
C52	C	0.671974	-0.455559	0.000032
C53	C	0.775814	-0.469709	0.000061
C54	C	0.776525	-0.410313	0.000077
C55	C	0.724961	-0.373540	0.000070
C56	C	0.672685	-0.396163	0.000047
C57	C	0.568127	-0.441406	-0.000016
C58	C	0.568843	-0.382003	-0.000017
C59	C	0.621123	-0.359381	0.000008
C60	C	0.621832	-0.299994	0.000056
N61	N	0.674109	-0.277368	0.000064
C62	C	0.725673	-0.314141	0.000071
C63	C	0.617491	-0.662324	0.000002
C64	C	0.616778	-0.721722	0.000013
C65	C	0.720623	-0.735869	0.000029
C66	C	0.721335	-0.676470	0.000030
C67	C	0.669767	-0.639698	0.000010
C68	C	0.727163	-0.189404	0.000105
C69	C	0.727869	-0.130002	0.000128
C70	C	0.624025	-0.115860	0.000102
C71	C	0.623318	-0.175257	0.000089
C72	C	0.674891	-0.212028	0.000084
O73	O	0.578069	-0.263215	0.000103
O74	O	0.770196	-0.289433	0.000058
C75	C	0.776472	0.069389	0.000087
C76	C	0.839689	0.070155	0.000085
C77	C	0.667577	0.178283	0.000034
C78	C	0.668343	0.241500	0.000011
N79	N	0.672321	0.074134	0.425750
N80	N	0.672332	0.074133	-0.425604
H81	H	0.512280	-0.016150	0.000081
H82	H	0.763906	-0.658055	0.000049
C83	C	0.131896	-0.087578	0.000180
N84	N	0.113163	-0.130899	0.000237
H85	H	0.817806	-0.499644	0.000061
H86	H	0.769159	-0.219337	0.000095
H87	H	0.246104	-0.071347	0.000147
H88	H	-0.059864	0.165712	0.000053
C89	C	0.834037	-0.385436	0.000086
N90	N	0.877359	-0.366703	0.000087
H91	H	0.762610	-0.765821	0.000029
H92	H	0.574207	-0.740135	0.000021
C93	C	-0.148419	-0.038924	0.000134
N94	N	-0.167157	-0.082242	0.000165
C95	C	0.560758	-0.621878	0.000001
N96	N	0.518027	-0.591418	-0.000001
C97	C	0.398050	-0.032387	0.000113
N98	N	0.379315	-0.075707	0.000147
H99	H	0.525555	-0.459814	-0.000046
H100	H	0.486595	0.172252	-0.000015
C101	C	0.368338	0.185701	0.000021
N102	N	0.337877	0.228432	0.000006
H103	H	0.526850	-0.352065	-0.000036
H104	H	0.206274	0.220904	0.000059
H105	H	0.582043	-0.085909	0.000103
H106	H	0.098525	0.219610	0.000095
C107	C	0.565808	-0.200142	0.000072
N108	N	0.522490	-0.218882	0.000043
H109	H	-0.034204	-0.022699	0.000136
H110	H	-0.167631	0.164417	0.000042
H111	H	0.770443	-0.111587	0.000152
