data_functionalizedCrystal
_audit_creation_method	'MofGen! by Chris Wilmer'
_symmetry_space_group_name_H-M	'P1'
_symmetry_Int_Tables_number	1
_symmetry_cell_setting	triclinic
loop_
_symmetry_equiv_pos_as_xyz
  x,y,z
_cell_length_a	13.185407
_cell_length_b	10.868271
_cell_length_c	13.262434
_cell_angle_alpha	74.078774
_cell_angle_beta	68.867559
_cell_angle_gamma	89.994872
loop_
_atom_site_label
_atom_site_type_symbol
_atom_site_fract_x
_atom_site_fract_y
_atom_site_fract_z
O1	O	-1.445721	0.010927	0.273088
O2	O	-1.128709	0.046489	0.166833
O3	O	-1.295187	-0.023185	0.375006
O4	O	-1.279244	0.080600	0.064915
O5	O	-1.295173	-0.227830	0.375009
O6	O	-1.128695	-0.158157	0.166835
O7	O	-1.445708	-0.193719	0.273091
Zn8	Zn	-1.287199	-0.208430	0.219963
Zn9	Zn	-1.287217	0.061200	0.219960
O10	O	-1.279230	-0.124045	0.064917
C11	C	-1.088123	-0.052229	0.156062
C12	C	-0.967209	-0.041491	0.123977
N13	N	-1.287195	-0.392445	0.219968
C14	C	-0.676557	-0.143987	0.430184
C15	C	-0.790162	-0.154085	0.460332
C16	C	-0.834429	-0.125937	0.376246
C17	C	-0.765080	-0.087689	0.262006
C18	C	-0.651464	-0.077600	0.231855
C19	C	-0.809336	-0.059550	0.177917
C20	C	-0.739987	-0.021303	0.063677
C21	C	-0.626383	-0.011214	0.033531
C22	C	-0.582115	-0.039362	0.117617
C23	C	-0.922953	-0.069640	0.208069
C24	C	-0.897860	-0.003253	0.009740
C25	C	-0.784255	0.006846	-0.020409
C26	C	-1.287212	-0.643449	0.219961
C27	C	-1.287199	-0.503771	0.219961
C28	C	-0.486294	-0.095003	0.283861
C29	C	-0.607208	-0.105749	0.315946
C30	C	-1.294285	-0.138508	0.413859
C31	C	-1.291605	-0.177245	0.529621
N32	N	-1.287230	0.245212	0.219966
C33	C	-1.284088	0.159776	0.855920
C34	C	-1.286614	0.196177	0.747159
C35	C	-1.287861	0.102825	0.692769
C36	C	-1.286583	-0.026935	0.747151
C37	C	-1.284066	-0.063341	0.855926
C38	C	-1.287839	-0.120292	0.692775
C39	C	-1.286562	-0.250052	0.747157
C40	C	-1.284043	-0.286451	0.855921
C41	C	-1.282796	-0.193099	0.910311
C42	C	-1.290357	-0.083886	0.584000
C43	C	-1.290335	-0.307003	0.584007
C44	C	-1.287809	-0.343404	0.692767
C45	C	-1.280133	-0.008721	1.026065
C46	C	-1.282818	0.030018	0.910305
H47	H	-0.926932	-0.134161	0.400800
O48	O	-1.287921	0.322169	0.694256
C49	C	-1.383511	0.337133	0.669703
H50	H	-1.448711	0.253988	0.729438
H51	H	-1.415038	0.431994	0.681223
H52	H	-1.364081	0.337519	0.578595
H53	H	-0.846618	-0.185231	0.553346
O54	O	-0.990466	-0.106817	0.318980
C55	C	-1.100234	-0.109657	0.327570
H56	H	-1.104975	-0.121255	0.246469
H57	H	-1.151417	-0.194101	0.402361
H58	H	-1.133072	-0.015913	0.340826
H59	H	-1.283017	-0.392112	0.900202
O60	O	-1.291351	-0.397621	0.531057
C61	C	-1.198609	-0.370332	0.429628
H62	H	-1.132008	-0.308993	0.435501
H63	H	-1.167006	-0.464257	0.415469
H64	H	-1.221818	-0.315681	0.355898
H65	H	-0.933901	0.019664	-0.058730
H66	H	-1.283080	0.235768	0.900217
O67	O	-0.633374	-0.171230	0.511711
C68	C	-0.518230	-0.154161	0.460599
H69	H	-0.491940	-0.085510	0.371262
H70	H	-0.483058	-0.112119	0.512469
H71	H	-0.486582	-0.251050	0.456735
H72	H	-0.489610	-0.031136	0.093076
H73	H	-0.569921	0.019917	-0.059491
O74	O	-1.280216	-0.228274	1.015914
C75	C	-1.185161	-0.166382	1.013759
H76	H	-1.155192	-0.075980	0.938231
H77	H	-1.204684	-0.138773	1.095177
H78	H	-1.118745	-0.234344	1.006127
O79	O	-1.286426	-0.469390	0.745657
C80	C	-1.190743	-0.484233	0.770046
H81	H	-1.158966	-0.388529	0.773498
H82	H	-1.210154	-0.559938	0.855194
H83	H	-1.125739	-0.516234	0.701172
H84	H	-0.727775	0.037986	-0.113424
H85	H	-1.291397	0.021765	0.539733
O86	O	-1.290112	0.138273	0.587037
C87	C	-1.196763	0.224546	0.512212
H88	H	-1.129468	0.210609	0.547991
H89	H	-1.166811	0.205167	0.426520
H90	H	-1.218524	0.327622	0.501620
