data_functionalizedCrystal
_audit_creation_method	'MofGen! by Chris Wilmer'
_symmetry_space_group_name_H-M	'P1'
_symmetry_Int_Tables_number	1
_symmetry_cell_setting	triclinic
loop_
_symmetry_equiv_pos_as_xyz
  x,y,z
_cell_length_a	15.500346
_cell_length_b	11.792241
_cell_length_c	11.792241
_cell_angle_alpha	84.193416
_cell_angle_beta	86.847467
_cell_angle_gamma	86.839620
loop_
_atom_site_label
_atom_site_type_symbol
_atom_site_fract_x
_atom_site_fract_y
_atom_site_fract_z
O1	O	0.071859	-1.511639	-0.160276
O2	O	0.071879	-1.181300	-0.176310
O3	O	0.071863	-1.354486	-0.003122
O4	O	0.071876	-1.338454	-0.333464
O5	O	-0.072023	-1.344998	0.006310
O6	O	-0.072007	-1.171812	-0.166878
O7	O	-0.072027	-1.502152	-0.150843
Cu8	Cu	-0.085155	-1.336116	-0.157999
Cu9	Cu	0.085007	-1.347336	-0.169154
O10	O	-0.072010	-1.328966	-0.324032
C11	C	-0.000061	-1.134265	-0.170587
C12	C	-0.000053	-1.008252	-0.167573
C13	C	-0.000080	-1.348735	0.043885
C14	C	-0.000079	-1.345720	0.169899
N15	N	-0.204837	-1.328233	-0.150153
C16	C	-0.750014	-1.288952	-0.110677
C17	C	-0.659443	-1.294907	-0.116655
C18	C	-0.614169	-1.367132	-0.188954
C19	C	-0.659471	-1.433416	-0.255271
C20	C	-0.750041	-1.427466	-0.249286
C21	C	-0.340709	-1.388566	-0.210485
C22	C	-0.250133	-1.394508	-0.216467
C23	C	-0.250111	-1.256001	-0.077850
C24	C	-0.340682	-1.250052	-0.071876
C25	C	-0.385976	-1.316340	-0.138189
C26	C	-0.521591	-1.373218	-0.195069
C27	C	-0.478553	-1.310259	-0.132067
N28	N	0.204690	-1.355228	-0.176991
C29	C	-0.000084	-1.549187	-0.156567
C30	C	-0.000086	-1.675200	-0.159581
C31	C	-0.000078	-0.777538	-0.162028
C32	C	-0.000065	-0.905924	-0.165109
C33	C	-0.000065	-1.334717	-0.371039
C34	C	-0.000061	-1.337732	-0.497053
C35	C	-0.000064	-1.340178	0.400610
C36	C	-0.000072	-1.343258	0.272225
H37	H	-0.786870	-1.230132	-0.051810
N38	N	-0.201310	-1.472425	-0.294447
H39	H	-0.163714	-1.530141	-0.247888
H40	H	-0.163802	-1.425736	-0.352142
H41	H	-0.377538	-1.191241	-0.013001
H42	H	-0.377576	-1.442542	-0.264482
H43	H	-0.622602	-1.492229	-0.314132
H44	H	-0.622568	-1.240941	-0.062651
N45	N	-0.472751	-1.451113	-0.273044
H46	H	-0.435188	-1.404496	-0.330737
H47	H	-0.515235	-1.492186	-0.314078
H48	H	-0.786919	-1.481436	-0.303286
N49	N	-0.527384	-1.232365	-0.054091
H50	H	-0.511638	-1.150957	-0.076960
H51	H	-0.511584	-1.255384	0.027272
N52	N	-0.201260	-1.184520	-0.006319
H53	H	-0.137014	-1.199249	-0.021073
H54	H	-0.217074	-1.205419	0.077120
