data_functionalizedCrystal
_audit_creation_method	'MofGen! by Chris Wilmer'
_symmetry_space_group_name_H-M	'P1'
_symmetry_Int_Tables_number	1
_symmetry_cell_setting	triclinic
loop_
_symmetry_equiv_pos_as_xyz
  x,y,z
_cell_length_a	10.489716
_cell_length_b	14.044220
_cell_length_c	12.503572
_cell_angle_alpha	86.150791
_cell_angle_beta	86.443252
_cell_angle_gamma	91.140993
loop_
_atom_site_label
_atom_site_type_symbol
_atom_site_fract_x
_atom_site_fract_y
_atom_site_fract_z
O1	O	1.700878	-0.139155	0.089316
O2	O	2.034211	0.194179	0.422649
O3	O	2.367545	0.527512	0.755983
O4	O	1.330954	-0.151742	0.089320
O5	O	1.664288	0.181591	0.422654
O6	O	1.997621	0.514925	0.755987
O7	O	1.510364	-0.007426	0.089308
O8	O	1.843698	0.325908	0.422641
O9	O	2.177031	0.659241	0.755974
O10	O	1.521468	-0.283471	0.089329
O11	O	1.854801	0.049862	0.422662
O12	O	2.188135	0.383196	0.755995
O13	O	1.523862	0.003441	-0.089335
O14	O	1.857195	0.336775	0.243998
O15	O	2.190529	0.670108	0.577331
O16	O	1.344452	-0.140875	-0.089322
O17	O	1.677785	0.192458	0.244011
O18	O	2.011119	0.525792	0.577344
O19	O	1.714375	-0.128288	-0.089327
O20	O	2.047709	0.205045	0.244007
O21	O	2.381042	0.538379	0.577340
Cu22	Cu	1.530646	-0.133589	-0.105636
Cu23	Cu	1.863979	0.199744	0.227697
Cu24	Cu	2.197313	0.533077	0.561031
Cu25	Cu	1.514684	-0.146441	0.105630
Cu26	Cu	1.848017	0.186893	0.438963
Cu27	Cu	2.181350	0.520226	0.772296
O28	O	1.534965	-0.272604	-0.089314
O29	O	1.868299	0.060729	0.244019
O30	O	2.201632	0.394062	0.577353
C31	C	1.290075	-0.145363	-0.000001
C32	C	1.623408	0.187971	0.333333
C33	C	1.956742	0.521304	0.666666
C34	C	1.148157	-0.142533	0.000001
C35	C	1.481490	0.190800	0.333334
C36	C	1.814824	0.524133	0.666667
C37	C	1.059459	-0.231033	0.000010
C38	C	1.392792	0.102301	0.333343
C39	C	1.726125	0.435634	0.666677
C40	C	0.984025	-0.178910	-0.088079
C41	C	1.317358	0.154423	0.245255
C42	C	1.650692	0.487757	0.578588
C43	C	0.970722	-0.189603	0.088049
C44	C	1.304055	0.143731	0.421383
C45	C	1.637389	0.477064	0.754716
C46	C	1.074598	-0.090443	-0.088161
C47	C	1.407932	0.242890	0.245173
C48	C	1.741265	0.576224	0.578506
C49	C	1.061296	-0.101154	0.088046
C50	C	1.394629	0.232180	0.421380
C51	C	1.727963	0.565513	0.754713
C52	C	0.985907	-0.048964	-0.000064
C53	C	1.319240	0.284369	0.333269
C54	C	1.652573	0.617702	0.666603
C55	C	1.512252	0.033355	-0.000014
C56	C	1.845586	0.366689	0.333319
C57	C	2.178919	0.700022	0.666653
C58	C	1.497753	0.138679	-0.000015
C59	C	1.831086	0.472012	0.333318
C60	C	2.164419	0.805346	0.666651
C61	C	1.755255	-0.134667	-0.000003
C62	C	2.088588	0.198666	0.333330
C63	C	2.421921	0.531999	0.666663
C64	C	1.897172	-0.137497	0.000002
C65	C	2.230505	0.195836	0.333336
C66	C	2.563839	0.529170	0.666669
N67	N	1.503457	-0.155473	0.254223
N68	N	1.836790	0.177861	0.587556
N69	N	2.170123	0.511194	0.920890
C70	C	1.533078	-0.313385	0.000010
C71	C	1.866411	0.019948	0.333343
C72	C	2.199744	0.353282	0.666677
C73	C	1.547577	-0.418709	0.000018
C74	C	1.880910	-0.085376	0.333352
C75	C	2.214243	0.247957	0.666685
C76	C	1.471243	0.331519	0.000000
C77	C	1.804576	0.664852	0.333334
C78	C	2.137909	0.998185	0.666667
C79	C	1.574081	0.388457	0.000003
C80	C	1.907414	0.721790	0.333336
C81	C	2.240747	1.055123	0.666669
C82	C	1.559330	0.495759	0.000011
C83	C	1.892664	0.829093	0.333345
C84	C	2.225997	1.162426	0.666678
C85	C	1.485991	0.224206	-0.000008
C86	C	1.819325	0.557539	0.333325
C87	C	2.152658	0.890873	0.666658
N88	N	1.541883	-0.124550	-0.254229
N89	N	1.875216	0.208784	0.079104
N90	N	2.208549	0.542117	0.412437
C91	C	1.486930	-0.168759	0.473339
C92	C	1.820264	0.164574	0.806673
C93	C	2.153597	0.497908	1.140006
C94	C	1.558405	-0.111267	0.526661
C95	C	1.891738	0.222067	0.859995
C96	C	2.225072	0.555400	1.193328
C97	C	1.549209	-0.118659	0.648585
C98	C	1.882543	0.214674	0.981918
C99	C	2.215876	0.548007	1.315252
C100	C	1.496124	-0.161367	0.351404
C101	C	1.829458	0.171966	0.684738
C102	C	2.162791	0.505299	1.018071
H103	H	1.091941	-0.308009	-0.000066
H104	H	1.425275	0.025325	0.333267
H105	H	1.758608	0.358658	0.666600
Br106	Br	0.895184	-0.259447	0.212155
Br107	Br	1.228518	0.073887	0.545489
Br108	Br	1.561851	0.407220	0.878822
H109	H	1.372130	0.363358	0.000004
H110	H	1.705464	0.696691	0.333338
H111	H	2.038797	1.030024	0.666671
H112	H	1.418837	-0.223528	0.519252
H113	H	1.752170	0.109806	0.852585
H114	H	2.085504	0.443139	1.185918
H115	H	1.626501	-0.056493	0.480744
H116	H	1.959834	0.276840	0.814077
H117	H	2.293168	0.610174	1.147410
H118	H	0.949958	-0.211739	-0.162544
H119	H	1.283291	0.121594	0.170789
H120	H	1.616625	0.454927	0.504123
H121	H	1.119760	-0.048571	-0.162706
H122	H	1.453093	0.284762	0.170627
H123	H	1.786427	0.618096	0.503961
H124	H	0.953667	0.028076	-0.000121
H125	H	1.287000	0.361409	0.333213
H126	H	1.620334	0.694743	0.666546
Br127	Br	1.739290	0.335392	-0.000009
Br128	Br	2.072624	0.668725	0.333325
Br129	Br	2.405957	1.002059	0.666658
Br130	Br	1.118128	-0.046493	0.212167
Br131	Br	1.451462	0.286841	0.545500
Br132	Br	1.784795	0.620174	0.878834
