data_functionalizedCrystal
_audit_creation_method	'MofGen! by Chris Wilmer'
_symmetry_space_group_name_H-M	'P1'
_symmetry_Int_Tables_number	1
_symmetry_cell_setting	triclinic
loop_
_symmetry_equiv_pos_as_xyz
  x,y,z
_cell_length_a	14.908520
_cell_length_b	11.169417
_cell_length_c	11.169409
_cell_angle_alpha	90.021683
_cell_angle_beta	93.260332
_cell_angle_gamma	86.680427
loop_
_atom_site_label
_atom_site_type_symbol
_atom_site_fract_x
_atom_site_fract_y
_atom_site_fract_z
Zn1	Zn	-0.359109	-1.807295	-0.706122
Zn2	Zn	-0.025775	-1.473961	-0.372789
Zn3	Zn	0.307558	-1.140628	-0.039455
Zn4	Zn	-0.510000	-1.795559	-0.517002
Zn5	Zn	-0.176667	-1.462225	-0.183669
Zn6	Zn	0.156666	-1.128892	0.149664
Zn7	Zn	-0.359158	-1.606577	-0.505454
Zn8	Zn	-0.025825	-1.273243	-0.172120
Zn9	Zn	0.307508	-0.939910	0.161213
Zn10	Zn	-0.509922	-1.594969	-0.717635
Zn11	Zn	-0.176588	-1.261635	-0.384301
Zn12	Zn	0.156745	-0.928302	-0.050968
O13	O	-0.434547	-1.701100	-0.611553
O14	O	-0.101214	-1.367766	-0.278220
O15	O	0.232119	-1.034433	0.055114
O16	O	-0.379137	-1.973687	-0.681050
O17	O	-0.045803	-1.640353	-0.347717
O18	O	0.287530	-1.307020	-0.014383
O19	O	-0.490045	-1.770436	-0.347525
O20	O	-0.156711	-1.437103	-0.014191
O21	O	0.176622	-1.103770	0.319142
O22	O	-0.232908	-1.642972	-0.522422
O23	O	0.100425	-1.309639	-0.189088
O24	O	0.433759	-0.976305	0.144245
O25	O	-0.489996	-1.965064	-0.542104
O26	O	-0.156663	-1.631731	-0.208771
O27	O	0.176671	-1.298398	0.124562
O28	O	-0.232871	-1.790439	-0.669852
O29	O	0.100462	-1.457105	-0.336518
O30	O	0.433795	-1.123772	-0.003185
O31	O	-0.379222	-1.631592	-0.339040
O32	O	-0.045888	-1.298259	-0.005707
O33	O	0.287445	-0.964925	0.327627
O34	O	-0.379145	-1.437088	-0.533585
O35	O	-0.045812	-1.103755	-0.200252
O36	O	0.287521	-0.770422	0.133082
O37	O	-0.489862	-1.623188	-0.884053
O38	O	-0.156529	-1.289854	-0.550720
O39	O	0.176804	-0.956521	-0.217386
O40	O	-0.489911	-1.428560	-0.689473
O41	O	-0.156577	-1.095226	-0.356140
O42	O	0.176756	-0.761893	-0.022807
O43	O	-0.379060	-1.779183	-0.875595
O44	O	-0.045727	-1.445850	-0.542262
O45	O	0.287606	-1.112516	-0.208928
O46	O	-0.636234	-1.759180	-0.553268
O47	O	-0.302900	-1.425847	-0.219934
O48	O	0.030433	-1.092514	0.113399
O49	O	-0.636176	-1.611808	-0.700671
O50	O	-0.302843	-1.278474	-0.367338
O51	O	0.030491	-0.945141	-0.034005
C52	C	-0.434526	-1.389277	-0.611526
C53	C	-0.101192	-1.055943	-0.278193
C54	C	0.232141	-0.722610	0.055141
C55	C	-0.434538	-1.255876	-0.611544
C56	C	-0.101205	-0.922542	-0.278211
C57	C	0.232129	-0.589209	0.055122
C58	C	-0.668938	-1.682994	-0.629498
C59	C	-0.335605	-1.349660	-0.296165
C60	C	-0.002272	-1.016327	0.037168
C61	C	-0.769212	-1.675357	-0.637215
C62	C	-0.435878	-1.342024	-0.303882
C63	C	-0.102545	-1.008691	0.029451
C64	C	-0.957635	-1.814625	-0.498349
C65	C	-0.624302	-1.481292	-0.165016
C66	C	-0.290969	-1.147959	0.168318
C67	C	-1.051851	-1.807454	-0.505596
C68	C	-0.718518	-1.474121	-0.172263
C69	C	-0.385184	-1.140788	0.161071
C70	C	-1.051861	-1.653852	-0.658962
C71	C	-0.718528	-1.320519	-0.325628
C72	C	-0.385194	-0.987185	0.007705
C73	C	-0.957645	-1.661023	-0.651715
C74	C	-0.624312	-1.327689	-0.318381
C75	C	-0.290979	-0.994356	0.014952
C76	C	-0.910536	-1.741411	-0.571404
C77	C	-0.577202	-1.408077	-0.238071
C78	C	-0.243869	-1.074744	0.095262
C79	C	-0.816318	-1.748575	-0.564152
C80	C	-0.482985	-1.415241	-0.230819
C81	C	-0.149651	-1.081908	0.102515
C82	C	-0.816330	-1.594979	-0.717523
C83	C	-0.482996	-1.261646	-0.384190
C84	C	-0.149663	-0.928312	-0.050856
C85	C	-0.910546	-1.587808	-0.724770
C86	C	-0.577212	-1.254475	-0.391437
C87	C	-0.243879	-0.921142	-0.058103
C88	C	-0.199241	-1.719309	-0.593564
C89	C	0.134092	-1.385976	-0.260231
C90	C	0.467426	-1.052643	0.073102
C91	C	-0.098967	-1.727069	-0.585898
C92	C	0.234366	-1.393736	-0.252565
C93	C	0.567699	-1.060403	0.080768
C94	C	-0.434447	-1.701200	-0.924588
C95	C	-0.101114	-1.367866	-0.591255
C96	C	0.232220	-1.034533	-0.257921
C97	C	-0.434404	-1.701242	-1.057985
C98	C	-0.101071	-1.367909	-0.724652
C99	C	0.232262	-1.034575	-0.391318
C100	C	-0.434562	-1.014141	-0.611571
C101	C	-0.101229	-0.680808	-0.278238
C102	C	0.232105	-0.347474	0.055096
C103	C	-0.434549	-1.147542	-0.611553
C104	C	-0.101215	-0.814209	-0.278220
C105	C	0.232118	-0.480875	0.055114
C106	C	-0.434582	-1.701074	-0.299731
C107	C	-0.101249	-1.367741	0.033602
C108	C	0.232085	-1.034408	0.366936
C109	C	-0.434370	-1.701284	-0.166315
C110	C	-0.101037	-1.367951	0.167018
C111	C	0.232296	-1.034617	0.500351
H112	H	-0.777962	-1.814027	-0.498756
H113	H	-0.444629	-1.480694	-0.165423
H114	H	-0.111296	-1.147361	0.167910
H115	H	-0.777970	-1.535359	-0.777006
H116	H	-0.444637	-1.202026	-0.443673
H117	H	-0.111304	-0.868692	-0.110340
H118	H	-0.919278	-1.880072	-0.432949
H119	H	-0.585945	-1.546739	-0.099615
H120	H	-0.252611	-1.213405	0.233718
H121	H	-1.090234	-1.588412	-0.724354
H122	H	-0.756901	-1.255079	-0.391021
H123	H	-0.423567	-0.921745	-0.057688
H124	H	-1.090196	-1.867076	-0.446109
H125	H	-0.756863	-1.533742	-0.112776
H126	H	-0.423529	-1.200409	0.220558
H127	H	-0.948915	-1.522362	-0.790159
H128	H	-0.615582	-1.189029	-0.456826
H129	H	-0.282248	-0.855695	-0.123493
