data_functionalizedCrystal
_audit_creation_method	'MofGen! by Chris Wilmer'
_symmetry_space_group_name_H-M	'P1'
_symmetry_Int_Tables_number	1
_symmetry_cell_setting	triclinic
loop_
_symmetry_equiv_pos_as_xyz
  x,y,z
_cell_length_a	10.723024
_cell_length_b	10.654550
_cell_length_c	9.730223
_cell_angle_alpha	90.003749
_cell_angle_beta	90.000190
_cell_angle_gamma	84.476386
loop_
_atom_site_label
_atom_site_type_symbol
_atom_site_fract_x
_atom_site_fract_y
_atom_site_fract_z
O1	O	0.175269	1.667808	0.114399
O2	O	0.191968	1.302327	0.114377
O3	O	0.002044	1.493497	0.114383
O4	O	0.365194	1.476637	0.114393
O5	O	0.002049	1.493495	-0.114197
O6	O	0.191973	1.302324	-0.114203
O7	O	0.175274	1.667805	-0.114181
Zn8	Zn	0.183624	1.485065	-0.150484
Zn9	Zn	0.183618	1.485067	0.150680
O10	O	0.365199	1.476635	-0.114187
C11	C	0.190745	1.255528	0.000084
C12	C	0.187076	1.116085	0.000075
C13	C	-0.044454	1.492269	0.000095
C14	C	-0.183008	1.488598	0.000100
C15	C	0.298901	1.036583	0.000098
C16	C	0.295446	0.905562	0.000122
C17	C	0.068333	0.933560	0.000106
C18	C	0.071789	1.064578	0.000072
C19	C	0.430023	1.020417	0.000114
C20	C	0.426568	0.889397	0.000137
C21	C	-0.257975	1.595568	0.000108
C22	C	-0.401179	1.591776	0.000113
C23	C	0.411696	1.477863	0.000104
C24	C	0.550251	1.481534	0.000108
C25	C	0.176498	1.714604	0.000115
C26	C	0.180166	1.854047	0.000133
N27	N	0.183628	1.485072	-0.356020
C28	C	0.099558	1.569744	-0.427943
C29	C	0.099543	1.569741	-0.571826
C30	C	0.267678	1.400389	-0.571850
C31	C	0.267687	1.400387	-0.427970
C32	C	0.002490	1.667522	-0.427931
C33	C	0.002475	1.667519	-0.571814
N34	N	0.183605	1.485070	0.356216
H35	H	-0.019270	1.129305	0.000034
Br36	Br	0.499601	1.079851	0.164599
Br37	Br	-0.188260	1.752896	0.000132
Br38	Br	0.492617	0.813250	-0.164333
Br39	Br	0.508907	0.819817	0.159583
Br40	Br	-0.252724	1.331270	0.000110
H41	H	0.336116	1.331440	-0.630447
Br42	Br	-0.508540	1.744415	0.000109
Br43	Br	0.381762	1.285451	-0.330357
H44	H	-0.093427	1.646094	-0.388881
H45	H	-0.385338	1.389955	0.000092
H46	H	0.032883	1.758701	-0.383298
H47	H	-0.088167	1.637019	-0.616433
Br48	Br	0.038095	1.828369	-0.636904
H49	H	0.481306	1.049740	-0.095551
Br50	Br	-0.088121	0.863648	0.000097
