data_functionalizedCrystal
_audit_creation_method	'MofGen! by Chris Wilmer'
_symmetry_space_group_name_H-M	'P1'
_symmetry_Int_Tables_number	1
_symmetry_cell_setting	triclinic
loop_
_symmetry_equiv_pos_as_xyz
  x,y,z
_cell_length_a	15.944493
_cell_length_b	27.731996
_cell_length_c	14.421503
_cell_angle_alpha	89.998301
_cell_angle_beta	89.992936
_cell_angle_gamma	83.048216
loop_
_atom_site_label
_atom_site_type_symbol
_atom_site_fract_x
_atom_site_fract_y
_atom_site_fract_z
O1	O	1.113726	0.062202	-0.077112
O2	O	0.869066	0.069917	-0.077118
O3	O	0.999017	-0.004307	-0.077095
O4	O	0.983775	0.136426	-0.077135
O5	O	0.998996	-0.004296	0.077129
O6	O	0.869045	0.069928	0.077106
O7	O	1.113704	0.062213	0.077112
Cu8	Cu	0.991373	0.066072	0.091190
Cu9	Cu	0.991398	0.066059	-0.091197
O10	O	0.983753	0.136437	0.077088
C11	C	0.837765	0.069607	-0.000007
C12	C	0.744529	0.068662	-0.000008
C13	C	0.508183	0.112352	-0.000021
C14	C	0.457930	0.088797	0.076030
C15	C	0.573831	0.066910	-0.000006
C16	C	0.457956	0.088776	-0.076022
C17	C	0.408944	0.065222	-0.000008
C18	C	0.524806	0.043368	0.076108
C19	C	0.524835	0.043353	-0.076013
C20	C	0.474616	0.019764	0.000057
C21	C	0.668818	0.067884	-0.000004
C22	C	0.313960	0.064244	-0.000003
C23	C	0.998694	-0.022310	0.000020
C24	C	0.997750	-0.075970	0.000030
C25	C	0.991828	-0.408718	-0.084083
C26	C	0.988247	-0.610391	-0.084099
O27	O	0.987758	-0.636469	-0.155596
N28	N	0.987790	-0.635604	-0.000033
C29	C	0.988224	-0.610395	0.084044
O30	O	0.987745	-0.636467	0.155547
C31	C	0.991799	-0.408722	0.084059
C32	C	0.992264	-0.383512	-0.000013
C33	C	0.992293	-0.383508	-0.168148
C34	C	0.993192	-0.333093	-0.168143
C35	C	0.993628	-0.307888	-0.084073
C36	C	0.993164	-0.333098	-0.000008
C37	C	0.992226	-0.383514	0.168134
C38	C	0.993118	-0.333092	0.168131
C39	C	0.993583	-0.307883	0.084059
C40	C	0.994500	-0.257477	0.084067
N41	N	0.994956	-0.232264	0.000001
C42	C	0.994521	-0.257470	-0.084069
C43	C	0.986348	-0.716276	0.084030
C44	C	0.985456	-0.766694	0.084026
C45	C	0.985478	-0.766687	-0.084117
C46	C	0.986376	-0.716268	-0.084113
C47	C	0.986805	-0.691063	-0.000037
C48	C	0.996411	-0.151595	-0.084053
C49	C	0.997315	-0.101175	-0.084040
C50	C	0.997288	-0.101187	0.084102
C51	C	0.996389	-0.151602	0.084091
C52	C	0.995948	-0.176805	0.000006
O53	O	0.994980	-0.231368	0.155526
O54	O	0.994981	-0.231387	-0.155562
C55	C	0.990928	-0.459133	-0.084088
C56	C	0.990464	-0.484342	-0.000023
C57	C	0.990900	-0.459137	0.084047
C58	C	0.989572	-0.534761	-0.000026
C59	C	0.989136	-0.559966	-0.084096
C60	C	0.989593	-0.534753	-0.168163
C61	C	0.990493	-0.484338	-0.168158
C62	C	0.990444	-0.484350	0.168114
C63	C	0.989545	-0.534765	0.168102
C64	C	0.989109	-0.559970	0.084032
C65	C	1.145006	0.062523	-0.000002
C66	C	1.238242	0.063468	-0.000006
C67	C	0.984077	0.154440	-0.000029
C68	C	0.985020	0.208100	-0.000044
N69	N	0.991361	0.066080	0.219472
N70	N	0.991417	0.066046	-0.219478
C71	C	0.931261	0.100386	0.469115
C72	C	1.007037	0.109762	0.530916
C73	C	0.991381	0.066069	0.408633
C74	C	0.915624	0.056705	0.530926
C75	C	0.991394	0.066059	0.591355
C76	C	1.067196	0.075466	0.469074
C77	C	0.975733	0.022390	0.469078
C78	C	1.051565	0.031747	0.530851
C79	C	0.991373	0.066076	0.303372
C80	C	0.991412	0.066051	0.696613
H81	H	0.554048	0.024172	-0.140299
H82	H	0.428769	0.107971	-0.140308
Cl83	Cl	0.984888	-0.798382	0.189721
H84	H	0.428727	0.107993	0.140313
H85	H	0.997695	-0.080652	-0.152505
Cl86	Cl	0.569692	0.013765	0.175476
Cl87	Cl	0.451538	-0.040713	0.000142
H88	H	0.996048	-0.172108	-0.152523
H89	H	0.993568	-0.312571	-0.236603
H90	H	0.880470	0.129431	0.442008
Cl91	Cl	1.027493	0.166783	0.572854
Cl92	Cl	0.991746	-0.415185	-0.273851
H93	H	1.131281	0.083426	0.442019
H94	H	1.102467	0.002720	0.557788
Cl95	Cl	0.986883	-0.684597	0.189736
H96	H	0.991849	-0.404031	0.236595
Cl97	Cl	0.986958	-0.684581	-0.189807
H98	H	0.993455	-0.312572	0.236597
H99	H	0.985124	-0.787217	-0.152570
Cl100	Cl	0.995821	-0.183297	0.189782
Cl101	Cl	0.955243	-0.034615	0.427104
H102	H	0.997647	-0.080656	0.152550
H103	H	0.851553	0.048789	0.558097
H104	H	0.990871	-0.463816	-0.236618
Cl105	Cl	0.990985	-0.452671	0.273813
Cl106	Cl	0.989049	-0.566449	-0.273850
H107	H	0.523283	0.151495	0.000039
H108	H	0.989172	-0.555287	0.236568
