data_functionalizedCrystal
_audit_creation_method	'MofGen! by Chris Wilmer'
_symmetry_space_group_name_H-M	'P1'
_symmetry_Int_Tables_number	1
_symmetry_cell_setting	triclinic
loop_
_symmetry_equiv_pos_as_xyz
  x,y,z
_cell_length_a	25.639239
_cell_length_b	12.827893
_cell_length_c	12.827885
_cell_angle_alpha	89.980728
_cell_angle_beta	89.964018
_cell_angle_gamma	90.038657
loop_
_atom_site_label
_atom_site_type_symbol
_atom_site_fract_x
_atom_site_fract_y
_atom_site_fract_z
Zn1	Zn	-0.208126	1.597500	-0.590804
Zn2	Zn	-0.295571	1.597324	-0.416045
Zn3	Zn	-0.208151	1.422742	-0.416077
Zn4	Zn	-0.295532	1.422656	-0.590745
O5	O	-0.251845	1.510055	-0.503418
O6	O	-0.219731	1.743713	-0.567633
O7	O	-0.284002	1.574127	-0.269813
O8	O	-0.134983	1.446034	-0.439293
O9	O	-0.283977	1.743583	-0.439238
O10	O	-0.134964	1.574428	-0.567664
O11	O	-0.219775	1.445862	-0.269837
O12	O	-0.219737	1.276494	-0.439236
O13	O	-0.283911	1.445888	-0.736989
O14	O	-0.283935	1.276431	-0.567564
O15	O	-0.219694	1.574345	-0.737032
O16	O	-0.368731	1.574044	-0.439181
O17	O	-0.368702	1.445716	-0.567533
C18	C	-0.251835	1.238546	-0.503398
C19	C	-0.251843	1.122392	-0.503414
C20	C	-0.283660	1.070604	-0.566817
C21	C	-0.283670	0.950554	-0.566835
C22	C	-0.387688	1.509880	-0.503370
C23	C	-0.445802	1.509900	-0.503384
C24	C	-0.806167	1.577050	-0.436699
C25	C	-0.860771	1.577090	-0.436713
O26	O	-0.889010	1.634001	-0.379962
N27	N	-0.888084	1.510239	-0.503487
C28	C	-0.860790	1.443350	-0.570259
O29	O	-0.889035	1.386493	-0.627057
C30	C	-0.806186	1.443316	-0.570249
C31	C	-0.778876	1.510164	-0.503463
C32	C	-0.778857	1.643893	-0.369920
C33	C	-0.724256	1.643851	-0.369904
C34	C	-0.696966	1.576966	-0.436669
C35	C	-0.724276	1.510122	-0.503448
C36	C	-0.778893	1.376433	-0.637026
C37	C	-0.724286	1.376405	-0.637011
C38	C	-0.696976	1.443253	-0.570225
C39	C	-0.642385	1.443194	-0.570198
N40	N	-0.615072	1.510045	-0.503424
C41	C	-0.642363	1.576931	-0.436659
C42	C	-0.975460	1.443429	-0.570275
C43	C	-1.030063	1.443458	-0.570280
C44	C	-1.030040	1.577199	-0.436735
C45	C	-0.975437	1.577165	-0.436726
C46	C	-0.948148	1.510281	-0.503501
C47	C	-0.527698	1.576837	-0.436632
C48	C	-0.473092	1.576786	-0.436620
C49	C	-0.473119	1.443049	-0.570168
C50	C	-0.527720	1.443095	-0.570177
C51	C	-0.555008	1.509998	-0.503405
O52	O	-0.614112	1.386315	-0.626923
O53	O	-0.614110	1.633789	-0.379880
C54	C	-0.115472	1.510260	-0.503489
C55	C	-0.057358	1.510348	-0.503519
C56	C	-0.251795	1.510127	-0.775988
C57	C	-0.251773	1.510157	-0.892141
C58	C	-0.251856	1.782626	-0.503438
C59	C	-0.251860	1.898779	-0.503447
C60	C	-0.219991	1.573729	-0.943947
C61	C	-0.219968	1.573761	-1.063998
C62	C	-0.251857	1.510045	-0.231908
C63	C	-0.251731	1.510217	-0.115755
H64	H	-0.224621	0.943309	-0.449159
O65	O	-0.219281	1.069309	-0.438780
C66	C	-0.167169	1.095982	-0.461753
H67	H	-0.164558	1.126103	-0.545212
H68	H	-0.141374	1.024173	-0.452921
H69	H	-0.153435	1.159236	-0.405703
O70	O	-0.446685	1.377991	-0.635064
C71	C	-0.482494	1.319018	-0.694042
H72	H	-0.521434	1.315425	-0.651246
H73	H	-0.466747	1.236674	-0.705135
H74	H	-0.488255	1.357267	-0.773433
O75	O	-0.316167	1.123567	-0.631662
C76	C	-0.345762	1.052106	-0.690598
H77	H	-0.324391	0.974297	-0.694373
H78	H	-0.351370	1.083756	-0.772881
H79	H	-0.385454	1.040479	-0.652199
H80	H	-1.052294	1.389013	-0.624654
H81	H	-0.192759	1.628191	-1.108550
H82	H	-0.702069	1.321941	-0.691391
O83	O	-0.446645	1.641826	-0.371709
C84	C	-0.482446	1.700851	-0.312771
H85	H	-0.521349	1.704471	-0.355592
H86	H	-0.466632	1.783182	-0.301691
H87	H	-0.488305	1.662630	-0.233372
H88	H	-0.278945	1.455792	-1.071210
H89	H	-0.801071	1.698366	-0.315552
O90	O	-0.554262	1.641685	-0.371732
C91	C	-0.585898	1.582265	-0.304170
H92	H	-0.594109	1.503052	-0.340947
H93	H	-0.624277	1.624876	-0.290224
H94	H	-0.564893	1.570818	-0.226707
H95	H	-0.702024	1.698288	-0.315525
H96	H	-0.549957	1.388665	-0.624562
H97	H	-0.310911	0.906017	-0.621113
H98	H	-0.192795	1.628127	-0.899424
O99	O	-0.949034	1.378345	-0.635169
C100	C	-0.984855	1.319374	-0.694119
H101	H	-1.023794	1.315814	-0.651311
H102	H	-0.969121	1.237018	-0.705190
H103	H	-0.990616	1.357600	-0.773521
H104	H	-0.278964	1.455748	-0.936665
H105	H	-0.953205	1.631599	-0.382344
O106	O	-1.056480	1.642358	-0.371938
C107	C	-1.043061	1.746468	-0.394929
H108	H	-1.003403	1.748529	-0.435111
H109	H	-1.041178	1.793394	-0.319570
H110	H	-1.073752	1.781667	-0.448695
O111	O	-0.805332	1.311467	-0.702005
C112	C	-0.769526	1.252421	-0.760907
H113	H	-0.730581	1.295205	-0.764536
H114	H	-0.785269	1.241245	-0.843244
H115	H	-0.763772	1.173068	-0.722575
