data_functionalizedCrystal
_audit_creation_method	'MofGen! by Chris Wilmer'
_symmetry_space_group_name_H-M	'P1'
_symmetry_Int_Tables_number	1
_symmetry_cell_setting	triclinic
loop_
_symmetry_equiv_pos_as_xyz
  x,y,z
_cell_length_a	17.699083
_cell_length_b	16.053802
_cell_length_c	17.699092
_cell_angle_alpha	87.437934
_cell_angle_beta	83.284691
_cell_angle_gamma	92.569971
loop_
_atom_site_label
_atom_site_type_symbol
_atom_site_fract_x
_atom_site_fract_y
_atom_site_fract_z
O1	O	1.007272	0.069309	0.092524
O2	O	1.507272	0.569309	0.592524
O3	O	0.786895	0.069336	0.104975
O4	O	1.286895	0.569336	0.604975
O5	O	0.903306	0.069320	-0.011439
O6	O	1.403306	0.569320	0.488561
O7	O	0.890861	0.069325	0.208938
O8	O	1.390861	0.569325	0.708938
O9	O	0.896899	-0.069538	-0.005058
O10	O	1.396899	0.430462	0.494942
O11	O	0.780488	-0.069522	0.111356
O12	O	1.280488	0.430478	0.611356
O13	O	1.000864	-0.069549	0.098905
O14	O	1.500864	0.430451	0.598905
Zn15	Zn	0.889659	-0.091582	0.106144
Zn16	Zn	1.389659	0.408418	0.606144
Zn17	Zn	0.898101	0.091369	0.097736
Zn18	Zn	1.398101	0.591369	0.597736
O19	O	0.884453	-0.069533	0.215320
O20	O	1.384453	0.430467	0.715320
C21	C	0.755494	-0.000090	0.107719
C22	C	1.255494	0.499910	0.607719
C23	C	0.671477	-0.000079	0.106380
C24	C	1.171477	0.499921	0.606380
N25	N	0.883903	-0.216442	0.111882
N26	N	1.383903	0.283558	0.611882
C27	C	0.622858	-0.000078	0.174713
C28	C	1.122858	0.499922	0.674713
C29	C	0.543914	-0.000089	0.173452
C30	C	1.043914	0.499911	0.673452
C31	C	0.513591	-0.000095	0.103856
C32	C	1.013591	0.499905	0.603856
C33	C	0.562216	-0.000099	0.035518
C34	C	1.062216	0.499901	0.535518
C35	C	0.641158	-0.000094	0.036780
C36	C	1.141158	0.499906	0.536780
C37	C	0.243852	-0.000120	0.030423
C38	C	0.743852	0.499880	0.530423
C39	C	0.164904	-0.000122	0.029166
C40	C	0.664904	0.499878	0.529166
C41	C	0.146608	-0.000114	0.167094
C42	C	0.646608	0.499886	0.667094
C43	C	0.225550	-0.000110	0.168357
C44	C	0.725550	0.499890	0.668357
C45	C	0.274168	-0.000118	0.100020
C46	C	0.774168	0.499882	0.600020
C47	C	0.359767	-0.000108	0.101389
C48	C	0.859767	0.499892	0.601389
C49	C	0.427993	-0.000099	0.102486
C50	C	0.927993	0.499901	0.602486
C51	C	0.933454	-0.260143	0.062365
C52	C	1.433454	0.239857	0.562365
C53	C	0.929434	-0.347549	0.066385
C54	C	1.429434	0.152451	0.566385
C55	C	0.875867	-0.391253	0.119927
C56	C	1.375867	0.108747	0.619927
C57	C	0.826310	-0.347546	0.169446
C58	C	1.326310	0.152454	0.669446
C59	C	0.830327	-0.260141	0.165421
C60	C	1.330327	0.239859	0.665421
C61	C	0.858323	-0.652660	0.137487
C62	C	1.358323	-0.152660	0.637487
C63	C	0.854312	-0.740071	0.141510
C64	C	1.354312	-0.240071	0.641510
C65	C	0.957435	-0.740068	0.038447
C66	C	1.457435	-0.240068	0.538447
C67	C	0.961450	-0.652661	0.034430
C68	C	1.461450	-0.152661	0.534430
C69	C	0.911891	-0.608962	0.083947
C70	C	1.411891	-0.108962	0.583947
N71	N	0.871759	-0.480596	0.124040
N72	N	1.371759	0.019404	0.624040
N73	N	0.915996	-0.519621	0.079830
N74	N	1.415996	-0.019621	0.579830
C75	C	1.032265	-0.000122	0.096161
C76	C	1.532265	0.499878	0.596161
C77	C	1.116283	-0.000127	0.097500
C78	C	1.616283	0.499873	0.597500
C79	C	0.899656	-0.000108	-0.036445
C80	C	1.399656	0.499892	0.463555
C81	C	0.898315	-0.000104	-0.120463
C82	C	1.398315	0.499896	0.379537
N83	N	0.903863	0.216229	0.091993
N84	N	1.403863	0.716229	0.591993
C85	C	0.901179	0.075588	-0.163409
C86	C	1.401179	0.575588	0.336591
C87	C	0.899914	0.075590	-0.242352
C88	C	1.399914	0.575590	0.257648
C89	C	0.895790	-0.000103	-0.278349
C90	C	1.395790	0.499897	0.221651
C91	C	0.892923	-0.075801	-0.235397
C92	C	1.392923	0.424199	0.264603
C93	C	0.894183	-0.075801	-0.156454
C94	C	1.394183	0.424199	0.343546
C95	C	0.887843	-0.075802	-0.553762
C96	C	1.387843	0.424198	-0.053762
C97	C	0.886586	-0.075795	-0.632710
C98	C	1.386586	0.424205	-0.132710
C99	C	0.893574	0.075589	-0.639660
C100	C	1.393574	0.575589	-0.139660
C101	C	0.894834	0.075589	-0.560717
C102	C	1.394834	0.575589	-0.060717
C103	C	0.891963	-0.000109	-0.517772
C104	C	1.391963	0.499891	-0.017772
C105	C	0.893333	-0.000109	-0.432173
C106	C	1.393333	0.499891	0.067827
C107	C	0.894426	-0.000103	-0.363947
C108	C	1.394426	0.499897	0.136053
C109	C	0.888104	-0.000104	0.240326
C110	C	1.388104	0.499896	0.740326
C111	C	0.889445	-0.000102	0.324343
C112	C	1.389445	0.499898	0.824343
H113	H	0.647540	-0.000072	0.231386
H114	H	1.147540	0.499928	0.731386
Br115	Br	0.906784	0.178320	-0.114566
Br116	Br	1.406784	0.678320	0.385434
H117	H	0.891840	-0.137438	-0.121487
H118	H	1.391840	0.362562	0.378513
H119	H	1.005069	-0.617080	-0.009168
H120	H	1.505069	-0.117080	0.490832
H121	H	0.810688	-0.775650	0.185113
H122	H	1.310688	-0.275650	0.685113
Br123	Br	0.309823	-0.000133	-0.062321
Br124	Br	0.809823	0.499867	0.437679
H125	H	0.537520	-0.000116	-0.021148
H126	H	1.037520	0.499884	0.478852
Br127	Br	0.266699	-0.000093	0.262812
Br128	Br	0.766699	0.499907	0.762812
Br129	Br	0.080622	-0.000104	0.259841
Br130	Br	0.580622	0.499896	0.759841
H131	H	0.680743	-0.000095	-0.018864
H132	H	1.180743	0.499905	0.481136
Br133	Br	0.123752	-0.000128	-0.065293
Br134	Br	0.623752	0.499872	0.434707
H135	H	0.504331	-0.000087	0.229095
H136	H	1.004331	0.499913	0.729095
H137	H	0.902250	0.137226	-0.277316
H138	H	1.402250	0.637226	0.222684
H139	H	0.977077	-0.224565	0.018769
H140	H	1.477077	0.275435	0.518769
Br141	Br	0.753604	-0.406855	0.242106
Br142	Br	1.253604	0.093145	0.742106
Br143	Br	0.996680	-0.406860	-0.000819
Br144	Br	1.496680	0.093140	0.499181
H145	H	0.997783	-0.775656	-0.001867
H146	H	1.497783	-0.275656	0.498133
Br147	Br	0.791068	-0.593358	0.204687
Br148	Br	1.291068	-0.093358	0.704687
H149	H	0.789976	-0.224561	0.205742
H150	H	1.289976	0.275439	0.705742
Br151	Br	0.897471	0.178325	-0.697947
Br152	Br	1.397471	0.678325	-0.197947
H153	H	0.883226	-0.137437	-0.662015
H154	H	1.383226	0.362563	-0.162015
H155	H	0.898196	0.137226	-0.531414
H156	H	1.398196	0.637226	-0.031414
H157	H	0.885520	-0.137439	-0.518806
H158	H	1.385520	0.362561	-0.018806
H159	H	0.889561	-0.137431	-0.264710
H160	H	1.389561	0.362569	0.235290
