data_functionalizedCrystal
_audit_creation_method	'MofGen! by Chris Wilmer'
_symmetry_space_group_name_H-M	'P1'
_symmetry_Int_Tables_number	1
_symmetry_cell_setting	triclinic
loop_
_symmetry_equiv_pos_as_xyz
  x,y,z
_cell_length_a	19.077399
_cell_length_b	19.076808
_cell_length_c	19.077271
_cell_angle_alpha	90.107018
_cell_angle_beta	85.510522
_cell_angle_gamma	94.711600
loop_
_atom_site_label
_atom_site_type_symbol
_atom_site_fract_x
_atom_site_fract_y
_atom_site_fract_z
Zn1	Zn	1.051878	-0.251954	0.345652
Zn2	Zn	1.052199	-0.364703	0.223411
Zn3	Zn	0.938754	-0.251942	0.232506
Zn4	Zn	0.929224	-0.374547	0.345599
O5	O	0.993014	-0.310787	0.286792
O6	O	1.150728	-0.262796	0.325652
O7	O	1.041273	-0.345621	0.126129
O8	O	0.957614	-0.153448	0.251344
O9	O	1.150964	-0.345632	0.235842
O10	O	1.040725	-0.153456	0.334472
O11	O	0.957925	-0.262776	0.132811
O12	O	0.838682	-0.272321	0.251293
O13	O	0.941372	-0.362409	0.444095
O14	O	0.831681	-0.362398	0.334382
O15	O	1.031485	-0.272341	0.444134
O16	O	1.032033	-0.464505	0.235791
O17	O	0.941684	-0.471738	0.325562
C18	C	0.809561	-0.318427	0.293819
C19	C	0.731078	-0.321713	0.296841
C20	C	0.697831	-0.276294	0.255077
C21	C	0.624087	-0.279388	0.257916
C22	C	0.583593	-0.327898	0.302523
C23	C	0.616845	-0.373322	0.344289
C24	C	0.690587	-0.370231	0.341445
C25	C	0.362659	-0.342182	0.315654
C26	C	0.288912	-0.345268	0.318496
C27	C	0.296159	-0.251334	0.232123
C28	C	0.369902	-0.248244	0.229286
C29	C	0.403148	-0.293671	0.271049
N30	N	0.508215	-0.331060	0.305428
N31	N	0.478524	-0.290512	0.268140
C32	C	0.985877	-0.493660	0.279698
C33	C	0.982888	-0.571893	0.276684
C34	C	1.024720	-0.608593	0.318587
C35	C	1.021908	-0.682101	0.315756
C36	C	0.977268	-0.718907	0.271020
C37	C	0.935431	-0.682201	0.229116
C38	C	0.938240	-0.608695	0.231950
C39	C	0.964229	-0.938753	0.257900
C40	C	0.961425	-1.012264	0.255067
C41	C	1.047902	-1.012159	0.341709
C42	C	1.050709	-0.938651	0.344536
C43	C	1.008870	-0.901952	0.302636
N44	N	0.974395	-0.794043	0.268124
N45	N	1.011740	-0.826817	0.305536
C46	C	1.177182	-0.303117	0.279738
C47	C	1.255664	-0.299849	0.276732
C48	C	0.985329	-0.318474	0.470365
C49	C	0.982055	-0.321750	0.548593
C50	C	1.000196	-0.127199	0.293928
C51	C	1.003257	-0.048964	0.296969
C52	C	1.027431	-0.276398	0.585366
C53	C	1.024346	-0.279474	0.658870
C54	C	0.975887	-0.327906	0.695599
C55	C	0.930506	-0.373261	0.658821
C56	C	0.933589	-0.370181	0.585319
C57	C	0.961634	-0.342142	0.915425
C58	C	0.958557	-0.345220	0.988932
C59	C	1.052396	-0.251432	0.988976
C60	C	1.055477	-0.248359	0.915472
C61	C	1.010093	-0.293711	0.878701
N62	N	0.972734	-0.331053	0.770731
N63	N	1.013244	-0.290561	0.803570
C64	C	1.000661	-0.303144	1.103933
C65	C	1.003933	-0.299868	1.025705
H66	H	0.255942	-0.384770	0.354825
Cl67	Cl	0.582294	-0.222283	0.205415
Cl68	Cl	0.869584	-0.434145	0.704995
H69	H	0.402868	-0.208747	0.192957
Cl70	Cl	0.404444	-0.399288	0.368158
H71	H	0.904175	-0.578814	0.197830
Cl72	Cl	1.081423	-0.222486	0.705093
Cl73	Cl	1.074490	-0.728237	0.368445
H74	H	0.730797	-0.236787	0.218759
H75	H	0.919094	-0.384661	1.018835
Cl76	Cl	0.565937	-0.434317	0.400356
H77	H	0.269082	-0.214351	0.198121
Cl78	Cl	0.876540	-0.427196	0.539090
H79	H	0.924690	-0.379081	0.885494
H80	H	1.089343	-0.214508	1.018923
Cl81	Cl	1.088357	-0.215511	0.539199
H82	H	0.717656	-0.407216	0.375454
H83	H	1.061074	-0.578631	0.355013
H84	H	1.087059	-0.908685	0.380965
Cl85	Cl	1.100493	-1.058299	0.394384
Cl86	Cl	1.116399	-0.187470	0.869304
Cl87	Cl	0.905304	-1.058533	0.198820
H88	H	0.930163	-0.908878	0.223782
H89	H	0.899081	-0.712174	0.192693
