data_functionalizedCrystal
_audit_creation_method	'MofGen! by Chris Wilmer'
_symmetry_space_group_name_H-M	'P1'
_symmetry_Int_Tables_number	1
_symmetry_cell_setting	triclinic
loop_
_symmetry_equiv_pos_as_xyz
  x,y,z
_cell_length_a	11.792241
_cell_length_b	10.868271
_cell_length_c	11.792241
_cell_angle_alpha	90.005737
_cell_angle_beta	95.806584
_cell_angle_gamma	90.003536
loop_
_atom_site_label
_atom_site_type_symbol
_atom_site_fract_x
_atom_site_fract_y
_atom_site_fract_z
O1	O	1.506902	-0.102203	-0.155570
O2	O	2.006902	0.397797	0.344430
O3	O	1.176561	-0.102232	-0.171603
O4	O	1.676561	0.397768	0.328397
O5	O	1.349748	-0.102208	0.001584
O6	O	1.849748	0.397792	0.501584
O7	O	1.333715	-0.102227	-0.328757
O8	O	1.833715	0.397773	0.171243
O9	O	1.349746	0.102436	0.001594
O10	O	1.849746	0.602436	0.501594
O11	O	1.176559	0.102413	-0.171593
O12	O	1.676559	0.602413	0.328407
O13	O	1.506900	0.102441	-0.155560
O14	O	2.006900	0.602441	0.344440
Zn15	Zn	1.341729	0.134919	-0.163575
Zn16	Zn	1.841729	0.634919	0.336425
Zn17	Zn	1.341732	-0.134709	-0.163588
Zn18	Zn	1.841732	0.365291	0.336412
O19	O	1.333713	0.102418	-0.328747
O20	O	1.833713	0.602418	0.171253
C21	C	1.134269	0.000087	-0.170591
C22	C	1.634269	0.500087	0.329409
C23	C	1.008255	0.000076	-0.167576
C24	C	1.508255	0.500076	0.332424
C25	C	0.777543	0.000112	-0.162034
C26	C	1.277543	0.500112	0.337966
C27	C	0.905928	0.000092	-0.165113
C28	C	1.405928	0.500092	0.334887
N29	N	1.341735	-0.318723	-0.163588
N30	N	1.841735	0.181277	0.336412
C31	C	1.341731	-0.569729	-0.163581
C32	C	1.841731	-0.069729	0.336419
C33	C	1.341730	-0.430052	-0.163589
C34	C	1.841730	0.069948	0.336411
C35	C	1.549192	0.000120	-0.156572
C36	C	2.049192	0.500120	0.343428
C37	C	1.675206	0.000123	-0.159587
C38	C	2.175206	0.500123	0.340413
C39	C	1.348740	0.000114	0.043880
C40	C	1.848740	0.500114	0.543880
C41	C	1.345726	0.000112	0.169894
C42	C	1.845726	0.500112	0.669894
N43	N	1.341736	0.318933	-0.163566
N44	N	1.841736	0.818933	0.336434
C45	C	1.334721	0.000093	-0.371043
C46	C	1.834721	0.500093	0.128957
C47	C	1.337736	0.000087	-0.497057
C48	C	1.837736	0.500087	0.002943
C49	C	1.340183	0.000091	0.400606
C50	C	1.840183	0.500091	0.900606
C51	C	1.343262	0.000102	0.272221
C52	C	1.843262	0.500102	0.772221
