data_functionalizedCrystal
_audit_creation_method	'MofGen! by Chris Wilmer'
_symmetry_space_group_name_H-M	'P1'
_symmetry_Int_Tables_number	1
_symmetry_cell_setting	triclinic
loop_
_symmetry_equiv_pos_as_xyz
  x,y,z
_cell_length_a	11.026607
_cell_length_b	14.971486
_cell_length_c	14.048226
_cell_angle_alpha	90.001501
_cell_angle_beta	89.996210
_cell_angle_gamma	83.899927
loop_
_atom_site_label
_atom_site_type_symbol
_atom_site_fract_x
_atom_site_fract_y
_atom_site_fract_z
O1	O	0.158180	-1.212292	-0.079046
O2	O	0.177123	-0.954927	-0.079071
O3	O	-0.009032	-1.062279	-0.079057
O4	O	0.344336	-1.104939	-0.079060
O5	O	-0.009043	-1.062261	0.079264
O6	O	0.177112	-0.954908	0.079250
O7	O	0.158169	-1.212274	0.079275
Zn8	Zn	0.167639	-1.083588	0.104399
Zn9	Zn	0.167653	-1.083612	-0.104196
O10	O	0.344325	-1.104921	0.079261
C11	C	0.176270	-0.921457	0.000086
C12	C	0.173732	-0.821753	0.000076
C13	C	-0.054260	-1.054400	0.000101
C14	C	-0.189008	-1.030939	0.000096
C15	C	0.159022	-1.245743	0.000116
C16	C	0.161561	-1.345447	0.000119
C17	C	-0.262720	-1.095719	0.000101
C18	C	-0.401989	-1.071472	0.000095
C19	C	0.389552	-1.112800	0.000100
C20	C	0.524300	-1.136261	0.000100
N21	N	0.167628	-1.083578	0.246760
C22	C	0.283093	-0.782051	0.000077
C23	C	0.280700	-0.688368	0.000091
C24	C	0.168945	-0.634389	0.000098
C25	C	0.059576	-0.674098	0.000100
C26	C	0.061969	-0.767779	0.000093
C27	C	0.054594	-0.478837	0.000113
C28	C	0.052200	-0.385150	0.000119
C29	C	0.273325	-0.399426	0.000111
C30	C	0.275718	-0.493107	0.000104
C31	C	0.166348	-0.532809	0.000105
N32	N	0.167654	-1.083628	-0.246556
C33	C	0.085233	-1.131138	0.296584
C34	C	0.085232	-1.131144	0.396242
C35	C	0.167634	-1.083595	0.446074
C36	C	0.250033	-1.036029	0.396242
C37	C	0.250027	-1.036018	0.296587
C38	C	0.250042	-1.036056	0.603957
C39	C	0.250050	-1.036068	0.703619
C40	C	0.085247	-1.131182	0.703612
C41	C	0.085241	-1.131171	0.603956
C42	C	0.167642	-1.083607	0.554132
H43	H	-0.441982	-0.998057	0.000081
H44	H	0.018153	-1.169911	0.744185
H45	H	-0.435709	-1.209677	0.000035
H46	H	-0.229006	-0.957528	0.000082
C47	C	0.401003	-0.644700	0.000092
C48	C	0.492544	-0.663462	-0.082126
C49	C	0.612855	-0.619797	-0.082121
C50	C	0.641624	-0.557369	0.000101
C51	C	0.550081	-0.538603	0.082325
C52	C	0.429770	-0.582269	0.082320
H53	H	0.471250	-0.709677	-0.142997
H54	H	0.680621	-0.633689	-0.142989
H55	H	0.730685	-0.525045	0.000105
H56	H	0.571375	-0.492388	0.143196
H57	H	0.362004	-0.568377	0.143188
C58	C	0.393637	-0.355761	0.000116
C59	C	0.422404	-0.293313	-0.082089
C60	C	0.542713	-0.249646	-0.082090
C61	C	0.634255	-0.268426	0.000113
C62	C	0.605491	-0.330877	0.082324
C63	C	0.485182	-0.374545	0.082325
H64	H	0.354636	-0.279408	-0.142946
H65	H	0.564005	-0.203415	-0.142948
H66	H	0.723315	-0.236101	0.000112
H67	H	0.673258	-0.344783	0.143181
H68	H	0.463890	-0.420775	0.143183
C69	C	-0.058329	-0.811457	0.000090
C70	C	-0.149873	-0.792691	0.082305
C71	C	-0.270175	-0.836367	0.082308
C72	C	-0.298933	-0.898810	0.000095
C73	C	-0.207387	-0.917579	-0.082126
C74	C	-0.087085	-0.873902	-0.082129
H75	H	-0.128587	-0.746465	0.143169
H76	H	-0.337943	-0.822473	0.143174
H77	H	-0.387987	-0.931142	0.000097
H78	H	-0.228673	-0.963805	-0.142990
H79	H	-0.019316	-0.887796	-0.142995
H80	H	0.374096	-0.825994	0.000070
C81	C	-0.005413	-1.183445	0.241775
C82	C	-0.096051	-1.235755	0.296586
C83	C	-0.186702	-1.288060	0.241780
C84	C	-0.186715	-1.288055	0.132163
C85	C	-0.096074	-1.235743	0.077345
C86	C	-0.005422	-1.183438	0.132151
H87	H	-0.096044	-1.235760	0.377737
H88	H	-0.253801	-1.326785	0.282360
H89	H	-0.253821	-1.326775	0.091592
H90	H	-0.096080	-1.235738	-0.003806
H91	H	0.061676	-1.144713	0.091571
C92	C	0.340686	-0.983755	0.758431
C93	C	0.340701	-0.983767	0.868049
C94	C	0.431338	-0.931452	0.922859
C95	C	0.521960	-0.879125	0.868051
C96	C	0.521949	-0.879111	0.758427
C97	C	0.431312	-0.931425	0.703618
H98	H	0.273613	-1.022505	0.908626
H99	H	0.431346	-0.931463	1.004010
H100	H	0.589056	-0.840398	0.908624
H101	H	0.589036	-0.840373	0.717850
H102	H	0.431304	-0.931415	0.622467
H103	H	0.366719	-0.537055	0.000089
C104	C	-0.005397	-1.183476	0.549136
C105	C	-0.143625	-1.159727	0.562843
C106	C	-0.234266	-1.212029	0.508021
C107	C	-0.186679	-1.288080	0.439494
C108	C	-0.048445	-1.311832	0.425784
C109	C	0.042196	-1.259530	0.480606
H110	H	-0.178857	-1.103427	0.613574
H111	H	-0.336596	-1.194446	0.518170
H112	H	-0.253777	-1.326797	0.398911
H113	H	-0.013213	-1.368133	0.375053
H114	H	0.144526	-1.277113	0.470457
H115	H	-0.222722	-1.169129	0.000114
H116	H	-0.038801	-0.341202	0.000126
H117	H	-0.034467	-0.511159	0.000115
H118	H	-0.031417	-0.630141	0.000119
H119	H	0.018139	-1.169871	0.436809
H120	H	0.317138	-0.997320	0.563393
H121	H	0.317122	-0.997308	0.436821
H122	H	0.317120	-0.997288	0.256021
