data_functionalizedCrystal
_audit_creation_method	'MofGen! by Chris Wilmer'
_symmetry_space_group_name_H-M	'P1'
_symmetry_Int_Tables_number	1
_symmetry_cell_setting	triclinic
loop_
_symmetry_equiv_pos_as_xyz
  x,y,z
_cell_length_a	12.827893
_cell_length_b	13.032721
_cell_length_c	12.827885
_cell_angle_alpha	97.148846
_cell_angle_beta	89.980728
_cell_angle_gamma	97.204267
loop_
_atom_site_label
_atom_site_type_symbol
_atom_site_fract_x
_atom_site_fract_y
_atom_site_fract_z
Zn1	Zn	1.544798	-0.415985	-0.643643
Zn2	Zn	1.522478	-0.590764	-0.491086
Zn3	Zn	1.370033	-0.416036	-0.468924
Zn4	Zn	1.347821	-0.590686	-0.665776
O5	O	1.446283	-0.503368	-0.567357
O6	O	1.688072	-0.439181	-0.623419
O7	O	1.502211	-0.567641	-0.341917
O8	O	1.411853	-0.269792	-0.473563
O9	O	1.671674	-0.567591	-0.511335
O10	O	1.540253	-0.269754	-0.601929
O11	O	1.390210	-0.439269	-0.325634
O12	O	1.220852	-0.439193	-0.495024
O13	O	1.373995	-0.567457	-0.809069
O14	O	1.204533	-0.567507	-0.639651
O15	O	1.518714	-0.439105	-0.792809
O16	O	1.480673	-0.736991	-0.532796
O17	O	1.352352	-0.736934	-0.661140
C18	C	1.174775	-0.503348	-0.567335
C19	C	1.058620	-0.503364	-0.567353
C20	C	0.998775	-0.566958	-0.638834
C21	C	0.878722	-0.566976	-0.638854
C22	C	1.411708	-0.774880	-0.601798
C23	C	1.397013	-0.891034	-0.616566
C24	C	1.454008	-0.942814	-0.559696
C25	C	1.438821	-1.062865	-0.574959
C26	C	1.718850	-0.503389	-0.567380
C27	C	1.835002	-0.503398	-0.567390
C28	C	1.446367	-0.503267	-0.839915
C29	C	1.446402	-0.503224	-0.956062
C30	C	1.481020	-0.230795	-0.532805
C31	C	1.495824	-0.114641	-0.518081
C32	C	1.391041	-0.439646	-1.119827
C33	C	1.391003	-0.439689	-0.999782
C34	C	1.446269	-0.503393	-0.295850
C35	C	1.446473	-0.503142	-0.179666
H36	H	1.020978	-0.448930	-0.506175
H37	H	0.886430	-0.448954	-0.506187
H38	H	1.378782	-1.107408	-0.634956
H39	H	1.514051	-0.898268	-0.499711
H40	H	1.555871	-1.070099	-0.458092
C41	C	1.510423	-0.576756	-1.025542
N42	N	1.558609	-0.632171	-1.077886
C43	C	1.326967	-0.366157	-1.170675
N44	N	1.278704	-0.310803	-1.208973
C45	C	1.315900	-0.951211	-0.697609
N46	N	1.254801	-0.996535	-0.758650
C47	C	0.809240	-0.640531	-0.721532
N48	N	0.756902	-0.695934	-0.783808
H49	H	1.493906	-0.557532	-1.142023
C50	C	1.049623	-0.640496	-0.721489
N51	N	1.087920	-0.695890	-0.783745
C52	C	1.326892	-0.366242	-0.930307
N53	N	1.278604	-0.310917	-0.877974
