data_functionalizedCrystal
_audit_creation_method	'MofGen! by Chris Wilmer'
_symmetry_space_group_name_H-M	'P1'
_symmetry_Int_Tables_number	1
_symmetry_cell_setting	triclinic
loop_
_symmetry_equiv_pos_as_xyz
  x,y,z
_cell_length_a	10.540539
_cell_length_b	10.723023
_cell_length_c	9.198806
_cell_angle_alpha	90.000161
_cell_angle_beta	89.995305
_cell_angle_gamma	84.496520
loop_
_atom_site_label
_atom_site_type_symbol
_atom_site_fract_x
_atom_site_fract_y
_atom_site_fract_z
O1	O	0.178049	1.657269	-0.120870
O2	O	0.678049	2.157269	0.379130
O3	O	0.195092	1.294125	-0.120876
O4	O	0.695092	1.794125	0.379124
O5	O	0.001860	1.483982	-0.120871
O6	O	0.501860	1.983982	0.379129
O7	O	0.371281	1.467413	-0.120875
O8	O	0.871281	1.967413	0.379125
O9	O	0.001844	1.483982	0.120914
O10	O	0.501844	1.983982	0.620914
O11	O	0.195077	1.294125	0.120909
O12	O	0.695077	1.794125	0.620909
O13	O	0.178033	1.657269	0.120915
O14	O	0.678033	2.157269	0.620915
Cu15	Cu	0.186554	1.475697	0.142989
Cu16	Cu	0.686554	1.975697	0.642989
Cu17	Cu	0.186572	1.475698	-0.142950
Cu18	Cu	0.686572	1.975698	0.357050
O19	O	0.371266	1.467412	0.120910
O20	O	0.871266	1.967412	0.620910
C21	C	0.193844	1.247625	0.000016
C22	C	0.693844	1.747625	0.500016
C23	C	0.190134	1.109069	0.000014
C24	C	0.690134	1.609069	0.500014
C25	C	0.188472	1.047296	0.125265
C26	C	0.688472	1.547296	0.625265
C27	C	0.184637	0.904091	0.125265
C28	C	0.684637	1.404091	0.625265
C29	C	-0.045450	1.482739	0.000019
C30	C	0.454550	1.982739	0.500019
C31	C	-0.186397	1.479022	0.000011
C32	C	0.313603	1.979022	0.500011
C33	C	-0.369750	1.336564	-0.000534
C34	C	0.130250	1.836564	0.499466
C35	C	-0.223134	1.340333	0.000011
C36	C	0.276866	1.840333	0.500011
C37	C	-0.248098	1.545765	0.138083
C38	C	0.251902	2.045765	0.638083
C39	C	-0.394640	1.541032	0.138199
C40	C	0.105360	2.041032	0.638199
C41	C	-0.395142	1.543853	-0.136755
C42	C	0.104858	2.043853	0.363245
C43	C	-0.248160	1.545130	-0.138581
C44	C	0.251840	2.045130	0.361419
C45	C	0.418576	1.468655	0.000017
C46	C	0.918576	1.968655	0.500017
C47	C	0.559522	1.472373	0.000015
C48	C	1.059522	1.972373	0.500015
C49	C	0.179281	1.703769	0.000020
C50	C	0.679281	2.203769	0.500020
C51	C	0.182991	1.842326	0.000013
C52	C	0.682991	2.342326	0.500013
N53	N	0.186575	1.475699	-0.344064
N54	N	0.686575	1.975699	0.155936
C55	C	0.105261	1.555588	-0.416259
C56	C	0.605261	2.055588	0.083741
C57	C	0.105242	1.555592	-0.583671
C58	C	0.605242	2.055592	-0.083671
N59	N	0.186540	1.475705	0.344103
N60	N	0.686540	1.975705	0.844103
H61	H	0.184428	0.895440	-0.107225
H62	H	0.684428	1.395440	0.392775
F63	F	-0.167400	1.271689	-0.129357
F64	F	0.332600	1.771689	0.370643
F65	F	-0.218951	1.678890	0.144801
F66	F	0.281049	2.178890	0.644801
H67	H	0.183215	0.850966	0.232497
H68	H	0.683215	1.350966	0.732497
H69	H	-0.442660	1.640775	0.144465
H70	H	0.057340	2.140775	0.644465
H71	H	0.188715	1.055937	-0.107217
H72	H	0.688715	1.555937	0.392783
F73	F	-0.192398	1.485166	0.272384
F74	F	0.307602	1.985166	0.772384
F75	F	0.277559	1.386307	-0.425266
F76	F	0.777559	1.886307	0.074734
F77	F	-0.436330	1.485175	-0.273542
F78	F	0.063670	1.985175	0.226458
H79	H	0.256155	1.407301	-0.593822
H80	H	0.756155	1.907301	-0.093822
F81	F	-0.194120	1.481799	-0.272108
F82	F	0.305880	1.981799	0.227892
F83	F	0.014289	1.644993	-0.335059
F84	F	0.514289	2.144993	0.164941
H85	H	-0.398315	1.281779	-0.099548
H86	H	0.101685	1.781779	0.400452
F87	F	-0.456938	1.674787	-0.137971
F88	F	0.043062	2.174787	0.362029
H89	H	-0.399935	1.282001	0.097924
H90	H	0.100065	1.782001	0.597924
F91	F	-0.168522	1.271203	0.129590
F92	F	0.331478	1.771203	0.629590
F93	F	-0.431477	1.476553	0.273099
F94	F	0.068523	1.976553	0.773099
F95	F	-0.216563	1.677294	-0.149486
F96	F	0.283437	2.177294	0.350514
H97	H	0.189881	1.100429	0.232496
H98	H	0.689881	1.600429	0.732496
H99	H	0.035621	1.623985	-0.645756
H100	H	0.535621	2.123985	-0.145756
