data_functionalizedCrystal
_audit_creation_method	'MofGen! by Chris Wilmer'
_symmetry_space_group_name_H-M	'P1'
_symmetry_Int_Tables_number	1
_symmetry_cell_setting	triclinic
loop_
_symmetry_equiv_pos_as_xyz
  x,y,z
_cell_length_a	11.792241
_cell_length_b	14.519709
_cell_length_c	10.868271
_cell_angle_alpha	89.993918
_cell_angle_beta	89.999893
_cell_angle_gamma	83.936780
loop_
_atom_site_label
_atom_site_type_symbol
_atom_site_fract_x
_atom_site_fract_y
_atom_site_fract_z
O1	O	1.506208	0.126404	-0.102206
O2	O	1.839541	0.459738	0.231128
O3	O	2.172874	0.793071	0.564461
O4	O	1.175794	0.139432	-0.102235
O5	O	1.509128	0.472765	0.231099
O6	O	1.842461	0.806098	0.564432
O7	O	1.349761	-0.001288	-0.102208
O8	O	1.683095	0.332045	0.231125
O9	O	2.016428	0.665378	0.564458
O10	O	1.332241	0.267124	-0.102232
O11	O	1.665574	0.600458	0.231101
O12	O	1.998907	0.933791	0.564435
O13	O	1.349747	-0.001294	0.102436
O14	O	1.683080	0.332039	0.435770
O15	O	2.016414	0.665373	0.769103
O16	O	1.175780	0.139426	0.102410
O17	O	1.509113	0.472759	0.435743
O18	O	1.842447	0.806093	0.769077
O19	O	1.506193	0.126399	0.102439
O20	O	1.839527	0.459732	0.435772
O21	O	2.172860	0.793066	0.769106
Zn22	Zn	1.340984	0.132912	0.134916
Zn23	Zn	1.674318	0.466245	0.468250
Zn24	Zn	2.007651	0.799578	0.801583
Zn25	Zn	1.341003	0.132919	-0.134712
Zn26	Zn	1.674337	0.466252	0.198621
Zn27	Zn	2.007670	0.799586	0.531955
O28	O	1.332226	0.267119	0.102413
O29	O	1.665560	0.600452	0.435746
O30	O	1.998893	0.933786	0.769079
C31	C	1.133501	0.138611	0.000084
C32	C	1.466834	0.471944	0.333417
C33	C	1.800167	0.805277	0.666751
C34	C	1.007501	0.136161	0.000073
C35	C	1.340834	0.469495	0.333407
C36	C	1.674167	0.802828	0.666740
C37	C	0.776813	0.131657	0.000109
C38	C	1.110147	0.464991	0.333443
C39	C	1.443480	0.798324	0.666776
C40	C	0.905185	0.134160	0.000090
C41	C	1.238518	0.467493	0.333423
C42	C	1.571851	0.800827	0.666756
C43	C	1.348938	-0.035654	0.000114
C44	C	1.682271	0.297679	0.333448
C45	C	2.015604	0.631013	0.666781
C46	C	1.346491	-0.138044	0.000115
C47	C	1.679824	0.195289	0.333448
C48	C	2.013158	0.528623	0.666781
C49	C	1.337483	-0.512973	0.000082
C50	C	1.670816	-0.179640	0.333415
C51	C	2.004149	0.153694	0.666749
C52	C	1.339984	-0.408656	0.000091
C53	C	1.673318	-0.075322	0.333425
C54	C	2.006651	0.258011	0.666758
C55	C	1.341987	-0.325512	0.000099
C56	C	1.675320	0.007822	0.333433
C57	C	2.008653	0.341155	0.666766
C58	C	1.344489	-0.221188	0.000107
C59	C	1.677822	0.112145	0.333440
C60	C	2.011155	0.445479	0.666773
C61	C	1.548487	0.127220	0.000118
C62	C	1.881820	0.460553	0.333451
C63	C	2.215154	0.793887	0.666784
C64	C	1.674487	0.129669	0.000120
C65	C	2.007820	0.463003	0.333454
C66	C	2.341154	0.796336	0.666787
C67	C	1.333050	0.301484	0.000087
C68	C	1.666383	0.634818	0.333421
C69	C	1.999717	0.968151	0.666754
C70	C	1.335497	0.403875	0.000079
C71	C	1.668830	0.737208	0.333412
C72	C	2.002164	1.070541	0.666746
N73	N	1.340980	0.132906	0.318930
N74	N	1.674313	0.466239	0.652264
N75	N	2.007647	0.799573	0.985597
N76	N	1.341017	0.132917	-0.318726
N77	N	1.674350	0.466251	0.014607
N78	N	2.007684	0.799584	0.347941
C79	C	1.340997	0.132917	0.569936
C80	C	1.674331	0.466250	0.903270
C81	C	2.007664	0.799584	1.236603
C82	C	1.340984	0.132914	0.430259
C83	C	1.674317	0.466247	0.763592
C84	C	2.007651	0.799580	1.096926
