data_functionalizedCrystal
_audit_creation_method	'MofGen! by Chris Wilmer'
_symmetry_space_group_name_H-M	'P1'
_symmetry_Int_Tables_number	1
_symmetry_cell_setting	triclinic
loop_
_symmetry_equiv_pos_as_xyz
  x,y,z
_cell_length_a	10.967926
_cell_length_b	10.967829
_cell_length_c	15.186229
_cell_angle_alpha	77.868373
_cell_angle_beta	102.125883
_cell_angle_gamma	87.248880
loop_
_atom_site_label
_atom_site_type_symbol
_atom_site_fract_x
_atom_site_fract_y
_atom_site_fract_z
O1	O	1.657160	0.175018	0.151693
O2	O	2.157160	0.675018	0.651693
O3	O	1.294014	0.191774	0.094041
O4	O	1.794014	0.691774	0.594041
O5	O	1.483961	0.001817	0.151696
O6	O	1.983961	0.501817	0.651696
O7	O	1.467212	0.364974	0.094039
O8	O	1.967212	0.864974	0.594039
O9	O	1.483949	0.001815	0.298151
O10	O	1.983949	0.501815	0.798151
O11	O	1.294001	0.191771	0.240497
O12	O	1.794001	0.691771	0.740497
O13	O	1.657147	0.175015	0.298149
O14	O	2.157147	0.675015	0.798149
Zn15	Zn	1.475572	0.183392	0.292576
Zn16	Zn	1.975572	0.683392	0.792576
Zn17	Zn	1.475589	0.183396	0.099614
Zn18	Zn	1.975589	0.683396	0.599614
O19	O	1.467200	0.364971	0.240494
O20	O	1.967200	0.864971	0.740494
C21	C	1.247509	0.190553	0.160397
C22	C	1.747509	0.690553	0.660397
C23	C	1.108957	0.186906	0.139924
C24	C	1.608957	0.686906	0.639924
C25	C	1.047179	0.185279	0.206665
C26	C	1.547179	0.685279	0.706665
C27	C	0.903979	0.181510	0.185507
C28	C	1.403979	0.681510	0.685507
C29	C	1.482735	-0.044684	0.231794
C30	C	1.982735	0.455316	0.731794
C31	C	1.479086	-0.183240	0.252263
C32	C	1.979086	0.316760	0.752263
C33	C	1.477466	-0.245005	0.185519
C34	C	1.977466	0.254995	0.685519
C35	C	1.473695	-0.388210	0.206673
C36	C	1.973695	0.111790	0.706673
C37	C	1.703652	0.176235	0.231791
C38	C	2.203652	0.676235	0.731791
C39	C	1.842204	0.179882	0.252258
C40	C	2.342204	0.679882	0.752258
C41	C	1.468426	0.411473	0.160394
C42	C	1.968426	0.911473	0.660394
C43	C	1.472075	0.550029	0.139920
C44	C	1.972075	1.050029	0.639920
N45	N	1.475570	0.183389	0.424269
N46	N	1.975570	0.683389	0.924269
N47	N	1.475601	0.183390	-0.032076
N48	N	1.975601	0.683390	0.467924
C49	C	1.559708	0.099306	0.675521
C50	C	2.059708	0.599306	1.175521
C51	C	1.559711	0.099303	0.767712
C52	C	2.059711	0.599303	1.267712
C53	C	1.391454	0.267477	0.716663
C54	C	1.891454	0.767477	1.216663
C55	C	1.391445	0.267473	0.624475
C56	C	1.891445	0.767473	1.124475
C57	C	1.475579	0.183389	0.603907
C58	C	1.975579	0.683389	1.103907
C59	C	1.475592	0.183390	0.788286
C60	C	1.975592	0.683390	1.288286
C61	C	1.475595	0.183388	0.888243
C62	C	1.975595	0.683388	1.388243
C63	C	1.475574	0.183389	0.503943
C64	C	1.975574	0.683389	1.003943
H65	H	1.100306	0.186669	0.279470
H66	H	1.600306	0.686669	0.779470
Cl67	Cl	1.026947	0.184740	0.027520
Cl68	Cl	1.526947	0.684740	0.527520
H69	H	1.322932	0.335945	0.566160
H70	H	1.822932	0.835945	1.066160
H71	H	1.322956	0.335939	0.733420
H72	H	1.822956	0.835939	1.233420
H73	H	1.628215	0.030833	0.826020
H74	H	2.128215	0.530833	1.326020
H75	H	1.478866	-0.191865	0.112716
H76	H	1.978866	0.308135	0.612716
Cl77	Cl	1.471516	-0.470236	0.319081
Cl78	Cl	1.971516	0.029764	0.819081
Cl79	Cl	1.476907	-0.265271	0.364666
Cl80	Cl	1.976907	0.234729	0.864666
Cl81	Cl	0.821974	0.179343	0.073098
Cl82	Cl	1.321974	0.679343	0.573098
H83	H	1.473465	-0.396837	0.067109
H84	H	1.973465	0.103163	0.567109
H85	H	0.895324	0.181275	0.325067
H86	H	1.395324	0.681275	0.825067
Cl87	Cl	1.665471	-0.006405	0.649668
Cl88	Cl	2.165471	0.493595	1.149668
