data_functionalizedCrystal
_audit_creation_method	'MofGen! by Chris Wilmer'
_symmetry_space_group_name_H-M	'P1'
_symmetry_Int_Tables_number	1
_symmetry_cell_setting	triclinic
loop_
_symmetry_equiv_pos_as_xyz
  x,y,z
_cell_length_a	8.497374
_cell_length_b	8.497374
_cell_length_c	18.050591
_cell_angle_alpha	90.002899
_cell_angle_beta	90.009569
_cell_angle_gamma	90.005237
loop_
_atom_site_label
_atom_site_type_symbol
_atom_site_fract_x
_atom_site_fract_y
_atom_site_fract_z
Zn1	Zn	0.892436	0.628498	1.135349
Zn2	Zn	0.628702	0.892243	1.135343
Zn3	Zn	0.628628	0.628453	1.011193
Zn4	Zn	0.892397	0.892211	1.011175
O5	O	0.760541	0.760351	1.073265
O6	O	0.857499	0.663516	1.239273
O7	O	0.407930	0.857246	1.118880
O8	O	0.663608	0.407696	1.027673
O9	O	0.663735	0.857289	1.239269
O10	O	0.857427	0.407729	1.118890
O11	O	0.407875	0.663440	1.027667
O12	O	0.663570	0.663409	0.907266
O13	O	1.113165	0.857234	1.027642
O14	O	0.857360	0.857191	0.907253
O15	O	1.113194	0.663485	1.118872
O16	O	0.663697	1.113001	1.118862
O17	O	0.857433	1.112978	1.027637
C18	C	0.760454	0.760292	0.880313
C19	C	0.760454	0.760305	0.797767
C20	C	1.172021	0.760353	1.073260
C21	C	1.350665	0.760370	1.073261
C22	C	0.760564	1.170231	1.073256
C23	C	0.760538	1.348875	1.073276
C24	C	0.655313	0.654804	0.598302
C25	C	0.616532	0.798685	0.548918
C26	C	0.760525	0.760353	0.646637
C27	C	0.799302	0.616522	0.548939
C28	C	0.760591	0.760387	0.500652
C29	C	0.721669	0.904309	0.598340
C30	C	0.904506	0.722050	0.598366
C31	C	0.865779	0.866030	0.549004
C32	C	0.760483	0.760332	0.730735
C33	C	0.760633	0.760424	0.416555
C34	C	0.760629	0.760411	1.266971
C35	C	0.760667	0.760437	1.349517
H36	H	0.566242	0.565641	0.619948
H37	H	0.494798	0.831108	0.527199
C38	C	0.980756	0.463062	0.476990
C39	C	0.843551	0.452306	0.519642
H40	H	1.008054	0.361680	0.458900
H41	H	1.064074	0.502693	0.506705
H42	H	0.963178	0.532089	0.436429
H43	H	0.861133	0.383288	0.560205
H44	H	0.760214	0.412653	0.489925
C45	C	0.677530	1.067054	0.705074
C46	C	0.677228	1.068580	0.627504
H47	H	0.650082	1.168463	0.723077
H48	H	0.779456	1.039672	0.722410
H49	H	0.603232	0.992006	0.722340
H50	H	0.751534	1.143620	0.610238
H51	H	0.575287	1.095982	0.610161
C52	C	1.057832	0.542624	0.671490
C53	C	1.068788	0.678223	0.627719
H54	H	1.159252	0.515561	0.689616
H55	H	1.017609	0.458411	0.642522
H56	H	0.989221	0.561951	0.712026
H57	H	1.137391	0.658892	0.587180
H58	H	1.109033	0.762454	0.656688
H59	H	0.954782	0.955406	0.527494
