data_functionalizedCrystal
_audit_creation_method	'MofGen! by Chris Wilmer'
_symmetry_space_group_name_H-M	'P1'
_symmetry_Int_Tables_number	1
_symmetry_cell_setting	triclinic
loop_
_symmetry_equiv_pos_as_xyz
  x,y,z
_cell_length_a	20.875641
_cell_length_b	23.196402
_cell_length_c	23.196401
_cell_angle_alpha	60.008822
_cell_angle_beta	90.012211
_cell_angle_gamma	57.589996
loop_
_atom_site_label
_atom_site_type_symbol
_atom_site_fract_x
_atom_site_fract_y
_atom_site_fract_z
Zr1	Zr	0.641480	0.588689	-0.054483
O2	O	0.535134	0.715970	-0.150035
O3	O	0.674078	0.466273	-0.025195
O4	O	0.674048	0.586542	-0.145462
O5	O	0.535189	0.595697	0.065103
O6	O	0.783630	0.579314	-0.141850
O7	O	0.535163	0.595701	-0.029769
O8	O	0.783682	0.364175	0.073285
O9	O	0.535137	0.810837	-0.150031
O10	O	0.769763	0.509428	-0.010004
O11	O	0.688003	0.514820	0.058102
O12	O	0.687969	0.656421	-0.083496
O13	O	0.606209	0.661813	-0.015389
Zr14	Zr	0.816291	0.577156	0.102588
Zr15	Zr	0.816249	0.577161	-0.048723
Zr16	Zr	0.641522	0.588684	0.096827
Zr17	Zr	0.641485	0.739991	-0.054477
Zr18	Zr	0.816286	0.425854	0.102581
O19	O	0.783693	0.699572	0.073299
O20	O	0.783633	0.699579	-0.141844
O21	O	0.535193	0.715962	0.065109
O22	O	0.922637	0.449875	0.198139
O23	O	0.922577	0.449883	-0.017004
O24	O	0.674137	0.466266	0.189948
O25	O	0.922581	0.570148	-0.016999
O26	O	0.783722	0.579303	0.193566
O27	O	0.674141	0.586531	0.189954
O28	O	0.922607	0.570144	0.077873
O29	O	0.674055	0.801674	-0.145452
O30	O	0.783715	0.364171	0.193556
O31	O	0.922634	0.355008	0.198135
O32	O	0.922601	0.355012	0.077864
O33	O	0.535170	0.810833	-0.029759
O34	O	0.674088	0.801670	-0.025181
O35	O	0.769802	0.509424	0.131600
O36	O	0.851562	0.504032	0.063493
O37	O	0.769767	0.651025	-0.009998
O38	O	0.688008	0.656417	0.058108
C39	C	0.728879	0.393667	0.024044
C40	C	0.728877	0.329435	0.024041
C41	C	0.771549	0.296451	-0.011513
C42	C	0.771557	0.236089	-0.011507
C43	C	0.728877	0.208727	0.024043
C44	C	0.686203	0.241715	0.059605
C45	C	0.686203	0.302069	0.059604
C46	C	0.657372	0.151414	0.016411
C47	C	0.657370	0.091064	0.016407
C48	C	0.728878	0.022572	0.024050
C49	C	0.800388	0.014443	0.031683
C50	C	0.800388	0.074798	0.031682
C51	C	0.728873	0.143283	0.024048
C52	C	0.771563	-0.075864	-0.011499
C53	C	0.771573	-0.136231	-0.011488
C54	C	0.686211	-0.130597	0.059619
C55	C	0.686209	-0.070238	0.059612
C56	C	0.728883	-0.042873	0.024050
C57	C	0.510275	0.597341	0.016846
C58	C	0.436081	0.602235	0.014401
C59	C	0.443918	0.527807	0.051610
C60	C	0.374202	0.532410	0.049311
C61	C	0.296650	0.611442	0.009797
C62	C	0.288814	0.685875	-0.027413
C63	C	0.358530	0.681271	-0.025109
C64	C	0.083569	0.633439	-0.001203
C65	C	0.013852	0.638038	-0.003506
C66	C	0.099245	0.484572	0.073219
C67	C	0.168958	0.479975	0.075516
C68	C	0.161117	0.554408	0.038309
N69	N	0.225388	0.616149	0.007444
N70	N	0.232378	0.549700	0.040666
C71	C	0.947495	0.568504	0.031258
C72	C	1.021689	0.563610	0.033703
C73	C	0.728833	0.582929	-0.165214
C74	C	0.728815	0.582931	-0.229449
C75	C	0.728891	0.772178	0.024060
C76	C	0.728893	0.836410	0.024063
C77	C	0.686124	0.659657	-0.297984
C78	C	0.686144	0.659657	-0.358339
C79	C	0.728846	0.582927	-0.350155
C80	C	0.771547	0.506190	-0.281607
C81	C	0.771532	0.506192	-0.221255
C82	C	0.722780	0.526699	-0.417674
C83	C	0.722789	0.526701	-0.478027
C84	C	0.728897	0.582917	-0.536301
C85	C	0.734979	0.639148	-0.534220
C86	C	0.734964	0.639150	-0.473868
C87	C	0.728867	0.582916	-0.415593
C88	C	0.686226	0.659649	-0.670281
C89	C	0.686252	0.659645	-0.730635
C90	C	0.771649	0.506176	-0.653902
C91	C	0.771628	0.506182	-0.593550
C92	C	0.728912	0.582921	-0.601745
C93	C	0.728938	0.582916	0.213318
C94	C	0.728955	0.582914	0.277553
C95	C	0.947489	0.379248	0.031249
C96	C	1.021681	0.310122	0.033692
C97	C	0.728932	0.393660	0.213310
C98	C	0.728947	0.329426	0.277542
C99	C	0.947541	0.379241	0.220516
C100	C	1.021751	0.310114	0.287193
C101	C	0.510229	0.786604	-0.172411
C102	C	0.436019	0.855731	-0.239089
C103	C	0.510281	0.786597	0.016855
C104	C	0.436089	0.855723	0.014412
C105	C	0.728839	0.772185	-0.165206
C106	C	0.728823	0.836419	-0.229438
C107	C	1.013825	0.280477	-0.003532
C108	C	1.083529	0.215535	-0.001251
C109	C	1.161090	0.180236	0.038258
C110	C	1.168945	0.209887	0.075484
C111	C	1.099241	0.274832	0.073198
C112	C	0.771653	0.296445	0.346078
C113	C	0.771664	0.236099	0.406437
C114	C	0.728975	0.208731	0.398258
C115	C	0.686264	0.241719	0.329716
C116	C	0.686248	0.302068	0.269358
C117	C	1.099286	0.274836	0.282955
C118	C	1.169021	0.209891	0.345601
C119	C	1.161219	0.180222	0.412483
C120	C	1.083676	0.215506	0.416720
C121	C	1.013943	0.280453	0.354075
C122	C	0.358485	0.891016	-0.234851
C123	C	0.288750	0.955980	-0.297497
C124	C	0.296552	0.985653	-0.364379
C125	C	0.374095	0.950364	-0.368616
C126	C	0.443828	0.885406	-0.305971
C127	C	0.443946	0.885374	0.051630
C128	C	0.374241	0.950333	0.049332
C129	C	0.296681	0.985634	0.009821
C130	C	0.288826	0.955980	-0.027402
C131	C	0.358530	0.891027	-0.025108
C132	C	0.771521	0.863766	-0.221237
C133	C	0.771522	0.924112	-0.281584
C134	C	0.728820	0.957113	-0.350131
C135	C	0.686121	0.929759	-0.358331
C136	C	0.686125	0.869410	-0.297985
H137	H	0.806307	0.209228	-0.040460
H138	H	0.225666	0.984733	-0.059571
H139	H	1.232104	0.181137	0.107651
C140	C	0.203511	0.772811	-0.070874
H141	H	0.208831	0.816478	-0.092698
H142	H	0.174530	0.777802	-0.106806
H143	H	0.174552	0.777791	-0.039923
H144	H	0.651352	0.847151	-0.304672
C145	C	0.349886	0.858397	-0.161289
H146	H	0.293718	0.888731	-0.167747
H147	H	0.375304	0.799742	-0.135366
H148	H	0.375318	0.866617	-0.135375
H149	H	1.217841	0.127353	0.040114
H150	H	0.739918	0.684933	-0.472177
C151	C	0.818603	0.326549	0.355087
H152	H	0.844024	0.298266	0.404553
H153	H	0.858998	0.313997	0.334416
H154	H	0.781738	0.385963	0.331864
H155	H	0.232101	0.415619	0.107678
C156	C	0.639320	0.211600	0.320729
H157	H	0.645461	0.170926	0.366496
H158	H	0.583150	0.258618	0.293803
H159	H	0.660408	0.186651	0.296355
C160	C	0.729004	0.142343	0.464656
H161	H	0.760561	0.126617	0.506643
H162	H	0.674621	0.165703	0.462877
H163	H	0.751868	0.093738	0.465418
H164	H	0.352121	0.866887	-0.055414
H165	H	0.806294	0.836906	-0.165428
H166	H	-0.049296	0.702398	-0.035685
C167	C	1.074874	0.182922	-0.042192
H168	H	1.018698	0.213239	-0.066037
H169	H	1.100272	0.191142	-0.076338
H170	H	1.100302	0.124262	-0.009452
C171	C	0.578708	0.226754	0.008001
H172	H	0.536118	0.222959	0.003445
H173	H	0.587774	0.225489	0.048889
H174	H	0.563694	0.278298	-0.033530
H175	H	1.077336	0.191339	0.471184
H176	H	0.806292	0.946377	-0.274894
H177	H	1.218007	0.127336	0.463487
C178	C	0.639276	0.338336	0.193973
H179	H	0.613863	0.313384	0.197754
H180	H	0.598871	0.397981	0.167552
H181	H	0.676121	0.326001	0.170109
H182	H	0.239930	1.038523	0.007959
H183	H	0.728823	1.006253	-0.399263
C184	C	1.254307	0.171082	0.340928
H185	H	1.248960	0.198047	0.292122
H186	H	1.283291	0.179065	0.363880
H187	H	1.283281	0.112188	0.363889
H188	H	0.651457	-0.043379	0.088561
H189	H	0.858614	0.068174	0.037898
C190	C	1.107893	0.307425	0.114157
H191	H	1.164070	0.277090	0.138019
H192	H	1.082470	0.366081	0.081435
H193	H	1.082492	0.299192	0.148302
C194	C	0.529255	0.846554	0.095092
H195	H	0.569651	0.803617	0.091137
H196	H	0.535365	0.889479	0.077039
H197	H	0.535382	0.822605	0.143918
H198	H	0.651460	-0.152875	0.088564
C199	C	0.716133	0.464827	-0.480300
H200	H	0.712519	0.431328	-0.436943
H201	H	0.668751	0.495962	-0.519431
H202	H	0.763047	0.428996	-0.485910
H203	H	0.507062	0.463451	0.083789
H204	H	0.806447	0.209246	0.462241
C205	C	0.203463	0.994778	-0.292824
H206	H	0.208811	0.967788	-0.244018
H207	H	0.174484	1.053666	-0.315772
H208	H	0.174485	0.986797	-0.315789
C209	C	0.716056	0.464860	-0.353579
H210	H	0.712423	0.431382	-0.363466
H211	H	0.762937	0.429018	-0.312103
H212	H	0.668646	0.496036	-0.345636
C213	C	0.818497	0.326542	-0.050623
H214	H	0.843918	0.298244	-0.071792
H215	H	0.781644	0.385952	-0.086809
H216	H	0.858907	0.313979	-0.017387
C217	C	0.879054	-0.060899	0.040100
H218	H	0.868819	-0.095688	0.039019
H219	H	0.896400	-0.040351	0.002034
H220	H	0.920473	-0.093150	0.084452
C221	C	0.818516	-0.045774	-0.050602
H222	H	0.843944	-0.074077	-0.071765
H223	H	0.781666	0.013635	-0.086791
H224	H	0.858921	-0.058335	-0.017363
H225	H	0.806326	-0.163091	-0.040437
H226	H	0.380653	0.974466	0.079647
H227	H	1.105654	0.298983	0.228502
C228	C	0.928657	0.319249	0.358742
H229	H	0.888238	0.362184	0.311858
H230	H	0.922562	0.276315	0.383623
H231	H	0.922553	0.343198	0.383620
H232	H	0.806389	0.443703	-0.537745
H233	H	0.651452	0.328926	0.088556
H234	H	0.239764	1.038546	-0.415383
H235	H	0.599142	0.097692	0.010189
C236	C	0.382666	0.983004	-0.442189
H237	H	0.330027	1.026736	-0.478885
H238	H	0.411631	1.004641	-0.446541
H239	H	0.411617	0.937767	-0.446535
H240	H	0.651354	0.956638	-0.414150
C241	C	0.529111	0.846589	-0.310642
H242	H	0.523763	0.873563	-0.359448
H243	H	0.558105	0.854557	-0.287680
H244	H	0.558076	0.787699	-0.287691
H245	H	0.651453	0.219432	0.088550
H246	H	0.380591	0.471804	0.079611
H247	H	0.105620	0.423973	0.103511
H248	H	0.077174	0.694048	-0.031512
H249	H	0.352144	0.741878	-0.055400
H250	H	0.651344	0.722144	-0.304662
H251	H	0.739949	0.684928	-0.581669
C252	C	0.639180	0.744057	-0.433737
H253	H	0.645312	0.733063	-0.468506
H254	H	0.583013	0.778129	-0.440896
H255	H	0.660256	0.773041	-0.438326
C256	C	0.639249	0.744053	-0.679286
H257	H	0.645345	0.733066	-0.633526
H258	H	0.660329	0.773033	-0.703650
H259	H	0.583084	0.778126	-0.706229
C260	C	0.639289	0.744048	-0.806026
H261	H	0.613842	0.789748	-0.802258
H262	H	0.676137	0.744697	-0.829879
H263	H	0.598898	0.749778	-0.832449
H264	H	0.806315	0.443716	-0.274948
C265	C	0.818471	0.421794	-0.145863
H266	H	0.812343	0.432785	-0.111092
H267	H	0.797386	0.392825	-0.141291
H268	H	0.874646	0.387707	-0.138689
H269	H	0.806419	0.443701	-0.647237
H270	H	0.950677	0.309217	-0.035714
