data_functionalizedCrystal
_audit_creation_method	'MofGen! by Chris Wilmer'
_symmetry_space_group_name_H-M	'P1'
_symmetry_Int_Tables_number	1
_symmetry_cell_setting	triclinic
loop_
_symmetry_equiv_pos_as_xyz
  x,y,z
_cell_length_a	21.395362
_cell_length_b	8.497374
_cell_length_c	21.395361
_cell_angle_alpha	89.986770
_cell_angle_beta	89.953589
_cell_angle_gamma	90.022954
loop_
_atom_site_label
_atom_site_type_symbol
_atom_site_fract_x
_atom_site_fract_y
_atom_site_fract_z
Zn1	Zn	0.957730	0.892797	0.249282
Zn2	Zn	0.957672	0.628978	0.354031
Zn3	Zn	0.852984	0.628927	0.249300
Zn4	Zn	0.852915	0.892612	0.354054
O5	O	0.905325	0.760829	0.301667
O6	O	1.045400	0.857900	0.263159
O7	O	0.943789	0.408209	0.340136
O8	O	0.866932	0.663986	0.161620
O9	O	1.045357	0.664073	0.340118
O10	O	0.943889	0.857851	0.161606
O11	O	0.866875	0.408171	0.263191
O12	O	0.765297	0.663806	0.263214
O13	O	0.866815	1.113399	0.340158
O14	O	0.765246	0.857534	0.340176
O15	O	0.943822	1.113535	0.263182
O16	O	0.943722	0.663893	0.441712
O17	O	0.866758	0.857584	0.441729
C18	C	0.742537	0.760646	0.301700
C19	C	0.672896	0.760605	0.301729
C20	C	0.640173	0.861328	0.341857
C21	C	0.574738	0.861398	0.341841
C22	C	0.542028	0.760717	0.301705
C23	C	0.574759	0.659987	0.261570
C24	C	0.640193	0.659931	0.261582
C25	C	0.438324	0.618696	0.296652
C26	C	0.372891	0.618749	0.296644
C27	C	0.340207	0.760891	0.301664
C28	C	0.372964	0.902984	0.306705
C29	C	0.438399	0.902928	0.306717
C30	C	0.471076	0.760767	0.301687
C31	C	0.236532	0.861699	0.341777
C32	C	0.171095	0.861772	0.341757
C33	C	0.171117	0.660347	0.261489
C34	C	0.236553	0.660288	0.261506
C35	C	0.269256	0.760962	0.301653
C36	C	0.905243	0.760758	0.464454
C37	C	0.905265	0.760781	0.534096
C38	C	0.945376	0.660033	0.566779
C39	C	0.945405	0.660076	0.632214
C40	C	0.905313	0.760849	0.664964
C41	C	0.865199	0.861617	0.632273
C42	C	0.865175	0.861583	0.566839
C43	C	0.848896	0.773175	0.768695
C44	C	0.848919	0.773198	0.834128
C45	C	0.905386	0.760964	0.866785
C46	C	0.961832	0.748673	0.834000
C47	C	0.961808	0.748639	0.768566
C48	C	0.905334	0.760898	0.735916
C49	C	0.945532	0.660257	0.970421
C50	C	0.945563	0.660310	1.035857
C51	C	0.865351	0.861843	1.035914
C52	C	0.865326	0.861798	0.970479
C53	C	0.905416	0.760996	0.937736
C54	C	1.068748	0.761013	0.301634
C55	C	1.138390	0.761092	0.301620
C56	C	0.905320	1.172309	0.301668
C57	C	0.905322	1.350953	0.301674
C58	C	0.905425	0.760961	1.138243
C59	C	0.905470	0.761087	1.068602
H60	H	0.263196	0.578260	0.228833
Br61	Br	0.126683	0.998494	0.396216
H62	H	0.832661	0.943829	0.943866
H63	H	0.802910	0.783144	0.742113
Br64	Br	0.482854	1.095757	0.313555
H65	H	0.978178	0.578183	0.943760
H66	H	0.978230	0.578272	1.062467
H67	H	0.832709	0.943902	1.062578
H68	H	0.666796	0.943307	0.374547
Br69	Br	0.772315	0.789869	0.878615
H70	H	0.832556	0.943670	0.658942
Br71	Br	0.810735	0.998325	0.522479
Br72	Br	0.328617	1.095906	0.313516
Br73	Br	0.280918	0.998330	0.396258
Br74	Br	0.530318	0.998106	0.396303
Br75	Br	0.328441	0.425913	0.289804
H76	H	1.007813	0.738711	0.860588
Br77	Br	0.126733	0.523720	0.207011
H78	H	0.464929	0.502939	0.292561
Br79	Br	0.530369	0.523360	0.207094
H80	H	0.666836	0.577909	0.228903
H81	H	0.978021	0.577959	0.540122
H82	H	0.978071	0.578035	0.658830
H83	H	1.007768	0.738636	0.741874
