data_functionalizedCrystal
_audit_creation_method	'MofGen! by Chris Wilmer'
_symmetry_space_group_name_H-M	'P1'
_symmetry_Int_Tables_number	1
_symmetry_cell_setting	triclinic
loop_
_symmetry_equiv_pos_as_xyz
  x,y,z
_cell_length_a	15.538191
_cell_length_b	9.565339
_cell_length_c	10.489711
_cell_angle_alpha	89.996064
_cell_angle_beta	65.899551
_cell_angle_gamma	90.003605
loop_
_atom_site_label
_atom_site_type_symbol
_atom_site_fract_x
_atom_site_fract_y
_atom_site_fract_z
O1	O	1.247142	0.116304	-0.412995
O2	O	0.973868	0.116293	-0.266173
O3	O	1.116738	0.116303	-0.528148
O4	O	1.104272	0.116294	-0.151021
O5	O	1.116727	-0.116218	-0.528131
O6	O	0.973857	-0.116227	-0.266156
O7	O	1.247131	-0.116216	-0.412978
Zn8	Zn	1.110492	-0.153139	-0.339564
Zn9	Zn	1.110507	0.153216	-0.339587
O10	O	1.104261	-0.116226	-0.151003
C11	C	0.938870	0.000032	-0.250803
C12	C	0.834603	0.000028	-0.205047
N13	N	1.110489	-0.362219	-0.339553
C14	C	0.543764	0.000060	-0.659627
C15	C	0.445787	0.000060	-0.616600
C16	C	0.424967	0.000054	-0.374581
C17	C	0.522944	0.000047	-0.417588
C18	C	0.582336	0.000052	-0.560113
C19	C	0.561516	0.000039	-0.318073
C20	C	0.659485	0.000040	-0.361078
C21	C	0.718882	0.000048	-0.503596
C22	C	0.680305	0.000052	-0.603117
C23	C	0.502123	0.000045	-0.175549
C24	C	0.540694	0.000037	-0.076034
C25	C	0.638665	0.000027	-0.119038
C26	C	0.698062	0.000036	-0.261557
C27	C	0.677242	0.000024	-0.019517
C28	C	0.775211	0.000024	-0.062522
C29	C	0.796031	0.000036	-0.304561
C30	C	1.044396	-0.453426	-0.218418
C31	C	1.129422	-0.546602	-0.233034
C32	C	1.025499	-0.546598	-0.324945
C33	C	1.195558	-0.453343	-0.354130
C34	C	1.091579	-0.453330	-0.446065
C35	C	1.176666	-0.546464	-0.460758
C36	C	1.282129	0.000048	-0.428348
C37	C	1.386396	0.000061	-0.474105
C38	C	1.115797	0.000046	-0.575227
C39	C	1.112998	0.000058	-0.715527
N40	N	1.110518	0.362295	-0.339612
C41	C	1.198915	0.000047	-0.938764
C42	C	1.155993	-0.114598	-0.826206
C43	C	1.155981	0.114649	-0.826236
C44	C	1.065041	-0.114709	-0.852914
C45	C	1.065042	0.114641	-0.852960
C46	C	1.022053	-0.000032	-0.740398
C47	C	1.105202	0.000034	-0.103925
C48	C	1.108001	0.000031	0.036376
H49	H	0.844392	0.000032	-0.420619
C50	C	1.207952	-0.245540	-0.809048
N51	N	1.247093	-0.344165	-0.796135
C52	C	1.252274	-0.601331	-0.599216
N53	N	1.309225	-0.642665	-0.703495
H54	H	0.947261	-0.000099	-0.655373
C55	C	1.069907	-0.397929	-0.567650
N56	N	1.053572	-0.356197	-0.659222
C57	C	1.013129	0.245585	-0.870212
N58	N	0.974038	0.344223	-0.883219
H59	H	1.194470	0.211571	-0.813581
H60	H	1.145436	-0.587571	-0.142989
H61	H	1.026600	-0.211741	-0.865441
H62	H	0.414388	0.000069	-0.697647
H63	H	0.592125	0.000055	-0.775685
H64	H	0.953613	-0.587564	-0.312568
C65	C	0.745642	0.000050	-0.759903
N66	N	0.794853	0.000053	-0.877988
H67	H	0.422351	0.000049	-0.140540
H68	H	0.798655	0.000067	-0.538608
C69	C	0.968963	-0.398220	-0.079970
N70	N	0.912152	-0.356635	0.024309
C71	C	0.475353	0.000025	0.080739
N72	N	0.426139	0.000009	0.198824
C73	C	1.292695	-0.398242	-0.370696
N74	N	1.365856	-0.356737	-0.383165
H75	H	0.376597	0.000057	-0.258536
H76	H	0.628872	0.000034	0.096526
H77	H	0.806616	0.000005	0.018513
H78	H	1.273640	-0.000063	-1.023982
