data_functionalizedCrystal
_audit_creation_method	'MofGen! by Chris Wilmer'
_symmetry_space_group_name_H-M	'P1'
_symmetry_Int_Tables_number	1
_symmetry_cell_setting	triclinic
loop_
_symmetry_equiv_pos_as_xyz
  x,y,z
_cell_length_a	12.827893
_cell_length_b	17.638166
_cell_length_c	12.827885
_cell_angle_alpha	101.173945
_cell_angle_beta	89.980538
_cell_angle_gamma	101.244113
loop_
_atom_site_label
_atom_site_type_symbol
_atom_site_fract_x
_atom_site_fract_y
_atom_site_fract_z
Zn1	Zn	1.513450	-0.314656	-0.674878
Zn2	Zn	1.477957	-0.446860	-0.535444
Zn3	Zn	1.338680	-0.314694	-0.500162
Zn4	Zn	1.303306	-0.446801	-0.710128
O5	O	1.408349	-0.380753	-0.605153
O6	O	1.654976	-0.332201	-0.656395
O7	O	1.459432	-0.429369	-0.384539
O8	O	1.391522	-0.204074	-0.493821
O9	O	1.628899	-0.429331	-0.553954
O10	O	1.519924	-0.204046	-0.622184
O11	O	1.357106	-0.332267	-0.358617
O12	O	1.187754	-0.332210	-0.528001
O13	O	1.331232	-0.429231	-0.851678
O14	O	1.161765	-0.429268	-0.682263
O15	O	1.485623	-0.332144	-0.825780
O16	O	1.425132	-0.557467	-0.588134
O17	O	1.296816	-0.557424	-0.716474
C18	C	1.136843	-0.380738	-0.605129
C19	C	1.020686	-0.380750	-0.605149
C20	C	0.956049	-0.428853	-0.681404
C21	C	0.835995	-0.428867	-0.681426
C22	C	1.353312	-0.586127	-0.659980
C23	C	1.329863	-0.673987	-0.683471
C24	C	1.229949	-0.797828	-0.783345
C25	C	1.251991	-0.715270	-0.761264
C26	C	1.385720	-0.715252	-0.627722
C27	C	1.363686	-0.797811	-0.649787
C28	C	1.285800	-0.839093	-0.727600
C29	C	1.419536	-0.839076	-0.594043
C30	C	1.397507	-0.921629	-0.616111
C31	C	1.319627	-0.962916	-0.693923
C32	C	1.263770	-0.921645	-0.749668
C33	C	1.497427	-0.797794	-0.516236
C34	C	1.553278	-0.839059	-0.460492
C35	C	1.531244	-0.921612	-0.482554
C36	C	1.453364	-0.962900	-0.560366
C37	C	1.587100	-0.962883	-0.426808
C38	C	1.565071	-1.045436	-0.448876
C39	C	1.431334	-1.045452	-0.582433
C40	C	1.680914	-0.380769	-0.605178
C41	C	1.797066	-0.380775	-0.605189
C42	C	1.408441	-0.380677	-0.877703
C43	C	1.408480	-0.380645	-0.993848
C44	C	1.463628	-0.174577	-0.550135
C45	C	1.487185	-0.086717	-0.526689
C46	C	1.459166	-0.428639	-1.178489
C47	C	1.459127	-0.428674	-1.058448
C48	C	1.408332	-0.380771	-0.333648
C49	C	1.408555	-0.380581	-0.217445
H50	H	0.780457	-0.470051	-0.746709
H51	H	1.515363	-0.730574	-0.498273
O52	O	1.516608	-0.483110	-1.252016
H53	H	1.507632	-0.474531	-1.334761
O54	O	1.351125	-0.326103	-1.143915
H55	H	1.288495	-0.361522	-1.103626
H56	H	0.852596	-0.339594	-0.539897
H57	H	1.502462	-0.469815	-1.024897
O58	O	1.000466	-0.483375	-0.767889
H59	H	1.087793	-0.474802	-0.754307
H60	H	1.365153	-0.339494	-1.027390
H61	H	1.367917	-1.079065	-0.645801
O62	O	0.976257	-0.326224	-0.518679
H63	H	0.937285	-0.286093	-0.554867
H64	H	1.301696	-1.030135	-0.711893
H65	H	1.166531	-0.831441	-0.846713
O66	O	1.191742	-0.670758	-0.821385
H67	H	1.133879	-0.713336	-0.879192
O68	O	1.469739	-0.670718	-0.543817
H69	H	1.433027	-0.633163	-0.480566
O70	O	1.179763	-0.966181	-0.833594
H71	H	1.144625	-0.923620	-0.868656
O72	O	1.637296	-0.794525	-0.376587
H73	H	1.600585	-0.756970	-0.313336
O74	O	1.671128	-0.918356	-0.342909
H75	H	1.677070	-0.854020	-0.336936
H76	H	1.610553	-1.079034	-0.403486
