data_functionalizedCrystal
_audit_creation_method	'MofGen! by Chris Wilmer'
_symmetry_space_group_name_H-M	'P1'
_symmetry_Int_Tables_number	1
_symmetry_cell_setting	triclinic
loop_
_symmetry_equiv_pos_as_xyz
  x,y,z
_cell_length_a	16.120530
_cell_length_b	29.839131
_cell_length_c	16.120297
_cell_angle_alpha	87.139604
_cell_angle_beta	89.871860
_cell_angle_gamma	87.130172
loop_
_atom_site_label
_atom_site_type_symbol
_atom_site_fract_x
_atom_site_fract_y
_atom_site_fract_z
Zn1	Zn	1.247358	-0.227599	0.534475
Zn2	Zn	1.747358	0.272401	1.034475
Zn3	Zn	1.254283	-0.299116	0.395389
Zn4	Zn	1.754283	0.200884	0.895389
Zn5	Zn	1.115351	-0.220008	0.388396
Zn6	Zn	1.615351	0.279992	0.888396
Zn7	Zn	1.108240	-0.298702	0.527358
Zn8	Zn	1.608240	0.201298	1.027358
O9	O	1.181308	-0.261356	0.461404
O10	O	1.681308	0.238644	0.961404
O11	O	1.364642	-0.240436	0.521930
O12	O	1.864642	0.259564	1.021930
O13	O	1.241728	-0.285618	0.278097
O14	O	1.741728	0.214382	0.778097
O15	O	1.132941	-0.158151	0.407825
O16	O	1.632941	0.341849	0.907825
O17	O	1.369730	-0.292979	0.419744
O18	O	1.869730	0.207021	0.919744
O19	O	1.229925	-0.163729	0.515149
O20	O	1.729925	0.336271	1.015149
O21	O	1.139655	-0.227498	0.272959
O22	O	1.639655	0.272502	0.772959
O23	O	0.998043	-0.227097	0.400925
O24	O	1.498043	0.272903	0.900925
O25	O	1.120820	-0.292274	0.644667
O26	O	1.620820	0.207726	1.144667
O27	O	0.992818	-0.284913	0.503020
O28	O	1.492818	0.215087	1.003020
O29	O	1.223030	-0.240035	0.649895
O30	O	1.723030	0.259965	1.149895
O31	O	1.234832	-0.361924	0.412843
O32	O	1.734832	0.138076	0.912843
O33	O	1.127535	-0.361621	0.509801
O34	O	1.627535	0.138379	1.009801
C35	C	0.965258	-0.255137	0.450442
C36	C	1.465258	0.244863	0.950442
C37	C	0.872830	-0.252487	0.445771
C38	C	1.372830	0.247513	0.945771
C39	C	0.703603	-0.247639	0.437252
C40	C	1.203603	0.252361	0.937252
C41	C	0.659851	-0.275108	0.485618
C42	C	1.159851	0.224892	0.985618
C43	C	0.565687	-0.272411	0.480877
C44	C	1.065687	0.227589	0.980877
C45	C	0.797775	-0.250336	0.441991
C46	C	1.297775	0.249664	0.941991
C47	C	1.181185	-0.378073	0.461328
C48	C	1.681185	0.121927	0.961328
C49	C	1.181207	-0.428008	0.461327
C50	C	1.681207	0.071992	0.961327
C51	C	1.231793	-0.740528	0.517363
C52	C	1.731793	-0.240528	1.017363
C53	C	1.231881	-0.928204	0.517418
C54	C	1.731881	-0.428204	1.017418
O55	O	1.274769	-0.954909	0.565003
O56	O	1.774769	-0.454909	1.065003
N57	N	1.181445	-0.948805	0.461504
N58	N	1.681445	-0.448805	0.961504
C59	C	1.130979	-0.922483	0.405576
C60	C	1.630979	-0.422483	0.905576
O61	O	1.088076	-0.944311	0.358025
O62	O	1.588076	-0.444311	0.858025
C63	C	1.130888	-0.734807	0.405526
C64	C	1.630888	-0.234807	0.905526
C65	C	1.181333	-0.714209	0.461438
C66	C	1.681333	-0.214209	0.961438
C67	C	1.282233	-0.719930	0.573271
C68	C	1.782233	-0.219930	1.073271
C69	C	1.282214	-0.673013	0.573254
C70	C	1.782214	-0.173013	1.073254
C71	C	1.231755	-0.646695	0.517329
C72	C	1.731755	-0.146695	1.017329
C73	C	1.181314	-0.667293	0.461421
C74	C	1.681314	-0.167293	0.961421
C75	C	1.080419	-0.708486	0.349603
C76	C	1.580419	-0.208486	0.849603
C77	C	1.080399	-0.661564	0.349597
C78	C	1.580399	-0.161564	0.849597
C79	C	1.130844	-0.640966	0.405509
C80	C	1.630844	-0.140966	0.905509
C81	C	1.130836	-0.594058	0.405479
C82	C	1.630836	-0.094058	0.905479
N83	N	1.181271	-0.573457	0.461392
N84	N	1.681271	-0.073457	0.961392
C85	C	1.231731	-0.599776	0.517317
C86	C	1.731731	-0.099776	1.017317
C87	C	1.131032	-1.021016	0.405605
C88	C	1.631032	-0.521016	0.905605
C89	C	1.131056	-1.067934	0.405617
C90	C	1.631056	-0.567934	0.905617
C91	C	1.231956	-1.073653	0.517459
C92	C	1.731956	-0.573653	1.017459
C93	C	1.231936	-1.026733	0.517443
C94	C	1.731936	-0.526733	1.017443
C95	C	1.181468	-1.000415	0.461519
C96	C	1.681468	-0.500415	0.961519
C97	C	1.231688	-0.501248	0.517276
C98	C	1.731688	-0.001248	1.017276
C99	C	1.231667	-0.454327	0.517252
C100	C	1.731667	0.045673	1.017252
C101	C	1.130763	-0.448613	0.405413
C102	C	1.630763	0.051387	0.905413
C103	C	1.130787	-0.495529	0.405434
C104	C	1.630787	0.004471	0.905434
C105	C	1.181252	-0.521846	0.461373
C106	C	1.681252	-0.021846	0.961373
O107	O	1.087963	-0.567325	0.357924
O108	O	1.587963	-0.067325	0.857924
O109	O	1.274614	-0.577939	0.564874
O110	O	1.774614	-0.077939	1.064874
C111	C	1.231812	-0.787444	0.517380
C112	C	1.731812	-0.287444	1.017380
C113	C	1.181371	-0.808042	0.461472
C114	C	1.681371	-0.308042	0.961472
C115	C	1.130912	-0.781723	0.405547
C116	C	1.630912	-0.281723	0.905547
C117	C	1.181395	-0.854961	0.461484
C118	C	1.681395	-0.354961	0.961484
C119	C	1.231855	-0.881279	0.517409
C120	C	1.731855	-0.381279	1.017409
C121	C	1.282291	-0.860679	0.573323
C122	C	1.782291	-0.360679	1.073323
C123	C	1.282272	-0.813762	0.573305
C124	C	1.782272	-0.313762	1.073305
C125	C	1.080476	-0.802324	0.349634
C126	C	1.580476	-0.302324	0.849634
C127	C	1.080500	-0.849241	0.349655
C128	C	1.580500	-0.349241	0.849655
C129	C	1.130960	-0.875559	0.405580
C130	C	1.630960	-0.375559	0.905580
C131	C	1.398202	-0.267601	0.472411
C132	C	1.898202	0.232399	0.972411
C133	C	1.490629	-0.270262	0.477101
C134	C	1.990629	0.229738	0.977101
C135	C	1.170359	-0.266955	0.678296
C136	C	1.670359	0.233045	1.178296
C137	C	1.165693	-0.269341	0.770723
C138	C	1.665693	0.230659	1.270723
C139	C	1.181454	-0.144185	0.461501
C140	C	1.681454	0.355815	0.961501
C141	C	1.181516	-0.094253	0.461542
C142	C	1.681516	0.405747	0.961542
C143	C	1.192263	-0.255748	0.245359
C144	C	1.692263	0.244252	0.745359
C145	C	1.197090	-0.253240	0.152941
C146	C	1.697090	0.246760	0.652941
C147	C	1.157144	-0.273686	0.939946
C148	C	1.657144	0.226314	1.439946
C149	C	1.205637	-0.248896	0.983723
C150	C	1.705637	0.251104	1.483723
C151	C	1.200880	-0.251314	1.077885
C152	C	1.700880	0.248686	1.577885
C153	C	1.161900	-0.271269	0.845776
C154	C	1.661900	0.228731	1.345776
H155	H	0.693114	-0.300650	0.530586
H156	H	1.193114	0.199350	1.030586
C157	C	1.287165	-0.431673	0.578759
C158	C	1.787165	0.068327	1.078759
N159	N	1.328965	-0.414611	0.625086
N160	N	1.828965	0.085389	1.125086
C161	C	1.337712	-0.650362	0.634759
C162	C	1.837712	-0.150362	1.134759
N163	N	1.379516	-0.633304	0.681087
N164	N	1.879516	-0.133304	1.181087
C165	C	1.266556	-0.217775	0.938822
C166	C	1.766556	0.282225	1.438822
N167	N	1.312443	-0.194337	0.904999
N168	N	1.812443	0.305663	1.404999
H169	H	1.112060	-0.296724	0.973182
H170	H	1.612060	0.203276	1.473182
H171	H	0.670342	-0.222100	0.392288
H172	H	1.170342	0.277900	0.892288
H173	H	1.272775	-0.522670	0.562832
H174	H	1.772775	-0.022670	1.062832
C175	C	1.337755	-0.748873	0.634792
C176	C	1.837755	-0.248873	1.134792
N177	N	1.379585	-0.770670	0.681127
N178	N	1.879585	-0.270670	1.181127
C179	C	1.287426	-1.004080	0.578953
C180	C	1.787426	-0.504080	1.078953
N181	N	1.329222	-0.987021	0.625286
N182	N	1.829222	-0.487021	1.125286
H183	H	1.273044	-1.095089	0.562995
H184	H	1.773044	-0.595089	1.062995
C185	C	1.025002	-0.871892	0.288143
C186	C	1.525002	-0.371892	0.788143
N187	N	0.983195	-0.888952	0.241820
N188	N	1.483195	-0.388952	0.741820
H189	H	1.089988	-1.084701	0.360079
H190	H	1.589988	-0.584701	0.860079
C191	C	1.075501	-0.992071	0.344088
C192	C	1.575501	-0.492071	0.844088
N193	N	1.033672	-0.970273	0.297754
N194	N	1.533672	-0.470273	0.797754
H195	H	1.039299	-0.640138	0.304058
H196	H	1.539299	-0.140138	0.804058
C197	C	1.024918	-0.731132	0.288100
C198	C	1.524918	-0.231132	0.788100
N199	N	0.983108	-0.748189	0.241775
N200	N	1.483108	-0.248189	0.741775
H201	H	1.323380	-0.882116	0.618856
H202	H	1.823380	-0.382116	1.118856
C203	C	1.075300	-0.518187	0.343924
C204	C	1.575300	-0.018187	0.843924
N205	N	1.033500	-0.535250	0.297599
N206	N	1.533500	-0.035250	0.797599
H207	H	1.089682	-0.427177	0.359877
H208	H	1.589682	0.072823	0.859877
H209	H	1.323349	-0.796995	0.618834
H210	H	1.823349	-0.296995	1.118834
H211	H	1.039385	-0.780899	0.304094
H212	H	1.539385	-0.280899	0.804094
