data_functionalizedCrystal
_audit_creation_method	'MofGen! by Chris Wilmer'
_symmetry_space_group_name_H-M	'P1'
_symmetry_Int_Tables_number	1
_symmetry_cell_setting	triclinic
loop_
_symmetry_equiv_pos_as_xyz
  x,y,z
_cell_length_a	11.792254
_cell_length_b	11.792241
_cell_length_c	16.053802
_cell_angle_alpha	92.583059
_cell_angle_beta	87.401073
_cell_angle_gamma	84.196007
loop_
_atom_site_label
_atom_site_type_symbol
_atom_site_fract_x
_atom_site_fract_y
_atom_site_fract_z
O1	O	1.511659	0.150887	-0.069429
O2	O	2.011659	0.650887	0.430571
O3	O	1.181320	0.166905	-0.069431
O4	O	1.681320	0.666905	0.430569
O5	O	1.354506	-0.006274	-0.069424
O6	O	1.854506	0.493726	0.430576
O7	O	1.338474	0.324066	-0.069436
O8	O	1.838474	0.824066	0.430564
O9	O	1.344973	0.003219	0.069435
O10	O	1.844973	0.503219	0.569435
O11	O	1.171787	0.176398	0.069428
O12	O	1.671787	0.676398	0.569428
O13	O	1.502126	0.160380	0.069430
O14	O	2.002126	0.660380	0.569430
Zn15	Zn	1.335443	0.169896	0.091476
Zn16	Zn	1.835443	0.669896	0.591476
Zn17	Zn	1.348003	0.157389	-0.091477
Zn18	Zn	1.848003	0.657389	0.408523
O19	O	1.328941	0.333559	0.069423
O20	O	1.828941	0.833559	0.569423
C21	C	1.134263	0.170642	-0.000002
C22	C	1.634263	0.670642	0.499998
C23	C	1.008250	0.167622	-0.000002
C24	C	1.508250	0.667622	0.499998
C25	C	1.348732	-0.043818	0.000005
C26	C	1.848732	0.456182	0.500005
C27	C	1.345718	-0.169832	0.000004
C28	C	1.845718	0.330168	0.500004
C29	C	0.905914	0.165168	-0.000006
C30	C	1.405914	0.665168	0.499994
C31	C	0.777527	0.162100	-0.000006
C32	C	1.277527	0.662100	0.499994
C33	C	1.340176	-0.400546	-0.000010
C34	C	1.840176	0.099454	0.499990
C35	C	1.343255	-0.272160	-0.000002
C36	C	1.843255	0.227840	0.499998
C37	C	1.549183	0.156642	-0.000001
C38	C	2.049183	0.656642	0.499999
C39	C	1.675197	0.159662	-0.000006
C40	C	2.175197	0.659662	0.499994
C41	C	1.334714	0.371103	-0.000008
C42	C	1.834714	0.871103	0.499992
C43	C	1.337729	0.497117	-0.000013
C44	C	1.837729	0.997117	0.499987
N45	N	1.326880	0.178431	0.216335
N46	N	1.826880	0.678431	0.716335
N47	N	1.356576	0.148845	-0.216337
N48	N	1.856576	0.648845	0.283663
C49	C	1.400598	0.104770	0.260032
C50	C	1.900598	0.604770	0.760032
C51	C	1.394618	0.110751	0.347439
C52	C	1.894618	0.610751	0.847439
C53	C	1.314925	0.190400	0.391147
C54	C	1.814925	0.690400	0.891147
C55	C	1.241199	0.264064	0.347444
C56	C	1.741199	0.764064	0.847444
C57	C	1.247174	0.258077	0.260039
C58	C	1.747174	0.758077	0.760039
C59	C	1.288825	0.216522	0.652556
C60	C	1.788825	0.716522	1.152556
C61	C	1.282858	0.222506	0.739967
C62	C	1.782858	0.722506	1.239967
C63	C	1.436276	0.069191	0.739955
C64	C	1.936276	0.569191	1.239955
C65	C	1.442248	0.063215	0.652549
C66	C	1.942248	0.563215	1.152549
C67	C	1.368518	0.136875	0.608853
C68	C	1.868518	0.636875	1.108853
N69	N	1.308813	0.196518	0.480490
N70	N	1.808813	0.696518	0.980490
N71	N	1.374625	0.130751	0.519512
N72	N	1.874625	0.630751	1.019512
H73	H	1.465497	0.039916	0.224451
H74	H	1.965497	0.539916	0.724451
F75	F	1.198033	0.307287	0.786479
F76	F	1.698033	0.807287	1.286479
H77	H	1.454644	0.050770	0.383016
H78	H	1.954644	0.550770	0.883016
H79	H	1.507140	-0.001641	0.616963
H80	H	2.007140	0.498359	1.116963
H81	H	1.187144	0.318058	0.224462
H82	H	1.687144	0.818058	0.724462
F83	F	1.210360	0.294919	0.606058
F84	F	1.710360	0.794919	1.106058
F85	F	1.514736	-0.009201	0.786464
F86	F	2.014736	0.490799	1.286464
F87	F	1.156377	0.348828	0.393962
F88	F	1.656377	0.848828	0.893962
