data_functionalizedCrystal
_audit_creation_method	'MofGen! by Chris Wilmer'
_symmetry_space_group_name_H-M	'P1'
_symmetry_Int_Tables_number	1
_symmetry_cell_setting	triclinic
loop_
_symmetry_equiv_pos_as_xyz
  x,y,z
_cell_length_a	9.065218
_cell_length_b	10.723024
_cell_length_c	8.140239
_cell_angle_alpha	89.997644
_cell_angle_beta	89.997198
_cell_angle_gamma	84.741877
loop_
_atom_site_label
_atom_site_type_symbol
_atom_site_fract_x
_atom_site_fract_y
_atom_site_fract_z
O1	O	1.959359	0.182984	-0.136613
O2	O	1.529989	0.197993	-0.136615
O3	O	1.754578	0.008953	-0.136608
O4	O	1.734770	0.372025	-0.136620
O5	O	1.754565	0.008950	0.136619
O6	O	1.529976	0.197991	0.136612
O7	O	1.959346	0.182982	0.136614
Zn8	Zn	1.744659	0.190486	0.179994
Zn9	Zn	1.744676	0.190489	-0.179995
O10	O	1.734757	0.372022	0.136607
C11	C	1.475004	0.196550	-0.000002
C12	C	1.311186	0.192237	-0.000003
C13	C	1.753130	-0.037554	0.000004
C14	C	1.748817	-0.176126	-0.000002
C15	C	1.874486	-0.250598	-0.000004
C16	C	1.870031	-0.393819	-0.000010
C17	C	2.014331	0.184425	-0.000003
C18	C	2.178150	0.188738	-0.000013
C19	C	1.736205	0.418529	-0.000008
C20	C	1.740518	0.557101	-0.000013
N21	N	1.744659	0.190483	0.425676
N22	N	1.744688	0.190482	-0.425677
H23	H	1.985373	-0.208325	0.000007
C24	C	2.015378	-0.480263	-0.000012
C25	C	2.049377	-0.573479	0.141864
C26	C	2.194729	-0.659926	0.141862
C27	C	2.306082	-0.653156	-0.000016
C28	C	2.272086	-0.559936	-0.141902
C29	C	2.126734	-0.473489	-0.141900
H30	H	1.966944	-0.578494	0.246900
H31	H	2.219894	-0.728933	0.246896
H32	H	2.413680	-0.717149	-0.000017
H33	H	2.354519	-0.554921	-0.246938
H34	H	2.101569	-0.404482	-0.246935
C35	C	1.595165	-0.356464	-0.000011
C36	C	1.561166	-0.263247	-0.141887
C37	C	1.415814	-0.176801	-0.141885
C38	C	1.304461	-0.183571	-0.000007
C39	C	1.338457	-0.276791	0.141879
C40	C	1.483809	-0.363237	0.141877
H41	H	1.643599	-0.258232	-0.246923
H42	H	1.390648	-0.107793	-0.246920
H43	H	1.196862	-0.119578	-0.000006
H44	H	1.256024	-0.281806	0.246915
H45	H	1.508975	-0.432245	0.246912
H46	H	1.637931	-0.218398	-0.000013
