data_functionalizedCrystal
_audit_creation_method	'MofGen! by Chris Wilmer'
_symmetry_space_group_name_H-M	'P1'
_symmetry_Int_Tables_number	1
_symmetry_cell_setting	triclinic
loop_
_symmetry_equiv_pos_as_xyz
  x,y,z
_cell_length_a	12.759401
_cell_length_b	14.908520
_cell_length_c	12.759393
_cell_angle_alpha	93.263606
_cell_angle_beta	89.979062
_cell_angle_gamma	93.322137
loop_
_atom_site_label
_atom_site_type_symbol
_atom_site_fract_x
_atom_site_fract_y
_atom_site_fract_z
Zn1	Zn	1.582080	-0.359078	-0.618119
Zn2	Zn	1.571808	-0.509962	-0.452566
Zn3	Zn	1.406376	-0.359126	-0.442458
Zn4	Zn	1.396212	-0.509899	-0.628199
O5	O	1.489119	-0.434516	-0.535335
O6	O	1.727738	-0.379099	-0.596170
O7	O	1.549818	-0.490000	-0.304207
O8	O	1.438236	-0.232875	-0.457311
O9	O	1.720192	-0.489953	-0.474539
O10	O	1.567325	-0.232840	-0.586369
O11	O	1.428275	-0.379181	-0.296781
O12	O	1.258007	-0.379120	-0.467085
O13	O	1.420913	-0.489846	-0.773880
O14	O	1.250540	-0.489892	-0.603548
O15	O	1.557470	-0.379038	-0.766474
O16	O	1.539963	-0.636198	-0.484313
O17	O	1.410953	-0.636152	-0.613349
C18	C	1.216153	-0.434505	-0.535314
C19	C	1.099375	-0.434522	-0.535331
C20	C	1.040646	-0.492289	-0.606288
C21	C	0.930922	-0.492292	-0.606309
C22	C	0.938665	-0.376759	-0.464407
C23	C	1.048387	-0.376752	-0.464392
C24	C	1.473269	-0.668908	-0.551045
C25	C	1.466584	-0.769183	-0.557800
C26	C	1.588499	-0.957595	-0.436237
C27	C	1.582222	-1.051812	-0.442581
C28	C	1.447758	-1.051834	-0.576837
C29	C	1.454036	-0.957617	-0.570493
C30	C	1.524407	-0.910501	-0.500189
C31	C	1.530679	-0.816283	-0.493841
C32	C	1.396221	-0.816307	-0.628101
C33	C	1.389944	-0.910523	-0.634445
C34	C	1.763152	-0.434528	-0.535358
C35	C	1.879928	-0.434533	-0.535367
C36	C	1.489204	-0.434429	-0.809363
C37	C	1.489240	-0.434392	-0.926137
C38	C	1.505060	-0.199208	-0.519588
C39	C	1.511853	-0.098934	-0.512877
C40	C	1.560350	-0.376686	-0.977144
C41	C	1.560371	-0.376647	-1.086866
C42	C	1.418166	-0.492029	-1.094564
C43	C	1.418142	-0.492063	-0.984844
C44	C	1.489100	-0.434537	-0.262369
C45	C	1.489285	-0.434320	-0.145579
H46	H	0.897137	-0.329727	-0.406650
C47	C	1.637625	-0.314139	-1.142392
C48	C	1.701496	-0.365199	-1.208840
C49	C	1.772665	-0.307642	-1.260018
H50	H	1.680063	-0.279776	-1.091833
H51	H	1.600132	-0.274829	-1.182614
H52	H	1.738986	-0.404493	-1.168621
H53	H	1.659087	-0.399560	-1.259418
H54	H	1.735171	-0.268332	-1.300240
H55	H	1.815095	-0.273282	-1.209452
H56	H	1.816003	-0.342278	-1.305116
C57	C	1.340869	-0.554682	-1.158119
C58	C	1.278569	-0.605210	-1.089960
C59	C	1.207344	-0.662931	-1.148465
H60	H	1.378284	-0.594059	-1.203565
H61	H	1.297382	-0.520178	-1.198585
H62	H	1.322050	-0.639712	-1.049511
H63	H	1.241131	-0.565857	-1.044514
H64	H	1.163857	-0.628426	-1.188932
H65	H	1.244767	-0.702302	-1.193909
H66	H	1.165058	-0.697214	-1.102228
H67	H	0.883110	-0.539331	-0.664090
H68	H	1.360228	-0.539054	-0.943314
H69	H	1.082157	-0.539327	-0.664053
C70	C	1.326500	-0.765338	-0.697589
C71	C	1.263511	-0.826770	-0.760490
C72	C	1.199259	-0.779851	-0.824497
H73	H	1.368991	-0.728515	-0.741018
H74	H	1.283134	-0.728669	-0.654902
H75	H	1.306873	-0.863423	-0.803173
H76	H	1.220999	-0.863594	-0.717088
H77	H	1.155892	-0.743182	-0.781810
H78	H	1.241758	-0.743030	-0.867920
H79	H	1.156506	-0.821525	-0.867176
C80	C	1.111971	-0.313996	-0.387230
C81	C	1.043835	-0.263428	-0.325083
C82	C	1.102370	-0.205618	-0.253988
H83	H	1.157457	-0.274649	-0.424738
H84	H	1.152401	-0.348438	-0.343635
H85	H	1.003423	-0.228989	-0.368673
H86	H	0.998348	-0.302752	-0.287552
H87	H	1.142800	-0.240059	-0.210393
H88	H	1.147853	-0.166276	-0.291505
H89	H	1.056148	-0.171306	-0.211807
H90	H	1.587976	-0.777922	-0.436593
H91	H	1.645791	-0.919233	-0.378986
C92	C	1.651856	-1.102781	-0.373017
C93	C	1.714806	-1.041349	-0.310077
C94	C	1.778959	-1.088268	-0.245971
H95	H	1.695257	-1.139478	-0.415604
H96	H	1.609264	-1.139574	-0.329622
H97	H	1.757393	-1.004571	-0.353467
H98	H	1.671432	-1.004649	-0.267469
H99	H	1.736368	-1.125061	-0.202576
H100	H	1.822354	-1.124964	-0.288565
H101	H	1.821671	-1.046594	-0.203251
C102	C	1.371528	-1.103117	-0.653230
C103	C	1.427387	-1.157131	-0.724241
C104	C	1.357198	-1.204396	-0.794621
H105	H	1.334218	-1.061684	-0.690522
H106	H	1.323341	-1.139988	-0.615506
H107	H	1.475555	-1.120263	-0.761962
H108	H	1.464694	-1.198580	-0.686979
H109	H	1.309012	-1.241267	-0.756896
H110	H	1.319892	-1.162958	-0.831905
H111	H	1.395087	-1.241057	-0.842803
C112	C	1.313705	-0.961798	-0.710837
C113	C	1.369549	-1.015816	-0.781856
C114	C	1.299349	-1.063070	-0.852233
H115	H	1.276399	-0.920359	-0.748122
H116	H	1.265516	-0.998666	-0.673111
H117	H	1.417720	-0.978951	-0.819578
H118	H	1.406852	-1.057272	-0.744601
H119	H	1.251159	-1.099938	-0.814507
H120	H	1.262046	-1.021625	-0.889510
H121	H	1.337228	-1.099733	-0.900421
C122	C	1.637578	-0.313969	-0.913587
C123	C	1.699838	-0.263406	-0.981745
C124	C	1.770981	-0.205609	-0.923237
H125	H	1.681109	-0.348391	-0.873091
H126	H	1.600068	-0.274624	-0.868168
H127	H	1.737346	-0.302746	-1.027146
H128	H	1.656336	-0.228965	-1.022243
H129	H	1.733471	-0.166264	-0.877818
H130	H	1.814505	-0.240039	-0.882743
H131	H	1.813226	-0.171290	-0.969473
