data_functionalizedCrystal
_audit_creation_method	'MofGen! by Chris Wilmer'
_symmetry_space_group_name_H-M	'P1'
_symmetry_Int_Tables_number	1
_symmetry_cell_setting	triclinic
loop_
_symmetry_equiv_pos_as_xyz
  x,y,z
_cell_length_a	9.065215
_cell_length_b	10.654562
_cell_length_c	9.730223
_cell_angle_alpha	89.996961
_cell_angle_beta	90.000226
_cell_angle_gamma	95.247599
loop_
_atom_site_label
_atom_site_type_symbol
_atom_site_fract_x
_atom_site_fract_y
_atom_site_fract_z
O1	O	-0.207318	1.668644	-0.114377
O2	O	-0.227042	1.303245	-0.114359
O3	O	-0.002497	1.493499	-0.114363
O4	O	-0.431864	1.478390	-0.114373
O5	O	-0.002502	1.493497	0.114217
O6	O	-0.227048	1.303243	0.114221
O7	O	-0.207324	1.668642	0.114203
Zn8	Zn	-0.217187	1.485942	0.150504
Zn9	Zn	-0.217179	1.485945	-0.150660
O10	O	-0.431869	1.478388	0.114207
C11	C	-0.225593	1.256441	-0.000067
C12	C	-0.221248	1.116981	-0.000060
C13	C	-0.219225	1.051441	0.124528
C14	C	-0.215154	0.920403	0.124505
C15	C	-0.215137	0.920455	-0.124706
C16	C	-0.219197	1.051492	-0.124681
C17	C	-0.219241	1.051409	0.268408
C18	C	-0.215171	0.920371	0.268385
C19	C	-0.486845	1.479840	-0.000084
C20	C	-0.650665	1.484180	-0.000089
C21	C	0.052479	1.492047	-0.000075
C22	C	0.216299	1.487708	-0.000079
C23	C	-0.208773	1.715446	-0.000092
C24	C	-0.213118	1.854906	-0.000108
N25	N	-0.217191	1.485949	0.356040
N26	N	-0.217163	1.485948	-0.356196
C27	C	-0.117796	1.570216	0.427965
C28	C	-0.117778	1.570212	0.571848
C29	C	-0.316563	1.401672	0.571869
C30	C	-0.316573	1.401670	0.427989
C31	C	-0.003033	1.667525	0.427953
C32	C	-0.003015	1.667522	0.571836
H33	H	-0.326850	1.081409	0.313048
Br34	Br	-0.451428	1.287295	0.669521
H35	H	0.110375	1.645634	0.388903
Br36	Br	-0.045139	1.828543	0.636928
H37	H	-0.213467	0.867118	-0.226167
Br38	Br	-0.221902	1.140441	-0.293772
Br39	Br	0.175594	1.615944	0.646221
Br40	Br	-0.049303	1.127851	0.360504
Br41	Br	-0.035988	0.870315	0.343123
Br42	Br	-0.451443	1.287285	0.330374
Br43	Br	-0.385118	0.843884	0.360443
H44	H	-0.038974	1.758850	0.383322
