data_functionalizedCrystal
_audit_creation_method	'MofGen! by Chris Wilmer'
_symmetry_space_group_name_H-M	'P1'
_symmetry_Int_Tables_number	1
_symmetry_cell_setting	triclinic
loop_
_symmetry_equiv_pos_as_xyz
  x,y,z
_cell_length_a	15.625950
_cell_length_b	17.019294
_cell_length_c	14.750779
_cell_angle_alpha	73.621426
_cell_angle_beta	120.090508
_cell_angle_gamma	85.048481
loop_
_atom_site_label
_atom_site_type_symbol
_atom_site_fract_x
_atom_site_fract_y
_atom_site_fract_z
O1	O	1.285627	0.024797	0.365495
O2	O	0.997901	0.059096	0.262536
O3	O	1.152381	-0.075753	0.327443
O4	O	1.131147	0.159646	0.300587
O5	O	1.196051	-0.113869	0.505442
O6	O	1.041570	0.020980	0.440534
O7	O	1.329297	-0.013320	0.543493
Zn8	Zn	1.192367	-0.002222	0.520275
Zn9	Zn	1.134831	0.047999	0.285754
O10	O	1.174817	0.121530	0.478586
C11	C	0.982968	0.042259	0.338557
C12	C	0.873412	0.048868	0.299887
C13	C	0.631990	-0.033212	0.657706
C14	C	0.529030	-0.026975	0.621318
C15	C	0.481474	0.014575	0.427289
C16	C	0.584431	0.008346	0.463660
C17	C	0.659682	-0.015549	0.578870
C18	C	0.612123	0.026009	0.384825
C19	C	0.715072	0.019776	0.421194
C20	C	0.790329	-0.004120	0.536399
C21	C	0.762631	-0.021781	0.615240
C22	C	0.536872	0.049897	0.269616
C23	C	0.564564	0.067560	0.190780
C24	C	0.667514	0.061334	0.227148
C25	C	0.742770	0.037438	0.342353
C26	C	0.695212	0.078995	0.148308
C27	C	0.798161	0.072762	0.184677
C28	C	0.845719	0.031205	0.378723
C29	C	1.174272	-0.124735	0.418935
C30	C	1.174427	-0.213896	0.426357
C31	C	1.150699	-0.235003	0.332818
C32	C	1.150839	-0.318779	0.339792
C33	C	1.174716	-0.381449	0.440309
C34	C	1.198444	-0.360337	0.533854
C35	C	1.198296	-0.276561	0.526876
C36	C	1.176347	-0.635437	0.466230
C37	C	1.176496	-0.719218	0.473202
C38	C	1.128890	-0.677654	0.279139
C39	C	1.128750	-0.593879	0.272172
C40	C	1.152473	-0.572774	0.365715
C41	C	1.174864	-0.467082	0.447442
C42	C	1.152318	-0.487140	0.358579
C43	C	1.344229	0.003518	0.467470
C44	C	1.453784	-0.003089	0.506133
C45	C	1.152925	0.170512	0.387092
C46	C	1.152768	0.259675	0.379663
N47	N	1.231641	-0.036497	0.680332
N48	N	1.095564	0.082267	0.125701
C49	C	0.985877	0.177956	0.928894
C50	C	1.013405	0.153943	1.040958
C51	C	1.150224	0.034572	1.098403
C52	C	1.122704	0.058573	0.986341
C53	C	1.040531	0.130266	0.901594
C54	C	1.177358	0.010882	0.959041
C55	C	1.149843	0.034884	0.846989
C56	C	1.067675	0.106575	0.762237
C57	C	1.013016	0.154267	0.789542
C58	C	1.259536	-0.060807	1.043790
C59	C	1.314189	-0.108497	1.016490
C60	C	1.286670	-0.084499	0.904435
C61	C	1.204502	-0.012808	0.819684
C62	C	1.341329	-0.132191	0.877130
C63	C	1.313815	-0.108190	0.765078
C64	C	1.176988	0.011194	0.707632
H65	H	0.874156	-0.009195	0.566009
H66	H	1.132871	-0.436110	0.276736
C67	C	1.107247	0.162167	0.639941
C68	C	1.086658	0.089999	0.614462
H69	H	1.051487	0.210815	0.582417
H70	H	1.115797	0.154700	0.710567
H71	H	1.168415	0.169936	0.644100
H72	H	1.025495	0.082226	0.610311
H73	H	1.078097	0.097466	0.543817
C74	C	1.444266	-0.221985	1.074409
C75	C	1.431654	-0.210992	0.970291
H76	H	1.500026	-0.270637	1.131919
H77	H	1.458228	-0.173025	1.091676
H78	H	1.383099	-0.229762	1.070245
H79	H	1.492819	-0.203209	0.974452
H80	H	1.417699	-0.259964	0.953020
H81	H	1.381098	-0.166869	1.085503
H82	H	1.194307	-0.518118	0.529284
H83	H	1.217604	-0.259376	0.603040
H84	H	1.109575	-0.694848	0.202981
C85	C	1.451815	-0.228611	0.833106
C86	C	1.373884	-0.160612	0.735061
H87	H	1.488897	-0.260975	0.814570
H88	H	1.497265	-0.207124	0.886331
H89	H	1.422131	-0.263857	0.864897
H90	H	1.403569	-0.125362	0.703274
H91	H	1.328428	-0.182100	0.681816
C92	C	1.003012	-0.517429	0.073779
C93	C	1.102420	-0.525044	0.161604
H94	H	0.986737	-0.474944	0.005499
H95	H	0.999757	-0.570378	0.064662
H96	H	0.955125	-0.501785	0.091607
H97	H	1.150308	-0.540694	0.143779
H98	H	1.105684	-0.472083	0.170719
H99	H	0.633930	0.098442	0.054505
C100	C	0.918718	-0.122833	0.778919
C101	C	0.845361	-0.048040	0.741879
H102	H	0.969794	-0.139038	0.857095
H103	H	0.886190	-0.166978	0.767636
H104	H	0.949931	-0.113198	0.737156
H105	H	0.814142	-0.057677	0.783637
H106	H	0.877892	-0.003884	0.753172
C107	C	0.875373	0.274351	0.972909
C108	C	0.953311	0.206361	1.070961
H109	H	0.838271	0.306705	0.991434
H110	H	0.905047	0.309603	0.941123
H111	H	0.829935	0.252851	0.919679
H112	H	0.998754	0.227862	1.124188
H113	H	0.923637	0.171104	1.102764
H114	H	0.420193	0.034026	0.333485
H115	H	1.045277	0.126119	0.671000
C116	C	0.668673	-0.073665	0.845873
C117	C	0.714716	-0.059478	0.784349
H118	H	0.719747	-0.089887	0.924053
H119	H	0.618916	-0.022926	0.820736
H120	H	0.636145	-0.117816	0.834568
H121	H	0.747238	-0.015322	0.795647
H122	H	0.764492	-0.110224	0.809495
C123	C	1.219828	-0.507217	0.630726
C124	C	1.224698	-0.429224	0.644348
H125	H	1.236048	-0.549744	0.698948
H126	H	1.152398	-0.501975	0.571082
H127	H	1.267750	-0.522833	0.612930
H128	H	1.176770	-0.413605	0.662137
H129	H	1.292138	-0.434465	0.704012
H130	H	0.453045	0.054975	0.240007
C131	C	1.223473	-0.684957	0.658770
C132	C	1.202464	-0.612252	0.569066
H133	H	1.239612	-0.670643	0.722264
H134	H	1.164863	-0.706325	0.636538
H135	H	1.280206	-0.727207	0.678355
H136	H	1.145725	-0.570005	0.549476
H137	H	1.261080	-0.590872	0.591301
H138	H	0.906992	0.011760	0.472536
H139	H	1.195936	-0.770244	0.555057
C140	C	0.943276	0.305240	0.721852
C141	C	0.922687	0.233072	0.696372
H142	H	0.887516	0.353888	0.664328
H143	H	0.951826	0.297773	0.792477
H144	H	1.004444	0.313009	0.726010
H145	H	0.861523	0.225299	0.692222
H146	H	0.914125	0.240540	0.625727
C147	C	0.392337	-0.035869	0.651735
C148	C	0.498589	-0.046385	0.707982
H149	H	0.373547	-0.047857	0.705239
H150	H	0.357083	0.021130	0.598996
H151	H	0.374325	-0.073762	0.612838
H152	H	0.516600	-0.008488	0.746872
H153	H	0.533855	-0.103394	0.760741
C154	C	0.740814	0.114488	-0.010783
C155	C	0.828606	0.092190	0.098021
H156	H	0.759611	0.126487	-0.064280
H157	H	0.710274	0.068611	-0.014020
H158	H	0.693026	0.163500	-0.027843
H159	H	0.876391	0.043175	0.115085
H160	H	0.859161	0.138071	0.101261
H161	H	0.503283	0.087012	0.096976
H162	H	0.918957	0.236330	0.859886
H163	H	1.131261	-0.183982	0.250968
H164	H	1.217133	-0.023800	1.167416
H165	H	1.131521	-0.335959	0.263624
H166	H	1.281938	-0.080344	1.135029
