data_functionalizedCrystal
_audit_creation_method	'MofGen! by Chris Wilmer'
_symmetry_space_group_name_H-M	'P1'
_symmetry_Int_Tables_number	1
_symmetry_cell_setting	triclinic
loop_
_symmetry_equiv_pos_as_xyz
  x,y,z
_cell_length_a	6.817900
_cell_length_b	16.417825
_cell_length_c	11.168144
_cell_angle_alpha	93.915274
_cell_angle_beta	108.508840
_cell_angle_gamma	103.385495
loop_
_atom_site_label
_atom_site_type_symbol
_atom_site_fract_x
_atom_site_fract_y
_atom_site_fract_z
V1	V	-4.083862	-0.115897	-0.394142
V2	V	-3.583862	0.384103	0.105858
O3	O	-4.070715	0.005557	-0.386183
O4	O	-3.570715	0.505557	0.113817
O5	O	-4.034578	-0.229793	-0.391884
O6	O	-3.534578	0.270207	0.108116
O7	O	-4.060552	-0.114120	-0.565841
O8	O	-3.560552	0.385880	-0.065841
O9	O	-4.044561	-0.110917	-0.211022
O10	O	-3.544561	0.389083	0.288978
V11	V	-4.564353	-0.101369	-0.372186
V12	V	-4.064353	0.398631	0.127814
O13	O	-4.351770	-0.147766	-0.442303
O14	O	-3.851770	0.352234	0.057697
O15	O	-4.746642	-0.069501	-0.324024
O16	O	-4.246642	0.430499	0.175976
O17	O	-4.390431	0.012526	-0.374444
O18	O	-3.890431	0.512526	0.125556
O19	O	-4.694897	-0.222824	-0.380144
O20	O	-4.194897	0.277176	0.119856
O21	O	-4.721051	-0.106350	-0.555305
O22	O	-4.221051	0.393650	-0.055305
O23	O	-4.364457	-0.103147	-0.200487
O24	O	-3.864457	0.396853	0.299513
C25	C	-3.878552	-0.257558	-0.385779
C26	C	-3.378552	0.242442	0.114221
C27	C	-3.919710	-0.350670	-0.385078
C28	C	-3.419710	0.149330	0.114922
C29	C	-3.957359	-0.552930	-0.267809
C30	C	-3.457359	-0.052930	0.232191
C31	C	-3.996055	-0.640419	-0.267160
C32	C	-3.496055	-0.140419	0.232840
C33	C	-4.110238	-0.664337	-0.498532
C34	C	-3.610238	-0.164337	0.001468
C35	C	-4.071556	-0.576849	-0.499181
C36	C	-3.571556	-0.076849	0.000819
C37	C	-3.995105	-0.521147	-0.383815
C38	C	-3.495105	-0.021147	0.116185
C39	C	-4.072484	-0.696124	-0.382517
C40	C	-3.572484	-0.196124	0.117483
C41	C	-4.114441	-0.790984	-0.381814
C42	C	-3.614441	-0.290984	0.118186
C43	C	-3.953149	-0.426281	-0.384518
C44	C	-3.453149	0.073719	0.115482
C45	C	-3.911683	-0.110005	-0.607677
C46	C	-3.411683	0.389995	-0.107677
C47	C	-3.973902	-0.109305	-0.748044
C48	C	-3.473902	0.390695	-0.248044
C49	C	-4.042090	-0.181888	-0.828042
C50	C	-3.542090	0.318112	-0.328042
C51	C	-4.106398	-0.181166	-0.973120
C52	C	-3.606398	0.318834	-0.473120
C53	C	-4.209799	0.040287	-0.380545
C54	C	-3.709799	0.540287	0.119455
C55	C	-4.147880	0.133398	-0.381255
C56	C	-3.647880	0.633398	0.118745
C57	C	-4.176667	-0.107265	-0.158644
C58	C	-3.676667	0.392735	0.341356
C59	C	-4.093686	-0.107960	-0.018275
C60	C	-3.593686	0.392040	0.481725
H61	H	-4.172485	-0.709699	-0.592459
H62	H	-3.672485	-0.209699	-0.092459
H63	H	-4.052871	-0.244562	-0.789126
H64	H	-3.552871	0.255438	-0.289126
F65	F	-4.017230	-0.026732	-0.928452
F66	F	-3.517230	0.473268	-0.428452
H67	H	-3.963145	-0.046631	-0.786961
H68	H	-3.463145	0.453369	-0.286961
H69	H	-3.965318	-0.666292	-0.172697
H70	H	-3.465318	-0.166292	0.327303
F71	F	-4.111745	-0.543023	-0.622657
F72	F	-3.611745	-0.043023	-0.122657
F73	F	-4.182827	-0.262390	-1.062950
F74	F	-3.682827	0.237610	-0.562950
H75	H	-3.895109	-0.507579	-0.173871
H76	H	-3.395109	-0.007579	0.326129
