data_functionalizedCrystal
_audit_creation_method	'MofGen! by Chris Wilmer'
_symmetry_space_group_name_H-M	'P1'
_symmetry_Int_Tables_number	1
_symmetry_cell_setting	triclinic
loop_
_symmetry_equiv_pos_as_xyz
  x,y,z
_cell_length_a	12.759401
_cell_length_b	16.959454
_cell_length_c	12.759393
_cell_angle_alpha	89.969805
_cell_angle_beta	89.979527
_cell_angle_gamma	90.021600
loop_
_atom_site_label
_atom_site_type_symbol
_atom_site_fract_x
_atom_site_fract_y
_atom_site_fract_z
Zn1	Zn	1.606222	-0.314607	-0.594026
Zn2	Zn	1.606098	-0.446807	-0.418349
Zn3	Zn	1.430522	-0.314650	-0.418362
Zn4	Zn	1.430496	-0.446751	-0.593986
O5	O	1.518335	-0.380704	-0.506181
O6	O	1.753227	-0.332149	-0.570734
O7	O	1.582767	-0.429318	-0.271330
O8	O	1.453892	-0.204033	-0.441686
O9	O	1.753136	-0.429276	-0.441665
O10	O	1.582978	-0.204002	-0.570746
O11	O	1.453772	-0.332223	-0.271339
O12	O	1.283498	-0.332168	-0.441647
O13	O	1.453848	-0.429180	-0.741013
O14	O	1.283479	-0.429222	-0.570678
O15	O	1.582953	-0.332094	-0.741042
O16	O	1.582742	-0.557411	-0.441626
O17	O	1.453728	-0.557369	-0.570666
C18	C	1.245368	-0.380694	-0.506160
C19	C	1.128591	-0.380709	-0.506176
C20	C	1.073747	-0.431322	-0.573257
C21	C	0.964022	-0.431325	-0.573277
C22	C	0.963997	-0.330100	-0.439128
C23	C	1.073719	-0.330094	-0.439113
C24	C	1.518247	-0.586070	-0.506163
C25	C	1.518305	-0.673927	-0.506190
C26	C	1.451255	-1.045410	-0.573365
C27	C	1.585708	-1.045394	-0.439104
C28	C	1.585671	-0.962848	-0.439094
C29	C	1.518424	-0.921579	-0.506220
C30	C	1.451214	-0.962857	-0.573355
C31	C	1.652872	-0.921564	-0.371953
C32	C	1.652838	-0.839013	-0.371940
C33	C	1.585595	-0.797743	-0.439071
C34	C	1.518383	-0.839026	-0.506210
C35	C	1.451136	-0.797758	-0.573335
C36	C	1.383929	-0.839039	-0.640480
C37	C	1.383971	-0.921587	-0.640486
C38	C	1.585552	-0.715195	-0.439065
C39	C	1.451095	-0.715204	-0.573326
C40	C	1.792368	-0.380714	-0.506202
C41	C	1.909145	-0.380718	-0.506212
C42	C	1.518411	-0.380626	-0.780214
C43	C	1.518444	-0.380593	-0.896991
C44	C	1.518452	-0.174535	-0.506222
C45	C	1.518502	-0.086679	-0.506239
C46	C	1.585696	-0.330002	-1.061601
C47	C	1.585675	-0.330033	-0.951877
C48	C	1.451236	-0.431131	-0.951835
C49	C	1.451262	-0.431104	-1.061557
C50	C	1.518319	-0.380724	-0.233213
C51	C	1.518490	-0.380535	-0.116437
H52	H	1.329171	-0.805428	-0.695130
C53	C	1.763638	-1.070773	-0.388064
C54	C	1.659600	-1.090770	-0.365318
H55	H	1.809250	-1.098791	-0.342504
H56	H	1.778978	-1.084260	-0.458661
H57	H	1.773243	-1.015704	-0.378435
H58	H	1.649993	-1.145838	-0.374954
H59	H	1.644254	-1.077288	-0.294704
H60	H	1.118374	-0.288874	-0.384488
C61	C	1.636967	-0.196150	-1.095415
C62	C	1.659601	-0.274423	-1.121924
H63	H	1.682602	-0.161840	-1.132650
H64	H	1.566398	-0.184578	-1.113399
H65	H	1.646570	-0.188948	-1.022218
H66	H	1.649990	-0.281628	-1.195121
H67	H	1.730187	-0.286000	-1.103947
H68	H	1.118420	-0.472534	-0.627866
H69	H	0.919307	-0.288892	-0.384526
C70	C	1.318199	-0.723513	-0.706046
C71	C	1.377175	-0.669845	-0.647115
H72	H	1.272561	-0.695508	-0.751595
H73	H	1.363973	-0.755661	-0.746274
H74	H	1.278053	-0.755757	-0.660231
H75	H	1.417327	-0.637604	-0.692930
H76	H	1.331395	-0.637683	-0.606884
C77	C	1.645315	-0.285171	-0.783703
C78	C	1.659532	-0.274473	-0.891600
H79	H	1.690914	-0.250869	-0.746493
H80	H	1.574730	-0.273616	-0.765726
H81	H	1.660676	-0.338283	-0.765714
H82	H	1.644163	-0.221362	-0.909590
H83	H	1.730133	-0.286023	-0.909584
C84	C	1.391492	-0.476056	-0.783619
C85	C	1.377330	-0.486706	-0.891506
H86	H	1.345857	-0.510363	-0.746378
H87	H	1.462062	-0.487635	-0.765645
H88	H	1.376143	-0.422948	-0.765663
H89	H	1.392687	-0.539813	-0.909463
H90	H	1.306744	-0.475132	-0.909487
H91	H	1.329254	-0.955205	-0.695151
C92	C	1.667476	-0.746242	-0.230613
C93	C	1.726716	-0.793643	-0.298141
H94	H	1.713089	-0.718236	-0.185051
H95	H	1.627436	-0.709851	-0.270589
H96	H	1.621740	-0.778495	-0.190391
H97	H	1.772447	-0.761389	-0.338368
H98	H	1.766774	-0.830038	-0.258161
C99	C	1.391610	-1.171953	-0.633005
C100	C	1.377379	-1.090782	-0.647164
H101	H	1.345996	-1.199962	-0.678562
H102	H	1.462190	-1.185430	-0.648450
H103	H	1.376278	-1.185519	-0.562400
H104	H	1.392718	-1.077216	-0.717768
H105	H	1.306782	-1.077300	-0.631726
H106	H	1.707613	-0.955171	-0.317295
C107	C	1.600162	-0.622419	-0.297746
C108	C	1.659415	-0.669818	-0.365264
H109	H	1.645767	-0.594410	-0.252180
H110	H	1.560123	-0.586032	-0.337728
H111	H	1.554425	-0.654674	-0.257528
H112	H	1.705148	-0.637562	-0.405488
H113	H	1.699473	-0.706210	-0.325279
C114	C	1.318357	-0.531036	-1.050503
C115	C	1.377381	-0.486651	-1.121841
H116	H	1.272747	-0.565324	-1.087722
H117	H	1.364102	-0.561283	-1.007707
H118	H	1.278180	-0.496598	-1.007710
H119	H	1.417565	-0.521088	-1.164629
H120	H	1.331630	-0.456402	-1.164655
H121	H	0.919373	-0.472538	-0.627903
