data_functionalizedCrystal
_audit_creation_method	'MofGen! by Chris Wilmer'
_symmetry_space_group_name_H-M	'P1'
_symmetry_Int_Tables_number	1
_symmetry_cell_setting	triclinic
loop_
_symmetry_equiv_pos_as_xyz
  x,y,z
_cell_length_a	16.974867
_cell_length_b	16.053833
_cell_length_c	16.992695
_cell_angle_alpha	87.288035
_cell_angle_beta	92.977310
_cell_angle_gamma	96.534789
loop_
_atom_site_label
_atom_site_type_symbol
_atom_site_fract_x
_atom_site_fract_y
_atom_site_fract_z
O1	O	-1.055530	-0.001806	0.099969
O2	O	-0.825423	0.013725	0.112047
O3	O	-0.939554	0.006015	-0.008136
O4	O	-0.941398	0.005904	0.220152
O5	O	-0.945894	-0.133271	-0.002232
O6	O	-0.831763	-0.125561	0.117951
O7	O	-1.061870	-0.141092	0.105873
Zn8	Zn	-0.947823	-0.155441	0.112850
Zn9	Zn	-0.939470	0.028074	0.105070
O10	O	-0.947738	-0.133382	0.226056
C11	C	-0.799013	-0.053921	0.114431
C12	C	-0.710874	-0.047972	0.112730
C13	C	-0.214377	-0.006279	0.102779
C14	C	-0.297193	-0.011880	0.104379
C15	C	-0.342048	-0.090606	0.108402
C16	C	-0.304084	-0.163736	0.110819
C17	C	-0.221270	-0.158134	0.109215
C18	C	-0.590096	-0.115501	0.113542
C19	C	-0.672916	-0.121097	0.115149
C20	C	-0.666019	0.030760	0.108706
C21	C	-0.583203	0.036354	0.107107
C22	C	-0.545246	-0.036775	0.109520
N23	N	-0.426699	-0.096333	0.110039
N24	N	-0.460597	-0.031048	0.107877
C25	C	-0.088280	-0.073448	0.103491
C26	C	-0.176418	-0.079403	0.105199
N27	N	-0.953530	-0.280685	0.118158
C28	C	-0.982884	-0.806294	0.145570
C29	C	-0.978896	-0.718619	0.141850
C30	C	-0.925796	-0.671333	0.092312
C31	C	-0.876675	-0.711727	0.046496
C32	C	-0.880660	-0.799400	0.050220
C33	C	-0.908394	-0.408752	0.076066
C34	C	-0.904414	-0.321073	0.072344
C35	C	-1.006635	-0.327971	0.167700
C36	C	-1.010619	-0.415646	0.171416
C37	C	-0.961495	-0.456032	0.125603
N38	N	-0.921719	-0.581715	0.088507
N39	N	-0.965567	-0.545648	0.129412
C40	C	-0.940351	-0.063468	-0.034401
C41	C	-0.933269	-0.062989	-0.121457
N42	N	-0.933769	0.153318	0.099755
C43	C	-1.001594	-0.067602	-0.171578
C44	C	-0.994936	-0.067145	-0.253377
C45	C	-0.919952	-0.062081	-0.285053
C46	C	-0.851621	-0.057465	-0.234926
C47	C	-0.858281	-0.057917	-0.153129
C48	C	-0.892352	-0.060206	-0.528699
C49	C	-0.885698	-0.059758	-0.610502
C50	C	-1.029013	-0.069436	-0.628948
C51	C	-1.035666	-0.069892	-0.547148
C52	C	-0.967335	-0.065272	-0.497029
N53	N	-0.913144	-0.061616	-0.368664
N54	N	-0.974144	-0.065731	-0.413420
C55	C	-0.946942	-0.063898	0.252321
C56	C	-0.954023	-0.064370	0.339377
H57	H	-0.709435	-0.185208	0.118431
H58	H	-0.824634	-0.055647	-0.636289
O59	O	-1.095354	-0.073765	-0.677673
C60	C	-1.092496	-0.001665	-0.728605
H61	H	-1.051543	0.051362	-0.700853
H62	H	-1.068943	-0.016333	-0.787429
C63	C	-1.226812	-0.039852	-0.776349
C64	C	-1.176518	0.025279	-0.742261
H65	H	-1.278640	-0.023233	-0.784776
H66	H	-1.228737	-0.088429	-0.742038
H67	H	-1.207175	-0.052069	-0.825366
H68	H	-1.196150	0.037488	-0.693241
H69	H	-1.174598	0.073859	-0.776564
O70	O	-0.825900	-0.055762	-0.480130
C71	C	-0.758292	-0.051181	-0.525633
H72	H	-0.775759	-0.078645	-0.585529
H73	H	-0.732505	0.017175	-0.534324
C74	C	-0.674226	-0.067685	-0.409122
C75	C	-0.695678	-0.101423	-0.482685
H76	H	-0.635601	-0.098673	-0.382630
H77	H	-0.719774	-0.070768	-0.378466
H78	H	-0.652742	-0.010723	-0.416375
H79	H	-0.717171	-0.158381	-0.475431
H80	H	-0.650132	-0.098351	-0.513340
O81	O	-1.062288	-0.461616	0.219423
C82	C	-1.115671	-0.515800	0.173888
H83	H	-1.119032	-0.489696	0.110385
H84	H	-1.094106	-0.580587	0.175330
C85	C	-1.194445	-0.554792	0.285980
C86	C	-1.198579	-0.522728	0.207985
H87	H	-1.245586	-0.559070	0.307014
H88	H	-1.158479	-0.518290	0.316659
H89	H	-1.176471	-0.608778	0.287171
H90	H	-1.216543	-0.468739	0.206796
H91	H	-1.234550	-0.559221	0.177307
O92	O	-1.074494	-0.072486	-0.140943
C93	C	-1.133371	-0.076477	-0.202725
H94	H	-1.106415	-0.048370	-0.259444
H95	H	-1.157740	-0.144738	-0.211433
C96	C	-1.234289	-0.061117	-0.112169
C97	C	-1.201182	-0.026589	-0.181831
H98	H	-1.276120	-0.030347	-0.099280
H99	H	-1.194623	-0.058431	-0.070545
H100	H	-1.254590	-0.118000	-0.119435
H101	H	-1.180873	0.030290	-0.174561
H102	H	-1.240846	-0.029264	-0.223454
O103	O	-1.054230	-0.288694	0.212294
C104	C	-1.006951	-0.234919	0.263519
H105	H	-0.945577	-0.257110	0.272907
H106	H	-1.001061	-0.168282	0.236463
C107	C	-1.121547	-0.208962	0.331813
C108	C	-1.046169	-0.236222	0.343348
H109	H	-1.145739	-0.209762	0.381054
H110	H	-1.153401	-0.245189	0.297300
H111	H	-1.116629	-0.153433	0.309264
H112	H	-1.051089	-0.291753	0.365888
H113	H	-1.014317	-0.200005	0.377867
O114	O	-0.170730	0.070149	0.098768
C115	C	-0.127321	0.077619	0.029780
H116	H	-0.119465	0.012429	0.009715
H117	H	-0.160818	0.112700	-0.018708
C118	C	-0.054913	0.206519	0.071671
C119	C	-0.045259	0.126451	0.047031
H120	H	-0.004295	0.236644	0.082310
H121	H	-0.084161	0.201489	0.118148
H122	H	-0.082831	0.235742	0.031260
H123	H	-0.017351	0.097226	0.087445
H124	H	-0.016004	0.131478	0.000561
H125	H	-1.026128	-0.844788	0.185906
H126	H	-0.861169	-0.282575	0.032004
H127	H	-0.790567	-0.053337	-0.260723
O128	O	-0.334114	0.059126	0.101896
C129	C	-0.386509	0.060100	0.034784
H130	H	-0.366779	0.018482	-0.011303
H131	H	-0.449139	0.035526	0.052204
C132	C	-0.410023	0.201698	0.056802
C133	C	-0.385787	0.150586	0.000195
H134	H	-0.409581	0.257513	0.035468
H135	H	-0.374726	0.201041	0.102019
H136	H	-0.462213	0.181209	0.071314
H137	H	-0.333595	0.171069	-0.014308
H138	H	-0.421075	0.151249	-0.045025
O139	O	-0.791831	-0.053468	-0.104549
C140	C	-0.724218	-0.048880	-0.150046
H141	H	-0.741676	-0.076350	-0.209941
H142	H	-0.698440	0.019479	-0.158740
C143	C	-0.640158	-0.065363	-0.033528
C144	C	-0.661599	-0.099109	-0.107090
H145	H	-0.601530	-0.096342	-0.007030
H146	H	-0.685709	-0.068450	-0.002875
H147	H	-0.618681	-0.008398	-0.040784
H148	H	-0.683085	-0.156069	-0.099833
H149	H	-0.616050	-0.096032	-0.137740
H150	H	-1.050573	-0.070902	-0.294182
O151	O	-0.539714	0.112879	0.103294
C152	C	-0.553154	0.158022	0.169589
H153	H	-0.612698	0.132472	0.194298
H154	H	-0.503739	0.150883	0.216647
C155	C	-0.481018	0.282869	0.114714
C156	C	-0.554155	0.251494	0.145057
H157	H	-0.481633	0.340528	0.099584
H158	H	-0.471961	0.252456	0.070050
H159	H	-0.439847	0.276913	0.153934
H160	H	-0.595323	0.257441	0.105834
H161	H	-0.563219	0.281911	0.189714
H162	H	-0.696932	0.090297	0.106741
H163	H	-0.868396	-0.441624	0.038759
H164	H	-0.340613	-0.227836	0.114091
O165	O	-0.553355	-0.186619	0.115935
C166	C	-0.610708	-0.257302	0.119816
H167	H	-0.667016	-0.238911	0.144819
H168	H	-0.624918	-0.281547	0.058121
C169	C	-0.508942	-0.349192	0.142909
C170	C	-0.578098	-0.326606	0.173625
H171	H	-0.488826	-0.391944	0.176099
H172	H	-0.470302	-0.301572	0.140292
H173	H	-0.520793	-0.369391	0.091498
H174	H	-0.566245	-0.306398	0.225031
H175	H	-0.616736	-0.374224	0.176253
H176	H	-0.190365	-0.217680	0.111193
O177	O	-0.825163	-0.665672	-0.001612
C178	C	-0.832165	-0.579627	0.004936
H179	H	-0.893101	-0.571804	0.026930
H180	H	-0.784118	-0.551567	0.048433
C181	C	-0.747561	-0.543717	-0.103393
C182	C	-0.822406	-0.534108	-0.076386
H183	H	-0.741538	-0.515637	-0.153555
H184	H	-0.742840	-0.601686	-0.107803
H185	H	-0.707530	-0.520333	-0.067139
H186	H	-0.862436	-0.557501	-0.112635
H187	H	-0.827133	-0.476141	-0.071984
O188	O	-1.026492	-0.679346	0.186448
C189	C	-0.979213	-0.625578	0.237680
H190	H	-0.917839	-0.647770	0.247065
H191	H	-0.973323	-0.558938	0.210632
C192	C	-1.093809	-0.599632	0.305979
C193	C	-1.018431	-0.626893	0.317510
H194	H	-1.118002	-0.600439	0.355220
H195	H	-1.125663	-0.635854	0.271461
H196	H	-1.088891	-0.544101	0.283436
H197	H	-1.023351	-0.682427	0.340042
H198	H	-0.986579	-0.590681	0.352033
O199	O	-0.832919	-0.838505	0.005636
C200	C	-0.785182	-0.777971	-0.038872
H201	H	-0.814883	-0.717674	-0.046028
H202	H	-0.724552	-0.764572	-0.007110
C203	C	-0.738338	-0.885455	-0.111944
C204	C	-0.774821	-0.811400	-0.120738
H205	H	-0.731943	-0.906076	-0.162442
H206	H	-0.770497	-0.926239	-0.081956
H207	H	-0.687817	-0.874280	-0.085473
H208	H	-0.825344	-0.822578	-0.147200
H209	H	-0.742670	-0.770619	-0.150733
H210	H	-1.096725	-0.074015	-0.521364
