data_functionalizedCrystal
_audit_creation_method	'MofGen! by Chris Wilmer'
_symmetry_space_group_name_H-M	'P1'
_symmetry_Int_Tables_number	1
_symmetry_cell_setting	triclinic
loop_
_symmetry_equiv_pos_as_xyz
  x,y,z
_cell_length_a	18.101395
_cell_length_b	16.959455
_cell_length_c	16.959447
_cell_angle_alpha	89.985678
_cell_angle_beta	89.970532
_cell_angle_gamma	90.028051
loop_
_atom_site_label
_atom_site_type_symbol
_atom_site_fract_x
_atom_site_fract_y
_atom_site_fract_z
Zn1	Zn	-0.294875	1.208323	-0.446913
Zn2	Zn	0.205125	1.708323	0.053087
Zn3	Zn	-0.418728	1.208220	-0.314737
Zn4	Zn	0.081272	1.708220	0.185263
Zn5	Zn	-0.294899	1.076152	-0.314751
Zn6	Zn	0.205101	1.576152	0.185249
Zn7	Zn	-0.418673	1.076091	-0.446875
Zn8	Zn	0.081327	1.576091	0.053125
O9	O	-0.356794	1.142196	-0.380819
O10	O	0.143206	1.642196	0.119181
O11	O	-0.311318	1.318920	-0.429390
O12	O	0.188682	1.818920	0.070610
O13	O	-0.402335	1.190683	-0.204128
O14	O	0.097665	1.690683	0.295872
O15	O	-0.191263	1.093753	-0.332304
O16	O	0.308737	1.593753	0.167696
O17	O	-0.402312	1.318845	-0.332280
O18	O	0.097688	1.818845	0.167720
O19	O	-0.191246	1.190859	-0.429404
O20	O	0.308754	1.690859	0.070596
O21	O	-0.311358	1.093653	-0.204138
O22	O	0.188642	1.593653	0.295862
O23	O	-0.311304	0.965533	-0.332267
O24	O	0.188696	1.465533	0.167733
O25	O	-0.402218	1.093649	-0.557491
O26	O	0.097782	1.593649	-0.057491
O27	O	-0.402241	0.965488	-0.429339
O28	O	0.097759	1.465488	0.070661
O29	O	-0.311264	1.190800	-0.557519
O30	O	0.188736	1.690800	-0.057519
O31	O	-0.522354	1.190624	-0.332243
O32	O	-0.022354	1.690624	0.167757
O33	O	-0.522313	1.093550	-0.429325
O34	O	-0.022313	1.593550	0.070675
C35	C	-0.356769	0.936830	-0.380801
C36	C	0.143231	1.436830	0.119199
C37	C	-0.356777	0.848974	-0.380812
C38	C	0.143223	1.348974	0.119188
C39	C	-0.309404	0.477497	-0.330380
C40	C	0.190596	0.977497	0.169620
C41	C	-0.404244	0.477499	-0.431304
C42	C	0.095756	0.977499	0.068696
C43	C	-0.404234	0.560045	-0.431299
C44	C	0.095766	1.060045	0.068701
C45	C	-0.356808	0.601321	-0.380833
C46	C	0.143192	1.101321	0.119167
C47	C	-0.309394	0.560050	-0.330372
C48	C	0.190606	1.060050	0.169628
C49	C	-0.451653	0.601321	-0.481754
C50	C	0.048347	1.101321	0.018246
C51	C	-0.451644	0.683872	-0.481750
C52	C	0.048356	1.183872	0.018250
C53	C	-0.404215	0.725150	-0.431287
C54	C	0.095785	1.225150	0.068713
C55	C	-0.356798	0.683874	-0.380825
C56	C	0.143202	1.183874	0.119175
C57	C	-0.309373	0.725150	-0.330359
C58	C	0.190627	1.225150	0.169641
C59	C	-0.261951	0.683876	-0.279899
C60	C	0.238049	1.183876	0.220101
C61	C	-0.261964	0.601327	-0.279909
C62	C	0.238036	1.101327	0.220091
C63	C	-0.404202	0.807698	-0.431278
C64	C	0.095798	1.307698	0.068722
C65	C	-0.309362	0.807703	-0.330351
C66	C	0.190638	1.307703	0.169649
C67	C	-0.549204	1.142091	-0.380796
C68	C	-0.049204	1.642091	0.119204
C69	C	-0.631518	1.142118	-0.380812
C70	C	-0.131518	1.642118	0.119188
C71	C	-0.930609	1.142291	-0.380855
C72	C	-0.430609	1.642291	0.119145
C73	C	-0.899289	1.081356	-0.442088
C74	C	-0.399289	1.581356	0.057912
C75	C	-0.813671	1.081066	-0.441896
C76	C	-0.313671	1.581066	0.058104
C77	C	-0.782227	1.142205	-0.380834
C78	C	-0.282227	1.642205	0.119166
C79	C	-0.813380	1.119658	-0.297530
C80	C	-0.313380	1.619658	0.202470
C81	C	-0.899025	1.119266	-0.297896
C82	C	-0.399025	1.619266	0.202104
C83	C	-0.898956	1.225907	-0.402193
C84	C	-0.398956	1.725907	0.097807
C85	C	-0.813305	1.225415	-0.404020
C86	C	-0.313305	1.725415	0.095980
C87	C	-0.698367	1.142158	-0.380818
C88	C	-0.198367	1.642158	0.119182
C89	C	-1.014469	1.142337	-0.380866
C90	C	-0.514469	1.642337	0.119134
C91	C	-0.163632	1.142324	-0.380860
C92	C	0.336368	1.642324	0.119140
C93	C	-0.081318	1.142379	-0.380877
C94	C	0.418682	1.642379	0.119123
C95	C	-0.356732	1.142229	-0.586987
C96	C	0.143268	1.642229	-0.086987
C97	C	-0.356706	1.142243	-0.674844
C98	C	0.143294	1.642243	-0.174844
C99	C	-0.356819	1.348365	-0.380838
C100	C	0.143181	1.848365	0.119162
C101	C	-0.356830	1.436221	-0.380846
C102	C	0.143170	1.936221	0.119154
C103	C	-0.403984	1.091756	-1.046308
C104	C	0.096016	1.591756	-0.546308
C105	C	-0.309273	1.192920	-1.046332
C106	C	0.190727	1.692920	-0.546332
C107	C	-0.309289	1.192899	-0.963786
C108	C	0.190711	1.692899	-0.463786
C109	C	-0.356653	1.142306	-0.922497
C110	C	0.143347	1.642306	-0.422497
C111	C	-0.404002	1.091735	-0.963754
C112	C	0.095998	1.591735	-0.463754
C113	C	-0.261946	1.243475	-0.922523
C114	C	0.238054	1.743475	-0.422523
C115	C	-0.261960	1.243456	-0.839972
C116	C	0.238040	1.743456	-0.339972
C117	C	-0.309322	1.192859	-0.798681
C118	C	0.190678	1.692859	-0.298681
C119	C	-0.356672	1.142285	-0.839944
C120	C	0.143328	1.642285	-0.339944
C121	C	-0.404037	1.091693	-0.798655
C122	C	0.095963	1.591693	-0.298655
C123	C	-0.451384	1.041115	-0.839915
C124	C	0.048616	1.541115	-0.339915
C125	C	-0.451364	1.041138	-0.922464
C126	C	0.048636	1.541138	-0.422464
C127	C	-0.309342	1.192836	-0.716133
C128	C	0.190658	1.692836	-0.216133
C129	C	-0.404055	1.091672	-0.716101
C130	C	0.095945	1.591672	-0.216101
C131	C	-0.356801	1.142209	-0.175453
C132	C	0.143199	1.642209	0.324547
C133	C	-0.356619	1.142348	-0.087597
C134	C	0.143381	1.642348	0.412403
H135	H	-0.270738	0.841304	-0.289259
H136	H	0.229262	1.341304	0.210741
O137	O	-0.258190	1.247473	-1.090877
O138	O	0.241810	1.747473	-0.590877
H139	H	-0.270897	1.309502	-1.075045
H140	H	0.229103	1.809502	-0.575045
H141	H	-0.792606	1.095172	-0.503666
H142	H	-0.292606	1.595172	-0.003666
O143	O	-0.502468	0.986544	-0.795381
O144	O	-0.002468	1.486544	-0.295381
H145	H	-0.494521	0.995029	-0.731049
H146	H	0.005479	1.495029	-0.231049
O147	O	-0.258276	0.432989	-0.275936
O148	O	0.241724	0.932989	0.224064
H149	H	-0.266256	0.368653	-0.284408
H150	H	0.233744	0.868653	0.215592
O151	O	-0.210802	0.728393	-0.225463
O152	O	0.289198	1.228393	0.274537
H153	H	-0.173159	0.766029	-0.260906
H154	H	0.326841	1.266029	0.239094
H155	H	-0.791993	1.059184	-0.279130
H156	H	-0.291993	1.559184	0.220870
O157	O	-0.210835	1.298011	-0.967051
O158	O	0.289165	1.798011	-0.467051
H159	H	-0.218760	1.289510	-1.031384
H160	H	0.281240	1.789510	-0.531384
H161	H	-0.270794	1.234018	-0.682542
H162	H	0.229206	1.734018	-0.182542
H163	H	-0.489914	0.999962	-0.956066
H164	H	0.010086	1.499962	-0.456066
H165	H	-0.920503	1.246464	-0.461904
H166	H	-0.420503	1.746464	0.038096
H167	H	-0.919066	1.058143	-0.279821
H168	H	-0.419066	1.558143	0.220179
O169	O	-0.455393	0.432987	-0.485735
O170	O	0.044607	0.932987	0.014265
H171	H	-0.447431	0.368652	-0.477267
H172	H	0.052569	0.868652	0.022733
O173	O	-0.786604	0.998977	-0.423154
O174	O	-0.286604	1.498977	0.076846
H175	H	-0.834687	0.959333	-0.414185
H176	H	-0.334687	1.459333	0.085815
H177	H	-0.919210	1.271306	-0.357595
H178	H	-0.419210	1.771306	0.142405
O179	O	-0.502778	0.728387	-0.536182
O180	O	-0.002778	1.228387	-0.036182
H181	H	-0.560889	0.712518	-0.522529
H182	H	-0.060889	1.212518	-0.022529
H183	H	-0.791897	1.273216	-0.362672
H184	H	-0.291897	1.773216	0.137328
H185	H	-0.223357	0.567715	-0.238827
H186	H	0.276643	1.067715	0.261173
O187	O	-0.786321	1.247941	-0.485225
O188	O	-0.286321	1.747941	0.014775
H189	H	-0.834416	1.256925	-0.524787
H190	H	-0.334416	1.756925	-0.024787
O191	O	-0.455339	0.852218	-0.485696
O192	O	0.044661	1.352218	0.014304
H193	H	-0.488317	0.809648	-0.520791
H194	H	0.011683	1.309648	-0.020791
O195	O	-0.786409	1.176596	-0.235443
O196	O	-0.286409	1.676596	0.264557
H197	H	-0.754537	1.143942	-0.190080
H198	H	-0.254537	1.643942	0.309920
O199	O	-0.502801	0.556807	-0.536185
O200	O	-0.002801	1.056807	-0.036185
H201	H	-0.494833	0.492472	-0.527720
H202	H	0.005167	0.992472	-0.027720
H203	H	-0.919836	1.095322	-0.504057
H204	H	-0.419836	1.595322	-0.004057
O205	O	-0.927867	0.999754	-0.423596
O206	O	-0.427867	1.499754	0.076404
H207	H	-0.989117	0.999714	-0.426643
H208	H	-0.489117	1.499714	0.073357
O209	O	-0.926483	1.175490	-0.235395
O210	O	-0.426483	1.675490	0.264605
H211	H	-0.878587	1.202835	-0.205038
H212	H	-0.378587	1.702835	0.294962
H213	H	-0.442530	1.050574	-1.079906
H214	H	0.057470	1.550574	-0.579906
H215	H	-0.442619	1.050466	-0.682489
H216	H	0.057381	1.550466	-0.182489
O217	O	-0.210894	1.298002	-0.795470
O218	O	0.289106	1.798002	-0.295470
H219	H	-0.177954	1.333182	-0.838050
H220	H	0.322046	1.833182	-0.338050
