data_functionalizedCrystal
_audit_creation_method	'MofGen! by Chris Wilmer'
_symmetry_space_group_name_H-M	'P1'
_symmetry_Int_Tables_number	1
_symmetry_cell_setting	triclinic
loop_
_symmetry_equiv_pos_as_xyz
  x,y,z
_cell_length_a	12.811457
_cell_length_b	12.837943
_cell_length_c	11.295483
_cell_angle_alpha	94.533167
_cell_angle_beta	91.289320
_cell_angle_gamma	89.411676
loop_
_atom_site_label
_atom_site_type_symbol
_atom_site_fract_x
_atom_site_fract_y
_atom_site_fract_z
O1	O	1.403247	0.143362	0.052524
O2	O	1.101285	0.156263	0.019913
O3	O	1.245570	-0.001170	0.035494
O4	O	1.258961	0.300795	0.036942
O5	O	1.232895	0.012636	0.232176
O6	O	1.088610	0.170069	0.216594
O7	O	1.390572	0.157168	0.249206
Cu8	Cu	1.238433	0.164879	0.250859
Cu9	Cu	1.253423	0.148552	0.018260
O10	O	1.246286	0.314601	0.233624
C11	C	1.056029	0.162020	0.114050
C12	C	0.940064	0.158593	0.101526
C13	C	0.708332	0.167186	0.292438
C14	C	0.599372	0.163966	0.280676
C15	C	0.613182	0.148925	0.066242
C16	C	0.722142	0.152145	0.078004
C17	C	0.769713	0.161278	0.191105
C18	C	0.878675	0.164505	0.202866
C19	C	0.892483	0.149457	-0.011567
C20	C	0.783523	0.146236	-0.023329
C21	C	1.435828	0.151411	0.155065
C22	C	1.551793	0.154837	0.167582
C23	C	1.234709	-0.032942	0.133344
C24	C	1.221217	-0.148180	0.131878
C25	C	1.257148	0.346373	0.135772
C26	C	1.270640	0.461611	0.137230
N27	N	1.227898	0.176362	0.414457
C28	C	1.108441	0.700634	0.119691
C29	C	1.121113	0.808911	0.121059
C30	C	1.308656	0.786443	0.141326
C31	C	1.295984	0.678166	0.139958
C32	C	1.195873	0.635266	0.129142
C33	C	1.183201	0.526988	0.127782
C34	C	1.370744	0.504521	0.148040
C35	C	1.383416	0.612797	0.149409
N36	N	1.263966	0.137060	-0.145338
C37	C	1.339800	0.054340	0.675831
C38	C	1.331846	0.063025	0.799636
C39	C	1.204032	0.202413	0.785873
C40	C	1.211986	0.193728	0.662069
C41	C	1.279873	0.119690	0.607052
C42	C	1.287832	0.111010	0.483246
C43	C	1.160013	0.250392	0.469485
C44	C	1.152059	0.259077	0.593290
H45	H	0.744776	0.138796	-0.115413
H46	H	1.441937	0.451285	0.155738
C47	C	1.486115	0.768803	0.160513
C48	C	1.493453	0.659960	0.161306
H49	H	1.554049	0.797916	0.167868
H50	H	1.454099	0.786341	0.087988
H51	H	1.445232	0.795970	0.225160
H52	H	1.534330	0.632793	0.096653
H53	H	1.525484	0.642414	0.233839
H54	H	1.111219	0.303607	0.413471
C55	C	0.940676	0.048608	-0.190426
C56	C	0.959955	0.142960	-0.122963
H57	H	0.982327	0.044606	-0.259198
H58	H	0.957653	-0.008152	-0.144242
H59	H	0.868972	0.045392	-0.213609
H60	H	1.031658	0.146173	-0.099774
H61	H	0.942985	0.199735	-0.169157
H62	H	0.917405	0.171947	0.294959
C63	C	1.357406	-0.096366	0.537481
C64	C	1.414440	-0.027009	0.615331
H65	H	1.403494	-0.146575	0.500123
H66	H	1.307219	-0.130882	0.580692
H67	H	1.322838	-0.058677	0.478817
H68	H	1.449001	-0.064697	0.674000
H69	H	1.464645	0.007510	0.572117
C70	C	1.458983	-0.075624	0.800799
C71	C	1.397721	-0.008808	0.875239
H72	H	1.499655	-0.119969	0.847476
H73	H	1.414971	-0.116879	0.747435
H74	H	1.503884	-0.035333	0.757014
H75	H	1.352814	-0.049099	0.919018
H76	H	1.441738	0.032451	0.928624
C77	C	1.078464	0.339298	0.759846
C78	C	1.129396	0.283773	0.846358
H79	H	1.032378	0.389518	0.797189
H80	H	1.128673	0.373801	0.716652
H81	H	1.039784	0.292228	0.707037
H82	H	1.168082	0.330842	0.899163
H83	H	1.079180	0.249269	0.889572
H84	H	1.096784	0.319355	0.638098
H85	H	0.747065	0.174636	0.384530
H86	H	0.549399	0.168783	0.363192
H87	H	1.390157	0.821396	0.150207
C88	C	0.495769	0.225592	-0.071675
C89	C	0.560875	0.138884	-0.058069
H90	H	0.463480	0.219394	-0.148422
H91	H	0.443631	0.228641	-0.013005
H92	H	0.536047	0.287546	-0.062843
H93	H	0.520594	0.076931	-0.066892
H94	H	0.613020	0.135825	-0.116755
C95	C	1.025980	0.505697	0.008966
C96	C	1.073164	0.479824	0.115883
H97	H	0.958049	0.476575	0.001616
H98	H	1.021015	0.579529	0.008438
H99	H	1.066870	0.478514	-0.055667
H100	H	1.032278	0.507014	0.180518
H101	H	1.078124	0.405977	0.116422
C102	C	0.951206	0.679337	0.000894
C103	C	0.998406	0.653466	0.107803
H104	H	0.883277	0.650212	-0.006446
H105	H	0.946236	0.753170	0.000368
H106	H	0.992091	0.652159	-0.063747
H107	H	0.957525	0.680652	0.172445
H108	H	1.003371	0.579619	0.108340
C109	C	1.033084	0.936605	0.009731
C110	C	1.025005	0.880764	0.110671
H111	H	0.973744	0.980959	0.003314
H112	H	1.094507	0.977653	0.016378
H113	H	1.036463	0.889072	-0.058960
H114	H	1.021633	0.928298	0.179363
H115	H	0.963565	0.839714	0.104032
H116	H	1.343111	0.050727	0.438453
