data_functionalizedCrystal
_audit_creation_method	'MofGen! by Chris Wilmer'
_symmetry_space_group_name_H-M	'P1'
_symmetry_Int_Tables_number	1
_symmetry_cell_setting	triclinic
loop_
_symmetry_equiv_pos_as_xyz
  x,y,z
_cell_length_a	16.992694
_cell_length_b	16.992700
_cell_length_c	7.540329
_cell_angle_alpha	89.989176
_cell_angle_beta	90.002664
_cell_angle_gamma	90.667698
loop_
_atom_site_label
_atom_site_type_symbol
_atom_site_fract_x
_atom_site_fract_y
_atom_site_fract_z
O1	O	1.050847	0.166915	-0.147307
O2	O	0.822447	0.165084	-0.147359
O3	O	0.935733	0.051800	-0.147288
O4	O	0.937562	0.280200	-0.147378
O5	O	0.935726	0.051798	0.147677
O6	O	0.822440	0.165082	0.147606
O7	O	1.050840	0.166913	0.147658
Cu8	Cu	0.936639	0.165998	0.174565
Cu9	Cu	0.936648	0.166000	-0.174266
O10	O	0.937555	0.280198	0.147587
C11	C	0.793084	0.162727	0.000118
C12	C	0.705599	0.155699	0.000100
C13	C	0.933374	0.022439	0.000202
C14	C	0.926346	-0.065046	0.000223
C15	C	0.659608	0.223517	0.000075
C16	C	0.577407	0.216908	0.000102
C17	C	0.541199	0.142480	0.000142
C18	C	0.587197	0.074657	0.000172
C19	C	0.669396	0.081267	0.000158
C20	C	0.295885	0.115086	0.000200
C21	C	0.213680	0.108481	0.000209
C22	C	0.203896	0.250732	0.000142
C23	C	0.286097	0.257335	0.000117
C24	C	0.332087	0.189512	0.000157
N25	N	0.457177	0.135723	0.000164
N26	N	0.416108	0.196270	0.000147
C27	C	0.879124	-0.556965	0.000051
C28	C	0.885734	-0.474764	0.000070
C29	C	0.960162	-0.438557	0.000111
C30	C	1.027984	-0.484555	0.000115
C31	C	1.021374	-0.566754	0.000083
C32	C	0.987558	-0.193243	0.000196
C33	C	0.994163	-0.111038	0.000233
C34	C	0.851912	-0.101253	0.000184
C35	C	0.845308	-0.183454	0.000163
C36	C	0.913131	-0.229445	0.000158
N37	N	0.966919	-0.354535	0.000136
N38	N	0.906372	-0.313465	0.000121
C39	C	1.080204	0.169270	0.000177
C40	C	1.167688	0.176299	0.000184
C41	C	0.939914	0.309559	0.000094
C42	C	0.946942	0.397043	0.000060
N43	N	0.936639	0.165996	0.419913
N44	N	0.936654	0.165996	-0.419614
H45	H	0.689081	0.284123	0.000041
H46	H	0.184203	0.047870	0.000239
H47	H	1.076598	-0.604200	0.000084
H48	H	1.088585	-0.455069	0.000152
H49	H	0.539964	0.272132	0.000079
F50	F	0.718343	0.009085	0.000191
H51	H	0.333321	0.059859	0.000234
F52	F	0.766092	-0.221982	0.000116
F53	F	0.324625	0.336551	0.000065
H54	H	0.818517	-0.586438	0.000038
H55	H	0.166442	0.305950	0.000113
F56	F	0.548660	-0.004555	0.000226
F57	F	0.813552	-0.425819	0.000046
H58	H	1.054774	-0.081561	0.000267
F59	F	0.779736	-0.052300	0.000182
F60	F	1.059742	-0.242180	0.000204
