data_functionalizedCrystal
_audit_creation_method	'MofGen! by Chris Wilmer'
_symmetry_space_group_name_H-M	'P1'
_symmetry_Int_Tables_number	1
_symmetry_cell_setting	triclinic
loop_
_symmetry_equiv_pos_as_xyz
  x,y,z
_cell_length_a	19.288864
_cell_length_b	14.044220
_cell_length_c	17.766277
_cell_angle_alpha	89.993125
_cell_angle_beta	89.976791
_cell_angle_gamma	88.162561
loop_
_atom_site_label
_atom_site_type_symbol
_atom_site_fract_x
_atom_site_fract_y
_atom_site_fract_z
O1	O	0.928949	0.118215	-0.062840
O2	O	0.727713	0.134161	-0.062789
O3	O	0.825310	-0.011784	-0.062806
O4	O	0.831351	0.264160	-0.062822
O5	O	0.825291	-0.011791	0.062383
O6	O	0.727693	0.134154	0.062400
O7	O	0.928929	0.118207	0.062349
Cu8	Cu	0.828310	0.126180	0.073805
Cu9	Cu	0.828332	0.126189	-0.074245
O10	O	0.831332	0.264152	0.062366
C11	C	0.701794	0.133645	-0.000188
C12	C	0.624591	0.132104	-0.000168
C13	C	0.585397	0.217738	-0.000185
C14	C	0.512857	0.216291	-0.000193
C15	C	0.479514	0.129205	-0.000200
C16	C	0.518717	0.043560	-0.000178
C17	C	0.591256	0.045010	-0.000163
C18	C	0.366860	0.060749	-0.044080
C19	C	0.294323	0.059303	-0.044100
C20	C	0.255781	0.124731	-0.000245
C21	C	0.289785	0.191621	0.043621
C22	C	0.362323	0.193071	0.043637
C23	C	0.400858	0.127624	-0.000216
C24	C	0.137930	0.208802	-0.000270
C25	C	0.065389	0.207351	-0.000273
C26	C	0.071251	0.034617	-0.000266
C27	C	0.143790	0.036071	-0.000255
C28	C	0.177126	0.123165	-0.000260
C29	C	0.822656	-0.047091	-0.000211
C30	C	0.814768	-0.152283	-0.000208
C31	C	0.800348	-0.344882	-0.000215
C32	C	0.856291	-0.402755	-0.000231
C33	C	0.848267	-0.509924	-0.000235
C34	C	0.808370	-0.237703	-0.000211
C35	C	0.954848	0.118724	-0.000254
C36	C	1.032051	0.120264	-0.000278
C37	C	0.833986	0.299459	-0.000231
C38	C	0.841874	0.404651	-0.000239
N39	N	0.828299	0.126173	0.177935
N40	N	0.828348	0.126188	-0.178375
C41	C	0.871532	0.061580	0.217315
C42	C	0.871536	0.061576	0.296116
C43	C	0.828314	0.126181	0.335536
C44	C	0.785072	0.190779	0.296147
C45	C	0.785064	0.190775	0.217347
C46	C	0.824563	0.212524	0.460370
C47	C	0.824575	0.212529	0.539169
C48	C	0.828333	0.126192	0.578582
C49	C	0.832093	0.039847	0.539187
C50	C	0.832085	0.039843	0.460387
C51	C	0.828317	0.126192	0.420982
C52	C	0.871573	0.061589	0.703407
C53	C	0.871572	0.061583	0.782211
C54	C	0.785111	0.190794	0.782240
C55	C	0.785109	0.190792	0.703438
C56	C	0.828343	0.126190	0.664027
H57	H	0.258405	0.244899	0.079333
H58	H	0.906743	0.008975	0.328185
C59	C	0.719553	-0.442783	-0.064544
C60	C	0.727561	-0.386648	-0.000192
H61	H	0.674619	-0.468579	-0.064524
H62	H	0.724996	-0.404681	-0.108193
H63	H	0.753607	-0.493168	-0.064550
H64	H	0.693510	-0.336258	-0.000189
H65	H	0.722111	-0.424751	0.043468
C66	C	0.923049	-0.261370	-0.000227
C67	C	0.929084	-0.360993	-0.000238
H68	H	0.967987	-0.235588	-0.000225
H69	H	0.898553	-0.240467	-0.043877
H70	H	0.898523	-0.240493	0.043436
H71	H	0.953606	-0.381871	-0.043905
H72	H	0.953590	-0.381905	0.043415
H73	H	0.749878	0.243379	0.328246
C74	C	0.964852	0.040776	0.614813
C75	C	0.919140	-0.009392	0.660111
H76	H	0.994236	-0.003037	0.588098
H77	H	0.939107	0.079206	0.580058
H78	H	0.992224	0.080170	0.645565
H79	H	0.891765	-0.048781	0.629358
H80	H	0.944888	-0.047839	0.694870
H81	H	0.906734	0.008976	0.185228
H82	H	0.398235	0.007467	-0.079797
H83	H	0.821491	0.282834	0.428286
C84	C	0.155304	0.356487	-0.064620
C85	C	0.174579	0.304532	-0.000264
H86	H	0.177926	0.415589	-0.064612
H87	H	0.168421	0.321246	-0.108266
H88	H	0.106492	0.367875	-0.064620
H89	H	0.223391	0.293139	-0.000267
H90	H	0.161466	0.339781	0.043393
C91	C	0.839506	-0.130848	0.468310
C92	C	0.836207	-0.055062	0.417083
H93	H	0.842044	-0.189438	0.441574
H94	H	0.879511	-0.125732	0.499018
H95	H	0.799192	-0.128778	0.499071
H96	H	0.876524	-0.057128	0.386325
H97	H	0.796198	-0.060180	0.386362
C98	C	0.957048	-0.066114	0.774262
C99	C	0.919101	-0.009419	0.825500
H100	H	0.986394	-0.109943	0.800989
H101	H	0.926035	-0.100108	0.743549
H102	H	0.984460	-0.026738	0.743506
H103	H	0.891685	-0.048795	0.856252
H104	H	0.950118	0.024577	0.856225
C105	C	0.668349	0.246858	0.806553
C106	C	0.737598	0.261808	0.825561
H107	H	0.639015	0.290696	0.833304
H108	H	0.662164	0.256105	0.753993
H109	H	0.656903	0.183635	0.819485
H110	H	0.749046	0.325029	0.812624
H111	H	0.743786	0.252569	0.878133
H112	H	0.623168	-0.024726	-0.000149
C113	C	0.699605	0.318495	0.225293
C114	C	0.737544	0.261788	0.174056
H115	H	0.670272	0.362340	0.198564
H116	H	0.672186	0.279136	0.256042
H117	H	0.730629	0.352479	0.256011
H118	H	0.706520	0.227798	0.143341
H119	H	0.764965	0.301152	0.143294
C120	C	0.754497	0.354987	0.679174
C121	C	0.737593	0.261807	0.660148
H122	H	0.725163	0.398828	0.652445
H123	H	0.748313	0.364226	0.731740
H124	H	0.801479	0.365102	0.666229
H125	H	0.690613	0.251689	0.673098
H126	H	0.743772	0.252564	0.607571
H127	H	0.821518	0.282836	0.571239
H128	H	0.835153	-0.030457	0.571275
H129	H	0.612534	0.288658	-0.000191
H130	H	0.044104	-0.036290	-0.000318
C131	C	0.485554	0.363059	-0.064581
C132	C	0.469760	0.310424	-0.000221
H133	H	0.458945	0.421168	-0.064601
H134	H	0.533519	0.376391	-0.064564
H135	H	0.474896	0.327317	-0.108229
H136	H	0.480423	0.346163	0.043427
H137	H	0.421784	0.297094	-0.000232
C138	C	0.350561	0.323708	0.130355
C139	C	0.399701	0.266582	0.091860
H140	H	0.373639	0.369084	0.160131
H141	H	0.321180	0.355910	0.095085
H142	H	0.323545	0.284868	0.161966
H143	H	0.426714	0.305421	0.060245
H144	H	0.429094	0.234378	0.127135
H145	H	0.033478	0.277088	-0.000283
C146	C	0.142296	-0.134809	-0.000258
C147	C	0.186878	-0.058063	-0.000248
H148	H	0.168898	-0.192924	-0.000257
H149	H	0.113860	-0.131787	0.043390
H150	H	0.113903	-0.131770	-0.043923
H151	H	0.215267	-0.061097	0.043420
H152	H	0.215326	-0.061086	-0.043900
H153	H	0.491565	-0.027346	-0.000194
C154	C	0.274118	-0.001593	-0.168173
C155	C	0.256953	-0.014224	-0.092317
H156	H	0.251052	-0.046992	-0.197939
H157	H	0.260107	0.060856	-0.183600
H158	H	0.322836	-0.010094	-0.174425
H159	H	0.208235	-0.005716	-0.086064
H160	H	0.270959	-0.076687	-0.076886
