data_functionalizedCrystal
_audit_creation_method	'MofGen! by Chris Wilmer'
_symmetry_space_group_name_H-M	'P1'
_symmetry_Int_Tables_number	1
_symmetry_cell_setting	triclinic
loop_
_symmetry_equiv_pos_as_xyz
  x,y,z
_cell_length_a	23.096457
_cell_length_b	16.704494
_cell_length_c	23.096457
_cell_angle_alpha	56.638705
_cell_angle_beta	90.011518
_cell_angle_gamma	63.426309
loop_
_atom_site_label
_atom_site_type_symbol
_atom_site_fract_x
_atom_site_fract_y
_atom_site_fract_z
Zr1	Zr	0.590364	0.878581	-0.108618
O2	O	0.504110	1.046032	-0.207281
O3	O	0.612495	0.711131	-0.074062
O4	O	0.618683	0.878584	-0.201069
O5	O	0.497945	0.878576	0.015009
O6	O	0.713963	0.878586	-0.201073
O7	O	0.497922	0.878579	-0.080273
O8	O	0.702894	0.579043	0.026120
O9	O	0.509014	1.178120	-0.212184
O10	O	0.698248	0.780007	-0.064535
O11	O	0.627158	0.780004	0.006576
O12	O	0.634444	0.977159	-0.142959
O13	O	0.563354	0.977156	-0.071848
Zr14	Zr	0.742361	0.878581	0.043340
Zr15	Zr	0.742325	0.878585	-0.108623
Zr16	Zr	0.590400	0.878578	0.043346
Zr17	Zr	0.598185	1.089247	-0.116438
Zr18	Zr	0.734540	0.667916	0.051161
O19	O	0.720231	1.046032	0.008784
O20	O	0.720180	1.046037	-0.207289
O21	O	0.504161	1.046027	0.008792
O22	O	0.828615	0.711131	0.142003
O23	O	0.828564	0.711136	-0.074070
O24	O	0.612546	0.711126	0.142011
O25	O	0.834781	0.878586	-0.080286
O26	O	0.714043	0.878579	0.135792
O27	O	0.618762	0.878576	0.135795
O28	O	0.834803	0.878584	0.014996
O29	O	0.629803	1.178123	-0.212189
O30	O	0.702922	0.579040	0.146911
O31	O	0.823711	0.579043	0.146907
O32	O	0.823683	0.579046	0.026116
O33	O	0.509043	1.178117	-0.091393
O34	O	0.629832	1.178120	-0.091398
O35	O	0.698282	0.780004	0.077681
O36	O	0.769372	0.780007	0.006571
O37	O	0.705567	0.977159	-0.071853
O38	O	0.634477	0.977156	-0.000743
C39	C	0.656580	0.615071	-0.022856
C40	C	0.653260	0.525639	-0.019536
C41	C	0.476282	0.878577	-0.032632
C42	C	0.411771	0.878575	-0.032629
C43	C	0.721255	0.357572	-0.087533
C44	C	0.718137	0.273542	-0.084415
C45	C	0.643911	0.273541	-0.010180
C46	C	0.647029	0.357571	-0.013297
C47	C	0.685701	0.399585	-0.051976
C48	C	0.688815	0.483622	-0.055098
C49	C	0.614592	0.483614	0.019142
C50	C	0.611475	0.399584	0.022259
C51	C	0.414770	0.775667	0.008301
C52	C	0.354155	0.775666	0.008304
C53	C	0.290540	0.878578	-0.032637
C54	C	0.287544	0.981500	-0.073569
C55	C	0.348159	0.981498	-0.073565
N56	N	0.170574	0.955182	-0.095892
N57	N	0.112994	0.955176	-0.095894
C58	C	0.107908	0.878588	-0.032650
N59	N	0.162582	0.801989	0.030596
N60	N	0.220168	0.801991	0.030597
C61	C	0.224809	0.878591	-0.032645
C62	C	0.045183	0.775671	0.008287
C63	C	-0.015434	0.775674	0.008292
C64	C	-0.082045	0.981511	-0.073588
C65	C	-0.021428	0.981505	-0.073586
C66	C	0.042184	0.878582	-0.032650
C67	C	0.856443	0.878586	-0.032646
C68	C	0.920955	0.878587	-0.032648
C69	C	0.666318	0.878586	-0.222722
C70	C	0.666303	0.878587	-0.287235
C71	C	0.676146	1.142091	-0.042421
C72	C	0.679466	1.231524	-0.045741
C73	C	0.633001	0.981495	-0.358475
C74	C	0.633019	0.981497	-0.419092
C75	C	0.666329	0.878585	-0.408464
C76	C	0.699638	0.775663	-0.337211
C77	C	0.699625	0.775664	-0.276597
N78	N	0.658363	0.801981	-0.473175
N79	N	0.658372	0.801987	-0.530759
C80	C	0.666372	0.878575	-0.591089
N81	N	0.674350	0.955174	-0.591666
N82	N	0.674338	0.955171	-0.534078
C83	C	0.666347	0.878572	-0.474185
C84	C	0.633089	0.981491	-0.728059
C85	C	0.633112	0.981489	-0.788675
C86	C	0.699726	0.775652	-0.706792
C87	C	0.699708	0.775658	-0.646178
C88	C	0.666385	0.878580	-0.656817
C89	C	0.666408	0.878577	0.157445
C90	C	0.666423	0.878575	0.221958
C91	C	0.846660	0.615076	-0.022864
C92	C	0.907852	0.525644	-0.019546
C93	C	0.656625	0.615067	0.167227
C94	C	0.653320	0.525633	0.235060
C95	C	0.846705	0.615071	0.167220
C96	C	0.907912	0.525639	0.235050
C97	C	0.486020	1.142091	-0.232497
C98	C	0.424814	1.231524	-0.300328
C99	C	0.486065	1.142087	-0.042414
C100	C	0.424874	1.231518	-0.045731
C101	C	0.676101	1.142096	-0.232505
C102	C	0.679406	1.231530	-0.300337
C103	C	0.899462	0.483647	-0.055111
C104	C	0.956952	0.399628	-0.052008
C105	C	1.022832	0.357603	-0.013336
C106	C	1.031220	0.399609	0.022229
C107	C	0.973731	0.483632	0.019122
C108	C	0.688894	0.483633	0.304037
C109	C	0.685786	0.399612	0.367779
C110	C	0.647108	0.357586	0.362541
C111	C	0.611530	0.399593	0.293556
C112	C	0.614634	0.483619	0.229816
C113	C	0.973770	0.483642	0.229785
C114	C	1.031286	0.399622	0.293513
C115	C	1.022943	0.357594	0.362505
C116	C	0.957078	0.399600	0.367768
C117	C	0.899564	0.483624	0.304041
C118	C	0.358956	1.273531	-0.295063
C119	C	0.301441	1.357578	-0.358791
C120	C	0.309784	1.399609	-0.427784
C121	C	0.375648	1.357599	-0.433047
C122	C	0.433163	1.273560	-0.369319
C123	C	0.433264	1.273525	-0.010173
C124	C	0.375774	1.357567	-0.013294
C125	C	0.309895	1.399595	-0.051968
C126	C	0.301506	1.357585	-0.087530
C127	C	0.358996	1.273550	-0.084414
C128	C	0.718090	1.273530	-0.295076
C129	C	0.721208	1.357552	-0.358806
C130	C	0.685639	1.399578	-0.427796
C131	C	0.646953	1.357570	-0.433056
C132	C	0.643839	1.273544	-0.369327
H133	H	0.720302	0.517832	-0.086594
O134	O	0.497186	1.232680	-0.374310
C135	C	0.546168	1.149477	-0.303274
H136	H	0.523079	1.163242	-0.263591
H137	H	0.593155	1.156324	-0.304209
H138	H	0.561880	1.061586	-0.284580
H139	H	0.486901	1.239312	0.021324
H140	H	0.845825	0.517862	-0.086610
H141	H	1.069781	0.289176	0.414390
H142	H	0.352154	1.239351	-0.113368
H143	H	1.084911	0.365430	0.289214
O144	O	0.688790	1.481099	-0.489644
C145	C	0.757499	1.440015	-0.488012
H146	H	0.793155	1.368527	-0.428753
H147	H	0.767197	1.511773	-0.512966
H148	H	0.767707	1.406525	-0.520996
O149	O	0.600636	1.081435	-0.738348
C150	C	0.548771	1.087585	-0.705744
H151	H	0.532814	1.029188	-0.700797
H152	H	0.502575	1.178609	-0.741271
H153	H	0.568983	1.059933	-0.648800
H154	H	0.247860	1.391817	-0.119018
O155	O	0.835637	0.524245	0.309294
C156	C	0.840617	0.469143	0.383855
H157	H	0.891561	0.383983	0.419330
H158	H	0.796619	0.454634	0.392858
H159	H	0.837696	0.524252	0.399670
O160	O	0.758873	0.398232	-0.125110
C161	C	0.789569	0.343157	-0.155846
H162	H	0.793765	0.257981	-0.123574
H163	H	0.842949	0.328683	-0.153313
H164	H	0.756816	0.398268	-0.215503
H165	H	0.726744	0.691862	-0.218587
O166	O	0.384052	1.398197	0.021328
C167	C	0.454528	1.343084	0.056121
H168	H	0.483679	1.257917	0.066623
H169	H	0.462457	1.328589	0.110582
H170	H	0.474436	1.398179	0.019296
O171	O	0.752656	0.232572	-0.118888
C172	C	0.741599	0.149416	-0.107860
H173	H	0.726574	0.112665	-0.056367
H174	H	0.790641	0.078723	-0.100983
H175	H	0.698644	0.189616	-0.157313
O176	O	0.612416	1.398567	-0.500135
C177	C	0.623477	1.481720	-0.555247
H178	H	0.638525	1.518441	-0.532971
H179	H	0.574430	1.552434	-0.604615
H180	H	0.666417	1.441525	-0.572720
O181	O	0.574047	0.358572	0.059984
C182	C	0.599584	0.309973	0.134235
H183	H	0.655207	0.284863	0.148254
H184	H	0.596657	0.231430	0.170743
H185	H	0.567538	0.374326	0.143749
O186	O	1.078647	0.275834	-0.010230
C187	C	1.074910	0.178646	0.022870
H188	H	1.040652	0.178749	0.058386
H189	H	1.128510	0.099210	0.058544
H190	H	1.052549	0.179388	-0.021554
H191	H	0.980576	0.517848	0.173614
H192	H	0.747055	1.239325	-0.238906
O193	O	1.095180	0.358747	0.059906
C194	C	1.101170	0.310093	0.134172
H195	H	1.048019	0.348071	0.138839
H196	H	1.133762	0.328476	0.156243
H197	H	1.126573	0.214392	0.167487
H198	H	0.612335	1.239358	-0.373621
H199	H	0.612434	0.239306	0.021320
H200	H	-0.012986	0.691871	0.041627
H201	H	0.585639	0.517834	0.048092
H202	H	0.352149	1.239314	-0.238892
H203	H	0.466562	0.691859	0.041629
H204	H	0.356597	0.691863	0.041634
H205	H	0.382434	1.391832	-0.489228
O206	O	0.237427	1.398351	-0.353758
C207	C	0.199372	1.377807	-0.385824
H208	H	0.222108	1.367375	-0.426760
H209	H	0.143801	1.452441	-0.415492
H210	H	0.201434	1.296996	-0.341151
H211	H	0.262947	1.468039	-0.479669
H212	H	0.235745	1.065292	-0.106902
O213	O	0.345124	1.081570	-0.113395
C214	C	0.275980	1.172407	-0.149514
H215	H	0.242530	1.142241	-0.155745
H216	H	0.270196	1.244385	-0.206103
H217	H	0.259304	1.204049	-0.115901
H218	H	0.096980	0.691865	0.041634
H219	H	0.263090	1.468021	-0.054499
O220	O	0.758790	1.398268	-0.353558
C221	C	0.789518	1.343142	-0.278997
H222	H	0.759118	1.308522	-0.245399
H223	H	0.789858	1.406176	-0.272883
H224	H	0.844426	1.270156	-0.258418
H225	H	-0.133840	1.065304	-0.106923
O226	O	0.720287	0.358721	0.434841
C227	C	0.709271	0.275530	0.489985
H228	H	0.659643	0.289322	0.465866
H229	H	0.705292	0.282364	0.536469
H230	H	0.753968	0.187635	0.512210
H231	H	-0.023873	1.065304	-0.106920
H232	H	0.605870	1.065303	-0.367144
O233	O	0.600608	1.081568	-0.488255
C234	C	0.571212	1.172408	-0.484646
H235	H	0.562737	1.142241	-0.429443
H236	H	0.519962	1.244378	-0.530802
H237	H	0.607163	1.204063	-0.490775
H238	H	0.726761	0.691871	-0.328561
H239	H	0.605996	1.065292	-0.846684
H240	H	0.720389	0.517842	0.308316
O241	O	0.732027	0.675783	-0.696590
C242	C	0.724847	0.697847	-0.765366
H243	H	0.677965	0.786271	-0.808810
H244	H	0.718175	0.632086	-0.762228
H245	H	0.772595	0.693025	-0.780676
O246	O	0.731956	0.675657	-0.576988
C247	C	0.702354	0.613046	-0.566932
H248	H	0.648012	0.673271	-0.607564
H249	H	0.700711	0.566357	-0.508507
H250	H	0.734402	0.548882	-0.576591
H251	H	0.950109	0.365437	-0.080970
O252	O	0.949073	0.358779	0.434828
C253	C	0.982677	0.379335	0.471337
H254	H	1.024352	0.389831	0.447781
H255	H	1.006854	0.304679	0.532439
H256	H	0.943997	0.460115	0.463316
O257	O	0.981797	0.524388	0.053736
C258	C	0.948232	0.503803	0.106617
H259	H	0.906520	0.493368	0.091397
H260	H	0.924106	0.578417	0.108366
H261	H	0.986927	0.422981	0.162847
O262	O	0.644002	0.275993	0.424387
C263	C	0.602253	0.247873	0.404983
H264	H	0.565718	0.321560	0.346299
H265	H	0.571410	0.230408	0.443938
H266	H	0.635870	0.168915	0.409019
O267	O	0.573862	0.358927	0.288437
C268	C	0.504724	0.448574	0.247707
H269	H	0.494220	0.520024	0.250089
H270	H	0.469977	0.416495	0.271945
H271	H	0.494068	0.481695	0.188153
H272	H	0.585668	0.517804	0.173654
