data_functionalizedCrystal
_audit_creation_method	'MofGen! by Chris Wilmer'
_symmetry_space_group_name_H-M	'P1'
_symmetry_Int_Tables_number	1
_symmetry_cell_setting	triclinic
loop_
_symmetry_equiv_pos_as_xyz
  x,y,z
_cell_length_a	21.395362
_cell_length_b	19.805405
_cell_length_c	21.395355
_cell_angle_alpha	89.980090
_cell_angle_beta	89.956060
_cell_angle_gamma	90.042288
loop_
_atom_site_label
_atom_site_type_symbol
_atom_site_fract_x
_atom_site_fract_y
_atom_site_fract_z
Zn1	Zn	0.957878	-0.269255	-0.354580
Zn2	Zn	1.207878	-0.019255	-0.104580
Zn3	Zn	1.457878	0.230745	0.145420
Zn4	Zn	1.707878	0.480745	0.395420
Zn5	Zn	0.957789	-0.382425	-0.249800
Zn6	Zn	1.207789	-0.132425	0.000200
Zn7	Zn	1.457789	0.117575	0.250200
Zn8	Zn	1.707789	0.367575	0.500200
Zn9	Zn	0.853093	-0.269286	-0.249781
Zn10	Zn	1.103093	-0.019286	0.000219
Zn11	Zn	1.353093	0.230714	0.250219
Zn12	Zn	1.603093	0.480714	0.500219
Zn13	Zn	0.853070	-0.382438	-0.354504
Zn14	Zn	1.103070	-0.132438	-0.104504
Zn15	Zn	1.353070	0.117562	0.145496
Zn16	Zn	1.603070	0.367562	0.395496
O17	O	0.905458	-0.325851	-0.302166
O18	O	1.155458	-0.075851	-0.052166
O19	O	1.405458	0.174149	0.197834
O20	O	1.655458	0.424149	0.447834
O21	O	1.045544	-0.284248	-0.340720
O22	O	1.295544	-0.034248	-0.090720
O23	O	1.545544	0.215752	0.159280
O24	O	1.795544	0.465752	0.409280
O25	O	0.943873	-0.367424	-0.162119
O26	O	1.193873	-0.117424	0.087881
O27	O	1.443873	0.132576	0.337881
O28	O	1.693873	0.382576	0.587881
O29	O	0.867040	-0.174565	-0.263706
O30	O	1.117040	0.075435	-0.013706
O31	O	1.367040	0.325435	0.236294
O32	O	1.617040	0.575435	0.486294
O33	O	1.045478	-0.367393	-0.263738
O34	O	1.295478	-0.117393	-0.013738
O35	O	1.545478	0.132607	0.236262
O36	O	1.795478	0.382607	0.486262
O37	O	0.944025	-0.174542	-0.340701
O38	O	1.194025	0.075458	-0.090701
O39	O	1.444025	0.325458	0.159299
O40	O	1.694025	0.575458	0.409299
O41	O	0.866953	-0.284302	-0.162105
O42	O	1.116953	-0.034302	0.087895
O43	O	1.366953	0.215698	0.337895
O44	O	1.616953	0.465698	0.587895
O45	O	0.765412	-0.284315	-0.263633
O46	O	1.015412	-0.034315	-0.013633
O47	O	1.265412	0.215685	0.236367
O48	O	1.515412	0.465685	0.486367
O49	O	0.867001	-0.367417	-0.442192
O50	O	1.117001	-0.117417	-0.192192
O51	O	1.367001	0.132583	0.057808
O52	O	1.617001	0.382583	0.307808
O53	O	0.765395	-0.367448	-0.340573
O54	O	1.015395	-0.117448	-0.090573
O55	O	1.265395	0.132552	0.159427
O56	O	1.515395	0.382552	0.409427
O57	O	0.944003	-0.284261	-0.442247
O58	O	1.194003	-0.034261	-0.192247
O59	O	1.444003	0.215739	0.057753
O60	O	1.694003	0.465739	0.307753
O61	O	0.943850	-0.477143	-0.263665
O62	O	1.193850	-0.227143	-0.013665
O63	O	1.443850	0.022857	0.236335
O64	O	1.693850	0.272857	0.486335
O65	O	0.866914	-0.477153	-0.340591
O66	O	1.116914	-0.227153	-0.090591
O67	O	1.366914	0.022847	0.159409
O68	O	1.616914	0.272847	0.409409
C69	C	0.742670	-0.325887	-0.302093
C70	C	0.992670	-0.075887	-0.052093
C71	C	1.242670	0.174113	0.197907
C72	C	1.492670	0.424113	0.447907
C73	C	0.673029	-0.325918	-0.302077
C74	C	0.923029	-0.075918	-0.052077
C75	C	1.173029	0.174082	0.197923
C76	C	1.423029	0.424082	0.447923
C77	C	0.640323	-0.369263	-0.342080
C78	C	0.890323	-0.119263	-0.092080
C79	C	1.140323	0.130737	0.157920
C80	C	1.390323	0.380737	0.407920
C81	C	0.574888	-0.369246	-0.342108
C82	C	0.824888	-0.119246	-0.092108
C83	C	1.074888	0.130754	0.157892
C84	C	1.324888	0.380754	0.407892
C85	C	0.542160	-0.325892	-0.302122
C86	C	0.792160	-0.075892	-0.052122
C87	C	1.042160	0.174108	0.197878
C88	C	1.292160	0.424108	0.447878
C89	C	0.574874	-0.282539	-0.262116
C90	C	0.824874	-0.032539	-0.012116
C91	C	1.074874	0.217461	0.237884
C92	C	1.324874	0.467461	0.487884
C93	C	0.640308	-0.282553	-0.262094
C94	C	0.890308	-0.032553	-0.012094
C95	C	1.140308	0.217447	0.237906
C96	C	1.390308	0.467447	0.487906
C97	C	0.438435	-0.320440	-0.245717
C98	C	0.688435	-0.070440	0.004283
C99	C	0.938435	0.179560	0.254283
C100	C	1.188435	0.429560	0.504283
C101	C	0.373002	-0.320431	-0.245738
C102	C	0.623002	-0.070431	0.004262
C103	C	0.873002	0.179569	0.254262
C104	C	1.123002	0.429569	0.504262
C105	C	0.340340	-0.325848	-0.302191
C106	C	0.590340	-0.075848	-0.052191
C107	C	0.840340	0.174152	0.197809
C108	C	1.090340	0.424152	0.447809
C109	C	0.373118	-0.331287	-0.358624
C110	C	0.623118	-0.081287	-0.108624
C111	C	0.873118	0.168713	0.141376
C112	C	1.123118	0.418713	0.391376
C113	C	0.438552	-0.331301	-0.358602
C114	C	0.688552	-0.081301	-0.108602
C115	C	0.938552	0.168699	0.141398
C116	C	1.188552	0.418699	0.391398
C117	C	0.471208	-0.325873	-0.302142
C118	C	0.721208	-0.075873	-0.052142
C119	C	0.971208	0.174127	0.197858
C120	C	1.221208	0.424127	0.447858
C121	C	0.236682	-0.369177	-0.342227
C122	C	0.486682	-0.119177	-0.092227
C123	C	0.736682	0.130823	0.157773
C124	C	0.986682	0.380823	0.407773
C125	C	0.171245	-0.369156	-0.342256
C126	C	0.421245	-0.119156	-0.092256
C127	C	0.671245	0.130844	0.157744
C128	C	0.921245	0.380844	0.407744
C129	C	0.171232	-0.282452	-0.262259
C130	C	0.421232	-0.032452	-0.012259
C131	C	0.671232	0.217548	0.237741
C132	C	0.921232	0.467548	0.487741
C133	C	0.236668	-0.282470	-0.262236
C134	C	0.486668	-0.032470	-0.012236
C135	C	0.736668	0.217530	0.237764
C136	C	0.986668	0.467530	0.487764
C137	C	0.269388	-0.325836	-0.302219
C138	C	0.519388	-0.075836	-0.052219
C139	C	0.769388	0.174164	0.197781
C140	C	1.019388	0.424164	0.447781
C141	C	0.905387	-0.501707	-0.302136
C142	C	1.155387	-0.251707	-0.052136
C143	C	1.405387	-0.001707	0.197864
C144	C	1.655387	0.248293	0.447864
C145	C	0.905414	-0.576939	-0.302144
C146	C	1.155414	-0.326939	-0.052144
C147	C	1.405414	-0.076939	0.197856
C148	C	1.655414	0.173061	0.447856
C149	C	0.945514	-0.612255	-0.262130
C150	C	1.195514	-0.362255	-0.012130
C151	C	1.445514	-0.112255	0.237870
C152	C	1.695514	0.137745	0.487870
C153	C	0.945540	-0.682944	-0.262144
C154	C	1.195540	-0.432944	-0.012144
C155	C	1.445540	-0.182944	0.237856
C156	C	1.695540	0.067056	0.487856
C157	C	0.905464	-0.718315	-0.302169
C158	C	1.155464	-0.468315	-0.052169
C159	C	1.405464	-0.218315	0.197831
C160	C	1.655464	0.031685	0.447831
C161	C	0.865362	-0.682993	-0.342187
C162	C	1.115362	-0.432993	-0.092187
C163	C	1.365362	-0.182993	0.157813
C164	C	1.615362	0.067007	0.407813
C165	C	0.865339	-0.612306	-0.342175
C166	C	1.115339	-0.362306	-0.092175
C167	C	1.365339	-0.112306	0.157825
C168	C	1.615339	0.137694	0.407825
C169	C	0.865455	-0.968067	-0.342233
C170	C	1.115455	-0.718067	-0.092233
C171	C	1.365455	-0.468067	0.157767
C172	C	1.615455	-0.218067	0.407767
C173	C	0.865480	-1.038759	-0.342240
C174	C	1.115480	-0.788759	-0.092240
C175	C	1.365480	-0.538759	0.157760
C176	C	1.615480	-0.288759	0.407760
C177	C	0.945656	-1.038704	-0.262202
C178	C	1.195656	-0.788704	-0.012202
C179	C	1.445656	-0.538704	0.237798
C180	C	1.695656	-0.288704	0.487798
C181	C	0.945633	-0.968017	-0.262191
C182	C	1.195633	-0.718017	-0.012191
C183	C	1.445633	-0.468017	0.237809
C184	C	1.695633	-0.218017	0.487809
C185	C	0.905534	-0.932702	-0.302210
C186	C	1.155534	-0.682702	-0.052210
C187	C	1.405534	-0.432702	0.197790
C188	C	1.655534	-0.182702	0.447790
C189	C	0.905507	-0.856053	-0.302196
C190	C	1.155507	-0.606053	-0.052196
C191	C	1.405507	-0.356053	0.197804
C192	C	1.655507	-0.106053	0.447804
C193	C	0.905488	-0.794962	-0.302181
C194	C	1.155488	-0.544962	-0.052181
C195	C	1.405488	-0.294962	0.197819
C196	C	1.655488	-0.044962	0.447819
C197	C	1.068881	-0.325816	-0.302239
C198	C	1.318881	-0.075816	-0.052239
C199	C	1.568881	0.174184	0.197761
C200	C	1.818881	0.424184	0.447761
C201	C	1.138522	-0.325800	-0.302271
C202	C	1.388522	-0.075800	-0.052271
C203	C	1.638522	0.174200	0.197729
C204	C	1.888522	0.424200	0.447729
C205	C	0.905510	-0.325837	-0.465589
C206	C	1.155510	-0.075837	-0.215589
C207	C	1.405510	0.174163	0.034411
C208	C	1.655510	0.424163	0.284411
C209	C	0.905532	-0.325831	-0.535231
C210	C	1.155532	-0.075831	-0.285231
C211	C	1.405532	0.174169	-0.035231
C212	C	1.655532	0.424169	0.214769
C213	C	0.905545	-0.149308	-0.302210
C214	C	1.155545	0.100692	-0.052210
C215	C	1.405545	0.350692	0.197790
C216	C	1.655545	0.600692	0.447790
C217	C	0.905583	-0.074076	-0.302229
C218	C	1.155583	0.175924	-0.052229
C219	C	1.405583	0.425924	0.197771
C220	C	1.655583	0.675924	0.447771
C221	C	0.945625	-0.282530	-0.567974
C222	C	1.195625	-0.032530	-0.317974
C223	C	1.445625	0.217470	-0.067974
C224	C	1.695625	0.467470	0.182026
C225	C	0.945624	-0.282501	-0.633409
C226	C	1.195624	-0.032501	-0.383409
C227	C	1.445624	0.217499	-0.133409
C228	C	1.695624	0.467499	0.116591
C229	C	0.905537	-0.325785	-0.666099
C230	C	1.155537	-0.075785	-0.416099
C231	C	1.405537	0.174215	-0.166099
C232	C	1.655537	0.424215	0.083901
C233	C	0.865436	-0.369089	-0.633348
C234	C	1.115436	-0.119089	-0.383348
C235	C	1.365436	0.130911	-0.133348
C236	C	1.615436	0.380911	0.116652
C237	C	0.865433	-0.369112	-0.567914
C238	C	1.115433	-0.119112	-0.317914
C239	C	1.365433	0.130888	-0.067914
C240	C	1.615433	0.380888	0.182086
C241	C	0.900565	-0.386731	-0.769762
C242	C	1.150565	-0.136731	-0.519762
C243	C	1.400565	0.113269	-0.269762
C244	C	1.650565	0.363269	-0.019762
C245	C	0.900572	-0.386709	-0.835195
C246	C	1.150572	-0.136709	-0.585195
C247	C	1.400572	0.113291	-0.335195
C248	C	1.650572	0.363291	-0.085195
C249	C	0.905540	-0.325714	-0.867920
C250	C	1.155540	-0.075714	-0.617920
C251	C	1.405540	0.174286	-0.367920
C252	C	1.655540	0.424286	-0.117920
C253	C	0.910516	-0.264738	-0.835204
C254	C	1.160516	-0.014738	-0.585204
C255	C	1.410516	0.235262	-0.335204
C256	C	1.660516	0.485262	-0.085204
C257	C	0.910513	-0.264762	-0.769770
C258	C	1.160513	-0.014762	-0.519770
C259	C	1.410513	0.235238	-0.269770
C260	C	1.660513	0.485238	-0.019770
C261	C	0.905534	-0.325765	-0.737051
C262	C	1.155534	-0.075765	-0.487051
C263	C	1.405534	0.174235	-0.237051
C264	C	1.655534	0.424235	0.012949
C265	C	0.945635	-0.282378	-0.971615
C266	C	1.195635	-0.032378	-0.721615
C267	C	1.445635	0.217622	-0.471615
C268	C	1.695635	0.467622	-0.221615
C269	C	0.945630	-0.282347	-1.037052
C270	C	1.195630	-0.032347	-0.787052
C271	C	1.445630	0.217653	-0.537052
C272	C	1.695630	0.467653	-0.287052
C273	C	0.865444	-0.368941	-1.036990
C274	C	1.115444	-0.118941	-0.786990
C275	C	1.365444	0.131059	-0.536990
C276	C	1.615444	0.381059	-0.286990
C277	C	0.865446	-0.368966	-0.971555
C278	C	1.115446	-0.118966	-0.721555
C279	C	1.365446	0.131034	-0.471555
C280	C	1.615446	0.381034	-0.221555
C281	C	0.905545	-0.325685	-0.938871
C282	C	1.155545	-0.075685	-0.688871
C283	C	1.405545	0.174315	-0.438871
C284	C	1.655545	0.424315	-0.188871
C285	C	0.905442	-0.325816	-0.139378
C286	C	1.155442	-0.075816	0.110622
C287	C	1.405442	0.174184	0.360622
C288	C	1.655442	0.424184	0.610622
C289	C	0.905541	-0.325631	-0.069738
C290	C	1.155541	-0.075631	0.180262
C291	C	1.405541	0.174369	0.430262
C292	C	1.655541	0.424369	0.680262
H293	H	0.263297	-0.247178	-0.229658
H294	H	0.513297	0.002822	0.020342
H295	H	0.763297	0.252822	0.270342
H296	H	1.013297	0.502822	0.520342
N297	N	0.473662	-0.314600	-0.184824
N298	N	0.723662	-0.064600	0.065176
N299	N	0.973662	0.185400	0.315176
N300	N	1.223662	0.435400	0.565176
H301	H	0.500846	-0.272897	-0.185727
H302	H	0.750846	-0.022897	0.064273
H303	H	1.000846	0.227103	0.314273
H304	H	1.250846	0.477103	0.564273
H305	H	0.442930	-0.311187	-0.149112
H306	H	0.692930	-0.061187	0.100888
H307	H	0.942930	0.188813	0.350888
H308	H	1.192930	0.438813	0.600888
H309	H	0.144586	-0.247150	-0.229705
H310	H	0.394586	0.002850	0.020295
H311	H	0.644586	0.252850	0.270295
H312	H	0.894586	0.502850	0.520295
N313	N	0.915868	-0.198941	-0.870486
N314	N	1.165868	0.051059	-0.620486
N315	N	1.415868	0.301059	-0.370486
N316	N	1.665868	0.551059	-0.120486
H317	H	0.956428	-0.175904	-0.859130
H318	H	1.206428	0.074096	-0.609130
H319	H	1.456428	0.324096	-0.359130
H320	H	1.706428	0.574096	-0.109130
H321	H	0.915082	-0.208224	-0.916891
H322	H	1.165082	0.041776	-0.666891
H323	H	1.415082	0.291776	-0.416891
H324	H	1.665082	0.541776	-0.166891
H325	H	0.978308	-1.067466	-0.229618
H326	H	1.228308	-0.817466	0.020382
H327	H	1.478308	-0.567466	0.270382
H328	H	1.728308	-0.317466	0.520382
N329	N	0.337651	-0.314570	-0.184874
N330	N	0.587651	-0.064570	0.065126
N331	N	0.837651	0.185430	0.315126
N332	N	1.087651	0.435430	0.565126
H333	H	0.368270	-0.311132	-0.149109
H334	H	0.618270	-0.061132	0.100891
H335	H	0.868270	0.188868	0.350891
H336	H	1.118270	0.438868	0.600891
H337	H	0.310537	-0.272863	-0.185858
H338	H	0.560537	-0.022863	0.064142
H339	H	0.810537	0.227137	0.314142
H340	H	1.060537	0.477137	0.564142
N341	N	0.822208	-0.415625	-1.072245
N342	N	1.072208	-0.165625	-0.822245
N343	N	1.322208	0.084375	-0.572245
N344	N	1.572208	0.334375	-0.322245
H345	H	0.831914	-0.463988	-1.060865
H346	H	1.081914	-0.213988	-0.810865
H347	H	1.331914	0.036012	-0.560865
H348	H	1.581914	0.286012	-0.310865
H349	H	0.777463	-0.405068	-1.060811
H350	H	1.027463	-0.155068	-0.810811
H351	H	1.277463	0.094932	-0.560811
H352	H	1.527463	0.344932	-0.310811
N353	N	0.539580	-0.235787	-0.218980
N354	N	0.789580	0.014213	0.031020
N355	N	1.039580	0.264213	0.281020
N356	N	1.289580	0.514213	0.531020
H357	H	0.493164	-0.242360	-0.225059
H358	H	0.743164	0.007640	0.024941
H359	H	0.993164	0.257640	0.274941
H360	H	1.243164	0.507640	0.524941
H361	H	0.550966	-0.246262	-0.174215
H362	H	0.800966	0.003738	0.075785
H363	H	1.050966	0.253738	0.325785
H364	H	1.300966	0.503738	0.575785
N365	N	0.988879	-0.235697	-0.936358
N366	N	1.238879	0.014303	-0.686358
N367	N	1.488879	0.264303	-0.436358
N368	N	1.738879	0.514303	-0.186358
H369	H	1.014275	-0.208257	-0.967033
H370	H	1.264275	0.041743	-0.717033
H371	H	1.514275	0.291743	-0.467033
H372	H	1.764275	0.541743	-0.217033
H373	H	0.963391	-0.204391	-0.909188
H374	H	1.213391	0.045609	-0.659188
H375	H	1.463391	0.295609	-0.409188
H376	H	1.713391	0.545609	-0.159188
H377	H	0.832845	-1.067556	-0.374837
H378	H	1.082845	-0.817556	-0.124837
H379	H	1.332845	-0.567556	0.125163
H380	H	1.582845	-0.317556	0.375163
N381	N	0.473907	-0.337165	-0.419464
N382	N	0.723907	-0.087165	-0.169464
N383	N	0.973907	0.162835	0.080536
N384	N	1.223907	0.412835	0.330536
H385	H	0.443291	-0.340596	-0.455232
H386	H	0.693291	-0.090596	-0.205232
H387	H	0.943291	0.159404	0.044768
H388	H	1.193291	0.409404	0.294768
H389	H	0.501098	-0.295940	-0.425340
H390	H	0.751098	-0.045940	-0.175340
H391	H	1.001098	0.204060	0.074660
H392	H	1.251098	0.454060	0.324660
H393	H	0.978146	-0.583461	-0.229535
H394	H	1.228146	-0.333461	0.020465
H395	H	1.478146	-0.083461	0.270465
H396	H	1.728146	0.166539	0.520465
N397	N	0.822186	-0.415825	-0.532604
N398	N	1.072186	-0.165825	-0.282604
N399	N	1.322186	0.084175	-0.032604
N400	N	1.572186	0.334175	0.217396
H401	H	0.847630	-0.447199	-0.505475
H402	H	1.097630	-0.197199	-0.255475
H403	H	1.347630	0.052801	-0.005475
H404	H	1.597630	0.302801	0.244525
H405	H	0.793171	-0.388288	-0.505470
H406	H	1.043171	-0.138288	-0.255470
H407	H	1.293171	0.111712	-0.005470
H408	H	1.543171	0.361712	0.244530
H409	H	0.978276	-0.247287	-0.541367
H410	H	1.228276	0.002713	-0.291367
H411	H	1.478276	0.252713	-0.041367
H412	H	1.728276	0.502713	0.208633
H413	H	0.832734	-0.711798	-0.374778
H414	H	1.082734	-0.461798	-0.124778
H415	H	1.332734	-0.211798	0.125222
H416	H	1.582734	0.038202	0.375222
H417	H	0.978271	-0.247237	-0.660074
H418	H	1.228271	0.002763	-0.410074
H419	H	1.478271	0.252763	-0.160074
H420	H	1.728271	0.502763	0.089926
H421	H	0.832794	-0.404329	-0.659969
H422	H	1.082794	-0.154329	-0.409969
H423	H	1.332794	0.095671	-0.159969
H424	H	1.582794	0.345671	0.090031
N425	N	0.988864	-0.235630	-1.072371
N426	N	1.238864	0.014370	-0.822371
N427	N	1.488864	0.264370	-0.572371
N428	N	1.738864	0.514370	-0.322371
H429	H	1.014262	-0.208215	-1.041735
H430	H	1.264262	0.041785	-0.791735
H431	H	1.514262	0.291785	-0.541735
H432	H	1.764262	0.541785	-0.291735
H433	H	1.017846	-0.263159	-1.099548
H434	H	1.267846	-0.013159	-0.849548
H435	H	1.517846	0.236841	-0.599548
H436	H	1.767846	0.486841	-0.349548
N437	N	0.822202	-0.929982	-0.385390
N438	N	1.072202	-0.679982	-0.135390
N439	N	1.322202	-0.429982	0.114610
N440	N	1.572202	-0.179982	0.364610
H441	H	0.796815	-0.963117	-0.410742
H442	H	1.046815	-0.713117	-0.160742
H443	H	1.296815	-0.463117	0.089258
H444	H	1.546815	-0.213117	0.339258
H445	H	0.793211	-0.900703	-0.359842
H446	H	1.043211	-0.650703	-0.109842
H447	H	1.293211	-0.400703	0.140158
H448	H	1.543211	-0.150703	0.390158
H449	H	0.144617	-0.404451	-0.374835
H450	H	0.394617	-0.154451	-0.124835
H451	H	0.644617	0.095549	0.125165
H452	H	0.894617	0.345549	0.375165
H453	H	0.666936	-0.247254	-0.229519
H454	H	0.916936	0.002746	0.020481
H455	H	1.166936	0.252746	0.270481
H456	H	1.416936	0.502746	0.520481
H457	H	0.978265	-0.939220	-0.229597
H458	H	1.228265	-0.689220	0.020403
H459	H	1.478265	-0.439220	0.270403
H460	H	1.728265	-0.189220	0.520403
N461	N	0.988790	-0.721032	-0.218984
N462	N	1.238790	-0.471032	0.031016
N463	N	1.488790	-0.221032	0.281016
N464	N	1.738790	0.028968	0.531016
H465	H	0.963351	-0.750409	-0.189924
H466	H	1.213351	-0.500409	0.060076
H467	H	1.463351	-0.250409	0.310076
H468	H	1.713351	-0.000409	0.560076
H469	H	1.017817	-0.750270	-0.244531
H470	H	1.267817	-0.500270	0.005469
H471	H	1.517817	-0.250270	0.255469
H472	H	1.767817	-0.000270	0.505469
H473	H	0.832687	-0.583552	-0.374759
H474	H	1.082687	-0.333552	-0.124759
H475	H	1.332687	-0.083552	0.125241
H476	H	1.582687	0.166448	0.375241
H477	H	0.832802	-0.404230	-0.944895
H478	H	1.082802	-0.154230	-0.694895
H479	H	1.332802	0.095770	-0.444895
H480	H	1.582802	0.345770	-0.194895
H481	H	0.914562	-0.215113	-0.743136
H482	H	1.164562	0.034887	-0.493136
H483	H	1.414562	0.284887	-0.243136
H484	H	1.664562	0.534887	0.006864
H485	H	0.896524	-0.436359	-0.861827
H486	H	1.146524	-0.186359	-0.611827
H487	H	1.396524	0.063641	-0.361827
H488	H	1.646524	0.313641	-0.111827
N489	N	0.895214	-0.452524	-0.734468
N490	N	1.145214	-0.202524	-0.484468
N491	N	1.395214	0.047476	-0.234468
N492	N	1.645214	0.297476	0.015532
H493	H	0.892072	-0.491147	-0.765120
H494	H	1.142072	-0.241147	-0.515120
H495	H	1.392072	0.008853	-0.265120
H496	H	1.642072	0.258853	-0.015120
H497	H	0.933390	-0.458800	-0.707351
H498	H	1.183390	-0.208800	-0.457351
H499	H	1.433390	0.041200	-0.207351
H500	H	1.683390	0.291200	0.042649
H501	H	0.548254	-0.404542	-0.374685
H502	H	0.798254	-0.154542	-0.124685
H503	H	1.048254	0.095458	0.125315
H504	H	1.298254	0.345458	0.375315
N505	N	0.675615	-0.416034	-0.385202
N506	N	0.925615	-0.166034	-0.135202
N507	N	1.175615	0.083966	0.114798
N508	N	1.425615	0.333966	0.364798
H509	H	0.644962	-0.443490	-0.410549
H510	H	0.894962	-0.193490	-0.160549
H511	H	1.144962	0.056510	0.089451
H512	H	1.394962	0.306510	0.339451
H513	H	0.702819	-0.388536	-0.414237
H514	H	0.952819	-0.138536	-0.164237
H515	H	1.202819	0.111464	0.085763
H516	H	1.452819	0.361464	0.335763
H517	H	0.263324	-0.404485	-0.374787
H518	H	0.513324	-0.154485	-0.124787
H519	H	0.763324	0.095515	0.125213
H520	H	1.013324	0.345515	0.375213
N521	N	0.337900	-0.337134	-0.419519
N522	N	0.587900	-0.087134	-0.169519
N523	N	0.837900	0.162866	0.080481
N524	N	1.087900	0.412866	0.330481
H525	H	0.291474	-0.336298	-0.410973
H526	H	0.541474	-0.086298	-0.160973
H527	H	0.791474	0.163702	0.089027
H528	H	1.041474	0.413702	0.339027
H529	H	0.349405	-0.298041	-0.447592
H530	H	0.599405	-0.048041	-0.197592
H531	H	0.849405	0.201959	0.052408
H532	H	1.099405	0.451959	0.302408
