data_functionalizedCrystal
_audit_creation_method	'MofGen! by Chris Wilmer'
_symmetry_space_group_name_H-M	'P1'
_symmetry_Int_Tables_number	1
_symmetry_cell_setting	triclinic
loop_
_symmetry_equiv_pos_as_xyz
  x,y,z
_cell_length_a	19.077241
_cell_length_b	19.077391
_cell_length_c	19.076919
_cell_angle_alpha	90.062674
_cell_angle_beta	89.886096
_cell_angle_gamma	89.931720
loop_
_atom_site_label
_atom_site_type_symbol
_atom_site_fract_x
_atom_site_fract_y
_atom_site_fract_z
Zn1	Zn	-1.068885	0.254683	0.430754
Zn2	Zn	-0.568885	0.754683	0.930754
Zn3	Zn	-1.078201	0.367113	0.308916
Zn4	Zn	-0.578201	0.867113	0.808916
Zn5	Zn	-0.956085	0.254314	0.308545
Zn6	Zn	-0.456085	0.754314	0.808545
Zn7	Zn	-0.956410	0.376470	0.421291
Zn8	Zn	-0.456410	0.876470	0.921291
O9	O	-1.014895	0.313145	0.367376
O10	O	-0.514895	0.813145	0.867376
O11	O	-1.168298	0.265836	0.418707
O12	O	-0.668298	0.765836	0.918707
O13	O	-1.065765	0.348079	0.210693
O14	O	-0.565765	0.848079	0.710693
O15	O	-0.967013	0.156188	0.328562
O16	O	-0.467013	0.656188	0.828562
O17	O	-1.175143	0.348437	0.329193
O18	O	-0.675143	0.848437	0.829193
O19	O	-1.049886	0.156460	0.418348
O20	O	-0.549886	0.656460	0.918348
O21	O	-0.976047	0.265206	0.210421
O22	O	-0.476047	0.765206	0.710421
O23	O	-0.857951	0.274280	0.319386
O24	O	-0.357951	0.774280	0.819386
O25	O	-0.967567	0.364386	0.520720
O26	O	-0.467567	0.864386	1.020720
O27	O	-0.858190	0.364027	0.402220
O28	O	-0.358190	0.864027	0.902220
O29	O	-1.050202	0.274910	0.527672
O30	O	-0.550202	0.774910	1.027672
O31	O	-1.066081	0.466529	0.320018
O32	O	-0.566081	0.966529	0.820018
O33	O	-0.976601	0.473404	0.402579
O34	O	-0.476601	0.973404	0.902579
C35	C	-0.832614	0.320129	0.359736
C36	C	-0.332614	0.820129	0.859736
C37	C	-0.754633	0.323135	0.356484
C38	C	-0.254633	0.823135	0.856484
C39	C	-0.714435	0.281615	0.401626
C40	C	-0.214435	0.781615	0.901626
C41	C	-0.641164	0.284435	0.398564
C42	C	-0.141164	0.784435	0.898564
C43	C	-0.608093	0.328780	0.350363
C44	C	-0.108093	0.828780	0.850363
C45	C	-0.648296	0.370301	0.305215
C46	C	-0.148296	0.870301	0.805215
C47	C	-0.721566	0.367477	0.308274
C48	C	-0.221566	0.867477	0.808274
C49	C	-0.389342	0.341827	0.336206
C50	C	0.110658	0.841827	0.836206
C51	C	-0.316067	0.344650	0.333151
C52	C	0.183933	0.844650	0.833151
C53	C	-0.308940	0.258783	0.426500
C54	C	0.191060	0.758783	0.926500
C55	C	-0.382211	0.255965	0.429558
C56	C	0.117789	0.755965	0.929558
C57	C	-0.422409	0.297484	0.384408
C58	C	0.077591	0.797484	0.884408
N59	N	-0.533198	0.331665	0.347233
N60	N	-0.033198	0.831665	0.847233
N61	N	-0.497302	0.294594	0.387535
N62	N	0.002698	0.794594	0.887535
C63	C	-1.022406	0.495422	0.360328
C64	C	-0.522406	0.995422	0.860328
C65	C	-1.025682	0.573399	0.357338
C66	C	-0.525682	1.073399	0.857338
C67	C	-0.197888	0.306130	0.375042
C68	C	0.302112	0.806130	0.875042
C69	C	-0.275869	0.303130	0.378294
C70	C	0.224131	0.803130	0.878294
C71	C	-0.980604	0.613638	0.398881
C72	C	-0.480604	1.113638	0.898881
C73	C	-0.983686	0.686905	0.396069
C74	C	-0.483686	1.186905	0.896069
C75	C	-1.031849	0.719933	0.351718
C76	C	-0.531849	1.219933	0.851718
C77	C	-1.076928	0.679689	0.310171
C78	C	-0.576928	1.179689	0.810171
C79	C	-1.073843	0.606423	0.312980
C80	C	-0.573843	1.106423	0.812980
C81	C	-1.046072	0.938669	0.338711
C82	C	-0.546072	1.438669	0.838711
C83	C	-1.049156	1.011941	0.335907
C84	C	-0.549156	1.511941	0.835907
C85	C	-0.955912	1.019152	0.421805
C86	C	-0.455912	1.519152	0.921805
C87	C	-0.952834	0.945884	0.424612
C88	C	-0.452834	1.445884	0.924612
C89	C	-0.997911	0.905646	0.383062
C90	C	-0.497911	1.405646	0.883062
N91	N	-1.035001	0.794824	0.348845
N92	N	-0.535001	1.294824	0.848845
N93	N	-0.994755	0.830757	0.385932
N94	N	-0.494755	1.330757	0.885932
C95	C	-1.007881	0.320733	0.550363
C96	C	-0.507881	0.820733	1.050363
C97	C	-1.004892	0.323966	0.628341
C98	C	-0.504892	0.823966	1.128341
C99	C	-1.007351	1.130157	0.374459
C100	C	-0.507351	1.630157	0.874459
C101	C	-1.004078	1.052180	0.377450
C102	C	-0.504078	1.552180	0.877450
C103	C	-1.021920	0.305535	0.185105
C104	C	-0.521920	0.805535	0.685105
C105	C	-1.025037	0.302098	0.107141
C106	C	-0.525037	0.802098	0.607141
C107	C	-1.046509	0.278902	0.668596
C108	C	-0.546509	0.778902	1.168596
C109	C	-1.043692	0.281938	0.741865
C110	C	-0.543692	0.781938	1.241865
C111	C	-0.999261	0.330042	0.774877
C112	C	-0.499261	0.830042	1.274877
C113	C	-0.957640	0.375108	0.734617
C114	C	-0.457640	0.875108	1.234617
C115	C	-0.960454	0.372068	0.661350
C116	C	-0.460454	0.872068	1.161350
C117	C	-0.986229	0.344125	0.993613
C118	C	-0.486229	0.844125	1.493613
C119	C	-0.983420	0.347163	1.066886
C120	C	-0.483420	0.847163	1.566886
C121	C	-1.069472	0.253991	1.074129
C122	C	-0.569472	0.753991	1.574129
C123	C	-1.072285	0.250959	1.000860
C124	C	-0.572285	0.750959	1.500860
C125	C	-1.030660	0.296022	0.960606
C126	C	-0.530660	0.796022	1.460606
N127	N	-0.996382	0.333147	0.849769
N128	N	-0.496382	0.833147	1.349769
N129	N	-1.033536	0.292913	0.885716
N130	N	-0.533536	0.792913	1.385716
H131	H	-0.422062	0.375635	0.299442
H132	H	0.077938	0.875635	0.799442
H133	H	-1.077583	0.245243	0.774637
H134	H	-0.577583	0.745243	1.274637
O135	O	-1.115458	0.204165	0.968906
O136	O	-0.615458	0.704165	1.468906
C137	C	-1.151601	0.165052	1.020149
C138	C	-0.651601	0.665052	1.520149
H139	H	-1.120760	0.165889	1.071264
H140	H	-0.620760	0.665889	1.571264
H141	H	-1.157627	0.108612	1.001436
H142	H	-0.657627	0.608612	1.501436
H143	H	-1.205641	0.189026	1.029182
H144	H	-0.705641	0.689026	1.529182
H145	H	-0.947237	0.386336	1.093762
H146	H	-0.447237	0.886336	1.593762
O147	O	-1.095968	1.044085	0.292892
O148	O	-0.595968	1.544085	0.792892
C149	C	-1.141495	1.086373	0.333101
C150	C	-0.641495	1.586373	0.833101
H151	H	-1.142816	1.066386	0.389381
H152	H	-0.642816	1.566386	0.889381
H153	H	-1.196488	1.084092	0.309943
H154	H	-0.696488	1.584092	0.809943
H155	H	-1.121998	1.142835	0.332493
H156	H	-0.621998	1.642835	0.832493
H157	H	-0.276204	0.224980	0.463258
H158	H	0.223796	0.724980	0.963258
H159	H	-0.621364	0.406404	0.265965
H160	H	-0.121364	0.906404	0.765965
O161	O	-1.109829	0.210244	1.113337
O162	O	-0.609829	0.710244	1.613337
C163	C	-1.097833	0.223251	1.185083
C164	C	-0.597833	0.723251	1.685083
H165	H	-1.044252	0.248719	1.191927
H166	H	-0.544252	0.748719	1.691927
H167	H	-1.099361	0.171672	1.215164
H168	H	-0.599361	0.671672	1.715164
H169	H	-1.140187	0.259876	1.206175
H170	H	-0.640187	0.759876	1.706175
O171	O	-1.117659	0.567259	0.272728
O172	O	-0.617659	1.067259	0.772728
C173	C	-1.159634	0.524750	0.316228
C174	C	-0.659634	1.024750	0.816228
H175	H	-1.132350	0.516931	0.368757
H176	H	-0.632350	1.016931	0.868757
H177	H	-1.167983	0.471686	0.290027
H178	H	-0.667983	0.971686	0.790027
H179	H	-1.212510	0.551259	0.325076
H180	H	-0.712510	1.051259	0.825076
H181	H	-1.082777	0.905913	0.304881
H182	H	-0.582777	1.405913	0.804881
H183	H	-0.913616	0.918995	0.460726
H184	H	-0.413616	1.418995	0.960726
O185	O	-1.089748	0.232268	0.636498
O186	O	-0.589748	0.732268	1.136498
C187	C	-1.138321	0.268710	0.594456
C188	C	-0.638321	0.768710	1.094456
H189	H	-1.144083	0.324715	0.614574
H190	H	-0.644083	0.824715	1.114574
H191	H	-1.191300	0.241229	0.596875
H192	H	-0.691300	0.741229	1.096875
H193	H	-1.118860	0.269655	0.537924
H194	H	-0.618860	0.769655	1.037924
H195	H	-0.409133	0.219858	0.468812
H196	H	0.090867	0.719858	0.968812
O197	O	-1.123683	0.711882	0.267138
O198	O	-0.623683	1.211882	0.767138
C199	C	-1.116726	0.785178	0.273549
C200	C	-0.616726	1.285178	0.773549
H201	H	-1.092066	0.798316	0.326329
H202	H	-0.592066	1.298316	0.826329
H203	H	-1.170630	0.810765	0.269954
H204	H	-0.670630	1.310765	0.769954
H205	H	-1.081859	0.805721	0.229550
H206	H	-0.581859	1.305721	0.729550
O207	O	-0.284053	0.387744	0.286263
O208	O	0.215947	0.887744	0.786263
C209	C	-0.335242	0.423799	0.247080
C210	C	0.164758	0.923799	0.747080
H211	H	-0.386375	0.392947	0.247983
H212	H	0.113625	0.892947	0.747983
H213	H	-0.316481	0.429721	0.190625
H214	H	0.183519	0.929721	0.690625
H215	H	-0.344265	0.477882	0.270947
H216	H	0.155735	0.977882	0.770947
O217	O	-0.760512	0.407882	0.264396
O218	O	-0.260512	0.907882	0.764396
C219	C	-0.715613	0.447616	0.221185
C220	C	-0.215613	0.947616	0.721185
H221	H	-0.662390	0.453294	0.247640
H222	H	-0.162390	0.953294	0.747640
H223	H	-0.739356	0.501749	0.212358
H224	H	-0.239356	1.001749	0.712358
H225	H	-0.708787	0.419936	0.168615
H226	H	-0.208787	0.919936	0.668615
O227	O	-0.933759	0.581670	0.441983
O228	O	-0.433759	1.081670	0.941983
C229	C	-0.894647	0.632900	0.478059
C230	C	-0.394647	1.132900	0.978059
H231	H	-0.895540	0.684040	0.447216
H232	H	-0.395540	1.184040	0.947216
H233	H	-0.838190	0.614211	0.483995
H234	H	-0.338190	1.114211	0.983995
H235	H	-0.918581	0.641876	0.532138
H236	H	-0.418581	1.141876	1.032138
H237	H	-0.919213	1.051921	0.455631
H238	H	-0.419213	1.551921	0.955631
O239	O	-0.602149	0.244181	0.442518
O240	O	-0.102149	0.744181	0.942518
C241	C	-0.618038	0.261823	0.512564
C242	C	-0.118038	0.761823	1.012564
H243	H	-0.640359	0.317244	0.514684
H244	H	-0.140359	0.817244	1.014684
H245	H	-0.568284	0.259126	0.545456
H246	H	-0.068284	0.759126	1.045456
H247	H	-0.658317	0.223367	0.534193
H248	H	-0.158317	0.723367	1.034193
O249	O	-0.940000	0.726065	0.436465
O250	O	-0.440000	1.226065	0.936465
C251	C	-0.979954	0.768725	0.481870
C252	C	-0.479954	1.268725	0.981870
H253	H	-1.034545	0.776599	0.458974
H254	H	-0.534545	1.276599	0.958974
H255	H	-0.953178	0.821753	0.488082
H256	H	-0.453178	1.321753	0.988082
H257	H	-0.984446	0.742320	0.535269
H258	H	-0.484446	1.242320	1.035269
O259	O	-0.945764	0.387961	0.954622
O260	O	-0.445764	0.887961	1.454622
C261	C	-0.905930	0.431053	0.999473
C262	C	-0.405930	0.931053	1.499473
H263	H	-0.932771	0.434562	1.052807
H264	H	-0.432771	0.934562	1.552807
H265	H	-0.901508	0.485733	0.975842
H266	H	-0.401508	0.985733	1.475842
H267	H	-0.851300	0.407710	1.006040
H268	H	-0.351300	0.907710	1.506040
H269	H	-0.921460	0.414273	0.761501
H270	H	-0.421460	0.914273	1.261501
O271	O	-0.920114	0.415947	0.622270
O272	O	-0.420114	0.915947	1.122270
C273	C	-0.937627	0.486024	0.638118
C274	C	-0.437627	0.986024	1.138118
H275	H	-0.993044	0.488249	0.660483
H276	H	-0.493044	0.988249	1.160483
H277	H	-0.934869	0.518915	0.588336
H278	H	-0.434869	1.018915	1.088336
H279	H	-0.899131	0.507574	0.678351
H280	H	-0.399131	1.007574	1.178351
O281	O	-0.746591	0.238641	0.448523
O282	O	-0.246591	0.738641	0.948523
C283	C	-0.788913	0.278893	0.493982
C284	C	-0.288913	0.778893	0.993982
H285	H	-0.768955	0.335182	0.495167
H286	H	-0.268955	0.835182	0.995167
H287	H	-0.786637	0.255811	0.549027
H288	H	-0.286637	0.755811	1.049027
H289	H	-0.845369	0.278236	0.474514
H290	H	-0.345369	0.778236	0.974514
