data_functionalizedCrystal
_audit_creation_method	'MofGen! by Chris Wilmer'
_symmetry_space_group_name_H-M	'P1'
_symmetry_Int_Tables_number	1
_symmetry_cell_setting	triclinic
loop_
_symmetry_equiv_pos_as_xyz
  x,y,z
_cell_length_a	10.654583
_cell_length_b	14.185569
_cell_length_c	10.654559
_cell_angle_alpha	76.714598
_cell_angle_beta	84.493538
_cell_angle_gamma	103.280396
loop_
_atom_site_label
_atom_site_type_symbol
_atom_site_fract_x
_atom_site_fract_y
_atom_site_fract_z
O1	O	-1.639538	0.083550	-0.204865
O2	O	-1.274075	0.083523	-0.221618
O3	O	-1.465206	0.083529	-0.030502
O4	O	-1.448407	0.083543	-0.395982
O5	O	-1.521668	-0.083303	0.025950
O6	O	-1.330536	-0.083310	-0.165167
O7	O	-1.696000	-0.083283	-0.148414
Cu8	Cu	-1.518424	-0.098529	-0.151636
Cu9	Cu	-1.451651	0.098770	-0.218396
O10	O	-1.504869	-0.083289	-0.339530
C11	C	-1.255509	0.000103	-0.192152
C12	C	-1.116072	0.000093	-0.188440
C13	C	-1.081317	-0.090843	-0.155940
C14	C	-0.950292	-0.090831	-0.152469
C15	C	-0.888784	0.091059	-0.214006
C16	C	-1.019808	0.091046	-0.217468
C17	C	-1.116826	-0.195856	-0.120418
C18	C	-0.985801	-0.195844	-0.116947
N19	N	-1.565397	-0.237299	-0.104680
C20	C	-1.266679	-0.604959	-0.403245
C21	C	-1.302269	-0.709979	-0.367685
C22	C	-1.471551	-0.709935	-0.198515
C23	C	-1.435970	-0.604912	-0.234057
C24	C	-1.333534	-0.552433	-0.336424
C25	C	-1.502826	-0.552386	-0.167236
C26	C	-1.467252	-0.447372	-0.202780
C27	C	-1.364823	-0.394885	-0.305145
C28	C	-1.297961	-0.447419	-0.371968
C29	C	-1.605268	-0.604867	-0.064876
C30	C	-1.672124	-0.552341	0.001946
C31	C	-1.636544	-0.447325	-0.033592
C32	C	-1.534115	-0.394839	-0.135957
C33	C	-1.703407	-0.394792	0.033231
C34	C	-1.667833	-0.289778	-0.002313
C35	C	-1.498541	-0.289825	-0.171501
C36	C	-0.714570	0.000129	-0.177859
C37	C	-0.854022	0.000116	-0.181508
C38	C	-1.477872	0.000129	-0.414555
C39	C	-1.481567	0.000135	-0.554000
N40	N	-1.404687	0.237539	-0.265343
C41	C	-1.452518	0.091071	-0.650295
C42	C	-1.455992	0.091061	-0.781313
C43	C	-1.517559	-0.090829	-0.719728
C44	C	-1.514094	-0.090818	-0.588712
C45	C	-1.416967	0.196084	-0.685852
C46	C	-1.420441	0.196074	-0.816870
C47	C	-1.492201	0.000113	0.044522
C48	C	-1.488505	0.000114	0.183965
H49	H	-1.415119	-0.247094	-0.254849
H50	H	-1.544044	-0.164880	-0.748008
H51	H	-1.501004	0.228668	-0.857491
H52	H	-1.314348	0.228664	-0.667293
H53	H	-1.183256	-0.562228	-0.486594
Cl54	Cl	-1.529888	0.258351	-0.635495
Cl55	Cl	-1.265378	0.258298	-0.909384
H56	H	-1.335864	-0.309377	-0.334088
Cl57	Cl	-1.218209	-0.776005	-0.451708
Cl58	Cl	-1.550636	-0.205142	-0.467655
H59	H	-1.214538	-0.404688	-0.455316
H60	H	-1.048100	0.165095	-0.243912
H61	H	-1.176731	-0.236184	-0.019981
Cl62	Cl	-0.767763	0.205394	-0.250482
H63	H	-1.157429	-0.228434	-0.200991
H64	H	-1.786819	-0.437534	0.116571
Cl65	Cl	-1.751887	-0.223743	0.081691
H66	H	-0.967240	-0.228435	-0.014323
H67	H	-1.554959	-0.752675	-0.115170
Cl68	Cl	-0.935398	-0.258081	-0.229883
Cl69	Cl	-1.649990	-0.736886	-0.020202
H70	H	-1.755532	-0.595081	0.085291
