data_functionalizedCrystal
_audit_creation_method	'MofGen! by Chris Wilmer'
_symmetry_space_group_name_H-M	'P1'
_symmetry_Int_Tables_number	1
_symmetry_cell_setting	triclinic
loop_
_symmetry_equiv_pos_as_xyz
  x,y,z
_cell_length_a	13.339070
_cell_length_b	10.723024
_cell_length_c	9.198806
_cell_angle_alpha	90.003648
_cell_angle_beta	89.999439
_cell_angle_gamma	79.951418
loop_
_atom_site_label
_atom_site_type_symbol
_atom_site_fract_x
_atom_site_fract_y
_atom_site_fract_z
O1	O	0.142225	-1.704931	-0.120877
O2	O	0.155839	-1.346349	-0.120882
O3	O	0.001483	-1.484486	-0.120876
O4	O	0.296581	-1.566793	-0.120883
O5	O	0.001483	-1.484471	0.120909
O6	O	0.155839	-1.346333	0.120903
O7	O	0.142225	-1.704916	0.120908
Cu8	Cu	0.149032	-1.525623	0.142982
Cu9	Cu	0.149032	-1.525641	-0.142957
O10	O	0.296581	-1.566778	0.120902
C11	C	0.154848	-1.299509	0.000010
C12	C	0.151884	-1.159959	0.000008
C13	C	-0.036303	-1.470575	0.000015
C14	C	-0.148892	-1.429133	0.000008
C15	C	0.143216	-1.751755	0.000013
C16	C	0.146180	-1.891305	0.000005
C17	C	-0.511449	-1.751368	0.000013
C18	C	-0.405666	-1.790309	0.000027
C19	C	-0.341468	-1.700018	0.000022
C20	C	-0.383062	-1.570779	0.000003
C21	C	-0.488855	-1.531834	0.000001
C22	C	-0.318874	-1.480485	0.000010
C23	C	-0.360469	-1.351246	-0.000009
C24	C	-0.466252	-1.312308	-0.000013
C25	C	-0.530450	-1.402598	-0.000007
C26	C	-0.213081	-1.519430	0.000012
C27	C	-0.190487	-1.299897	0.000000
C28	C	-0.296270	-1.260956	-0.000014
C29	C	0.334367	-1.580689	0.000008
C30	C	0.446956	-1.622132	0.000005
N31	N	0.149031	-1.525619	0.344096
C32	C	0.238253	-1.113970	0.000005
C33	C	0.235192	-0.969739	0.000003
N34	N	0.149025	-1.525652	-0.344070
C35	C	0.083935	-1.583523	0.416296
C36	C	0.083932	-1.583541	0.583708
H37	H	-0.179225	-1.624656	0.000028
H38	H	-0.330152	-1.155727	-0.000028
H39	H	0.028204	-1.633121	0.645797
O40	O	-0.238733	-1.738058	-0.000039
C41	C	-0.099323	-1.914398	0.000058
C42	C	-0.215691	-1.871485	0.000103
H43	H	-0.080657	-2.022276	0.000204
H44	H	-0.065548	-1.876431	-0.101160
H45	H	-0.065611	-1.876239	0.101213
H46	H	-0.249490	-1.909629	-0.100984
H47	H	-0.249393	-1.909437	0.101388
H48	H	-0.371808	-1.895534	0.000044
H49	H	-0.616589	-1.370899	-0.000024
O50	O	-0.573707	-1.839180	-0.000173
C51	C	-0.625451	-2.014850	-0.125465
C52	C	-0.554866	-1.915481	-0.125419
H53	H	-0.610258	-2.076548	-0.226730
H54	H	-0.610217	-2.076716	-0.024343
H55	H	-0.708194	-1.964781	-0.125395
H56	H	-0.472099	-1.965444	-0.125541
H57	H	-0.570188	-1.853620	-0.226532
O58	O	0.323474	-0.922643	0.000192
C59	C	0.480286	-0.911384	0.125490
C60	C	0.380354	-0.964830	0.125441
H61	H	0.526292	-0.945449	0.226758
H62	H	0.526434	-0.945565	0.024371
H63	H	0.462075	-0.803483	0.125416
H64	H	0.398472	-1.072731	0.125567
H65	H	0.334235	-0.930551	0.226551
O66	O	0.215563	-1.466693	0.581720
C67	C	0.353813	-1.488583	0.409773
C68	C	0.278501	-1.555504	0.493711
H69	H	0.404732	-1.560362	0.338621
H70	H	0.309734	-1.410888	0.338425
H71	H	0.402775	-1.444960	0.490226
H72	H	0.229520	-1.599203	0.413363
H73	H	0.322642	-1.633134	0.565081
H74	H	-0.138216	-1.226374	0.000003
O75	O	0.017327	-1.642486	0.342226
C76	C	-0.158518	-1.654188	0.295324
C77	C	-0.083209	-1.587277	0.379287
H78	H	-0.239817	-1.609596	0.325280
H79	H	-0.146730	-1.643593	0.173500
H80	H	-0.144750	-1.758987	0.325108
H81	H	-0.096931	-1.482458	0.349624
H82	H	-0.095015	-1.597975	0.501090
H83	H	0.204755	-1.476053	0.406222
H84	H	-0.500114	-1.207074	-0.000017
H85	H	0.072237	-0.930908	-0.000002
H86	H	0.314464	-1.181375	0.000011
H87	H	0.075673	-1.092554	-0.000027
