data_functionalizedCrystal
_audit_creation_method	'MofGen! by Chris Wilmer'
_symmetry_space_group_name_H-M	'P1'
_symmetry_Int_Tables_number	1
_symmetry_cell_setting	triclinic
loop_
_symmetry_equiv_pos_as_xyz
  x,y,z
_cell_length_a	17.666332
_cell_length_b	8.559649
_cell_length_c	8.559649
_cell_angle_alpha	69.778664
_cell_angle_beta	89.994648
_cell_angle_gamma	89.990774
loop_
_atom_site_label
_atom_site_type_symbol
_atom_site_fract_x
_atom_site_fract_y
_atom_site_fract_z
O1	O	0.062936	-2.126892	0.055034
O2	O	0.062939	-1.651407	-0.028748
O3	O	0.062937	-1.931040	0.250885
O4	O	0.062939	-1.847259	-0.224599
O5	O	-0.062960	-1.930998	0.250893
O6	O	-0.062957	-1.651365	-0.028740
O7	O	-0.062960	-2.126850	0.055042
Cu8	Cu	-0.074454	-1.889104	0.013152
Cu9	Cu	0.074433	-1.889154	0.013142
O10	O	-0.062958	-1.847217	-0.224592
C11	C	-0.000009	-1.591077	-0.035093
C12	C	-0.000007	-1.411378	-0.053992
C13	C	-0.000010	-1.937369	0.311198
C14	C	-0.000006	-1.956268	0.490898
N15	N	-0.179174	-1.889081	0.013161
C16	C	-0.218784	-2.012932	0.136933
C17	C	-0.298032	-2.012942	0.136942
C18	C	-0.337666	-1.889114	0.013153
C19	C	-0.298045	-1.765241	-0.110630
C20	C	-0.218799	-1.765225	-0.110626
N21	N	-0.462084	-1.850848	-0.132928
N22	N	-0.537364	-1.850874	-0.132926
C23	C	-0.576430	-1.889154	0.013135
N24	N	-0.537371	-1.927439	0.159202
N25	N	-0.462084	-1.927421	0.159199
C26	C	-0.423595	-1.889117	0.013135
C27	C	-0.701970	-2.013023	0.136927
C28	C	-0.781219	-2.013022	0.136936
C29	C	-0.781231	-1.765328	-0.110649
C30	C	-0.701983	-1.765322	-0.110645
C31	C	-0.662358	-1.889178	0.013142
N32	N	0.179153	-1.889191	0.013148
C33	C	-0.000011	-2.187180	0.061387
C34	C	-0.000007	-2.366879	0.080286
C35	C	-0.000009	-1.840889	-0.284904
C36	C	-0.000008	-1.821990	-0.464604
H37	H	-0.330289	-2.113799	0.237735
H38	H	-0.000004	-1.466258	0.209705
H39	H	-0.000003	-1.311990	-0.183420
O40	O	-0.819784	-2.133375	0.256961
C41	C	-0.865596	-2.222799	0.182290
H42	H	-0.877468	-2.142599	0.047455
H43	H	-0.835044	-2.341322	0.185898
C44	C	-0.926292	-2.367213	0.443594
C45	C	-0.940878	-2.268705	0.277992
H46	H	-0.972728	-2.395538	0.502631
H47	H	-0.895426	-2.306972	0.493904
H48	H	-0.900830	-2.465971	0.446578
H49	H	-0.966331	-2.169941	0.275010
H50	H	-0.971750	-2.328931	0.227683
O51	O	-0.663589	-2.133399	0.257341
C52	C	-0.715549	-2.242733	0.366578
H53	H	-0.772045	-2.176462	0.360288
H54	H	-0.723963	-2.356768	0.328623
C55	C	-0.615234	-2.379038	0.553399
C56	C	-0.684622	-2.297637	0.545683
H57	H	-0.596157	-2.412913	0.663878
H58	H	-0.580227	-2.305382	0.479801
H59	H	-0.622255	-2.474057	0.521760
H60	H	-0.677599	-2.202610	0.577301
H61	H	-0.719628	-2.371279	0.619290
H62	H	-0.000010	-1.692570	0.436018
O63	O	-0.180353	-1.645050	-0.231076
C64	C	-0.199723	-1.651678	-0.388454
H65	H	-0.221496	-1.781451	-0.373385
H66	H	-0.245729	-1.555926	-0.447083
C67	C	-0.102584	-1.453574	-0.520030
C68	C	-0.129319	-1.612968	-0.501523
H69	H	-0.059157	-1.429688	-0.589780
H70	H	-0.089535	-1.449102	-0.414003
H71	H	-0.140929	-1.373799	-0.568881
H72	H	-0.090978	-1.692741	-0.452653
H73	H	-0.142360	-1.617451	-0.607545
H74	H	-0.186524	-2.113779	0.237730
H75	H	-0.330319	-1.664416	-0.211419
H76	H	-0.000013	-2.085696	0.590286
H77	H	-0.813500	-1.664499	-0.211434
H78	H	-0.669730	-1.664477	-0.211438
