data_functionalizedCrystal
_audit_creation_method	'MofGen! by Chris Wilmer'
_symmetry_space_group_name_H-M	'P1'
_symmetry_Int_Tables_number	1
_symmetry_cell_setting	triclinic
loop_
_symmetry_equiv_pos_as_xyz
  x,y,z
_cell_length_a	21.295417
_cell_length_b	19.121379
_cell_length_c	19.121175
_cell_angle_alpha	90.126312
_cell_angle_beta	92.410242
_cell_angle_gamma	87.528688
loop_
_atom_site_label
_atom_site_type_symbol
_atom_site_fract_x
_atom_site_fract_y
_atom_site_fract_z
Zn1	Zn	-0.222425	-1.088629	-0.350792
Zn2	Zn	-0.323407	-1.083537	-0.233552
Zn3	Zn	-0.222824	-0.966399	-0.238556
Zn4	Zn	-0.332332	-0.971345	-0.355733
O5	O	-0.275247	-1.027478	-0.294658
O6	O	-0.231919	-1.186060	-0.331078
O7	O	-0.306497	-1.063798	-0.136111
O8	O	-0.134681	-0.982674	-0.253471
O9	O	-0.306110	-1.182319	-0.244942
O10	O	-0.134387	-1.072476	-0.335931
O11	O	-0.232599	-0.977737	-0.139788
O12	O	-0.241253	-0.868949	-0.258262
O13	O	-0.321321	-0.991104	-0.453182
O14	O	-0.321707	-0.872583	-0.344352
O15	O	-0.240573	-1.077272	-0.449552
O16	O	-0.412682	-1.068594	-0.249733
O17	O	-0.419239	-0.986167	-0.339499
C18	C	-0.282492	-0.845328	-0.302386
C19	C	-0.285607	-0.767404	-0.305709
C20	C	-0.245124	-0.728886	-0.262522
C21	C	-0.248057	-0.655669	-0.265644
C22	C	-0.291470	-0.620971	-0.311957
C23	C	-0.331957	-0.659494	-0.355146
C24	C	-0.329027	-0.732710	-0.352020
C25	C	-0.302418	-0.400001	-0.323631
C26	C	-0.305343	-0.326780	-0.326755
C27	C	-0.221443	-0.322959	-0.237251
C28	C	-0.218515	-0.396177	-0.234132
C29	C	-0.259004	-0.434694	-0.277319
C30	C	-0.294467	-0.546131	-0.315151
C31	C	-0.256010	-0.509533	-0.274121
C32	C	-0.438801	-1.027384	-0.294623
C33	C	-0.508768	-1.027409	-0.294629
C34	C	-0.538200	-1.070371	-0.247932
C35	C	-0.603942	-1.070404	-0.247947
C36	C	-0.640250	-1.027463	-0.294651
C37	C	-0.610811	-0.984499	-0.341357
C38	C	-0.545070	-0.984472	-0.341346
N39	N	-0.746155	-0.966362	-0.302598
N40	N	-0.808605	-0.966389	-0.302604
C41	C	-0.838323	-1.027544	-0.294688
N42	N	-0.803230	-1.088670	-0.286752
N43	N	-0.740773	-1.088642	-0.286742
C44	C	-0.711535	-1.027488	-0.294669
C45	C	-0.939039	-1.070545	-0.248004
C46	C	-1.004782	-1.070580	-0.248023
C47	C	-1.011649	-0.984669	-0.341430
C48	C	-0.945907	-0.984640	-0.341414
C49	C	-0.909606	-1.027577	-0.294698
C50	C	-0.111054	-1.027591	-0.294708
C51	C	-0.041085	-1.027640	-0.294729
C52	C	-0.281898	-1.035307	-0.477516
C53	C	-0.284732	-1.038644	-0.555439
C54	C	-0.267971	-0.210338	-0.286894
C55	C	-0.264860	-0.288262	-0.283567
C56	C	-0.247589	-0.995406	-0.593961
C57	C	-0.250257	-0.998539	-0.667178
C58	C	-0.290065	-1.044913	-0.701871
C59	C	-0.327212	-1.088152	-0.663344
C60	C	-0.324547	-1.085016	-0.590129
C61	C	-0.300040	-1.056621	-0.922839
C62	C	-0.302701	-1.059756	-0.996060
C63	C	-0.225747	-0.970141	-0.999889
C64	C	-0.223083	-0.967011	-0.926672
C65	C	-0.260232	-1.010248	-0.888151
C66	C	-0.292792	-1.048117	-0.776711
C67	C	-0.257508	-1.007040	-0.813313
C68	C	-0.268576	-1.019719	-0.112511
C69	C	-0.265559	-1.016518	-0.034582
H70	H	-0.215095	-0.624310	-0.230472
H71	H	-0.921943	-0.949654	-0.379437
H72	H	-0.329813	-0.517872	-0.352860
H73	H	-1.028744	-1.105569	-0.209998
C74	C	-0.498272	-1.117595	-0.196535
N75	N	-0.468198	-1.153162	-0.157819
H76	H	-0.220665	-0.537787	-0.236410
H77	H	-0.209768	-0.757132	-0.224814
C78	C	-0.346957	-0.442360	-0.371138
N79	N	-0.380507	-0.474267	-0.406922
H80	H	-0.521106	-0.949487	-0.379373
H81	H	-0.220014	-0.963327	-0.698540
C82	C	-0.170758	-0.434339	-0.183183
N83	N	-0.134786	-0.463083	-0.144808
H84	H	-0.190669	-0.929247	-0.898429
C85	C	-0.650750	-0.937261	-0.392730
N86	N	-0.680833	-0.901681	-0.431426
H87	H	-0.340695	-0.298531	-0.364473
C88	C	-0.176912	-0.280585	-0.189745
N89	N	-0.143370	-0.248668	-0.153959
C90	C	-0.379712	-0.621324	-0.406091
N91	N	-0.415681	-0.592574	-0.444466
H92	H	-0.909481	-1.105510	-0.209966
C93	C	-1.051584	-0.937434	-0.392807
N94	N	-1.081667	-0.901857	-0.431507
H95	H	-0.361993	-0.764071	-0.387188
C96	C	-0.636324	-1.117663	-0.196571
N97	N	-0.660712	-1.153257	-0.157873
C98	C	-0.365404	-1.132584	-0.547755
N99	N	-0.396179	-1.168414	-0.515839
C100	C	-0.203797	-0.944390	-0.555805
N101	N	-0.170814	-0.905962	-0.527068
H102	H	-0.195503	-0.934939	-1.031260
H103	H	-0.335118	-1.097522	-1.024305
H104	H	-0.330297	-1.091820	-0.891485
H105	H	-0.225099	-0.969280	-0.785063
C106	C	-0.371150	-1.139005	-0.701516
N107	N	-0.404297	-1.177253	-0.730269
H108	H	-0.325204	-1.085875	-0.804967
