data_functionalizedCrystal
_audit_creation_method	'MofGen! by Chris Wilmer'
_symmetry_space_group_name_H-M	'P1'
_symmetry_Int_Tables_number	1
_symmetry_cell_setting	triclinic
loop_
_symmetry_equiv_pos_as_xyz
  x,y,z
_cell_length_a	18.215407
_cell_length_b	19.805405
_cell_length_c	18.215399
_cell_angle_alpha	89.969390
_cell_angle_beta	89.980167
_cell_angle_gamma	90.026858
loop_
_atom_site_label
_atom_site_type_symbol
_atom_site_fract_x
_atom_site_fract_y
_atom_site_fract_z
Zn1	Zn	1.125064	-0.269462	-0.416102
Zn2	Zn	1.458397	0.063871	-0.082769
Zn3	Zn	1.791731	0.397205	0.250564
Zn4	Zn	1.124969	-0.382653	-0.293030
Zn5	Zn	1.458303	-0.049320	0.040303
Zn6	Zn	1.791636	0.284014	0.373636
Zn7	Zn	1.001997	-0.269484	-0.293050
Zn8	Zn	1.335330	0.063849	0.040284
Zn9	Zn	1.668663	0.397182	0.373617
Zn10	Zn	1.001959	-0.382615	-0.416055
Zn11	Zn	1.335293	-0.049282	-0.082722
Zn12	Zn	1.668626	0.284051	0.250612
O13	O	1.063497	-0.326054	-0.354559
O14	O	1.396831	0.007280	-0.021226
O15	O	1.730164	0.340613	0.312107
O16	O	1.228036	-0.284484	-0.399788
O17	O	1.561369	0.048850	-0.066455
O18	O	1.894702	0.382183	0.266879
O19	O	1.108633	-0.367666	-0.190049
O20	O	1.441966	-0.034333	0.143285
O21	O	1.775299	0.299001	0.476618
O22	O	1.018377	-0.174765	-0.309401
O23	O	1.351711	0.158569	0.023933
O24	O	1.685044	0.491902	0.357266
O25	O	1.227966	-0.367644	-0.309368
O26	O	1.561299	-0.034311	0.023966
O27	O	1.894633	0.299022	0.357299
O28	O	1.108794	-0.174748	-0.399807
O29	O	1.442128	0.158585	-0.066474
O30	O	1.775461	0.491918	0.266860
O31	O	1.018285	-0.284521	-0.190063
O32	O	1.351619	0.048812	0.143271
O33	O	1.684952	0.382145	0.476604
O34	O	0.899008	-0.284485	-0.309355
O35	O	1.232341	0.048849	0.023978
O36	O	1.565674	0.382182	0.357312
O37	O	1.018313	-0.367580	-0.519046
O38	O	1.351647	-0.034247	-0.185712
O39	O	1.684980	0.299086	0.147621
O40	O	0.898980	-0.367602	-0.399727
O41	O	1.232313	-0.034268	-0.066393
O42	O	1.565647	0.299065	0.266940
O43	O	1.108758	-0.284447	-0.519080
O44	O	1.442091	0.048886	-0.185747
O45	O	1.775425	0.382220	0.147586
O46	O	1.108596	-0.477365	-0.309322
O47	O	1.441930	-0.144031	0.024011
O48	O	1.775263	0.189302	0.357345
O49	O	1.018221	-0.477337	-0.399708
O50	O	1.351555	-0.144004	-0.066374
O51	O	1.684888	0.189330	0.266959
C52	C	0.872291	-0.326042	-0.354538
C53	C	1.205624	0.007291	-0.021205
C54	C	1.538958	0.340625	0.312128
C55	C	0.790492	-0.326053	-0.354547
C56	C	1.123826	0.007280	-0.021213
C57	C	1.457159	0.340613	0.312120
C58	C	0.602303	-0.369400	-0.401544
C59	C	0.935637	-0.036067	-0.068211
C60	C	1.268970	0.297266	0.265123
C61	C	0.525444	-0.369403	-0.401553
C62	C	0.858778	-0.036069	-0.068220
C63	C	1.192111	0.297264	0.265113
C64	C	0.525444	-0.282719	-0.307591
C65	C	0.858777	0.050614	0.025743
C66	C	1.192110	0.383948	0.359076
C67	C	0.602301	-0.282714	-0.307586
C68	C	0.935634	0.050619	0.025748
C69	C	1.268968	0.383953	0.359081
C70	C	0.640729	-0.326059	-0.354561
C71	C	0.974062	0.007275	-0.021228
C72	C	1.307395	0.340608	0.312105
C73	C	0.487013	-0.326066	-0.354575
C74	C	0.820346	0.007268	-0.021242
C75	C	1.153679	0.340601	0.312091
C76	C	0.403679	-0.326068	-0.354585
C77	C	0.737012	0.007266	-0.021252
C78	C	1.070346	0.340599	0.312082
C79	C	0.724068	-0.326056	-0.354553
C80	C	1.057401	0.007277	-0.021220
C81	C	1.390734	0.340611	0.312114
C82	C	1.063415	-0.501910	-0.354524
C83	C	1.396748	-0.168576	-0.021190
C84	C	1.730081	0.164757	0.312143
C85	C	1.063446	-0.577142	-0.354533
C86	C	1.396780	-0.243808	-0.021200
C87	C	1.730113	0.089525	0.312134
C88	C	1.110550	-0.612478	-0.307518
C89	C	1.443884	-0.279144	0.025815
C90	C	1.777217	0.054189	0.359148
C91	C	1.110582	-0.683166	-0.307535
C92	C	1.443915	-0.349833	0.025799
C93	C	1.777248	-0.016500	0.359132
C94	C	1.063505	-0.718517	-0.354562
C95	C	1.396838	-0.385184	-0.021229
C96	C	1.730171	-0.051851	0.312104
C97	C	1.016399	-0.683176	-0.401582
C98	C	1.349732	-0.349843	-0.068249
C99	C	1.683065	-0.016510	0.265084
C100	C	1.016372	-0.612489	-0.401569
C101	C	1.349705	-0.279156	-0.068236
C102	C	1.683038	0.054178	0.265097
C103	C	1.016507	-0.968249	-0.401637
C104	C	1.349841	-0.634916	-0.068303
C105	C	1.683174	-0.301583	0.265030
C106	C	1.016536	-1.038941	-0.401645
C107	C	1.349870	-0.705608	-0.068311
C108	C	1.683203	-0.372275	0.265022
C109	C	1.110717	-1.038927	-0.307602
C110	C	1.444050	-0.705593	0.025731
C111	C	1.777384	-0.372260	0.359064
C112	C	1.110690	-0.968239	-0.307589
C113	C	1.444023	-0.634906	0.025744
C114	C	1.777357	-0.301573	0.359077
C115	C	1.063587	-0.932905	-0.354611
C116	C	1.396921	-0.599571	-0.021278
C117	C	1.730254	-0.266238	0.312055
C118	C	1.063555	-0.856256	-0.354594
C119	C	1.396888	-0.522923	-0.021261
C120	C	1.730222	-0.189589	0.312072
C121	C	1.063533	-0.795164	-0.354577
C122	C	1.396866	-0.461831	-0.021243
C123	C	1.730199	-0.128498	0.312090
C124	C	1.255450	-0.326066	-0.354581
C125	C	1.588784	0.007268	-0.021248
C126	C	1.922117	0.340601	0.312086
C127	C	1.337249	-0.326071	-0.354590
C128	C	1.670582	0.007262	-0.021257
C129	C	2.003916	0.340596	0.312077
C130	C	1.063542	-0.326007	-0.546512
C131	C	1.396876	0.007326	-0.213179
C132	C	1.730209	0.340660	0.120154
C133	C	1.063561	-0.325987	-0.628311
C134	C	1.396895	0.007346	-0.294978
C135	C	1.730228	0.340680	0.038355
C136	C	1.063601	-0.149511	-0.354611
C137	C	1.396934	0.183822	-0.021278
C138	C	1.730267	0.517156	0.312055
C139	C	1.063645	-0.074279	-0.354633
C140	C	1.396978	0.259054	-0.021300
C141	C	1.730311	0.592388	0.312033
C142	C	1.110673	-0.282659	-0.816524
C143	C	1.444006	0.050674	-0.483191
C144	C	1.777339	0.384008	-0.149858
C145	C	1.110682	-0.282639	-0.893383
C146	C	1.444015	0.050694	-0.560050
C147	C	1.777348	0.384027	-0.226717
C148	C	1.016502	-0.369210	-0.893336
C149	C	1.349835	-0.035877	-0.560003
C150	C	1.683169	0.297456	-0.226669
C151	C	1.016490	-0.369226	-0.816479
C152	C	1.349823	-0.035893	-0.483145
C153	C	1.683157	0.297440	-0.149812
C154	C	1.063580	-0.325952	-0.778075
C155	C	1.396913	0.007382	-0.444742
C156	C	1.730246	0.340715	-0.111408
C157	C	1.063600	-0.325916	-0.931791
C158	C	1.396934	0.007417	-0.598458
C159	C	1.730267	0.340751	-0.265124
C160	C	1.063609	-0.325895	-1.015125
C161	C	1.396943	0.007438	-0.681791
C162	C	1.730276	0.340772	-0.348458
C163	C	1.063570	-0.325972	-0.694736
C164	C	1.396903	0.007362	-0.361402
C165	C	1.730236	0.340695	-0.028069
C166	C	1.063495	-0.326051	-0.163353
C167	C	1.396828	0.007282	0.169980
C168	C	1.730162	0.340615	0.503314
C169	C	1.063619	-0.325880	-0.081555
C170	C	1.396952	0.007453	0.251779
C171	C	1.730285	0.340786	0.585112
H172	H	0.494162	-0.404695	-0.439812
H173	H	0.827495	-0.071362	-0.106479
H174	H	1.160829	0.261972	0.226854
H175	H	0.978165	-0.404444	-0.924614
H176	H	1.311498	-0.071111	-0.591280
H177	H	1.644832	0.262222	-0.257947
C178	C	1.162535	-1.077801	-0.255880
C179	C	1.495869	-0.744468	0.077453
C180	C	1.829202	-0.411134	0.410787
N181	N	1.201562	-1.107080	-0.216922
N182	N	1.534896	-0.773747	0.116411
N183	N	1.868229	-0.440414	0.449745
C184	C	0.964749	-1.077826	-0.453385
C185	C	1.298083	-0.744493	-0.120052
C186	C	1.631416	-0.411160	0.213281
N187	N	0.925746	-1.107114	-0.492354
N188	N	1.259079	-0.773781	-0.159021
N189	N	1.592412	-0.440448	0.174312
C190	C	0.483166	-0.235046	-0.255916
C191	C	0.816499	0.098287	0.077417
C192	C	1.149832	0.431620	0.410750
N193	N	0.451323	-0.199140	-0.216992
N194	N	0.784656	0.134194	0.116341
N195	N	1.117989	0.467527	0.449674
C196	C	0.964730	-0.929390	-0.453400
C197	C	1.298063	-0.596057	-0.120067
C198	C	1.631397	-0.262724	0.213266
N199	N	0.925743	-0.900119	-0.492405
N200	N	1.259076	-0.566786	-0.159072
N201	N	1.592410	-0.233452	0.174262
C202	C	0.964679	-0.416852	-0.774182
C203	C	1.298012	-0.083518	-0.440848
C204	C	1.631346	0.249815	-0.107515
N205	N	0.925654	-0.452720	-0.742323
N206	N	1.258988	-0.119386	-0.408990
N207	N	1.592321	0.213947	-0.075657
H208	H	0.978016	-0.583719	-0.439854
H209	H	1.311349	-0.250386	-0.106521
H210	H	1.644683	0.082948	0.226812
H211	H	0.633588	-0.247416	-0.269327
H212	H	0.966921	0.085918	0.064007
H213	H	1.300254	0.419251	0.397340
C214	C	1.162490	-0.235016	-0.935674
C215	C	1.495823	0.098318	-0.602341
C216	C	1.829156	0.431651	-0.269008
N217	N	1.201514	-0.199144	-0.967528
N218	N	1.534847	0.134190	-0.634194
N219	N	1.868180	0.467523	-0.300861
C220	C	1.162395	-0.722033	-0.255810
C221	C	1.495728	-0.388699	0.077523
C222	C	1.829062	-0.055366	0.410857
N223	N	1.201422	-0.751306	-0.216848
N224	N	1.534755	-0.417973	0.116486
N225	N	1.868089	-0.084640	0.449819
H226	H	1.148883	-0.583700	-0.269220
H227	H	1.482216	-0.250366	0.064113
H228	H	1.815549	0.082967	0.397447
C229	C	1.162466	-0.235050	-0.774283
C230	C	1.495799	0.098283	-0.440950
C231	C	1.829133	0.431617	-0.107616
N232	N	1.201476	-0.199187	-0.742469
N233	N	1.534809	0.134147	-0.409136
N234	N	1.868143	0.467480	-0.075802
C235	C	1.162472	-0.929357	-0.255849
C236	C	1.495805	-0.596024	0.077485
C237	C	1.829138	-0.262691	0.410818
N238	N	1.201475	-0.900072	-0.216876
N239	N	1.534808	-0.566739	0.116457
N240	N	1.868141	-0.233405	0.449790
C241	C	0.644571	-0.417076	-0.453224
C242	C	0.977905	-0.083742	-0.119891
C243	C	1.311238	0.249591	0.213443
N244	N	0.676405	-0.452984	-0.492153
N245	N	1.009739	-0.119651	-0.158820
N246	N	1.343072	0.213683	0.174513
H247	H	0.978071	-0.711965	-0.439876
H248	H	1.311404	-0.378631	-0.106543
H249	H	1.644738	-0.045298	0.226790
