data_functionalizedCrystal
_audit_creation_method	'MofGen! by Chris Wilmer'
_symmetry_space_group_name_H-M	'P1'
_symmetry_Int_Tables_number	1
_symmetry_cell_setting	triclinic
loop_
_symmetry_equiv_pos_as_xyz
  x,y,z
_cell_length_a	6.817900
_cell_length_b	10.773894
_cell_length_c	11.168129
_cell_angle_alpha	95.441129
_cell_angle_beta	108.508637
_cell_angle_gamma	96.645922
loop_
_atom_site_label
_atom_site_type_symbol
_atom_site_fract_x
_atom_site_fract_y
_atom_site_fract_z
V1	V	-3.973865	-0.388955	-0.170065
O2	O	-3.936042	-0.381539	0.012947
O3	O	-3.951080	-0.386305	-0.341802
O4	O	-3.890836	-0.558586	-0.165354
O5	O	-3.996704	-0.208066	-0.164722
V6	V	-4.458661	-0.367318	-0.148422
O7	O	-4.232331	-0.436417	-0.217540
O8	O	-4.650393	-0.319855	-0.100947
O9	O	-4.258240	-0.369967	0.023315
O10	O	-4.613882	-0.374733	-0.331433
O11	O	-4.553220	-0.548207	-0.153764
O12	O	-4.318484	-0.197686	-0.153133
C13	C	-3.803433	-0.380172	-0.383733
C14	C	-3.865860	-0.379137	-0.524116
C15	C	-3.874844	-0.270109	-0.570863
C16	C	-3.939364	-0.269036	-0.715957
C17	C	-3.726584	-0.599932	-0.158654
C18	C	-3.740151	-0.738607	-0.155939
C19	C	-3.918928	-0.806470	-0.160645
C20	C	-3.932954	-0.949797	-0.157838
C21	C	-4.069231	-0.376097	0.065240
C22	C	-3.986041	-0.377140	0.205622
C23	C	-4.146080	-0.156334	-0.159836
C24	C	-4.111751	-0.017658	-0.162545
H25	H	-3.947149	-0.175692	-0.756218
O26	O	-4.089366	-0.749373	-0.168103
C27	C	-4.446911	-0.736993	-0.289271
C28	C	-4.254054	-0.801775	-0.280968
H29	H	-4.580097	-0.779316	-0.380529
H30	H	-4.498158	-0.752028	-0.203295
H31	H	-4.405190	-0.631597	-0.290172
H32	H	-4.295616	-0.907188	-0.280106
H33	H	-4.202855	-0.786638	-0.366941
H34	H	-3.978237	-0.470489	-0.754124
H35	H	-3.834780	-0.177561	-0.503468
O36	O	-3.913982	-0.489480	-0.604644
C37	C	-4.176100	-0.626745	-0.779046
C38	C	-4.121863	-0.501727	-0.687953
H39	H	-4.344186	-0.636700	-0.846406
H40	H	-4.065107	-0.627163	-0.836843
H41	H	-4.159189	-0.708978	-0.721254
H42	H	-4.138792	-0.419426	-0.745646
H43	H	-4.232855	-0.501419	-0.630153
O44	O	-3.569994	-0.795986	-0.148484
C45	C	-3.322762	-0.918894	-0.028641
C46	C	-3.515506	-0.853998	-0.036942
H47	H	-3.278623	-0.965791	0.061547
H48	H	-3.360835	-0.993350	-0.115690
H49	H	-3.186035	-0.845495	-0.025598
H50	H	-3.652317	-0.927304	-0.039946
H51	H	-3.477261	-0.779518	0.050105
O52	O	-3.762783	-1.007171	-0.150383
C53	C	-3.515552	-1.130079	-0.030540
C54	C	-3.708296	-1.065183	-0.038841
H55	H	-3.471413	-1.176976	0.059648
H56	H	-3.553624	-1.204535	-0.117589
H57	H	-3.378825	-1.056680	-0.027498
H58	H	-3.845107	-1.138489	-0.041845
H59	H	-3.670050	-0.990703	0.048205
H60	H	-4.254441	-0.969655	-0.168657
