data_functionalizedCrystal
_audit_creation_method	'MofGen! by Chris Wilmer'
_symmetry_space_group_name_H-M	'P1'
_symmetry_Int_Tables_number	1
_symmetry_cell_setting	triclinic
loop_
_symmetry_equiv_pos_as_xyz
  x,y,z
_cell_length_a	27.731993
_cell_length_b	27.732048
_cell_length_c	26.210047
_cell_angle_alpha	90.000479
_cell_angle_beta	90.002578
_cell_angle_gamma	97.368475
loop_
_atom_site_label
_atom_site_type_symbol
_atom_site_fract_x
_atom_site_fract_y
_atom_site_fract_z
O1	O	0.640948	-0.057384	-0.042297
O2	O	0.500151	-0.066158	-0.042329
O3	O	0.574923	0.008627	-0.042302
O4	O	0.566177	-0.132169	-0.042324
O5	O	0.574908	0.008615	0.042556
O6	O	0.500137	-0.066169	0.042529
O7	O	0.640934	-0.057396	0.042561
Cu8	Cu	0.570534	-0.061784	0.050293
Cu9	Cu	0.570551	-0.061770	-0.050061
O10	O	0.566163	-0.132180	0.042534
C11	C	0.482137	-0.065983	0.000096
C12	C	0.428480	-0.065441	0.000084
C13	C	0.045328	-0.061504	-0.046147
C14	C	0.246985	-0.063571	-0.046161
O15	O	0.273065	-0.063813	-0.085501
N16	N	0.272198	-0.063836	0.000094
C17	C	0.246993	-0.063581	0.046356
O18	O	0.273066	-0.063849	0.085699
C19	C	0.045337	-0.061511	0.046370
C20	C	0.020127	-0.061251	0.000112
C21	C	0.020118	-0.061243	-0.092401
C22	C	-0.030294	-0.060729	-0.092397
C23	C	-0.055495	-0.060476	-0.046139
C24	C	-0.030285	-0.060736	0.000116
C25	C	0.020134	-0.061252	0.092631
C26	C	-0.030283	-0.060733	0.092630
C27	C	-0.055493	-0.060473	0.046372
C28	C	-0.105898	-0.059969	0.046378
N29	N	-0.131110	-0.059704	0.000123
C30	C	-0.105909	-0.059957	-0.046135
C31	C	0.352865	-0.064669	0.046346
C32	C	0.403279	-0.065188	0.046343
C33	C	0.403268	-0.065177	-0.046175
C34	C	0.352853	-0.064662	-0.046171
C35	C	0.327653	-0.064404	0.000091
C36	C	-0.211777	-0.058878	-0.046123
C37	C	-0.262194	-0.058366	-0.046115
C38	C	-0.262178	-0.058375	0.046402
C39	C	-0.211766	-0.058889	0.046394
C40	C	-0.186567	-0.059139	0.000127
O41	O	-0.132008	-0.059721	0.085698
O42	O	-0.131989	-0.059679	-0.085472
C43	C	0.095740	-0.062018	-0.046151
C44	C	0.120950	-0.062279	0.000104
C45	C	0.095749	-0.062025	0.046362
C46	C	0.171364	-0.062797	0.000101
C47	C	0.196565	-0.063051	-0.046158
C48	C	0.171353	-0.062786	-0.092413
C49	C	0.120941	-0.062272	-0.092409
C50	C	0.120961	-0.062290	0.092617
C51	C	0.171373	-0.062805	0.092609
C52	C	0.196574	-0.063058	0.046351
C53	C	0.574732	0.026628	0.000128
C54	C	0.574179	0.080282	0.000132
C55	C	0.658949	-0.057570	0.000135
C56	C	0.712605	-0.058113	0.000143
C57	C	0.566353	-0.150181	0.000103
C58	C	0.566906	-0.203836	0.000095
N59	N	0.570526	-0.061793	0.120877
C60	C	0.614884	0.419105	0.000115
C61	C	0.612833	0.620765	0.000108
O62	O	0.650055	0.652028	0.000094
N63	N	0.568497	0.639880	0.000098
C64	C	0.524670	0.608576	0.000087
O65	O	0.486912	0.629462	0.000073
C66	C	0.526721	0.406918	0.000091
C67	C	0.571061	0.387806	0.000106
C68	C	0.659220	0.399993	0.000129
C69	C	0.659732	0.349581	0.000134
C70	C	0.615909	0.318282	0.000124
C71	C	0.571573	0.337394	0.000110
C72	C	0.482895	0.375616	0.000076
C73	C	0.483412	0.325199	0.000076
C74	C	0.527751	0.306087	0.000091
C75	C	0.528262	0.255683	0.000105
N76	N	0.572598	0.236568	0.000115
C77	C	0.616422	0.267867	0.000124
C78	C	0.523596	0.714450	0.000086
C79	C	0.523083	0.764865	0.000086
C80	C	0.611246	0.777049	0.000105
C81	C	0.611759	0.726634	0.000109
C82	C	0.567932	0.695335	0.000095
C83	C	0.617494	0.161998	0.000135
C84	C	0.618003	0.111582	0.000142
C85	C	0.529839	0.099401	0.000119
C86	C	0.529331	0.149814	0.000115
C87	C	0.573162	0.181112	0.000121
O88	O	0.491060	0.224392	0.000114
O89	O	0.654174	0.246972	0.000127
C90	C	0.614372	0.469517	0.000110
C91	C	0.570036	0.488630	0.000096
C92	C	0.526213	0.457331	0.000087
C93	C	0.569523	0.539044	0.000096
C94	C	0.613346	0.570343	0.000106
C95	C	0.657683	0.551228	0.000115
C96	C	0.658195	0.500817	0.000120
C97	C	0.481876	0.476446	0.000077
C98	C	0.481368	0.526858	0.000073
C99	C	0.525191	0.558157	0.000083
N100	N	0.570564	-0.061757	-0.120645
C101	C	0.603657	-0.028663	0.473403
C102	C	0.603667	-0.028656	0.687062
O103	O	0.631818	-0.000490	0.714693
N104	N	0.570554	-0.061759	0.713771
C105	C	0.537433	-0.094864	0.687063
O106	O	0.509265	-0.123017	0.714683
C107	C	0.537421	-0.094868	0.473405
C108	C	0.570540	-0.061766	0.446698
C109	C	0.636772	0.004437	0.446696
C110	C	0.636771	0.004433	0.393285
C111	C	0.603654	-0.028671	0.366580
C112	C	0.570538	-0.061770	0.393287
C113	C	0.504298	-0.127971	0.446697
C114	C	0.504297	-0.127968	0.393280
C115	C	0.537416	-0.094866	0.366573
C116	C	0.537420	-0.094877	0.313171
N117	N	0.570533	-0.061774	0.286461
C118	C	0.603650	-0.028671	0.313166
C119	C	0.537443	-0.094861	0.799236
C120	C	0.537446	-0.094860	0.852650
C121	C	0.603680	-0.028651	0.852645
C122	C	0.603678	-0.028654	0.799230
C123	C	0.570556	-0.061757	0.772526
C124	C	0.603646	-0.028682	0.200998
C125	C	0.603643	-0.028690	0.147582
C126	C	0.537408	-0.094897	0.147591
C127	C	0.537412	-0.094891	0.201003
C128	C	0.570533	-0.061779	0.227705
O129	O	0.509281	-0.123025	0.285506
O130	O	0.631807	-0.000515	0.285536
C131	C	0.603658	-0.028659	0.526814
C132	C	0.570542	-0.061759	0.553521
C133	C	0.537425	-0.094862	0.526816
C134	C	0.570546	-0.061759	0.606935
C135	C	0.603663	-0.028655	0.633640
C136	C	0.636776	0.004448	0.606931
C137	C	0.636775	0.004444	0.553519
C138	C	0.504311	-0.127965	0.553526
C139	C	0.504316	-0.127959	0.606937
C140	C	0.537433	-0.094856	0.633642
H141	H	0.040652	-0.061462	0.130300
O142	O	0.505225	-0.126980	0.227007
C143	C	0.475591	-0.101297	0.257887
H144	H	0.495129	-0.063334	0.265885
H145	H	0.467792	-0.121522	0.295451
H146	H	0.439892	-0.098268	0.237298
H147	H	-0.050799	-0.060528	0.130303
H148	H	0.694301	0.485261	0.000132
H149	H	0.447722	0.299717	0.000064
O150	O	0.505220	-0.127098	0.121724
C151	C	0.475979	-0.156308	0.156746
H152	H	0.495791	-0.156719	0.194823
H153	H	0.468310	-0.194963	0.141309
H154	H	0.440191	-0.140862	0.162425
O155	O	0.668847	0.036684	0.527561
C156	C	0.643127	0.066327	0.496728
H157	H	0.605190	0.046749	0.488683
H158	H	0.663361	0.074222	0.459185
H159	H	0.640033	0.101978	0.517383
O160	O	0.702774	0.330963	0.000073
C161	C	0.705723	0.302178	-0.043882
H162	H	0.667530	0.289327	-0.058539
H163	H	0.724747	0.269311	-0.033996
H164	H	0.727276	0.324620	-0.074654
O165	O	0.486218	0.168302	0.000080
C166	C	0.447649	0.129863	0.000087
H167	H	0.460942	0.095710	-0.015965
H168	H	0.416677	0.140162	-0.024563
H169	H	0.434139	0.122634	0.040795
H170	H	0.445259	0.542414	0.000065
O171	O	0.653773	0.807527	0.000088
C172	C	0.643806	0.856120	0.000096
H173	H	0.605851	0.857761	-0.015971
H174	H	0.671760	0.879174	-0.024541
H175	H	0.645749	0.870719	0.040806
O176	O	0.328326	-0.064484	0.091254
C177	C	0.293378	-0.106069	0.094029
H178	H	0.283885	-0.119951	0.053866
H179	H	0.259234	-0.096286	0.113614
H180	H	0.308753	-0.135598	0.116850
O181	O	0.635829	0.003574	0.878535
C182	C	0.628316	0.051370	0.865495
H183	H	0.609686	0.051178	0.826711
H184	H	0.664826	0.075439	0.863674
H185	H	0.604363	0.066142	0.895556
O186	O	0.668879	0.036653	0.632901
C187	C	0.643210	0.066280	0.663805
H188	H	0.605097	0.066824	0.647701
H189	H	0.663218	0.104843	0.664417
H190	H	0.640559	0.051130	0.704284
O191	O	-0.187346	-0.059122	0.091373
C192	C	-0.220404	-0.058802	0.132202
H193	H	-0.254228	-0.043130	0.118643
H194	H	-0.202592	-0.035473	0.164555
H195	H	-0.231124	-0.097543	0.146424
O196	O	0.661119	0.093098	0.000131
C197	C	0.699687	0.131538	0.000149
H198	H	0.686398	0.165686	-0.015922
H199	H	0.730669	0.121234	-0.024480
H200	H	0.713180	0.138776	0.040862
H201	H	-0.282706	-0.058170	0.084064
H202	H	0.423800	-0.065407	0.084011
O203	O	0.096533	-0.061995	-0.137390
C204	C	0.129594	-0.062341	-0.178214
H205	H	0.167647	-0.047402	-0.164646
H206	H	0.118278	-0.038711	-0.210564
H207	H	0.129590	-0.101190	-0.192442
H208	H	0.040631	-0.061448	-0.130072
O209	O	0.472095	-0.160136	0.632798
C210	C	0.442875	-0.189360	0.597767
H211	H	0.442484	-0.169545	0.559691
H212	H	0.404215	-0.197003	0.613194
H213	H	0.458296	-0.225161	0.592090
H214	H	0.647864	0.711077	0.000121
H215	H	0.191880	-0.062995	-0.130078
H216	H	0.191894	-0.063021	0.130281
O217	O	0.635834	0.003515	0.121719
C218	C	0.665069	0.032726	0.156747
H219	H	0.645254	0.033132	0.194821
H220	H	0.672734	0.071382	0.141314
H221	H	0.700860	0.017284	0.162431
O222	O	0.481052	0.684000	0.000144
C223	C	0.478695	0.654482	0.044098
H224	H	0.517041	0.652214	0.058758
H225	H	0.460395	0.616453	0.034210
H226	H	0.456742	0.670907	0.074869
H227	H	0.100448	-0.062081	0.130287
H228	H	0.332330	-0.064450	-0.083838
O229	O	0.487316	0.068924	0.000087
C230	C	0.497281	0.020330	0.000104
H231	H	0.535240	0.018687	-0.015948
H232	H	0.469333	-0.002725	-0.024542
H233	H	0.495328	0.005735	0.040814
O234	O	-0.187382	-0.059146	-0.091112
C235	C	-0.220451	-0.058796	-0.131931
H236	H	-0.258501	-0.073736	-0.118360
H237	H	-0.209141	-0.082423	-0.164287
H238	H	-0.220449	-0.019946	-0.146153
H239	H	0.510483	-0.121820	0.874391
O240	O	0.635840	0.003416	0.226986
C241	C	0.665478	-0.022257	0.257874
H242	H	0.645941	-0.060217	0.265887
H243	H	0.673286	-0.002018	0.295430
H244	H	0.701174	-0.025295	0.237284
H245	H	0.653186	0.187476	0.000138
H246	H	0.477343	-0.154922	0.531787
O247	O	0.668891	0.036718	0.367440
C248	C	0.661317	0.084465	0.380610
H249	H	0.622592	0.084340	0.395245
H250	H	0.667077	0.108851	0.345550
H251	H	0.688159	0.098813	0.411684
H252	H	-0.050816	-0.060515	-0.130065
H253	H	-0.282718	-0.058156	-0.083786
O254	O	0.505250	-0.127068	0.773379
C255	C	0.476021	-0.156274	0.808413
H256	H	0.495842	-0.156673	0.846486
H257	H	0.468355	-0.194934	0.792986
H258	H	0.440230	-0.140834	0.814097
O259	O	0.700241	0.581657	0.000033
C260	C	0.702576	0.611188	-0.043912
H261	H	0.677722	0.592531	-0.074632
H262	H	0.741559	0.617155	-0.058658
H263	H	0.690337	0.647757	-0.033981
O264	O	0.427797	-0.065486	-0.091078
C265	C	0.451156	-0.107670	-0.093862
H266	H	0.456775	-0.121720	-0.053703
H267	H	0.487912	-0.098609	-0.113434
H268	H	0.427673	-0.136792	-0.116699
H269	H	0.477330	-0.154925	0.468435
O270	O	0.701825	0.430343	0.000072
C271	C	0.728771	0.421736	-0.043874
H272	H	0.716604	0.383402	-0.058533
H273	H	0.769111	0.425575	-0.033976
H274	H	0.722387	0.449270	-0.074650
H275	H	0.446789	0.391168	0.000061
O276	O	0.479969	0.783347	0.000054
C277	C	0.441403	0.744904	0.000058
H278	H	0.454699	0.710756	-0.016003
H279	H	0.410428	0.755205	-0.024587
H280	H	0.427896	0.737668	0.040765
H281	H	0.477324	-0.154924	0.371540
H282	H	0.446189	0.450966	0.000068
O283	O	0.668966	0.036529	0.472689
C284	C	0.698605	0.010853	0.503572
H285	H	0.679067	-0.027107	0.511582
H286	H	0.706415	0.031089	0.541129
H287	H	0.734299	0.007815	0.482979
H288	H	0.630646	-0.001700	0.777489
