data_functionalizedCrystal
_audit_creation_method	'MofGen! by Chris Wilmer'
_symmetry_space_group_name_H-M	'P1'
_symmetry_Int_Tables_number	1
_symmetry_cell_setting	triclinic
loop_
_symmetry_equiv_pos_as_xyz
  x,y,z
_cell_length_a	16.974885
_cell_length_b	16.992695
_cell_length_c	9.130313
_cell_angle_alpha	89.998255
_cell_angle_beta	93.651792
_cell_angle_gamma	87.023153
loop_
_atom_site_label
_atom_site_type_symbol
_atom_site_fract_x
_atom_site_fract_y
_atom_site_fract_z
O1	O	1.055447	0.099901	0.003189
O2	O	1.555447	0.599901	0.503189
O3	O	0.826047	0.112635	-0.023980
O4	O	1.326047	0.612635	0.476020
O5	O	0.939827	-0.007874	-0.010493
O6	O	1.439827	0.492126	0.489507
O7	O	0.941667	0.220409	-0.010298
O8	O	1.441667	0.720409	0.489702
O9	O	0.939826	-0.007871	0.233106
O10	O	1.439826	0.492129	0.733106
O11	O	0.826046	0.112638	0.219618
O12	O	1.326046	0.612638	0.719618
O13	O	1.055446	0.099904	0.246788
O14	O	1.555446	0.599904	0.746788
Cu15	Cu	0.940746	0.106271	0.255446
Cu16	Cu	1.440746	0.606271	0.755446
Cu17	Cu	0.940747	0.106267	-0.032638
Cu18	Cu	1.440747	0.606267	0.467362
O19	O	0.941665	0.220413	0.233300
O20	O	1.441665	0.720413	0.733300
C21	C	0.796558	0.112153	0.094326
C22	C	1.296558	0.612153	0.594326
C23	C	0.708690	0.110703	0.083920
C24	C	1.208690	0.610703	0.583920
C25	C	0.937461	-0.037082	0.111026
C26	C	1.437461	0.462918	0.611026
C27	C	0.930401	-0.124119	0.110189
C28	C	1.430401	0.375881	0.610189
C29	C	0.214091	0.102515	0.010988
C30	C	0.714091	0.602515	0.510988
C31	C	0.296652	0.103878	0.020786
C32	C	0.796652	0.603878	0.520786
C33	C	0.337923	0.104566	0.158472
C34	C	0.837923	0.604566	0.658472
C35	C	0.296630	0.103885	0.286368
C36	C	0.796630	0.603885	0.786368
C37	C	0.214071	0.102517	0.276569
C38	C	0.714071	0.602517	0.776569
C39	C	0.584838	0.108653	0.202017
C40	C	1.084838	0.608653	0.702017
C41	C	0.667402	0.110024	0.211807
C42	C	1.167402	0.610024	0.711807
C43	C	0.667419	0.110015	-0.053777
C44	C	1.167419	0.610015	0.446223
C45	C	0.584858	0.108652	-0.063564
C46	C	1.084858	0.608652	0.436436
C47	C	0.543572	0.107966	0.064333
C48	C	1.043572	0.607966	0.564333
N49	N	0.422313	0.105961	0.168490
N50	N	0.922313	0.605961	0.668490
N51	N	0.459183	0.106565	0.054313
N52	N	0.959183	0.606565	0.554313
C53	C	0.998516	-0.174434	0.118258
C54	C	1.498516	0.325566	0.618258
C55	C	0.991878	-0.256213	0.117458
C56	C	1.491878	0.243787	0.617458
C57	C	0.917125	-0.287676	0.108600
C58	C	1.417125	0.212324	0.608600
C59	C	0.849005	-0.237353	0.100526
C60	C	1.349005	0.262647	0.600526
C61	C	0.855643	-0.155576	0.101316
C62	C	1.355643	0.344424	0.601316
C63	C	0.889610	-0.531243	0.105321
C64	C	1.389610	-0.031243	0.605321
C65	C	0.882977	-0.613027	0.104536
C66	C	1.382977	-0.113027	0.604536
C67	C	1.025851	-0.631881	0.121466
C68	C	1.525851	-0.131881	0.621466
C69	C	1.032483	-0.550101	0.122264
C70	C	1.532483	-0.050101	0.622264
C71	C	0.964363	-0.499786	0.114182
C72	C	1.464363	0.000214	0.614182
N73	N	0.910338	-0.371267	0.107786
N74	N	1.410338	0.128733	0.607786
N75	N	0.971150	-0.416197	0.114985
N76	N	1.471150	0.083803	0.614985
C77	C	1.084935	0.100386	0.128478
C78	C	1.584935	0.600386	0.628478
C79	C	1.172803	0.101836	0.138875
C80	C	1.672803	0.601836	0.638875
C81	C	0.944032	0.249621	0.111778
C82	C	1.444032	0.749621	0.611778
C83	C	0.951092	0.336657	0.112605
C84	C	1.451092	0.836657	0.612605
N85	N	0.940750	0.106273	0.458069
N86	N	1.440750	0.606273	0.958069
N87	N	0.940748	0.106259	-0.235261
N88	N	1.440748	0.606259	0.264739
C89	C	0.991147	0.052930	0.540695
C90	C	1.491147	0.552930	1.040695
C91	C	0.991144	0.052921	0.694031
C92	C	1.491144	0.552921	1.194031
C93	C	0.890346	0.159605	0.682102
C94	C	1.390346	0.659605	1.182102
C95	C	0.890345	0.159610	0.528768
C96	C	1.390345	0.659610	1.028768
C97	C	1.049345	-0.008661	0.547583
C98	C	1.549345	0.491339	1.047583
C99	C	1.049342	-0.008670	0.700920
C100	C	1.549342	0.491330	1.200920
H101	H	0.180493	0.101960	-0.101131
H102	H	0.680493	0.601960	0.398869
H103	H	0.551233	0.108083	0.306160
H104	H	1.051233	0.608083	0.806160
F105	F	0.340556	0.104615	0.432904
F106	F	0.840556	0.604615	0.932904
F107	F	0.340590	0.104597	-0.115330
F108	F	0.840590	0.604597	0.384670
H109	H	1.027044	-0.065436	0.745832
H110	H	1.527044	0.434564	1.245832
H111	H	0.849301	0.203039	0.461494
H112	H	1.349301	0.703039	0.961494
H113	H	0.849307	0.203029	0.739682
H114	H	1.349307	0.703029	1.239682
F115	F	0.803410	-0.646509	0.095115
F116	F	1.303410	-0.146509	0.595115
H117	H	0.788139	-0.262976	0.093304
H118	H	1.288139	0.237024	0.593304
H119	H	0.800177	-0.114609	0.094745
H120	H	1.300177	0.385391	0.594745
H121	H	0.701042	0.110572	-0.157902
H122	H	1.201042	0.610572	0.342098
F123	F	1.027423	-0.087262	0.490587
F124	F	1.527423	0.412738	0.990587
H125	H	1.110801	0.004173	0.749814
H126	H	1.610801	0.504173	1.249814
F127	F	0.711325	0.110756	0.358358
F128	F	1.211325	0.610756	0.858358
F129	F	1.125693	0.015578	0.494453
F130	F	1.625693	0.515578	0.994453
F131	F	1.112046	-0.516623	0.131655
F132	F	1.612046	-0.016623	0.631655
H133	H	0.180455	0.101972	0.380708
H134	H	0.680455	0.601972	0.880708
F135	F	0.540939	0.107919	-0.210108
F136	F	1.040939	0.607919	0.289892
H137	H	1.059388	-0.148825	0.125481
H138	H	1.559388	0.351175	0.625481
H139	H	1.081310	-0.672856	0.128043
H140	H	1.581310	-0.172856	0.628043
F141	F	1.064376	-0.309760	0.126049
F142	F	1.564376	0.190240	0.626049
H143	H	0.834142	-0.490286	0.098741
H144	H	1.334142	0.009714	0.598741
