data_functionalizedCrystal
_audit_creation_method	'MofGen! by Chris Wilmer'
_symmetry_space_group_name_H-M	'P1'
_symmetry_Int_Tables_number	1
_symmetry_cell_setting	triclinic
loop_
_symmetry_equiv_pos_as_xyz
  x,y,z
_cell_length_a	16.109301
_cell_length_b	9.730223
_cell_length_c	10.654543
_cell_angle_alpha	90.000897
_cell_angle_beta	96.028173
_cell_angle_gamma	89.999429
loop_
_atom_site_label
_atom_site_type_symbol
_atom_site_fract_x
_atom_site_fract_y
_atom_site_fract_z
O1	O	1.104088	-0.114192	-0.161421
O2	O	0.862145	-0.114213	-0.181509
O3	O	0.988682	-0.114205	0.011350
O4	O	0.977551	-0.114200	-0.354280
O5	O	0.988674	0.114375	0.011356
O6	O	0.862137	0.114367	-0.181504
O7	O	1.104079	0.114388	-0.161415
Zn8	Zn	0.983107	0.150669	-0.171459
Zn9	Zn	0.983117	-0.150494	-0.171466
O10	O	0.977542	0.114380	-0.354275
C11	C	0.831161	0.000075	-0.180693
C12	C	0.738851	0.000066	-0.178253
N13	N	0.983105	0.356206	-0.171453
N14	N	0.983125	-0.356031	-0.171461
C15	C	0.517224	0.000084	-0.287020
C16	C	0.430490	0.000092	-0.284717
C17	C	0.449007	0.000083	-0.055896
C18	C	0.535740	0.000085	-0.058200
C19	C	0.569845	0.000078	-0.173765
C20	C	0.396379	0.000085	-0.169160
C21	C	0.302338	0.000095	-0.166663
C22	C	0.663892	0.000071	-0.176262
C23	C	1.135063	0.000098	-0.162232
C24	C	1.227373	0.000097	-0.164671
C25	C	0.987862	0.000081	0.058140
C26	C	0.985420	0.000070	0.197551
C27	C	1.039155	0.428135	-0.086091
C28	C	1.039164	0.572018	-0.086091
C29	C	0.927069	0.572030	-0.256828
C30	C	0.927058	0.428149	-0.256820
C31	C	1.059922	0.000071	0.278047
C32	C	1.057623	0.000046	0.409037
C33	C	0.906312	0.000024	0.379021
C34	C	0.908612	0.000039	0.248034
C35	C	0.978367	0.000075	0.598936
C36	C	0.980820	0.000029	0.459528
H37	H	0.387648	0.000100	-0.376941
O38	O	0.836158	0.000100	0.170009
C39	C	0.685835	-0.000009	0.154049
C40	C	0.767821	-0.000038	0.242554
H41	H	0.630564	-0.000151	0.212666
H42	H	0.683067	0.095678	0.092004
H43	H	0.683185	-0.095643	0.091941
H44	H	0.770526	0.095530	0.304741
H45	H	0.770555	-0.095789	0.304513
O46	O	0.415834	-0.000166	0.056325
C47	C	0.328618	-0.118561	0.191680
C48	C	0.366144	-0.118460	0.064556
H49	H	0.288422	-0.214176	0.198364
H50	H	0.381095	-0.118651	0.272283
H51	H	0.288508	-0.022860	0.198466
H52	H	0.406246	-0.214144	0.057646
H53	H	0.313628	-0.118298	-0.015987
H54	H	1.118291	0.000043	0.474573
H55	H	0.544989	0.000088	-0.381120
O56	O	0.586827	-0.000167	0.051857
C57	C	0.629165	-0.118552	0.246751
C58	C	0.571275	-0.118461	0.122155
H59	H	0.616600	-0.214167	0.303634
H60	H	0.697029	-0.118635	0.225326
H61	H	0.616683	-0.022851	0.303575
H62	H	0.583683	-0.214146	0.065270
H63	H	0.503430	-0.118306	0.143669
O64	O	0.872665	0.641764	-0.339926
C65	C	0.825223	0.685832	-0.558271
C66	C	0.886872	0.606756	-0.464298
H67	H	0.836700	0.657579	-0.658846
H68	H	0.758524	0.657530	-0.541970
H69	H	0.834845	0.801017	-0.543556
H70	H	0.877326	0.491552	-0.478957
H71	H	0.953548	0.635171	-0.480622
H72	H	1.084791	0.369562	-0.016578
H73	H	0.843778	0.000002	0.420141
O74	O	1.134510	0.000329	0.228947
C75	C	1.224903	0.118724	0.098436
C76	C	1.140410	0.118627	0.153975
H77	H	1.229694	0.214343	0.037788
H78	H	1.277789	0.118805	0.178427
H79	H	1.229753	0.023027	0.037906
H80	H	1.135479	0.214308	0.214491
H81	H	1.087565	0.118475	0.073924
O82	O	1.093692	0.641677	-0.003125
C83	C	1.204841	0.626471	0.166269
C84	C	1.143144	0.547414	0.072353
H85	H	1.244827	0.550295	0.227336
H86	H	1.246743	0.693784	0.112090
H87	H	1.168581	0.693880	0.228970
H88	H	1.179336	0.479931	0.009628
H89	H	1.101243	0.480188	0.126610
H90	H	0.881411	0.369581	-0.326333
