data_functionalizedCrystal
_audit_creation_method	'MofGen! by Chris Wilmer'
_symmetry_space_group_name_H-M	'P1'
_symmetry_Int_Tables_number	1
_symmetry_cell_setting	triclinic
loop_
_symmetry_equiv_pos_as_xyz
  x,y,z
_cell_length_a	11.792240
_cell_length_b	7.540329
_cell_length_c	9.065218
_cell_angle_alpha	90.000511
_cell_angle_beta	95.395349
_cell_angle_gamma	89.985087
loop_
_atom_site_label
_atom_site_type_symbol
_atom_site_fract_x
_atom_site_fract_y
_atom_site_fract_z
O1	O	-0.166434	0.147530	1.958833
O2	O	0.333566	0.647530	2.458833
O3	O	-0.180085	0.147536	1.529420
O4	O	0.319915	0.647536	2.029420
O5	O	-0.008147	0.147479	1.754547
O6	O	0.491853	0.647479	2.254547
O7	O	-0.338372	0.147587	1.733706
O8	O	0.161628	0.647587	2.233706
O9	O	-0.008137	-0.147486	1.754545
O10	O	0.491863	0.352514	2.254545
O11	O	-0.180075	-0.147429	1.529418
O12	O	0.319925	0.352571	2.029418
O13	O	-0.166424	-0.147435	1.958831
O14	O	0.333576	0.352565	2.458831
Cu15	Cu	-0.173249	-0.174365	1.744125
Cu16	Cu	0.326751	0.325635	2.244125
Cu17	Cu	-0.173260	0.174465	1.744127
Cu18	Cu	0.326740	0.674465	2.244127
O19	O	-0.338362	-0.147378	1.733704
O20	O	0.161638	0.352622	2.233704
C21	C	0.034156	-0.000014	1.753237
C22	C	0.534156	0.499986	2.253237
C23	C	0.160192	-0.000044	1.749319
C24	C	0.660192	0.499956	2.249319
C25	C	-0.178768	0.000053	1.474445
C26	C	0.321232	0.500053	1.974445
C27	C	-0.174845	0.000053	1.310639
C28	C	0.325155	0.500053	1.810639
C29	C	0.390944	-0.000072	1.742113
C30	C	0.890944	0.499928	2.242113
C31	C	0.262537	-0.000056	1.746117
C32	C	0.762537	0.499944	2.246117
C33	C	0.619335	0.000055	1.735014
C34	C	1.119335	0.500055	2.235014
C35	C	0.493299	-0.000091	1.738933
C36	C	0.993299	0.499909	2.238933
N37	N	-0.173260	0.419814	1.744129
N38	N	0.326740	0.919814	2.244129
N39	N	-0.173240	-0.419713	1.744134
N40	N	0.326760	0.080287	2.244134
C41	C	-0.167741	0.000051	2.013806
C42	C	0.332259	0.500051	2.513806
C43	C	-0.171664	0.000063	2.177612
C44	C	0.328336	0.500063	2.677612
