data_functionalizedCrystal
_audit_creation_method	'MofGen! by Chris Wilmer'
_symmetry_space_group_name_H-M	'P1'
_symmetry_Int_Tables_number	1
_symmetry_cell_setting	triclinic
loop_
_symmetry_equiv_pos_as_xyz
  x,y,z
_cell_length_a	14.519709
_cell_length_b	17.038272
_cell_length_c	12.996460
_cell_angle_alpha	89.993697
_cell_angle_beta	90.000034
_cell_angle_gamma	87.395851
loop_
_atom_site_label
_atom_site_type_symbol
_atom_site_fract_x
_atom_site_fract_y
_atom_site_fract_z
O1	O	1.231711	0.102503	-0.085433
O2	O	1.565045	0.435836	0.247900
O3	O	1.898378	0.769169	0.581234
O4	O	0.964158	0.114573	-0.085465
O5	O	1.297491	0.447907	0.247869
O6	O	1.630825	0.781240	0.581202
O7	O	1.096345	-0.005280	-0.085441
O8	O	1.429678	0.328053	0.247892
O9	O	1.763011	0.661387	0.581226
O10	O	1.099525	0.222356	-0.085457
O11	O	1.432858	0.555689	0.247876
O12	O	1.766192	0.889023	0.581210
O13	O	1.096329	-0.005287	0.085693
O14	O	1.429663	0.328047	0.419026
O15	O	1.762996	0.661380	0.752360
O16	O	0.964143	0.114567	0.085669
O17	O	1.297476	0.447900	0.419002
O18	O	1.630809	0.781233	0.752336
O19	O	1.231696	0.102496	0.085701
O20	O	1.565029	0.435829	0.419034
O21	O	1.898363	0.769163	0.752367
Cu22	Cu	1.097918	0.108531	0.101311
Cu23	Cu	1.431251	0.441864	0.434644
Cu24	Cu	1.764585	0.775197	0.767977
Cu25	Cu	1.097936	0.108539	-0.101075
Cu26	Cu	1.431269	0.441872	0.232259
Cu27	Cu	1.764603	0.775205	0.565592
O28	O	1.099510	0.222349	0.085677
O29	O	1.432843	0.555683	0.419010
O30	O	1.766176	0.889016	0.752344
C31	C	0.929748	0.114008	0.000098
C32	C	1.263081	0.447341	0.333432
C33	C	1.596414	0.780674	0.666765
C34	C	0.827237	0.112322	0.000086
C35	C	1.160571	0.445655	0.333420
C36	C	1.493904	0.778988	0.666753
C37	C	0.451867	0.106116	0.000134
C38	C	0.785200	0.439449	0.333467
C39	C	1.118533	0.772782	0.666800
C40	C	0.556307	0.107839	0.000120
C41	C	0.889640	0.441172	0.333454
C42	C	1.222973	0.774506	0.666787
C43	C	0.639549	0.109219	0.000109
C44	C	0.972882	0.442552	0.333442
C45	C	1.306215	0.775885	0.666776
C46	C	0.743995	0.110942	0.000098
C47	C	1.077329	0.444276	0.333431
C48	C	1.410662	0.777609	0.666764
C49	C	1.093444	-0.034416	0.000125
C50	C	1.426778	0.298917	0.333459
C51	C	1.760111	0.632250	0.666792
C52	C	1.084814	-0.121223	0.000124
C53	C	1.418148	0.212110	0.333458
C54	C	1.751481	0.545444	0.666791
C55	C	1.164047	-0.171209	0.000135
C56	C	1.497381	0.162124	0.333468
C57	C	1.830714	0.495458	0.666801
C58	C	1.155933	-0.252773	0.000124
C59	C	1.489266	0.080561	0.333457
C60	C	1.822600	0.413894	0.666791
C61	C	1.068585	-0.284349	0.000110
C62	C	1.401919	0.048984	0.333443
C63	C	1.735252	0.382318	0.666777
C64	C	0.989347	-0.234357	0.000097
C65	C	1.322680	0.098977	0.333430
C66	C	1.656013	0.432310	0.666763
C67	C	0.997462	-0.152795	0.000100
C68	C	1.330795	0.180539	0.333433
C69	C	1.664128	0.513872	0.666767
C70	C	1.039916	-0.530153	0.000093
C71	C	1.373250	-0.196820	0.333426
C72	C	1.706583	0.136513	0.666759
C73	C	1.031807	-0.611722	0.000092
C74	C	1.365140	-0.278388	0.333426
C75	C	1.698474	0.054945	0.666759
C76	C	1.198394	-0.630132	0.000118
C77	C	1.531728	-0.296799	0.333451
C78	C	1.865061	0.036535	0.666784
C79	C	1.206502	-0.548568	0.000127
C80	C	1.539835	-0.215234	0.333461
C81	C	1.873168	0.118099	0.666794
C82	C	1.127263	-0.498583	0.000108
C83	C	1.460596	-0.165249	0.333442
C84	C	1.793930	0.168084	0.666775
C85	C	1.060289	-0.367720	0.000102
C86	C	1.393623	-0.034387	0.333436
C87	C	1.726956	0.298947	0.666769
C88	C	1.135560	-0.415213	0.000109
C89	C	1.468893	-0.081880	0.333442
C90	C	1.802227	0.251453	0.666775
C91	C	1.266107	0.103062	0.000135
C92	C	1.599440	0.436395	0.333469
C93	C	1.932773	0.769728	0.666802
C94	C	1.368617	0.104748	0.000141
C95	C	1.701950	0.438081	0.333474
C96	C	2.035283	0.771414	0.666807
C97	C	1.102410	0.251486	0.000108
C98	C	1.435743	0.584819	0.333442
C99	C	1.769076	0.918152	0.666775
C100	C	1.111040	0.338292	0.000103
C101	C	1.444373	0.671626	0.333436
C102	C	1.777706	1.004959	0.666769
N103	N	1.097912	0.108525	0.243658
N104	N	1.431245	0.441858	0.576991
N105	N	1.764579	0.775191	0.910325
N106	N	1.097949	0.108538	-0.243422
N107	N	1.431282	0.441872	0.089911
N108	N	1.764616	0.775205	0.423245
C109	C	1.097935	0.108539	0.663472
C110	C	1.431268	0.441873	0.996805
C111	C	1.764602	0.775206	1.330139
C112	C	1.097926	0.108538	0.546667
C113	C	1.431259	0.441871	0.880000
C114	C	1.764593	0.775205	1.213334
C115	C	1.097924	0.108533	0.453569
C116	C	1.431257	0.441866	0.786902
C117	C	1.764591	0.775199	1.120235
C118	C	1.097914	0.108530	0.336756
C119	C	1.431247	0.441863	0.670089
C120	C	1.764581	0.775197	1.003423
H121	H	1.235175	-0.145506	0.000152
H122	H	1.568508	0.187827	0.333485
H123	H	1.901842	0.521160	0.666819
H124	H	1.262906	-0.670838	0.000131
H125	H	1.596239	-0.337505	0.333464
H126	H	1.929572	-0.004172	0.666798
C127	C	1.243096	-0.307754	0.000152
C128	C	1.576429	0.025579	0.333485
C129	C	1.909763	0.358913	0.666819
N130	N	1.308752	-0.349166	0.000178
N131	N	1.642085	-0.015833	0.333512
N132	N	1.975418	0.317501	0.666845
C133	C	0.964208	-0.402462	0.000109
C134	C	1.297542	-0.069129	0.333442
C135	C	1.630875	0.264204	0.666775
N136	N	0.891840	-0.428633	0.000118
N137	N	1.225174	-0.095300	0.333451
N138	N	1.558507	0.238034	0.666784
H139	H	0.960675	-0.637427	0.000098
H140	H	1.294008	-0.304094	0.333431
H141	H	1.627341	0.029239	0.666764
H142	H	0.975394	-0.489465	0.000078
H143	H	1.308727	-0.156131	0.333411
H144	H	1.642061	0.177202	0.666744
H145	H	0.932942	-0.112096	0.000091
H146	H	1.266275	0.221237	0.333425
H147	H	1.599608	0.554570	0.666758
C148	C	1.302591	-0.513840	0.000144
C149	C	1.635924	-0.180507	0.333477
C150	C	1.969257	0.152826	0.666810
N151	N	1.374967	-0.487684	0.000160
N152	N	1.708300	-0.154351	0.333493
N153	N	2.041633	0.178983	0.666827
H154	H	0.918226	-0.260072	0.000079
H155	H	1.251559	0.073261	0.333412
H156	H	1.584893	0.406594	0.666746
H157	H	1.206678	-0.389500	0.000097
H158	H	1.540011	-0.056167	0.333430
H159	H	1.873345	0.277166	0.666764
