data_functionalizedCrystal
_audit_creation_method	'MofGen! by Chris Wilmer'
_symmetry_space_group_name_H-M	'P1'
_symmetry_Int_Tables_number	1
_symmetry_cell_setting	triclinic
loop_
_symmetry_equiv_pos_as_xyz
  x,y,z
_cell_length_a	6.817900
_cell_length_b	11.102288
_cell_length_c	17.284648
_cell_angle_alpha	90.646544
_cell_angle_beta	103.040472
_cell_angle_gamma	108.605689
loop_
_atom_site_label
_atom_site_type_symbol
_atom_site_fract_x
_atom_site_fract_y
_atom_site_fract_z
V1	V	-4.033550	-0.151414	-0.245764
O2	O	-3.994067	0.032410	-0.241085
O3	O	-4.010861	-0.324401	-0.244083
O4	O	-3.976321	-0.138056	-0.352949
O5	O	-4.028845	-0.155225	-0.131465
V6	V	-4.514991	-0.130729	-0.232092
O7	O	-4.299377	-0.196786	-0.275752
O8	O	-4.699361	-0.085356	-0.202104
O9	O	-4.314474	0.042258	-0.233773
O10	O	-4.671871	-0.314553	-0.236771
O11	O	-4.637092	-0.126918	-0.346391
O12	O	-4.349013	-0.144087	-0.124907
C13	C	-3.862402	-0.366916	-0.240206
C14	C	-3.925078	-0.508264	-0.239546
C15	C	-3.818342	-0.129213	-0.379075
C16	C	-3.853005	-0.119436	-0.466700
C17	C	-4.137284	-0.580753	-0.243169
C18	C	-4.196166	-0.713565	-0.242555
C19	C	-3.830615	-0.701388	-0.234693
C20	C	-3.771738	-0.568579	-0.235312
C21	C	-3.925881	-0.230110	-0.519123
C22	C	-3.958458	-0.220921	-0.601456
C23	C	-3.918144	-0.101058	-0.631364
C24	C	-3.845267	0.009623	-0.578935
C25	C	-3.812706	0.000433	-0.496604
C26	C	-4.009472	-0.061213	-0.876391
C27	C	-4.042034	-0.052031	-0.958728
C28	C	-4.155227	-0.282577	-0.981244
C29	C	-4.122647	-0.291756	-0.898910
C30	C	-4.049785	-0.181075	-0.846488
N31	N	-3.951435	-0.091663	-0.715521
N32	N	-4.016509	-0.190472	-0.762333
C33	C	-4.126276	0.084766	-0.237648
C34	C	-4.042837	0.226114	-0.238313
C35	C	-4.170335	-0.152934	-0.098777
C36	C	-4.114910	-0.162705	-0.011151
H37	H	-4.368960	-0.772580	-0.245506
H38	H	-3.950145	0.028912	-0.833718
C39	C	-3.733688	0.120443	-0.439557
C40	C	-3.713860	0.086740	-0.361055
C41	C	-3.641113	0.197260	-0.308484
H42	H	-3.598810	0.173200	-0.445748
H43	H	-3.832703	0.165510	-0.450949
H44	H	-3.614849	0.041694	-0.349668
H45	H	-3.848711	0.033999	-0.354839
H46	H	-3.740128	0.242327	-0.319876
H47	H	-3.506239	0.250010	-0.314683
H48	H	-3.627668	0.174408	-0.255216
H49	H	-4.262146	-0.531648	-0.246615
H50	H	-4.009244	0.045579	-0.983076
C51	C	-3.541441	-0.489824	-0.231540
C52	C	-3.532136	-0.423605	-0.299805
C53	C	-3.320032	-0.351056	-0.296365
H54	H	-3.486828	-0.430640	-0.185490
H55	H	-3.458488	-0.544726	-0.228965
H56	H	-3.615058	-0.368708	-0.302372
H57	H	-3.586705	-0.482758	-0.345865
H58	H	-3.237078	-0.405958	-0.293790
H59	H	-3.265436	-0.291879	-0.250312
H60	H	-3.313687	-0.306127	-0.342684
H61	H	-3.705778	-0.750513	-0.231244
C62	C	-3.969846	-0.360211	-0.486597
C63	C	-4.126908	-0.377927	-0.443759
C64	C	-4.167436	-0.497771	-0.413799
H65	H	-4.018006	-0.424874	-0.529565
H66	H	-3.842628	-0.364816	-0.452351
H67	H	-4.254101	-0.373333	-0.478003
H68	H	-4.078791	-0.313293	-0.400780
H69	H	-4.040217	-0.502377	-0.379553
H70	H	-4.215588	-0.562425	-0.456772
H71	H	-4.273991	-0.509802	-0.384724
H72	H	-4.017807	-0.311044	-0.644136
H73	H	-3.812457	0.107218	-0.603293
H74	H	-4.155487	-0.389362	-0.874566
H75	H	-4.214555	-0.372687	-1.023934
