data_functionalizedCrystal
_audit_creation_method	'MofGen! by Chris Wilmer'
_symmetry_space_group_name_H-M	'P1'
_symmetry_Int_Tables_number	1
_symmetry_cell_setting	triclinic
loop_
_symmetry_equiv_pos_as_xyz
  x,y,z
_cell_length_a	23.532407
_cell_length_b	14.853559
_cell_length_c	13.330367
_cell_angle_alpha	90.000206
_cell_angle_beta	89.995007
_cell_angle_gamma	96.759900
loop_
_atom_site_label
_atom_site_type_symbol
_atom_site_fract_x
_atom_site_fract_y
_atom_site_fract_z
O1	O	0.755738	-0.109436	-0.083356
O2	O	0.589943	-0.125270	-0.083371
O3	O	0.677272	0.013926	-0.083362
O4	O	0.668409	-0.248632	-0.083365
O5	O	0.677258	0.013923	0.083485
O6	O	0.589930	-0.125273	0.083476
O7	O	0.755725	-0.109439	0.083491
Cu8	Cu	0.672826	-0.117356	0.098718
Cu9	Cu	0.672842	-0.117353	-0.098598
O10	O	0.668396	-0.248635	0.083482
C11	C	0.568719	-0.124869	0.000051
C12	C	0.505497	-0.123656	0.000045
C13	C	0.238949	-0.036283	0.000073
C14	C	0.298355	-0.037410	0.000073
O15	O	0.334798	0.031902	0.000108
N16	N	0.321340	-0.120162	0.000065
C17	C	0.284918	-0.201793	0.000068
O18	O	0.309924	-0.272283	0.000062
C19	C	0.225514	-0.200666	0.000075
C20	C	0.202531	-0.117908	0.000073
C21	C	0.215967	0.046467	0.000072
C22	C	0.156566	0.047593	0.000070
C23	C	0.120147	-0.034032	0.000070
C24	C	0.143130	-0.116782	0.000071
C25	C	0.189092	-0.282296	0.000085
C26	C	0.129684	-0.281162	0.000093
C27	C	0.106702	-0.198404	0.000091
C28	C	0.047311	-0.197282	0.000069
N29	N	0.024325	-0.114529	0.000077
C30	C	0.060743	-0.032905	0.000077
C31	C	0.409670	-0.204154	0.000054
C32	C	0.469073	-0.205282	0.000039
C33	C	0.482506	-0.040898	0.000046
C34	C	0.423102	-0.039771	0.000053
C35	C	0.386685	-0.121402	0.000061
C36	C	-0.064004	-0.030547	0.000073
C37	C	-0.123411	-0.029428	0.000067
C38	C	-0.136838	-0.193811	0.000066
C39	C	-0.077437	-0.194930	0.000066
C40	C	-0.041020	-0.113291	0.000073
O41	O	0.010833	-0.266557	0.000038
O42	O	0.035729	0.037574	0.000096
C43	C	0.676864	0.047509	0.000060
C44	C	0.675664	0.147580	0.000054
C45	C	0.776949	-0.109840	0.000068
C46	C	0.840171	-0.111053	0.000067
C47	C	0.668803	-0.282218	0.000058
C48	C	0.670004	-0.382289	0.000058
C49	C	0.670577	0.570701	-0.090895
C50	C	0.670563	0.570692	0.091008
C51	C	0.671695	0.476671	0.091009
C52	C	0.672268	0.429660	0.000057
C53	C	0.671708	0.476671	-0.090897
C54	C	0.672250	0.429653	0.181961
C55	C	0.673382	0.335626	0.181966
C56	C	0.673959	0.288614	0.091012
C57	C	0.673400	0.335630	0.000055
C58	C	0.673972	0.288620	-0.090898
C59	C	0.673417	0.335635	-0.181856
C60	C	0.672285	0.429659	-0.181850
C61	C	0.675091	0.194590	0.091007
C62	C	0.675104	0.194590	-0.090899
N63	N	0.672819	-0.117358	0.237500
N64	N	0.672853	-0.117344	-0.237379
C65	C	0.638241	-0.062957	0.290022
C66	C	0.707404	-0.171755	0.290005
C67	C	0.707411	-0.171755	0.395024
C68	C	0.672833	-0.117353	0.447546
C69	C	0.638248	-0.062952	0.395050
C70	C	0.742000	-0.226148	0.447528
C71	C	0.742008	-0.226148	0.552552
C72	C	0.707426	-0.171751	0.605077
C73	C	0.672840	-0.117349	0.552574
C74	C	0.638261	-0.062947	0.605097
C75	C	0.603671	-0.008549	0.552596
C76	C	0.603666	-0.008555	0.447575
C77	C	0.707431	-0.171745	0.710098
C78	C	0.638268	-0.062943	0.710125
H79	H	0.512169	0.025565	0.000046
H80	H	0.670092	0.608973	0.165058
Cl81	Cl	0.669885	0.629803	-0.205236
H82	H	0.673836	0.297354	0.256029
H83	H	-0.142119	0.037966	0.000063
H84	H	-0.034360	0.035932	0.000078
H85	H	0.735596	-0.216032	0.752839
Cl86	Cl	0.750875	-0.240136	0.223976
H87	H	0.137859	0.114983	0.000072
H88	H	0.404395	0.027617	0.000052
Cl89	Cl	0.261740	0.149096	0.000073
H90	H	0.487780	-0.272671	0.000027
Cl91	Cl	0.675788	0.135489	0.205344
H92	H	0.675573	0.156321	-0.164965
H93	H	0.671780	0.467935	0.256010
H94	H	0.380022	-0.270631	0.000053
Cl95	Cl	0.217969	-0.386341	0.000089
Cl96	Cl	0.594793	0.005447	0.776144
Cl97	Cl	-0.048544	-0.298969	0.000056
H98	H	0.100035	-0.347637	0.000104
H99	H	0.673880	0.297346	-0.255909
H100	H	0.575520	0.035748	0.595374
H101	H	0.575506	0.035735	0.404819
H102	H	0.610077	-0.018670	0.247272
H103	H	0.770155	-0.270432	0.404756
H104	H	0.770173	-0.270443	0.595289
H105	H	0.671833	0.467947	-0.255904
Cl106	Cl	-0.182632	-0.296419	0.000061
