data_functionalizedCrystal
_audit_creation_method	'MofGen! by Chris Wilmer'
_symmetry_space_group_name_H-M	'P1'
_symmetry_Int_Tables_number	1
_symmetry_cell_setting	triclinic
loop_
_symmetry_equiv_pos_as_xyz
  x,y,z
_cell_length_a	16.120484
_cell_length_b	18.215407
_cell_length_c	18.215399
_cell_angle_alpha	90.017777
_cell_angle_beta	92.869789
_cell_angle_gamma	87.078910
loop_
_atom_site_label
_atom_site_type_symbol
_atom_site_fract_x
_atom_site_fract_y
_atom_site_fract_z
Zn1	Zn	-0.332012	-1.110208	-0.430925
Zn2	Zn	0.167988	-0.610208	0.069075
Zn3	Zn	-0.471433	-1.103874	-0.314094
Zn4	Zn	0.028567	-0.603874	0.185906
Zn5	Zn	-0.332028	-0.987140	-0.307877
Zn6	Zn	0.167972	-0.487140	0.192123
Zn7	Zn	-0.471375	-0.980867	-0.437121
Zn8	Zn	0.028625	-0.480867	0.062879
O9	O	-0.401712	-1.045522	-0.372504
O10	O	0.098288	-0.545522	0.127496
O11	O	-0.350525	-1.212351	-0.415436
O12	O	0.149475	-0.712351	0.084564
O13	O	-0.452972	-1.088364	-0.210286
O14	O	0.047028	-0.588364	0.289714
O15	O	-0.215360	-1.008741	-0.319005
O16	O	0.284640	-0.508741	0.180995
O17	O	-0.452957	-1.207698	-0.329601
O18	O	0.047043	-0.707698	0.170399
O19	O	-0.215349	-1.099158	-0.409407
O20	O	0.284651	-0.599158	0.090593
O21	O	-0.350551	-1.002599	-0.205719
O22	O	0.149449	-0.502599	0.294281
O23	O	-0.350495	-0.883324	-0.325013
O24	O	0.149505	-0.383324	0.174987
O25	O	-0.452858	-0.998050	-0.539282
O26	O	0.047142	-0.498050	-0.039282
O27	O	-0.452873	-0.878716	-0.419968
O28	O	0.047127	-0.378716	0.080032
O29	O	-0.350468	-1.093076	-0.534730
O30	O	0.149532	-0.593076	-0.034730
O31	O	-0.588091	-1.082281	-0.335609
O32	O	-0.088091	-0.582281	0.164391
O33	O	-0.588048	-0.991908	-0.425996
O34	O	-0.088048	-0.491908	0.074004
C35	C	-0.401680	-0.854317	-0.372488
C36	C	0.098320	-0.354317	0.127512
C37	C	-0.401686	-0.772518	-0.372500
C38	C	0.098314	-0.272518	0.127500
C39	C	-0.348453	-0.586742	-0.417272
C40	C	0.151547	-0.086742	0.082728
C41	C	-0.348457	-0.509883	-0.417274
C42	C	0.151543	-0.009883	0.082726
C43	C	-0.454959	-0.505055	-0.327742
C44	C	0.045041	-0.005055	0.172258
C45	C	-0.454950	-0.581913	-0.327736
C46	C	0.045050	-0.081913	0.172264
C47	C	-0.401698	-0.622754	-0.372506
C48	C	0.098302	-0.122754	0.127494
C49	C	-0.401712	-0.469037	-0.372513
C50	C	0.098288	0.030963	0.127487
C51	C	-0.401717	-0.385704	-0.372515
C52	C	0.098283	0.114296	0.127485
C53	C	-0.401692	-0.706093	-0.372503
C54	C	0.098308	-0.206093	0.127497
C55	C	-0.618320	-1.035747	-0.382165
C56	C	-0.118320	-0.535747	0.117835
C57	C	-0.710985	-1.031632	-0.386323
C58	C	-0.210985	-0.531632	0.113677
C59	C	-0.880647	-1.024125	-0.393929
C60	C	-0.380647	-0.524125	0.106071
C61	C	-0.921937	-1.067052	-0.351092
C62	C	-0.421937	-0.567052	0.148908
C63	C	-1.016343	-1.062874	-0.355324
C64	C	-0.516343	-0.562874	0.144676
C65	C	-0.786233	-1.028301	-0.389698
C66	C	-0.286233	-0.528301	0.110302
C67	C	-0.184259	-1.055356	-0.362822
C68	C	0.315741	-0.555356	0.137178
C69	C	-0.091593	-1.059546	-0.358695
C70	C	0.408407	-0.559546	0.141305
C71	C	-0.401655	-1.045570	-0.564455
C72	C	0.098345	-0.545570	-0.064455
C73	C	-0.401630	-1.045590	-0.646252
C74	C	0.098370	-0.545590	-0.146252
C75	C	-0.401736	-0.237474	-0.372518
C76	C	0.098264	0.262526	0.127482
C77	C	-0.401724	-0.319273	-0.372519
C78	C	0.098276	0.180727	0.127481
C79	C	-0.348266	-1.095089	-0.832075
C80	C	0.151734	-0.595089	-0.332075
C81	C	-0.348242	-1.095099	-0.908933
C82	C	0.151758	-0.595099	-0.408933
C83	C	-0.454865	-0.996148	-0.913662
C84	C	0.045135	-0.496148	-0.413662
C85	C	-0.454885	-0.996136	-0.836805
C86	C	0.045115	-0.496136	-0.336805
C87	C	-0.401587	-1.045610	-0.796014
C88	C	0.098413	-0.545610	-0.296014
C89	C	-0.401543	-1.045633	-0.949728
C90	C	0.098457	-0.545633	-0.449728
C91	C	-0.401517	-1.045643	-1.033061
C92	C	0.098483	-0.545643	-0.533061
C93	C	-0.401611	-1.045599	-0.712676
C94	C	0.098389	-0.545599	-0.212676
C95	C	-0.401709	-1.045520	-0.181298
C96	C	0.098291	-0.545520	0.318702
C97	C	-0.401499	-1.045653	-0.099490
C98	C	0.098501	-0.545653	0.400510
H99	H	-0.305098	-0.480565	-0.453726
H100	H	0.194902	0.019435	0.046274
H101	H	-0.304865	-1.135372	-0.798865
H102	H	0.195135	-0.635372	-0.298865
H103	H	-0.498316	-0.471793	-0.291293
H104	H	0.001684	0.028207	0.208707
H105	H	-0.305089	-0.619992	-0.453724
H106	H	0.194911	-0.119992	0.046276
C107	C	-0.513526	-0.621530	-0.278493
C108	C	-0.013526	-0.121530	0.221507
H109	H	-0.545251	-0.586199	-0.251839
H110	H	-0.045251	-0.086199	0.248161
H111	H	-0.481586	-0.652938	-0.245047
H112	H	0.018414	-0.152938	0.254953
H113	H	-0.549888	-0.649885	-0.308220
H114	H	-0.049888	-0.149885	0.191780
H115	H	-0.498304	-0.955839	-0.807444
H116	H	0.001696	-0.455839	-0.307444
H117	H	-0.304822	-1.135389	-0.938290
H118	H	0.195178	-0.635389	-0.438290
H119	H	-0.886387	-1.106939	-0.311239
H120	H	-0.386387	-0.606939	0.188761
H121	H	-0.498261	-0.955870	-0.946884
H122	H	0.001739	-0.455870	-0.446884
H123	H	-0.916195	-0.984239	-0.433777
H124	H	-0.416195	-0.484239	0.066223
