data_functionalizedCrystal
_audit_creation_method	'MofGen! by Chris Wilmer'
_symmetry_space_group_name_H-M	'P1'
_symmetry_Int_Tables_number	1
_symmetry_cell_setting	triclinic
loop_
_symmetry_equiv_pos_as_xyz
  x,y,z
_cell_length_a	17.077404
_cell_length_b	21.295416
_cell_length_c	17.077396
_cell_angle_alpha	90.030718
_cell_angle_beta	89.981638
_cell_angle_gamma	89.971698
loop_
_atom_site_label
_atom_site_type_symbol
_atom_site_fract_x
_atom_site_fract_y
_atom_site_fract_z
Zn1	Zn	1.200014	0.250643	-0.443807
Zn2	Zn	1.700014	0.750643	0.056193
Zn3	Zn	1.199904	0.355916	-0.312535
Zn4	Zn	1.699904	0.855916	0.187465
Zn5	Zn	1.068746	0.250661	-0.312557
Zn6	Zn	1.568746	0.750661	0.187443
Zn7	Zn	1.068697	0.355875	-0.443762
Zn8	Zn	1.568697	0.855875	0.056238
O9	O	1.134340	0.303274	-0.378165
O10	O	1.634340	0.803274	0.121835
O11	O	1.309846	0.264618	-0.426403
O12	O	1.809846	0.764618	0.073597
O13	O	1.182480	0.341979	-0.202691
O14	O	1.682480	0.841979	0.297309
O15	O	1.086225	0.162569	-0.329996
O16	O	1.586225	0.662569	0.170004
O17	O	1.309766	0.341962	-0.329959
O18	O	1.809766	0.841962	0.170041
O19	O	1.182668	0.162556	-0.426424
O20	O	1.682668	0.662556	0.073576
O21	O	1.086119	0.264648	-0.202707
O22	O	1.586119	0.764648	0.297293
O23	O	0.958892	0.264608	-0.329952
O24	O	1.458892	0.764608	0.170048
O25	O	1.086142	0.341891	-0.553615
O26	O	1.586142	0.841891	-0.053615
O27	O	0.958856	0.341908	-0.426347
O28	O	1.458856	0.841908	0.073653
O29	O	1.182620	0.264578	-0.553648
O30	O	1.682620	0.764578	-0.053648
O31	O	1.182433	0.444000	-0.329915
O32	O	1.682433	0.944000	0.170085
O33	O	1.086035	0.443970	-0.426326
O34	O	1.586035	0.943970	0.073674
C35	C	0.930392	0.303256	-0.378148
C36	C	1.430392	0.803256	0.121852
C37	C	0.843142	0.303264	-0.378159
C38	C	1.343142	0.803264	0.121841
C39	C	0.802195	0.263062	-0.428454
C40	C	1.302195	0.763062	0.071546
C41	C	0.720215	0.263066	-0.428458
C42	C	1.220215	0.763066	0.071542
C43	C	0.679183	0.303275	-0.378169
C44	C	1.179183	0.803275	0.121831
C45	C	0.720136	0.343478	-0.327869
C46	C	1.220136	0.843478	0.172131
C47	C	0.802115	0.343471	-0.327862
C48	C	1.302115	0.843471	0.172138
C49	C	0.549266	0.343493	-0.327888
C50	C	1.049266	0.843493	0.172112
C51	C	0.467281	0.343501	-0.327896
C52	C	0.967281	0.843501	0.172104
C53	C	0.467366	0.263088	-0.428484
C54	C	0.967366	0.763088	0.071516
C55	C	0.549345	0.263081	-0.428477
C56	C	1.049345	0.763081	0.071523
C57	C	0.590292	0.303285	-0.378177
C58	C	1.090292	0.803285	0.121823
C59	C	1.134238	0.466826	-0.378131
C60	C	1.634238	0.966826	0.121869
C61	C	1.134266	0.536794	-0.378142
C62	C	1.634266	1.036794	0.121858
C63	C	1.184505	0.569655	-0.327994
C64	C	1.684505	1.069655	0.172006
C65	C	1.184542	0.635398	-0.328015
C66	C	1.684542	1.135398	0.171985
C67	C	1.134326	0.668276	-0.378176
C68	C	1.634326	1.168276	0.121824
C69	C	1.084084	0.635407	-0.428334
C70	C	1.584084	1.135407	0.071666
C71	C	1.084054	0.569665	-0.428317
C72	C	1.584054	1.069665	0.071683
N73	N	1.065658	0.771540	-0.384160
N74	N	1.565658	1.271540	0.115840
N75	N	1.065688	0.833991	-0.384172
N76	N	1.565688	1.333991	0.115828
C77	C	1.134415	0.866351	-0.378232
C78	C	1.634415	1.366351	0.121768
N79	N	1.203111	0.833900	-0.372265
N80	N	1.703111	1.333900	0.127735
N81	N	1.203079	0.771443	-0.372249
N82	N	1.703079	1.271443	0.127751
C83	C	1.134353	0.739562	-0.378201
C84	C	1.634353	1.239562	0.121799
C85	C	1.184698	0.970498	-0.328104
C86	C	1.684698	1.470498	0.171896
C87	C	1.184736	1.036242	-0.328131
C88	C	1.684736	1.536242	0.171869
C89	C	1.084271	1.036249	-0.428446
C90	C	1.584271	1.536249	0.071554
C91	C	1.084240	0.970507	-0.428423
C92	C	1.584240	1.470507	0.071577
C93	C	1.134452	0.937635	-0.378248
C94	C	1.634452	1.437635	0.121752
C95	C	1.339084	0.303292	-0.378183
C96	C	1.839084	0.803292	0.121817
C97	C	1.426334	0.303300	-0.378191
C98	C	1.926334	0.803300	0.121809
C99	C	1.134465	1.139084	-0.378231
C100	C	1.634465	1.639084	0.121769
C101	C	1.134521	1.069116	-0.378293
C102	C	1.634521	1.569116	0.121707
C103	C	1.134388	0.303228	-0.582910
C104	C	1.634388	0.803228	-0.082910
C105	C	1.134408	0.303208	-0.670159
C106	C	1.634408	0.803208	-0.170159
C107	C	1.184646	0.262947	-0.711168
C108	C	1.684646	0.762947	-0.211168
C109	C	1.184655	0.262927	-0.793149
C110	C	1.684655	0.762927	-0.293149
C111	C	1.134430	0.303170	-0.834119
C112	C	1.634430	0.803170	-0.334119
C113	C	1.084187	0.343432	-0.793105
C114	C	1.584187	0.843432	-0.293105
C115	C	1.084174	0.343449	-0.711126
C116	C	1.584174	0.843449	-0.211126
C117	C	1.084218	0.343394	-0.963975
C118	C	1.584218	0.843394	-0.463975
C119	C	1.084232	0.343377	-1.045959
C120	C	1.584232	0.843377	-0.545959
C121	C	1.184700	0.262871	-1.045998
C122	C	1.684700	0.762871	-0.545998
C123	C	1.184687	0.262889	-0.964019
C124	C	1.684687	0.762889	-0.464019
C125	C	1.134444	0.303152	-0.923010
C126	C	1.634444	0.803152	-0.423010
C127	C	1.134338	0.303275	-0.174217
C128	C	1.634338	0.803275	0.325783
C129	C	1.134470	0.303117	-0.086968
C130	C	1.634470	0.803117	0.413032
H131	H	0.686879	0.230332	-0.469415
H132	H	1.186879	0.730332	0.030585
H133	H	1.043199	0.662180	-0.469177
H134	H	1.543199	1.162180	0.030823
O135	O	1.238932	1.071690	-0.274047
O136	O	1.738932	1.571690	0.225953
H137	H	1.203837	1.101699	-0.234095
H138	H	1.703837	1.601699	0.265905
O139	O	1.030108	1.071706	-0.482546
O140	O	1.530108	1.571706	0.017454
H141	H	1.043532	1.059046	-0.544163
H142	H	1.543532	1.559046	-0.044163
H143	H	0.433876	0.376243	-0.286947
H144	H	0.933876	0.876243	0.213053
O145	O	0.423202	0.219721	-0.482730
O146	O	0.923202	0.719721	0.017270
H147	H	0.465506	0.191765	-0.517704
H148	H	0.965506	0.691765	-0.017704
O149	O	1.030033	0.935056	-0.482491
O150	O	1.530033	1.435056	0.017509
H151	H	0.995111	0.968961	-0.517367
H152	H	1.495111	1.468961	-0.017367
O153	O	1.030009	0.386832	-0.837294
O154	O	1.530009	0.886832	-0.337294
H155	H	1.043423	0.436242	-0.821541
H156	H	1.543423	0.936242	-0.321541
H157	H	1.225566	0.230144	-0.826534
H158	H	1.725566	0.730144	-0.326534
O159	O	1.238739	0.670860	-0.273941
O160	O	1.738739	1.170860	0.226059
H161	H	1.203645	0.700870	-0.233989
H162	H	1.703645	1.200870	0.266011
H163	H	1.043142	0.542909	-0.469155
H164	H	1.543142	1.042909	0.030845
H165	H	1.225608	0.230087	-1.079391
H166	H	1.725608	0.730087	-0.579391
O167	O	1.238862	0.935036	-0.274001
O168	O	1.738862	1.435036	0.225999
H169	H	1.273814	0.968935	-0.239142
H170	H	1.773814	1.468935	0.260858
O171	O	1.029979	0.386864	-0.666888
O172	O	1.529979	0.886864	-0.166888
H173	H	0.995056	0.414845	-0.709149
H174	H	1.495056	0.914845	-0.209149
H175	H	0.835453	0.376206	-0.286906
H176	H	1.335453	0.876206	0.213094
H177	H	0.582750	0.230343	-0.469431
H178	H	1.082750	0.730343	0.030569
H179	H	0.582603	0.376229	-0.286926
H180	H	1.082603	0.876229	0.213074
H181	H	1.225548	0.230179	-0.677816
H182	H	1.725548	0.730179	-0.177816
O183	O	1.238670	0.534199	-0.273890
O184	O	1.738670	1.034199	0.226110
H185	H	1.273618	0.568099	-0.239028
H186	H	1.773618	1.068099	0.260972
O187	O	0.675886	0.386844	-0.273622
O188	O	1.175886	0.886844	0.226378
H189	H	0.638540	0.418916	-0.308684
H190	H	1.138540	0.918916	0.191316
H191	H	1.225589	0.230123	-0.930663
H192	H	1.725589	0.730123	-0.430663
O193	O	1.030055	0.386775	-1.090154
O194	O	1.530055	0.886775	-0.590154
H195	H	0.995106	0.414767	-1.047868
H196	H	1.495106	0.914767	-0.547868
O197	O	1.030024	0.386815	-0.919739
O198	O	1.530024	0.886815	-0.419739
H199	H	0.995105	0.414799	-0.961999
H200	H	1.495105	0.914799	-0.461999
H201	H	0.835597	0.230321	-0.469407
H202	H	1.335597	0.730321	0.030593
