data_functionalizedCrystal
_audit_creation_method	'MofGen! by Chris Wilmer'
_symmetry_space_group_name_H-M	'P1'
_symmetry_Int_Tables_number	1
_symmetry_cell_setting	triclinic
loop_
_symmetry_equiv_pos_as_xyz
  x,y,z
_cell_length_a	16.109301
_cell_length_b	11.792241
_cell_length_c	14.586319
_cell_angle_alpha	89.996059
_cell_angle_beta	89.999213
_cell_angle_gamma	83.827448
loop_
_atom_site_label
_atom_site_type_symbol
_atom_site_fract_x
_atom_site_fract_y
_atom_site_fract_z
O1	O	1.103817	0.145885	-0.076183
O2	O	0.861841	0.164040	-0.076197
O3	O	0.988701	-0.010259	-0.076183
O4	O	0.976957	0.320185	-0.076197
O5	O	0.988692	-0.010262	0.076298
O6	O	0.861832	0.164038	0.076284
O7	O	1.103808	0.145883	0.076298
Cu8	Cu	0.982819	0.154960	0.090214
Cu9	Cu	0.982830	0.154963	-0.090113
O10	O	0.976948	0.320182	0.076284
C11	C	0.830858	0.163304	0.000041
C12	C	0.738552	0.161099	0.000036
C13	C	0.516743	0.259398	0.000042
C14	C	0.430012	0.257318	0.000048
C15	C	0.448914	0.050517	0.000053
C16	C	0.535642	0.052599	0.000054
C17	C	0.569554	0.157043	0.000044
C18	C	0.396095	0.152880	0.000049
C19	C	0.302059	0.150624	0.000056
C20	C	0.663597	0.159300	0.000039
C21	C	0.987959	-0.052545	0.000057
C22	C	0.985751	-0.178539	0.000056
C23	C	0.981691	-0.409216	0.000040
C24	C	0.983947	-0.280850	0.000049
C25	C	1.134791	0.146619	0.000058
C26	C	1.227097	0.148824	0.000057
C27	C	0.977690	0.362468	0.000042
C28	C	0.979898	0.488462	0.000037
N29	N	0.982818	0.154957	0.217045
N30	N	0.982838	0.154957	-0.216944
C31	C	1.039011	0.077803	0.452058
C32	C	1.039013	0.077800	0.548039
C33	C	0.926639	0.232115	0.548036
C34	C	0.926633	0.232111	0.452057
C35	C	0.982824	0.154957	0.404070
C36	C	0.982832	0.154957	0.596031
C37	C	0.982834	0.154955	0.700098
C38	C	0.982821	0.154957	0.299996
H39	H	0.578644	-0.030757	0.000057
H40	H	0.880891	0.294934	0.587116
H41	H	0.544351	0.344443	0.000041
O42	O	0.378831	0.356851	0.000003
C43	C	0.427364	0.449475	0.000020
H44	H	0.491957	0.420645	-0.028850
H45	H	0.433685	0.481488	0.073171
C46	C	0.305254	0.581764	-0.024324
C47	C	0.384586	0.546356	-0.059788
H48	H	0.278866	0.641528	-0.061212
H49	H	0.272555	0.519362	-0.024331
H50	H	0.310532	0.608434	0.036635
H51	H	0.379307	0.519674	-0.120741
H52	H	0.417283	0.608756	-0.059792
O53	O	1.093515	0.002899	0.594796
C54	C	1.081487	0.019457	0.689801
H55	H	1.015580	0.061849	0.702913
H56	H	1.128799	0.076403	0.717032
C57	C	1.174414	-0.148709	0.722978
C58	C	1.093464	-0.096652	0.739083
H59	H	1.181805	-0.220329	0.753379
H60	H	1.182520	-0.159863	0.658972
H61	H	1.213831	-0.101242	0.745670
H62	H	1.054049	-0.144111	0.716380
H63	H	1.085351	-0.085508	0.803087
H64	H	0.880875	0.294939	0.412982
H65	H	0.421291	-0.034518	0.000067
H66	H	1.084763	0.014978	0.412989
