data_functionalizedCrystal
_audit_creation_method	'MofGen! by Chris Wilmer'
_symmetry_space_group_name_H-M	'P1'
_symmetry_Int_Tables_number	1
_symmetry_cell_setting	triclinic
loop_
_symmetry_equiv_pos_as_xyz
  x,y,z
_cell_length_a	16.959455
_cell_length_b	10.686285
_cell_length_c	10.686551
_cell_angle_alpha	99.084519
_cell_angle_beta	85.603811
_cell_angle_gamma	94.371379
loop_
_atom_site_label
_atom_site_type_symbol
_atom_site_fract_x
_atom_site_fract_y
_atom_site_fract_z
Zn1	Zn	1.262787	0.450274	-0.679005
Zn2	Zn	1.762787	0.950274	-0.179005
Zn3	Zn	1.262724	0.678854	-0.450503
Zn4	Zn	1.762724	1.178854	0.049497
Zn5	Zn	1.121183	0.466616	-0.466767
Zn6	Zn	1.621183	0.966616	0.033233
Zn7	Zn	1.140023	0.662461	-0.662706
Zn8	Zn	1.640023	1.162461	-0.162706
O9	O	1.196679	0.564551	-0.564745
O10	O	1.696679	1.064551	-0.064745
O11	O	1.373392	0.480618	-0.648708
O12	O	1.873392	0.980618	-0.148708
O13	O	1.236036	0.664400	-0.275030
O14	O	1.736036	1.164400	0.224970
O15	O	1.132109	0.286825	-0.508549
O16	O	1.632109	0.786825	-0.008549
O17	O	1.373345	0.648554	-0.480828
O18	O	1.873345	1.148554	0.019172
O19	O	1.236145	0.274819	-0.664479
O20	O	1.736145	0.774819	-0.164479
O21	O	1.132047	0.508469	-0.286979
O22	O	1.632047	1.008469	0.213021
O23	O	1.013069	0.492573	-0.492745
O24	O	1.513069	0.992573	0.007255
O25	O	1.164220	0.620614	-0.842499
O26	O	1.664220	1.120614	-0.342499
O27	O	1.026912	0.636460	-0.636700
O28	O	1.526912	1.136460	-0.136700
O29	O	1.254414	0.464722	-0.854473
O30	O	1.754414	0.964722	-0.354473
O31	O	1.254305	0.854303	-0.465024
O32	O	1.754305	1.354303	0.034976
O33	O	1.164158	0.842259	-0.620929
O34	O	1.664158	1.342259	-0.120929
C35	C	0.991310	0.564511	-0.564719
C36	C	1.491310	1.064511	-0.064719
C37	C	0.903455	0.564523	-0.564736
C38	C	1.403455	1.064523	-0.064736
C39	C	1.211292	0.894334	-0.539471
C40	C	1.711292	1.394334	-0.039471
C41	C	1.217617	1.035414	-0.528701
C42	C	1.717617	1.535414	-0.028701
C43	C	1.211426	0.539016	-0.895831
C44	C	1.711426	1.039016	-0.395831
C45	C	1.217710	0.528135	-1.036921
C46	C	1.717710	1.028135	-0.536921
C47	C	0.524753	0.489550	-0.489962
C48	C	1.024753	0.989550	0.010038
C49	C	0.539216	0.639651	-0.639593
C50	C	1.039216	1.139651	-0.139593
C51	C	0.621761	0.639634	-0.639587
C52	C	1.121761	1.139634	-0.139587
C53	C	0.655806	0.564574	-0.564766
C54	C	1.155806	1.064574	-0.064766
C55	C	0.607305	0.489533	-0.489951
C56	C	1.107305	0.989533	0.010049
C57	C	0.670267	0.714684	-0.714391
C58	C	1.170267	1.214684	-0.214391
C59	C	0.752817	0.714670	-0.714386
C60	C	1.252817	1.214670	-0.214386
C61	C	0.786863	0.639603	-0.639571
C62	C	1.286863	1.139603	-0.139571
C63	C	0.738358	0.564557	-0.564754
C64	C	1.238358	1.064557	-0.064754
C65	C	0.772402	0.489498	-0.489933
C66	C	1.272402	0.989498	0.010067
C67	C	0.723898	0.414445	-0.415122
C68	C	1.223898	0.914445	0.084878
C69	C	0.641351	0.414466	-0.415135
C70	C	1.141351	0.914466	0.084865
C71	C	0.869410	0.639582	-0.639557
C72	C	1.369410	1.139582	-0.139557
C73	C	0.854954	0.489481	-0.489921
C74	C	1.354954	0.989481	0.010079
C75	C	1.402851	0.564592	-0.564772
C76	C	1.902851	1.064592	-0.064772
C77	C	1.490709	0.564609	-0.564783
C78	C	1.990709	1.064609	-0.064783
C79	C	1.182032	0.233478	-0.590146
C80	C	1.682032	0.733478	-0.090146
C81	C	1.175791	0.092394	-0.600971
C82	C	1.675791	0.592394	-0.100971
C83	C	1.182031	0.589895	-0.234954
C84	C	1.682031	1.089895	0.265046
C85	C	1.175884	0.600419	-0.093893
C86	C	1.675884	1.100419	0.406107
H87	H	0.882667	0.428350	-0.429000
H88	H	1.382667	0.928350	0.071000
H89	H	1.135271	0.670633	-1.034732
H90	H	1.635271	1.170633	-0.534732
O91	O	1.271463	1.113746	-0.435806
O92	O	1.771463	1.613746	0.064194
H93	H	1.333331	1.086591	-0.459591
H94	H	1.833331	1.586591	0.040409
H95	H	0.751628	0.353338	-0.354196
H96	H	1.251628	0.853338	0.145804
O97	O	1.271502	0.435109	-1.115295
O98	O	1.771502	0.935109	-0.615295
H99	H	1.316888	0.487310	-1.171358
H100	H	1.816888	0.987310	-0.671358
O101	O	0.589040	0.333569	-0.334402
O102	O	1.089040	0.833569	0.165598
H103	H	0.525921	0.346220	-0.346955
H104	H	1.025921	0.846220	0.153045
H105	H	0.485258	0.428439	-0.429057
H106	H	0.985258	0.928439	0.070943
H107	H	0.511492	0.700769	-0.700501
H108	H	1.011492	1.200769	-0.200501
H109	H	0.642541	0.775802	-0.775296
H110	H	1.142541	1.275802	-0.275296
O111	O	1.121950	1.014062	-0.693860
O112	O	1.621950	1.514062	-0.193860
H113	H	1.125273	0.911828	-0.688042
H114	H	1.625273	1.411828	-0.188042
H115	H	0.792303	0.775782	-0.775303
H116	H	1.292303	1.275782	-0.275303
H117	H	0.908898	0.700693	-0.700463
H118	H	1.408898	1.200693	-0.200463
