data_functionalizedCrystal
_audit_creation_method	'MofGen! by Chris Wilmer'
_symmetry_space_group_name_H-M	'P1'
_symmetry_Int_Tables_number	1
_symmetry_cell_setting	triclinic
loop_
_symmetry_equiv_pos_as_xyz
  x,y,z
_cell_length_a	8.497374
_cell_length_b	21.395364
_cell_length_c	21.395361
_cell_angle_alpha	89.973528
_cell_angle_beta	89.984309
_cell_angle_gamma	90.003529
loop_
_atom_site_label
_atom_site_type_symbol
_atom_site_fract_x
_atom_site_fract_y
_atom_site_fract_z
Zn1	Zn	0.891953	0.957729	0.249618
Zn2	Zn	1.391953	1.457729	0.749618
Zn3	Zn	0.628122	0.957670	0.354367
Zn4	Zn	1.128122	1.457670	0.854367
Zn5	Zn	0.628172	0.852983	0.249600
Zn6	Zn	1.128172	1.352983	0.749600
Zn7	Zn	0.891845	0.852913	0.354354
Zn8	Zn	1.391845	1.352913	0.854354
O9	O	0.760023	0.905324	0.301985
O10	O	1.260023	1.405324	0.801985
O11	O	0.856979	1.045399	0.263526
O12	O	1.356979	1.545399	0.763526
O13	O	0.407366	0.943787	0.340467
O14	O	0.907366	1.443787	0.840467
O15	O	0.663229	0.866931	0.161924
O16	O	1.163229	1.366931	0.661924
O17	O	0.663144	1.045356	0.340485
O18	O	1.163144	1.545356	0.840485
O19	O	0.857027	0.943888	0.161938
O20	O	1.357027	1.443888	0.661938
O21	O	0.407403	0.866874	0.263495
O22	O	0.907403	1.366874	0.763495
O23	O	0.663124	0.765296	0.263482
O24	O	1.163124	1.265296	0.763482
O25	O	1.112622	0.866813	0.340463
O26	O	1.612622	1.366813	0.840463
O27	O	0.856844	0.765245	0.340445
O28	O	1.356844	1.265245	0.840445
O29	O	1.112701	0.943821	0.263514
O30	O	1.612701	1.443821	0.763514
O31	O	0.663040	0.943720	0.442043
O32	O	1.163040	1.443720	0.942043
O33	O	0.856796	0.866756	0.442034
O34	O	1.356796	1.366756	0.942034
C35	C	0.759979	0.742536	0.301961
C36	C	1.259979	1.242536	0.801961
C37	C	0.759997	0.672895	0.301965
C38	C	1.259997	1.172895	0.801965
C39	C	0.759935	0.905241	0.464772
C40	C	1.259935	1.405241	0.964772
C41	C	0.759950	0.905263	0.534414
C42	C	1.259950	1.405263	1.034414
C43	C	0.861140	0.171121	0.262007
C44	C	1.361140	0.671121	0.762007
C45	C	0.861139	0.236556	0.262002
C46	C	1.361139	0.736556	0.762002
C47	C	0.760058	0.269257	0.302004
C48	C	1.260058	0.769257	0.802004
C49	C	0.658999	0.236516	0.342025
C50	C	1.158999	0.736516	0.842025
C51	C	0.659013	0.171082	0.342032
C52	C	1.159013	0.671082	0.842032
C53	C	0.617880	0.372914	0.306850
C54	C	1.117880	0.872914	0.806850
C55	C	0.617863	0.438347	0.306837
C56	C	1.117863	0.938347	0.806837
C57	C	0.760015	0.471077	0.301983
C58	C	1.260015	0.971077	0.801983
C59	C	0.902188	0.438367	0.297128
C60	C	1.402188	0.938367	0.797128
C61	C	0.902202	0.372933	0.297136
C62	C	1.402202	0.872933	0.797136
C63	C	0.760032	0.340209	0.302000
C64	C	1.260032	0.840209	0.802000
C65	C	0.861075	0.574762	0.261963
C66	C	1.361075	1.074762	0.761963
C67	C	0.861077	0.640199	0.261963
C68	C	1.361077	1.140199	0.761963
C69	C	0.658923	0.640158	0.341982
C70	C	1.158923	1.140158	0.841982
C71	C	0.658935	0.574723	0.341985
C72	C	1.158935	1.074723	0.841985
C73	C	0.760009	0.542029	0.301972
C74	C	1.260009	1.042029	0.801972
C75	C	1.171503	0.905319	0.301986
C76	C	1.671503	1.405319	0.801986
C77	C	1.350147	0.905321	0.301992
C78	C	1.850147	1.405321	0.801992
C79	C	0.760068	1.068747	0.302009
C80	C	1.260068	1.568747	0.802009
C81	C	0.760087	1.138388	0.302020
C82	C	1.260087	1.638388	0.802020
C83	C	0.760145	0.905424	0.138561
C84	C	1.260145	1.405424	0.638561
C85	C	0.760198	0.905467	0.068920
C86	C	1.260198	1.405467	0.568920
C87	C	0.659165	0.945374	0.567111
C88	C	1.159165	1.445374	1.067111
C89	C	0.659200	0.945403	0.632546
C90	C	1.159200	1.445403	1.132546
C91	C	0.760004	0.905310	0.665282
C92	C	1.260004	1.405310	1.165282
C93	C	0.860810	0.865197	0.632577
C94	C	1.360810	1.365197	1.132577
C95	C	0.860782	0.865173	0.567142
C96	C	1.360782	1.365173	1.067142
C97	C	0.772367	0.848894	0.768993
C98	C	1.272367	1.348894	1.268993
C99	C	0.772383	0.848916	0.834426
C100	C	1.272383	1.348916	1.334426
C101	C	0.760097	0.905383	0.867103
C102	C	1.260097	1.405383	1.367103
C103	C	0.747762	0.961829	0.834338
C104	C	1.247762	1.461829	1.334338
C105	C	0.747735	0.961806	0.768904
C106	C	1.247735	1.461806	1.268904
C107	C	0.760046	0.905331	0.736234
C108	C	1.260046	1.405331	1.236234
C109	C	0.659344	0.945529	0.970752
C110	C	1.159344	1.445529	1.470752
C111	C	0.659391	0.945559	1.036189
C112	C	1.159391	1.445559	1.536189
C113	C	0.860992	0.865347	1.036218
C114	C	1.360992	1.365347	1.536218
C115	C	0.860954	0.865322	0.970783
C116	C	1.360954	1.365322	1.470783
C117	C	0.760121	0.905413	0.938054
C118	C	1.260121	1.405413	1.438054
H119	H	0.943449	0.144505	0.229428
H120	H	1.443449	0.644505	0.729428
H121	H	1.017964	0.346303	0.293184
H122	H	1.517964	0.846303	0.793184
Br123	Br	0.789114	0.772312	0.878886
Br124	Br	1.289114	1.272312	1.378886
H125	H	0.576633	0.666782	0.374557
H126	H	1.076633	1.166782	0.874557
H127	H	0.942888	0.832554	0.659234
H128	H	1.442888	1.332554	1.159234
Br129	Br	0.789048	0.772253	0.724654
Br130	Br	1.289048	1.272253	1.224654
Br131	Br	0.998251	0.684623	0.207662
Br132	Br	1.498251	1.184623	0.707662
H133	H	0.577245	0.978175	0.944104
H134	H	1.077245	1.478175	1.444104
Br135	Br	0.424945	0.328500	0.313452
Br136	Br	0.924945	0.828500	0.813452
H137	H	0.942856	0.832509	0.540520
H138	H	1.442856	1.332509	1.040520
H139	H	0.576702	0.263145	0.374596
H140	H	1.076702	0.763145	0.874596
Br141	Br	0.521855	0.126656	0.396338
Br142	Br	1.021855	0.626656	0.896338
H143	H	0.577065	0.978019	0.540465
H144	H	1.077065	1.478019	1.040465
Br145	Br	1.095120	0.482778	0.290527
Br146	Br	1.595120	0.982778	0.790527
H147	H	0.737758	1.007810	0.860941
H148	H	1.237758	1.507810	1.360941
Br149	Br	0.998245	0.530388	0.207662
Br150	Br	1.498245	1.030388	0.707662
H151	H	0.576640	0.548071	0.374565
H152	H	1.076640	1.048071	0.874565
H153	H	0.577129	0.978068	0.659174
H154	H	1.077129	1.478068	1.159174
Br155	Br	0.424915	0.482733	0.313411
Br156	Br	0.924915	0.982733	0.813411
Br157	Br	0.998290	0.280989	0.207695
Br158	Br	1.498290	0.780989	0.707695
Br159	Br	0.731006	1.038407	0.724439
Br160	Br	1.231006	1.538407	1.224439
Br161	Br	0.522614	1.000007	1.080566
Br162	Br	1.022614	1.500007	1.580566
H163	H	0.943076	0.832705	1.062871
H164	H	1.443076	1.332705	1.562871
H165	H	0.943016	0.832658	0.944159
H166	H	1.443016	1.332658	1.444159
