data_functionalizedCrystal
_audit_creation_method	'MofGen! by Chris Wilmer'
_symmetry_space_group_name_H-M	'P1'
_symmetry_Int_Tables_number	1
_symmetry_cell_setting	triclinic
loop_
_symmetry_equiv_pos_as_xyz
  x,y,z
_cell_length_a	27.732048
_cell_length_b	12.837943
_cell_length_c	11.295483
_cell_angle_alpha	94.538773
_cell_angle_beta	94.055952
_cell_angle_gamma	91.264202
loop_
_atom_site_label
_atom_site_type_symbol
_atom_site_fract_x
_atom_site_fract_y
_atom_site_fract_z
O1	O	0.122633	-1.380472	-0.099030
O2	O	0.116430	-1.078766	-0.099036
O3	O	0.049600	-1.238988	-0.099010
O4	O	0.189464	-1.220251	-0.099056
O5	O	0.055460	-1.224916	0.099039
O6	O	0.122290	-1.064694	0.099013
O7	O	0.128493	-1.366400	0.099019
Cu8	Cu	0.125927	-1.214262	0.117099
Cu9	Cu	0.118997	-1.230904	-0.117116
O10	O	0.195323	-1.206178	0.098993
C11	C	0.117265	-1.033143	-0.000012
C12	C	0.111016	-0.918166	-0.000013
C13	C	0.034504	-1.231558	0.000018
C14	C	-0.019210	-1.230373	0.000027
N15	N	0.130801	-1.202564	0.281834
C16	C	-0.353705	-1.317601	-0.000032
C17	C	-0.555583	-1.313207	-0.000049
O18	O	-0.582888	-1.392971	-0.000099
N19	N	-0.579414	-1.218201	-0.000050
C20	C	-0.552772	-1.124288	-0.000054
O21	O	-0.577674	-1.043380	-0.000067
C22	C	-0.350895	-1.128684	-0.000046
C23	C	-0.327067	-1.223695	-0.000033
C24	C	-0.329876	-1.412605	-0.000021
C25	C	-0.279410	-1.413702	-0.000010
C26	C	-0.252772	-1.319795	-0.000011
C27	C	-0.276600	-1.224792	-0.000022
C28	C	-0.324255	-1.034772	-0.000058
C29	C	-0.273783	-1.035879	-0.000059
C30	C	-0.249954	-1.130890	-0.000047
C31	C	-0.199496	-1.131982	-0.000012
N32	N	-0.175665	-1.226988	-0.000012
C33	C	-0.202303	-1.320895	-0.000011
C34	C	-0.658760	-1.121987	-0.000056
C35	C	-0.709229	-1.120887	-0.000056
C36	C	-0.712036	-1.309807	-0.000053
C37	C	-0.661566	-1.310905	-0.000045
C38	C	-0.634929	-1.216993	-0.000055
C39	C	-0.096319	-1.323191	0.000012
C40	C	-0.045848	-1.324279	0.000028
C41	C	-0.043045	-1.135361	0.000019
C42	C	-0.093512	-1.134271	0.000010
C43	C	-0.120148	-1.228195	0.000002
O44	O	-0.172160	-1.052262	0.000025
O45	O	-0.177392	-1.401793	-0.000024
C46	C	-0.404172	-1.316504	-0.000043
C47	C	-0.428000	-1.221501	-0.000054
C48	C	-0.401362	-1.127594	-0.000055
C49	C	-0.478469	-1.220401	-0.000054
C50	C	-0.505107	-1.314308	-0.000053
C51	C	-0.481276	-1.409314	-0.000053
C52	C	-0.430810	-1.410411	-0.000042
C53	C	-0.425193	-1.032588	-0.000056
C54	C	-0.475660	-1.031499	-0.000065
C55	C	-0.502298	-1.125405	-0.000064
C56	C	0.210420	-1.213608	-0.000037
C57	C	0.264133	-1.214794	-0.000055
C58	C	0.127658	-1.412023	-0.000008
C59	C	0.133908	-1.527001	-0.000015
C60	C	0.186144	-0.676005	-0.000020
C61	C	0.180275	-0.567973	-0.000021
C62	C	0.093407	-0.594068	-0.000005
C63	C	0.099277	-0.702100	-0.000005
C64	C	0.145647	-0.743064	-0.000014
C65	C	0.151516	-0.851099	-0.000023
C66	C	0.064649	-0.877191	0.000002
C67	C	0.058780	-0.769159	0.000001
N68	N	0.114119	-1.242610	-0.281851
C69	C	0.079005	-1.326818	0.531143
C70	C	0.082692	-1.317985	0.655805
C71	C	0.141860	-1.176062	0.655823
C72	C	0.138173	-1.184894	0.531160
C73	C	0.106745	-1.260276	0.468825
C74	C	0.103060	-1.269113	0.344160
C75	C	0.162225	-1.127185	0.344180
C76	C	0.165912	-1.118353	0.468842
H77	H	-0.026449	-1.401652	0.000041
O78	O	0.069162	-1.350406	0.276918
H79	H	0.050488	-1.395183	0.341201
H80	H	0.167444	-1.114681	0.706592
O81	O	0.045111	-1.408116	0.463897
H82	H	0.026439	-1.452902	0.528175
O83	O	0.052780	-1.389764	0.723026
H84	H	0.030312	-1.443670	0.658732
H85	H	0.191499	-1.056976	0.519610
H86	H	-0.728625	-1.043518	-0.000045
H87	H	0.031673	-0.931804	-0.000001
O88	O	0.192145	-1.055401	0.276969
H89	H	0.184299	-1.074199	0.179810
O90	O	0.223954	-0.495642	-0.000019
H91	H	0.220972	-0.451524	-0.080734
O92	O	-0.125043	-1.424492	0.000026
H93	H	-0.118407	-1.475743	-0.080681
O94	O	-0.253712	-1.516180	-0.000031
H95	H	-0.280721	-1.581287	-0.000052
H96	H	-0.351560	-1.489079	-0.000025
H97	H	-0.495056	-0.954123	-0.000065
H98	H	0.189273	-0.884449	-0.000028
O99	O	0.008768	-0.724976	0.000012
H100	H	0.011489	-0.638588	0.000006
H101	H	-0.642169	-1.388271	-0.000035
H102	H	-0.733734	-1.386270	-0.000052
O103	O	-0.630035	-1.020683	-0.000041
H104	H	-0.641437	-0.980902	-0.080752
O105	O	-0.349949	-0.932295	-0.000076
H106	H	-0.322940	-0.867193	-0.000092
O107	O	-0.245052	-0.934585	-0.000057
H108	H	-0.270103	-0.868341	-0.000054
O109	O	-0.396464	-0.931297	-0.000035
H110	H	-0.421518	-0.865057	-0.000023
H111	H	-0.112913	-1.056903	0.000032
O112	O	-0.510015	-1.510598	-0.000052
H113	H	-0.498627	-1.550367	0.080676
O114	O	0.236155	-0.720194	-0.000026
H115	H	0.253470	-0.698934	-0.080748
O116	O	-0.014310	-1.034077	0.000017
H117	H	0.024786	-1.050812	0.000012
H118	H	-0.411413	-1.487779	-0.000032
H119	H	0.055658	-0.560689	0.000101
