data_functionalizedCrystal
_audit_creation_method	'MofGen! by Chris Wilmer'
_symmetry_space_group_name_H-M	'P1'
_symmetry_Int_Tables_number	1
_symmetry_cell_setting	triclinic
loop_
_symmetry_equiv_pos_as_xyz
  x,y,z
_cell_length_a	19.188964
_cell_length_b	19.288865
_cell_length_c	18.366186
_cell_angle_alpha	90.011479
_cell_angle_beta	89.997799
_cell_angle_gamma	96.852527
loop_
_atom_site_label
_atom_site_type_symbol
_atom_site_fract_x
_atom_site_fract_y
_atom_site_fract_z
O1	O	0.926128	-0.086830	-0.060442
O2	O	1.176128	0.163170	0.189558
O3	O	1.426128	0.413170	0.439558
O4	O	1.676128	0.663170	0.689558
O5	O	0.722819	-0.098479	-0.060470
O6	O	0.972819	0.151521	0.189530
O7	O	1.222819	0.401521	0.439530
O8	O	1.472819	0.651521	0.689530
O9	O	0.830348	0.008474	-0.060441
O10	O	1.080348	0.258474	0.189559
O11	O	1.330348	0.508474	0.439559
O12	O	1.580348	0.758474	0.689559
O13	O	0.818598	-0.193784	-0.060471
O14	O	1.068598	0.056216	0.189529
O15	O	1.318598	0.306216	0.439529
O16	O	1.568598	0.556216	0.689529
O17	O	0.830330	0.008480	0.060659
O18	O	1.080330	0.258480	0.310659
O19	O	1.330330	0.508480	0.560659
O20	O	1.580330	0.758480	0.810659
O21	O	0.722800	-0.098474	0.060629
O22	O	0.972800	0.151526	0.310629
O23	O	1.222800	0.401526	0.560629
O24	O	1.472800	0.651526	0.810629
O25	O	0.926109	-0.086825	0.060657
O26	O	1.176109	0.163175	0.310657
O27	O	1.426109	0.413175	0.560657
O28	O	1.676109	0.663175	0.810657
Zn29	Zn	0.824452	-0.092649	0.079870
Zn30	Zn	1.074452	0.157351	0.329870
Zn31	Zn	1.324452	0.407351	0.579870
Zn32	Zn	1.574452	0.657351	0.829870
Zn33	Zn	0.824476	-0.092656	-0.079683
Zn34	Zn	1.074476	0.157344	0.170317
Zn35	Zn	1.324476	0.407344	0.420317
Zn36	Zn	1.574476	0.657344	0.670317
O37	O	0.818580	-0.193779	0.060628
O38	O	1.068580	0.056221	0.310628
O39	O	1.318580	0.306221	0.560628
O40	O	1.568580	0.556221	0.810628
C41	C	0.696799	-0.098095	0.000076
C42	C	0.946799	0.151905	0.250076
C43	C	1.196799	0.401905	0.500076
C44	C	1.446799	0.651905	0.750076
C45	C	0.619296	-0.096951	0.000066
C46	C	0.869296	0.153049	0.250066
C47	C	1.119296	0.403049	0.500066
C48	C	1.369296	0.653049	0.750066
C49	C	0.829961	0.034353	0.000111
C50	C	1.079961	0.284353	0.250111
C51	C	1.329961	0.534353	0.500111
C52	C	1.579961	0.784353	0.750111
C53	C	0.828826	0.111457	0.000117
C54	C	1.078826	0.361457	0.250117
C55	C	1.328826	0.611457	0.500117
C56	C	1.578826	0.861457	0.750117
C57	C	0.952129	-0.087209	0.000109
C58	C	1.202129	0.162791	0.250109
C59	C	1.452129	0.412791	0.500109
C60	C	1.702129	0.662791	0.750109
C61	C	1.029632	-0.088353	0.000115
C62	C	1.279632	0.161647	0.250115
C63	C	1.529632	0.411647	0.500115
C64	C	1.779632	0.661647	0.750115
C65	C	1.066035	-0.088892	-0.065898
C66	C	1.316035	0.161108	0.184102
C67	C	1.566035	0.411108	0.434102
C68	C	1.816035	0.661108	0.684102
C69	C	1.138860	-0.089949	-0.065906
C70	C	1.388860	0.160051	0.184094
C71	C	1.638860	0.410051	0.434094
C72	C	1.888860	0.660051	0.684094
C73	C	1.175277	-0.090481	0.000103
C74	C	1.425277	0.159519	0.250103
C75	C	1.675277	0.409519	0.500103
C76	C	1.925277	0.659519	0.750103
C77	C	1.138866	-0.089937	0.066124
C78	C	1.388866	0.160063	0.316124
C79	C	1.638866	0.410063	0.566124
C80	C	1.888866	0.660063	0.816124
C81	C	1.066043	-0.088874	0.066130
C82	C	1.316043	0.161126	0.316130
C83	C	1.566043	0.411126	0.566130
C84	C	1.816043	0.661126	0.816130
N85	N	1.284303	-0.131675	0.049222
N86	N	1.534303	0.118325	0.299222
N87	N	1.784303	0.368325	0.549222
N88	N	2.034303	0.618325	0.799222
N89	N	1.353481	-0.132687	0.049211
N90	N	1.603481	0.117313	0.299211
N91	N	1.853481	0.367313	0.549211
N92	N	2.103481	0.617313	0.799211
C93	C	1.394688	-0.093684	0.000088
C94	C	1.644688	0.156316	0.250088
C95	C	1.894688	0.406316	0.500088
C96	C	2.144688	0.656316	0.750088
N97	N	1.364102	-0.053640	-0.049035
N98	N	1.614102	0.196360	0.200965
N99	N	1.864102	0.446360	0.450965
N100	N	2.114102	0.696360	0.700965
N101	N	1.294917	-0.052631	-0.049027
N102	N	1.544917	0.197369	0.200973
N103	N	1.794917	0.447369	0.450973
N104	N	2.044917	0.697369	0.700973
C105	C	1.254241	-0.091634	0.000103
C106	C	1.504241	0.158366	0.250103
C107	C	1.754241	0.408366	0.500103
C108	C	2.004241	0.658366	0.750103
C109	C	1.510057	-0.095368	-0.065938
C110	C	1.760057	0.154632	0.184062
C111	C	2.010057	0.404632	0.434062
C112	C	2.260057	0.654632	0.684062
C113	C	1.582884	-0.096421	-0.065943
C114	C	1.832884	0.153579	0.184057
C115	C	2.082884	0.403579	0.434057
C116	C	2.332884	0.653579	0.684057
C117	C	1.582887	-0.096416	0.066089
C118	C	1.832887	0.153584	0.316089
C119	C	2.082887	0.403584	0.566089
C120	C	2.332887	0.653584	0.816089
C121	C	1.510062	-0.095357	0.066092
C122	C	1.760062	0.154643	0.316092
C123	C	2.010062	0.404643	0.566092
C124	C	2.260062	0.654643	0.816092
C125	C	1.473651	-0.094836	0.000077
C126	C	1.723651	0.155164	0.250077
C127	C	1.973651	0.405164	0.500077
C128	C	2.223651	0.655164	0.750077
C129	C	0.818967	-0.219658	0.000075
C130	C	1.068967	0.030342	0.250075
C131	C	1.318967	0.280342	0.500075
C132	C	1.568967	0.530342	0.750075
C133	C	0.820102	-0.296762	0.000064
C134	C	1.070102	-0.046762	0.250064
C135	C	1.320102	0.203238	0.500064
C136	C	1.570102	0.453238	0.750064
N137	N	0.824441	-0.092644	0.188762
N138	N	1.074441	0.157356	0.438762
N139	N	1.324441	0.407356	0.688762
N140	N	1.574441	0.657356	0.938762
C141	C	0.891919	0.156141	0.000130
C142	C	1.141919	0.406141	0.250130
C143	C	1.391919	0.656141	0.500130
C144	C	1.641919	0.906141	0.750130
C145	C	0.890853	0.228588	0.000118
C146	C	1.140853	0.478588	0.250118
C147	C	1.390853	0.728588	0.500118
C148	C	1.640853	0.978588	0.750118
C149	C	0.826690	0.256349	0.000109
C150	C	1.076690	0.506349	0.250109
C151	C	1.326690	0.756349	0.500109
C152	C	1.576690	1.006349	0.750109
C153	C	0.763588	0.211655	0.000092
C154	C	1.013588	0.461655	0.250092
C155	C	1.263588	0.711655	0.500092
C156	C	1.513588	0.961655	0.750092
C157	C	0.764656	0.139209	0.000097
C158	C	1.014656	0.389209	0.250097
C159	C	1.264656	0.639209	0.500097
C160	C	1.514656	0.889209	0.750097
C161	C	0.776244	0.364648	0.042520
C162	C	1.026244	0.614648	0.292520
C163	C	1.276244	0.864648	0.542520
C164	C	1.526244	1.114648	0.792520
C165	C	0.775179	0.437092	0.042520
C166	C	1.025179	0.687092	0.292520
C167	C	1.275179	0.937092	0.542520
C168	C	1.525179	1.187092	0.792520
C169	C	0.823393	0.479795	0.000092
C170	C	1.073393	0.729795	0.250092
C171	C	1.323393	0.979795	0.500092
C172	C	1.573393	1.229795	0.750092
C173	C	0.872685	0.450045	-0.042327
C174	C	1.122685	0.700045	0.207673
C175	C	1.372685	0.950045	0.457673
C176	C	1.622685	1.200045	0.707673
C177	C	0.873753	0.377600	-0.042323
C178	C	1.123753	0.627600	0.207677
C179	C	1.373753	0.877600	0.457677
C180	C	1.623753	1.127600	0.707677
C181	C	0.825525	0.334903	0.000103
C182	C	1.075525	0.584903	0.250103
C183	C	1.325525	0.834903	0.500103
C184	C	1.575525	1.084903	0.750103
C185	C	0.885335	0.603035	0.000090
C186	C	1.135335	0.853035	0.250090
C187	C	1.385335	1.103035	0.500090
C188	C	1.635335	1.353035	0.750090
C189	C	0.884266	0.675483	0.000074
C190	C	1.134266	0.925483	0.250074
C191	C	1.384266	1.175483	0.500074
C192	C	1.634266	1.425483	0.750074
C193	C	0.757000	0.658548	0.000056
C194	C	1.007000	0.908548	0.250056
C195	C	1.257000	1.158548	0.500056
C196	C	1.507000	1.408548	0.750056
C197	C	0.758070	0.586101	0.000065
C198	C	1.008070	0.836101	0.250065
C199	C	1.258070	1.086101	0.500065
C200	C	1.508070	1.336101	0.750065
C201	C	0.822240	0.558349	0.000085
C202	C	1.072240	0.808349	0.250085
C203	C	1.322240	1.058349	0.500085
C204	C	1.572240	1.308349	0.750085
N205	N	0.824493	-0.092655	-0.188574
N206	N	1.074493	0.157345	0.061426
N207	N	1.324493	0.407345	0.311426
N208	N	1.574493	0.657345	0.561426
C209	C	0.872070	-0.045308	0.226875
C210	C	1.122070	0.204692	0.476875
C211	C	1.372070	0.454692	0.726875
C212	C	1.622070	0.704692	0.976875
C213	C	0.872075	-0.045305	0.303103
C214	C	1.122075	0.204695	0.553103
C215	C	1.372075	0.454695	0.803103
C216	C	1.622075	0.704695	1.053103
C217	C	0.824456	-0.092649	0.341214
C218	C	1.074456	0.157351	0.591214
C219	C	1.324456	0.407351	0.841214
C220	C	1.574456	0.657351	1.091214
C221	C	0.776818	-0.139989	0.303092
C222	C	1.026818	0.110011	0.553092
C223	C	1.276818	0.360011	0.803092
C224	C	1.526818	0.610011	1.053092
C225	C	0.776810	-0.139986	0.226865
C226	C	1.026810	0.110014	0.476865
C227	C	1.276810	0.360014	0.726865
C228	C	1.526810	0.610014	0.976865
C229	C	0.815110	-0.155935	0.461964
C230	C	1.065110	0.094065	0.711964
C231	C	1.315110	0.344065	0.961964
C232	C	1.565110	0.594065	1.211964
C233	C	0.815122	-0.155939	0.538189
C234	C	1.065122	0.094061	0.788189
C235	C	1.315122	0.344061	1.038189
C236	C	1.565122	0.594061	1.288189
C237	C	0.824476	-0.092658	0.576322
C238	C	1.074476	0.157342	0.826322
C239	C	1.324476	0.407342	1.076322
C240	C	1.574476	0.657342	1.326322
C241	C	0.833832	-0.029370	0.538220
C242	C	1.083832	0.220630	0.788220
C243	C	1.333832	0.470630	1.038220
C244	C	1.583832	0.720630	1.288220
C245	C	0.833824	-0.029368	0.461994
C246	C	1.083824	0.220632	0.711994
C247	C	1.333824	0.470632	0.961994
C248	C	1.583824	0.720632	1.211994
C249	C	0.824459	-0.092657	0.423869
C250	C	1.074459	0.157343	0.673869
C251	C	1.324459	0.407343	0.923869
C252	C	1.574459	0.657343	1.173869
C253	C	0.872113	-0.045315	0.697090
C254	C	1.122113	0.204685	0.947090
C255	C	1.372113	0.454685	1.197090
C256	C	1.622113	0.704685	1.447090
C257	C	0.872112	-0.045311	0.773319
C258	C	1.122112	0.204689	1.023319
C259	C	1.372112	0.454689	1.273319
C260	C	1.622112	0.704689	1.523319
C261	C	0.776859	-0.140001	0.773307
C262	C	1.026859	0.109999	1.023307
C263	C	1.276859	0.359999	1.273307
C264	C	1.526859	0.609999	1.523307
C265	C	0.776856	-0.139999	0.697079
C266	C	1.026856	0.110001	0.947079
C267	C	1.276856	0.360001	1.197079
C268	C	1.526856	0.610001	1.447079
C269	C	0.824487	-0.092657	0.658975
C270	C	1.074487	0.157343	0.908975
C271	C	1.324487	0.407343	1.158975
C272	C	1.574487	0.657343	1.408975
H273	H	1.036394	-0.088466	-0.119653
H274	H	1.286394	0.161534	0.130347
H275	H	1.536394	0.411534	0.380347
H276	H	1.786394	0.661534	0.630347
H277	H	0.841440	0.022163	0.430974
H278	H	1.091440	0.272163	0.680974
H279	H	1.341440	0.522163	0.930974
H280	H	1.591440	0.772163	1.180974
Cl281	Cl	0.678748	0.529924	0.000053
Cl282	Cl	0.928748	0.779924	0.250053
Cl283	Cl	1.178748	1.029924	0.500053
Cl284	Cl	1.428748	1.279924	0.750053
Cl285	Cl	1.184647	-0.090603	0.149106
Cl286	Cl	1.434647	0.159397	0.399106
Cl287	Cl	1.684647	0.409397	0.649106
Cl288	Cl	1.934647	0.659397	0.899106
H289	H	0.711346	0.234262	0.000083
H290	H	0.961346	0.484262	0.250083
H291	H	1.211346	0.734262	0.500083
H292	H	1.461346	0.984262	0.750083
Cl293	Cl	1.184634	-0.090629	-0.148900
Cl294	Cl	1.434634	0.159371	0.101100
Cl295	Cl	1.684634	0.409371	0.351100
Cl296	Cl	1.934634	0.659371	0.601100
Cl297	Cl	0.931943	0.014210	0.178974
Cl298	Cl	1.181943	0.264210	0.428974
Cl299	Cl	1.431943	0.514210	0.678974
Cl300	Cl	1.681943	0.764210	0.928974
H301	H	0.738045	-0.178537	0.334126
H302	H	0.988045	0.071463	0.584126
H303	H	1.238045	0.321463	0.834126
H304	H	1.488045	0.571463	1.084126
H305	H	0.807481	-0.207470	0.430923
H306	H	1.057481	0.042530	0.680923
H307	H	1.307481	0.292530	0.930923
H308	H	1.557481	0.542530	1.180923
Cl309	Cl	1.020277	-0.088199	0.149124
Cl310	Cl	1.270277	0.161801	0.399124
Cl311	Cl	1.520277	0.411801	0.649124
Cl312	Cl	1.770277	0.661801	0.899124
Cl313	Cl	1.464280	-0.094709	-0.148926
Cl314	Cl	1.714280	0.155291	0.101074
Cl315	Cl	1.964280	0.405291	0.351074
Cl316	Cl	2.214280	0.655291	0.601074
Cl317	Cl	1.628649	-0.097092	-0.148938
Cl318	Cl	1.878649	0.152908	0.101062
Cl319	Cl	2.128649	0.402908	0.351062
Cl320	Cl	2.378649	0.652908	0.601062
Cl321	Cl	1.628663	-0.097073	0.149072
Cl322	Cl	1.878663	0.152927	0.399072
Cl323	Cl	2.128663	0.402927	0.649072
Cl324	Cl	2.378663	0.652927	0.899072
H325	H	0.738085	-0.178547	0.804337
H326	H	0.988085	0.071453	1.054337
H327	H	1.238085	0.321453	1.304337
H328	H	1.488085	0.571453	1.554337
H329	H	1.480422	-0.094920	0.119847
H330	H	1.730422	0.155080	0.369847
H331	H	1.980422	0.405080	0.619847
H332	H	2.230422	0.655080	0.869847
Cl333	Cl	0.931958	0.014208	0.351025
Cl334	Cl	1.181958	0.264208	0.601025
Cl335	Cl	1.431958	0.514208	0.851025
Cl336	Cl	1.681958	0.764208	1.101025
H337	H	0.735039	0.461308	0.077056
H338	H	0.985039	0.711308	0.327056
H339	H	1.235039	0.961308	0.577056
H340	H	1.485039	1.211308	0.827056
H341	H	0.841448	0.022159	0.569266
H342	H	1.091448	0.272159	0.819266
H343	H	1.341448	0.522159	1.069266
H344	H	1.591448	0.772159	1.319266
H345	H	0.910895	-0.006764	0.666065
H346	H	1.160895	0.243236	0.916065
H347	H	1.410895	0.493236	1.166065
H348	H	1.660895	0.743236	1.416065
H349	H	0.944171	0.133551	0.000144
H350	H	1.194171	0.383551	0.250144
H351	H	1.444171	0.633551	0.500144
H352	H	1.694171	0.883551	0.750144
H353	H	0.942232	0.264977	0.000125
H354	H	1.192232	0.514977	0.250125
H355	H	1.442232	0.764977	0.500125
H356	H	1.692232	1.014977	0.750125
H357	H	0.913887	0.353380	-0.076863
H358	H	1.163887	0.603380	0.173137
H359	H	1.413887	0.853380	0.423137
H360	H	1.663887	1.103380	0.673137
H361	H	0.713277	0.102827	0.000087
H362	H	0.963277	0.352827	0.250087
H363	H	1.213277	0.602827	0.500087
H364	H	1.463277	0.852827	0.750087
Cl365	Cl	0.963591	0.731659	0.000085
Cl366	Cl	1.213591	0.981659	0.250085
Cl367	Cl	1.463591	1.231659	0.500085
Cl368	Cl	1.713591	1.481659	0.750085
H369	H	0.704757	0.681149	0.000045
H370	H	0.954757	0.931149	0.250045
H371	H	1.204757	1.181149	0.500045
H372	H	1.454757	1.431149	0.750045
Cl373	Cl	0.933301	0.503720	-0.095671
Cl374	Cl	1.183301	0.753720	0.154329
Cl375	Cl	1.433301	1.003720	0.404329
Cl376	Cl	1.683301	1.253720	0.654329
H377	H	0.910896	-0.006761	0.804352
H378	H	1.160896	0.243239	1.054352
H379	H	1.410896	0.493239	1.304352
H380	H	1.660896	0.743239	1.554352
H381	H	0.738075	-0.178547	0.666045
H382	H	0.988075	0.071453	0.916045
H383	H	1.238075	0.321453	1.166045
H384	H	1.488075	0.571453	1.416045
Cl385	Cl	0.966003	0.568143	0.000121
Cl386	Cl	1.216003	0.818143	0.250121
Cl387	Cl	1.466003	1.068143	0.500121
Cl388	Cl	1.716003	1.318143	0.750121
H389	H	0.807509	-0.207472	0.569206
H390	H	1.057509	0.042528	0.819206
H391	H	1.307509	0.292528	1.069206
H392	H	1.557509	0.542528	1.319206
H393	H	0.736980	0.329884	0.077074
H394	H	0.986980	0.579884	0.327074
H395	H	1.236980	0.829884	0.577074
H396	H	1.486980	1.079884	0.827074
Cl397	Cl	0.716929	-0.199499	0.178948
Cl398	Cl	0.966929	0.050501	0.428948
Cl399	Cl	1.216929	0.300501	0.678948
Cl400	Cl	1.466929	0.550501	0.928948
