data_functionalizedCrystal
_audit_creation_method	'MofGen! by Chris Wilmer'
_symmetry_space_group_name_H-M	'P1'
_symmetry_Int_Tables_number	1
_symmetry_cell_setting	triclinic
loop_
_symmetry_equiv_pos_as_xyz
  x,y,z
_cell_length_a	9.065215
_cell_length_b	17.699092
_cell_length_c	7.540329
_cell_angle_alpha	89.998097
_cell_angle_beta	89.997574
_cell_angle_gamma	84.150533
loop_
_atom_site_label
_atom_site_type_symbol
_atom_site_fract_x
_atom_site_fract_y
_atom_site_fract_z
O1	O	1.957119	0.110962	-0.147454
O2	O	1.527564	0.120067	-0.147462
O3	O	1.754471	0.005420	-0.147454
O4	O	1.730212	0.225609	-0.147462
O5	O	1.754458	0.005419	0.147511
O6	O	1.527551	0.120065	0.147503
O7	O	1.957105	0.110960	0.147511
Cu8	Cu	1.742327	0.115513	0.174440
Cu9	Cu	1.742343	0.115515	-0.174391
O10	O	1.730198	0.225607	0.147503
C11	C	1.472597	0.119192	0.000020
C12	C	1.308831	0.116577	0.000017
C13	C	1.753593	-0.022784	0.000026
C14	C	1.750979	-0.106822	0.000018
C15	C	1.749762	-0.146299	-0.160770
C16	C	1.747296	-0.225261	-0.160772
C17	C	1.746059	-0.264746	0.000015
C18	C	1.747272	-0.225264	0.160815
C19	C	1.749727	-0.146303	0.160815
C20	C	1.737369	-0.543706	0.160818
C21	C	1.734918	-0.622673	0.160805
C22	C	1.734939	-0.622664	-0.160770
C23	C	1.737394	-0.543703	-0.160770
C24	C	1.738599	-0.504227	0.000029
C25	C	1.741269	-0.418608	0.000030
C26	C	1.743398	-0.350365	0.000017
C27	C	2.012073	0.111836	0.000025
C28	C	2.175839	0.114451	0.000017
C29	C	1.731076	0.253812	0.000019
C30	C	1.733690	0.337850	0.000016
N31	N	1.742326	0.115511	0.419788
N32	N	1.742355	0.115510	-0.419739
H33	H	1.746311	-0.257399	-0.291701
C34	C	1.746007	-0.268272	0.335203
C35	C	1.743644	-0.345876	0.300794
C36	C	1.742507	-0.385519	0.461400
H37	H	1.660433	-0.250247	0.401407
H38	H	1.832437	-0.260557	0.401279
H39	H	1.657223	-0.353587	0.234747
H40	H	1.829210	-0.363924	0.234617
H41	H	1.828937	-0.377803	0.527476
H42	H	1.656932	-0.367487	0.527591
H43	H	1.740917	-0.438177	0.438076
C44	C	1.750743	-0.103377	0.335327
C45	C	1.625256	-0.050417	0.344719
C46	C	1.626122	-0.010866	0.505465
H47	H	1.837593	-0.077685	0.342187
H48	H	1.749575	-0.138168	0.431147
H49	H	1.626436	-0.015630	0.248926
H50	H	1.538386	-0.076089	0.337890
H51	H	1.624954	-0.045657	0.601284
H52	H	1.712977	0.014821	0.512310
H53	H	1.540974	0.025067	0.511865
C54	C	1.733296	-0.665552	-0.335295
C55	C	1.604990	-0.703218	-0.344700
C56	C	1.603418	-0.742726	-0.505445
H57	H	1.818226	-0.701596	-0.342147
H58	H	1.734307	-0.630751	-0.431114
H59	H	1.603993	-0.738015	-0.248907
H60	H	1.520039	-0.667191	-0.337879
H61	H	1.604428	-0.707925	-0.601265
H62	H	1.688353	-0.778766	-0.512283
H63	H	1.516358	-0.768281	-0.511855
H64	H	1.750777	-0.114156	-0.291702
H65	H	1.738408	-0.511558	-0.291699
H66	H	1.733907	-0.654820	0.291745
H67	H	1.738380	-0.511577	0.291750
