data_functionalizedCrystal
_audit_creation_method	'MofGen! by Chris Wilmer'
_symmetry_space_group_name_H-M	'P1'
_symmetry_Int_Tables_number	1
_symmetry_cell_setting	triclinic
loop_
_symmetry_equiv_pos_as_xyz
  x,y,z
_cell_length_a	21.395362
_cell_length_b	12.645330
_cell_length_c	21.395355
_cell_angle_alpha	89.985534
_cell_angle_beta	89.956060
_cell_angle_gamma	90.028525
loop_
_atom_site_label
_atom_site_type_symbol
_atom_site_fract_x
_atom_site_fract_y
_atom_site_fract_z
Zn1	Zn	0.957938	-0.421713	-0.354603
Zn2	Zn	1.457938	0.078287	0.145397
Zn3	Zn	0.957874	-0.598962	-0.249833
Zn4	Zn	1.457874	-0.098962	0.250167
Zn5	Zn	0.853153	-0.421762	-0.249805
Zn6	Zn	1.353153	0.078238	0.250195
Zn7	Zn	0.853155	-0.598984	-0.354538
Zn8	Zn	1.353155	-0.098984	0.145462
O9	O	0.905530	-0.510355	-0.302195
O10	O	1.405530	-0.010355	0.197805
O11	O	1.045607	-0.445196	-0.340745
O12	O	1.545607	0.054804	0.159255
O13	O	0.943954	-0.575468	-0.162151
O14	O	1.443954	-0.075468	0.337849
O15	O	0.867079	-0.273408	-0.263722
O16	O	1.367079	0.226592	0.236278
O17	O	1.045560	-0.575420	-0.263771
O18	O	1.545560	-0.075420	0.236229
O19	O	0.944064	-0.273372	-0.340717
O20	O	1.444064	0.226628	0.159283
O21	O	0.867017	-0.445280	-0.162130
O22	O	1.367017	0.054720	0.337870
O23	O	0.765475	-0.445301	-0.263658
O24	O	1.265475	0.054699	0.236342
O25	O	0.867083	-0.575457	-0.442225
O26	O	1.367083	-0.075457	0.057775
O27	O	0.765477	-0.575505	-0.340605
O28	O	1.265477	-0.075505	0.159395
O29	O	0.944066	-0.445217	-0.442273
O30	O	1.444066	0.054783	0.057727
O31	O	0.943956	-0.747312	-0.263707
O32	O	1.443956	-0.247312	0.236293
O33	O	0.867020	-0.747328	-0.340633
O34	O	1.367020	-0.247328	0.159367
C35	C	0.742742	-0.510411	-0.302122
C36	C	1.242742	-0.010411	0.197878
C37	C	0.673101	-0.510461	-0.302106
C38	C	1.173101	-0.010461	0.197894
C39	C	0.640405	-0.578348	-0.342112
C40	C	1.140405	-0.078348	0.157888
C41	C	0.574970	-0.578322	-0.342140
C42	C	1.074970	-0.078322	0.157860
C43	C	0.542233	-0.510420	-0.302150
C44	C	1.042233	-0.010420	0.197850
C45	C	0.574937	-0.442520	-0.262141
C46	C	1.074937	0.057480	0.237859
C47	C	0.640371	-0.442540	-0.262119
C48	C	1.140371	0.057460	0.237881
C49	C	0.438506	-0.501880	-0.245745
C50	C	0.938506	-0.001880	0.254255
C51	C	0.373073	-0.501867	-0.245766
C52	C	0.873073	-0.001867	0.254234
C53	C	0.340412	-0.510351	-0.302220
C54	C	0.840412	-0.010351	0.197780
C55	C	0.373192	-0.518870	-0.358654
C56	C	0.873192	-0.018870	0.141346
C57	C	0.438626	-0.518890	-0.358631
C58	C	0.938626	-0.018890	0.141369
C59	C	0.471280	-0.510390	-0.302170
C60	C	0.971280	-0.010390	0.197830
C61	C	0.236764	-0.578213	-0.342260
C62	C	0.736764	-0.078213	0.157740
C63	C	0.171327	-0.578180	-0.342289
C64	C	0.671327	-0.078180	0.157711
C65	C	0.171295	-0.442383	-0.262284
C66	C	0.671295	0.057617	0.237716
C67	C	0.236730	-0.442411	-0.262261
C68	C	0.736730	0.057589	0.237739
C69	C	0.269461	-0.510332	-0.302248
C70	C	0.769461	-0.010332	0.197752
C71	C	0.905499	-0.785785	-0.302180
C72	C	1.405499	-0.285785	0.197820
C73	C	0.905542	-0.903615	-0.302195
C74	C	1.405542	-0.403615	0.197805
C75	C	0.953865	-1.071125	-0.253702
C76	C	1.453865	-0.571125	0.246298
C77	C	0.954023	-0.948564	-0.253821
C78	C	1.454023	-0.448564	0.246179
C79	C	0.923453	-0.948013	-0.368245
C80	C	1.423453	-0.448013	0.131755
C81	C	0.923837	-1.070611	-0.367988
C82	C	1.423837	-0.570611	0.132012
C83	C	0.839290	-1.070967	-0.285287
C84	C	1.339290	-0.570967	0.214713
C85	C	0.839607	-0.948362	-0.283806
C86	C	1.339607	-0.448362	0.216194
C87	C	1.068953	-0.510300	-0.302268
C88	C	1.568953	-0.010300	0.197732
C89	C	1.138595	-0.510276	-0.302299
C90	C	1.638595	-0.010276	0.197701
C91	C	0.905582	-0.510334	-0.465618
C92	C	1.405582	-0.010334	0.034382
C93	C	0.905604	-0.510325	-0.535259
C94	C	1.405604	-0.010325	-0.035259
C95	C	0.905579	-0.233850	-0.302223
C96	C	1.405579	0.266150	0.197777
C97	C	0.905599	-0.116020	-0.302236
C98	C	1.405599	0.383980	0.197764
C99	C	0.945688	-0.442506	-0.567999
C100	C	1.445688	0.057494	-0.067999
C101	C	0.945687	-0.442460	-0.633434
C102	C	1.445687	0.057540	-0.133434
C103	C	0.905609	-0.510252	-0.666128
C104	C	1.405609	-0.010252	-0.166128
C105	C	0.865518	-0.578076	-0.633381
C106	C	1.365518	-0.078076	-0.133381
C107	C	0.865515	-0.578112	-0.567947
C108	C	1.365515	-0.078112	-0.067947
C109	C	0.900651	-0.605707	-0.769796
C110	C	1.400651	-0.105707	-0.269796
C111	C	0.900658	-0.605673	-0.835229
C112	C	1.400658	-0.105673	-0.335229
C113	C	0.905613	-0.510140	-0.867949
C114	C	1.405613	-0.010140	-0.367949
C115	C	0.910574	-0.414639	-0.835228
C116	C	1.410574	0.085361	-0.335228
C117	C	0.910572	-0.414675	-0.769793
C118	C	1.410572	0.085325	-0.269793
C119	C	0.905607	-0.510220	-0.737080
C120	C	1.405607	-0.010220	-0.237080
C121	C	0.945698	-0.442266	-0.971640
C122	C	1.445698	0.057734	-0.471640
C123	C	0.945692	-0.442219	-1.037077
C124	C	1.445692	0.057781	-0.537077
C125	C	0.865526	-0.577844	-1.037023
C126	C	1.365526	-0.077844	-0.537023
C127	C	0.865528	-0.577882	-0.971587
C128	C	1.365528	-0.077882	-0.471587
C129	C	0.905617	-0.510095	-0.938900
C130	C	1.405617	-0.010095	-0.438900
C131	C	0.905514	-0.510300	-0.139407
C132	C	1.405514	-0.010300	0.360593
C133	C	0.905613	-0.510011	-0.069766
C134	C	1.405613	-0.010011	0.430234
H135	H	0.465312	-0.525824	-0.404582
H136	H	0.965312	-0.025824	0.095418
H137	H	0.978332	-0.386986	-1.063732
H138	H	1.478332	0.113014	-0.563732
H139	H	0.942799	-1.100664	-0.204584
H140	H	1.442799	-0.600664	0.295416
H141	H	0.465094	-0.494967	-0.199771
H142	H	0.965094	0.005033	0.300229
H143	H	0.832871	-0.633337	-0.541291
H144	H	1.332871	-0.133337	-0.041291
H145	H	0.548278	-0.387232	-0.229583
H146	H	1.048278	0.112768	0.270417
H147	H	0.914610	-0.336915	-0.743155
H148	H	1.414610	0.163085	-0.243155
H149	H	0.666991	-0.387255	-0.229541
H150	H	1.166991	0.112745	0.270459
H151	H	0.978337	-0.387064	-0.945025
H152	H	1.478337	0.112936	-0.445025
H153	H	0.942816	-0.918548	-0.204846
H154	H	1.442816	-0.418548	0.295154
H155	H	1.002715	-1.101836	-0.264789
H156	H	1.502715	-0.601836	0.235211
H157	H	0.832888	-0.633031	-1.063641
H158	H	1.332888	-0.133031	-0.563641
H159	H	0.346600	-0.525777	-0.404624
H160	H	0.846600	-0.025777	0.095376
H161	H	0.801705	-0.917778	-0.316562
H162	H	1.301705	-0.417778	0.183438
H163	H	1.003136	-0.919137	-0.265033
H164	H	1.503136	-0.419137	0.234967
H165	H	0.823003	-1.101966	-0.237961
H166	H	1.323003	-0.601966	0.262039
H167	H	0.832892	-0.633114	-0.944931
H168	H	1.332892	-0.133114	-0.444931
H169	H	0.972305	-1.099106	-0.382342
H170	H	1.472305	-0.599106	0.117658
H171	H	0.890222	-1.100308	-0.405396
H172	H	1.390222	-0.600308	0.094604
H173	H	0.896622	-0.683435	-0.861865
H174	H	1.396622	-0.183435	-0.361865
H175	H	0.896448	-0.683481	-0.743161
H176	H	1.396448	-0.183481	-0.243161
H177	H	0.548344	-0.633603	-0.374720
H178	H	1.048344	-0.133603	0.125280
H179	H	0.889369	-0.918897	-0.405376
H180	H	1.389369	-0.418897	0.094624
H181	H	0.832884	-0.633270	-0.660004
H182	H	1.332884	-0.133270	-0.160004
H183	H	0.667050	-0.633653	-0.374674
H184	H	1.167050	-0.133653	0.125326
H185	H	0.263414	-0.633513	-0.374823
H186	H	0.763414	-0.133513	0.125177
H187	H	0.971375	-0.917208	-0.382838
H188	H	1.471375	-0.417208	0.117162
H189	H	0.263352	-0.387135	-0.229680
H190	H	0.763352	0.112865	0.270320
H191	H	0.346389	-0.494937	-0.199814
H192	H	0.846389	0.005063	0.300186
H193	H	0.144707	-0.633460	-0.374871
H194	H	0.644707	-0.133460	0.125129
H195	H	0.826103	-0.919354	-0.235198
H196	H	1.326103	-0.419354	0.264802
H197	H	0.144641	-0.387091	-0.229727
H198	H	0.644641	0.112909	0.270273
H199	H	0.803328	-1.100005	-0.320636
H200	H	1.303328	-0.600005	0.179364
H201	H	0.978331	-0.387306	-0.541389
H202	H	1.478331	0.112694	-0.041389
H203	H	0.978326	-0.387228	-0.660095
H204	H	1.478326	0.112772	-0.160095
H205	H	0.914610	-0.336848	-0.861867
H206	H	1.414610	0.163152	-0.361867
