data_functionalizedCrystal
_audit_creation_method	'MofGen! by Chris Wilmer'
_symmetry_space_group_name_H-M	'P1'
_symmetry_Int_Tables_number	1
_symmetry_cell_setting	triclinic
loop_
_symmetry_equiv_pos_as_xyz
  x,y,z
_cell_length_a	17.640112
_cell_length_b	29.839131
_cell_length_c	29.839125
_cell_angle_alpha	89.982291
_cell_angle_beta	101.180576
_cell_angle_gamma	101.266684
loop_
_atom_site_label
_atom_site_type_symbol
_atom_site_fract_x
_atom_site_fract_y
_atom_site_fract_z
Zn1	Zn	1.208283	-0.039898	-0.115400
Zn2	Zn	1.541616	0.293436	0.217934
Zn3	Zn	1.874949	0.626769	0.551267
Zn4	Zn	1.208163	-0.115023	-0.040283
Zn5	Zn	1.541497	0.218310	0.293050
Zn6	Zn	1.874830	0.551643	0.626384
Zn7	Zn	1.076114	-0.055101	-0.055444
Zn8	Zn	1.409447	0.278232	0.277890
Zn9	Zn	1.742781	0.611566	0.611223
Zn10	Zn	1.076022	-0.130219	-0.130543
Zn11	Zn	1.409355	0.203115	0.202790
Zn12	Zn	1.742689	0.536448	0.536124
O13	O	1.142146	-0.085060	-0.085417
O14	O	1.475479	0.248273	0.247916
O15	O	1.808812	0.581607	0.581249
O16	O	1.318882	-0.037141	-0.092753
O17	O	1.652215	0.296192	0.240580
O18	O	1.985548	0.629525	0.573914
O19	O	1.190635	-0.107078	0.020572
O20	O	1.523969	0.226255	0.353905
O21	O	1.857302	0.559589	0.687238
O22	O	1.093735	0.009793	-0.063404
O23	O	1.427068	0.343126	0.269929
O24	O	1.760402	0.676460	0.603263
O25	O	1.318794	-0.092336	-0.037565
O26	O	1.652127	0.240997	0.295768
O27	O	1.985461	0.574331	0.629101
O28	O	1.190839	0.020963	-0.107453
O29	O	1.524172	0.354296	0.225880
O30	O	1.857505	0.687630	0.559213
O31	O	1.093619	-0.063053	0.009433
O32	O	1.426953	0.270280	0.342767
O33	O	1.760286	0.603613	0.676100
O34	O	0.965487	-0.077788	-0.078088
O35	O	1.298821	0.255546	0.255245
O36	O	1.632154	0.588879	0.588579
O37	O	1.093578	-0.118234	-0.191400
O38	O	1.426912	0.215100	0.141933
O39	O	1.760245	0.548433	0.475267
O40	O	0.965420	-0.132976	-0.133263
O41	O	1.298753	0.200357	0.200070
O42	O	1.632086	0.533691	0.533403
O43	O	1.190750	-0.051875	-0.180274
O44	O	1.524083	0.281458	0.153059
O45	O	1.857416	0.614791	0.486393
O46	O	1.190546	-0.179916	-0.052249
O47	O	1.523879	0.153417	0.281084
O48	O	1.857213	0.486750	0.614417
O49	O	1.093463	-0.191080	-0.118563
O50	O	1.426796	0.142253	0.214771
O51	O	1.760129	0.475587	0.548104
C52	C	0.936772	-0.108681	-0.108964
C53	C	1.270106	0.224653	0.224369
C54	C	1.603439	0.557986	0.557702
C55	C	0.848913	-0.118797	-0.119048
C56	C	1.182246	0.214537	0.214285
C57	C	1.515579	0.547870	0.547618
C58	C	0.560020	-0.008204	-0.008813
C59	C	0.893353	0.325130	0.324520
C60	C	1.226687	0.658463	0.657854
C61	C	0.477462	-0.017718	-0.018295
C62	C	0.810796	0.315615	0.315039
C63	C	1.144129	0.648949	0.648372
C64	C	0.477446	-0.075265	-0.075649
C65	C	0.810780	0.258068	0.257684
C66	C	1.144113	0.591402	0.591017
C67	C	0.560005	-0.065754	-0.066174
C68	C	0.893339	0.267580	0.267159
C69	C	1.226672	0.600913	0.600493
C70	C	0.601286	-0.032223	-0.032755
C71	C	0.934619	0.301110	0.300578
C72	C	1.267952	0.634444	0.633912
C73	C	0.601271	-0.089773	-0.090116
C74	C	0.934605	0.243560	0.243217
C75	C	1.267938	0.576894	0.576550
C76	C	0.683823	-0.080264	-0.080640
C77	C	1.017157	0.253069	0.252693
C78	C	1.350490	0.586402	0.586027
C79	C	0.725109	-0.046736	-0.047221
C80	C	1.058443	0.286597	0.286112
C81	C	1.391776	0.619931	0.619445
C82	C	0.683838	-0.022714	-0.023279
C83	C	1.017171	0.310619	0.310055
C84	C	1.350504	0.643953	0.643388
C85	C	0.559990	-0.123306	-0.123533
C86	C	0.893323	0.210027	0.209800
C87	C	1.226656	0.543361	0.543134
C88	C	0.601255	-0.147325	-0.147475
C89	C	0.934589	0.186008	0.185858
C90	C	1.267922	0.519341	0.519192
C91	C	0.683809	-0.137814	-0.138001
C92	C	1.017142	0.195519	0.195332
C93	C	1.350476	0.528852	0.528666
C94	C	0.725095	-0.104286	-0.104583
C95	C	1.058428	0.229047	0.228751
C96	C	1.391762	0.562381	0.562084
C97	C	0.725081	-0.161836	-0.161944
C98	C	1.058414	0.171497	0.171390
C99	C	1.391747	0.504831	0.504723
C100	C	0.807632	-0.152327	-0.152467
C101	C	1.140966	0.181006	0.180866
C102	C	1.474299	0.514339	0.514199
C103	C	0.807647	-0.094777	-0.095106
C104	C	1.140980	0.238556	0.238227
C105	C	1.474314	0.571889	0.571560
C106	C	1.142003	-0.201799	-0.085411
C107	C	1.475336	0.131534	0.247922
C108	C	1.808670	0.464868	0.581255
C109	C	1.142014	-0.251732	-0.085416
C110	C	1.475347	0.081601	0.247918
C111	C	1.808681	0.414934	0.581251
C112	C	1.192789	-0.555524	-0.050919
C113	C	1.526122	-0.222191	0.282414
C114	C	1.859456	0.111142	0.615747
C115	C	1.192886	-0.743186	-0.050926
C116	C	1.526220	-0.409853	0.282408
C117	C	1.859553	-0.076519	0.615741
O118	O	1.235944	-0.762489	-0.021591
O119	O	1.569277	-0.429156	0.311742
O120	O	1.902610	-0.095822	0.645075
N121	N	1.142309	-0.772483	-0.085432
N122	N	1.475643	-0.439150	0.247901
N123	N	1.808976	-0.105817	0.581234
C124	C	1.091708	-0.754862	-0.119942
C125	C	1.425041	-0.421529	0.213392
C126	C	1.758375	-0.088196	0.546725
O127	O	1.048697	-0.784087	-0.149295
O128	O	1.382031	-0.450753	0.184039
O129	O	1.715364	-0.117420	0.517372
C130	C	1.091615	-0.567201	-0.119937
C131	C	1.424948	-0.233867	0.213396
C132	C	1.758282	0.099466	0.546730
C133	C	1.142190	-0.537906	-0.085425
C134	C	1.475523	-0.204573	0.247908
C135	C	1.808856	0.128760	0.581241
C136	C	1.243360	-0.526230	-0.016411
C137	C	1.576693	-0.192897	0.316923
C138	C	1.910027	0.140437	0.650256
C139	C	1.243332	-0.479318	-0.016408
C140	C	1.576665	-0.145985	0.316925
C141	C	1.909999	0.187349	0.650259
C142	C	1.192733	-0.461700	-0.050914
C143	C	1.526066	-0.128367	0.282419
C144	C	1.859400	0.204967	0.615753
C145	C	1.142162	-0.490994	-0.085423
C146	C	1.475495	-0.157661	0.247911
C147	C	1.808829	0.175673	0.581244
C148	C	1.041018	-0.549580	-0.154448
C149	C	1.374352	-0.216247	0.178886
C150	C	1.707685	0.117087	0.512219
C151	C	1.041001	-0.502661	-0.154444
C152	C	1.374334	-0.169328	0.178889
C153	C	1.707668	0.164006	0.512223
C154	C	1.091576	-0.473366	-0.119932
C155	C	1.424909	-0.140033	0.213401
C156	C	1.758242	0.193300	0.546734
C157	C	1.091535	-0.426464	-0.119926
C158	C	1.424868	-0.093130	0.213407
C159	C	1.758201	0.240203	0.546741
N160	N	1.142112	-0.397166	-0.085419
N161	N	1.475445	-0.063833	0.247914
N162	N	1.808778	0.269500	0.581247
C163	C	1.192711	-0.414785	-0.050913
C164	C	1.526044	-0.081451	0.282420
C165	C	1.859378	0.251882	0.615753
C166	C	1.091759	-0.853387	-0.119941
C167	C	1.425093	-0.520054	0.213392
C168	C	1.758426	-0.186720	0.546725
C169	C	1.091782	-0.900302	-0.119942
C170	C	1.425115	-0.566969	0.213391
C171	C	1.758448	-0.233636	0.546724
C172	C	1.192961	-0.888623	-0.050926
C173	C	1.526294	-0.555289	0.282407
C174	C	1.859628	-0.221956	0.615740
C175	C	1.192934	-0.841707	-0.050924
C176	C	1.526268	-0.508374	0.282409
C177	C	1.859601	-0.175040	0.615743
C178	C	1.142336	-0.824090	-0.085435
C179	C	1.475670	-0.490756	0.247899
C180	C	1.809003	-0.157423	0.581232
C181	C	1.192648	-0.316266	-0.050910
C182	C	1.525981	0.017067	0.282423
C183	C	1.859315	0.350401	0.615756
C184	C	1.192613	-0.269350	-0.050910
C185	C	1.525947	0.063983	0.282424
C186	C	1.859280	0.397316	0.615757
C187	C	1.091437	-0.281034	-0.119927
C188	C	1.424770	0.052300	0.213407
C189	C	1.758104	0.385633	0.546740
C190	C	1.091468	-0.327945	-0.119926
C191	C	1.424802	0.005388	0.213407
C192	C	1.758135	0.338721	0.546741
C193	C	1.142080	-0.345560	-0.085416
C194	C	1.475414	-0.012226	0.247918
C195	C	1.808747	0.321107	0.581251
O196	O	1.048506	-0.407129	-0.149248
O197	O	1.381840	-0.073795	0.184086
O198	O	1.715173	0.259538	0.517419
O199	O	1.235728	-0.385551	-0.021570
O200	O	1.569061	-0.052218	0.311763
O201	O	1.902394	0.281115	0.645096
C202	C	1.192817	-0.602437	-0.050922
C203	C	1.526150	-0.269103	0.282411
C204	C	1.859484	0.064230	0.615745
C205	C	1.142246	-0.631731	-0.085430
C206	C	1.475579	-0.298397	0.247903
C207	C	1.808912	0.034936	0.581236
C208	C	1.091647	-0.614113	-0.119936
C209	C	1.424980	-0.280779	0.213397
C210	C	1.758313	0.052554	0.546730
C211	C	1.142268	-0.678646	-0.085431
C212	C	1.475601	-0.345313	0.247902
C213	C	1.808934	-0.011979	0.581235
C214	C	1.192867	-0.696264	-0.050925
C215	C	1.526200	-0.362931	0.282408
C216	C	1.859534	-0.029597	0.615741
C217	C	1.243444	-0.666967	-0.016419
C218	C	1.576777	-0.333634	0.316915
C219	C	1.910111	-0.000300	0.650248
C220	C	1.243416	-0.620055	-0.016416
C221	C	1.576749	-0.286721	0.316917
C222	C	1.910083	0.046612	0.650251
C223	C	1.041070	-0.643410	-0.154443
C224	C	1.374403	-0.310076	0.178890
C225	C	1.707736	0.023257	0.512223
C226	C	1.041101	-0.690322	-0.154443
C227	C	1.374434	-0.356988	0.178891
C228	C	1.707768	-0.023655	0.512224
C229	C	1.091700	-0.707940	-0.119937
C230	C	1.425033	-0.374606	0.213397
C231	C	1.758367	-0.041273	0.546730
C232	C	1.348321	-0.061348	-0.061779
C233	C	1.681654	0.271986	0.271555
C234	C	2.014987	0.605319	0.604888
C235	C	1.436180	-0.051243	-0.051705
C236	C	1.769514	0.282091	0.281628
C237	C	2.102847	0.615424	0.614961
C238	C	1.142167	-0.085054	-0.202593
C239	C	1.475500	0.248280	0.130740
C240	C	1.808834	0.581613	0.464073
C241	C	1.142176	-0.085051	-0.252527
C242	C	1.475509	0.248282	0.080807
C243	C	1.808843	0.581616	0.414140
C244	C	1.142310	0.032137	-0.085431
C245	C	1.475644	0.365471	0.247903
C246	C	1.808977	0.698804	0.581236
C247	C	1.142381	0.082080	-0.085436
C248	C	1.475714	0.415413	0.247897
C249	C	1.809047	0.748746	0.581230
C250	C	1.192826	-0.050417	-0.556374
C251	C	1.526160	0.282917	-0.223041
C252	C	1.859493	0.616250	0.110293
C253	C	1.192866	-0.050374	-0.744042
C254	C	1.526199	0.282959	-0.410709
C255	C	1.859532	0.616293	-0.077376
O256	O	1.235872	-0.020976	-0.763386
O257	O	1.569205	0.312357	-0.430052
O258	O	1.902538	0.645691	-0.096719
N259	N	1.142281	-0.084919	-0.773300
N260	N	1.475614	0.248415	-0.439967
N261	N	1.808948	0.581748	-0.106633
C262	C	1.091679	-0.119475	-0.755638
C263	C	1.425012	0.213859	-0.422305
C264	C	1.758346	0.547192	-0.088972
O265	O	1.048649	-0.148853	-0.784830
O266	O	1.381982	0.184480	-0.451497
O267	O	1.715316	0.517813	-0.118164
C268	C	1.091637	-0.119515	-0.567971
C269	C	1.424970	0.213818	-0.234637
C270	C	1.758303	0.547151	0.098696
C271	C	1.142230	-0.084971	-0.538715
C272	C	1.475564	0.248362	-0.205381
C273	C	1.808897	0.581696	0.127952
C274	C	1.243415	-0.015875	-0.527118
C275	C	1.576749	0.317458	-0.193785
C276	C	1.910082	0.650792	0.139548
C277	C	1.243408	-0.015887	-0.480204
C278	C	1.576741	0.317446	-0.146870
C279	C	1.910075	0.650779	0.186463
C280	C	1.192812	-0.050442	-0.462545
C281	C	1.526145	0.282892	-0.129211
C282	C	1.859479	0.616225	0.204122
C283	C	1.142223	-0.084983	-0.491800
C284	C	1.475556	0.248350	-0.158467
C285	C	1.808890	0.581683	0.174867
C286	C	1.041031	-0.154069	-0.550310
C287	C	1.374365	0.179264	-0.216977
C288	C	1.707698	0.512598	0.116356
C289	C	1.041024	-0.154076	-0.503390
C290	C	1.374357	0.179258	-0.170057
C291	C	1.707690	0.512591	0.163277
C292	C	1.091617	-0.119531	-0.474134
C293	C	1.424951	0.213802	-0.140801
C294	C	1.758284	0.547135	0.192533
C295	C	1.091619	-0.119550	-0.427226
C296	C	1.424953	0.213783	-0.093893
C297	C	1.758286	0.547117	0.239440
N298	N	1.142204	-0.085005	-0.397969
N299	N	1.475537	0.248328	-0.064636
N300	N	1.808871	0.581661	0.268698
C301	C	1.192800	-0.050451	-0.415628
C302	C	1.526134	0.282882	-0.082295
C303	C	1.859467	0.616215	0.251039
C304	C	1.091706	-0.119451	-0.854166
C305	C	1.425040	0.213882	-0.520832
C306	C	1.758373	0.547215	-0.187499
C307	C	1.091718	-0.119442	-0.901082
C308	C	1.425051	0.213892	-0.567749
C309	C	1.758384	0.547225	-0.234416
C310	C	1.192903	-0.050340	-0.889483
C311	C	1.526237	0.282993	-0.556150
C312	C	1.859570	0.616326	-0.222817
C313	C	1.192895	-0.050352	-0.842566
C314	C	1.526229	0.282981	-0.509232
C315	C	1.859562	0.616314	-0.175899
C316	C	1.142291	-0.084907	-0.824908
C317	C	1.475624	0.248427	-0.491575
C318	C	1.808958	0.581760	-0.158242
C319	C	1.192782	-0.050480	-0.317104
C320	C	1.526115	0.282853	0.016229
C321	C	1.859448	0.616187	0.349562
C322	C	1.192772	-0.050497	-0.270186
C323	C	1.526106	0.282837	0.063148
C324	C	1.859439	0.616170	0.396481
C325	C	1.091584	-0.119596	-0.281789
C326	C	1.424917	0.213737	0.051544
C327	C	1.758251	0.547070	0.384878
C328	C	1.091596	-0.119581	-0.328703
C329	C	1.424929	0.213752	0.004630
C330	C	1.758263	0.547085	0.337964
C331	C	1.142198	-0.085019	-0.346359
C332	C	1.475531	0.248314	-0.013026
C333	C	1.808864	0.581647	0.320307
O334	O	1.048630	-0.148930	-0.407852
O335	O	1.381963	0.184404	-0.074519
O336	O	1.715297	0.517737	0.258814
O337	O	1.235812	-0.021071	-0.386430
O338	O	1.569145	0.312262	-0.053097
O339	O	1.902478	0.645595	0.280237
C340	C	1.192834	-0.050404	-0.603288
C341	C	1.526167	0.282929	-0.269955
C342	C	1.859500	0.616262	0.063378
C343	C	1.142245	-0.084946	-0.632544
C344	C	1.475578	0.248387	-0.299211
C345	C	1.808911	0.581721	0.034123
C346	C	1.091649	-0.119500	-0.614885
C347	C	1.424982	0.213833	-0.281552
C348	C	1.758315	0.547166	0.051782
C349	C	1.142256	-0.084936	-0.679461
C350	C	1.475590	0.248397	-0.346127
C351	C	1.808923	0.581730	-0.012794
C352	C	1.192852	-0.050382	-0.697120
C353	C	1.526186	0.282951	-0.363786
C354	C	1.859519	0.616284	-0.030453
C355	C	1.243437	-0.015838	-0.667862
C356	C	1.576770	0.317496	-0.334529
C357	C	1.910104	0.650829	-0.001196
C358	C	1.243430	-0.015850	-0.620948
C359	C	1.576763	0.317483	-0.287614
C360	C	1.910097	0.650817	0.045719
C361	C	1.041064	-0.154045	-0.644142
C362	C	1.374397	0.179288	-0.310809
C363	C	1.707731	0.512622	0.022524
C364	C	1.041076	-0.154030	-0.691057
C365	C	1.374409	0.179303	-0.357723
C366	C	1.707743	0.512637	-0.024390
C367	C	1.091672	-0.119476	-0.708716
C368	C	1.425005	0.213858	-0.375382
C369	C	1.758339	0.547191	-0.042049
C370	C	1.142170	-0.085029	0.031308
C371	C	1.475503	0.248304	0.364641
C372	C	1.808836	0.581638	0.697975
C373	C	1.142314	-0.084888	0.081259
C374	C	1.475647	0.248446	0.414592
C375	C	1.808981	0.581779	0.747925
H376	H	1.233797	-0.245500	-0.022805
H377	H	1.567130	0.087834	0.310529
H378	H	1.900464	0.421167	0.643862
H379	H	1.233863	-0.330601	-0.022809
H380	H	1.567196	0.002732	0.310524
H381	H	1.900529	0.336065	0.643857
C382	C	1.248555	-0.012328	-0.908918
C383	C	1.581888	0.321005	-0.575584
C384	C	1.915222	0.654338	-0.242251
N385	N	1.290465	0.016303	-0.923558
N386	N	1.623798	0.349636	-0.590225
N387	N	1.957131	0.682970	-0.256892
C388	C	1.298962	-0.447100	0.021561
C389	C	1.632296	-0.113767	0.354894
C390	C	1.965629	0.219566	0.688227
N391	N	1.340864	-0.422837	0.050162
N392	N	1.674197	-0.089503	0.383495
N393	N	2.007531	0.243830	0.716828
C394	C	0.555838	-0.184207	-0.184236
C395	C	0.889171	0.149126	0.149098
C396	C	1.222504	0.482459	0.482431
N397	N	0.521630	-0.211986	-0.211926
N398	N	0.854963	0.121347	0.121407
N399	N	1.188297	0.454681	0.454741
H400	H	1.284599	-0.596206	0.011687
H401	H	1.617932	-0.262873	0.345020
H402	H	1.951265	0.070461	0.678353
H403	H	0.999806	-0.182211	-0.489018
H404	H	1.333140	0.151122	-0.155684
H405	H	1.666473	0.484456	0.177649
C406	C	1.035946	-0.157584	-0.360885
C407	C	1.369279	0.175749	-0.027552
C408	C	1.702612	0.509083	0.305782
N409	N	0.994023	-0.186206	-0.385122
N410	N	1.327357	0.147128	-0.051789
N411	N	1.660690	0.480461	0.281544
H412	H	0.691458	-0.189140	-0.189150
H413	H	1.024791	0.144193	0.144183
H414	H	1.358124	0.477527	0.477516
C415	C	1.036067	-0.157446	-0.933258
C416	C	1.369400	0.175888	-0.599925
C417	C	1.702733	0.509221	-0.266592
N418	N	0.994144	-0.186070	-0.957493
N419	N	1.327477	0.147263	-0.624159
N420	N	1.660811	0.480597	-0.290826
H421	H	1.050392	-0.147731	-0.267402
H422	H	1.383726	0.185603	0.065931
H423	H	1.717059	0.518936	0.399265
C424	C	1.299089	0.022174	-0.687297
C425	C	1.632423	0.355507	-0.353963
C426	C	1.965756	0.688841	-0.020630
N427	N	1.340999	0.050805	-0.701938
N428	N	1.674333	0.384138	-0.368605
N429	N	2.007666	0.717471	-0.035271
H430	H	0.841232	-0.171886	-0.171964
H431	H	1.174565	0.161448	0.161369
H432	H	1.507899	0.494781	0.494703
H433	H	0.841260	-0.067466	-0.067900
H434	H	1.174593	0.265867	0.265434
H435	H	1.507926	0.599200	0.598767
C436	C	0.432029	-0.112147	-0.112410
C437	C	0.765362	0.221186	0.220923
C438	C	1.098695	0.554520	0.554256
N439	N	0.397821	-0.139926	-0.140100
N440	N	0.731154	0.193408	0.193233
N441	N	1.064488	0.526741	0.526566
C442	C	0.985460	-0.722541	-0.192411
C443	C	1.318793	-0.389208	0.140923
C444	C	1.652126	-0.055875	0.474256
N445	N	0.943556	-0.746807	-0.221009
N446	N	1.276890	-0.413474	0.112324
N447	N	1.610223	-0.080140	0.445657
H448	H	1.050554	-0.839047	-0.148045
H449	H	1.383888	-0.505714	0.185289
H450	H	1.717221	-0.172380	0.518622
C451	C	1.036035	-0.157467	-0.834749
C452	C	1.369368	0.175866	-0.501416
C453	C	1.702701	0.509200	-0.168083
N454	N	0.994104	-0.186102	-0.820127
N455	N	1.327437	0.147232	-0.486794
N456	N	1.660770	0.480565	-0.153460
C457	C	1.299054	0.022120	-0.448029
C458	C	1.632388	0.355453	-0.114696
C459	C	1.965721	0.688786	0.218638
N460	N	1.340966	0.050750	-0.423798
N461	N	1.674299	0.384084	-0.090465
N462	N	2.007633	0.717417	0.242869
H463	H	1.284568	-0.540569	0.011689
H464	H	1.617902	-0.207235	0.345022
H465	H	1.951235	0.126098	0.678355
C466	C	0.985338	-0.483285	-0.192410
C467	C	1.318671	-0.149952	0.140924
C468	C	1.652005	0.183381	0.474257
N469	N	0.943411	-0.468693	-0.221005
N470	N	1.276745	-0.135359	0.112329
N471	N	1.610078	0.197974	0.445662
C472	C	0.605433	0.028684	0.027948
C473	C	0.938766	0.362017	0.361282
C474	C	1.272100	0.695350	0.694615
N475	N	0.639638	0.056465	0.055636
N476	N	0.972971	0.389799	0.388970
N477	N	1.306305	0.723132	0.722303
H478	H	1.234161	-0.902975	-0.022830
H479	H	1.567494	-0.569642	0.310503
H480	H	1.900828	-0.236308	0.643836
H481	H	1.234117	-0.817858	-0.022822
H482	H	1.567450	-0.484524	0.310511
H483	H	1.900784	-0.151191	0.643845
H484	H	1.050289	-0.351798	-0.148029
H485	H	1.383622	-0.018465	0.185304
H486	H	1.716956	0.314868	0.518637
H487	H	0.492770	-0.131047	-0.131247
H488	H	0.826104	0.202286	0.202086
H489	H	1.159437	0.535620	0.535419
C490	C	1.036138	-0.932522	-0.157904
C491	C	1.369471	-0.599189	0.175429
C492	C	1.702805	-0.265856	0.508762
N493	N	0.994228	-0.956789	-0.186500
N494	N	1.327562	-0.623455	0.146833
N495	N	1.660895	-0.290122	0.480166
H496	H	1.233975	-0.022366	-0.246367
H497	H	1.567308	0.310968	0.086967
H498	H	1.900641	0.644301	0.420300
H499	H	1.284628	0.012280	-0.597131
H500	H	1.617961	0.345613	-0.263798
H501	H	1.951295	0.678946	0.069536
H502	H	0.999831	-0.573425	-0.182549
H503	H	1.333165	-0.240091	0.150784
H504	H	1.666498	0.093242	0.484117
C505	C	0.815920	-0.036275	-0.036798
C506	C	1.149253	0.297058	0.296535
C507	C	1.482586	0.630392	0.629868
N508	N	0.884318	-0.028395	-0.028949
N509	N	1.217651	0.304939	0.304385
N510	N	1.550985	0.638272	0.637718
C511	C	1.035784	-0.261644	-0.157883
C512	C	1.369117	0.071689	0.175451
C513	C	1.702450	0.405023	0.508784
N514	N	0.993870	-0.247038	-0.186474
N515	N	1.327203	0.086295	0.146859
N516	N	1.660537	0.419629	0.480193
C517	C	1.299102	-0.686356	0.021539
C518	C	1.632436	-0.353023	0.354872
C519	C	1.965769	-0.019689	0.688205
N520	N	1.341024	-0.700962	0.050125
N521	N	1.674358	-0.367629	0.383458
N522	N	2.007691	-0.034295	0.716792
C523	C	0.985367	-0.192068	-0.582483
C524	C	1.318700	0.141265	-0.249149
C525	C	1.652033	0.474598	0.084184
N526	N	0.943434	-0.220691	-0.606715
N527	N	1.276767	0.112643	-0.273382
N528	N	1.610101	0.445976	0.059952
H529	H	0.999878	-0.182164	-0.714873
H530	H	1.333211	0.151169	-0.381540
H531	H	1.666544	0.484502	-0.048207
H532	H	0.443867	0.001847	0.001201
H533	H	0.777200	0.335180	0.334535
H534	H	1.110533	0.668514	0.667868
H535	H	0.999867	-0.629069	-0.182543
H536	H	1.333200	-0.295736	0.150791
H537	H	1.666533	0.037597	0.484124
H538	H	0.717450	0.004597	0.003928
H539	H	1.050784	0.337930	0.337261
H540	H	1.384117	0.671263	0.670594
H541	H	1.233984	-0.022335	-0.331474
H542	H	1.567317	0.310998	0.001859
H543	H	1.900650	0.644331	0.335193
H544	H	1.284617	0.012266	-0.541491
H545	H	1.617950	0.345599	-0.208157
H546	H	1.951284	0.678932	0.125176
C547	C	1.248546	-0.012348	-0.810389
C548	C	1.581879	0.320985	-0.477055
C549	C	1.915212	0.654318	-0.143722
N550	N	1.290462	0.016279	-0.786155
N551	N	1.623795	0.349612	-0.452822
N552	N	1.957128	0.682945	-0.119489
H553	H	0.999862	-0.182184	-0.629770
H554	H	1.333196	0.151149	-0.296436
H555	H	1.666529	0.484483	0.036897
