data_functionalizedCrystal
_audit_creation_method	'MofGen! by Chris Wilmer'
_symmetry_space_group_name_H-M	'P1'
_symmetry_Int_Tables_number	1
_symmetry_cell_setting	triclinic
loop_
_symmetry_equiv_pos_as_xyz
  x,y,z
_cell_length_a	6.394989
_cell_length_b	11.026607
_cell_length_c	9.482900
_cell_angle_alpha	78.636152
_cell_angle_beta	99.609925
_cell_angle_gamma	97.541864
loop_
_atom_site_label
_atom_site_type_symbol
_atom_site_fract_x
_atom_site_fract_y
_atom_site_fract_z
O1	O	0.853991	1.642134	-0.120874
O2	O	0.753816	1.287297	-0.120878
O3	O	0.501733	1.469752	-0.120877
O4	O	1.106074	1.459679	-0.120875
O5	O	0.553199	1.432696	0.120915
O6	O	0.805282	1.250240	0.120914
O7	O	0.905458	1.605077	0.120919
Cu8	Cu	0.860069	1.424275	0.142994
Cu9	Cu	0.799204	1.468099	-0.142954
O10	O	1.157541	1.422622	0.120918
C11	C	0.761069	1.223275	0.000017
C12	C	0.705977	1.087719	0.000015
N13	N	0.902881	1.393461	0.344114
C14	C	0.858092	1.016240	0.000015
C15	C	0.801156	0.876135	0.000013
C16	C	1.210376	1.443143	0.000015
C17	C	1.448899	1.449231	0.000011
C18	C	0.898204	1.669100	0.000020
C19	C	0.953294	1.804657	0.000012
N20	N	0.756380	1.498923	-0.344074
C21	C	0.811817	1.459002	0.416313
C22	C	0.847457	1.433372	0.583731
H23	H	1.030476	1.058766	0.000024
N24	N	0.572802	0.819822	0.000029
H25	H	0.564497	0.727718	0.000032
H26	H	0.481501	0.860834	-0.089604
H27	H	1.007220	1.318370	0.406244
N28	N	1.181657	0.860963	0.000028
H29	H	1.189967	0.953066	0.000031
H30	H	1.234791	0.847423	-0.089607
N31	N	0.477634	1.031400	0.000032
H32	H	0.469330	0.939296	0.000034
H33	H	0.386333	1.072412	-0.089602
N34	N	0.673529	1.558433	0.334033
H35	H	0.667644	1.562634	0.226098
H36	H	0.735608	1.641422	0.360523
H37	H	0.951802	1.358277	0.645855
H38	H	0.652016	1.574010	0.593802
