data_functionalizedCrystal
_audit_creation_method	'MofGen! by Chris Wilmer'
_symmetry_space_group_name_H-M	'P1'
_symmetry_Int_Tables_number	1
_symmetry_cell_setting	triclinic
loop_
_symmetry_equiv_pos_as_xyz
  x,y,z
_cell_length_a	19.805407
_cell_length_b	19.076808
_cell_length_c	19.805399
_cell_angle_alpha	87.672943
_cell_angle_beta	89.980427
_cell_angle_gamma	92.323385
loop_
_atom_site_label
_atom_site_type_symbol
_atom_site_fract_x
_atom_site_fract_y
_atom_site_fract_z
Zn1	Zn	1.023914	-0.280233	-0.371886
Zn2	Zn	1.019283	-0.397938	-0.254147
Zn3	Zn	0.910727	-0.280252	-0.258710
Zn4	Zn	0.906148	-0.397901	-0.367295
O5	O	0.965018	-0.339081	-0.313009
O6	O	1.118016	-0.295854	-0.356279
O7	O	1.004861	-0.382351	-0.160035
O8	O	0.929597	-0.181753	-0.277553
O9	O	1.114613	-0.382332	-0.269777
O10	O	1.012754	-0.181739	-0.360703
O11	O	0.925106	-0.295887	-0.163387
O12	O	0.815404	-0.295851	-0.273102
O13	O	0.921791	-0.382268	-0.462622
O14	O	0.812039	-0.382287	-0.352879
O15	O	1.008313	-0.295818	-0.465994
O16	O	1.000421	-0.496429	-0.265326
O17	O	0.917301	-0.496402	-0.348455
C18	C	0.789162	-0.339067	-0.312988
C19	C	0.713930	-0.339079	-0.312994
C20	C	0.676849	-0.384154	-0.354462
C21	C	0.606160	-0.384155	-0.354471
C22	C	0.572554	-0.339084	-0.313009
C23	C	0.609640	-0.294004	-0.271540
C24	C	0.680328	-0.294000	-0.271535
C25	C	0.324567	-0.294020	-0.271562
C26	C	0.253874	-0.294029	-0.271569
C27	C	0.250399	-0.384175	-0.354498
C28	C	0.321086	-0.384170	-0.354493
C29	C	0.358167	-0.339088	-0.313027
C30	C	0.434815	-0.339086	-0.313018
C31	C	0.495907	-0.339089	-0.313014
C32	C	0.957879	-0.521955	-0.305912
C33	C	0.954888	-0.600189	-0.302898
C34	C	0.996745	-0.636876	-0.344809
C35	C	0.993931	-0.710385	-0.341979
C36	C	0.949263	-0.747206	-0.297233
C37	C	0.907400	-0.710515	-0.255321
C38	C	0.910211	-0.637007	-0.258155
C39	C	0.936213	-0.967059	-0.284114
C40	C	0.933407	-1.040572	-0.281281
C41	C	1.019937	-1.040437	-0.367940
C42	C	1.022747	-0.966928	-0.370768
C43	C	0.980882	-0.930243	-0.328858
N44	N	0.946387	-0.822345	-0.294338
N45	N	0.983755	-0.855106	-0.331757
C46	C	1.141560	-0.339095	-0.313031
C47	C	1.216792	-0.339101	-0.313041
C48	C	0.965058	-0.339037	-0.489554
C49	C	0.965074	-0.339018	-0.564787
C50	C	0.972203	-0.155493	-0.320149
C51	C	0.975264	-0.077259	-0.323192
C52	C	1.010128	-0.294001	-0.601888
C53	C	1.010135	-0.293980	-0.672577
C54	C	0.965093	-0.338981	-0.706164
C55	C	0.920035	-0.384000	-0.669057
C56	C	0.920024	-0.384016	-0.598369
C57	C	0.920075	-0.383934	-0.954133
C58	C	0.920091	-0.383916	-1.024826
C59	C	1.010187	-0.293899	-1.028341
C60	C	1.010176	-0.293915	-0.957653
C61	C	0.965116	-0.338931	-0.920553
C62	C	0.965107	-0.338951	-0.843904
C63	C	0.965104	-0.338964	-0.782812
C64	C	0.965019	-0.339074	-0.137154
C65	C	0.965141	-0.338895	-0.061929
H66	H	0.704206	-0.420858	-0.388223
H67	H	0.582273	-0.257304	-0.237784
O68	O	0.716382	-0.250141	-0.231350
C69	C	0.759070	-0.204741	-0.271714
H70	H	0.737957	-0.200468	-0.325198
H71	H	0.761974	-0.150540	-0.249423
H72	H	0.811795	-0.226501	-0.273162
H73	H	0.883409	-0.420562	-1.052170
O74	O	0.890108	-1.076370	-0.237738
C75	C	0.927045	-1.118890	-0.192428
H76	H	0.981204	-1.096689	-0.189153
H77	H	0.902562	-1.119777	-0.140281
H78	H	0.927239	-1.174587	-0.211207
H79	H	0.883394	-0.420599	-0.923934
O80	O	0.353625	-0.427974	-0.394832
C81	C	0.305737	-0.467772	-0.431424
H82	H	0.256473	-0.438950	-0.434935
H83	H	0.325889	-0.475349	-0.484445
H84	H	0.296127	-0.521196	-0.404483
H85	H	0.354749	-0.257317	-0.237792
H86	H	0.871028	-0.740500	-0.218891
H87	H	0.876126	-0.607137	-0.224028
H88	H	1.033122	-0.606900	-0.381243
H89	H	1.028021	-0.740252	-0.376102
H90	H	0.883331	-0.420666	-0.568162
O91	O	0.876343	-0.427690	-0.701786
C92	C	0.886001	-0.418012	-0.772134
H93	H	0.939140	-0.394964	-0.782696
H94	H	0.879349	-0.470728	-0.796946
H95	H	0.847325	-0.380520	-0.793645
O96	O	0.895530	-0.931538	-0.243327
C97	C	0.855497	-0.979803	-0.203235
H98	H	0.881221	-1.032178	-0.198907
H99	H	0.849126	-0.958608	-0.150715
H100	H	0.803773	-0.987650	-0.227664
O101	O	1.053907	-0.250220	-0.569373
C102	C	1.093684	-0.210495	-0.617281
H103	H	1.066062	-0.208046	-0.667759
H104	H	1.103071	-0.155043	-0.599017
H105	H	1.144082	-0.236272	-0.623807
O106	O	1.053805	-0.250170	-0.708646
C107	C	1.017052	-0.204703	-0.751300
H108	H	0.963909	-0.200365	-0.730156
H109	H	1.043648	-0.150535	-0.754204
H110	H	1.013880	-0.226442	-0.804030
H111	H	1.059120	-0.936950	-0.407203
H112	H	1.054020	-1.070315	-0.402062
O113	O	0.214276	-0.427897	-0.394767
C114	C	0.144679	-0.418251	-0.385874
H115	H	0.137133	-0.363901	-0.365905
H116	H	0.117650	-0.423099	-0.436381
H117	H	0.122976	-0.459951	-0.348147
O118	O	1.053862	-0.250096	-0.925068
C119	C	1.041821	-0.179943	-0.945087
H120	H	0.987890	-0.176388	-0.964645
H121	H	1.049004	-0.145175	-0.899958
H122	H	1.078832	-0.161539	-0.986845
O123	O	0.570219	-0.427915	-0.394843
C124	C	0.588107	-0.412624	-0.462921
H125	H	0.640484	-0.385559	-0.465415
H126	H	0.588562	-0.463469	-0.491207
H127	H	0.549740	-0.376480	-0.487191
O128	O	0.221335	-0.250175	-0.231275
C129	C	0.269220	-0.210394	-0.194663
H130	H	0.319714	-0.207990	-0.222478
H131	H	0.250951	-0.154930	-0.189691
H132	H	0.275714	-0.236092	-0.142216
H133	H	1.046874	-0.257242	-1.058557
