data_functionalizedCrystal
_audit_creation_method	'MofGen! by Chris Wilmer'
_symmetry_space_group_name_H-M	'P1'
_symmetry_Int_Tables_number	1
_symmetry_cell_setting	triclinic
loop_
_symmetry_equiv_pos_as_xyz
  x,y,z
_cell_length_a	6.817900
_cell_length_b	17.078472
_cell_length_c	17.110486
_cell_angle_alpha	96.906237
_cell_angle_beta	99.060439
_cell_angle_gamma	99.306020
loop_
_atom_site_label
_atom_site_type_symbol
_atom_site_fract_x
_atom_site_fract_y
_atom_site_fract_z
V1	V	-3.956140	-0.109531	-0.246641
O2	O	-3.966417	0.005507	-0.242028
O3	O	-3.887540	-0.217416	-0.244875
O4	O	-3.886337	-0.107740	-0.354245
O5	O	-3.967628	-0.104929	-0.131900
V6	V	-4.445159	-0.095784	-0.232927
O7	O	-4.205343	-0.139687	-0.276724
O8	O	-4.646153	-0.065628	-0.202843
O9	O	-4.290553	0.012101	-0.234692
O10	O	-4.552278	-0.210821	-0.237540
O11	O	-4.551068	-0.100386	-0.347667
O12	O	-4.291755	-0.097575	-0.125322
C13	C	-3.728319	-0.243719	-0.240964
C14	C	-3.753374	-0.331915	-0.240238
C15	C	-3.945689	-0.377387	-0.243841
C16	C	-3.969221	-0.460257	-0.243163
C17	C	-3.800433	-0.497653	-0.238877
C18	C	-3.608103	-0.452176	-0.235276
C19	C	-3.584576	-0.369308	-0.235960
C20	C	-3.851439	-0.745059	-0.236415
C21	C	-3.874982	-0.827933	-0.235730
C22	C	-4.236099	-0.836009	-0.243618
C23	C	-4.212553	-0.753139	-0.244296
C24	C	-4.020228	-0.707669	-0.240700
N25	N	-3.824481	-0.582359	-0.238182
N26	N	-3.996184	-0.622965	-0.241401
C27	C	-3.726784	-0.103815	-0.380475
C28	C	-3.750863	-0.103064	-0.468442
C29	C	-3.942720	-0.106671	-0.513797
C30	C	-3.965333	-0.105965	-0.596451
C31	C	-3.796087	-0.101658	-0.633749
C32	C	-3.604213	-0.098048	-0.588387
C33	C	-3.581601	-0.098749	-0.505734
C34	C	-3.855325	-0.099340	-0.883106
C35	C	-3.877954	-0.098642	-0.965765
C36	C	-4.239072	-0.106558	-0.973823
C37	C	-4.216445	-0.107262	-0.891169
C38	C	-4.024573	-0.103649	-0.845814
C39	C	-3.819197	-0.100939	-0.718235
C40	C	-4.001463	-0.104362	-0.761329
C41	C	-4.113115	0.038400	-0.238601
C42	C	-4.067297	0.126595	-0.239332
C43	C	-4.114650	-0.101502	-0.099088
C44	C	-4.069811	-0.102249	-0.011120
H45	H	-4.080545	-0.110184	-0.483437
H46	H	-4.392684	-0.873039	-0.246546
C47	C	-3.689293	-0.869067	-0.231020
N48	N	-3.549440	-0.900050	-0.227474
C49	C	-3.639875	-0.695052	-0.232447
N50	N	-3.480513	-0.657382	-0.229455
H51	H	-3.470676	-0.482631	-0.231791
H52	H	-4.121559	-0.108898	-0.633375
H53	H	-4.139260	-0.107867	-0.730957
H54	H	-4.354266	-0.110769	-0.860807
H55	H	-3.681401	-0.097435	-0.748612
C56	C	-3.418013	-0.093226	-0.629405
N57	N	-3.277754	-0.089567	-0.660294
H58	H	-4.083137	-0.346944	-0.247324
C59	C	-3.373014	-0.319289	-0.231993
N60	N	-3.213660	-0.281615	-0.229008
C61	C	-4.450117	-0.110522	-1.023718
N62	N	-4.609083	-0.113504	-1.061299
C63	C	-3.644269	-0.095383	-0.833228
N64	N	-3.485293	-0.092407	-0.795659
C65	C	-3.370545	-0.094784	-0.455844
N66	N	-3.211571	-0.091796	-0.418267
H67	H	-4.350004	-0.722698	-0.247792
C68	C	-4.180781	-0.510272	-0.247124
N69	N	-4.340136	-0.547943	-0.250107
H70	H	-3.740122	-0.095132	-0.996130
