data_functionalizedCrystal
_audit_creation_method	'MofGen! by Chris Wilmer'
_symmetry_space_group_name_H-M	'P1'
_symmetry_Int_Tables_number	1
_symmetry_cell_setting	triclinic
loop_
_symmetry_equiv_pos_as_xyz
  x,y,z
_cell_length_a	21.295417
_cell_length_b	21.295418
_cell_length_c	21.295411
_cell_angle_alpha	89.956262
_cell_angle_beta	90.021644
_cell_angle_gamma	89.953681
loop_
_atom_site_label
_atom_site_type_symbol
_atom_site_fract_x
_atom_site_fract_y
_atom_site_fract_z
Zn1	Zn	-0.250415	-0.962356	0.356234
Zn2	Zn	0.249585	-0.462356	0.856234
Zn3	Zn	-0.355667	-0.962258	0.250959
Zn4	Zn	0.144333	-0.462258	0.750959
Zn5	Zn	-0.250445	-0.857079	0.250943
Zn6	Zn	0.249555	-0.357079	0.750943
Zn7	Zn	-0.355680	-0.857048	0.356155
Zn8	Zn	0.144320	-0.357048	0.856155
O9	O	-0.303052	-0.909685	0.303573
O10	O	0.196948	-0.409685	0.803573
O11	O	-0.264360	-1.050432	0.342308
O12	O	0.235640	-0.550432	0.842308
O13	O	-0.341716	-0.948278	0.162867
O14	O	0.158284	-0.448278	0.662867
O15	O	-0.162351	-0.871098	0.264937
O16	O	0.337649	-0.371098	0.764937
O17	O	-0.341688	-1.050361	0.264963
O18	O	0.158312	-0.550361	0.764963
O19	O	-0.162330	-0.948444	0.342293
O20	O	0.337670	-0.448444	0.842293
O21	O	-0.264410	-0.871003	0.162856
O22	O	0.235590	-0.371003	0.662856
O23	O	-0.264422	-0.768985	0.264861
O24	O	0.235578	-0.268985	0.764861
O25	O	-0.341709	-0.871046	0.444255
O26	O	0.158291	-0.371046	0.944255
O27	O	-0.341738	-0.768963	0.342160
O28	O	0.158262	-0.268963	0.842160
O29	O	-0.264372	-0.948415	0.444313
O30	O	0.235628	-0.448415	0.944313
O31	O	-0.443758	-0.948248	0.264887
O32	O	0.056242	-0.448248	0.764887
O33	O	-0.443767	-0.870951	0.342175
O34	O	0.056233	-0.370951	0.842175
C35	C	-0.303085	-0.746134	0.303500
C36	C	0.196915	-0.246134	0.803500
C37	C	-0.303114	-0.676166	0.303484
C38	C	0.196886	-0.176166	0.803484
C39	C	-0.466603	-0.909603	0.303538
C40	C	0.033397	-0.409603	0.803538
C41	C	-0.536571	-0.909625	0.303544
C42	C	-0.036571	-0.409625	0.803544
C43	C	-0.303038	-0.909738	0.467763
C44	C	0.196962	-0.409738	0.967763
C45	C	-0.303033	-0.909760	0.537731
C46	C	0.196967	-0.409760	1.037731
C47	C	-0.569412	-0.949910	0.263342
C48	C	-0.069412	-0.449910	0.763342
C49	C	-0.635155	-0.949939	0.263356
C50	C	-0.135155	-0.449939	0.763356
C51	C	-0.668054	-0.909673	0.303566
C52	C	-0.168054	-0.409673	0.803566
C53	C	-0.635205	-0.869386	0.343776
C54	C	-0.135205	-0.369386	0.843776
C55	C	-0.569464	-0.869362	0.343765
C56	C	-0.069464	-0.369362	0.843765
N57	N	-0.771336	-0.854606	0.308340
N58	N	-0.271336	-0.354606	0.808340
N59	N	-0.833787	-0.854630	0.308347
N60	N	-0.333787	-0.354630	0.808347
C61	C	-0.866129	-0.909743	0.303602
C62	C	-0.366129	-0.409743	0.803602
N63	N	-0.833659	-0.964832	0.298838
N64	N	-0.333659	-0.464832	0.798838
N65	N	-0.771202	-0.964807	0.298828
N66	N	-0.271202	-0.464807	0.798828
C67	C	-0.739339	-0.909695	0.303582
C68	C	-0.239339	-0.409695	0.803582
C69	C	-0.970255	-0.950063	0.263413
C70	C	-0.470255	-0.450063	0.763413
C71	C	-1.035999	-0.950094	0.263431
C72	C	-0.535999	-0.450094	0.763431
C73	C	-1.036048	-0.869535	0.343848
C74	C	-0.536048	-0.369535	0.843848
C75	C	-0.970305	-0.869510	0.343833
C76	C	-0.470305	-0.369510	0.843833
C77	C	-0.937413	-0.909773	0.303612
C78	C	-0.437413	-0.409773	0.803612
C79	C	-0.138861	-0.909785	0.303622
C80	C	0.361139	-0.409785	0.803622
C81	C	-0.068893	-0.909828	0.303642
C82	C	0.431107	-0.409828	0.803642
C83	C	-0.303019	-1.073876	0.303646
C84	C	0.196981	-0.573876	0.803646
C85	C	-0.303005	-1.143844	0.303677
C86	C	0.196995	-0.643844	0.803677
C87	C	-0.343426	-0.643304	0.343674
C88	C	0.156574	-0.143304	0.843674
C89	C	-0.343410	-0.577561	0.343702
C90	C	0.156590	-0.077561	0.843702
C91	C	-0.303090	-0.544683	0.303530
C92	C	0.196910	-0.044683	0.803530
C93	C	-0.262770	-0.577553	0.263337
C94	C	0.237230	-0.077553	0.763337
C95	C	-0.262783	-0.643294	0.263315
C96	C	0.237217	-0.143294	0.763315
N97	N	-0.298163	-0.441407	0.248472
N98	N	0.201837	0.058593	0.748472
N99	N	-0.298155	-0.378956	0.248495
N100	N	0.201845	0.121044	0.748495
C101	C	-0.303050	-0.346608	0.303596
C102	C	0.196950	0.153392	0.803596
N103	N	-0.307965	-0.379072	0.358675
N104	N	0.192035	0.120928	0.858675
N105	N	-0.307976	-0.441529	0.358650
N106	N	0.192024	0.058471	0.858650
C107	C	-0.303072	-0.473398	0.303550
C108	C	0.196928	0.026602	0.803550
C109	C	-0.343346	-0.242461	0.343820
C110	C	0.156654	0.257539	0.843820
C111	C	-0.343326	-0.176717	0.343849
C112	C	0.156674	0.323283	0.843849
C113	C	-0.262690	-0.176710	0.263479
C114	C	0.237310	0.323290	0.763479
C115	C	-0.262707	-0.242453	0.263455
C116	C	0.237293	0.257547	0.763455
C117	C	-0.303038	-0.275324	0.303625
C118	C	0.196962	0.224676	0.803625
C119	C	-0.303019	-0.909670	0.140021
C120	C	0.196981	-0.409670	0.640021
C121	C	-0.302848	-0.909769	0.070054
C122	C	0.197152	-0.409769	0.570054
C123	C	-0.262761	-0.950044	0.570629
C124	C	0.237239	-0.450044	1.070629
C125	C	-0.262734	-0.950043	0.636371
C126	C	0.237266	-0.450043	1.136371
C127	C	-0.302989	-0.909765	0.669214
C128	C	0.197011	-0.409765	1.169214
C129	C	-0.343263	-0.869473	0.636308
C130	C	0.156737	-0.369473	1.136308
C131	C	-0.343285	-0.869470	0.570567
C132	C	0.156715	-0.369470	1.070567
N133	N	-0.358058	-0.904908	0.772428
N134	N	0.141942	-0.404908	1.272428
N135	N	-0.358036	-0.904914	0.834879
N136	N	0.141964	-0.404914	1.334879
C137	C	-0.302926	-0.909769	0.867289
C138	C	0.197074	-0.409769	1.367289
N139	N	-0.247837	-0.914629	0.834888
N140	N	0.252163	-0.414629	1.334888
N141	N	-0.247860	-0.914627	0.772430
N142	N	0.252140	-0.414627	1.272430
C143	C	-0.302970	-0.909763	0.740499
C144	C	0.197030	-0.409763	1.240499
C145	C	-0.262621	-0.950054	0.971472
C146	C	0.237379	-0.450054	1.471472
C147	C	-0.262593	-0.950049	1.037216
C148	C	0.237407	-0.450049	1.537216
C149	C	-0.343128	-0.869482	1.037151
C150	C	0.156872	-0.369482	1.537151
C151	C	-0.343151	-0.869484	0.971409
C152	C	0.156849	-0.369484	1.471409
C153	C	-0.302898	-0.909773	0.938573
C154	C	0.197102	-0.409773	1.438573
H155	H	-0.661899	-0.982746	0.230619
H156	H	-0.161899	-0.482746	0.730619
H157	H	-0.376266	-0.670063	0.376384
H158	H	0.123734	-0.170063	0.876384
H159	H	-1.062737	-0.982902	0.230695
H160	H	-0.562737	-0.482902	0.730695
O161	O	-0.537656	-0.830166	0.382838
O162	O	-0.037656	-0.330166	0.882838
C163	C	-0.580787	-0.794645	0.418347
C164	C	-0.080787	-0.294645	0.918347
H165	H	-0.627668	-0.792495	0.392571
H166	H	-0.127668	-0.292495	0.892571
H167	H	-0.587723	-0.817677	0.466185
H168	H	-0.087723	-0.317677	0.966185
C169	C	-0.497624	-0.730275	0.458991
C170	C	0.002376	-0.230275	0.958991
C171	C	-0.555203	-0.727630	0.427329
C172	C	-0.055203	-0.227630	0.927329
H173	H	-0.481842	-0.688938	0.464534
H174	H	0.018158	-0.188938	0.964534
H175	H	-0.468565	-0.754208	0.435069
H176	H	0.031435	-0.254208	0.935069
H177	H	-0.503412	-0.749472	0.498853
H178	H	-0.003412	-0.249472	0.998853
H179	H	-0.549413	-0.708441	0.387465
H180	H	-0.049413	-0.208441	0.887465
H181	H	-0.584260	-0.703692	0.451244
H182	H	-0.084260	-0.203692	0.951244
H183	H	-1.062833	-0.836752	0.376591
H184	H	-0.562833	-0.336752	0.876591
O185	O	-0.223703	-0.989212	0.668405
O186	O	0.276297	-0.489212	1.168405
C187	C	-0.259532	-1.029854	0.706446
C188	C	0.240468	-0.529854	1.206446
H189	H	-0.307235	-1.007616	0.716273
H190	H	0.192765	-0.507616	1.216273
H191	H	-0.266453	-1.076497	0.681142
H192	H	0.233547	-0.576497	1.181142
C193	C	-0.166291	-1.068595	0.756836
C194	C	0.333709	-0.568595	1.256836
C195	C	-0.224879	-1.041279	0.768910
C196	C	0.275121	-0.541279	1.268910
H197	H	-0.144914	-1.075645	0.795366
H198	H	0.355086	-0.575645	1.295366
H199	H	-0.142152	-1.041215	0.731206
H200	H	0.357848	-0.541215	1.231206
H201	H	-0.172066	-1.107461	0.735748
H202	H	0.327934	-0.607461	1.235748
H203	H	-0.219102	-1.002411	0.789990
H204	H	0.280898	-0.502411	1.289990
H205	H	-0.249016	-1.068653	0.794545
H206	H	0.250984	-0.568653	1.294545
H207	H	-0.661996	-0.836602	0.376516
H208	H	-0.161996	-0.336602	0.876516
H209	H	-0.943564	-0.836704	0.376567
H210	H	-0.443564	-0.336704	0.876567
O211	O	-0.223640	-0.274447	0.224378
O212	O	0.276360	0.225553	0.724378
C213	C	-0.259429	-0.312380	0.183630
C214	C	0.240571	0.187620	0.683630
H215	H	-0.307168	-0.322206	0.205741
H216	H	0.192832	0.177794	0.705741
H217	H	-0.266273	-0.286985	0.136977
H218	H	0.233727	0.213015	0.636977
C219	C	-0.166156	-0.362781	0.145116
C220	C	0.333844	0.137219	0.645116
C221	C	-0.224787	-0.374854	0.172275
C222	C	0.275213	0.125146	0.672275
H223	H	-0.144787	-0.401317	0.138108
H224	H	0.355213	0.098683	0.638108
H225	H	-0.142044	-0.337223	0.172566
H226	H	0.357956	0.162777	0.672566
H227	H	-0.171867	-0.341616	0.106241
H228	H	0.328133	0.158384	0.606241
H229	H	-0.219075	-0.396011	0.211152
H230	H	0.280925	0.103989	0.711152
H231	H	-0.248898	-0.400417	0.144831
H232	H	0.251102	0.099583	0.644831
H233	H	-0.542633	-0.982696	0.230593
H234	H	-0.042633	-0.482696	0.730593
H235	H	-0.943473	-0.982850	0.230664
H236	H	-0.443473	-0.482850	0.730664
H237	H	-0.229984	-0.982850	0.543898
H238	H	0.270016	-0.482850	1.043898
O239	O	-0.382627	-0.545727	0.382767
O240	O	0.117373	-0.045727	0.882767
C241	C	-0.418211	-0.588838	0.418231
C242	C	0.081789	-0.088838	0.918231
H243	H	-0.420366	-0.635670	0.392428
H244	H	0.079634	-0.135670	0.892428
H245	H	-0.395229	-0.595907	0.466079
H246	H	0.104771	-0.095907	0.966079
C247	C	-0.482567	-0.505598	0.458883
C248	C	0.017433	-0.005598	0.958883
C249	C	-0.485218	-0.563117	0.427188
C250	C	0.014782	-0.063117	0.927188
H251	H	-0.523899	-0.489731	0.464411
H252	H	-0.023899	0.010269	0.964411
H253	H	-0.458592	-0.476553	0.434992
H254	H	0.041408	0.023447	0.934992
H255	H	-0.463413	-0.511496	0.498753
H256	H	0.036587	-0.011496	0.998753
H257	H	-0.504364	-0.557216	0.387316
H258	H	-0.004364	-0.057216	0.887316
H259	H	-0.509198	-0.592160	0.451073
H260	H	-0.009198	-0.092160	0.951073
O261	O	-0.382218	-0.830377	0.939351
O262	O	0.117782	-0.330377	1.439351
C263	C	-0.373617	-0.839024	0.874285
C264	C	0.126383	-0.339024	1.374285
H265	H	-0.325036	-0.859668	0.865323
H266	H	0.174964	-0.359668	1.365323
H267	H	-0.410955	-0.872524	0.855652
H268	H	0.089045	-0.372524	1.355652
C269	C	-0.439081	-0.749972	0.851491
C270	C	0.060919	-0.249972	1.351491
C271	C	-0.379410	-0.775323	0.840484
C272	C	0.120590	-0.275323	1.340484
H273	H	-0.442657	-0.710680	0.830640
H274	H	0.057343	-0.210680	1.330640
H275	H	-0.444878	-0.744148	0.895328
H276	H	0.055122	-0.244148	1.395328
H277	H	-0.470189	-0.777895	0.835964
H278	H	0.029811	-0.277895	1.335964
H279	H	-0.348304	-0.747404	0.856018
H280	H	0.151696	-0.247404	1.356018
H281	H	-0.373609	-0.781141	0.796649
H282	H	0.126391	-0.281141	1.296649
O283	O	-0.223486	-0.989119	1.069272
O284	O	0.276514	-0.489119	1.569272
C285	C	-0.232103	-0.980490	1.134339
C286	C	0.267897	-0.480490	1.634339
H287	H	-0.252727	-0.931897	1.143278
H288	H	0.247273	-0.431897	1.643278
H289	H	-0.265608	-1.017808	1.153027
H290	H	0.234392	-0.517808	1.653027
C291	C	-0.143064	-1.045974	1.157112
C292	C	0.356936	-0.545974	1.657112
C293	C	-0.168390	-0.986290	1.168093
C294	C	0.331610	-0.486290	1.668093
H295	H	-0.103764	-1.049555	1.177935
H296	H	0.396236	-0.549555	1.677935
H297	H	-0.137260	-1.051790	1.113276
H298	H	0.362740	-0.551790	1.613276
H299	H	-0.170991	-1.077066	1.172686
H300	H	0.329009	-0.577066	1.672686
H301	H	-0.140467	-0.955200	1.152512
H302	H	0.359533	-0.455200	1.652512
H303	H	-0.174188	-0.980469	1.211928
H304	H	0.325812	-0.480469	1.711928
H305	H	-0.376183	-0.269226	0.376531
H306	H	0.123817	0.230774	0.876531
O307	O	-0.382437	-0.830438	0.668236
O308	O	0.117563	-0.330438	1.168236
C309	C	-0.423066	-0.866254	0.706297
C310	C	0.076934	-0.366254	1.206297
H311	H	-0.426950	-0.915829	0.686519
H312	H	0.073050	-0.415829	1.186519
H313	H	-0.403588	-0.868437	0.756124
H314	H	0.096412	-0.368437	1.256124
C315	C	-0.483741	-0.774572	0.731570
C316	C	0.016259	-0.274572	1.231570
C317	C	-0.488516	-0.835459	0.707276
C318	C	0.011484	-0.335459	1.207276
H319	H	-0.524113	-0.755575	0.732177
H320	H	-0.024113	-0.255575	1.232177
H321	H	-0.456367	-0.750441	0.705930
H322	H	0.043633	-0.250441	1.205930
H323	H	-0.467507	-0.776399	0.773091
H324	H	0.032493	-0.276399	1.273091
H325	H	-0.504742	-0.833630	0.665754
H326	H	-0.004742	-0.333630	1.165754
H327	H	-0.515894	-0.859589	0.732909
H328	H	-0.015894	-0.359589	1.232909
H329	H	-0.229940	-0.550779	0.230630
H330	H	0.270060	-0.050779	0.730630
O331	O	-0.223458	-0.989204	0.939668
O332	O	0.276542	-0.489204	1.439668
C333	C	-0.187912	-1.024768	0.982806
C334	C	0.312088	-0.524768	1.482806
H335	H	-0.185721	-0.998985	1.029649
H336	H	0.314279	-0.498985	1.529649
H337	H	-0.210950	-1.072563	0.989834
H338	H	0.289050	-0.572563	1.489834
C339	C	-0.123613	-1.065545	0.899622
C340	C	0.376387	-0.565545	1.399622
C341	C	-0.120918	-1.033876	0.957154
C342	C	0.379082	-0.533876	1.457154
H343	H	-0.082289	-1.071167	0.883799
H344	H	0.417711	-0.571167	1.383799
H345	H	-0.147562	-1.041587	0.870559
H346	H	0.352438	-0.541587	1.370559
H347	H	-0.142814	-1.105371	0.905487
H348	H	0.357186	-0.605371	1.405487
H349	H	-0.101725	-0.994048	0.951288
H350	H	0.398275	-0.494048	1.451288
H351	H	-0.096964	-1.057827	0.986216
H352	H	0.403036	-0.557827	1.486216
H353	H	-0.375898	-0.836680	1.063891
H354	H	0.124102	-0.336680	1.563891
O355	O	-0.223605	-0.675122	0.224210
O356	O	0.276395	-0.175122	0.724210
C357	C	-0.187999	-0.632009	0.188771
C358	C	0.312001	-0.132009	0.688771
H359	H	-0.213767	-0.585117	0.186561
H360	H	0.286233	-0.085117	0.686561
H361	H	-0.140222	-0.625095	0.211913
H362	H	0.359778	-0.125095	0.711913
C363	C	-0.147186	-0.715195	0.124495
C364	C	0.352814	-0.215195	0.624495
C365	C	-0.178837	-0.657602	0.121777
C366	C	0.321163	-0.157602	0.621777
H367	H	-0.141531	-0.730982	0.083170
H368	H	0.358469	-0.230982	0.583170
H369	H	-0.171172	-0.744241	0.148372
H370	H	0.328828	-0.244241	0.648372
H371	H	-0.107375	-0.709425	0.143783
H372	H	0.392625	-0.209425	0.643783
H373	H	-0.218650	-0.663373	0.102496
H374	H	0.281350	-0.163373	0.602496
H375	H	-0.154857	-0.628557	0.097894
H376	H	0.345143	-0.128557	0.597894
O377	O	-0.382548	-0.144890	0.382910
O378	O	0.117452	0.355110	0.882910
C379	C	-0.418135	-0.188004	0.418367
C380	C	0.081865	0.311996	0.918367
H381	H	-0.420283	-0.234836	0.392562
H382	H	0.079717	0.265164	0.892562
H383	H	-0.395162	-0.195074	0.466219
H384	H	0.104838	0.304926	0.966219
C385	C	-0.482503	-0.104770	0.459010
C386	C	0.017497	0.395230	0.959010
C387	C	-0.485146	-0.162287	0.427313
C388	C	0.014854	0.337713	0.927313
H389	H	-0.523838	-0.088906	0.464532
H390	H	-0.023838	0.411094	0.964532
H391	H	-0.458526	-0.075722	0.435125
H392	H	0.041474	0.424278	0.935125
H393	H	-0.463356	-0.110669	0.498884
H394	H	0.036644	0.389331	0.998884
H395	H	-0.504285	-0.156387	0.387438
H396	H	-0.004285	0.343613	0.887438
H397	H	-0.509128	-0.191333	0.451193
H398	H	-0.009128	0.308667	0.951193
H399	H	-0.229857	-0.149942	0.230773
H400	H	0.270143	0.350058	0.730773
H401	H	-0.376078	-0.836663	0.543782
H402	H	0.123922	-0.336663	1.043782
