data_functionalizedCrystal
_audit_creation_method	'MofGen! by Chris Wilmer'
_symmetry_space_group_name_H-M	'P1'
_symmetry_Int_Tables_number	1
_symmetry_cell_setting	triclinic
loop_
_symmetry_equiv_pos_as_xyz
  x,y,z
_cell_length_a	23.532407
_cell_length_b	11.792241
_cell_length_c	10.268362
_cell_angle_alpha	89.994572
_cell_angle_beta	90.000752
_cell_angle_gamma	83.521047
loop_
_atom_site_label
_atom_site_type_symbol
_atom_site_fract_x
_atom_site_fract_y
_atom_site_fract_z
O1	O	0.756076	0.137772	-0.108138
O2	O	0.590331	0.157706	-0.108177
O3	O	0.677226	-0.017526	-0.108147
O4	O	0.669181	0.313004	-0.108168
O5	O	0.677218	-0.017533	0.108453
O6	O	0.590323	0.157699	0.108424
O7	O	0.756068	0.137765	0.108462
Cu8	Cu	0.673195	0.147731	0.128221
Cu9	Cu	0.673204	0.147740	-0.127935
O10	O	0.669174	0.312997	0.108433
C11	C	0.676716	-0.059809	0.000152
C12	C	0.675204	-0.185787	0.000151
C13	C	0.569108	0.157195	0.000119
C14	C	0.505882	0.155669	0.000104
C15	C	0.672423	-0.416434	0.000128
C16	C	0.673968	-0.288085	0.000141
C17	C	0.107337	0.249795	0.000158
C18	C	0.047928	0.248377	0.000166
O19	O	0.011701	0.335633	0.000208
N20	N	0.024684	0.144202	0.000170
C21	C	0.060853	0.041437	0.000179
O22	O	0.035627	-0.047303	0.000185
C23	C	0.120260	0.042856	0.000181
C24	C	0.143501	0.147038	0.000163
C25	C	0.130577	0.353969	0.000142
C26	C	0.189982	0.355386	0.000131
C27	C	0.226146	0.252630	0.000137
C28	C	0.202905	0.148456	0.000153
C29	C	0.156428	-0.059907	0.000199
C30	C	0.215839	-0.058479	0.000202
C31	C	0.239079	0.045703	0.000184
C32	C	0.298474	0.047116	0.000148
N33	N	0.321717	0.151292	0.000144
C34	C	0.285553	0.254049	0.000138
C35	C	-0.063907	0.038465	0.000179
C36	C	-0.123313	0.037045	0.000168
C37	C	-0.136234	0.243985	0.000157
C38	C	-0.076827	0.245404	0.000159
C39	C	-0.040664	0.142641	0.000175
C40	C	0.410308	0.257017	0.000115
C41	C	0.469718	0.258425	0.000099
C42	C	0.482634	0.051485	0.000117
C43	C	0.423229	0.050077	0.000126
C44	C	0.387066	0.152852	0.000129
O45	O	0.334736	-0.040094	0.000111
O46	O	0.310787	0.342774	0.000150
C47	C	0.777291	0.138276	0.000164
C48	C	0.840517	0.139802	0.000170
C49	C	0.669683	0.355280	0.000130
C50	C	0.671195	0.481258	0.000124
N51	N	0.673193	0.147725	0.308386
N52	N	0.673211	0.147737	-0.308101
C53	C	0.673201	0.147737	0.574057
C54	C	0.673195	0.147734	0.426219
H55	H	0.488636	0.343267	0.000084
Br56	Br	0.361239	0.396499	0.000122
H57	H	-0.034466	-0.045223	0.000181
Br58	Br	-0.045293	0.386799	0.000136
Br59	Br	-0.154846	-0.104351	0.000153
Br60	Br	0.124903	-0.201306	0.000194
Br61	Br	0.264915	-0.197953	0.000230
H62	H	0.404306	-0.034757	0.000121
H63	H	0.512089	-0.032176	0.000117
H64	H	0.101138	0.437650	0.000142
Br65	Br	0.221512	0.496784	0.000114
H66	H	-0.165690	0.327655	0.000159
