data_functionalizedCrystal
_audit_creation_method	'MofGen! by Chris Wilmer'
_symmetry_space_group_name_H-M	'P1'
_symmetry_Int_Tables_number	1
_symmetry_cell_setting	triclinic
loop_
_symmetry_equiv_pos_as_xyz
  x,y,z
_cell_length_a	16.974885
_cell_length_b	23.532357
_cell_length_c	15.455313
_cell_angle_alpha	92.642146
_cell_angle_beta	90.969048
_cell_angle_gamma	83.111531
loop_
_atom_site_label
_atom_site_type_symbol
_atom_site_fract_x
_atom_site_fract_y
_atom_site_fract_z
O1	O	1.048479	0.072615	0.001390
O2	O	0.818979	0.081308	-0.014708
O3	O	0.940669	-0.005932	-0.006154
O4	O	0.926789	0.159855	-0.007164
O5	O	0.933710	-0.000964	0.137619
O6	O	0.812020	0.086276	0.129065
O7	O	1.041521	0.077583	0.145163
Cu8	Cu	0.926135	0.082383	0.150242
Cu9	Cu	0.934364	0.076508	-0.019786
O10	O	0.919830	0.164823	0.136609
C11	C	0.786143	0.083370	0.055120
C12	C	0.698673	0.082105	0.048985
C13	C	0.206720	0.074672	0.005980
C14	C	0.288907	0.075861	0.011756
C15	C	0.326199	0.079168	0.093016
C16	C	0.281300	0.081280	0.168504
C17	C	0.199115	0.080087	0.162727
C18	C	0.571589	0.083024	0.118696
C19	C	0.653779	0.084219	0.124467
C20	C	0.661381	0.078798	-0.032281
C21	C	0.579194	0.077609	-0.038051
C22	C	0.534302	0.079718	0.037438
N23	N	0.410207	0.080386	0.098922
N24	N	0.450297	0.078497	0.031531
C25	C	0.936842	-0.024666	0.065711
C26	C	0.935798	-0.087891	0.065646
C27	C	0.933039	-0.482649	-0.013232
C28	C	0.932047	-0.542054	-0.013306
O29	O	0.934733	-0.575077	-0.079995
N30	N	0.927762	-0.569060	0.065029
C31	C	0.924461	-0.536657	0.143443
O32	O	0.920724	-0.565082	0.210066
C33	C	0.925447	-0.477252	0.143516
C34	C	0.929741	-0.450250	0.065177
C35	C	0.937332	-0.455647	-0.091565
C36	C	0.938325	-0.396246	-0.091490
C37	C	0.935027	-0.363847	-0.013082
C38	C	0.930734	-0.390849	0.065252
C39	C	0.922140	-0.444849	0.221929
C40	C	0.923127	-0.385441	0.221996
C41	C	0.927420	-0.358439	0.143656
C42	C	0.928429	-0.299049	0.143735
N43	N	0.932714	-0.272044	0.065400
C44	C	0.936013	-0.304442	-0.013008
C45	C	0.922388	-0.661411	0.143283
C46	C	0.921407	-0.720815	0.143211
C47	C	0.928992	-0.726208	-0.013538
C48	C	0.929979	-0.666803	-0.013465
C49	C	0.926673	-0.634405	0.064948
C50	C	0.938100	-0.179696	-0.012845
C51	C	0.939097	-0.120289	-0.012763
C52	C	0.931507	-0.114901	0.143986
C53	C	0.930515	-0.174302	0.143905
C54	C	0.933809	-0.206698	0.065482
O55	O	0.925742	-0.265990	0.210390
O56	O	0.939739	-0.276008	-0.079621
C57	C	1.074356	0.075521	0.075334
C58	C	1.161827	0.076786	0.081463
C59	C	0.923657	0.183557	0.064743
C60	C	0.924701	0.246781	0.064802
N61	N	0.920352	0.086515	0.269831
N62	N	0.940153	0.072371	-0.139375
C63	C	0.972069	0.049466	0.318860
C64	C	0.967703	0.052597	0.409361
C65	C	0.911624	0.092779	0.450831
C66	C	0.859903	0.129830	0.401795
C67	C	0.864265	0.126696	0.311296
C68	C	0.892794	0.106288	0.721089
C69	C	0.888437	0.109420	0.811596
C70	C	0.996237	0.032186	0.819155
C71	C	1.000597	0.029059	0.728654
C72	C	0.948873	0.066107	0.679625
N73	N	0.907162	0.095981	0.543338
N74	N	0.953332	0.062902	0.587120
H75	H	0.325457	0.074137	-0.049710
H76	H	0.920423	-0.359064	0.285850
H77	H	0.927026	-0.196289	0.207696
H78	H	0.940015	-0.482020	-0.155418
O79	O	0.704867	0.076768	-0.105692
C80	C	0.654331	0.073578	-0.178650
H81	H	0.591223	0.091534	-0.160034
H82	H	0.655400	0.026971	-0.202743
C83	C	0.760445	0.086742	-0.273813
C84	C	0.682935	0.108801	-0.250950
H85	H	0.778091	0.108466	-0.318413
H86	H	0.794493	0.088889	-0.224660
H87	H	0.761325	0.047903	-0.293885
H88	H	0.682058	0.147636	-0.230868
H89	H	0.648887	0.106661	-0.300101
O90	O	0.542920	0.074495	-0.116970
C91	C	0.486269	0.122913	-0.125665
H92	H	0.502358	0.159253	-0.079916
H93	H	0.425068	0.111596	-0.108840
C94	C	0.465568	0.097366	-0.275880
C95	C	0.485331	0.142001	-0.219695
H96	H	0.464986	0.109140	-0.333882
H97	H	0.503732	0.064745	-0.270022
H98	H	0.414569	0.087940	-0.261848
H99	H	0.536334	0.151422	-0.233720
H100	H	0.447175	0.174625	-0.225558
H101	H	0.684139	0.086916	0.190642
H102	H	0.176363	0.071983	-0.060190
H103	H	0.535049	0.084733	0.180165
H104	H	0.162562	0.081814	0.224193
H105	H	0.822151	0.156865	0.271376
O106	O	0.805497	0.168846	0.442216
C107	C	0.812723	0.163660	0.532607
H108	H	0.874949	0.142931	0.549366
H109	H	0.767117	0.135895	0.555202
C110	C	0.721740	0.248965	0.557599
C111	C	0.798169	0.223509	0.578184
H112	H	0.712759	0.285881	0.585715
H113	H	0.716869	0.252458	0.496702
H114	H	0.683744	0.225821	0.576430
H115	H	0.836164	0.246648	0.559344
H116	H	0.803046	0.220021	0.639080
O117	O	0.932089	-0.757615	-0.089770
C118	C	0.866370	-0.738409	-0.142211
H119	H	0.843256	-0.692393	-0.121476
H120	H	0.817490	-0.767024	-0.134733
C121	C	0.920223	-0.797450	-0.263073
C122	C	0.891838	-0.740931	-0.237610
H123	H	0.935931	-0.799009	-0.321920
H124	H	0.964498	-0.810392	-0.227742
H125	H	0.879485	-0.821290	-0.256834
H126	H	0.932579	-0.717094	-0.243839
H127	H	0.847570	-0.727986	-0.272944
H128	H	0.311670	0.083969	0.234667
H129	H	0.842768	0.142144	0.845356
O130	O	0.943232	-0.094148	-0.088946
C131	C	0.945948	-0.135489	-0.158163
H132	H	0.919176	-0.174722	-0.136985
H133	H	1.010236	-0.148516	-0.177833
C134	C	0.931115	-0.061865	-0.261817
C135	C	0.898228	-0.110050	-0.235809
H136	H	0.901682	-0.046173	-0.309715
H137	H	0.929289	-0.034012	-0.215185
H138	H	0.984688	-0.072728	-0.278203
H139	H	0.844660	-0.099185	-0.219414
H140	H	0.900044	-0.137900	-0.282441
H141	H	0.940779	-0.206065	-0.076704
H142	H	0.941819	-0.374266	-0.155282
H143	H	0.933474	-0.644823	-0.077256
O144	O	0.919297	-0.629892	0.219414
C145	C	0.987908	-0.601724	0.228951
H146	H	1.014103	-0.597274	0.162514
H147	H	1.033453	-0.627733	0.270944
C148	C	0.933772	-0.547296	0.353991
C149	C	0.965941	-0.541826	0.272390
H150	H	0.920224	-0.510349	0.380790
H151	H	0.887548	-0.566275	0.347568
H152	H	0.971731	-0.568973	0.388974
H153	H	0.927979	-0.520156	0.237406
H154	H	1.012158	-0.522843	0.278809
H155	H	0.917923	-0.742796	0.207004
O156	O	0.928158	-0.083380	0.220112
C157	C	0.860255	-0.042506	0.220018
H158	H	0.814411	-0.057516	0.172173
H159	H	0.877457	0.000352	0.200084
C160	C	0.881079	-0.017039	0.370238
C161	C	0.824770	-0.035478	0.311479
H162	H	0.859191	-0.012701	0.426656
H163	H	0.926829	-0.044575	0.370301
H164	H	0.895409	0.018674	0.353616
H165	H	0.810448	-0.071194	0.328095
H166	H	0.779017	-0.007947	0.311421
O167	O	1.026568	0.010383	0.278716
C168	C	1.071290	-0.021637	0.341403
H169	H	1.035877	-0.020112	0.403656
H170	H	1.129212	-0.002693	0.355101
C171	C	1.133227	-0.086138	0.230819
C172	C	1.089730	-0.084269	0.307277
H173	H	1.144606	-0.124772	0.209769
H174	H	1.103100	-0.064565	0.188585
H175	H	1.181491	-0.070349	0.242245
H176	H	1.041463	-0.100052	0.295848
H177	H	1.119850	-0.105846	0.349509
O178	O	1.017836	0.016553	0.457015
C179	C	0.973408	-0.016853	0.506464
H180	H	0.912586	-0.018889	0.474853
H181	H	0.965829	0.003333	0.574749
C182	C	1.091978	-0.075361	0.549762
C183	C	1.017277	-0.077865	0.510933
H184	H	1.119039	-0.112996	0.552523
H185	H	1.121911	-0.052854	0.516450
H186	H	1.085651	-0.058538	0.606662
H187	H	1.023605	-0.094682	0.454031
H188	H	0.987346	-0.100377	0.544236
O189	O	1.054847	-0.010022	0.688124
C190	C	1.105771	0.018544	0.638851
H191	H	1.105933	0.064355	0.666207
H192	H	1.084057	0.019247	0.568658
C193	C	1.190311	-0.069349	0.609296
C194	C	1.190515	-0.013085	0.642899
H195	H	1.242585	-0.088861	0.611789
H196	H	1.156001	-0.088596	0.642489
H197	H	1.172213	-0.068756	0.550805
H198	H	1.208604	-0.013680	0.701392
H199	H	1.224830	0.006161	0.609715
H200	H	0.918645	-0.466824	0.285722
H201	H	1.038347	0.002022	0.859082
H202	H	0.850679	0.136456	0.681177
