data_functionalizedCrystal
_audit_creation_method	'MofGen! by Chris Wilmer'
_symmetry_space_group_name_H-M	'P1'
_symmetry_Int_Tables_number	1
_symmetry_cell_setting	triclinic
loop_
_symmetry_equiv_pos_as_xyz
  x,y,z
_cell_length_a	10.654550
_cell_length_b	16.992695
_cell_length_c	9.130313
_cell_angle_alpha	89.998255
_cell_angle_beta	89.996220
_cell_angle_gamma	87.576563
loop_
_atom_site_label
_atom_site_type_symbol
_atom_site_fract_x
_atom_site_fract_y
_atom_site_fract_z
O1	O	1.677356	0.110186	-0.121922
O2	O	1.312785	0.120685	-0.121899
O3	O	1.493609	0.001285	-0.121899
O4	O	1.496532	0.229586	-0.121922
O5	O	1.493607	0.001288	0.121700
O6	O	1.312783	0.120688	0.121700
O7	O	1.677354	0.110190	0.121676
Cu8	Cu	1.495068	0.115439	0.143931
Cu9	Cu	1.495071	0.115435	-0.144153
O10	O	1.496530	0.229589	0.121676
C11	C	1.265919	0.119915	-0.000097
C12	C	1.126277	0.117609	-0.000087
C13	C	1.052866	0.187910	-0.000116
C14	C	0.921658	0.185738	-0.000141
C15	C	0.937282	0.042959	-0.000115
C16	C	1.068488	0.045131	-0.000080
C17	C	1.043844	0.270342	-0.000137
C18	C	0.912636	0.268171	-0.000162
C19	C	1.489848	-0.027947	-0.000100
C20	C	1.478628	-0.115052	-0.000099
C21	C	1.586879	-0.164704	-0.000105
C22	C	1.576330	-0.246548	-0.000118
C23	C	1.457529	-0.278738	-0.000115
C24	C	1.349270	-0.229080	-0.000114
C25	C	1.359820	-0.147237	-0.000112
C26	C	1.413802	-0.522574	-0.000133
C27	C	1.403260	-0.604422	-0.000131
C28	C	1.630321	-0.621884	-0.000137
C29	C	1.640861	-0.540040	-0.000126
C30	C	1.532602	-0.490389	-0.000132
N31	N	1.446743	-0.362396	-0.000124
N32	N	1.543389	-0.406733	-0.000134
C33	C	1.724220	0.110959	-0.000129
C34	C	1.863862	0.113265	-0.000148
C35	C	1.500291	0.258821	-0.000126
C36	C	1.511510	0.345926	-0.000136
N37	N	1.495076	0.115441	0.346553
N38	N	1.495073	0.115427	-0.346776
C39	C	1.575168	0.062589	0.423205
C40	C	1.575164	0.062580	0.576542
C41	C	1.414971	0.168281	0.576561
C42	C	1.414970	0.168286	0.423227
C43	C	1.667658	0.001565	0.423195
C44	C	1.667654	0.001556	0.576532
H45	H	1.075960	0.302583	0.101811
O46	O	0.866174	0.305329	-0.121745
C47	C	0.848896	0.426328	-0.259294
C48	C	0.901616	0.384339	-0.121571
H49	H	0.877508	0.490220	-0.259184
H50	H	0.888001	0.395339	-0.361298
H51	H	0.742058	0.424519	-0.259308
H52	H	1.008450	0.386136	-0.121415
H53	H	0.862414	0.415340	-0.019629
O54	O	1.233839	-0.260311	-0.000375
C55	C	1.036521	-0.270386	-0.126527
C56	C	1.167220	-0.234981	-0.126436
H57	H	0.982613	-0.249907	-0.228421
H58	H	1.047501	-0.337413	-0.126621
H59	H	0.982658	-0.250003	-0.024534
H60	H	1.221155	-0.255303	-0.228412
H61	H	1.156151	-0.167958	-0.126266
H62	H	1.271671	-0.106811	-0.000107
H63	H	1.632216	-0.055428	0.624087
H64	H	1.641004	-0.058735	0.381583
H65	H	1.325649	-0.482157	-0.000138
H66	H	1.081769	0.296589	-0.105312
H67	H	1.128255	-0.012114	-0.000035
H68	H	1.664480	-0.286971	-0.000119
H69	H	1.683620	-0.138501	-0.000098
H70	H	1.760493	0.020673	0.375629
O71	O	0.881287	-0.027490	-0.000313
C72	C	0.854464	-0.150169	-0.126552
C73	C	0.917978	-0.070420	-0.126490
H74	H	0.884083	-0.184894	-0.228571
H75	H	0.884121	-0.184998	-0.024666
H76	H	0.748081	-0.139628	-0.126507
H77	H	1.024369	-0.080889	-0.126587
H78	H	0.888219	-0.035617	-0.228368
H79	H	1.737601	-0.513837	-0.000128
O80	O	1.337120	0.219696	0.348994
C81	C	1.178159	0.324494	0.365201
C82	C	1.266287	0.266326	0.449451
H83	H	1.120849	0.362198	0.446384
H84	H	1.236264	0.364065	0.293449
H85	H	1.112056	0.290238	0.293379
H86	H	1.332407	0.300518	0.521352
H87	H	1.208103	0.226756	0.521111
O88	O	0.860907	0.297948	0.125356
C89	C	0.898120	0.356021	0.361337
C90	C	0.956867	0.322340	0.219251
H91	H	0.975678	0.375735	0.437303
H92	H	0.832177	0.408554	0.334016
H93	H	0.843003	0.308650	0.417923
H94	H	1.012047	0.369654	0.162596
H95	H	1.022740	0.269789	0.246667
O96	O	1.784231	0.017630	0.625938
C97	C	1.996685	0.046820	0.561902
C98	C	1.864720	0.028646	0.505752
H99	H	2.061804	0.055715	0.464761
H100	H	1.990894	0.102654	0.631226
H101	H	2.035075	-0.004516	0.631306
H102	H	1.826253	0.079933	0.436288
H103	H	1.870591	-0.027215	0.436507
H104	H	1.718459	-0.662319	-0.000135
H105	H	1.306513	-0.630628	-0.000105
H106	H	1.349751	0.211306	0.639006
