data_functionalizedCrystal
_audit_creation_method	'MofGen! by Chris Wilmer'
_symmetry_space_group_name_H-M	'P1'
_symmetry_Int_Tables_number	1
_symmetry_cell_setting	triclinic
loop_
_symmetry_equiv_pos_as_xyz
  x,y,z
_cell_length_a	10.654550
_cell_length_b	17.038272
_cell_length_c	9.130313
_cell_angle_alpha	89.998262
_cell_angle_beta	89.996220
_cell_angle_gamma	87.798229
loop_
_atom_site_label
_atom_site_type_symbol
_atom_site_fract_x
_atom_site_fract_y
_atom_site_fract_z
O1	O	1.678036	0.109874	-0.121922
O2	O	2.178036	0.609874	0.378078
O3	O	1.313530	0.120343	-0.121899
O4	O	1.813530	0.620343	0.378101
O5	O	1.493617	0.001281	-0.121899
O6	O	1.993617	0.501281	0.378101
O7	O	1.497950	0.228936	-0.121923
O8	O	1.997950	0.728936	0.378077
O9	O	1.493615	0.001284	0.121700
O10	O	1.993615	0.501284	0.621700
O11	O	1.313528	0.120346	0.121700
O12	O	1.813528	0.620346	0.621700
O13	O	1.678034	0.109878	0.121676
O14	O	2.178034	0.609878	0.621676
Cu15	Cu	1.495781	0.115112	0.143931
Cu16	Cu	1.995781	0.615112	0.643931
Cu17	Cu	1.495783	0.115108	-0.144153
Cu18	Cu	1.995783	0.615108	0.355847
O19	O	1.497948	0.228939	0.121676
O20	O	1.997948	0.728939	0.621676
C21	C	1.266660	0.119576	-0.000097
C22	C	1.766660	0.619576	0.499903
C23	C	1.127003	0.117276	-0.000087
C24	C	1.627003	0.617276	0.499913
C25	C	1.054026	0.187378	-0.000116
C26	C	1.554026	0.687378	0.499884
C27	C	0.922804	0.185212	-0.000141
C28	C	1.422804	0.685212	0.499859
C29	C	0.937548	0.042837	-0.000115
C30	C	1.437548	0.542837	0.499885
C31	C	1.068767	0.045004	-0.000080
C32	C	1.568767	0.545004	0.499920
C33	C	1.112262	0.259650	-0.000124
C34	C	1.612262	0.759650	0.499876
C35	C	1.039285	0.329758	-0.000154
C36	C	1.539285	0.829758	0.499846
C37	C	0.908063	0.327592	-0.000179
C38	C	1.408063	0.827592	0.499821
C39	C	0.849818	0.255319	-0.000174
C40	C	1.349818	0.755319	0.499826
C41	C	1.489675	-0.027867	-0.000100
C42	C	1.989675	0.472133	0.499900
C43	C	1.477918	-0.114726	-0.000099
C44	C	1.977918	0.385274	0.499901
C45	C	1.585862	-0.164237	-0.000105
C46	C	2.085862	0.335763	0.499895
C47	C	1.574808	-0.245850	-0.000118
C48	C	2.074808	0.254150	0.499882
C49	C	1.455808	-0.277949	-0.000115
C50	C	1.955808	0.222051	0.499885
C51	C	1.347856	-0.228431	-0.000114
C52	C	1.847856	0.271569	0.499886
C53	C	1.358911	-0.146821	-0.000111
C54	C	1.858911	0.353179	0.499889
C55	C	1.416750	-0.523925	-0.000133
C56	C	1.916750	-0.023925	0.499867
C57	C	1.405702	-0.605542	-0.000131
C58	C	1.905702	-0.105542	0.499869
C59	C	1.632656	-0.622955	-0.000137
C60	C	2.132656	-0.122955	0.499863
C61	C	1.643701	-0.541342	-0.000126
C62	C	2.143701	-0.041342	0.499874
C63	C	1.535749	-0.491831	-0.000133
C64	C	2.035749	0.008169	0.499867
C65	C	1.444505	-0.361370	-0.000124
C66	C	1.944505	0.138630	0.499876
C67	C	1.547052	-0.408412	-0.000134
C68	C	2.047052	0.091588	0.499866
C69	C	1.724905	0.110645	-0.000129
C70	C	2.224905	0.610645	0.499871
C71	C	1.864562	0.112944	-0.000148
C72	C	2.364562	0.612944	0.499852
C73	C	1.501889	0.258088	-0.000126
C74	C	2.001889	0.758088	0.499874
C75	C	1.513646	0.344947	-0.000136
C76	C	2.013646	0.844947	0.499864
N77	N	1.495788	0.115114	0.346553
N78	N	1.995788	0.615114	0.846553
N79	N	1.495785	0.115100	-0.346776
N80	N	1.995785	0.615100	0.153224
C81	C	1.575554	0.062412	0.423205
C82	C	2.075554	0.562412	0.923205
C83	C	1.575550	0.062403	0.576542
C84	C	2.075550	0.562403	1.076542
C85	C	1.416010	0.167805	0.576561
C86	C	1.916010	0.667805	1.076561
C87	C	1.416009	0.167810	0.423227
C88	C	1.916009	0.667810	0.923227
C89	C	1.655334	0.009716	0.346531
C90	C	2.155334	0.509716	0.846531
C91	C	1.735107	-0.042990	0.423183
C92	C	2.235107	0.457010	0.923183
C93	C	1.735103	-0.042999	0.576520
C94	C	2.235103	0.457001	1.076520
C95	C	1.655325	0.009698	0.653205
C96	C	2.155325	0.509698	1.153205
H97	H	1.086717	0.388600	-0.000146
H98	H	1.586717	0.888600	0.499854
Cl99	Cl	1.315730	0.234050	0.672965
Cl100	Cl	1.815730	0.734050	1.172965
H101	H	1.128187	-0.012079	-0.000060
H102	H	1.628187	0.487921	0.499940
Cl103	Cl	1.281036	-0.461694	-0.000145
Cl104	Cl	1.781036	0.038306	0.499855
Cl105	Cl	1.696647	-0.368057	-0.000145
Cl106	Cl	2.196647	0.131943	0.499855
Cl107	Cl	0.864324	-0.048013	-0.000117
Cl108	Cl	1.364324	0.451987	0.499883
Cl109	Cl	0.684851	0.252600	-0.000184
Cl110	Cl	1.184851	0.752600	0.499816
Cl111	Cl	1.735470	-0.123892	-0.000093
Cl112	Cl	2.235470	0.376108	0.499907
Cl113	Cl	0.816324	0.415725	-0.000203
Cl114	Cl	1.316324	0.915725	0.499797
H115	H	1.662708	-0.286159	-0.000119
H116	H	2.162708	0.213841	0.499881
Cl117	Cl	1.198254	-0.268785	-0.000129
Cl118	Cl	1.698254	0.231215	0.499871
Cl119	Cl	1.793307	-0.500995	-0.000177
Cl120	Cl	2.293307	-0.000995	0.499823
Cl121	Cl	1.835382	-0.109240	0.326784
Cl122	Cl	2.335382	0.390760	0.826784
Cl123	Cl	1.768358	-0.685200	-0.000133
Cl124	Cl	2.268358	-0.185200	0.499867
Cl125	Cl	1.256091	-0.645894	-0.000119
Cl126	Cl	1.756091	-0.145894	0.499881
H127	H	1.219109	0.261422	-0.000110
H128	H	1.719109	0.761422	0.499890
Cl129	Cl	1.294910	-0.401730	-0.000128
Cl130	Cl	1.794910	0.098270	0.499872
H131	H	1.655319	0.009680	0.778062
H132	H	2.155319	0.509680	1.278062
Cl133	Cl	1.835376	-0.109262	0.672881
Cl134	Cl	2.335376	0.390738	1.172881
H135	H	1.271011	-0.106509	-0.000107
H136	H	1.771011	0.393491	0.499893
H137	H	1.655347	0.009721	0.221677
H138	H	2.155347	0.509721	0.721677
H139	H	1.351055	0.210724	0.360817
H140	H	1.851055	0.710724	0.860817
