data_functionalizedCrystal
_audit_creation_method	'MofGen! by Chris Wilmer'
_symmetry_space_group_name_H-M	'P1'
_symmetry_Int_Tables_number	1
_symmetry_cell_setting	triclinic
loop_
_symmetry_equiv_pos_as_xyz
  x,y,z
_cell_length_a	10.654550
_cell_length_b	10.540539
_cell_length_c	9.730223
_cell_angle_alpha	89.997733
_cell_angle_beta	89.999957
_cell_angle_gamma	84.505211
loop_
_atom_site_label
_atom_site_type_symbol
_atom_site_fract_x
_atom_site_fract_y
_atom_site_fract_z
O1	O	1.667902	0.178301	-0.114180
O2	O	1.302429	0.195288	-0.114205
O3	O	1.493504	0.002085	-0.114190
O4	O	1.476827	0.371504	-0.114195
O5	O	1.493491	0.002079	0.114390
O6	O	1.302417	0.195282	0.114375
O7	O	1.667889	0.178295	0.114400
Zn8	Zn	1.485151	0.186788	0.150679
Zn9	Zn	1.485167	0.186795	-0.150484
O10	O	1.476815	0.371498	0.114385
C11	C	1.255625	0.194038	0.000082
C12	C	1.116180	0.190306	0.000072
C13	C	1.036735	0.304061	0.000075
C14	C	0.905712	0.300547	0.000099
C15	C	0.933594	0.069513	0.000112
C16	C	1.064614	0.073029	0.000098
C17	C	1.492247	-0.045221	0.000097
C18	C	1.488505	-0.186167	0.000090
C19	C	1.345134	-0.369543	-0.000433
C20	C	1.348927	-0.222926	0.000082
C21	C	1.555670	-0.247852	0.130624
C22	C	1.550906	-0.394395	0.130734
C23	C	1.553759	-0.394908	-0.129204
C24	C	1.555044	-0.247927	-0.130930
C25	C	1.714694	0.179545	0.000110
C26	C	1.854139	0.183277	0.000110
C27	C	1.478072	0.418804	0.000095
C28	C	1.481813	0.559750	0.000093
N29	N	1.485149	0.186782	0.356216
N30	N	1.485179	0.186791	-0.356021
C31	C	1.569786	0.101269	0.428148
C32	C	1.569799	0.101269	0.572031
C33	C	1.400533	0.272309	0.572037
C34	C	1.400516	0.272301	0.428156
H35	H	1.129302	-0.019610	0.000100
H36	H	1.331588	0.341937	0.369585
F37	F	1.491314	-0.193901	-0.257168
F38	F	1.659878	0.010251	0.648582
F39	F	1.091611	0.428878	0.000053
H40	H	1.651289	-0.442400	0.136663
F41	F	1.659857	0.010249	0.351589
F42	F	1.279348	-0.168319	0.122580
H43	H	1.296078	-0.180301	-0.093491
H44	H	1.501258	-0.422579	0.228305
H45	H	1.508590	-0.426442	-0.228141
H46	H	0.891593	-0.025970	0.000141
F47	F	1.273068	-0.406892	-0.122789
H48	H	1.290216	-0.399732	0.092644
F49	F	0.821165	0.421621	0.000104
H50	H	1.658172	-0.225535	0.135484
H51	H	1.509003	-0.205238	0.227758
H52	H	1.656808	-0.223742	-0.138805
F53	F	1.310468	0.363322	0.648610
H54	H	1.654576	-0.442170	-0.130075
