data_functionalizedCrystal
_audit_creation_method	'MofGen! by Chris Wilmer'
_symmetry_space_group_name_H-M	'P1'
_symmetry_Int_Tables_number	1
_symmetry_cell_setting	triclinic
loop_
_symmetry_equiv_pos_as_xyz
  x,y,z
_cell_length_a	13.101039
_cell_length_b	14.044209
_cell_length_c	14.044220
_cell_angle_alpha	93.188415
_cell_angle_beta	86.332523
_cell_angle_gamma	93.659214
loop_
_atom_site_label
_atom_site_type_symbol
_atom_site_fract_x
_atom_site_fract_y
_atom_site_fract_z
O1	O	-0.085094	-1.281968	-0.225339
O2	O	0.414906	-0.781968	0.274661
O3	O	-0.085123	-1.005298	-0.217034
O4	O	0.414877	-0.505298	0.282966
O5	O	-0.085099	-1.139480	-0.082851
O6	O	0.414901	-0.639480	0.417149
O7	O	-0.085118	-1.147787	-0.359521
O8	O	0.414882	-0.647787	0.140479
O9	O	0.085329	-1.129854	-0.092496
O10	O	0.585329	-0.629854	0.407504
O11	O	0.085305	-0.995672	-0.226679
O12	O	0.585305	-0.495672	0.273321
O13	O	0.085334	-1.272342	-0.234984
O14	O	0.585334	-0.772342	0.265016
Zn15	Zn	0.112379	-1.132479	-0.232362
Zn16	Zn	0.612379	-0.632479	0.267638
Zn17	Zn	-0.112168	-1.145161	-0.219655
Zn18	Zn	0.387832	-0.645161	0.280345
O19	O	0.085310	-1.138161	-0.369166
O20	O	0.585310	-0.638161	0.130834
C21	C	0.000087	-0.964864	-0.218221
C22	C	0.500087	-0.464864	0.281779
C23	C	0.000077	-0.858721	-0.207376
C24	C	0.500077	-0.358721	0.292624
N25	N	0.265626	-1.123830	-0.241035
N26	N	0.765626	-0.623830	0.258965
N27	N	-0.265415	-1.153817	-0.210975
N28	N	0.234585	-0.653817	0.289025
C29	C	0.000096	-0.664383	-0.187553
C30	C	0.500096	-0.164383	0.312447
C31	C	0.000094	-0.613253	-0.264467
C32	C	0.500094	-0.113253	0.235533
C33	C	0.000105	-0.505116	-0.253437
C34	C	0.500105	-0.005116	0.246563
C35	C	0.000085	-0.772529	-0.198581
C36	C	0.500085	-0.272529	0.301419
C37	C	0.474666	-1.112064	-0.252843
C38	C	0.974666	-0.612064	0.247157
C39	C	0.525551	-1.165580	-0.199170
C40	C	1.025551	-0.665580	0.300830
C41	C	0.641869	-1.159033	-0.205740
C42	C	1.141869	-0.659033	0.294260
C43	C	0.358338	-1.118610	-0.246274
C44	C	0.858338	-0.618610	0.253726
C45	C	0.000118	-0.312777	-0.233798
C46	C	0.500118	0.187223	0.266202
C47	C	0.000114	-0.418920	-0.244648
C48	C	0.500114	0.081080	0.255352
C49	C	0.000115	-1.131031	-0.052052
C50	C	0.500115	-0.631031	0.447948
C51	C	0.000115	-1.120187	0.054091
C52	C	0.500115	-0.620187	0.554091
C53	C	0.000093	-1.146609	-0.399965
C54	C	0.500093	-0.646609	0.100035
C55	C	0.000087	-1.157454	-0.506108
C56	C	0.500087	-0.657454	-0.006108
C57	C	0.000099	-1.100361	0.248429
C58	C	0.500099	-0.600361	0.748429
C59	C	0.000103	-1.177275	0.299560
C60	C	0.500103	-0.677275	0.799560
C61	C	0.000094	-1.166244	0.407696
C62	C	0.500094	-0.666244	0.907696
C63	C	0.000108	-1.111391	0.140283
C64	C	0.500108	-0.611391	0.640283
H65	H	0.000106	-0.626945	-0.113426
H66	H	0.500106	-0.126945	0.386574
H67	H	0.000042	-1.251412	0.262125
H68	H	0.500042	-0.751412	0.762125
H69	H	0.000085	-0.650693	-0.338600
H70	H	0.500085	-0.150693	0.161400
H71	H	0.481758	-1.216314	-0.148286
H72	H	0.981758	-0.716314	0.351714
O73	O	0.527016	-1.051491	-0.313423
O74	O	1.027016	-0.551491	0.186577
C75	C	0.648273	-0.916113	-0.329612
C76	C	1.148273	-0.416113	0.170388
C77	C	0.589052	-0.984653	-0.260901
C78	C	1.089052	-0.484653	0.239099
H79	H	0.698427	-0.862046	-0.287174
H80	H	1.198427	-0.362046	0.212826
H81	H	0.698568	-0.958619	-0.383513
H82	H	1.198568	-0.458619	0.116487
H83	H	0.591599	-0.876894	-0.369019
H84	H	1.091599	-0.376894	0.130981
H85	H	0.645652	-1.023890	-0.221429
H86	H	1.145652	-0.523890	0.278571
H87	H	0.538742	-0.942096	-0.207062
H88	H	1.038742	-0.442096	0.292938
O89	O	0.000139	-1.011992	0.293234
O90	O	0.500139	-0.511992	0.793234
C91	C	0.000073	-0.920299	0.443446
C92	C	0.500073	-0.420299	0.943446
C93	C	0.000045	-1.020429	0.392812
C94	C	0.500045	-0.520429	0.892812
H95	H	-0.000024	-0.927088	0.523965
H96	H	0.499976	-0.427088	1.023965
H97	H	0.071415	-0.875806	0.417961
H98	H	0.571415	-0.375806	0.917961
H99	H	-0.071233	-0.883874	0.425892
H100	H	0.428767	-0.383874	0.925892
H101	H	0.071303	-1.056936	0.410343
H102	H	0.571303	-0.556936	0.910343
H103	H	-0.071344	-1.064853	0.418302
H104	H	0.428656	-0.564853	0.918302
