data_functionalizedCrystal
_audit_creation_method	'MofGen! by Chris Wilmer'
_symmetry_space_group_name_H-M	'P1'
_symmetry_Int_Tables_number	1
_symmetry_cell_setting	triclinic
loop_
_symmetry_equiv_pos_as_xyz
  x,y,z
_cell_length_a	10.489741
_cell_length_b	17.699077
_cell_length_c	16.776229
_cell_angle_alpha	89.993415
_cell_angle_beta	89.993659
_cell_angle_gamma	83.909875
loop_
_atom_site_label
_atom_site_type_symbol
_atom_site_fract_x
_atom_site_fract_y
_atom_site_fract_z
O1	O	0.161259	1.005136	-0.066277
O2	O	0.661259	1.505136	0.433723
O3	O	0.182252	0.784895	-0.066281
O4	O	0.682252	1.284895	0.433719
O5	O	-0.013935	0.900027	-0.066274
O6	O	0.486065	1.400027	0.433726
O7	O	0.357447	0.890004	-0.066284
O8	O	0.857447	1.390004	0.433716
O9	O	-0.013947	0.900011	0.066302
O10	O	0.486053	1.400011	0.566302
O11	O	0.182240	0.784879	0.066295
O12	O	0.682240	1.284879	0.566295
O13	O	0.161247	1.005121	0.066299
O14	O	0.661247	1.505121	0.566299
Zn15	Zn	0.171742	0.894997	0.087347
Zn16	Zn	0.671742	1.394997	0.587347
Zn17	Zn	0.171758	0.895018	-0.087328
Zn18	Zn	0.671758	1.395018	0.412672
O19	O	0.357435	0.889988	0.066293
O20	O	0.857435	1.389988	0.566293
C21	C	0.181495	0.756685	0.000007
C22	C	0.681495	1.256685	0.500007
C23	C	0.179243	0.672652	0.000005
C24	C	0.679243	1.172652	0.500005
C25	C	0.178174	0.633169	0.072274
C26	C	0.678174	1.133169	0.572274
C27	C	0.176037	0.554212	0.072275
C28	C	0.676037	1.054212	0.572275
C29	C	0.174977	0.514740	0.000006
C30	C	0.674977	1.014740	0.500006
C31	C	0.176042	0.554228	-0.072268
C32	C	0.676042	1.054228	0.427732
C33	C	0.178170	0.633184	-0.072268
C34	C	0.678170	1.133184	0.427732
C35	C	0.167458	0.235809	-0.072269
C36	C	0.667458	0.735809	0.427731
C37	C	0.165334	0.156847	-0.072263
C38	C	0.665334	0.656847	0.427737
C39	C	0.165326	0.156837	0.072273
C40	C	0.665326	0.656837	0.572273
C41	C	0.167454	0.235793	0.072273
C42	C	0.667454	0.735793	0.572273
C43	C	0.168511	0.275275	-0.000000
C44	C	0.668511	0.775275	0.500000
C45	C	0.170826	0.360889	-0.000000
C46	C	0.670826	0.860889	0.500000
C47	C	0.172672	0.429127	0.000006
C48	C	0.672672	0.929127	0.500006
C49	C	-0.061459	0.899262	0.000013
C50	C	0.438541	1.399262	0.500013
C51	C	-0.203046	0.896997	0.000012
C52	C	0.296954	1.396997	0.500012
C53	C	-0.269823	0.823742	0.000005
C54	C	0.230177	1.323742	0.500005
C55	C	-0.362595	0.858339	0.065373
C56	C	0.137405	1.358339	0.565373
C57	C	-0.362558	0.858372	-0.065337
C58	C	0.137442	1.358372	0.434663
C59	C	-0.293954	0.931625	0.065434
C60	C	0.206046	1.431625	0.565434
C61	C	-0.293907	0.931647	-0.065335
C62	C	0.206093	1.431647	0.434665
C63	C	-0.386654	0.966298	0.000049
C64	C	0.113346	1.466298	0.500049
C65	C	0.404958	0.890753	0.000003
C66	C	0.904958	1.390753	0.500003
C67	C	0.546546	0.893018	-0.000001
C68	C	1.046546	1.393018	0.499999
C69	C	0.162004	1.033331	0.000010
C70	C	0.662004	1.533331	0.500010
C71	C	0.164257	1.117364	0.000006
C72	C	0.664257	1.617364	0.500006
N73	N	0.171730	0.894989	0.206558
N74	N	0.671730	1.394989	0.706558
N75	N	0.171759	0.895032	-0.206540
N76	N	0.671759	1.395032	0.293460
C77	C	0.084894	0.945986	0.248278
C78	C	0.584894	1.445986	0.748278
C79	C	0.084893	0.945990	0.331730
C80	C	0.584893	1.445990	0.831730
C81	C	0.171735	0.895001	0.373461
C82	C	0.671735	1.395001	0.873461
C83	C	0.258576	0.843999	0.331735
C84	C	0.758576	1.343999	0.831735
C85	C	0.258570	0.843991	0.248284
C86	C	0.758570	1.343991	0.748284
C87	C	0.258601	0.844026	0.668282
C88	C	0.758601	1.344026	1.168282
C89	C	0.258603	0.844039	0.751739
C90	C	0.758603	1.344039	1.251739
C91	C	0.084924	0.946025	0.751728
C92	C	0.584924	1.446025	1.251728
C93	C	0.084918	0.946017	0.668277
C94	C	0.584918	1.446017	1.168277
C95	C	0.171753	0.895013	0.626559
C96	C	0.671753	1.395013	1.126559
C97	C	0.171752	0.895008	0.536070
C98	C	0.671752	1.395008	1.036070
C99	C	0.171744	0.895008	0.463948
C100	C	0.671744	1.395008	0.963948
H101	H	0.168323	0.267928	0.131122
H102	H	0.668323	0.767928	0.631122
F103	F	-0.007529	1.000265	0.376132
F104	F	0.492471	1.500265	0.876132
F105	F	0.174918	0.512194	0.149193
F106	F	0.674918	1.012194	0.649193
H107	H	0.014214	0.987553	0.785704
H108	H	0.514214	1.487553	1.285704
H109	H	0.164470	0.124710	-0.131116
H110	H	0.664470	0.624710	0.368884
F111	F	0.168585	0.277818	-0.149189
F112	F	0.668585	0.777818	0.350811
H113	H	-0.219050	0.763512	0.000070
H114	H	0.280950	1.263512	0.500070
F115	F	-0.402383	0.817819	0.137606
F116	F	0.097617	1.317819	0.637606
F117	F	0.350990	0.789711	0.203884
F118	F	0.850990	1.289711	0.703884
F119	F	-0.254074	0.972136	-0.137571
F120	F	0.245926	1.472136	0.362429
F121	F	0.164195	0.114812	0.149194
F122	F	0.664195	0.614812	0.649194
F123	F	-0.452725	1.045093	0.000095
F124	F	0.047275	1.545093	0.500095
F125	F	-0.254420	0.972098	0.137747
F126	F	0.245580	1.472098	0.637747
H127	H	0.014207	0.987540	0.634303
H128	H	0.514207	1.487540	1.134303
H129	H	-0.392940	0.827373	-0.120606
H130	H	0.107060	1.327373	0.379394
F131	F	0.174875	0.512219	-0.149181
F132	F	0.674875	1.012219	0.350819
H133	H	0.329322	0.802514	0.785714
H134	H	0.829322	1.302514	1.285714
F135	F	-0.007532	1.000260	0.203873
F136	F	0.492468	1.500260	0.703873
F137	F	0.179302	0.675204	-0.149186
F138	F	0.679302	1.175204	0.350814
H139	H	0.179048	0.665301	0.131123
H140	H	0.679048	1.165301	0.631123
H141	H	0.329280	0.802478	0.365717
H142	H	0.829280	1.302478	0.865717
F143	F	0.351019	0.789746	0.623889
F144	F	0.851019	1.289746	1.123889
