data_functionalizedCrystal
_audit_creation_method	'MofGen! by Chris Wilmer'
_symmetry_space_group_name_H-M	'P1'
_symmetry_Int_Tables_number	1
_symmetry_cell_setting	triclinic
loop_
_symmetry_equiv_pos_as_xyz
  x,y,z
_cell_length_a	15.995350
_cell_length_b	19.188930
_cell_length_c	15.072220
_cell_angle_alpha	89.993728
_cell_angle_beta	89.991149
_cell_angle_gamma	83.318578
loop_
_atom_site_label
_atom_site_type_symbol
_atom_site_fract_x
_atom_site_fract_y
_atom_site_fract_z
O1	O	1.110666	0.089991	-0.073718
O2	O	0.866850	0.101105	-0.073737
O3	O	0.995794	-0.006090	-0.073709
O4	O	0.981722	0.197186	-0.073745
O5	O	0.995763	-0.006084	0.073856
O6	O	0.866819	0.101111	0.073828
O7	O	1.110634	0.089997	0.073848
Zn8	Zn	0.988721	0.095555	0.097267
Zn9	Zn	0.988763	0.095547	-0.097156
O10	O	0.981690	0.197192	0.073820
C11	C	0.835641	0.100648	0.000043
C12	C	0.742696	0.099271	0.000037
C13	C	0.995323	-0.032099	0.000076
C14	C	0.993955	-0.109607	0.000083
C15	C	0.404967	0.094324	0.000056
C16	C	0.452680	0.017982	0.000398
C17	C	0.549365	0.019360	0.000059
C18	C	0.572518	0.096778	0.000047
C19	C	0.531311	0.134429	-0.084223
C20	C	0.434683	0.132511	-0.084287
C21	C	0.434302	0.134095	0.083522
C22	C	0.531247	0.134077	0.084629
C23	C	0.667211	0.098169	0.000039
C24	C	0.310274	0.092936	0.000058
C25	C	1.069615	-0.154338	0.000093
C26	C	1.068330	-0.227165	0.000079
C27	C	0.991380	-0.255258	0.000072
C28	C	0.915710	-0.210517	0.000057
C29	C	0.916997	-0.137691	0.000062
N30	N	0.932550	-0.363410	0.050287
N31	N	0.931333	-0.432592	0.050284
C32	C	0.987497	-0.474676	0.000054
N33	N	1.044937	-0.444966	-0.050161
N34	N	1.046158	-0.375779	-0.050154
C35	C	0.989976	-0.334224	0.000066
C36	C	1.061769	-0.598375	0.000048
C37	C	1.060480	-0.671204	0.000028
C38	C	0.907859	-0.654553	0.000015
C39	C	0.909149	-0.581727	0.000025
C40	C	0.986106	-0.553643	0.000046
C41	C	1.141843	0.090454	0.000065
C42	C	1.234789	0.091831	0.000066
C43	C	0.982162	0.223201	0.000033
C44	C	0.983530	0.300709	0.000019
N45	N	0.988699	0.095560	0.229956
N46	N	0.988792	0.095537	-0.229845
C47	C	0.988762	0.095544	0.589157
C48	C	0.919536	0.152710	0.551535
C49	C	0.919693	0.152918	0.448710
C50	C	0.988730	0.095552	0.410953
C51	C	1.076036	0.111464	0.448248
C52	C	1.075648	0.111870	0.551106
C53	C	0.971460	0.022298	0.551269
C54	C	0.969454	0.022787	0.448405
C55	C	0.988717	0.095555	0.310240
C56	C	0.988780	0.095543	0.689871
H57	H	0.577890	-0.010236	0.060468
H58	H	0.845205	-0.677425	0.000005
H59	H	0.433211	-0.012395	-0.059692
Cl60	Cl	0.821874	-0.081454	0.000050
Cl61	Cl	1.158513	-0.563066	0.000079
H62	H	0.402230	0.188560	-0.088121
Cl63	Cl	1.163453	-0.283409	0.000091
H64	H	1.122095	-0.707624	0.000031
H65	H	0.930403	0.206759	0.577365
Cl66	Cl	0.814028	-0.525490	0.000017
H67	H	1.128756	0.071875	0.575991
Cl68	Cl	0.818995	0.138305	0.589739
H69	H	0.402334	0.190382	0.084082
H70	H	0.854788	0.143438	0.423496
Cl71	Cl	0.936674	0.236846	0.410688
H72	H	0.546404	0.190533	0.089710
H73	H	0.853057	-0.233394	0.000050
Cl74	Cl	0.402723	0.095563	0.182139
Cl75	Cl	1.099248	0.194343	0.588123
Cl76	Cl	0.592538	-0.026448	-0.093514
H77	H	1.128769	0.070935	0.423790
H78	H	0.434257	-0.012531	0.060832
H79	H	0.416488	0.105049	-0.147272
Cl80	Cl	1.100216	0.192997	0.408454
Cl81	Cl	0.875308	-0.001311	0.591361
H82	H	0.905232	0.010712	0.424030
H83	H	0.545229	0.191306	-0.087366
H84	H	1.132280	-0.131477	0.000107
H85	H	1.016620	-0.021746	0.422708
H86	H	0.559795	0.108273	-0.146930
Cl87	Cl	0.573453	0.091573	0.180882
Cl88	Cl	1.049405	-0.043382	0.588832
