data_functionalizedCrystal
_audit_creation_method	'MofGen! by Chris Wilmer'
_symmetry_space_group_name_H-M	'P1'
_symmetry_Int_Tables_number	1
_symmetry_cell_setting	triclinic
loop_
_symmetry_equiv_pos_as_xyz
  x,y,z
_cell_length_a	13.033293
_cell_length_b	16.625539
_cell_length_c	13.032721
_cell_angle_alpha	82.846360
_cell_angle_beta	74.815879
_cell_angle_gamma	82.790144
loop_
_atom_site_label
_atom_site_type_symbol
_atom_site_fract_x
_atom_site_fract_y
_atom_site_fract_z
Zn1	Zn	1.570217	-0.631280	0.216821
Zn2	Zn	1.903551	-0.297946	0.550155
Zn3	Zn	2.236884	0.035387	0.883488
Zn4	Zn	1.547533	-0.511623	0.394466
Zn5	Zn	1.880867	-0.178290	0.727799
Zn6	Zn	2.214200	0.155044	1.061133
Zn7	Zn	1.392579	-0.481235	0.239396
Zn8	Zn	1.725912	-0.147902	0.572729
Zn9	Zn	2.059246	0.185432	0.906062
Zn10	Zn	1.369996	-0.631187	0.416927
Zn11	Zn	1.703330	-0.297853	0.750261
Zn12	Zn	2.036663	0.035480	1.083594
O13	O	1.470081	-0.563831	0.316903
O14	O	1.803415	-0.230498	0.650236
O15	O	2.136748	0.102836	0.983569
O16	O	1.715850	-0.628163	0.221539
O17	O	2.049184	-0.294830	0.554872
O18	O	2.382517	0.038503	0.888206
O19	O	1.526936	-0.394760	0.373943
O20	O	1.860269	-0.061427	0.707276
O21	O	2.193602	0.271907	1.040609
O22	O	1.435087	-0.488460	0.087759
O23	O	1.768421	-0.155127	0.421092
O24	O	2.101754	0.178207	0.754425
O25	O	1.699185	-0.540252	0.352054
O26	O	2.032518	-0.206919	0.685387
O27	O	2.365851	0.126414	1.018720
O28	O	1.565598	-0.598697	0.071174
O29	O	1.898931	-0.265364	0.404507
O30	O	2.232264	0.067970	0.737840
O31	O	1.413091	-0.372434	0.260013
O32	O	1.746425	-0.039101	0.593346
O33	O	2.079758	0.294233	0.926680
O34	O	1.240941	-0.488370	0.281793
O35	O	1.574274	-0.155037	0.615126
O36	O	1.907608	0.178297	0.948460
O37	O	1.396598	-0.744031	0.390336
O38	O	1.729932	-0.410698	0.723669
O39	O	2.063265	-0.077364	1.057002
O40	O	1.224350	-0.598539	0.412225
O41	O	1.557683	-0.265206	0.745558
O42	O	1.891016	0.068128	1.078891
O43	O	1.543700	-0.744099	0.243319
O44	O	1.877033	-0.410766	0.576652
O45	O	2.210367	-0.077433	0.909985
O46	O	1.505038	-0.540162	0.546088
O47	O	1.838372	-0.206829	0.879421
O48	O	2.171705	0.126504	1.212755
O49	O	1.374603	-0.628005	0.562590
O50	O	1.707936	-0.294672	0.895924
O51	O	2.041269	0.038662	1.229257
C52	C	1.194104	-0.540147	0.351897
C53	C	1.527437	-0.206814	0.685230
C54	C	1.860771	0.126519	1.018563
C55	C	1.076036	-0.530037	0.366893
C56	C	1.409370	-0.196703	0.700226
C57	C	1.742703	0.136630	1.033559
C58	C	1.031631	-0.569110	0.309103
C59	C	1.364964	-0.235777	0.642436
C60	C	1.698298	0.097557	0.975769
C61	C	0.909602	-0.558661	0.324601
C62	C	1.242936	-0.225328	0.657934
C63	C	1.576269	0.108005	0.991267
C64	C	1.470161	-0.774139	0.316815
C65	C	1.803494	-0.440806	0.650148
C66	C	2.136827	-0.107473	0.983481
C67	C	1.470194	-0.863760	0.316777
C68	C	1.803528	-0.530427	0.650111
C69	C	2.136861	-0.197093	0.983444
C70	C	1.470258	-1.191930	0.316652
C71	C	1.803592	-0.858597	0.649985
C72	C	2.136925	-0.525263	0.983319
C73	C	1.470237	-1.100623	0.316691
C74	C	1.803570	-0.767290	0.650024
C75	C	2.136904	-0.433956	0.983357
C76	C	1.470227	-1.027848	0.316715
C77	C	1.803560	-0.694515	0.650049
C78	C	2.136893	-0.361181	0.983382
C79	C	1.470205	-0.936535	0.316752
C80	C	1.803538	-0.603202	0.650086
C81	C	2.136871	-0.269868	0.983419
C82	C	1.747136	-0.587608	0.281773
C83	C	2.080470	-0.254274	0.615106
C84	C	2.413803	0.079059	0.948439
C85	C	1.865201	-0.597740	0.266802
C86	C	2.198534	-0.264407	0.600136
C87	C	2.531867	0.068927	0.933469
C88	C	1.434937	-0.587391	0.592877
C89	C	1.768271	-0.254058	0.926210
C90	C	2.101604	0.079276	1.259543
C91	C	1.419999	-0.597505	0.710927
C92	C	1.753333	-0.264172	1.044261
C93	C	2.086666	0.069161	1.377594
C94	C	1.470073	-0.354340	0.316906
C95	C	1.803407	-0.021006	0.650239
C96	C	2.136740	0.312327	0.983572
C97	C	1.470284	-0.264712	0.316618
C98	C	1.803617	0.068622	0.649951
C99	C	2.136950	0.401955	0.983285
C100	C	1.505392	-0.540199	0.039847
C101	C	1.838725	-0.206866	0.373180
C102	C	2.172059	0.126468	0.706514
C103	C	1.520439	-0.530129	-0.078217
C104	C	1.853772	-0.196795	0.255116
C105	C	2.187106	0.136538	0.588449
C106	C	1.477934	-0.558593	0.755351
C107	C	1.811267	-0.225260	1.088684
C108	C	2.144601	0.108073	1.422018
C109	C	1.462497	-0.569046	0.877362
C110	C	1.795830	-0.235713	1.210696
C111	C	2.129163	0.097621	1.544029
H112	H	0.917521	-0.638926	0.205843
H113	H	1.250855	-0.305593	0.539176
H114	H	1.584188	0.027740	0.872509
H115	H	1.358975	-0.638562	0.763222
H116	H	1.692309	-0.305228	1.096556
H117	H	2.025642	0.028105	1.429889
H118	H	1.538967	-0.517544	0.703057
H119	H	1.872301	-0.184211	1.036391
H120	H	2.205634	0.149123	1.369724
C121	C	1.380047	-0.624509	0.947996
C122	C	1.713380	-0.291176	1.281329
C123	C	2.046714	0.042158	1.614662
H124	H	1.380482	-0.624255	1.020735
H125	H	1.713816	-0.290922	1.354069
H126	H	2.047149	0.042412	1.687402
H127	H	1.397834	-0.678477	0.927842
H128	H	1.731168	-0.345144	1.261175
H129	H	2.064501	-0.011810	1.594509
H130	H	1.310950	-0.604999	0.938998
H131	H	1.644283	-0.271665	1.272331
H132	H	1.977616	0.061668	1.605665
C133	C	1.005360	-0.474398	0.449236
C134	C	1.338693	-0.141064	0.782569
C135	C	1.672027	0.192269	1.115903
H136	H	0.932613	-0.474679	0.448857
H137	H	1.265947	-0.141346	0.782190
H138	H	1.599280	0.191987	1.115523
H139	H	1.025441	-0.420445	0.431326
H140	H	1.358775	-0.087111	0.764659
H141	H	1.692108	0.246222	1.097993
H142	H	1.014412	-0.493756	0.518338
H143	H	1.347745	-0.160423	0.851672
H144	H	1.681079	0.172911	1.185005
H145	H	0.857281	-0.517469	0.385552
H146	H	1.190615	-0.184135	0.718886
H147	H	1.523948	0.149198	1.052219
C148	C	1.102302	-0.624754	0.226763
C149	C	1.435636	-0.291421	0.560097
C150	C	1.768969	0.041912	0.893430
H151	H	1.058619	-0.647910	0.192511
H152	H	1.391953	-0.314577	0.525845
H153	H	1.725286	0.018757	0.859178
H154	H	1.140424	-0.666990	0.261993
H155	H	1.473758	-0.333656	0.595326
H156	H	1.807091	-0.000323	0.928659
H157	H	1.151452	-0.593685	0.174971
H158	H	1.484786	-0.260352	0.508304
H159	H	1.818119	0.072982	0.841637
C160	C	1.602867	-0.474647	0.851154
C161	C	1.936201	-0.141313	1.184488
C162	C	2.269534	0.192020	1.517821
H163	H	1.602417	-0.474886	0.778416
H164	H	1.935750	-0.141552	1.111750
H165	H	2.269084	0.191781	1.445083
H166	H	1.671969	-0.494132	0.860143
H167	H	2.005302	-0.160798	1.193477
H168	H	2.338635	0.172535	1.526810
H169	H	1.585045	-0.420680	0.871323
H170	H	1.918378	-0.087347	1.204656
H171	H	2.251712	0.245987	1.537990
