data_functionalizedCrystal
_audit_creation_method	'MofGen! by Chris Wilmer'
_symmetry_space_group_name_H-M	'P1'
_symmetry_Int_Tables_number	1
_symmetry_cell_setting	triclinic
loop_
_symmetry_equiv_pos_as_xyz
  x,y,z
_cell_length_a	6.817900
_cell_length_b	14.858329
_cell_length_c	16.255661
_cell_angle_alpha	95.053856
_cell_angle_beta	103.488922
_cell_angle_gamma	104.519616
loop_
_atom_site_label
_atom_site_type_symbol
_atom_site_fract_x
_atom_site_fract_y
_atom_site_fract_z
V1	V	-4.031897	-0.129422	-0.264114
V2	V	-3.531897	0.370578	0.235886
O3	O	-4.013972	0.005446	-0.258838
O4	O	-3.513972	0.505446	0.241162
O5	O	-3.988515	-0.255879	-0.262546
O6	O	-3.488515	0.244121	0.237454
O7	O	-3.983393	-0.127771	-0.379194
O8	O	-3.483393	0.372229	0.120806
O9	O	-4.019130	-0.123549	-0.141383
O10	O	-3.519130	0.376451	0.358617
V11	V	-4.514888	-0.113250	-0.249405
V12	V	-4.014888	0.386750	0.250595
O13	O	-4.294322	-0.164897	-0.296378
O14	O	-3.794322	0.335103	0.203622
O15	O	-4.702661	-0.077776	-0.217140
O16	O	-4.202661	0.422224	0.282860
O17	O	-4.335064	0.013206	-0.250973
O18	O	-3.835064	0.513206	0.249027
O19	O	-4.650210	-0.248119	-0.254681
O20	O	-4.150210	0.251881	0.245319
O21	O	-4.645052	-0.119124	-0.372136
O22	O	-4.145052	0.380876	0.127864
O23	O	-4.340186	-0.114902	-0.134325
O24	O	-3.840186	0.385098	0.365675
C25	C	-3.834740	-0.286696	-0.258441
C26	C	-3.334740	0.213304	0.241559
C27	C	-3.880557	-0.390078	-0.257927
C28	C	-3.380557	0.109922	0.242073
C29	C	-3.917759	-0.474035	-0.257501
C30	C	-3.417759	0.025965	0.242499
C31	C	-3.964450	-0.579363	-0.256971
C32	C	-3.464450	-0.079363	0.243029
C33	C	-4.001679	-0.663314	-0.256549
C34	C	-3.501679	-0.163314	0.243451
C35	C	-4.048373	-0.768649	-0.256017
C36	C	-3.548373	-0.268649	0.243983
C37	C	-3.828205	-0.123280	-0.407236
C38	C	-3.328205	0.376720	0.092764
C39	C	-3.869864	-0.122766	-0.501316
C40	C	-3.369864	0.377234	-0.001316
C41	C	-3.780175	-0.116631	-0.724123
C42	C	-3.280175	0.383369	-0.224123
C43	C	-3.939764	-0.195814	-0.793748
C44	C	-3.439764	0.304186	-0.293748
C45	C	-3.946210	-0.121803	-0.673563
C46	C	-3.446210	0.378197	-0.173563
C47	C	-3.860876	-0.041714	-0.771574
C48	C	-3.360876	0.458286	-0.271574
C49	C	-4.019941	-0.120869	-0.839945
C50	C	-3.519941	0.379131	-0.339945
C51	C	-4.105283	-0.201057	-0.741958
C52	C	-3.605283	0.298943	-0.241958
C53	C	-4.026331	-0.046887	-0.719768
C54	C	-3.526331	0.453113	-0.219768
C55	C	-4.186057	-0.126092	-0.789373
C56	C	-3.686057	0.373908	-0.289373
C57	C	-3.903731	-0.122342	-0.577715
C58	C	-3.403731	0.377658	-0.077715
C59	C	-4.062438	-0.120337	-0.935792
C60	C	-3.562438	0.379663	-0.435792
C61	C	-4.152181	0.044018	-0.255075
C62	C	-3.652181	0.544018	0.244925
C63	C	-4.085603	0.147400	-0.255595
C64	C	-3.585603	0.647400	0.244405
C65	C	-4.158716	-0.119396	-0.106278
C66	C	-3.658716	0.380604	0.393722
C67	C	-4.096295	-0.119905	-0.012197
C68	C	-3.596295	0.380095	0.487803
H69	H	-3.608265	-0.112734	-0.695636
H70	H	-3.108265	0.387266	-0.195636
F71	F	-4.073478	0.035416	-0.677642
F72	F	-3.573478	0.535416	-0.177642
F73	F	-3.892517	-0.278112	-0.835843
F74	F	-3.392517	0.221888	-0.335843
H75	H	-4.208201	-0.268471	-0.728617
H76	H	-3.708201	0.231529	-0.228617
H77	H	-3.757944	0.025610	-0.785058
H78	H	-3.257944	0.525610	-0.285058
H79	H	-4.358090	-0.130114	-0.817728
H80	H	-3.858090	0.369886	-0.317728
