data_functionalizedCrystal
_audit_creation_method	'MofGen! by Chris Wilmer'
_symmetry_space_group_name_H-M	'P1'
_symmetry_Int_Tables_number	1
_symmetry_cell_setting	triclinic
loop_
_symmetry_equiv_pos_as_xyz
  x,y,z
_cell_length_a	17.077404
_cell_length_b	16.625546
_cell_length_c	16.625539
_cell_angle_alpha	89.969603
_cell_angle_beta	89.979509
_cell_angle_gamma	90.022693
loop_
_atom_site_label
_atom_site_type_symbol
_atom_site_fract_x
_atom_site_fract_y
_atom_site_fract_z
Zn1	Zn	1.200065	-0.320995	-0.455896
Zn2	Zn	1.700065	0.179005	0.044104
Zn3	Zn	1.199970	-0.455838	-0.321058
Zn4	Zn	1.699970	0.044162	0.178942
Zn5	Zn	1.068794	-0.321024	-0.321077
Zn6	Zn	1.568794	0.178976	0.178923
Zn7	Zn	1.068765	-0.455790	-0.455848
Zn8	Zn	1.568765	0.044210	0.044152
O9	O	1.134399	-0.388412	-0.388470
O10	O	1.634399	0.111588	0.111530
O11	O	1.309899	-0.338891	-0.438022
O12	O	1.809899	0.161109	0.061978
O13	O	1.182542	-0.437987	-0.208228
O14	O	1.682542	0.062013	0.291772
O15	O	1.086259	-0.208188	-0.338988
O16	O	1.586259	0.291812	0.161012
O17	O	1.309830	-0.437959	-0.338957
O18	O	1.809830	0.062041	0.161043
O19	O	1.182703	-0.208167	-0.438040
O20	O	1.682703	0.291833	0.061960
O21	O	1.086168	-0.338940	-0.208242
O22	O	1.586168	0.161060	0.291758
O23	O	0.958943	-0.338893	-0.338942
O24	O	1.458943	0.161107	0.161058
O25	O	1.086210	-0.437877	-0.568687
O26	O	1.586210	0.062123	-0.068687
O27	O	0.958922	-0.437905	-0.437958
O28	O	1.458922	0.062095	0.062042
O29	O	1.182675	-0.338844	-0.568722
O30	O	1.682675	0.161156	-0.068722
O31	O	1.182514	-0.568664	-0.338911
O32	O	1.682514	-0.068664	0.161089
O33	O	1.086118	-0.568629	-0.437940
O34	O	1.586118	-0.068629	0.062060
C35	C	0.930451	-0.388397	-0.388448
C36	C	1.430451	0.111603	0.111552
C37	C	0.843201	-0.388411	-0.388457
C38	C	1.343201	0.111589	0.111543
C39	C	1.134324	-0.597903	-0.388436
C40	C	1.634324	-0.097903	0.111564
C41	C	1.134364	-0.687524	-0.388449
C42	C	1.634364	-0.187524	0.111551
C43	C	0.802220	-0.440044	-0.439932
C44	C	1.302220	0.059956	0.060068
C45	C	0.720240	-0.440046	-0.439945
C46	C	1.220240	0.059954	0.060055
C47	C	0.679242	-0.388418	-0.388478
C48	C	1.179242	0.111582	0.111522
C49	C	0.720228	-0.336778	-0.337001
C50	C	1.220228	0.163222	0.162999
C51	C	0.802207	-0.336773	-0.336993
C52	C	1.302207	0.163227	0.163007
C53	C	0.549358	-0.336794	-0.337020
C54	C	1.049358	0.163206	0.162980
C55	C	0.467373	-0.336800	-0.337027
C56	C	0.967373	0.163200	0.162973
C57	C	0.467391	-0.440067	-0.439973
C58	C	0.967391	0.059933	0.060027
C59	C	0.549370	-0.440062	-0.439964
C60	C	1.049370	0.059938	0.060036
C61	C	0.590351	-0.388423	-0.388486
C62	C	1.090351	0.111577	0.111514
C63	C	1.134501	-1.015700	-0.388533
C64	C	1.634501	-0.515700	0.111467
C65	C	1.134461	-0.924391	-0.388511
C66	C	1.634461	-0.424391	0.111489
C67	C	1.134432	-0.851615	-0.388490
C68	C	1.634432	-0.351615	0.111510
C69	C	1.134393	-0.760300	-0.388470
C70	C	1.634393	-0.260300	0.111530
C71	C	1.339143	-0.388427	-0.388493
C72	C	1.839143	0.111573	0.111507
C73	C	1.426393	-0.388434	-0.388502
C74	C	1.926393	0.111566	0.111498
C75	C	1.134450	-0.388352	-0.598779
C76	C	1.634450	0.111648	-0.098779
C77	C	1.134471	-0.388326	-0.688400
C78	C	1.634471	0.111674	-0.188400
C79	C	1.134495	-0.178103	-0.388521
C80	C	1.634495	0.321897	0.111479
C81	C	1.134535	-0.088482	-0.388543
C82	C	1.634535	0.411518	0.111457
C83	C	1.134508	-0.388236	-1.016576
C84	C	1.634508	0.111764	-0.516576
C85	C	1.134495	-0.388264	-0.925267
C86	C	1.634495	0.111736	-0.425267
C87	C	1.134490	-0.388282	-0.852491
C88	C	1.634490	0.111718	-0.352491
C89	C	1.134477	-0.388308	-0.761176
C90	C	1.634477	0.111692	-0.261176
C91	C	1.134393	-0.388414	-0.178979
C92	C	1.634393	0.111586	0.321021
C93	C	1.134523	-0.388212	-0.089358
C94	C	1.634523	0.111788	0.410642
H95	H	0.835595	-0.482088	-0.481840
H96	H	1.335595	0.017912	0.018160
H97	H	0.582722	-0.294738	-0.295108
H98	H	1.082722	0.205262	0.204892
H99	H	0.686877	-0.482092	-0.481860
H100	H	1.186877	0.017908	0.018140
C101	C	0.675127	-0.279985	-0.280389
C102	C	1.175127	0.220015	0.219611
N103	N	0.641157	-0.237208	-0.237746
N104	N	1.141157	0.262792	0.262254
H105	H	0.835572	-0.294724	-0.295081
H106	H	1.335572	0.205276	0.204919
H107	H	0.433995	-0.294751	-0.295128
H108	H	0.933995	0.205249	0.204872
H109	H	0.434020	-0.482110	-0.481891
H110	H	0.934020	0.017890	0.018109
C111	C	0.594466	-0.496859	-0.496576
C112	C	1.094466	0.003141	0.003424
N113	N	0.628433	-0.539640	-0.539218
N114	N	1.128433	-0.039640	-0.039218
