data_functionalizedCrystal
_audit_creation_method	'MofGen! by Chris Wilmer'
_symmetry_space_group_name_H-M	'P1'
_symmetry_Int_Tables_number	1
_symmetry_cell_setting	triclinic
loop_
_symmetry_equiv_pos_as_xyz
  x,y,z
_cell_length_a	23.532407
_cell_length_b	19.188930
_cell_length_c	17.666332
_cell_angle_alpha	89.989658
_cell_angle_beta	89.996086
_cell_angle_gamma	82.996730
loop_
_atom_site_label
_atom_site_type_symbol
_atom_site_fract_x
_atom_site_fract_y
_atom_site_fract_z
O1	O	-0.755443	-0.084756	0.062862
O2	O	-0.255443	0.415244	0.562862
O3	O	-0.589606	-0.097020	0.062886
O4	O	-0.089606	0.402980	0.562886
O5	O	-0.677310	0.010783	0.062858
O6	O	-0.177310	0.510783	0.562858
O7	O	-0.667739	-0.192559	0.062889
O8	O	-0.167739	0.307441	0.562889
O9	O	-0.677295	0.010786	-0.063038
O10	O	-0.177295	0.510786	0.436962
O11	O	-0.589591	-0.097017	-0.063011
O12	O	-0.089591	0.402983	0.436989
O13	O	-0.755428	-0.084753	-0.063035
O14	O	-0.255428	0.415247	0.436965
Cu15	Cu	-0.672508	-0.090885	-0.074518
Cu16	Cu	-0.172508	0.409115	0.425482
Cu17	Cu	-0.672526	-0.090888	0.074369
Cu18	Cu	-0.172526	0.409112	0.574369
O19	O	-0.667724	-0.192556	-0.063007
O20	O	-0.167724	0.307444	0.436993
C21	C	-0.568382	-0.096706	-0.000060
C22	C	-0.068382	0.403294	0.499940
C23	C	-0.505163	-0.095767	-0.000052
C24	C	-0.005163	0.404233	0.499948
C25	C	-0.676993	0.036794	-0.000092
C26	C	-0.176993	0.536794	0.499908
C27	C	-0.676062	0.114296	-0.000098
C28	C	-0.176062	0.614296	0.499902
C29	C	-0.776652	-0.085067	-0.000087
C30	C	-0.276652	0.414933	0.499913
C31	C	-0.839871	-0.086006	-0.000091
C32	C	-0.339871	0.413994	0.499909
C33	C	-0.106183	-0.153674	-0.000077
C34	C	0.393817	0.346326	0.499923
C35	C	-0.046780	-0.152801	-0.000082
C36	C	0.453220	0.347199	0.499918
O37	O	-0.010150	-0.206481	-0.000101
O38	O	0.489850	0.293519	0.499899
N39	N	-0.024018	-0.088713	-0.000090
N40	N	0.475982	0.411287	0.499910
C41	C	-0.060662	-0.025492	-0.000102
C42	C	0.439338	0.474508	0.499898
O43	O	-0.035846	0.029100	-0.000110
O44	O	0.464154	0.529100	0.499890
C45	C	-0.120062	-0.026365	-0.000102
C46	C	0.379938	0.473635	0.499898
C47	C	-0.142821	-0.090458	-0.000086
C48	C	0.357179	0.409542	0.499914
C49	C	-0.128942	-0.217761	-0.000062
C50	C	0.371058	0.282239	0.499938
C51	C	-0.188340	-0.218633	-0.000056
C52	C	0.311660	0.281367	0.499944
C53	C	-0.224979	-0.155417	-0.000065
C54	C	0.275021	0.344583	0.499935
C55	C	-0.202219	-0.091330	-0.000080
C56	C	0.297781	0.408670	0.499920
C57	C	-0.156705	0.036855	-0.000119
C58	C	0.343295	0.536855	0.499881
C59	C	-0.216109	0.035976	-0.000121
C60	C	0.283891	0.535976	0.499879
C61	C	-0.238868	-0.028116	-0.000104
C62	C	0.261132	0.471884	0.499896
C63	C	-0.298256	-0.028986	-0.000083
C64	C	0.201744	0.471014	0.499917
N65	N	-0.321018	-0.093075	-0.000075
N66	N	0.178982	0.406925	0.499925
C67	C	-0.284379	-0.156290	-0.000065
C68	C	0.215621	0.343710	0.499935
C69	C	0.064085	-0.023664	-0.000102
C70	C	0.564085	0.476336	0.499898
C71	C	0.123485	-0.022790	-0.000096
C72	C	0.623485	0.477210	0.499904
C73	C	0.137362	-0.150099	-0.000077
C74	C	0.637362	0.349901	0.499923
C75	C	0.077961	-0.150972	-0.000078
C76	C	0.577961	0.349028	0.499922
C77	C	0.041323	-0.087752	-0.000093
C78	C	0.541323	0.412248	0.499907
C79	C	-0.409120	-0.158117	-0.000052
C80	C	0.090880	0.341883	0.499948
C81	C	-0.468524	-0.158983	-0.000043
C82	C	0.031476	0.341017	0.499957
C83	C	-0.482396	-0.031674	-0.000065
C84	C	0.017604	0.468326	0.499935
C85	C	-0.422997	-0.030807	-0.000070
C86	C	0.077003	0.469193	0.499930
C87	C	-0.386360	-0.094034	-0.000066
C88	C	0.113640	0.405966	0.499934
O89	O	-0.334921	0.024666	-0.000067
O90	O	0.165079	0.524666	0.499933
O91	O	-0.309203	-0.210874	-0.000067
O92	O	0.190797	0.289126	0.499933
C93	C	-0.668041	-0.218568	-0.000055
C94	C	-0.168041	0.281432	0.499945
C95	C	-0.668972	-0.296069	-0.000044
C96	C	-0.168972	0.203931	0.499956
N97	N	-0.672499	-0.090882	-0.179238
N98	N	-0.172499	0.409118	0.320762
C99	C	-0.727524	0.159384	-0.000109
C100	C	-0.227524	0.659384	0.499891
C101	C	-0.726650	0.232205	-0.000097
C102	C	-0.226650	0.732205	0.499903
C103	C	-0.674311	0.259935	-0.000089
C104	C	-0.174311	0.759935	0.499911
C105	C	-0.622842	0.214837	-0.000074
C106	C	-0.122842	0.714837	0.499926
C107	C	-0.623718	0.142017	-0.000079
C108	C	-0.123718	0.642017	0.499921
N109	N	-0.634299	0.367813	-0.042929
N110	N	-0.134299	0.867813	0.457071
N111	N	-0.633471	0.436989	-0.042926
N112	N	-0.133471	0.936989	0.457074
C113	C	-0.671670	0.479335	-0.000073
C114	C	-0.171670	0.979335	0.499927
N115	N	-0.710737	0.449893	0.042766
N116	N	-0.210737	0.949893	0.542766
N117	N	-0.711567	0.380711	0.042760
N118	N	-0.211567	0.880711	0.542760
C119	C	-0.673356	0.338894	-0.000084
C120	C	-0.173356	0.838894	0.499916
C121	C	-0.722188	0.603384	-0.000070
C122	C	-0.222188	1.103384	0.499930
C123	C	-0.721311	0.676206	-0.000053
C124	C	-0.221311	1.176206	0.499947
C125	C	-0.617502	0.658836	-0.000038
C126	C	-0.117502	1.158836	0.499962
C127	C	-0.618380	0.586016	-0.000047
C128	C	-0.118380	1.086016	0.499953
C129	C	-0.670724	0.558295	-0.000067
C130	C	-0.170724	1.058295	0.499933
C131	C	-0.706928	-0.133017	-0.218839
C132	C	-0.206928	0.366983	0.281161
C133	C	-0.706937	-0.133015	-0.298087
C134	C	-0.206937	0.366985	0.201913
C135	C	-0.672507	-0.090886	-0.337730
C136	C	-0.172507	0.409114	0.162270
C137	C	-0.638076	-0.048742	-0.298118
C138	C	-0.138076	0.451258	0.201882
C139	C	-0.638072	-0.048740	-0.218872
C140	C	-0.138072	0.451260	0.281128
N141	N	-0.622629	-0.089325	-0.462163
N142	N	-0.122629	0.410675	0.037837
N143	N	-0.622634	-0.089331	-0.537443
N144	N	-0.122634	0.410669	-0.037443
C145	C	-0.672517	-0.090888	-0.576494
C146	C	-0.172517	0.409112	-0.076494
N147	N	-0.722395	-0.092453	-0.537420
N148	N	-0.222395	0.407547	-0.037420
N149	N	-0.722389	-0.092451	-0.462132
N150	N	-0.222389	0.407549	0.037868
C151	C	-0.672507	-0.090883	-0.423659
C152	C	-0.172507	0.409117	0.076341
C153	C	-0.706959	-0.133024	-0.702025
C154	C	-0.206959	0.366976	-0.202025
C155	C	-0.706970	-0.133017	-0.781274
C156	C	-0.206970	0.366983	-0.281274
C157	C	-0.638102	-0.048747	-0.781304
C158	C	-0.138102	0.451253	-0.281304
C159	C	-0.638097	-0.048750	-0.702056
C160	C	-0.138097	0.451250	-0.202056
C161	C	-0.672525	-0.090892	-0.662422
C162	C	-0.172525	0.409108	-0.162422
N163	N	-0.672539	-0.090886	0.179089
N164	N	-0.172539	0.409114	0.679089
H165	H	-0.487050	-0.211177	-0.000029
H166	H	0.012950	0.288823	0.499971
C167	C	-0.777923	0.725804	-0.000066
C168	C	-0.277923	1.225804	0.499934
H169	H	-0.809220	0.698862	-0.000086
H170	H	-0.309220	1.198862	0.499914
H171	H	-0.779749	0.754563	0.043838
H172	H	-0.279749	1.254563	0.543838
H173	H	-0.779728	0.754580	-0.043973
H174	H	-0.279728	1.254580	0.456027
H175	H	-0.576474	0.549304	-0.000042
H176	H	-0.076474	1.049304	0.499958
H177	H	-0.764810	0.580813	-0.000083
H178	H	-0.264810	1.080813	0.499917
C179	C	-0.744805	-0.179373	-0.341658
C180	C	-0.244805	0.320627	0.158342
H181	H	-0.765305	-0.204474	-0.306703
H182	H	-0.265305	0.295526	0.193297
H183	H	-0.771089	-0.150606	-0.372579
H184	H	-0.271089	0.349394	0.127421
H185	H	-0.721377	-0.211651	-0.372564
H186	H	-0.221377	0.288349	0.127436
C187	C	-0.783259	0.281814	-0.000114
C188	C	-0.283259	0.781814	0.499886
H189	H	-0.775239	0.329152	-0.000105
H190	H	-0.275239	0.829152	0.499895
H191	H	-0.804720	0.273456	-0.044024
H192	H	-0.304720	0.773456	0.455976
H193	H	-0.804738	0.273443	0.043788
H194	H	-0.304738	0.773443	0.543788
H195	H	0.167204	-0.201573	-0.000073
H196	H	0.667204	0.298427	0.499927
C197	C	-0.368828	-0.227665	-0.000037
C198	C	0.131172	0.272335	0.499963
H199	H	-0.390897	-0.265953	-0.000019
H200	H	0.109103	0.234047	0.499981
H201	H	-0.345363	-0.229981	-0.043939
H202	H	0.154637	0.270019	0.456061
H203	H	-0.345371	-0.229970	0.043873
H204	H	0.154629	0.270030	0.543873
C205	C	-0.744802	-0.179366	-0.175245
C206	C	-0.244802	0.320634	0.324755
H207	H	-0.765311	-0.204456	-0.210185
H208	H	-0.265311	0.295544	0.289815
H209	H	-0.721383	-0.211643	-0.144326
H210	H	-0.221383	0.288357	0.355674
H211	H	-0.771086	-0.150585	-0.144336
H212	H	-0.271086	0.349415	0.355664
H213	H	-0.138185	0.089046	-0.000133
H214	H	0.361815	0.589046	0.499867
C215	C	-0.213367	-0.289136	-0.000053
C216	C	0.286633	0.210864	0.499947
H217	H	-0.183032	-0.326654	-0.000057
H218	H	0.316968	0.173346	0.499943
H219	H	-0.236254	-0.292135	0.043848
H220	H	0.263746	0.207865	0.543848
H221	H	-0.236245	-0.292119	-0.043964
H222	H	0.263755	0.207881	0.456036
C223	C	-0.600201	-0.002403	-0.341722
C224	C	-0.100201	0.497597	0.158278
H225	H	-0.605130	-0.008444	-0.394591
H226	H	-0.105130	0.491556	0.105409
H227	H	-0.610902	0.045437	-0.328747
H228	H	-0.110902	0.545437	0.171253
H229	H	-0.561201	-0.015623	-0.328736
H230	H	-0.061201	0.484377	0.171264
C231	C	-0.522705	0.037858	-0.000081
C232	C	-0.022705	0.537858	0.499919
H233	H	-0.561340	0.028154	-0.000085
H234	H	-0.061340	0.528154	0.499915
H235	H	-0.515829	0.064163	0.043813
H236	H	-0.015829	0.564163	0.543813
H237	H	-0.515821	0.064149	-0.043998
H238	H	-0.015821	0.564149	0.456002
C239	C	-0.600194	-0.002394	-0.175309
C240	C	-0.100194	0.497606	0.324691
H241	H	-0.579686	0.022696	-0.210265
H242	H	-0.079686	0.522696	0.289735
H243	H	-0.623608	0.029883	-0.144393
H244	H	-0.123608	0.529883	0.355607
H245	H	-0.573908	-0.031176	-0.144398
H246	H	-0.073908	0.468824	0.355602
H247	H	-0.099116	-0.269242	-0.000057
H248	H	0.400884	0.230758	0.499943
H249	H	-0.734992	-0.167338	-0.669753
H250	H	-0.234992	0.332662	-0.169753
H251	H	-0.735010	-0.167326	-0.813516
H252	H	-0.235010	0.332674	-0.313516
H253	H	0.059435	-0.203162	-0.000069
H254	H	0.559435	0.296838	0.499931
C255	C	-0.600229	-0.002406	-0.824901
C256	C	-0.100229	0.497594	-0.324901
H257	H	-0.605159	-0.008444	-0.877770
H258	H	-0.105159	0.491556	-0.377770
H259	H	-0.610929	0.045433	-0.811922
H260	H	-0.110929	0.545433	-0.311922
H261	H	-0.561229	-0.015627	-0.811919
H262	H	-0.061229	0.484373	-0.311919
H263	H	0.142009	0.029401	-0.000097
H264	H	0.642009	0.529401	0.499903
C265	C	-0.600218	-0.002409	-0.658492
C266	C	-0.100218	0.497591	-0.158492
H267	H	-0.579709	0.022678	-0.693450
H268	H	-0.079709	0.522678	-0.193450
H269	H	-0.623632	0.029870	-0.627579
H270	H	-0.123632	0.529870	-0.127579
H271	H	-0.573933	-0.031191	-0.627579
H272	H	-0.073933	0.468809	-0.127579
C273	C	-0.559928	0.689327	-0.000026
C274	C	-0.059928	1.189327	0.499974
H275	H	-0.529404	0.652041	-0.000017
H276	H	-0.029404	1.152041	0.499983
H277	H	-0.557422	0.717384	-0.043924
H278	H	-0.057422	1.217384	0.456076
H279	H	-0.557436	0.717360	0.043887
H280	H	-0.057436	1.217360	0.543887
C281	C	0.023787	0.045883	-0.000102
C282	C	0.523787	0.545883	0.499898
H283	H	0.045856	0.084172	-0.000099
H284	H	0.545856	0.584172	0.499901
H285	H	0.000325	0.048200	-0.044003
H286	H	0.500325	0.548200	0.455997
H287	H	0.000328	0.048187	0.043809
H288	H	0.500328	0.548187	0.543809
H289	H	-0.404466	0.021383	-0.000072
H290	H	0.095534	0.521383	0.499928
C291	C	-0.256410	0.105518	-0.000136
C292	C	0.243590	0.605518	0.499864
H293	H	-0.295048	0.095825	-0.000137
H294	H	0.204952	0.595825	0.499863
H295	H	-0.249526	0.131817	0.043760
H296	H	0.250474	0.631817	0.543760
H297	H	-0.249524	0.131811	-0.044052
H298	H	0.250476	0.631811	0.455948
C299	C	-0.785099	0.128891	-0.000128
C300	C	-0.285099	0.628891	0.499872
H301	H	-0.778252	0.079064	-0.000136
H302	H	-0.278252	0.579064	0.499864
H303	H	-0.806291	0.144384	0.043769
H304	H	-0.306291	0.644384	0.543769
H305	H	-0.806271	0.144402	-0.044043
H306	H	-0.306271	0.644402	0.455957
C307	C	-0.565269	0.245333	-0.000062
C308	C	-0.065269	0.745333	0.499938
H309	H	-0.534744	0.208047	-0.000050
H310	H	-0.034744	0.708047	0.499950
H311	H	-0.562761	0.273387	-0.043962
H312	H	-0.062761	0.773387	0.456038
H313	H	-0.562779	0.273369	0.043849
H314	H	-0.062779	0.773369	0.543849
C315	C	-0.567107	0.092418	-0.000074
C316	C	-0.067107	0.592418	0.499926
H317	H	-0.535809	0.119359	-0.000071
H318	H	-0.035809	0.619359	0.499929
H319	H	-0.565296	0.063637	0.043825
H320	H	-0.065296	0.563637	0.543825
H321	H	-0.565287	0.063664	-0.043987
H322	H	-0.065287	0.563664	0.456013
