data_functionalizedCrystal
_audit_creation_method	'MofGen! by Chris Wilmer'
_symmetry_space_group_name_H-M	'P1'
_symmetry_Int_Tables_number	1
_symmetry_cell_setting	triclinic
loop_
_symmetry_equiv_pos_as_xyz
  x,y,z
_cell_length_a	12.759401
_cell_length_b	21.295411
_cell_length_c	12.759400
_cell_angle_alpha	89.985961
_cell_angle_beta	90.014845
_cell_angle_gamma	89.978649
loop_
_atom_site_label
_atom_site_type_symbol
_atom_site_fract_x
_atom_site_fract_y
_atom_site_fract_z
Zn1	Zn	1.606285	-0.355891	-0.418382
Zn2	Zn	1.606171	-0.250630	-0.594047
Zn3	Zn	1.430578	-0.250642	-0.418383
Zn4	Zn	1.430576	-0.355868	-0.594019
O5	O	1.518402	-0.303258	-0.506208
O6	O	1.753291	-0.341933	-0.441695
O7	O	1.582831	-0.162542	-0.570756
O8	O	1.453935	-0.264618	-0.271362
O9	O	1.753207	-0.264598	-0.570755
O10	O	1.583026	-0.341944	-0.271361
O11	O	1.453824	-0.162551	-0.441697
O12	O	1.283557	-0.264595	-0.441671
O13	O	1.453931	-0.443960	-0.570709
O14	O	1.283555	-0.341905	-0.570710
O15	O	1.583024	-0.443977	-0.441668
O16	O	1.582829	-0.264576	-0.741064
O17	O	1.453820	-0.341893	-0.741044
C18	C	1.245435	-0.303249	-0.506188
C19	C	1.128658	-0.303260	-0.506205
C20	C	1.073823	-0.343449	-0.573504
C21	C	0.964099	-0.343455	-0.573517
C22	C	0.964056	-0.263080	-0.438931
C23	C	1.073778	-0.263077	-0.438913
C24	C	1.128704	-0.383632	-0.640796
C25	C	1.073868	-0.423823	-0.708101
C26	C	0.964144	-0.423830	-0.708114
C27	C	0.909256	-0.383646	-0.640823
C28	C	1.518490	-0.467448	-0.506185
C29	C	1.518527	-0.537416	-0.506176
C30	C	1.585743	-0.570293	-0.438982
C31	C	1.585741	-0.636035	-0.438936
C32	C	1.518535	-0.668899	-0.506104
C33	C	1.451306	-0.636014	-0.573303
C34	C	1.451302	-0.570273	-0.573339
N35	N	1.510454	-0.772122	-0.598012
N36	N	1.510464	-0.834573	-0.597974
C37	C	1.518542	-0.866973	-0.505997
N38	N	1.526629	-0.834563	-0.414057
N39	N	1.526624	-0.772106	-0.414095
C40	C	1.518531	-0.740184	-0.506071
C41	C	1.585759	-0.971136	-0.438748
C42	C	1.585750	-1.036879	-0.438700
C43	C	1.451321	-1.036857	-0.573076
C44	C	1.451324	-0.971115	-0.573114
C45	C	1.518549	-0.938258	-0.505951
C46	C	1.792436	-0.303267	-0.506228
C47	C	1.909212	-0.303270	-0.506236
C48	C	1.518340	-0.303244	-0.779175
C49	C	1.518410	-0.303260	-0.895952
C50	C	1.518376	-0.139706	-0.506154
C51	C	1.518542	-0.069738	-0.505867
C52	C	1.585659	-0.263045	-0.950789
C53	C	1.585723	-0.263065	-1.060513
C54	C	1.451280	-0.343515	-1.060552
C55	C	1.451222	-0.343499	-0.950830
C56	C	1.652847	-0.222806	-0.895910
C57	C	1.720101	-0.182588	-0.950748
C58	C	1.720165	-0.182607	-1.060472
C59	C	1.652976	-0.222845	-1.115358
C60	C	1.518494	-0.303285	-0.232174
C61	C	1.518533	-0.303296	-0.115398
H62	H	1.640481	-0.543545	-0.384291
H63	H	1.640492	-0.944382	-0.384054
H64	H	1.640484	-1.063646	-0.383976
H65	H	1.396562	-0.543505	-0.628055
H66	H	1.653042	-0.222863	-1.204703
C67	C	0.840737	-0.432434	-0.849467
C68	C	0.903864	-0.468008	-0.782087
H69	H	0.803520	-0.459709	-0.895134
H70	H	0.883515	-0.404969	-0.889577
H71	H	0.792351	-0.408506	-0.809385
H72	H	0.952255	-0.491932	-0.822169
H73	H	0.861082	-0.495484	-0.741974
H74	H	1.118426	-0.230357	-0.384105
H75	H	1.640474	-0.662808	-0.384213
C76	C	0.752155	-0.443578	-0.614149
C77	C	0.788644	-0.383662	-0.640794
H78	H	0.677696	-0.443589	-0.614129
H79	H	0.777027	-0.454523	-0.546393
H80	H	0.776982	-0.473256	-0.663871
H81	H	0.763824	-0.353985	-0.591068
H82	H	0.763761	-0.372710	-0.708560
C83	C	1.309997	-0.897156	-0.587741
C84	C	1.377446	-0.934972	-0.646985
H85	H	1.264381	-0.874847	-0.633348
H86	H	1.350026	-0.868181	-0.547755
H87	H	1.269829	-0.922799	-0.541954
H88	H	1.417620	-0.909328	-0.692767
H89	H	1.337413	-0.963950	-0.686990
C90	C	1.391641	-0.736782	-0.632926
C91	C	1.377437	-0.672135	-0.647141
H92	H	1.346037	-0.759080	-0.678516
H93	H	1.376285	-0.747548	-0.562338
H94	H	1.462231	-0.747562	-0.648302
H95	H	1.306848	-0.661355	-0.631757
H96	H	1.392785	-0.661365	-0.717745
C97	C	0.795837	-0.227389	-0.379219
C98	C	0.903724	-0.218903	-0.364983
H99	H	0.758594	-0.200109	-0.333573
H100	H	0.777889	-0.269693	-0.363940
H101	H	0.777860	-0.218107	-0.449796
H102	H	0.921703	-0.228189	-0.294407
H103	H	0.921680	-0.176588	-0.380254
C104	C	1.391658	-1.137620	-0.632706
C105	C	1.377457	-1.072973	-0.646922
H106	H	1.346061	-1.159918	-0.678303
H107	H	1.376292	-1.148387	-0.562121
H108	H	1.462251	-1.148400	-0.648072
H109	H	1.306866	-1.062193	-0.631548
H110	H	1.392816	-1.062203	-0.717523
C111	C	1.391669	-0.379256	-1.228769
C112	C	1.377420	-0.387737	-1.120882
H113	H	1.346062	-0.406554	-1.266010
H114	H	1.462252	-0.388510	-1.246682
H115	H	1.376337	-0.336953	-1.246783
H116	H	1.392759	-0.430039	-1.102866
H117	H	1.306820	-0.378487	-1.102962
H118	H	1.652799	-0.222784	-0.806568
C119	C	1.779695	-0.146832	-0.782533
C120	C	1.793954	-0.138361	-0.890421
H121	H	1.825286	-0.119524	-0.745294
H122	H	1.795031	-0.189126	-0.764505
H123	H	1.709097	-0.137580	-0.764631
H124	H	1.864550	-0.147617	-0.908325
H125	H	1.778625	-0.096057	-0.908456
C126	C	1.853044	-0.103081	-1.049407
C127	C	1.794089	-0.138401	-1.120751
H128	H	1.898675	-0.075785	-1.086621
H129	H	1.893186	-0.130519	-1.006557
H130	H	1.807249	-0.078976	-1.006667
H131	H	1.839884	-0.162510	-1.163486
H132	H	1.753943	-0.110960	-1.163618
C133	C	1.399955	-0.450059	-0.916994
C134	C	1.377306	-0.387705	-0.890541
H135	H	1.354322	-0.477352	-0.879775
H136	H	1.470524	-0.459295	-0.898952
H137	H	1.390362	-0.455821	-0.990195
H138	H	1.386907	-0.381942	-0.817341
H139	H	1.306721	-0.378466	-0.908575
C140	C	1.285907	-0.427383	-0.714053
C141	C	1.249313	-0.383627	-0.640780
H142	H	1.360366	-0.427380	-0.714037
H143	H	1.261071	-0.416423	-0.781816
H144	H	1.261114	-0.468024	-0.695986
H145	H	1.274100	-0.342985	-0.658852
H146	H	1.274160	-0.394584	-0.573003
H147	H	1.118565	-0.456543	-0.762880
