data_functionalizedCrystal
_audit_creation_method	'MofGen! by Chris Wilmer'
_symmetry_space_group_name_H-M	'P1'
_symmetry_Int_Tables_number	1
_symmetry_cell_setting	triclinic
loop_
_symmetry_equiv_pos_as_xyz
  x,y,z
_cell_length_a	10.654556
_cell_length_b	10.540510
_cell_length_c	9.730223
_cell_angle_alpha	90.001116
_cell_angle_beta	89.999363
_cell_angle_gamma	84.500360
loop_
_atom_site_label
_atom_site_type_symbol
_atom_site_fract_x
_atom_site_fract_y
_atom_site_fract_z
O1	O	1.667873	0.178334	-0.114296
O2	O	1.302400	0.195314	-0.114295
O3	O	1.493494	0.002112	-0.114295
O4	O	1.476779	0.371536	-0.114296
O5	O	1.493492	0.002117	0.114285
O6	O	1.302398	0.195319	0.114285
O7	O	1.667871	0.178339	0.114284
Zn8	Zn	1.485134	0.186830	0.150577
Zn9	Zn	1.485137	0.186823	-0.150587
O10	O	1.476777	0.371541	0.114284
C11	C	1.255601	0.194068	-0.000005
C12	C	1.116157	0.190333	-0.000004
C13	C	0.919627	0.185074	-0.124615
C14	C	1.050650	0.188577	-0.124609
C15	C	1.050636	0.188575	0.124602
C16	C	0.919616	0.185063	0.124594
C17	C	0.919635	0.185081	-0.268494
C18	C	1.050659	0.188583	-0.268488
C19	C	1.492248	-0.045188	-0.000007
C20	C	1.488521	-0.186137	-0.000016
C21	C	1.621273	-0.403637	0.000507
C22	C	1.625248	-0.257043	-0.000015
C23	C	1.418531	-0.230875	-0.130543
C24	C	1.415524	-0.377635	-0.130645
C25	C	1.412674	-0.377437	0.129293
C26	C	1.419159	-0.231098	0.131011
C27	C	1.714670	0.179585	-0.000009
C28	C	1.854114	0.183320	-0.000018
C29	C	1.478024	0.418841	-0.000006
C30	C	1.481750	0.559790	-0.000007
N31	N	1.485141	0.186833	0.356113
N32	N	1.485140	0.186810	-0.356123
C33	C	1.569780	0.101313	0.428039
C34	C	1.569777	0.101298	0.571922
C35	C	1.400492	0.272334	0.571940
C36	C	1.400490	0.272342	0.428060
C37	C	1.667519	0.002570	0.428030
C38	C	1.667515	0.002555	0.571913
H39	H	1.103983	0.189994	0.226057
H40	H	1.075514	0.278223	-0.323717
H41	H	1.680011	-0.227715	0.093550
H42	H	1.674235	-0.447163	-0.092571
C43	C	1.284263	-0.167808	-0.137249
C44	C	1.224727	-0.209859	-0.254771
C45	C	1.101036	-0.151796	-0.260984
H46	H	1.285664	-0.077912	-0.141243
H47	H	1.239332	-0.189815	-0.057751
H48	H	1.269645	-0.187843	-0.334248
H49	H	1.223291	-0.299746	-0.250802
H50	H	1.056106	-0.173803	-0.181487
H51	H	1.102451	-0.061902	-0.264975
H52	H	1.060622	-0.180327	-0.340715
C53	C	1.639131	-0.127574	0.375852
C54	C	1.740255	-0.180461	0.295987
C55	C	1.714149	-0.300347	0.247909
H56	H	1.564730	-0.118753	0.321532
H57	H	1.627249	-0.181855	0.451746
H58	H	1.752122	-0.126194	0.220104
H59	H	1.814668	-0.189314	0.350279
H60	H	1.702267	-0.354628	0.323803
H61	H	1.639746	-0.291514	0.193594
H62	H	1.782761	-0.336251	0.193726
H63	H	1.764032	0.024307	0.610963
C64	C	1.692320	-0.459855	0.125196
C65	C	1.694070	-0.592819	0.122291
C66	C	1.759519	-0.644660	0.237127
H67	H	1.651522	-0.427923	0.206647
H68	H	1.776343	-0.436776	0.123598
H69	H	1.610062	-0.615888	0.123901
H70	H	1.734877	-0.624787	0.040866
H71	H	1.843542	-0.621581	0.235529
H72	H	1.718714	-0.612718	0.318569
H73	H	1.760725	-0.734881	0.235164
C74	C	0.886323	0.065518	-0.341932
C75	C	0.822281	-0.008792	-0.251235
C76	C	0.791559	-0.118930	-0.318839
H77	H	0.961320	0.017949	-0.372625
H78	H	0.833902	0.088788	-0.418616
H79	H	0.874701	-0.032064	-0.174576
H80	H	0.747271	0.038739	-0.220538
H81	H	0.739137	-0.095660	-0.395523
H82	H	0.866562	-0.166488	-0.349529
H83	H	0.748093	-0.169357	-0.257316
H84	H	1.758710	0.033491	0.383403
H85	H	0.867953	0.275490	-0.313139
H86	H	1.636980	-0.089653	0.616529
H87	H	1.102343	0.098170	-0.313134
H88	H	1.331571	0.341952	0.630535
H89	H	1.680331	-0.228658	-0.093744
H90	H	1.313260	-0.400595	-0.136559
C91	C	1.479412	-0.431055	-0.260785
C92	C	1.520342	-0.331144	-0.338586
C93	C	1.579219	-0.380301	-0.458471
H94	H	1.421268	-0.474042	-0.313128
H95	H	1.549753	-0.489175	-0.236985
H96	H	1.450011	-0.273046	-0.362389
H97	H	1.578501	-0.288148	-0.286284
H98	H	1.649560	-0.438421	-0.434671
H99	H	1.521067	-0.423288	-0.510802
H100	H	1.607008	-0.312521	-0.511267
H101	H	1.456124	-0.419631	0.228233
C102	C	1.285960	-0.165876	0.141578
C103	C	1.199629	-0.257997	0.139967
C104	C	1.076910	-0.197963	0.149702
H105	H	1.269944	-0.109660	0.065956
H106	H	1.277286	-0.118892	0.224919
H107	H	1.208298	-0.304959	0.056636
H108	H	1.215603	-0.314217	0.215585
H109	H	1.068236	-0.150979	0.233043
H110	H	1.060908	-0.141749	0.074077
H111	H	1.018321	-0.260458	0.148623
C112	C	1.308532	0.365326	0.350216
C113	C	1.234426	0.440227	0.444024
C114	C	1.149706	0.525910	0.372365
H115	H	1.255739	0.319308	0.294081
H116	H	1.354133	0.418678	0.294120
H117	H	1.188828	0.386881	0.500096
H118	H	1.287183	0.486273	0.500161
H119	H	1.195307	0.579263	0.316269
H120	H	1.096923	0.479882	0.316232
H121	H	1.099423	0.576749	0.436002
H122	H	0.866284	0.183609	0.226053
H123	H	1.467139	-0.200037	-0.227682
H124	H	1.470087	-0.202501	0.227574
H125	H	1.310018	-0.399552	0.130173
