data_functionalizedCrystal
_audit_creation_method	'MofGen! by Chris Wilmer'
_symmetry_space_group_name_H-M	'P1'
_symmetry_Int_Tables_number	1
_symmetry_cell_setting	triclinic
loop_
_symmetry_equiv_pos_as_xyz
  x,y,z
_cell_length_a	11.792254
_cell_length_b	15.944551
_cell_length_c	10.268362
_cell_angle_alpha	89.993764
_cell_angle_beta	89.995475
_cell_angle_gamma	83.848668
loop_
_atom_site_label
_atom_site_type_symbol
_atom_site_fract_x
_atom_site_fract_y
_atom_site_fract_z
O1	O	1.505951	0.115179	-0.108302
O2	O	1.175514	0.127033	-0.108305
O3	O	1.349756	-0.001128	-0.108292
O4	O	1.331709	0.243340	-0.108316
O5	O	1.349741	-0.001133	0.108309
O6	O	1.175499	0.127028	0.108295
O7	O	1.505936	0.115174	0.108298
Cu8	Cu	1.340716	0.121100	0.128074
Cu9	Cu	1.340734	0.121106	-0.128081
O10	O	1.331694	0.243334	0.108285
C11	C	1.133222	0.126284	-0.000005
C12	C	1.007228	0.124049	-0.000006
C13	C	0.904906	0.122233	-0.000011
C14	C	0.776538	0.119962	-0.000012
C15	C	1.349000	-0.032428	0.000009
C16	C	1.346753	-0.125684	0.000009
C17	C	1.233381	-0.341056	-0.000010
C18	C	1.286020	-0.401837	0.106788
C19	C	1.342690	-0.296428	-0.000001
C20	C	1.286061	-0.401815	-0.106763
C21	C	1.338757	-0.461359	-0.000016
C22	C	1.395359	-0.355981	0.106885
C23	C	1.395384	-0.355952	-0.106762
C24	C	1.448102	-0.416715	0.000062
C25	C	1.344953	-0.201416	0.000009
C26	C	1.336503	-0.556370	-0.000017
C27	C	1.548228	0.115923	-0.000004
C28	C	1.674223	0.118158	-0.000012
C29	C	1.332451	0.274634	-0.000018
C30	C	1.334697	0.367891	-0.000028
N31	N	1.340712	0.121095	0.308240
N32	N	1.340748	0.121105	-0.308247
C33	C	1.340729	0.121105	0.573911
C34	C	1.340716	0.121102	0.426073
H35	H	1.239781	-0.422158	0.197076
O36	O	1.231065	-0.426001	-0.214613
C37	C	1.225204	-0.428869	-0.449130
C38	C	1.287620	-0.401453	-0.327109
H39	H	1.270889	-0.409017	-0.540113
H40	H	1.224785	-0.500335	-0.448695
H41	H	1.133667	-0.397498	-0.448906
H42	H	1.379182	-0.432764	-0.327252
H43	H	1.287946	-0.329980	-0.327589
O44	O	1.450384	-0.331744	0.214682
C45	C	1.514289	-0.216115	0.335582
C46	C	1.451931	-0.243447	0.213465
H47	H	1.515581	-0.144728	0.334625
H48	H	1.468001	-0.235339	0.426527
H49	H	1.605529	-0.248062	0.335954
H50	H	1.360690	-0.211514	0.212967
H51	H	1.498307	-0.224239	0.122575
O52	O	1.125070	-0.301942	0.000169
C53	C	0.924371	-0.318589	0.001473
C54	C	1.046968	-0.362993	0.001293
H55	H	0.861191	-0.367928	0.002354
H56	H	0.910846	-0.277055	0.091691
H57	H	0.910318	-0.277902	-0.089597
H58	H	1.061105	-0.403723	0.092302
H59	H	1.060434	-0.404476	-0.088985
H60	H	1.538913	-0.449461	0.000123
O61	O	1.450514	-0.331536	-0.214376
C62	C	1.515138	-0.215762	-0.334338
C63	C	1.452717	-0.243304	-0.212381
H64	H	1.516919	-0.144423	-0.332779
H65	H	1.606201	-0.248043	-0.335281
H66	H	1.468431	-0.234431	-0.425298
H67	H	1.499330	-0.224639	-0.121355
H68	H	1.361651	-0.211029	-0.211553
