data_functionalizedCrystal
_audit_creation_method	'MofGen! by Chris Wilmer'
_symmetry_space_group_name_H-M	'P1'
_symmetry_Int_Tables_number	1
_symmetry_cell_setting	triclinic
loop_
_symmetry_equiv_pos_as_xyz
  x,y,z
_cell_length_a	25.639239
_cell_length_b	16.625548
_cell_length_c	16.625539
_cell_angle_alpha	90.020568
_cell_angle_beta	90.031255
_cell_angle_gamma	90.039754
loop_
_atom_site_label
_atom_site_type_symbol
_atom_site_fract_x
_atom_site_fract_y
_atom_site_fract_z
Zn1	Zn	-0.208135	1.232590	0.455893
Zn2	Zn	0.125198	1.565923	0.789226
Zn3	Zn	0.458532	1.899256	1.122559
Zn4	Zn	-0.295573	1.232455	0.321053
Zn5	Zn	0.037760	1.565788	0.654386
Zn6	Zn	0.371094	1.899121	0.987720
Zn7	Zn	-0.208155	1.097751	0.321073
Zn8	Zn	0.125178	1.431085	0.654407
Zn9	Zn	0.458512	1.764418	0.987740
Zn10	Zn	-0.295543	1.097684	0.455843
Zn11	Zn	0.037791	1.431017	0.789176
Zn12	Zn	0.371124	1.764350	1.122510
O13	O	-0.251851	1.165120	0.388466
O14	O	0.081482	1.498453	0.721799
O15	O	0.414815	1.831786	1.055132
O16	O	-0.219738	1.345404	0.438018
O17	O	0.113595	1.678737	0.771352
O18	O	0.446929	2.012071	1.104685
O19	O	-0.283998	1.214558	0.208223
O20	O	0.049336	1.547891	0.541557
O21	O	0.382669	1.881225	0.874890
O22	O	-0.134987	1.115723	0.338987
O23	O	0.198346	1.449056	0.672320
O24	O	0.531680	1.782389	1.005653
O25	O	-0.283978	1.345305	0.338952
O26	O	0.049355	1.678638	0.672286
O27	O	0.382688	2.011972	1.005619
O28	O	-0.134972	1.214788	0.438038
O29	O	0.198361	1.548121	0.771371
O30	O	0.531694	1.881455	1.104705
O31	O	-0.219772	1.115592	0.208238
O32	O	0.113561	1.448925	0.541572
O33	O	0.446895	1.782259	0.874905
O34	O	-0.219743	0.984910	0.338938
O35	O	0.113590	1.318243	0.672272
O36	O	0.446924	1.651577	1.005605
O37	O	-0.283927	1.115607	0.568682
O38	O	0.049406	1.448941	0.902015
O39	O	0.382740	1.782274	1.235349
O40	O	-0.283946	0.984860	0.437953
O41	O	0.049387	1.318194	0.771286
O42	O	0.382720	1.651527	1.104620
O43	O	-0.219709	1.214722	0.568719
O44	O	0.113624	1.548056	0.902052
O45	O	0.446958	1.881389	1.235385
O46	O	-0.368734	1.214492	0.338904
O47	O	-0.035401	1.547825	0.672237
O48	O	0.297933	1.881159	1.005571
O49	O	-0.368712	1.115477	0.437933
O50	O	-0.035379	1.448810	0.771267
O51	O	0.297955	1.782143	1.104600
C52	C	-0.251844	0.955629	0.388443
C53	C	0.081489	1.288962	0.721776
C54	C	0.414823	1.622296	1.055110
C55	C	-0.251853	0.866008	0.388452
C56	C	0.081480	1.199341	0.721786
C57	C	0.414813	1.532675	1.055119
C58	C	-0.251857	0.537832	0.388487
C59	C	0.081477	0.871166	0.721820
C60	C	0.414810	1.204499	1.055154
C61	C	-0.251854	0.629141	0.388475
C62	C	0.081479	0.962474	0.721808
C63	C	0.414812	1.295807	1.055141
C64	C	-0.251855	0.701917	0.388469
C65	C	0.081478	1.035250	0.721802
C66	C	0.414811	1.368584	1.055136
C67	C	-0.251852	0.793231	0.388458
C68	C	0.081481	1.126565	0.721792
C69	C	0.414814	1.459898	1.055125
C70	C	-0.387694	1.164984	0.388429
C71	C	-0.054361	1.498318	0.721762
C72	C	0.278973	1.831651	1.055095
C73	C	-0.445808	1.165000	0.388440
C74	C	-0.112475	1.498333	0.721773
C75	C	0.220859	1.831667	1.055106
C76	C	-0.806170	1.216812	0.336989
C77	C	-0.472837	1.550145	0.670322
C78	C	-0.139503	1.883478	1.003655
C79	C	-0.860774	1.216843	0.337000
C80	C	-0.527441	1.550176	0.670333
C81	C	-0.194108	1.883510	1.003666
O82	O	-0.889010	1.260755	0.293213
O83	O	-0.555677	1.594088	0.626547
O84	O	-0.222343	1.927421	0.959880
N85	N	-0.888090	1.165262	0.388519
N86	N	-0.554757	1.498595	0.721852
N87	N	-0.221424	1.831928	1.055186
C88	C	-0.860799	1.113651	0.440037
C89	C	-0.527466	1.446985	0.773370
C90	C	-0.194133	1.780318	1.106703
O91	O	-0.889048	1.069780	0.483860
O92	O	-0.555715	1.403114	0.817193
O93	O	-0.222381	1.736447	1.150526
C94	C	-0.806196	1.113625	0.440029
C95	C	-0.472863	1.446958	0.773363
C96	C	-0.139529	1.780291	1.106696
C97	C	-0.778883	1.165204	0.388501
C98	C	-0.445549	1.498537	0.721834
C99	C	-0.112216	1.831870	1.055168
C100	C	-0.778857	1.268387	0.285465
C101	C	-0.445523	1.601721	0.618798
C102	C	-0.112190	1.935054	0.952132
C103	C	-0.724256	1.268355	0.285453
C104	C	-0.390923	1.601688	0.618787
C105	C	-0.057589	1.935022	0.952120
C106	C	-0.696969	1.216747	0.336965
C107	C	-0.363636	1.550080	0.670299
C108	C	-0.030302	1.883413	1.003632
C109	C	-0.724282	1.165171	0.388489
C110	C	-0.390949	1.498505	0.721823
C111	C	-0.057616	1.831838	1.055156
C112	C	-0.778906	1.062019	0.491551
C113	C	-0.445573	1.395352	0.824884
C114	C	-0.112240	1.728686	1.158217
C115	C	-0.724299	1.061997	0.491539
C116	C	-0.390966	1.395331	0.824873
C117	C	-0.057632	1.728664	1.158206
C118	C	-0.696986	1.113576	0.440011
C119	C	-0.363652	1.446910	0.773344
C120	C	-0.030319	1.780243	1.106677
C121	C	-0.642395	1.113531	0.439990
C122	C	-0.309061	1.446864	0.773323
C123	C	0.024272	1.780197	1.106656
N124	N	-0.615078	1.165112	0.388470
N125	N	-0.281745	1.498445	0.721804
N126	N	0.051588	1.831779	1.055137
C127	C	-0.642366	1.216720	0.336958
C128	C	-0.309032	1.550054	0.670291
C129	C	0.024301	1.883387	1.003625
C130	C	-0.975470	1.113712	0.440049
C131	C	-0.642137	1.447045	0.773383
C132	C	-0.308803	1.780379	1.106716
C133	C	-1.030072	1.113734	0.440053
C134	C	-0.696739	1.447067	0.773386
C135	C	-0.363406	1.780401	1.106720
C136	C	-1.030043	1.216927	0.337017
C137	C	-0.696710	1.550260	0.670350
C138	C	-0.363377	1.883594	1.003683
C139	C	-0.975440	1.216900	0.337009
C140	C	-0.642107	1.550234	0.670343
C141	C	-0.308773	1.883567	1.003676
C142	C	-0.948154	1.165293	0.388530
C143	C	-0.614821	1.498627	0.721863
C144	C	-0.281487	1.831960	1.055196
C145	C	-0.527700	1.216648	0.336937
C146	C	-0.194367	1.549981	0.670270
C147	C	0.138966	1.883314	1.003604
C148	C	-0.473095	1.216608	0.336928
C149	C	-0.139762	1.549941	0.670261
C150	C	0.193572	1.883275	1.003594
C151	C	-0.473129	1.113418	0.439967
C152	C	-0.139796	1.446752	0.773300
C153	C	0.193538	1.780085	1.106633
C154	C	-0.527729	1.113454	0.439973
C155	C	-0.194396	1.446788	0.773307
C156	C	0.138937	1.780121	1.106640
C157	C	-0.555014	1.165076	0.388456
C158	C	-0.221681	1.498409	0.721789
C159	C	0.111653	1.831742	1.055123
O160	O	-0.614124	1.069644	0.483756
O161	O	-0.280791	1.402977	0.817089
O162	O	0.052543	1.736310	1.150422
O163	O	-0.614110	1.260591	0.293150
O164	O	-0.280777	1.593924	0.626483
O165	O	0.052556	1.927258	0.959817
C166	C	-0.115478	1.165278	0.388520
C167	C	0.217855	1.498611	0.721854
C168	C	0.551188	1.831945	1.055187
C169	C	-0.057364	1.165345	0.388544
C170	C	0.275969	1.498679	0.721877
C171	C	0.609302	1.832012	1.055210
C172	C	-0.251812	1.165172	0.598775
C173	C	0.081521	1.498506	0.932108
C174	C	0.414854	1.831839	1.265441
C175	C	-0.251796	1.165195	0.688396
C176	C	0.081538	1.498528	1.021729
C177	C	0.414871	1.831861	1.355062
C178	C	-0.251859	1.375429	0.388489
C179	C	0.081474	1.708762	0.721822
C180	C	0.414807	2.042095	1.055155
C181	C	-0.251863	1.465050	0.388498
C182	C	0.081471	1.798383	0.721832
C183	C	0.414804	2.131716	1.055165
C184	C	-0.251852	1.165114	0.178975
C185	C	0.081481	1.498447	0.512308
C186	C	0.414814	1.831781	0.845641
C187	C	-0.251722	1.165248	0.089354
C188	C	0.081612	1.498581	0.422687
C189	C	0.414945	1.831915	0.756021
C190	C	-0.251737	1.165232	1.016572
C191	C	0.081596	1.498565	1.349905
C192	C	0.414929	1.831898	1.683238
C193	C	-0.251755	1.165219	0.925263
C194	C	0.081578	1.498553	1.258596
C195	C	0.414911	1.831886	1.591930
C196	C	-0.251767	1.165214	0.852487
C197	C	0.081566	1.498547	1.185820
C198	C	0.414900	1.831880	1.519153
C199	C	-0.251784	1.165200	0.761172
C200	C	0.081549	1.498534	1.094506
C201	C	0.414883	1.831867	1.427839
H202	H	-0.549909	1.258684	0.294988
H203	H	-0.216576	1.592017	0.628322
H204	H	0.116758	1.925351	0.961655
C205	C	-0.914076	1.228140	0.228544
C206	C	-0.580742	1.561473	0.561878
C207	C	-0.247409	1.894807	0.895211
C208	C	-0.945420	1.273601	0.280371
C209	C	-0.612087	1.606934	0.613705
C210	C	-0.278753	1.940267	0.947038
H211	H	-0.895547	1.263148	0.193575
H212	H	-0.562214	1.596481	0.526908
H213	H	-0.228881	1.929815	0.860242
H214	H	-0.890008	1.197414	0.259221
H215	H	-0.556674	1.530747	0.592555
H216	H	-0.223341	1.864080	0.925888
H217	H	-0.935417	1.193036	0.197678
H218	H	-0.602084	1.526370	0.531011
H219	H	-0.268751	1.859703	0.864345
H220	H	-0.924078	1.308700	0.311242
H221	H	-0.590745	1.642034	0.644576
H222	H	-0.257411	1.975367	0.977909
H223	H	-0.969491	1.304341	0.249691
H224	H	-0.636157	1.637674	0.583024
H225	H	-0.302824	1.971007	0.916358
C226	C	-0.662965	0.953493	0.502648
C227	C	-0.329632	1.286826	0.835981
C228	C	0.003701	1.620160	1.169315
C229	C	-0.694307	1.005267	0.548173
C230	C	-0.360974	1.338600	0.881506
C231	C	-0.027640	1.671933	1.214840
H232	H	-0.644449	0.918474	0.537612
H233	H	-0.311116	1.251807	0.870946
H234	H	0.022218	1.585141	1.204279
H235	H	-0.684303	0.922684	0.467501
H236	H	-0.350970	1.256018	0.800835
H237	H	-0.017637	1.589351	1.134168
H238	H	-0.638882	0.984211	0.471966
H239	H	-0.305549	1.317544	0.805299
H240	H	0.027784	1.650878	1.138633
H241	H	-0.718393	0.974549	0.578851
H242	H	-0.385060	1.307882	0.912184
H243	H	-0.051726	1.641215	1.245518
H244	H	-0.672967	1.036078	0.583334
H245	H	-0.339634	1.369412	0.916667
H246	H	-0.006301	1.702745	1.250001
H247	H	-0.702021	1.310357	0.243497
H248	H	-0.368687	1.643691	0.576830
H249	H	-0.035354	1.977024	0.910163
C250	C	-0.773329	1.370372	0.183612
C251	C	-0.439995	1.703705	0.516945
C252	C	-0.106662	2.037038	0.850278
C253	C	-0.808844	1.325117	0.228831
C254	C	-0.475511	1.658450	0.562164
C255	C	-0.142178	1.991784	0.895498
H256	H	-0.791840	1.405389	0.148639
H257	H	-0.458507	1.738722	0.481973
H258	H	-0.125174	2.072056	0.815306
H259	H	-0.752001	1.401183	0.218770
H260	H	-0.418667	1.734516	0.552104
H261	H	-0.085334	2.067849	0.885437
H262	H	-0.752065	1.335232	0.152747
H263	H	-0.418731	1.668565	0.486080
H264	H	-0.085398	2.001899	0.819414
H265	H	-0.830106	1.360257	0.259700
H266	H	-0.496773	1.693590	0.593034
H267	H	-0.163440	2.026923	0.926367
H268	H	-0.830181	1.294303	0.193668
H269	H	-0.496848	1.627637	0.527001
H270	H	-0.163515	1.960970	0.860334
H271	H	-0.953256	1.071681	0.482001
H272	H	-0.619923	1.405014	0.815334
H273	H	-0.286590	1.738347	1.148668
H274	H	-0.801135	1.020014	0.533507
H275	H	-0.467802	1.353347	0.866840
H276	H	-0.134469	1.686680	1.200174
H277	H	-1.052270	1.258952	0.295075
H278	H	-0.718937	1.592285	0.628409
H279	H	-0.385604	1.925619	0.961742
C280	C	-0.522271	1.011454	0.541824
C281	C	-0.188937	1.344788	0.875157
C282	C	0.144396	1.678121	1.208491
C283	C	-0.557756	1.056759	0.496614
C284	C	-0.224422	1.390092	0.829947
C285	C	0.108911	1.723425	1.163280
H286	H	-0.540806	0.976462	0.576800
H287	H	-0.207472	1.309795	0.910133
H288	H	0.125861	1.643128	1.243466
H289	H	-0.501016	0.980615	0.506660
H290	H	-0.167683	1.313948	0.839993
H291	H	0.165651	1.647282	1.173326
H292	H	-0.500930	1.046564	0.572685
H293	H	-0.167597	1.379897	0.906018
H294	H	0.165737	1.713231	1.239352
H295	H	-0.579094	1.021649	0.465748
H296	H	-0.245761	1.354982	0.799081
H297	H	0.087573	1.688316	1.132415
H298	H	-0.579019	1.087600	0.531782
H299	H	-0.245686	1.420934	0.865116
H300	H	0.087648	1.754267	1.198449
C301	C	-1.024603	1.011732	0.541899
C302	C	-0.691269	1.345066	0.875232
C303	C	-0.357936	1.678399	1.208565
C304	C	-1.060091	1.057032	0.496690
C305	C	-0.726758	1.390365	0.830024
C306	C	-0.393425	1.723698	1.163357
H307	H	-1.043135	0.976732	0.576871
H308	H	-0.709802	1.310066	0.910204
H309	H	-0.376468	1.643399	1.243537
H310	H	-1.003345	0.980901	0.506733
H311	H	-0.670011	1.314234	0.840066
H312	H	-0.336678	1.647567	1.173399
H313	H	-1.003266	1.046845	0.572763
H314	H	-0.669933	1.380178	0.906096
H315	H	-0.336599	1.713511	1.239430
H316	H	-1.081426	1.021919	0.465821
H317	H	-0.748092	1.355253	0.799154
H318	H	-0.414759	1.688586	1.132488
H319	H	-1.081359	1.087865	0.531861
H320	H	-0.748025	1.421199	0.865194
H321	H	-0.414692	1.754532	1.198527
C322	C	-0.389434	1.067572	0.485698
C323	C	-0.056100	1.400906	0.819032
C324	C	0.277233	1.734239	1.152365
C325	C	-0.443128	1.056696	0.496591
C326	C	-0.109794	1.390030	0.829925
C327	C	0.223539	1.723363	1.163258
H328	H	-0.370912	1.032560	0.520664
H329	H	-0.037579	1.365894	0.853997
H330	H	0.295754	1.699227	1.187330
H331	H	-0.380521	1.055790	0.431518
H332	H	-0.047187	1.389123	0.764851
H333	H	0.286146	1.722457	1.098185
H334	H	-0.380453	1.121742	0.497540
H335	H	-0.047119	1.455075	0.830874
H336	H	0.286214	1.788409	1.164207
H337	H	-0.452109	1.002528	0.484743
H338	H	-0.118776	1.335861	0.818077
H339	H	0.214558	1.669194	1.151410
H340	H	-0.452044	1.068473	0.550784
H341	H	-0.118711	1.401806	0.884117
H342	H	0.214623	1.735139	1.217451
H343	H	-0.450858	1.258610	0.294964
H344	H	-0.117525	1.591943	0.628297
H345	H	0.215808	1.925277	0.961631
