data_functionalizedCrystal
_audit_creation_method	'MofGen! by Chris Wilmer'
_symmetry_space_group_name_H-M	'P1'
_symmetry_Int_Tables_number	1
_symmetry_cell_setting	triclinic
loop_
_symmetry_equiv_pos_as_xyz
  x,y,z
_cell_length_a	21.295417
_cell_length_b	18.215407
_cell_length_c	21.295420
_cell_angle_alpha	90.006529
_cell_angle_beta	90.018953
_cell_angle_gamma	90.030955
loop_
_atom_site_label
_atom_site_type_symbol
_atom_site_fract_x
_atom_site_fract_y
_atom_site_fract_z
Zn1	Zn	-0.250690	1.124947	0.355913
Zn2	Zn	0.249310	1.624947	0.855913
Zn3	Zn	-0.355937	1.124871	0.250639
Zn4	Zn	0.144063	1.624871	0.750639
Zn5	Zn	-0.250687	1.001908	0.250658
Zn6	Zn	0.249313	1.501908	0.750658
Zn7	Zn	-0.355926	1.001833	0.355870
Zn8	Zn	0.144074	1.501833	0.855870
O9	O	-0.303310	1.063390	0.303270
O10	O	0.196690	1.563390	0.803270
O11	O	-0.264657	1.227921	0.341958
O12	O	0.235343	1.727921	0.841958
O13	O	-0.341978	1.108560	0.162552
O14	O	0.158022	1.608560	0.662552
O15	O	-0.162598	1.018292	0.264647
O16	O	0.337402	1.518292	0.764647
O17	O	-0.341982	1.227866	0.264614
O18	O	0.158018	1.727866	0.764614
O19	O	-0.162600	1.108688	0.341977
O20	O	0.337400	1.608688	0.841977
O21	O	-0.264651	1.018219	0.162566
O22	O	0.235349	1.518219	0.662566
O23	O	-0.264641	0.898914	0.264605
O24	O	0.235359	1.398914	0.764605
O25	O	-0.341964	1.018164	0.443965
O26	O	0.158036	1.518164	0.943965
O27	O	-0.341960	0.898859	0.341904
O28	O	0.158040	1.398859	0.841904
O29	O	-0.264647	1.108615	0.443997
O30	O	0.235353	1.608615	0.943997
O31	O	-0.444025	1.108487	0.264572
O32	O	0.055975	1.608487	0.764572
O33	O	-0.444017	1.018092	0.341885
O34	O	0.055983	1.518092	0.841885
C35	C	-0.303299	0.872183	0.303252
C36	C	0.196701	1.372183	0.803252
C37	C	-0.303310	0.790384	0.303259
C38	C	0.196690	1.290384	0.803259
C39	C	-0.343633	0.602181	0.343458
C40	C	0.156367	1.102181	0.843458
C41	C	-0.343635	0.525322	0.343466
C42	C	0.156365	1.025322	0.843466
C43	C	-0.262998	0.525350	0.263096
C44	C	0.237002	1.025350	0.763096
C45	C	-0.262994	0.602207	0.263092
C46	C	0.237006	1.102207	0.763092
C47	C	-0.303315	0.640621	0.303272
C48	C	0.196685	1.140621	0.803272
C49	C	-0.303321	0.486905	0.303284
C50	C	0.196679	0.986905	0.803284
C51	C	-0.303323	0.403571	0.303292
C52	C	0.196677	0.903571	0.803292
C53	C	-0.303312	0.723960	0.303265
C54	C	0.196688	1.223960	0.803265
C55	C	-0.466862	1.063293	0.303235
C56	C	0.033138	1.563293	0.803235
C57	C	-0.536830	1.063319	0.303241
C58	C	-0.036830	1.563319	0.803241
C59	C	-0.569680	1.110430	0.263026
C60	C	-0.069680	1.610430	0.763026
C61	C	-0.635422	1.110465	0.263040
C62	C	-0.135422	1.610465	0.763040
C63	C	-0.668312	1.063375	0.303263
C64	C	-0.168312	1.563375	0.803263
C65	C	-0.635454	1.016261	0.343487
C66	C	-0.135454	1.516261	0.843487
C67	C	-0.569713	1.016233	0.343476
C68	C	-0.069713	1.516233	0.843476
N69	N	-0.771580	0.998995	0.308056
N70	N	-0.271580	1.498995	0.808056
N71	N	-0.834031	0.999024	0.308063
N72	N	-0.334031	1.499024	0.808063
C73	C	-0.866387	1.063458	0.303299
C74	C	-0.366387	1.563458	0.803299
N75	N	-0.833932	1.127863	0.298517
N76	N	-0.333932	1.627863	0.798517
N77	N	-0.771475	1.127834	0.298507
N78	N	-0.271475	1.627834	0.798507
C79	C	-0.739598	1.063400	0.303280
C80	C	-0.239598	1.563400	0.803280
C81	C	-0.970522	1.110610	0.263097
C82	C	-0.470522	1.610610	0.763097
C83	C	-1.036266	1.110646	0.263115
C84	C	-0.536266	1.610646	0.763115
C85	C	-1.036297	1.016435	0.343559
C86	C	-0.536297	1.516435	0.843559
C87	C	-0.970555	1.016406	0.343543
C88	C	-0.470555	1.516406	0.843543
C89	C	-0.937671	1.063492	0.303309
C90	C	-0.437671	1.563492	0.803309
C91	C	-0.139120	1.063507	0.303319
C92	C	0.360880	1.563507	0.803319
C93	C	-0.069152	1.063556	0.303340
C94	C	0.430848	1.563556	0.803340
C95	C	-0.303304	1.063390	0.467460
C96	C	0.196696	1.563390	0.967460
C97	C	-0.303302	1.063390	0.537428
C98	C	0.196698	1.563390	1.037428
C99	C	-0.303321	1.255343	0.303289
C100	C	0.196679	1.755343	0.803289
C101	C	-0.303326	1.337141	0.303296
C102	C	0.196674	1.837141	0.803296
C103	C	-0.263050	1.110455	1.036904
C104	C	0.236950	1.610455	1.536904
C105	C	-0.263052	1.110463	0.971161
C106	C	0.236948	1.610463	1.471161
C107	C	-0.303305	1.063372	0.938268
C108	C	0.196695	1.563372	1.438268
C109	C	-0.343571	1.016282	0.971122
C110	C	0.156429	1.516282	1.471122
C111	C	-0.343573	1.016281	1.036864
C112	C	0.156427	1.516281	1.536864
N113	N	-0.308127	0.998951	0.835039
N114	N	0.191873	1.498951	1.335039
N115	N	-0.308121	0.998954	0.772588
N116	N	0.191879	1.498954	1.272588
C117	C	-0.303302	1.063374	0.740193
C118	C	0.196698	1.563374	1.240193
N119	N	-0.298476	1.127791	0.772609
N120	N	0.201524	1.627791	1.272609
N121	N	-0.298478	1.127787	0.835067
N122	N	0.201522	1.627787	1.335067
C123	C	-0.303307	1.063368	0.866983
C124	C	0.196693	1.563368	1.366983
C125	C	-0.263042	1.110472	0.636061
C126	C	0.236958	1.610472	1.136061
C127	C	-0.263048	1.110481	0.570317
C128	C	0.236952	1.610481	1.070317
C129	C	-0.343564	1.016294	0.570280
C130	C	0.156436	1.516294	1.070280
C131	C	-0.343562	1.016291	0.636022
C132	C	0.156438	1.516291	1.136022
C133	C	-0.303297	1.063379	0.668909
C134	C	0.196703	1.563379	1.168909
C135	C	-0.303324	1.063380	1.139719
C136	C	0.196676	1.563380	1.639719
C137	C	-0.303309	1.063369	1.069750
C138	C	0.196691	1.563369	1.569750
H139	H	-0.542908	1.148772	0.230266
H140	H	-0.042908	1.648772	0.730266
H141	H	-1.063011	1.149014	0.230368
H142	H	-0.563011	1.649014	0.730368
F143	F	-0.386412	0.966166	0.936114
F144	F	0.113588	1.466166	1.436114
F145	F	-0.220075	0.643120	0.220321
F146	F	0.279925	1.143120	0.720321
H147	H	-0.376464	0.633455	0.376177
H148	H	0.123536	1.133455	0.876177
F149	F	-0.386547	0.484415	0.386239
F150	F	0.113453	0.984415	0.886239
H151	H	-1.063076	0.978097	0.376312
H152	H	-0.563076	1.478097	0.876312
F153	F	-0.670391	1.160608	0.220235
F154	F	-0.170391	1.660608	0.720235
F155	F	-0.670459	0.966148	0.386297
F156	F	-0.170459	1.466148	0.886297
H157	H	-0.230171	0.494064	0.230381
H158	H	0.269829	0.994064	0.730381
H159	H	-0.943748	1.148953	0.230337
H160	H	-0.443748	1.648953	0.730337
F161	F	-0.534751	0.966089	0.386281
F162	F	-0.034751	1.466089	0.886281
H163	H	-0.943806	0.978041	0.376288
H164	H	-0.443806	1.478041	0.876288
H165	H	-0.230266	1.148829	0.543575
H166	H	0.269734	1.648829	1.043575
F167	F	-0.220217	1.160594	1.071901
F168	F	0.279783	1.660594	1.571901
H169	H	-0.230266	1.148806	0.944413
H170	H	0.269734	1.648806	1.444413
F171	F	-0.386409	0.966174	0.670981
F172	F	0.113591	1.466174	1.170981
F173	F	-0.386424	0.966164	1.071822
F174	F	0.113576	1.466164	1.571822
H175	H	-0.230257	1.148814	0.662839
H176	H	0.269743	1.648814	1.162839
F177	F	-0.386410	0.966182	0.535276
F178	F	0.113590	1.466182	1.035276
