data_functionalizedCrystal
_audit_creation_method	'MofGen! by Chris Wilmer'
_symmetry_space_group_name_H-M	'P1'
_symmetry_Int_Tables_number	1
_symmetry_cell_setting	triclinic
loop_
_symmetry_equiv_pos_as_xyz
  x,y,z
_cell_length_a	14.044220
_cell_length_b	13.101018
_cell_length_c	10.654550
_cell_angle_alpha	86.608452
_cell_angle_beta	88.836904
_cell_angle_gamma	93.664297
loop_
_atom_site_label
_atom_site_type_symbol
_atom_site_fract_x
_atom_site_fract_y
_atom_site_fract_z
O1	O	1.264871	0.085105	0.296649
O2	O	0.988831	0.085131	0.285714
O3	O	1.133197	0.085111	0.109080
O4	O	1.120505	0.085125	0.473282
O5	O	1.122827	-0.085318	0.121764
O6	O	0.978461	-0.085298	0.298398
O7	O	1.254501	-0.085324	0.309333
Zn8	Zn	1.114834	-0.112370	0.305879
Zn9	Zn	1.128497	0.112177	0.289167
O10	O	1.110134	-0.085304	0.485966
C11	C	0.948300	-0.000080	0.287269
C12	C	0.842981	-0.000070	0.272993
N13	N	1.105517	-0.265618	0.317284
C14	C	0.650147	-0.000092	0.246896
C15	C	0.593179	-0.000092	0.348144
C16	C	0.485880	-0.000104	0.333623
C17	C	0.757457	-0.000080	0.261415
C18	C	1.150495	-0.525534	0.262230
C19	C	1.092848	-0.474653	0.332803
C20	C	1.099898	-0.358335	0.324166
C21	C	1.143445	-0.641862	0.270866
C22	C	1.295031	-0.000111	0.307777
C23	C	1.400351	-0.000114	0.322053
C24	C	1.127080	-0.000103	0.068531
C25	C	1.124292	-0.000101	-0.071193
N26	N	1.137822	0.265425	0.277753
C27	C	1.209292	-0.000109	-0.142136
C28	C	1.206667	-0.000096	-0.273422
C29	C	1.034033	-0.000072	-0.262809
C30	C	1.036660	-0.000078	-0.131526
C31	C	1.116252	-0.000088	0.526516
C32	C	1.119040	-0.000083	0.666239
H33	H	0.618336	-0.000101	0.149317
H34	H	1.038200	-0.518450	0.399711
H35	H	1.205140	-0.481741	0.195329
H36	H	1.280648	-0.000126	-0.093018
H37	H	1.275884	-0.000100	-0.331179
N38	N	0.939520	-0.000051	-0.327882
H39	H	0.950752	-0.000053	-0.421814
H40	H	0.898442	-0.063228	-0.297919
N41	N	0.944977	-0.000062	-0.054997
H42	H	0.889063	-0.000054	-0.113136
H43	H	0.938461	-0.063242	0.004402
H44	H	0.624993	-0.000083	0.445731
