data_functionalizedCrystal
_audit_creation_method	'MofGen! by Chris Wilmer'
_symmetry_space_group_name_H-M	'P1'
_symmetry_Int_Tables_number	1
_symmetry_cell_setting	triclinic
loop_
_symmetry_equiv_pos_as_xyz
  x,y,z
_cell_length_a	10.654550
_cell_length_b	10.540539
_cell_length_c	9.730223
_cell_angle_alpha	90.000775
_cell_angle_beta	89.996251
_cell_angle_gamma	84.505197
loop_
_atom_site_label
_atom_site_type_symbol
_atom_site_fract_x
_atom_site_fract_y
_atom_site_fract_z
O1	O	1.667897	0.178295	-0.114396
O2	O	1.302424	0.195282	-0.114373
O3	O	1.493499	0.002079	-0.114383
O4	O	1.476822	0.371498	-0.114386
O5	O	1.493496	0.002084	0.114197
O6	O	1.302422	0.195287	0.114207
O7	O	1.667895	0.178300	0.114184
Zn8	Zn	1.485158	0.186794	0.150487
Zn9	Zn	1.485161	0.186788	-0.150677
O10	O	1.476820	0.371503	0.114194
C11	C	1.255625	0.194038	-0.000080
C12	C	1.116180	0.190306	-0.000072
C13	C	1.036734	0.304061	-0.000093
C14	C	0.905712	0.300547	-0.000116
C15	C	0.933595	0.069513	-0.000104
C16	C	1.064614	0.073028	-0.000071
C17	C	1.020636	0.437446	-0.000106
C18	C	0.889614	0.433932	-0.000129
C19	C	1.492247	-0.045221	-0.000096
C20	C	1.488505	-0.186168	-0.000103
C21	C	1.345134	-0.369543	-0.000607
C22	C	1.348927	-0.222926	-0.000093
C23	C	1.555675	-0.247847	0.130423
C24	C	1.550912	-0.394389	0.130533
C25	C	1.553753	-0.394914	-0.129405
C26	C	1.555039	-0.247933	-0.131131
C27	C	1.714694	0.179545	-0.000112
C28	C	1.854139	0.183276	-0.000129
C29	C	1.478072	0.418803	-0.000096
C30	C	1.481813	0.559750	-0.000098
N31	N	1.485165	0.186798	0.356024
N32	N	1.485164	0.186774	-0.356213
C33	C	1.569795	0.101277	0.427945
C34	C	1.569791	0.101261	0.571828
C35	C	1.400525	0.272299	0.571855
C36	C	1.400523	0.272308	0.427975
C37	C	1.667523	0.002533	0.427931
C38	C	1.667520	0.002518	0.571814
H39	H	1.289998	-0.398125	-0.094209
N40	N	1.309244	0.364524	0.649471
H41	H	1.324504	0.454763	0.624443
H42	H	1.220023	0.348951	0.624403
H43	H	1.646046	-0.095040	0.388879
N44	N	1.493918	-0.436683	-0.260453
H45	H	1.541537	-0.406597	-0.342112
H46	H	1.496828	-0.532724	-0.262154
H47	H	0.843956	0.474245	0.098554
N48	N	1.788315	0.043478	0.368788
H49	H	1.800092	0.132708	0.400819
H50	H	1.861807	-0.016911	0.400818
H51	H	1.636975	-0.089689	0.616432
H52	H	1.331600	0.341935	0.369418
H53	H	1.505891	-0.207059	-0.227690
H54	H	1.764039	0.024268	0.610858
H55	H	1.129295	-0.019602	-0.000034
N56	N	0.877976	-0.056974	-0.000093
H57	H	0.782920	-0.041943	-0.000110
H58	H	0.906983	-0.106814	-0.084820
N59	N	1.485156	-0.431730	0.259780
H60	H	1.459529	-0.353029	0.316146
H61	H	1.407692	-0.474789	0.234382
H62	H	1.654570	-0.442176	-0.130289
N63	N	1.059526	0.506559	0.126598
H64	H	0.982379	0.534858	0.183123
H65	H	1.119359	0.447477	0.183055
H66	H	1.056307	0.479916	-0.098793
N67	N	0.834344	0.500498	-0.126843
H68	H	0.904184	0.532729	-0.183378
H69	H	0.789110	0.438586	-0.183287
N70	N	1.278917	-0.166457	-0.124025
H71	H	1.245307	-0.236804	-0.179482
H72	H	1.206447	-0.104398	-0.092737
N73	N	1.272393	-0.409507	0.122700
H74	H	1.184708	-0.363650	0.121591
H75	H	1.266698	-0.504553	0.119416
H76	H	1.295701	-0.181149	0.093636
H77	H	1.651295	-0.442394	0.136449
H78	H	1.658178	-0.225529	0.135270
H79	H	1.509014	-0.205228	0.227563
H80	H	1.656802	-0.223748	-0.139019
