data_functionalizedCrystal
_audit_creation_method	'MofGen! by Chris Wilmer'
_symmetry_space_group_name_H-M	'P1'
_symmetry_Int_Tables_number	1
_symmetry_cell_setting	triclinic
loop_
_symmetry_equiv_pos_as_xyz
  x,y,z
_cell_length_a	12.837943
_cell_length_b	12.811468
_cell_length_c	11.892083
_cell_angle_alpha	88.491554
_cell_angle_beta	94.313776
_cell_angle_gamma	90.586694
loop_
_atom_site_label
_atom_site_type_symbol
_atom_site_fract_x
_atom_site_fract_y
_atom_site_fract_z
O1	O	-1.385154	0.265184	-0.121157
O2	O	-1.083194	0.251788	-0.119791
O3	O	-1.240676	0.107450	-0.104990
O4	O	-1.227672	0.409522	-0.135958
O5	O	-1.227535	0.119455	0.081787
O6	O	-1.070053	0.263793	0.066986
O7	O	-1.372013	0.277190	0.065620
Zn8	Zn	-1.218947	0.272397	0.095958
Zn9	Zn	-1.236260	0.256580	-0.150129
O10	O	-1.214531	0.421528	0.050818
C11	C	-1.037950	0.253265	-0.025940
C12	C	-0.922717	0.239768	-0.024559
C13	C	-1.232973	0.074520	-0.007612
C14	C	-1.229585	-0.041488	0.004273
C15	C	-1.417257	0.275712	-0.028234
C16	C	-1.532490	0.289209	-0.029622
N17	N	-1.207139	0.283193	0.263905
C18	C	-0.683636	0.402028	-0.041178
C19	C	-0.575364	0.389351	-0.039880
C20	C	-0.597897	0.201738	-0.020658
C21	C	-0.706170	0.214415	-0.021956
C22	C	-0.749035	0.314563	-0.032218
C23	C	-0.857310	0.327239	-0.033523
C24	C	-0.879841	0.139627	-0.014293
C25	C	-0.771569	0.126950	-0.012995
C26	C	-1.222234	0.454457	-0.046561
C27	C	-1.225622	0.570465	-0.058455
C28	C	-1.217641	0.801549	0.122842
C29	C	-1.220824	0.910549	0.111672
C30	C	-1.235162	0.897467	-0.091963
C31	C	-1.231979	0.788467	-0.080793
C32	C	-1.223221	0.740512	0.026613
C33	C	-1.220046	0.631510	0.037782
C34	C	-1.234376	0.618430	-0.165852
C35	C	-1.237559	0.727430	-0.177022
N36	N	-1.248076	0.245777	-0.318075
C37	C	-1.125035	0.358425	0.433728
C38	C	-1.133270	0.350861	0.316162
C39	C	-1.272775	0.223081	0.329224
C40	C	-1.264540	0.230645	0.446790
C41	C	-1.190669	0.298320	0.499038
C42	C	-1.182440	0.305889	0.616606
C43	C	-1.321939	0.178104	0.629666
C44	C	-1.330174	0.170540	0.512100
H45	H	-0.892209	0.408784	-0.041877
H46	H	-0.736652	0.045413	-0.004628
C47	C	-0.550725	0.091584	-0.009359
N48	N	-0.515194	0.008615	-0.000847
C49	C	-1.214689	0.977686	0.217532
N50	N	-1.210069	1.028253	0.297271
H51	H	-1.064893	0.413536	0.476268
H52	H	-0.522118	0.460575	-0.047173
C53	C	-1.101178	0.380329	0.674077
N54	N	-1.039965	0.436396	0.717361
C55	C	-1.411414	0.096085	0.454615
N56	N	-1.472602	0.040001	0.411319
H57	H	-1.375386	0.129166	0.682855
H58	H	-1.244687	0.766491	-0.264469
C59	C	-1.244802	0.950237	-0.210100
N60	N	-1.252068	0.989984	-0.299082
H61	H	-0.718537	0.483572	-0.049535
C62	C	-0.951790	0.043409	-0.004439
N63	N	-1.005983	-0.029061	0.002979
C64	C	-1.061098	0.417015	0.244321
N65	N	-1.006745	0.466855	0.190210
H66	H	-1.238922	0.568722	-0.244209
H67	H	-1.210516	0.762503	0.210296
C68	C	-1.210406	0.578761	0.155929
N69	N	-1.203141	0.539034	0.244921
C70	C	-1.353987	0.148601	0.271734
N71	N	-1.415145	0.092488	0.228434
