data_functionalizedCrystal
_audit_creation_method	'MofGen! by Chris Wilmer'
_symmetry_space_group_name_H-M	'P1'
_symmetry_Int_Tables_number	1
_symmetry_cell_setting	triclinic
loop_
_symmetry_equiv_pos_as_xyz
  x,y,z
_cell_length_a	15.944551
_cell_length_b	10.540510
_cell_length_c	9.616153
_cell_angle_alpha	90.002441
_cell_angle_beta	90.007460
_cell_angle_gamma	84.006024
loop_
_atom_site_label
_atom_site_type_symbol
_atom_site_fract_x
_atom_site_fract_y
_atom_site_fract_z
O1	O	0.118256	1.684294	0.115658
O2	O	0.129436	1.314724	0.115659
O3	O	0.001631	1.509602	0.115646
O4	O	0.246061	1.489417	0.115671
O5	O	0.001622	1.509594	-0.115646
O6	O	0.129427	1.314717	-0.115633
O7	O	0.118247	1.684287	-0.115634
Zn8	Zn	0.123836	1.499501	-0.152356
Zn9	Zn	0.123847	1.499511	0.152381
O10	O	0.246052	1.489410	-0.115621
C11	C	0.128598	1.267428	0.000013
C12	C	0.126106	1.126512	0.000013
C13	C	0.214891	0.907848	0.000554
C14	C	0.217550	1.054407	0.000024
C15	C	0.079290	1.082386	-0.132067
C16	C	0.077279	0.935652	-0.132169
C17	C	0.075385	0.935880	0.130852
C18	C	0.079722	1.082163	0.132590
C19	C	-0.029673	1.508760	-0.000000
C20	C	-0.122934	1.506248	-0.000001
C21	C	-0.338537	1.379449	0.000019
C22	C	-0.399212	1.438326	-0.114022
C23	C	-0.293686	1.501703	0.000010
C24	C	-0.399187	1.438363	0.114013
C25	C	-0.458625	1.497304	0.000026
C26	C	-0.353133	1.560614	-0.114125
C27	C	-0.353101	1.560633	0.114012
C28	C	-0.413758	1.619599	-0.000056
C29	C	-0.198669	1.504234	-0.000001
C30	C	-0.553641	1.494783	0.000027
C31	C	0.277356	1.490251	0.000028
C32	C	0.370617	1.492764	0.000038
C33	C	0.119085	1.731583	0.000015
C34	C	0.121577	1.872499	0.000024
N35	N	0.123827	1.499503	-0.360330
C36	C	0.055696	1.604133	-0.580664
C37	C	0.055436	1.603856	-0.419497
C38	C	0.103900	1.367068	-0.418863
C39	C	0.103422	1.367691	-0.580081
C40	C	0.212124	1.526144	-0.580195
C41	C	0.211547	1.529147	-0.418967
N42	N	0.123849	1.499518	0.360355
H43	H	0.250308	0.863856	-0.093625
N44	N	-0.008712	1.148354	0.143150
H45	H	-0.036913	1.117981	0.229234
H46	H	-0.006335	1.243581	0.148981
H47	H	-0.419564	1.386642	0.210432
N48	N	0.018112	1.336631	-0.629933
H49	H	-0.018830	1.322664	-0.547181
H50	H	-0.009050	1.409807	-0.687582
N51	N	-0.326273	1.629023	-0.242000
H52	H	-0.354359	1.719460	-0.242409
H53	H	-0.263016	1.630164	-0.241181
H54	H	0.113785	1.110320	0.230302
H55	H	-0.419629	1.386615	-0.210434
H56	H	0.226650	1.626571	-0.380711
N57	N	-0.015557	0.907778	0.132039
H58	H	-0.053671	0.990518	0.128947
H59	H	-0.026741	0.854228	0.048283
H60	H	0.250520	0.865413	0.095277
H61	H	0.151133	1.287505	-0.619099
H62	H	0.254389	1.082306	-0.094808
H63	H	0.262851	1.449857	-0.618344
N64	N	-0.456892	1.754129	-0.000128
H65	H	-0.440152	1.800125	-0.086302
H66	H	-0.520036	1.751603	0.000743
N67	N	0.071304	1.734254	-0.367059
H68	H	0.078532	1.792433	-0.448673
H69	H	0.021819	1.770706	-0.308875
N70	N	0.019552	1.335204	-0.365431
H71	H	0.020865	1.331323	-0.260499
H72	H	-0.025974	1.403152	-0.396415
H73	H	0.067499	1.702910	-0.619423
N74	N	-0.030567	1.581941	-0.634352
H75	H	-0.025691	1.504417	-0.696713
H76	H	-0.068769	1.567616	-0.553342
N77	N	-0.295208	1.245036	-0.000114
H78	H	-0.311861	1.199017	-0.086340
H79	H	-0.232084	1.247780	0.000822
H80	H	-0.332662	1.612300	0.210429
N81	N	-0.009880	1.146376	-0.138610
H82	H	-0.041807	1.123459	-0.053059
H83	H	-0.008727	1.241916	-0.142877
N84	N	0.167843	1.261451	-0.368094
H85	H	0.210446	1.298525	-0.306516
H86	H	0.138184	1.197548	-0.313455
N87	N	0.113666	0.879149	0.263468
H88	H	0.161345	0.811777	0.240078
H89	H	0.136041	0.948516	0.320780
N90	N	-0.031321	1.581311	-0.368440
H91	H	-0.046221	1.496320	-0.403966
H92	H	-0.031799	1.581103	-0.263416
N93	N	0.237243	1.651330	-0.634031
H94	H	0.193814	1.722967	-0.604691
H95	H	0.294066	1.666408	-0.594579
N96	N	0.266061	1.092637	0.125440
H97	H	0.285909	1.014214	0.181566
H98	H	0.316406	1.135777	0.093798
N99	N	0.119646	0.881787	-0.262937
H100	H	0.139452	0.953395	-0.319972
H101	H	0.169597	0.819272	-0.237223
H102	H	0.008884	0.913588	-0.138176
N103	N	0.281956	1.434758	-0.365627
H104	H	0.257881	1.371155	-0.302417
H105	H	0.311429	1.388411	-0.446741
H106	H	0.111795	1.112794	-0.230355
