data_functionalizedCrystal
_audit_creation_method	'MofGen! by Chris Wilmer'
_symmetry_space_group_name_H-M	'P1'
_symmetry_Int_Tables_number	1
_symmetry_cell_setting	triclinic
loop_
_symmetry_equiv_pos_as_xyz
  x,y,z
_cell_length_a	19.077105
_cell_length_b	19.121063
_cell_length_c	19.076919
_cell_angle_alpha	94.606347
_cell_angle_beta	90.076224
_cell_angle_gamma	90.263052
loop_
_atom_site_label
_atom_site_type_symbol
_atom_site_fract_x
_atom_site_fract_y
_atom_site_fract_z
Zn1	Zn	1.043169	-0.339734	-0.454309
Zn2	Zn	1.543169	0.160266	0.045691
Zn3	Zn	1.042790	-0.452646	-0.341419
Zn4	Zn	1.542790	0.047354	0.158581
Zn5	Zn	0.930805	-0.330327	-0.331718
Zn6	Zn	1.430805	0.169673	0.168282
Zn7	Zn	0.920631	-0.452222	-0.454155
Zn8	Zn	1.420631	0.047778	0.045845
O9	O	0.984349	-0.393732	-0.395400
O10	O	1.484349	0.106268	0.104600
O11	O	1.141268	-0.358826	-0.443459
O12	O	1.641268	0.141174	0.056541
O13	O	1.032035	-0.432660	-0.241647
O14	O	1.532035	0.067340	0.258353
O15	O	0.950127	-0.233307	-0.343985
O16	O	1.450127	0.266693	0.156015
O17	O	1.140989	-0.441782	-0.360519
O18	O	1.640989	0.058218	0.139481
O19	O	1.032681	-0.240219	-0.434052
O20	O	1.532681	0.259781	0.065948
O21	O	0.949760	-0.342793	-0.234520
O22	O	1.449760	0.157207	0.265480
O23	O	0.831307	-0.342382	-0.343835
O24	O	1.331307	0.157618	0.156165
O25	O	0.932786	-0.441060	-0.552660
O26	O	1.432786	0.058940	-0.052660
O27	O	0.823831	-0.431938	-0.433788
O28	O	1.323831	0.068062	0.066212
O29	O	1.022815	-0.358416	-0.552774
O30	O	1.522815	0.141584	-0.052774
O31	O	1.022169	-0.550857	-0.360369
O32	O	1.522169	-0.050857	0.139631
O33	O	0.932419	-0.550546	-0.443195
O34	O	1.432419	-0.050546	0.056805
C35	C	0.802120	-0.386094	-0.387742
C36	C	1.302120	0.113906	0.112258
C37	C	0.724160	-0.382844	-0.384484
C38	C	1.224160	0.117156	0.115516
C39	C	0.976167	-0.576182	-0.402834
C40	C	1.476167	-0.076182	0.097166
C41	C	0.972730	-0.654239	-0.406041
C42	C	1.472730	-0.154239	0.093959
C43	C	0.683661	-0.428009	-0.429719
C44	C	1.183661	0.071991	0.070281
C45	C	0.610410	-0.424946	-0.426660
C46	C	1.110410	0.075054	0.073340
C47	C	0.577659	-0.376721	-0.378362
C48	C	1.077659	0.123279	0.121638
C49	C	0.618164	-0.331551	-0.333125
C50	C	1.118164	0.168449	0.166875
C51	C	0.691414	-0.334611	-0.336188
C52	C	1.191414	0.165389	0.163812
C53	C	0.359002	-0.362559	-0.364190
C54	C	0.859002	0.137441	0.135810
C55	C	0.285746	-0.359503	-0.361130
C56	C	0.785746	0.140497	0.138870
C57	C	0.277998	-0.452898	-0.454666
C58	C	0.777998	0.047102	0.045334
C59	C	0.351249	-0.455957	-0.457722
C60	C	0.851249	0.044043	0.042278
C61	C	0.391747	-0.410784	-0.412487
C62	C	0.891747	0.089216	0.087513
N63	N	0.502785	-0.373590	-0.375233
N64	N	1.002785	0.126410	0.124767
N65	N	0.466620	-0.413912	-0.415620
N66	N	0.966620	0.086088	0.084380
C67	C	1.017877	-0.691052	-0.364463
C68	C	1.517877	-0.191052	0.135537
C69	C	1.014648	-0.764395	-0.367483
C70	C	1.514648	-0.264395	0.132517
C71	C	0.966269	-0.800923	-0.412078
C72	C	1.466269	-0.300923	0.087922
C73	C	0.921120	-0.764105	-0.453660
C74	C	1.421120	-0.264105	0.046340
C75	C	0.924353	-0.690764	-0.450644
C76	C	1.424353	-0.190764	0.049356
C77	C	0.954173	-1.022359	-0.423346
C78	C	1.454173	-0.522359	0.076654
C79	C	0.950942	-1.095705	-0.426358
C80	C	1.450942	-0.595705	0.073642
C81	C	1.044471	-1.095990	-0.340181
C82	C	1.544471	-0.595990	0.159819
C83	C	1.047697	-1.022647	-0.337165
C84	C	1.547697	-0.522647	0.162835
C85	C	1.002551	-0.985836	-0.378750
C86	C	1.502551	-0.485836	0.121250
C87	C	0.962966	-0.875891	-0.415164
C88	C	1.462966	-0.375891	0.084836
C89	C	1.005857	-0.910869	-0.375667
C90	C	1.505857	-0.410869	0.124333
C91	C	1.167289	-0.401401	-0.403088
C92	C	1.667289	0.098599	0.096912
C93	C	1.245247	-0.404669	-0.406365
C94	C	1.745247	0.095331	0.093635
C95	C	0.976708	-0.400740	-0.578967
C96	C	1.476708	0.099260	-0.078967
C97	C	0.973452	-0.403726	-0.657192
C98	C	1.473452	0.096274	-0.157192
C99	C	0.992581	-0.210571	-0.387953
C100	C	1.492581	0.289429	0.112047
C101	C	0.996089	-0.132518	-0.384780
C102	C	1.496089	0.367482	0.115220
C103	C	1.018793	-0.362103	-0.694003
C104	C	1.518793	0.137897	-0.194003
C105	C	1.015725	-0.364906	-0.767503
C106	C	1.515725	0.135094	-0.267503
C107	C	0.967319	-0.409336	-0.804192
C108	C	1.467319	0.090664	-0.304192
C109	C	0.921973	-0.450962	-0.767376
C110	C	1.421973	0.049038	-0.267376
C111	C	0.925038	-0.448154	-0.693877
C112	C	1.425038	0.051846	-0.193877
C113	C	0.953123	-0.422342	-1.024005
C114	C	1.453123	0.077658	-0.524005
C115	C	0.950063	-0.425148	-1.097510
C116	C	1.450063	0.074852	-0.597510
C117	C	1.043814	-0.339090	-1.097632
C118	C	1.543814	0.160910	-0.597632
C119	C	1.046877	-0.336290	-1.024131
C120	C	1.546877	0.163710	-0.524131
C121	C	1.001529	-0.377913	-0.987321
C122	C	1.501529	0.122087	-0.487321
N123	N	0.964183	-0.412204	-0.879321
N124	N	1.464183	0.087796	-0.379321
N125	N	1.004662	-0.375041	-0.912193
N126	N	1.504662	0.124959	-0.412193
C127	C	0.992003	-0.386702	-0.212547
C128	C	1.492003	0.113298	0.287453
C129	C	0.995403	-0.383524	-0.134320
C130	C	1.495403	0.116476	0.365680
H131	H	0.710321	-0.467281	-0.469046
H132	H	1.210321	0.032719	0.030954
N133	N	1.060755	-0.801992	-0.324997
N134	N	1.560755	-0.301992	0.175003
N135	N	1.036178	-0.840211	-0.280778
N136	N	1.536178	-0.340211	0.219222
H137	H	1.068744	-0.866762	-0.250769
H138	H	1.568744	-0.366762	0.249231
N139	N	1.068238	-0.316707	-0.656540
N140	N	1.568238	0.183293	-0.156540
N141	N	1.066152	-0.252029	-0.661923
N142	N	1.566152	0.247971	-0.161923
H143	H	1.101073	-0.219964	-0.635467
H144	H	1.601073	0.280036	-0.135467
H145	H	0.923575	-0.905641	-0.451472
H146	H	1.423575	-0.405641	0.048528
H147	H	1.045250	-0.881126	-0.339361
H148	H	1.545250	-0.381126	0.160639
N149	N	1.097107	-0.985351	-0.291591
N150	N	1.597107	-0.485351	0.208409
N151	N	1.094831	-0.990921	-0.226795
N152	N	1.594831	-0.490921	0.273205
H153	H	1.129725	-0.964586	-0.194600
H154	H	1.629725	-0.464586	0.305400
H155	H	0.881732	-0.793853	-0.489974
H156	H	1.381732	-0.293853	0.010026
N157	N	0.901536	-1.133031	-0.471920
N158	N	1.401536	-0.633031	0.028080
N159	N	0.898660	-1.198514	-0.474605
N160	N	1.398660	-0.698514	0.025395
H161	H	0.863769	-1.224877	-0.506782
H162	H	1.363769	-0.724877	-0.006782
H163	H	0.910642	-0.461330	-1.127379
H164	H	1.410642	0.038670	-0.627379
H165	H	1.081228	-1.125969	-0.306326
H166	H	1.581228	-0.625969	0.193674
N167	N	0.569052	-0.471082	-0.472876
N168	N	1.069052	0.028918	0.027124
N169	N	0.598302	-0.514138	-0.515995
N170	N	1.098302	-0.014138	-0.015995
H171	H	0.569093	-0.546723	-0.548639
H172	H	1.069093	-0.046723	-0.048639
H173	H	1.052648	-0.331013	-0.797471
H174	H	1.552648	0.168987	-0.297471
N175	N	0.878236	-0.653169	-0.493124
N176	N	1.378236	-0.153169	0.006876
N177	N	0.835045	-0.685790	-0.532940
N178	N	1.335045	-0.185790	-0.032940
H179	H	0.802475	-0.659241	-0.562946
H180	H	1.302475	-0.159241	-0.062946
H181	H	0.916207	-0.456245	-0.994044
H182	H	1.416207	0.043755	-0.494044
N183	N	1.096333	-0.290908	-0.986668
N184	N	1.596333	0.209092	-0.486668
N185	N	1.136816	-0.253749	-1.019544
N186	N	1.636816	0.246251	-0.519544
H187	H	1.171749	-0.221700	-0.993087
H188	H	1.671749	0.278300	-0.493087
H189	H	1.080733	-0.305203	-1.127610
H190	H	1.580733	0.194797	-0.627610
H191	H	0.882558	-0.487135	-0.797254
H192	H	1.382558	0.012865	-0.297254
H193	H	0.888110	-0.482041	-0.663906
H194	H	1.388110	0.017959	-0.163906
H195	H	0.377909	-0.495228	-0.497049
H196	H	0.877909	0.004772	0.002951
H197	H	0.259084	-0.320225	-0.321804
H198	H	0.759084	0.179775	0.178196
N199	N	0.236630	-0.499043	-0.500863
N200	N	0.736630	0.000957	-0.000863
N201	N	0.194783	-0.541100	-0.476142
N202	N	0.694783	-0.041100	0.023858
H203	H	0.165567	-0.573692	-0.508772
H204	H	0.665567	-0.073692	-0.008772
N205	N	0.400353	-0.316417	-0.317977
N206	N	0.900353	0.183583	0.182023
N207	N	0.371100	-0.273367	-0.274854
N208	N	0.871100	0.226633	0.225146
H209	H	0.400306	-0.240779	-0.242211
H210	H	0.900306	0.259221	0.257789
H211	H	0.724388	-0.297829	-0.299356
H212	H	1.224388	0.202171	0.200644
N213	N	0.584701	-0.282288	-0.283799
N214	N	1.084701	0.217712	0.216201
N215	N	0.519300	-0.279562	-0.281069
N216	N	1.019300	0.220438	0.218931
H217	H	0.495667	-0.244770	-0.246231
H218	H	0.995667	0.255230	0.253769
N219	N	1.067294	-0.653753	-0.318900
N220	N	1.567294	-0.153753	0.181100
N221	N	1.107599	-0.686634	-0.281781
N222	N	1.607599	-0.186634	0.218219
H223	H	1.142503	-0.660294	-0.249601
H224	H	1.642503	-0.160294	0.250399
H225	H	0.917412	-0.992393	-0.457205
H226	H	1.417412	-0.492393	0.042795
