data_functionalizedCrystal
_audit_creation_method	'MofGen! by Chris Wilmer'
_symmetry_space_group_name_H-M	'P1'
_symmetry_Int_Tables_number	1
_symmetry_cell_setting	triclinic
loop_
_symmetry_equiv_pos_as_xyz
  x,y,z
_cell_length_a	13.635800
_cell_length_b	9.170285
_cell_length_c	19.551833
_cell_angle_alpha	93.546180
_cell_angle_beta	78.336523
_cell_angle_gamma	112.460155
loop_
_atom_site_label
_atom_site_type_symbol
_atom_site_fract_x
_atom_site_fract_y
_atom_site_fract_z
V1	V	-2.022263	-0.217366	0.204457
O2	O	-1.996352	0.008763	0.214251
O3	O	-2.016713	-0.429382	0.189895
O4	O	-1.993381	-0.214760	0.299633
O5	O	-2.019846	-0.207344	0.103754
V6	V	-2.262267	-0.190231	0.194011
O7	O	-2.156747	-0.276888	0.227370
O8	O	-2.352881	-0.130708	0.171097
O9	O	-2.156213	0.021785	0.208572
O10	O	-2.346876	-0.416360	0.184216
O11	O	-2.323382	-0.200252	0.294714
O12	O	-2.179546	-0.192836	0.098835
V13	V	-1.522263	-0.217366	0.204457
O14	O	-1.496352	0.008763	0.214251
O15	O	-1.516713	-0.429382	0.189895
O16	O	-1.493381	-0.214760	0.299633
O17	O	-1.519846	-0.207344	0.103754
V18	V	-1.762267	-0.190231	0.194011
O19	O	-1.656747	-0.276888	0.227370
O20	O	-1.852881	-0.130708	0.171097
O21	O	-1.656213	0.021785	0.208572
O22	O	-1.846876	-0.416360	0.184216
O23	O	-1.823382	-0.200252	0.294714
O24	O	-1.679546	-0.192836	0.098835
C25	C	-1.943902	-0.481044	0.183273
C26	C	-1.979977	-0.654375	0.172002
C27	C	-1.914139	-0.207271	0.323254
C28	C	-1.931290	-0.206543	0.400974
C29	C	-2.060696	0.073439	0.215192
C30	C	-2.014240	0.246768	0.226468
C31	C	-2.090459	-0.200331	0.075210
C32	C	-2.062927	-0.201051	-0.002511
C33	C	-1.443902	-0.481044	0.183273
C34	C	-1.479977	-0.654375	0.172002
C35	C	-1.414139	-0.207271	0.323254
C36	C	-1.431290	-0.206543	0.400974
C37	C	-2.030922	-0.214028	0.440560
C38	C	-2.047038	-0.213345	0.513586
C39	C	-1.963522	-0.205208	0.547025
C40	C	-1.863873	-0.197713	0.507429
C41	C	-1.847757	-0.198381	0.434404
C42	C	-1.939578	-0.289988	0.661109
C43	C	-1.955700	-0.289330	0.734133
C44	C	-2.013223	-0.203141	0.772259
C45	C	-2.054645	-0.117632	0.737351
C46	C	-2.038529	-0.118299	0.664326
C47	C	-1.980986	-0.204482	0.626208
C48	C	-2.130336	-0.209884	0.891029
C49	C	-2.146446	-0.209190	0.964056
C50	C	-1.963281	-0.193574	0.957898
C51	C	-1.947171	-0.194252	0.884871
C52	C	-2.030704	-0.202414	0.851441
C53	C	-1.560696	0.073439	0.215192
C54	C	-1.514240	0.246768	0.226468
C55	C	-1.590459	-0.200331	0.075210
C56	C	-1.562927	-0.201051	-0.002511
C57	C	-1.588521	-0.743749	0.169708
C58	C	-1.622435	-0.906617	0.159128
C59	C	-1.547800	-0.980105	0.150837
C60	C	-1.439247	-0.890719	0.153133
C61	C	-1.405337	-0.727856	0.163718
C62	C	-1.530926	-0.214002	0.440553
C63	C	-1.547051	-0.213298	0.513580
C64	C	-1.463540	-0.205147	0.547026
C65	C	-1.363894	-0.197682	0.507442
C66	C	-1.347769	-0.198375	0.434416
C67	C	-1.578190	0.336142	0.228763
C68	C	-1.534548	0.499008	0.239347
C69	C	-1.426959	0.572496	0.247639
C70	C	-1.363005	0.483111	0.245341
C71	C	-1.406645	0.320250	0.234753
C72	C	-1.464205	-0.209185	-0.035938
C73	C	-1.438316	-0.209842	-0.108965
C74	C	-1.511154	-0.202377	-0.148562
C75	C	-1.609883	-0.194237	-0.115130
C76	C	-1.635767	-0.193568	-0.042105
H77	H	-2.015944	-0.705256	0.281705
N78	N	-1.483240	-0.203118	-0.227325
H79	H	-1.482184	-0.103064	-0.246925
H80	H	-1.409660	-0.209472	-0.242432
N81	N	-1.877535	-0.382963	0.619996
H82	H	-1.925440	-0.464904	0.591579
H83	H	-1.811850	-0.309121	0.587714
N84	N	-1.288255	-0.631467	0.166175
H85	H	-1.278083	-0.517139	0.174136
H86	H	-1.267182	-0.671926	0.205577
N87	N	-1.740290	-0.190320	0.391709
H88	H	-1.751405	-0.287408	0.362068
H89	H	-1.707690	-0.093035	0.360521
N90	N	-1.240305	-0.190364	0.391734
H91	H	-1.242749	-0.192043	0.340396
H92	H	-1.181243	-0.089679	0.402360
H93	H	-1.669180	-0.188154	-0.147381
N94	N	-2.154504	-0.221416	0.556295
H95	H	-2.204975	-0.226686	0.524036
H96	H	-2.187055	-0.318641	0.587519
H97	H	-1.586639	0.571763	0.241217
N98	N	-1.977748	-0.717915	0.098828
H99	H	-2.004744	-0.836892	0.100891
H100	H	-2.025783	-0.684974	0.075387
N101	N	-2.121011	-0.222818	0.404503
H102	H	-2.186574	-0.227451	0.440666
H103	H	-2.096428	-0.126271	0.373548
H104	H	-1.895277	-0.186935	0.985122
N105	N	-1.246966	0.562382	0.254289
H106	H	-1.229038	0.679112	0.261349
H107	H	-1.236768	0.514977	0.296314
H108	H	-2.072254	-0.048671	0.635908
N109	N	-1.621008	-0.222798	0.404488
H110	H	-1.686566	-0.227409	0.440650
H111	H	-1.596420	-0.126263	0.373524
H112	H	-2.101488	-0.047453	0.768392
H113	H	-1.866044	-0.188173	0.852640
N114	N	-1.669031	-0.664507	0.178660
H115	H	-1.646060	-0.581826	0.140626
H116	H	-1.742908	-0.745959	0.175623
H117	H	-1.716160	-0.186954	-0.014894
N118	N	-1.385637	-0.217248	0.006762
H119	H	-1.319172	-0.222496	-0.025505
H120	H	-1.364138	-0.120151	0.036402
H121	H	-1.354564	0.247491	0.232891
N122	N	-1.654531	-0.221350	0.556258
H123	H	-1.713639	-0.322048	0.545688
H124	H	-1.651990	-0.219598	0.607581
N125	N	-2.220423	-0.218681	0.854965
H126	H	-2.285985	-0.223306	0.891127
H127	H	-2.195840	-0.122144	0.824004
N128	N	-2.253912	-0.217241	1.006749
H129	H	-2.313028	-0.317932	0.996182
H130	H	-2.251354	-0.215501	1.058069
H131	H	-1.921978	-0.358967	0.762550
N132	N	-1.773792	-0.188971	0.543482
H133	H	-1.709061	-0.088521	0.528638
H134	H	-1.799206	-0.189764	0.595742
N135	N	-1.739515	-1.003005	0.156651
H136	H	-1.781640	-0.931725	0.163502
H137	H	-1.744570	-1.055464	0.109827
N138	N	-1.694374	0.256796	0.220129
H139	H	-1.712379	0.140021	0.213178
H140	H	-1.743484	0.273502	0.263366
H141	H	-1.575427	-1.112719	0.142218
N142	N	-1.358750	-0.969984	0.144171
H143	H	-1.396711	-1.086714	0.137109
H144	H	-1.299841	-0.922569	0.102142
H145	H	-1.476685	-0.204585	0.606489
N146	N	-1.273827	-0.188899	0.543519
H147	H	-1.254552	-0.091114	0.572885
H148	H	-1.298402	-0.285498	0.574439
N149	N	-1.331833	-0.218641	-0.145007
H150	H	-1.345768	-0.316421	-0.174376
H151	H	-1.288807	-0.122039	-0.175921
H152	H	-1.391438	0.705110	0.256260
