data_functionalizedCrystal
_audit_creation_method	'MofGen! by Chris Wilmer'
_symmetry_space_group_name_H-M	'P1'
_symmetry_Int_Tables_number	1
_symmetry_cell_setting	triclinic
loop_
_symmetry_equiv_pos_as_xyz
  x,y,z
_cell_length_a	14.971486
_cell_length_b	17.019294
_cell_length_c	14.048226
_cell_angle_alpha	86.114596
_cell_angle_beta	89.998499
_cell_angle_gamma	83.504267
loop_
_atom_site_label
_atom_site_type_symbol
_atom_site_fract_x
_atom_site_fract_y
_atom_site_fract_z
O1	O	1.186691	0.102801	-0.087476
O2	O	1.520025	0.436134	0.245857
O3	O	1.853358	0.769467	0.579190
O4	O	0.926261	0.115111	-0.088511
O5	O	1.259594	0.448445	0.244822
O6	O	1.592927	0.781778	0.578155
O7	O	1.063741	-0.005870	-0.078576
O8	O	1.397074	0.327463	0.254757
O9	O	1.730408	0.660797	0.588091
O10	O	1.049211	0.223782	-0.097411
O11	O	1.382545	0.557116	0.235922
O12	O	1.715878	0.890449	0.569255
O13	O	1.063724	-0.005877	0.079746
O14	O	1.397058	0.327456	0.413079
O15	O	1.730391	0.660789	0.746413
O16	O	0.926244	0.115104	0.069811
O17	O	1.259578	0.448437	0.403144
O18	O	1.592911	0.781771	0.736477
O19	O	1.186675	0.102794	0.070846
O20	O	1.520008	0.436127	0.404179
O21	O	1.853342	0.769460	0.737512
Zn22	Zn	1.056457	0.108948	0.095465
Zn23	Zn	1.389790	0.442281	0.428799
Zn24	Zn	1.723124	0.775614	0.762132
Zn25	Zn	1.056479	0.108957	-0.113131
Zn26	Zn	1.389812	0.442290	0.220203
Zn27	Zn	1.723145	0.775624	0.553536
O28	O	1.049195	0.223775	0.060910
O29	O	1.382528	0.557108	0.394244
O30	O	1.715861	0.890442	0.727577
C31	C	0.892929	0.114557	-0.009308
C32	C	1.226262	0.447891	0.324025
C33	C	1.559596	0.781224	0.657358
C34	C	0.793636	0.112907	-0.009183
C35	C	1.126970	0.446241	0.324150
C36	C	1.460303	0.779574	0.657484
C37	C	0.736234	0.183981	-0.015011
C38	C	1.069568	0.517314	0.318323
C39	C	1.402901	0.850647	0.651656
C40	C	0.642939	0.182426	-0.014869
C41	C	0.976272	0.515759	0.318464
C42	C	1.309605	0.849092	0.651798
C43	C	0.607047	0.109797	-0.008906
C44	C	0.940380	0.443130	0.324427
C45	C	1.273713	0.776463	0.657760
C46	C	0.664456	0.038718	-0.003075
C47	C	0.997789	0.372051	0.330258
C48	C	1.331123	0.705385	0.663592
C49	C	0.757750	0.040274	-0.003210
C50	C	1.091083	0.373607	0.330123
C51	C	1.424417	0.706940	0.663457
C52	C	0.470002	0.035480	-0.002796
C53	C	0.803335	0.368814	0.330537
C54	C	1.136668	0.702147	0.663870
C55	C	0.376702	0.033924	-0.002663
C56	C	0.710035	0.367258	0.330670
C57	C	1.043368	0.700591	0.664004
C58	C	0.355190	0.177632	-0.014455
C59	C	0.688524	0.510966	0.318878
C60	C	1.021857	0.844299	0.652211
C61	C	0.448484	0.179188	-0.014590
C62	C	0.781817	0.512522	0.318743
C63	C	1.115151	0.845855	0.652076
C64	C	0.505887	0.108109	-0.008761
C65	C	0.839220	0.441442	0.324572
C66	C	1.172554	0.774776	0.657906
C67	C	1.063181	-0.035263	0.002993
C68	C	1.396515	0.298070	0.336326
C69	C	1.729848	0.631403	0.669660
C70	C	1.061528	-0.122836	0.010169
C71	C	1.394862	0.210498	0.343502
C72	C	1.728195	0.543831	0.676835
C73	C	1.060763	-0.163969	-0.072761
C74	C	1.394096	0.169364	0.260573
C75	C	1.727430	0.502698	0.593906
C76	C	1.059204	-0.246252	-0.066016
C77	C	1.392537	0.087082	0.267318
C78	C	1.725871	0.420415	0.600651
C79	C	1.058417	-0.287400	0.023660
C80	C	1.391750	0.045933	0.356994
C81	C	1.725084	0.379266	0.690327
C82	C	1.059180	-0.246261	0.106596
C83	C	1.392513	0.087072	0.439929
C84	C	1.725847	0.420406	0.773263
C85	C	1.060732	-0.163979	0.099850
C86	C	1.394066	0.169354	0.433183
C87	C	1.727399	0.502688	0.766516
C88	C	1.053723	-0.535838	0.048347
C89	C	1.387056	-0.202505	0.381680
C90	C	1.720389	0.130828	0.715013
C91	C	1.052173	-0.618126	0.055087
C92	C	1.385506	-0.284793	0.388420
C93	C	1.718840	0.048540	0.721753
C94	C	1.052195	-0.618111	-0.117525
C95	C	1.385529	-0.284778	0.215808
C96	C	1.718862	0.048556	0.549141
C97	C	1.053753	-0.535828	-0.124264
C98	C	1.387087	-0.202495	0.209070
C99	C	1.720420	0.130839	0.542403
C100	C	1.054511	-0.494695	-0.041328
C101	C	1.387845	-0.161362	0.292005
C102	C	1.721178	0.171971	0.625339
C103	C	1.056826	-0.371507	0.030557
C104	C	1.390160	-0.038173	0.363890
C105	C	1.723493	0.295160	0.697224
C106	C	1.056096	-0.410590	-0.048226
C107	C	1.389429	-0.077256	0.285107
C108	C	1.722762	0.256077	0.618441
C109	C	1.220007	0.103348	-0.008359
C110	C	1.553340	0.436681	0.324974
C111	C	1.886673	0.770014	0.658307
C112	C	1.319300	0.104998	-0.008491
C113	C	1.652633	0.438331	0.324842
C114	C	1.985966	0.771664	0.658176
C115	C	1.049754	0.253168	-0.020661
C116	C	1.383088	0.586502	0.312673
C117	C	1.716421	0.919835	0.646006
C118	C	1.051407	0.340741	-0.027843
C119	C	1.384741	0.674074	0.305491
C120	C	1.718074	1.007407	0.638824
N121	N	1.056449	0.108941	0.237826
N122	N	1.389782	0.442274	0.571160
N123	N	1.723115	0.775608	0.904493
N124	N	1.056494	0.108958	-0.255491
N125	N	1.389827	0.442291	0.077842
N126	N	1.723161	0.775624	0.411175
C127	C	1.117344	0.055392	0.292042
C128	C	1.450677	0.388726	0.625375
C129	C	1.784011	0.722059	0.958709
C130	C	1.117350	0.055392	0.391700
C131	C	1.450683	0.388725	0.725033
C132	C	1.784017	0.722059	1.058366
C133	C	1.056464	0.108944	0.437140
C134	C	1.389798	0.442278	0.770473
C135	C	1.723131	0.775611	1.103806
C136	C	0.995563	0.162495	0.382917
C137	C	1.328896	0.495829	0.716250
C138	C	1.662229	0.829162	1.049584
C139	C	0.995553	0.162491	0.283261
C140	C	1.328886	0.495825	0.616595
C141	C	1.662220	0.829158	0.949928
C142	C	0.995588	0.162501	0.590631
C143	C	1.328922	0.495834	0.923964
C144	C	1.662255	0.829168	1.257297
C145	C	0.995599	0.162506	0.690293
C146	C	1.328932	0.495840	1.023626
C147	C	1.662266	0.829173	1.356960
C148	C	1.117385	0.055402	0.699069
C149	C	1.450719	0.388735	1.032402
C150	C	1.784052	0.722068	1.365736
C151	C	1.117376	0.055398	0.599413
C152	C	1.450709	0.388731	0.932747
C153	C	1.784042	0.722064	1.266080
C154	C	1.056475	0.108950	0.545197
C155	C	1.389808	0.442283	0.878531
C156	C	1.723142	0.775617	1.211864
H157	H	0.347482	-0.025217	0.002194
H158	H	0.680815	0.308117	0.335527
H159	H	1.014149	0.641450	0.668860
H160	H	0.477704	0.238329	-0.019455
H161	H	0.811037	0.571662	0.313878
H162	H	1.144370	0.904996	0.647212
H163	H	1.051576	-0.651610	-0.185047
H164	H	1.384910	-0.318276	0.148287
H165	H	1.718243	0.015057	0.481620
H166	H	0.516737	-0.022400	0.001952
H167	H	0.850071	0.310933	0.335285
H168	H	1.183404	0.644267	0.668619
H169	H	1.058584	-0.279739	-0.133546
H170	H	1.391918	0.053594	0.199788
H171	H	1.725251	0.386928	0.533121
H172	H	1.166973	0.011798	0.743217
H173	H	1.500306	0.345131	1.076551
H174	H	1.833639	0.678464	1.409884
Cl175	Cl	0.919051	0.229831	0.747410
Cl176	Cl	1.252384	0.563164	1.080743
Cl177	Cl	1.585718	0.896497	1.414077
H178	H	0.635226	-0.020418	0.001794
H179	H	0.968559	0.312915	0.335127
H180	H	1.301892	0.646249	0.668460
Cl181	Cl	1.054745	-0.484105	-0.237003
Cl182	Cl	1.388078	-0.150771	0.096330
Cl183	Cl	1.721412	0.182562	0.429663
H184	H	1.051527	-0.651627	0.128115
H185	H	1.384861	-0.318293	0.461449
H186	H	1.718194	0.015040	0.794782
Cl187	Cl	0.570779	0.271779	-0.022202
Cl188	Cl	0.904113	0.605113	0.311132
Cl189	Cl	1.237446	0.938446	0.644465
H190	H	1.166935	0.011788	0.435842
H191	H	1.500268	0.345122	0.769175
H192	H	1.833602	0.678455	1.102508
H193	H	0.945993	0.206107	0.546491
H194	H	1.279327	0.539440	0.879824
H195	H	1.612660	0.872773	1.213158
H196	H	0.765449	0.243124	-0.019867
H197	H	1.098783	0.576457	0.313466
H198	H	1.432116	0.909790	0.646800
Cl199	Cl	0.283027	0.266989	-0.021782
Cl200	Cl	0.616361	0.600322	0.311552
Cl201	Cl	0.949694	0.933656	0.644885
H202	H	0.945984	0.206096	0.419920
H203	H	1.279317	0.539429	0.753253
H204	H	1.612650	0.872763	1.086587
Cl205	Cl	1.057090	-0.358859	-0.160957
Cl206	Cl	1.390423	-0.025526	0.172376
Cl207	Cl	1.723757	0.307807	0.505710
H208	H	1.056188	-0.405020	0.103571
H209	H	1.389522	-0.071686	0.436905
H210	H	1.722855	0.261647	0.770238
H211	H	1.061408	-0.130472	-0.145784
H212	H	1.394742	0.202861	0.187549
H213	H	1.728075	0.536195	0.520882
H214	H	1.054358	-0.502360	0.115879
H215	H	1.387691	-0.169027	0.449213
H216	H	1.721025	0.164307	0.782546
Cl217	Cl	1.193923	-0.011921	0.542286
Cl218	Cl	1.527256	0.321413	0.875620
Cl219	Cl	1.860590	0.654746	1.208953
H220	H	0.945965	0.206095	0.239120
H221	H	1.279298	0.539428	0.572453
H222	H	1.612631	0.872762	0.905786
H223	H	1.058534	-0.279770	0.179612
H224	H	1.391867	0.053563	0.512945
H225	H	1.725200	0.386896	0.846278
Cl226	Cl	0.829913	-0.049080	0.004121
Cl227	Cl	1.163247	0.284254	0.337454
Cl228	Cl	1.496580	0.617587	0.670788
Cl229	Cl	1.061693	-0.112268	0.204109
Cl230	Cl	1.395027	0.221065	0.537442
Cl231	Cl	1.728360	0.554398	0.870775
H232	H	1.166928	0.011787	0.255051
H233	H	1.500261	0.345121	0.588385
H234	H	1.833594	0.678454	0.921718
