data_functionalizedCrystal
_audit_creation_method	'MofGen! by Chris Wilmer'
_symmetry_space_group_name_H-M	'P1'
_symmetry_Int_Tables_number	1
_symmetry_cell_setting	triclinic
loop_
_symmetry_equiv_pos_as_xyz
  x,y,z
_cell_length_a	19.077115
_cell_length_b	19.121063
_cell_length_c	19.077174
_cell_angle_alpha	94.804191
_cell_angle_beta	85.484425
_cell_angle_gamma	90.263014
loop_
_atom_site_label
_atom_site_type_symbol
_atom_site_fract_x
_atom_site_fract_y
_atom_site_fract_z
Zn1	Zn	1.079659	-0.341255	-0.455830
Zn2	Zn	1.329659	-0.091255	-0.205830
Zn3	Zn	1.579659	0.158745	0.044170
Zn4	Zn	1.829659	0.408745	0.294170
Zn5	Zn	1.070212	-0.453789	-0.342559
Zn6	Zn	1.320212	-0.203789	-0.092559
Zn7	Zn	1.570212	0.046211	0.157441
Zn8	Zn	1.820212	0.296211	0.407441
Zn9	Zn	0.957448	-0.331437	-0.332827
Zn10	Zn	1.207448	-0.081437	-0.082827
Zn11	Zn	1.457448	0.168563	0.167173
Zn12	Zn	1.707448	0.418563	0.417173
Zn13	Zn	0.957108	-0.453743	-0.455677
Zn14	Zn	1.207108	-0.203743	-0.205677
Zn15	Zn	1.457108	0.046257	0.044323
Zn16	Zn	1.707108	0.296257	0.294323
O17	O	1.016107	-0.395056	-0.396723
O18	O	1.266107	-0.145056	-0.146723
O19	O	1.516107	0.104944	0.103277
O20	O	1.766107	0.354944	0.353277
O21	O	1.176886	-0.360311	-0.444942
O22	O	1.426886	-0.110311	-0.194942
O23	O	1.676886	0.139689	0.055058
O24	O	1.926886	0.389689	0.305058
O25	O	1.051443	-0.433469	-0.242451
O26	O	1.301443	-0.183469	0.007549
O27	O	1.551443	0.066531	0.257549
O28	O	1.801443	0.316531	0.507549
O29	O	0.977756	-0.234459	-0.345134
O30	O	1.227756	0.015541	-0.095134
O31	O	1.477756	0.265541	0.154866
O32	O	1.727756	0.515541	0.404866
O33	O	1.169946	-0.442989	-0.361723
O34	O	1.419946	-0.192989	-0.111723
O35	O	1.669946	0.057011	0.138277
O36	O	1.919946	0.307011	0.388277
O37	O	1.067543	-0.241672	-0.435505
O38	O	1.317543	0.008328	-0.185505
O39	O	1.567543	0.258328	0.064495
O40	O	1.817543	0.508328	0.314495
O41	O	0.968596	-0.343578	-0.235300
O42	O	1.218596	-0.093578	0.014700
O43	O	1.468596	0.156422	0.264700
O44	O	1.718596	0.406422	0.514700
O45	O	0.858923	-0.343533	-0.344985
O46	O	1.108923	-0.093533	-0.094985
O47	O	1.358923	0.156467	0.155015
O48	O	1.608923	0.406467	0.405015
O49	O	0.977176	-0.442910	-0.554515
O50	O	1.227176	-0.192910	-0.304515
O51	O	1.477176	0.057090	-0.054515
O52	O	1.727176	0.307090	0.195485
O53	O	0.858673	-0.433390	-0.435243
O54	O	1.108673	-0.183390	-0.185243
O55	O	1.358673	0.066610	0.064757
O56	O	1.608673	0.316610	0.314757
O57	O	1.067214	-0.360266	-0.554628
O58	O	1.317214	-0.110266	-0.304628
O59	O	1.567214	0.139734	-0.054628
O60	O	1.817214	0.389734	0.195372
O61	O	1.051113	-0.552063	-0.361574
O62	O	1.301113	-0.302063	-0.111574
O63	O	1.551113	-0.052063	0.138426
O64	O	1.801113	0.197937	0.388426
O65	O	0.968016	-0.552030	-0.444680
O66	O	1.218016	-0.302030	-0.194680
O67	O	1.468016	-0.052030	0.055320
O68	O	1.718016	0.197970	0.305320
C69	C	0.833263	-0.387392	-0.389042
C70	C	1.083263	-0.137392	-0.139042
C71	C	1.333263	0.112608	0.110958
C72	C	1.583263	0.362608	0.360958
C73	C	0.755042	-0.384131	-0.385773
C74	C	1.005042	-0.134131	-0.135773
C75	C	1.255042	0.115869	0.114227
C76	C	1.505042	0.365869	0.364227
C77	C	0.314753	-0.360712	-0.362334
C78	C	0.564753	-0.110712	-0.112334
C79	C	0.814753	0.139288	0.137666
C80	C	1.064753	0.389288	0.387666
C81	C	0.388250	-0.363780	-0.365410
C82	C	0.638250	-0.113780	-0.115410
C83	C	0.888250	0.136220	0.134590
C84	C	1.138250	0.386220	0.384590
C85	C	0.424879	-0.412169	-0.413869
C86	C	0.674879	-0.162169	-0.163869
C87	C	0.924879	0.087831	0.086131
C88	C	1.174879	0.337831	0.336131
C89	C	0.388007	-0.457488	-0.459261
C90	C	0.638007	-0.207488	-0.209261
C91	C	0.888007	0.042512	0.040739
C92	C	1.138007	0.292512	0.290739
C93	C	0.314511	-0.454416	-0.456189
C94	C	0.564511	-0.204416	-0.206189
C95	C	0.814511	0.045584	0.043811
C96	C	1.064511	0.295584	0.293811
C97	C	0.644675	-0.426378	-0.428093
C98	C	0.894675	-0.176378	-0.178093
C99	C	1.144675	0.073622	0.071907
C100	C	1.394675	0.323622	0.321907
C101	C	0.718175	-0.429448	-0.431160
C102	C	0.968175	-0.179448	-0.181160
C103	C	1.218175	0.070552	0.068840
C104	C	1.468175	0.320552	0.318840
C105	C	0.718413	-0.335739	-0.337309
C106	C	0.968413	-0.085739	-0.087309
C107	C	1.218413	0.164261	0.162691
C108	C	1.468413	0.414261	0.412691
C109	C	0.644916	-0.332674	-0.334238
C110	C	0.894916	-0.082674	-0.084238
C111	C	1.144916	0.167326	0.165762
C112	C	1.394916	0.417326	0.415762
C113	C	0.608051	-0.377990	-0.379633
C114	C	0.858051	-0.127990	-0.129633
C115	C	1.108051	0.122010	0.120367
C116	C	1.358051	0.372010	0.370367
N117	N	0.500005	-0.415308	-0.417012
N118	N	0.750005	-0.165308	-0.167012
N119	N	1.000005	0.084692	0.082988
N120	N	1.250005	0.334692	0.332988
N121	N	0.532927	-0.374848	-0.376493
N122	N	0.782927	-0.124848	-0.126493
N123	N	1.032927	0.125152	0.123507
N124	N	1.282927	0.375152	0.373507
C125	C	1.008522	-0.577531	-0.404183
C126	C	1.258522	-0.327531	-0.154183
C127	C	1.508522	-0.077531	0.095817
C128	C	1.758522	0.172469	0.345817
C129	C	1.005343	-0.655598	-0.407400
C130	C	1.255343	-0.405598	-0.157400
C131	C	1.505343	-0.155598	0.092600
C132	C	1.755343	0.094402	0.342600
C133	C	1.047150	-0.692272	-0.365681
C134	C	1.297150	-0.442272	-0.115681
C135	C	1.547150	-0.192272	0.134319
C136	C	1.797150	0.057728	0.384319
C137	C	1.044164	-0.765625	-0.368712
C138	C	1.294164	-0.515625	-0.118712
C139	C	1.544164	-0.265625	0.131288
C140	C	1.794164	-0.015625	0.381288
C141	C	0.999367	-0.802303	-0.413457
C142	C	1.249367	-0.552303	-0.163457
C143	C	1.499367	-0.302303	0.086543
C144	C	1.749367	-0.052303	0.336543
C145	C	0.957558	-0.765624	-0.455181
C146	C	1.207558	-0.515624	-0.205181
C147	C	1.457558	-0.265624	0.044819
C148	C	1.707558	-0.015624	0.294819
C149	C	0.960549	-0.692273	-0.452154
C150	C	1.210549	-0.442273	-0.202154
C151	C	1.460549	-0.192273	0.047846
C152	C	1.710549	0.057727	0.297846
C153	C	0.988176	-1.023777	-0.424763
C154	C	1.238176	-0.773777	-0.174763
C155	C	1.488176	-0.523777	0.075237
C156	C	1.738176	-0.273777	0.325237
C157	C	0.985187	-1.097133	-0.427786
C158	C	1.235187	-0.847133	-0.177786
C159	C	1.485187	-0.597133	0.072214
C160	C	1.735187	-0.347133	0.322214
C161	C	1.071794	-1.097129	-0.341317
C162	C	1.321794	-0.847129	-0.091317
C163	C	1.571794	-0.597129	0.158683
C164	C	1.821794	-0.347129	0.408683
C165	C	1.074777	-1.023776	-0.338291
C166	C	1.324777	-0.773776	-0.088291
C167	C	1.574777	-0.523776	0.161709
C168	C	1.824777	-0.273776	0.411709
C169	C	1.032971	-0.987104	-0.380017
C170	C	1.282971	-0.737104	-0.130017
C171	C	1.532971	-0.487104	0.119983
C172	C	1.782971	-0.237104	0.369983
C173	C	0.996312	-0.877281	-0.416554
C174	C	1.246312	-0.627281	-0.166554
C175	C	1.496312	-0.377281	0.083446
C176	C	1.746312	-0.127281	0.333446
C177	C	1.036030	-0.912127	-0.376923
C178	C	1.286030	-0.662127	-0.126923
C179	C	1.536030	-0.412127	0.123077
C180	C	1.786030	-0.162127	0.373077
C181	C	1.199665	-0.402750	-0.404435
C182	C	1.449665	-0.152750	-0.154435
C183	C	1.699665	0.097250	0.095565
C184	C	1.949665	0.347250	0.345565
C185	C	1.277886	-0.406029	-0.407722
C186	C	1.527886	-0.156029	-0.157722
C187	C	1.777886	0.093971	0.092278
C188	C	2.027886	0.343971	0.342278
C189	C	1.023211	-0.402678	-0.580910
C190	C	1.273211	-0.152678	-0.330910
C191	C	1.523211	0.097322	-0.080910
C192	C	1.773211	0.347322	0.169090
C193	C	1.026238	-0.405927	-0.659399
C194	C	1.276238	-0.155927	-0.409399
C195	C	1.526238	0.094073	-0.159399
C196	C	1.776238	0.344073	0.090601
C197	C	1.023741	-0.211869	-0.389251
C198	C	1.273741	0.038131	-0.139251
C199	C	1.523741	0.288131	0.110749
C200	C	1.773741	0.538131	0.360749
C201	C	1.026994	-0.133806	-0.386067
C202	C	1.276994	0.116194	-0.136067
C203	C	1.526994	0.366194	0.113933
C204	C	1.776994	0.616194	0.363933
C205	C	0.984528	-0.360652	-0.692550
C206	C	1.234528	-0.110652	-0.442550
C207	C	1.484528	0.139348	-0.192550
C208	C	1.734528	0.389348	0.057450
C209	C	0.987369	-0.363710	-0.766299
C210	C	1.237369	-0.113710	-0.516299
C211	C	1.487369	0.136290	-0.266299
C212	C	1.737369	0.386290	-0.016299
C213	C	1.031925	-0.412039	-0.806896
C214	C	1.281925	-0.162039	-0.556896
C215	C	1.531925	0.087961	-0.306896
C216	C	1.781925	0.337961	-0.056896
C217	C	1.073636	-0.457319	-0.773740
C218	C	1.323636	-0.207319	-0.523740
C219	C	1.573636	0.042681	-0.273740
C220	C	1.823636	0.292681	-0.023740
C221	C	1.070791	-0.454264	-0.699992
C222	C	1.320791	-0.204264	-0.449992
C223	C	1.570791	0.045736	-0.199992
C224	C	1.820791	0.295736	0.050008
C225	C	1.045057	-0.426198	-1.027858
C226	C	1.295057	-0.176198	-0.777858
C227	C	1.545057	0.073802	-0.527858
C228	C	1.795057	0.323802	-0.277858
C229	C	1.047901	-0.429248	-1.101611
C230	C	1.297901	-0.179248	-0.851611
C231	C	1.547901	0.070752	-0.601611
C232	C	1.797901	0.320752	-0.351611
C233	C	0.961632	-0.335640	-1.094165
C234	C	1.211632	-0.085640	-0.844165
C235	C	1.461632	0.164360	-0.594165
C236	C	1.711632	0.414360	-0.344165
C237	C	0.958794	-0.332586	-1.020416
C238	C	1.208794	-0.082586	-0.770416
C239	C	1.458794	0.167414	-0.520416
C240	C	1.708794	0.417414	-0.270416
C241	C	1.000503	-0.377868	-0.987266
C242	C	1.250503	-0.127868	-0.737266
C243	C	1.500503	0.122132	-0.487266
C244	C	1.750503	0.372132	-0.237266
N245	N	1.034832	-0.415165	-0.882280
N246	N	1.284832	-0.165165	-0.632280
N247	N	1.534832	0.084835	-0.382280
N248	N	1.784832	0.334835	-0.132280
N249	N	0.997592	-0.374746	-0.911884
N250	N	1.247592	-0.124746	-0.661884
N251	N	1.497592	0.125254	-0.411884
N252	N	1.747592	0.375254	-0.161884
C253	C	1.009074	-0.387414	-0.213253
C254	C	1.259074	-0.137414	0.036747
C255	C	1.509074	0.112586	0.286747
C256	C	1.759074	0.362586	0.536747
C257	C	1.006191	-0.383973	-0.134762
C258	C	1.256191	-0.133973	0.115238
C259	C	1.506191	0.116027	0.365238
C260	C	1.756191	0.366027	0.615238
H261	H	0.748437	-0.298844	-0.300352
H262	H	0.998437	-0.048844	-0.050352
H263	H	1.248437	0.201156	0.199648
H264	H	1.498437	0.451156	0.449648
H265	H	0.927675	-0.298775	-1.121163
H266	H	1.177675	-0.048775	-0.871163
H267	H	1.427675	0.201225	-0.621163
H268	H	1.677675	0.451225	-0.371163
H269	H	1.109911	-0.496673	-0.806800
H270	H	1.359911	-0.246673	-0.556800
H271	H	1.609911	0.003327	-0.306800
H272	H	1.859911	0.253327	-0.056800
H273	H	0.954135	-0.993924	-0.458737
H274	H	1.204135	-0.743924	-0.208737
H275	H	1.454135	-0.493924	0.041263
H276	H	1.704135	-0.243924	0.291263
H277	H	1.084187	-0.468604	-1.134663
H278	H	1.334187	-0.218604	-0.884663
H279	H	1.584187	0.031396	-0.634663
H280	H	1.834187	0.281396	-0.384663
H281	H	1.104761	-0.491126	-0.673002
H282	H	1.354761	-0.241126	-0.423002
H283	H	1.604761	0.008874	-0.173002
H284	H	1.854761	0.258874	0.076998
H285	H	0.615098	-0.293276	-0.294772
H286	H	0.865098	-0.043276	-0.044772
H287	H	1.115098	0.206724	0.205228
H288	H	1.365098	0.456724	0.455228
H289	H	0.948717	-1.126995	-0.464236
H290	H	1.198717	-0.876995	-0.214236
H291	H	1.448717	-0.626995	0.035764
H292	H	1.698717	-0.376995	0.285764
H293	H	1.078207	-0.795481	-0.334739
H294	H	1.328207	-0.545481	-0.084739
H295	H	1.578207	-0.295481	0.165261
H296	H	1.828207	-0.045481	0.415261
H297	H	0.418263	-0.326882	-0.328448
H298	H	0.668263	-0.076882	-0.078448
H299	H	0.918263	0.173118	0.171552
H300	H	1.168263	0.423118	0.421552
H301	H	0.948250	-0.321293	-0.659501
H302	H	1.198250	-0.071293	-0.409501
H303	H	1.448250	0.178707	-0.159501
H304	H	1.698250	0.428707	0.090499
H305	H	1.079011	-0.463077	-1.000877
H306	H	1.329011	-0.213077	-0.750877
H307	H	1.579011	0.036923	-0.500877
H308	H	1.829011	0.286923	-0.250877
H309	H	0.953402	-0.326845	-0.793287
H310	H	1.203402	-0.076845	-0.543287
H311	H	1.453402	0.173155	-0.293287
H312	H	1.703402	0.423155	-0.043287
H313	H	0.284935	-0.321309	-0.322873
H314	H	0.534935	-0.071309	-0.072873
H315	H	0.784935	0.178691	0.177127
H316	H	1.034935	0.428691	0.427127
H317	H	0.747997	-0.468852	-0.470625
H318	H	0.997997	-0.218852	-0.220625
H319	H	1.247997	0.031148	0.029375
H320	H	1.497997	0.281148	0.279375
H321	H	0.614668	-0.463280	-0.465054
H322	H	0.864668	-0.213280	-0.215054
H323	H	1.114668	0.036720	0.034946
H324	H	1.364668	0.286720	0.284946
H325	H	0.417836	-0.496884	-0.498721
H326	H	0.667836	-0.246884	-0.248721
H327	H	0.917836	0.003116	0.001279
H328	H	1.167836	0.253116	0.251279
H329	H	1.083625	-0.662413	-0.329241
H330	H	1.333625	-0.412413	-0.079241
H331	H	1.583625	-0.162413	0.170759
H332	H	1.833625	0.087587	0.420759
H333	H	0.284495	-0.491316	-0.493150
H334	H	0.534495	-0.241316	-0.243150
H335	H	0.784495	0.008684	0.006850
H336	H	1.034495	0.258684	0.256850
H337	H	0.922510	-0.293233	-0.987367
H338	H	1.172510	-0.043233	-0.737367
H339	H	1.422510	0.206767	-0.487367
H340	H	1.672510	0.456767	-0.237367
H341	H	0.959837	-0.907152	-0.452985
H342	H	1.209837	-0.657152	-0.202985
H343	H	1.459837	-0.407152	0.047015
H344	H	1.709837	-0.157152	0.297015
H345	H	1.072507	-0.882262	-0.340494
H346	H	1.322507	-0.632262	-0.090494
H347	H	1.572507	-0.382262	0.159506
H348	H	1.822507	-0.132262	0.409506
H349	H	1.111254	-0.993914	-0.301855
H350	H	1.361254	-0.743914	-0.051855
H351	H	1.611254	-0.493914	0.198145
H352	H	1.861254	-0.243914	0.448145
H353	H	1.105831	-1.126995	-0.307347
H354	H	1.355831	-0.876995	-0.057347
H355	H	1.605831	-0.626995	0.192653
H356	H	1.855831	-0.376995	0.442653
H357	H	0.921087	-0.795493	-0.491617
H358	H	1.171087	-0.545493	-0.241617
H359	H	1.421087	-0.295493	0.008383
H360	H	1.671087	-0.045493	0.258383
H361	H	0.926506	-0.662414	-0.486127
H362	H	1.176506	-0.412414	-0.236127
H363	H	1.426506	-0.162414	0.013873
H364	H	1.676506	0.087586	0.263873
