data_functionalizedCrystal
_audit_creation_method	'MofGen! by Chris Wilmer'
_symmetry_space_group_name_H-M	'P1'
_symmetry_Int_Tables_number	1
_symmetry_cell_setting	triclinic
loop_
_symmetry_equiv_pos_as_xyz
  x,y,z
_cell_length_a	19.288856
_cell_length_b	26.809956
_cell_length_c	19.288865
_cell_angle_alpha	90.000900
_cell_angle_beta	96.865496
_cell_angle_gamma	89.989211
loop_
_atom_site_label
_atom_site_type_symbol
_atom_site_fract_x
_atom_site_fract_y
_atom_site_fract_z
O1	O	-0.921358	0.041508	0.086610
O2	O	-0.719096	0.041505	0.098305
O3	O	-0.826071	0.041497	-0.008673
O4	O	-0.814382	0.041516	0.193588
O5	O	-0.826051	-0.041463	-0.008657
O6	O	-0.719076	-0.041454	0.098321
O7	O	-0.921337	-0.041451	0.086626
Zn8	Zn	-0.820203	-0.054624	0.092476
Zn9	Zn	-0.820230	0.054678	0.092455
O10	O	-0.814362	-0.041443	0.193604
C11	C	-0.693209	0.000025	0.097937
C12	C	-0.616106	0.000023	0.096811
N13	N	-0.820190	-0.129220	0.092490
C14	C	-0.052064	0.000021	0.151959
C15	C	-0.124511	0.000025	0.153024
C16	C	-0.169218	0.000018	0.090254
C17	C	-0.141472	0.000021	0.026415
C18	C	-0.069027	0.000022	0.025352
C19	C	-0.290481	-0.029051	0.043446
C20	C	-0.362925	-0.029055	0.044511
C21	C	-0.392664	0.000017	0.093530
C22	C	-0.349949	0.029086	0.141494
C23	C	-0.277503	0.029088	0.140431
C24	C	-0.247773	0.000017	0.091399
C25	C	-0.498955	0.000022	0.158519
C26	C	-0.571404	0.000029	0.159581
C27	C	-0.588364	0.000020	0.032971
C28	C	-0.515917	0.000018	0.031910
C29	C	-0.471217	0.000017	0.094687
C30	C	-0.867592	-0.473850	0.045096
C31	C	-0.867609	-0.682728	0.045086
O32	O	-0.907884	-0.709735	0.004794
N33	N	-0.820234	-0.708847	0.092439
C34	C	-0.772848	-0.682745	0.139796
O35	O	-0.732548	-0.709754	0.180068
C36	C	-0.772829	-0.473868	0.139802
C37	C	-0.820212	-0.447751	0.092451
C38	C	-0.914971	-0.447733	-0.002252
C39	C	-0.914969	-0.395517	-0.002247
C40	C	-0.867588	-0.369417	0.045108
C41	C	-0.820210	-0.395534	0.092456
C42	C	-0.725440	-0.447766	0.187155
C43	C	-0.725439	-0.395543	0.187151
C44	C	-0.772822	-0.369426	0.139799
C45	C	-0.772827	-0.317219	0.139816
N46	N	-0.820202	-0.291099	0.092463
C47	C	-0.867583	-0.317198	0.045108
C48	C	-0.772862	-0.792408	0.139790
C49	C	-0.772868	-0.844627	0.139789
C50	C	-0.867628	-0.844606	0.045078
C51	C	-0.867625	-0.792386	0.045083
C52	C	-0.820238	-0.766288	0.092436
C53	C	-0.867575	-0.207540	0.045124
C54	C	-0.867571	-0.155320	0.045136
C55	C	-0.772809	-0.155345	0.139844
C56	C	-0.772815	-0.207561	0.139835
C57	C	-0.820201	-0.233658	0.092469
O58	O	-0.732568	-0.290180	0.180081
O59	O	-0.907866	-0.290180	0.004832
C60	C	-0.867595	-0.526066	0.045091
C61	C	-0.820216	-0.552183	0.092439
C62	C	-0.772835	-0.526084	0.139793
C63	C	-0.820221	-0.604402	0.092439
C64	C	-0.867602	-0.630502	0.045084
C65	C	-0.914977	-0.604382	-0.002269
C66	C	-0.914975	-0.552166	-0.002263
C67	C	-0.725460	-0.552204	0.187147
C68	C	-0.725467	-0.604420	0.187138
C69	C	-0.772847	-0.630519	0.139784
C70	C	0.052776	0.000027	0.086995
C71	C	-0.024327	0.000021	0.088128
C72	C	-0.825685	0.000016	-0.034542
C73	C	-0.824556	0.000011	-0.111645
N74	N	-0.820249	0.129274	0.092435
C75	C	-0.887324	0.000010	-0.156343
C76	C	-0.886263	0.000018	-0.228790
C77	C	-0.822431	0.000017	-0.256536
C78	C	-0.759655	0.000021	-0.211828
C79	C	-0.760717	0.000018	-0.139383
C80	C	-0.772244	-0.029043	-0.364816
C81	C	-0.771184	-0.029043	-0.437261
C82	C	-0.819151	0.000028	-0.479982
C83	C	-0.868190	0.029093	-0.450251
C84	C	-0.869253	0.029090	-0.377805
C85	C	-0.821272	0.000020	-0.335090
C86	C	-0.880774	0.000036	-0.603236
C87	C	-0.879710	0.000047	-0.675684
C88	C	-0.753100	0.000045	-0.658720
C89	C	-0.754165	0.000039	-0.586273
C90	C	-0.818004	0.000032	-0.558536
C91	C	-0.814748	0.000039	0.219472
C92	C	-0.815877	0.000047	0.296576
H93	H	-0.015673	0.000022	0.203076
Cl94	Cl	-0.416615	-0.065603	-0.015781
Cl95	Cl	-0.974543	-0.637202	-0.061798
H96	H	-0.707682	0.000022	-0.234423
H97	H	-0.177877	0.000017	-0.024693
H98	H	-0.374160	0.052758	0.181411
Cl99	Cl	-0.665869	-0.480588	0.246684
H100	H	-0.734292	-0.865888	0.178354
H101	H	-0.953559	-0.530905	-0.040822
Cl102	Cl	-0.665891	-0.519400	0.246684
Cl103	Cl	-0.713286	-0.759604	0.199328
Cl104	Cl	-0.928495	0.065643	-0.503949
Cl105	Cl	-0.927193	-0.759559	-0.014449
H106	H	-0.703052	0.000038	-0.549879
H107	H	-0.731251	-0.052706	-0.461461
Cl108	Cl	-0.672852	0.000047	-0.693593
H109	H	-0.906158	-0.134057	0.006576
Cl110	Cl	-0.665896	-0.637247	0.246675
Cl111	Cl	-0.974534	-0.362689	-0.061781
H112	H	-0.709602	0.000019	-0.102988
H113	H	-0.624764	0.000018	-0.018138
Cl114	Cl	-0.442758	0.000022	0.237436
H115	H	-0.686847	-0.374297	0.225712
Cl116	Cl	-0.961026	0.000024	-0.568362
Cl117	Cl	-0.159389	0.000024	0.233274
Cl118	Cl	-0.965178	0.000016	-0.284993
Cl119	Cl	-0.958627	0.000048	-0.731878
H120	H	-0.939307	0.000006	-0.133765
Cl121	Cl	-0.711938	-0.065594	-0.311117
H122	H	-0.734238	-0.228826	0.178400
H123	H	-0.909180	0.052756	-0.353601
H124	H	-0.242727	0.052758	0.179485
H125	H	-0.046445	0.000022	-0.026628
H126	H	-0.593985	0.000033	0.211562
H127	H	-0.493334	0.000015	-0.020068
Cl128	Cl	-0.253108	-0.065572	-0.018218
Cl129	Cl	-0.927148	-0.240339	-0.014421
H130	H	-0.734234	-0.134086	0.178402
Cl131	Cl	-0.974543	-0.480535	-0.061791
H132	H	-0.906208	-0.865865	0.006521
