data_functionalizedCrystal
_audit_creation_method	'MofGen! by Chris Wilmer'
_symmetry_space_group_name_H-M	'P1'
_symmetry_Int_Tables_number	1
_symmetry_cell_setting	triclinic
loop_
_symmetry_equiv_pos_as_xyz
  x,y,z
_cell_length_a	19.288864
_cell_length_b	11.026607
_cell_length_c	18.366186
_cell_angle_alpha	90.003031
_cell_angle_beta	90.022894
_cell_angle_gamma	95.861131
loop_
_atom_site_label
_atom_site_type_symbol
_atom_site_fract_x
_atom_site_fract_y
_atom_site_fract_z
O1	O	0.940539	0.151279	0.060786
O2	O	0.740867	0.171686	0.060737
O3	O	0.824154	-0.015080	0.060755
O4	O	0.857252	0.338045	0.060768
O5	O	0.824135	-0.015089	-0.060345
O6	O	0.740847	0.171677	-0.060363
O7	O	0.940520	0.151270	-0.060313
Zn8	Zn	0.840681	0.161472	-0.079565
Zn9	Zn	0.840706	0.161484	0.079988
O10	O	0.857232	0.338036	-0.060331
C11	C	0.714897	0.171025	0.000181
C12	C	0.637544	0.169054	0.000161
C13	C	0.818039	-0.060262	0.000204
C14	C	0.799837	-0.194876	0.000202
C15	C	0.606746	0.278640	0.000177
C16	C	0.534064	0.276788	0.000185
C17	C	0.492182	0.165344	0.000192
C18	C	0.522988	0.055744	0.000172
C19	C	0.595669	0.057599	0.000157
C20	C	0.372816	0.077740	0.042640
C21	C	0.300137	0.075890	0.042659
C22	C	0.268011	0.159618	0.000236
C23	C	0.308573	0.245218	-0.042198
C24	C	0.381254	0.247073	-0.042213
C25	C	0.413372	0.163320	0.000208
C26	C	0.158403	0.267204	0.000259
C27	C	0.085720	0.265347	0.000263
C28	C	0.074645	0.044300	0.000257
C29	C	0.147327	0.046159	0.000246
C30	C	0.189202	0.157615	0.000251
C31	C	0.850095	-0.268957	0.000216
C32	C	0.831284	-0.408088	0.000214
C33	C	0.966489	0.151931	0.000244
C34	C	1.043843	0.153902	0.000268
C35	C	0.863348	0.383218	0.000221
C36	C	0.881550	0.517833	0.000227
N37	N	0.840668	0.161463	-0.188456
C38	C	0.877569	0.078804	-0.226549
C39	C	0.877572	0.078798	-0.302777
C40	C	0.840685	0.161473	-0.340909
C41	C	0.803777	0.244139	-0.302807
C42	C	0.803768	0.244134	-0.226581
C43	C	0.845400	0.271967	-0.461667
C44	C	0.845414	0.271974	-0.537891
C45	C	0.840707	0.161488	-0.576017
C46	C	0.836000	0.050992	-0.537907
C47	C	0.835992	0.050987	-0.461681
C48	C	0.840689	0.161487	-0.423564
C49	C	0.877613	0.078816	-0.696764
C50	C	0.877611	0.078809	-0.772993
C51	C	0.803820	0.244161	-0.773023
C52	C	0.803817	0.244157	-0.696795
C53	C	0.840717	0.161486	-0.658670
N54	N	0.840723	0.161484	0.188880
H55	H	0.640837	0.369396	0.000182
H56	H	0.060646	0.354589	0.000271
H57	H	0.907050	-0.229377	0.000225
H58	H	0.774326	-0.447663	0.000205
C59	C	0.629548	-0.062951	0.000148
H60	H	0.594198	-0.129591	0.000158
H61	H	0.657650	-0.066828	-0.042084
H62	H	0.657690	-0.066813	0.042381
C63	C	0.918191	-0.012128	-0.654824
H64	H	0.940160	-0.061373	-0.688431
H65	H	0.952539	0.031363	-0.625068
H66	H	0.886901	-0.062501	-0.625107
C67	C	0.918199	-0.012124	-0.814899
H68	H	0.912913	-0.000294	-0.865757
H69	H	0.966173	0.000843	-0.802384
H70	H	0.900539	-0.093031	-0.802416
C71	C	0.918166	-0.012123	-0.344691
H72	H	0.912883	-0.000282	-0.395548
H73	H	0.966139	0.000847	-0.332172
H74	H	0.900509	-0.093035	-0.332215
H75	H	0.508984	0.366029	0.000196
C76	C	0.425870	0.341213	-0.088893
H77	H	0.396332	0.390812	-0.114163
H78	H	0.456696	0.390903	-0.058313
H79	H	0.452098	0.299993	-0.123017
H80	H	0.938508	-0.442594	0.000296
C81	C	0.722895	-0.248333	0.000184
H82	H	0.720346	-0.334833	0.000180
H83	H	0.700442	-0.221570	0.042407
H84	H	0.700432	-0.221587	-0.042058
H85	H	0.832158	-0.038983	-0.430655
C86	C	0.273245	0.337331	-0.088862
H87	H	0.224150	0.323964	-0.082782
H88	H	0.289186	0.417866	-0.073941
H89	H	0.284595	0.326974	-0.138654
H90	H	0.192500	0.357957	0.000252
H91	H	0.773783	0.311471	-0.804069
H92	H	0.907613	0.011485	-0.195510
H93	H	0.832167	-0.038976	-0.568947
C94	C	0.763235	0.335097	-0.654891
H95	H	0.741271	0.384343	-0.688517
H96	H	0.728883	0.291604	-0.625173
H97	H	0.794520	0.385469	-0.625139
C98	C	0.850591	0.393509	-0.579808
H99	H	0.849931	0.377691	-0.630666
H100	H	0.812212	0.436940	-0.567336
H101	H	0.892835	0.440871	-0.567289
H102	H	0.849222	0.361943	-0.430631
C103	C	0.763186	0.335074	-0.184674
H104	H	0.768464	0.323229	-0.133816
H105	H	0.780844	0.415974	-0.197157
H106	H	0.715208	0.322107	-0.197187
H107	H	0.773741	0.311453	-0.333859
H108	H	0.040545	-0.046440	0.000308
H109	H	0.172402	-0.043078	0.000238
C110	C	0.476922	-0.066841	0.000184
H111	H	0.429224	-0.052252	0.000204
H112	H	0.486530	-0.111955	-0.042049
H113	H	0.486584	-0.111939	0.042416
C114	C	0.255525	-0.018268	0.089331
H115	H	0.285065	-0.067884	0.114583
H116	H	0.229291	0.022924	0.123457
H117	H	0.224702	-0.067955	0.058738
C118	C	0.408148	-0.014358	0.089315
H119	H	0.373584	-0.065587	0.114598
H120	H	0.434033	-0.062608	0.058728
H121	H	0.438618	0.028312	0.123427
