data_functionalizedCrystal
_audit_creation_method	'MofGen! by Chris Wilmer'
_symmetry_space_group_name_H-M	'P1'
_symmetry_Int_Tables_number	1
_symmetry_cell_setting	triclinic
loop_
_symmetry_equiv_pos_as_xyz
  x,y,z
_cell_length_a	16.992694
_cell_length_b	16.992700
_cell_length_c	7.540329
_cell_angle_alpha	89.989176
_cell_angle_beta	90.002664
_cell_angle_gamma	90.667698
loop_
_atom_site_label
_atom_site_type_symbol
_atom_site_fract_x
_atom_site_fract_y
_atom_site_fract_z
O1	O	1.050847	0.166915	-0.147307
O2	O	1.550847	0.666915	0.352693
O3	O	0.822447	0.165084	-0.147359
O4	O	1.322447	0.665084	0.352641
O5	O	0.935733	0.051800	-0.147288
O6	O	1.435733	0.551800	0.352712
O7	O	0.937562	0.280200	-0.147378
O8	O	1.437562	0.780200	0.352622
O9	O	0.935726	0.051798	0.147677
O10	O	1.435726	0.551798	0.647677
O11	O	0.822440	0.165082	0.147606
O12	O	1.322440	0.665082	0.647606
O13	O	1.050840	0.166913	0.147658
O14	O	1.550840	0.666913	0.647658
Cu15	Cu	0.936639	0.165998	0.174565
Cu16	Cu	1.436639	0.665998	0.674565
Cu17	Cu	0.936648	0.166000	-0.174266
Cu18	Cu	1.436648	0.666000	0.325734
O19	O	0.937555	0.280198	0.147587
O20	O	1.437555	0.780198	0.647587
C21	C	0.793084	0.162727	0.000118
C22	C	1.293084	0.662727	0.500118
C23	C	0.705599	0.155699	0.000100
C24	C	1.205599	0.655699	0.500100
C25	C	0.933374	0.022439	0.000202
C26	C	1.433374	0.522439	0.500202
C27	C	0.926346	-0.065046	0.000223
C28	C	1.426346	0.434954	0.500223
C29	C	0.659608	0.223517	0.000075
C30	C	1.159608	0.723517	0.500075
C31	C	0.577407	0.216908	0.000102
C32	C	1.077407	0.716908	0.500102
C33	C	0.541199	0.142480	0.000142
C34	C	1.041199	0.642480	0.500142
C35	C	0.587197	0.074657	0.000172
C36	C	1.087197	0.574657	0.500172
C37	C	0.669396	0.081267	0.000158
C38	C	1.169396	0.581267	0.500158
C39	C	0.295885	0.115086	0.000200
C40	C	0.795885	0.615086	0.500200
C41	C	0.213680	0.108481	0.000209
C42	C	0.713680	0.608481	0.500209
C43	C	0.203896	0.250732	0.000142
C44	C	0.703896	0.750732	0.500142
C45	C	0.286097	0.257335	0.000117
C46	C	0.786097	0.757335	0.500117
C47	C	0.332087	0.189512	0.000157
C48	C	0.832087	0.689512	0.500157
N49	N	0.457177	0.135723	0.000164
N50	N	0.957177	0.635723	0.500164
N51	N	0.416108	0.196270	0.000147
N52	N	0.916108	0.696270	0.500147
C53	C	0.879124	-0.556965	0.000051
C54	C	1.379124	-0.056965	0.500051
C55	C	0.885734	-0.474764	0.000070
C56	C	1.385734	0.025236	0.500070
C57	C	0.960162	-0.438557	0.000111
C58	C	1.460162	0.061443	0.500111
C59	C	1.027984	-0.484555	0.000115
C60	C	1.527984	0.015445	0.500115
C61	C	1.021374	-0.566754	0.000083
C62	C	1.521374	-0.066754	0.500083
C63	C	0.987558	-0.193243	0.000196
C64	C	1.487558	0.306757	0.500196
C65	C	0.994163	-0.111038	0.000233
C66	C	1.494163	0.388962	0.500233
C67	C	0.851912	-0.101253	0.000184
C68	C	1.351912	0.398747	0.500184
C69	C	0.845308	-0.183454	0.000163
C70	C	1.345308	0.316546	0.500163
C71	C	0.913131	-0.229445	0.000158
C72	C	1.413131	0.270555	0.500158
N73	N	0.966919	-0.354535	0.000136
N74	N	1.466919	0.145465	0.500136
N75	N	0.906372	-0.313465	0.000121
N76	N	1.406372	0.186535	0.500121
C77	C	1.080204	0.169270	0.000177
C78	C	1.580204	0.669270	0.500177
C79	C	1.167688	0.176299	0.000184
C80	C	1.667688	0.676299	0.500184
C81	C	0.939914	0.309559	0.000094
C82	C	1.439914	0.809559	0.500094
C83	C	0.946942	0.397043	0.000060
C84	C	1.446942	0.897043	0.500060
N85	N	0.936639	0.165996	0.419913
N86	N	1.436639	0.665996	0.919913
N87	N	0.936654	0.165996	-0.419614
N88	N	1.436654	0.665996	0.080386
H89	H	0.689081	0.284123	0.000041
H90	H	1.189081	0.784123	0.500041
H91	H	0.184203	0.047870	0.000239
H92	H	0.684203	0.547870	0.500239
H93	H	1.076598	-0.604200	0.000084
H94	H	1.576598	-0.104200	0.500084
H95	H	1.088585	-0.455069	0.000152
H96	H	1.588585	0.044931	0.500152
H97	H	0.539964	0.272132	0.000079
H98	H	1.039964	0.772132	0.500079
F99	F	0.718343	0.009085	0.000191
F100	F	1.218343	0.509085	0.500191
H101	H	0.333321	0.059859	0.000234
H102	H	0.833321	0.559859	0.500234
F103	F	0.766092	-0.221982	0.000116
F104	F	1.266092	0.278018	0.500116
F105	F	0.324625	0.336551	0.000065
F106	F	0.824625	0.836551	0.500065
H107	H	0.818517	-0.586438	0.000038
H108	H	1.318517	-0.086438	0.500038
H109	H	0.166442	0.305950	0.000113
H110	H	0.666442	0.805950	0.500113
F111	F	0.548660	-0.004555	0.000226
F112	F	1.048660	0.495445	0.500226
F113	F	0.813552	-0.425819	0.000046
F114	F	1.313552	0.074181	0.500046
H115	H	1.054774	-0.081561	0.000267
H116	H	1.554774	0.418439	0.500267
F117	F	0.779736	-0.052300	0.000182
F118	F	1.279736	0.447700	0.500182
F119	F	1.059742	-0.242180	0.000204
F120	F	1.559742	0.257820	0.500204
