data_functionalizedCrystal
_audit_creation_method	'MofGen! by Chris Wilmer'
_symmetry_space_group_name_H-M	'P1'
_symmetry_Int_Tables_number	1
_symmetry_cell_setting	triclinic
loop_
_symmetry_equiv_pos_as_xyz
  x,y,z
_cell_length_a	16.109295
_cell_length_b	16.053802
_cell_length_c	16.109304
_cell_angle_alpha	87.432363
_cell_angle_beta	96.539088
_cell_angle_gamma	87.422496
loop_
_atom_site_label
_atom_site_type_symbol
_atom_site_fract_x
_atom_site_fract_y
_atom_site_fract_z
O1	O	-1.106641	0.069367	0.103346
O2	O	-0.864579	0.069381	0.116650
O3	O	-0.992259	0.069374	-0.011033
O4	O	-0.978962	0.069374	0.231029
O5	O	-0.985231	-0.069485	-0.004034
O6	O	-0.857552	-0.069478	0.123649
O7	O	-1.099613	-0.069491	0.110345
Zn8	Zn	-0.977467	-0.091531	0.118108
Zn9	Zn	-0.986726	0.091421	0.108887
O10	O	-0.971934	-0.069485	0.238028
C11	C	-0.830091	-0.000047	0.119611
C12	C	-0.737795	-0.000042	0.117998
N13	N	-0.971153	-0.216391	0.124401
C14	C	-0.515523	-0.000050	0.190010
C15	C	-0.428802	-0.000055	0.188488
C16	C	-0.448675	-0.000052	0.036999
C17	C	-0.535394	-0.000053	0.038522
C18	C	-0.568815	-0.000048	0.115030
C19	C	-0.395375	-0.000052	0.111985
C20	C	-0.301349	-0.000057	0.110334
C21	C	-0.662848	-0.000044	0.116681
C22	C	-1.025501	-0.260088	0.070092
C23	C	-1.021092	-0.347495	0.074501
C24	C	-0.962340	-0.391203	0.133226
C25	C	-0.907986	-0.347500	0.187538
C26	C	-0.912392	-0.260095	0.183124
C27	C	-0.943098	-0.652612	0.152485
C28	C	-0.938698	-0.740023	0.156897
C29	C	-1.051804	-0.740011	0.043859
C30	C	-1.056207	-0.652605	0.039453
C31	C	-1.001851	-0.608909	0.093762
N32	N	-0.957834	-0.480546	0.137737
N33	N	-1.006353	-0.519568	0.089247
C34	C	-0.134102	-0.000061	0.107389
C35	C	-0.226395	-0.000058	0.109017
C36	C	-0.988206	-0.000053	-0.038508
C37	C	-0.986590	-0.000048	-0.130804
N38	N	-0.993046	0.216281	0.102587
C39	C	-0.986687	0.075641	-0.346956
C40	C	-0.985161	0.075641	-0.433676
C41	C	-0.977503	-0.075751	-0.426042
C42	C	-0.979023	-0.075749	-0.339323
C43	C	-0.983620	-0.000051	-0.299783
C44	C	-0.980573	-0.000053	-0.473222
C45	C	-0.978919	-0.000054	-0.567248
C46	C	-0.985273	-0.000049	-0.205751
C47	C	-0.975987	-0.000056	0.265503
C48	C	-0.977603	-0.000056	0.357799
H49	H	-0.385414	-0.000059	0.249545
H50	H	-0.987657	0.137277	-0.472081
C51	C	-0.874768	-0.787440	0.220551
C52	C	-0.794148	-0.766219	0.205945
C53	C	-0.735238	-0.809894	0.264554
H54	H	-0.884374	-0.773149	0.275362
H55	H	-0.879880	-0.845760	0.215393
H56	H	-0.789039	-0.707912	0.211110
H57	H	-0.784515	-0.780512	0.151145
H58	H	-0.740350	-0.868214	0.259396
H59	H	-0.744853	-0.795600	0.319361
H60	H	-0.680531	-0.795508	0.254646
H61	H	-0.898840	-0.617042	0.196708
C62	C	-0.412546	-0.000087	-0.046146
C63	C	-0.477780	-0.000107	-0.111484
C64	C	-0.444532	-0.000146	-0.188090
H65	H	-0.381592	0.048325	-0.052444
H66	H	-0.376702	-0.048527	-0.047498
H67	H	-0.513610	0.048328	-0.110134
H68	H	-0.508740	-0.048515	-0.105214
H69	H	-0.408689	-0.048586	-0.189441
H70	H	-0.413579	0.048267	-0.194379
H71	H	-0.488788	-0.000167	-0.232431
H72	H	-0.578787	-0.000053	-0.022539
C73	C	-0.991521	0.157768	-0.303904
C74	C	-0.921135	0.162174	-0.244959
C75	C	-0.925555	0.237816	-0.205281
H76	H	-0.993085	0.202912	-0.344330
H77	H	-1.040700	0.160940	-0.276532
H78	H	-0.871969	0.159010	-0.272330
H79	H	-0.919557	0.117048	-0.204517
H80	H	-0.974734	0.240988	-0.177909
H81	H	-0.927120	0.282953	-0.245712
H82	H	-0.877803	0.240812	-0.165277
H83	H	-0.542731	-0.000053	0.252308
C84	C	-0.972571	-0.157847	-0.469135
C85	C	-0.971923	-0.141650	-0.555181
C86	C	-0.967396	-0.217258	-0.594905
H87	H	-0.922802	-0.189014	-0.447103
H88	H	-1.019722	-0.188951	-0.459757
H89	H	-0.924776	-0.110559	-0.564554
H90	H	-1.021686	-0.110495	-0.577237
H91	H	-1.014547	-0.248363	-0.585526
H92	H	-0.917627	-0.248420	-0.572866
H93	H	-0.966963	-0.206279	-0.653292
C94	C	-0.975558	-0.157996	-0.288185
C95	C	-0.901402	-0.203671	-0.297618
C96	C	-0.898182	-0.279441	-0.250530
H97	H	-0.977069	-0.147270	-0.230851
H98	H	-1.022162	-0.189146	-0.307192
H99	H	-0.854810	-0.172527	-0.278606
H100	H	-0.899874	-0.214419	-0.354941
H101	H	-0.944786	-0.310591	-0.269538
H102	H	-0.899696	-0.268706	-0.193199
H103	H	-0.847872	-0.310444	-0.256930
H104	H	-1.073347	-0.224507	0.022275
H105	H	-1.065346	-0.383072	0.030278
C106	C	-1.120023	-0.605303	-0.024395
C107	C	-1.166662	-0.662280	-0.071029
C108	C	-1.225452	-0.618737	-0.129859
H109	H	-1.156419	-0.571194	0.003705
H110	H	-1.091865	-0.571234	-0.060779
H111	H	-1.194819	-0.696335	-0.034650
H112	H	-1.130289	-0.696392	-0.099147
H113	H	-1.197293	-0.584668	-0.166244
H114	H	-1.261841	-0.584629	-0.101752
H115	H	-1.257098	-0.657389	-0.161513
H116	H	-1.096057	-0.775596	-0.000358
H117	H	-0.860145	-0.383092	0.235350
H118	H	-0.868135	-0.224518	0.227347
