data_functionalizedCrystal
_audit_creation_method	'MofGen! by Chris Wilmer'
_symmetry_space_group_name_H-M	'P1'
_symmetry_Int_Tables_number	1
_symmetry_cell_setting	triclinic
loop_
_symmetry_equiv_pos_as_xyz
  x,y,z
_cell_length_a	11.792241
_cell_length_b	19.188930
_cell_length_c	10.268362
_cell_angle_alpha	89.989600
_cell_angle_beta	89.999626
_cell_angle_gamma	83.669099
loop_
_atom_site_label
_atom_site_type_symbol
_atom_site_fract_x
_atom_site_fract_y
_atom_site_fract_z
O1	O	1.505476	0.095695	-0.108190
O2	O	1.174988	0.105558	-0.108222
O3	O	1.349769	-0.000975	-0.108179
O4	O	1.330695	0.202228	-0.108232
O5	O	1.349754	-0.000980	0.108421
O6	O	1.174973	0.105553	0.108379
O7	O	1.505461	0.095691	0.108411
Cu8	Cu	1.340216	0.100622	0.128172
Cu9	Cu	1.340233	0.100627	-0.127983
O10	O	1.330680	0.202224	0.108368
C11	C	1.132699	0.104936	0.000075
C12	C	1.006713	0.103082	0.000064
C13	C	0.776051	0.099672	0.000102
C14	C	0.904408	0.101566	0.000081
C15	C	1.349144	-0.026992	0.000125
C16	C	1.347290	-0.104507	0.000136
C17	C	1.449846	-0.148850	0.000152
C18	C	1.448104	-0.221684	0.000131
C19	C	1.343800	-0.250171	0.000120
C20	C	1.241230	-0.205818	0.000096
C21	C	1.242975	-0.132986	0.000104
N22	N	1.264067	-0.358629	0.073825
N23	N	1.262416	-0.427817	0.073820
C24	C	1.338536	-0.469609	0.000093
N25	N	1.416387	-0.439602	-0.073614
N26	N	1.418041	-0.370407	-0.073603
C27	C	1.341896	-0.329144	0.000110
C28	C	1.439211	-0.592928	0.000084
C29	C	1.437464	-0.665762	0.000055
C30	C	1.230588	-0.649895	0.000034
C31	C	1.232337	-0.577062	0.000050
C32	C	1.336652	-0.548583	0.000081
C33	C	1.547751	0.096313	0.000111
C34	C	1.673737	0.098167	0.000114
C35	C	1.331305	0.228240	0.000062
C36	C	1.333159	0.305755	0.000042
N37	N	1.340211	0.100617	0.308338
N38	N	1.340247	0.100625	-0.308149
C39	C	1.340228	0.100625	0.574009
C40	C	1.340215	0.100623	0.426171
H41	H	1.531620	-0.257795	0.000139
H42	H	1.520981	-0.701866	0.000061
O43	O	1.129236	-0.677524	-0.000209
C44	C	1.066736	-0.654871	-0.112377
H45	H	1.127743	-0.639480	-0.190773
H46	H	1.018670	-0.699163	-0.150045
H47	H	1.003254	-0.607651	-0.087015
O48	O	1.139981	-0.233570	-0.000086
C49	C	1.132781	-0.275199	-0.112284
H50	H	1.222329	-0.292992	-0.149672
H51	H	1.087776	-0.323061	-0.087063
H52	H	1.082417	-0.243208	-0.190843
H53	H	1.159459	-0.096881	0.000091
O54	O	1.540509	-0.565226	0.000328
C55	C	1.547697	-0.523575	0.112499
H56	H	1.488472	-0.541032	0.190900
H57	H	1.639199	-0.529772	0.150157
H58	H	1.521236	-0.466242	0.087146
O59	O	1.551273	-0.121302	0.000116
C60	C	1.641419	-0.176065	0.000160
H61	H	1.609854	-0.225651	-0.040857
H62	H	1.714274	-0.160564	-0.062710
H63	H	1.673024	-0.186262	0.104080
O64	O	1.132742	-0.533955	-0.000182
C65	C	1.127581	-0.491325	-0.112341
H66	H	1.185758	-0.517765	-0.190744
H67	H	1.036122	-0.483480	-0.150006
H68	H	1.156689	-0.438261	-0.086969
