data_functionalizedCrystal
_audit_creation_method	'MofGen! by Chris Wilmer'
_symmetry_space_group_name_H-M	'P1'
_symmetry_Int_Tables_number	1
_symmetry_cell_setting	triclinic
loop_
_symmetry_equiv_pos_as_xyz
  x,y,z
_cell_length_a	21.395362
_cell_length_b	15.297327
_cell_length_c	21.395355
_cell_angle_alpha	80.340321
_cell_angle_beta	90.043940
_cell_angle_gamma	99.725883
loop_
_atom_site_label
_atom_site_type_symbol
_atom_site_fract_x
_atom_site_fract_y
_atom_site_fract_z
Zn1	Zn	0.914743	-0.358918	0.397693
Zn2	Zn	1.414743	0.141082	0.897693
Zn3	Zn	0.896524	-0.509774	0.311034
Zn4	Zn	1.396524	-0.009774	0.811034
Zn5	Zn	0.809953	-0.358960	0.292899
Zn6	Zn	1.309953	0.141040	0.792899
Zn7	Zn	0.791803	-0.509792	0.415741
Zn8	Zn	1.291803	-0.009792	0.915741
O9	O	0.853256	-0.434361	0.354342
O10	O	1.353256	0.065639	0.854342
O11	O	1.000007	-0.378904	0.386234
O12	O	1.500007	0.121096	0.886234
O13	O	0.885011	-0.489778	0.220951
O14	O	1.385011	0.010222	0.720951
O15	O	0.839075	-0.232697	0.291658
O16	O	1.339075	0.267303	0.791658
O17	O	0.986621	-0.489737	0.322566
O18	O	1.486621	0.010263	0.822566
O19	O	0.916063	-0.232666	0.368649
O20	O	1.416063	0.267334	0.868649
O21	O	0.821408	-0.378975	0.207628
O22	O	1.321408	0.121025	0.707628
O23	O	0.719864	-0.378993	0.309158
O24	O	1.219864	0.121007	0.809158
O25	O	0.808140	-0.489769	0.501023
O26	O	1.308140	0.010231	1.001023
O27	O	0.706530	-0.489810	0.399409
O28	O	1.206530	0.010190	0.899409
O29	O	0.898464	-0.378922	0.487764
O30	O	1.398464	0.121078	0.987764
O31	O	0.867411	-0.636034	0.340066
O32	O	1.367411	-0.136034	0.840066
O33	O	0.790473	-0.636048	0.416993
O34	O	1.290473	-0.136048	0.916993
C35	C	0.690462	-0.434409	0.354275
C36	C	1.190462	0.065591	0.854275
C37	C	0.620816	-0.434451	0.354263
C38	C	1.120816	0.065549	0.854263
C39	C	0.581167	-0.492229	0.401206
C40	C	1.081167	0.007771	0.901206
C41	C	0.515734	-0.492207	0.401232
C42	C	1.015734	0.007793	0.901232
C43	C	0.489952	-0.434416	0.354304
C44	C	0.989952	0.065584	0.854304
C45	C	0.529610	-0.376627	0.307357
C46	C	1.029610	0.123373	0.807357
C47	C	0.595042	-0.376644	0.307337
C48	C	1.095042	0.123356	0.807337
C49	C	0.387100	-0.427148	0.297026
C50	C	0.887100	0.072852	0.797026
C51	C	0.321669	-0.427137	0.297046
C52	C	0.821669	0.072863	0.797046
C53	C	0.288138	-0.434357	0.354366
C54	C	0.788138	0.065643	0.854366
C55	C	0.320045	-0.441608	0.411670
C56	C	0.820045	0.058392	0.911670
C57	C	0.385477	-0.441625	0.411650
C58	C	0.885477	0.058375	0.911650
C59	C	0.419003	-0.434390	0.354321
C60	C	0.919003	0.065610	0.854321
C61	C	0.177539	-0.492115	0.401340
C62	C	0.677539	0.007885	0.901340
C63	C	0.112106	-0.492086	0.401366
C64	C	0.612106	0.007914	0.901366
C65	C	0.125983	-0.376510	0.307486
C66	C	0.625983	0.123490	0.807486
C67	C	0.191415	-0.376534	0.307465
C68	C	0.691415	0.123466	0.807465
C69	C	0.217189	-0.434341	0.354392
C70	C	0.717189	0.065659	0.854392
C71	C	0.825013	-0.668778	0.382470
C72	C	1.325013	-0.168778	0.882470
C73	C	0.812988	-0.769063	0.394524
C74	C	1.312988	-0.269063	0.894524
C75	C	0.939459	-1.051594	0.268402
C76	C	1.439459	-0.551594	0.768402
C77	C	0.950757	-0.957372	0.257073
C78	C	1.450757	-0.457372	0.757073
C79	C	0.916316	-0.910290	0.291435
C80	C	1.416316	-0.410290	0.791435
C81	C	0.870575	-0.957440	0.337127
C82	C	1.370575	-0.457440	0.837127
C83	C	0.859272	-1.051671	0.348454
C84	C	1.359272	-0.551671	0.848454
C85	C	0.836129	-0.910367	0.371487
C86	C	1.336129	-0.410367	0.871487
C87	C	0.790387	-0.957517	0.417179
C88	C	1.290387	-0.457517	0.917179
C89	C	0.779087	-1.051739	0.428503
C90	C	1.279087	-0.551739	0.928503
C91	C	0.813528	-1.098821	0.394142
C92	C	1.313528	-0.598821	0.894142
C93	C	0.847431	-0.816135	0.360160
C94	C	1.347431	-0.316135	0.860160
C95	C	0.767244	-0.816212	0.440212
C96	C	1.267244	-0.316212	0.940212
C97	C	0.755946	-0.910435	0.451540
C98	C	1.255946	-0.410435	0.951540
C99	C	1.016685	-0.434314	0.354409
C100	C	1.516685	0.065686	0.854409
C101	C	1.086328	-0.434294	0.354438
C102	C	1.586328	0.065706	0.854438
C103	C	0.853310	-0.434343	0.517763
C104	C	1.353310	0.065657	1.017763
C105	C	0.853333	-0.434335	0.587403
C106	C	1.353333	0.065665	1.087403
C107	C	0.881626	-0.199029	0.326118
C108	C	1.381626	0.300971	0.826118
C109	C	0.893716	-0.098744	0.314090
C110	C	1.393716	0.401256	0.814090
C111	C	0.853246	-0.434314	0.191548
C112	C	1.353246	0.065686	0.691548
C113	C	0.853374	-0.434068	0.121878
C114	C	1.353374	0.065932	0.621878
C115	C	0.900363	-0.376615	0.613213
C116	C	1.400363	0.123385	1.113213
C117	C	0.900367	-0.376576	0.678643
C118	C	1.400367	0.123424	1.178643
C119	C	0.853345	-0.434273	0.718264
C120	C	1.353345	0.065727	1.218264
C121	C	0.806307	-0.491998	0.692447
C122	C	1.306307	0.008002	1.192447
C123	C	0.806301	-0.492029	0.627017
C124	C	1.306301	0.007971	1.127017
C125	C	0.838610	-0.515514	0.831685
C126	C	1.338610	-0.015514	1.331685
C127	C	0.838620	-0.515485	0.897115
C128	C	1.338620	-0.015485	1.397115
C129	C	0.853361	-0.434178	0.920074
C130	C	1.353361	0.065822	1.420074
C131	C	0.868104	-0.352898	0.877594
C132	C	1.368104	0.147102	1.377594
C133	C	0.868098	-0.352928	0.812164
C134	C	1.368098	0.147072	1.312164
C135	C	0.853346	-0.434246	0.789213
C136	C	1.353346	0.065754	1.289213
C137	C	0.900398	-0.376411	1.016830
C138	C	1.400398	0.123589	1.516830
C139	C	0.900397	-0.376370	1.082262
C140	C	1.400397	0.123630	1.582262
C141	C	0.806339	-0.491801	1.096065
C142	C	1.306339	0.008199	1.596065
C143	C	0.806338	-0.491833	1.030634
C144	C	1.306338	0.008167	1.530634
C145	C	0.853370	-0.434139	0.991020
C146	C	1.353370	0.065861	1.491020
H147	H	0.198525	-0.539180	0.439553
H148	H	0.698525	-0.039180	0.939553
Cl149	Cl	0.062260	-0.564724	0.460388
Cl150	Cl	0.562260	-0.064724	0.960388
Cl151	Cl	0.281564	-0.418021	0.225007
Cl152	Cl	0.781564	0.081979	0.725007
H153	H	0.987999	-0.918986	0.219871
H154	H	1.487999	-0.418986	0.719871
Cl155	Cl	0.429245	-0.418073	0.224959
Cl156	Cl	0.929245	0.081927	0.724959
Cl157	Cl	0.747192	-0.564529	0.742255
Cl158	Cl	1.247192	-0.064529	1.242255
H159	H	0.104993	-0.329452	0.269279
H160	H	0.604993	0.170548	0.769279
H161	H	0.602147	-0.539299	0.439419
H162	H	1.102147	-0.039299	0.939419
Cl163	Cl	0.465879	-0.564849	0.460250
Cl164	Cl	0.965879	-0.064849	0.960250
H165	H	0.718703	-0.948837	0.488743
H166	H	1.218703	-0.448837	0.988743
H167	H	0.739198	-0.777879	0.468191
H168	H	1.239198	-0.277879	0.968191
Cl169	Cl	0.799073	-1.217276	0.408127
Cl170	Cl	1.299073	-0.717276	0.908127
H171	H	0.741834	-1.090126	0.465702
H172	H	1.241834	-0.590126	0.965702
H173	H	0.967493	-1.089937	0.240426
H174	H	1.467493	-0.589937	0.740426
H175	H	0.938660	-0.329635	0.580963
H176	H	1.438660	0.170365	1.080963
H177	H	0.411453	-0.447526	0.458309
H178	H	0.911453	0.052474	0.958309
Cl179	Cl	0.959485	-0.303989	0.711096
Cl180	Cl	1.459485	0.196011	1.211096
Cl181	Cl	0.886627	-0.250752	0.758764
Cl182	Cl	1.386627	0.249248	1.258764
Cl183	Cl	0.959535	-0.303815	1.114710
Cl184	Cl	1.459535	0.196185	1.614710
Cl185	Cl	0.497200	-0.303970	0.248364
Cl186	Cl	0.997200	0.196030	0.748364
H187	H	0.768044	-0.538841	1.009621
H188	H	1.268044	-0.038841	1.509621
Cl189	Cl	0.241263	-0.303897	0.248446
Cl190	Cl	0.741263	0.196103	0.748446
Cl191	Cl	0.886639	-0.250676	0.906448
Cl192	Cl	1.386639	0.249324	1.406448
H193	H	0.938691	-0.329428	0.984574
H194	H	1.438691	0.170572	1.484574
Cl195	Cl	0.747221	-0.564328	1.145867
Cl196	Cl	1.247221	-0.064328	1.645867
H197	H	0.826619	-0.581669	0.931697
H198	H	1.326619	-0.081669	1.431697
H199	H	0.826441	-0.581708	0.812997
H200	H	1.326441	-0.081708	1.312997
H201	H	0.292746	-0.447486	0.458346
H202	H	0.792746	0.052514	0.958346
Cl203	Cl	0.644890	-0.304002	0.248317
Cl204	Cl	1.144890	0.195998	0.748317
Cl205	Cl	0.904933	-0.756873	0.302721
Cl206	Cl	1.404933	-0.256873	0.802721
H207	H	0.925517	-0.833570	0.282208
H208	H	1.425517	-0.333570	0.782208
Cl209	Cl	0.747172	-0.564598	0.594569
Cl210	Cl	1.247172	-0.064598	1.094569
