data_functionalizedCrystal
_audit_creation_method	'MofGen! by Chris Wilmer'
_symmetry_space_group_name_H-M	'P1'
_symmetry_Int_Tables_number	1
_symmetry_cell_setting	triclinic
loop_
_symmetry_equiv_pos_as_xyz
  x,y,z
_cell_length_a	6.817900
_cell_length_b	11.102193
_cell_length_c	23.753023
_cell_angle_alpha	95.106179
_cell_angle_beta	100.067528
_cell_angle_gamma	108.604125
loop_
_atom_site_label
_atom_site_type_symbol
_atom_site_fract_x
_atom_site_fract_y
_atom_site_fract_z
V1	V	-4.015123	-0.177444	-0.178390
O2	O	-3.975998	0.006876	-0.174992
O3	O	-3.992553	-0.350254	-0.177172
O4	O	-3.949861	-0.175440	-0.256192
O5	O	-4.018986	-0.169149	-0.095426
V6	V	-4.497589	-0.155312	-0.168467
O7	O	-4.278701	-0.225994	-0.200158
O8	O	-4.684210	-0.106763	-0.146699
O9	O	-4.296953	0.017498	-0.169685
O10	O	-4.654112	-0.339632	-0.171865
O11	O	-4.611124	-0.163607	-0.251431
O12	O	-4.339645	-0.157317	-0.090666
C13	C	-3.844383	-0.392359	-0.174359
C14	C	-3.907104	-0.533638	-0.173881
C15	C	-3.789924	-0.169364	-0.275155
C16	C	-3.818019	-0.168868	-0.338758
C17	C	-3.961240	-0.761869	-0.068184
C18	C	-3.899910	-0.676869	-0.016013
C19	C	-3.840980	-0.544126	-0.016462
C20	C	-3.843376	-0.496382	-0.069089
C21	C	-3.904705	-0.581381	-0.121260
C22	C	-3.963639	-0.714126	-0.120805
C23	C	-3.968433	-0.618638	-0.226053
C24	C	-4.027378	-0.751382	-0.225605
C25	C	-3.970828	-0.570893	-0.278679
C26	C	-4.032173	-0.655894	-0.330852
C27	C	-4.091107	-0.788644	-0.330400
C28	C	-4.088708	-0.836382	-0.277776
C29	C	-4.048261	-0.282406	-0.741349
C30	C	-4.074697	-0.281960	-0.801113
O31	O	-4.135849	-0.380772	-0.838974
N32	N	-4.032156	-0.165275	-0.822830
C33	C	-3.963195	-0.049029	-0.784779
O34	O	-3.929441	0.050262	-0.808739
C35	C	-3.936775	-0.049476	-0.725017
C36	C	-3.979300	-0.166169	-0.703304
C37	C	-4.090783	-0.399089	-0.719636
C38	C	-4.064345	-0.399534	-0.659876
C39	C	-3.995384	-0.283297	-0.621831
C40	C	-3.952861	-0.166614	-0.643545
C41	C	-3.867829	0.066768	-0.686968
C42	C	-3.841413	0.066310	-0.627203
C43	C	-3.883938	-0.050382	-0.605490
C44	C	-3.857462	-0.050822	-0.545740
N45	N	-3.900002	-0.167507	-0.524023
C46	C	-3.968963	-0.283744	-0.562069
C47	C	-4.018688	-0.048097	-0.910284
C48	C	-4.045093	-0.047647	-0.970045
C49	C	-4.156597	-0.280580	-0.986375
C50	C	-4.130177	-0.281027	-0.926613
C51	C	-4.061229	-0.164782	-0.888568
C52	C	-3.913435	-0.284671	-0.436569
C53	C	-3.886981	-0.285105	-0.376803
C54	C	-3.775490	-0.052175	-0.360479
C55	C	-3.801931	-0.051739	-0.420239
C56	C	-3.870914	-0.167997	-0.458283
O57	O	-3.796325	0.047940	-0.507844
O58	O	-4.002733	-0.383020	-0.538101
C59	C	-4.108466	0.059596	-0.172497
C60	C	-4.024983	0.200874	-0.172978
C61	C	-4.162925	-0.163397	-0.071699
C62	C	-4.114068	-0.163886	-0.008096
H63	H	-3.897963	-0.715758	0.026835
H64	H	-3.791026	-0.474917	0.026020
H65	H	-4.034103	-0.617008	-0.373696
H66	H	-3.969602	-0.379340	-0.467538
N67	N	-3.783134	-0.360784	-0.069538
N68	N	-3.728357	-0.284905	-0.022953
H69	H	-3.685807	-0.189137	-0.023270
H70	H	-4.136696	-0.944466	-0.277403
N71	N	-3.910616	-0.435304	-0.279150
N72	N	-3.757436	-0.379351	-0.300539
H73	H	-3.714912	-0.283590	-0.300874
H74	H	-3.921608	-0.380134	-0.359128
N75	N	-4.153736	-0.875485	-0.383687
N76	N	-4.052628	-0.948692	-0.392917
H77	H	-4.096857	-1.010022	-0.430551
N78	N	-3.824385	0.185959	-0.709146
N79	N	-3.685612	0.217146	-0.738421
H80	H	-3.654927	0.301331	-0.754083
H81	H	-4.098988	-0.494557	-0.642203
N82	N	-4.161243	-0.517845	-0.758485
N83	N	-4.199199	-0.622007	-0.739078
H84	H	-4.248952	-0.705888	-0.766511
N85	N	-3.705036	0.066543	-0.321602
N86	N	-3.681453	0.066113	-0.268246
H87	H	-3.631705	0.149957	-0.240787
H88	H	-4.164806	-0.376048	-0.908938
H89	H	-4.010435	0.047376	-0.987718
H90	H	-4.212754	-0.375227	-1.017363
H91	H	-3.962526	0.046570	-0.879310
H92	H	-4.009240	-0.869954	-0.067813
H93	H	-3.785273	0.160973	-0.596229
H94	H	-3.767314	0.043281	-0.437919
