data_functionalizedCrystal
_audit_creation_method	'MofGen! by Chris Wilmer'
_symmetry_space_group_name_H-M	'P1'
_symmetry_Int_Tables_number	1
_symmetry_cell_setting	triclinic
loop_
_symmetry_equiv_pos_as_xyz
  x,y,z
_cell_length_a	10.723023
_cell_length_b	14.519709
_cell_length_c	9.198806
_cell_angle_alpha	89.995869
_cell_angle_beta	89.996513
_cell_angle_gamma	84.073846
loop_
_atom_site_label
_atom_site_type_symbol
_atom_site_fract_x
_atom_site_fract_y
_atom_site_fract_z
O1	O	1.655979	0.129344	-0.120881
O2	O	1.292711	0.141726	-0.120888
O3	O	1.483976	0.001346	-0.120871
O4	O	1.464713	0.269724	-0.120898
O5	O	1.483961	0.001345	0.120914
O6	O	1.292695	0.141725	0.120897
O7	O	1.655964	0.129344	0.120904
Cu8	Cu	1.474328	0.135534	0.142978
Cu9	Cu	1.474346	0.135535	-0.142961
O10	O	1.464698	0.269724	0.120887
C11	C	1.246212	0.140825	0.000004
C12	C	1.107683	0.138129	0.000002
C13	C	1.045914	0.136927	0.125253
C14	C	0.902737	0.134141	0.125254
C15	C	1.483071	-0.033019	0.000022
C16	C	1.480381	-0.135414	0.000022
C17	C	1.470477	-0.510360	-0.000015
C18	C	1.473227	-0.406038	-0.000004
C19	C	1.475428	-0.322890	0.000005
C20	C	1.478179	-0.218562	0.000013
C21	C	1.702462	0.130245	0.000009
C22	C	1.840992	0.132940	0.000001
C23	C	1.465603	0.304088	-0.000008
C24	C	1.468293	0.406483	-0.000019
N25	N	1.474325	0.135534	0.344092
N26	N	1.474359	0.135529	-0.344075
C27	C	1.554634	0.076332	0.416296
C28	C	1.554653	0.076329	0.583708
H29	H	0.849616	0.133113	0.232486
H30	H	1.623414	0.025647	0.645800
H31	H	1.099031	0.137956	0.232484
H32	H	1.054567	0.137093	-0.107229
H33	H	1.623372	0.025646	0.354175
H34	H	0.894102	0.133979	-0.107236
H35	H	1.405604	0.186219	0.593842
H36	H	1.405578	0.186213	0.406214
