data_functionalizedCrystal
_audit_creation_method	'MofGen! by Chris Wilmer'
_symmetry_space_group_name_H-M	'P1'
_symmetry_Int_Tables_number	1
_symmetry_cell_setting	triclinic
loop_
_symmetry_equiv_pos_as_xyz
  x,y,z
_cell_length_a	16.109301
_cell_length_b	16.109301
_cell_length_c	15.186229
_cell_angle_alpha	90.007249
_cell_angle_beta	90.002208
_cell_angle_gamma	96.538519
loop_
_atom_site_label
_atom_site_type_symbol
_atom_site_fract_x
_atom_site_fract_y
_atom_site_fract_z
O1	O	-1.103127	0.106869	0.073176
O2	O	-0.769794	0.440202	0.406509
O3	O	-0.436460	0.773536	0.739842
O4	O	-0.861065	0.120168	0.073190
O5	O	-0.527732	0.453502	0.406523
O6	O	-0.194398	0.786835	0.739857
O7	O	-0.988746	-0.007512	0.073174
O8	O	-0.655412	0.325821	0.406507
O9	O	-0.322079	0.659154	0.739840
O10	O	-0.975446	0.234550	0.073192
O11	O	-0.642113	0.567883	0.406526
O12	O	-0.308780	0.901216	0.739859
O13	O	-0.988745	-0.007520	-0.073284
O14	O	-0.655411	0.325813	0.260050
O15	O	-0.322078	0.659147	0.593383
O16	O	-0.861064	0.120161	-0.073267
O17	O	-0.527731	0.453494	0.260066
O18	O	-0.194397	0.786827	0.593399
O19	O	-1.103126	0.106861	-0.073282
O20	O	-0.769793	0.440195	0.260052
O21	O	-0.436459	0.773528	0.593385
Zn22	Zn	-0.982095	0.113510	-0.096528
Zn23	Zn	-0.648761	0.446843	0.236806
Zn24	Zn	-0.315428	0.780176	0.570139
Zn25	Zn	-0.982096	0.113520	0.096436
Zn26	Zn	-0.648763	0.446853	0.429769
Zn27	Zn	-0.315429	0.780187	0.763103
O28	O	-0.975445	0.234542	-0.073265
O29	O	-0.642112	0.567875	0.260068
O30	O	-0.308779	0.901209	0.593402
C31	C	-0.988206	-0.038491	-0.000056
C32	C	-0.654873	0.294842	0.333278
C33	C	-0.321540	0.628176	0.666611
C34	C	-0.986591	-0.130786	-0.000057
C35	C	-0.653258	0.202547	0.333277
C36	C	-0.319925	0.535880	0.666610
C37	C	-0.830090	0.119626	-0.000037
C38	C	-0.496756	0.452959	0.333296
C39	C	-0.163423	0.786292	0.666630
C40	C	-0.737794	0.118011	-0.000032
C41	C	-0.404461	0.451344	0.333302
C42	C	-0.071128	0.784677	0.666635
C43	C	-1.058599	-0.353059	-0.000047
C44	C	-0.725266	-0.019725	0.333286
C45	C	-0.391932	0.313608	0.666620
C46	C	-1.057075	-0.439779	-0.000040
C47	C	-0.723742	-0.106446	0.333294
C48	C	-0.390408	0.226888	0.666627
C49	C	-0.905586	-0.419905	-0.000034
C50	C	-0.572253	-0.086571	0.333299
C51	C	-0.238919	0.246762	0.666633
C52	C	-0.907111	-0.333186	-0.000035
C53	C	-0.573778	0.000147	0.333298
C54	C	-0.240444	0.333481	0.666631
C55	C	-0.983620	-0.299766	-0.000046
C56	C	-0.650287	0.033568	0.333287
C57	C	-0.316953	0.366901	0.666621
C58	C	-0.980571	-0.473205	-0.000038
C59	C	-0.647238	-0.139871	0.333296
C60	C	-0.313904	0.193462	0.666629
C61	C	-0.978918	-0.567231	-0.000030
C62	C	-0.645585	-0.233897	0.333304
C63	C	-0.312251	0.099436	0.666637
C64	C	-0.985273	-0.205734	-0.000052
C65	C	-0.651940	0.127600	0.333281
C66	C	-0.318607	0.460933	0.666614
C67	C	-1.134101	0.107404	-0.000053
C68	C	-0.800768	0.440737	0.333281
C69	C	-0.467435	0.774071	0.666614
C70	C	-1.226397	0.109019	-0.000052
C71	C	-0.893063	0.442352	0.333281
C72	C	-0.559730	0.775686	0.666615
C73	C	-0.515522	0.190018	-0.000036
C74	C	-0.182188	0.523352	0.333297
C75	C	0.151145	0.856685	0.666630
C76	C	-0.428801	0.188494	-0.000042
C77	C	-0.095468	0.521828	0.333291
C78	C	0.237865	0.855161	0.666625
C79	C	-0.448676	0.037006	-0.000050
C80	C	-0.115342	0.370339	0.333283
C81	C	0.217991	0.703672	0.666617
C82	C	-0.535394	0.038530	-0.000051
C83	C	-0.202061	0.371864	0.333283
C84	C	0.131272	0.705197	0.666616
C85	C	-0.568815	0.115039	-0.000039
C86	C	-0.235482	0.448373	0.333294
C87	C	0.097852	0.781706	0.666627
C88	C	-0.395376	0.111990	-0.000045
C89	C	-0.062042	0.445324	0.333289
C90	C	0.271291	0.778657	0.666622
C91	C	-0.301350	0.110337	-0.000051
C92	C	0.031984	0.443671	0.333283
C93	C	0.365317	0.777004	0.666616
C94	C	-0.662847	0.116693	-0.000035
C95	C	-0.329514	0.450026	0.333299
C96	C	0.003820	0.783359	0.666632
C97	C	-0.975984	0.265521	-0.000034
C98	C	-0.642651	0.598854	0.333299
C99	C	-0.309318	0.932187	0.666633
C100	C	-0.977600	0.357816	-0.000027
C101	C	-0.644266	0.691149	0.333306
C102	C	-0.310933	1.024483	0.666640
N103	N	-0.982097	0.113521	0.228129
N104	N	-0.648764	0.446854	0.561462
N105	N	-0.315431	0.780187	0.894795
N106	N	-0.982100	0.113502	-0.228220
N107	N	-0.648767	0.446836	0.105113
N108	N	-0.315433	0.780169	0.438446
C109	C	-1.038743	0.057093	0.453844
C110	C	-0.705410	0.390426	0.787178
C111	C	-0.372077	0.723760	1.120511
C112	C	-1.038746	0.057091	0.546034
C113	C	-0.705413	0.390424	0.879367
C114	C	-0.372079	0.723757	1.212701
C115	C	-0.925451	0.169936	0.546058
C116	C	-0.592118	0.503269	0.879391
C117	C	-0.258784	0.836603	1.212724
C118	C	-0.925453	0.169942	0.453870
C119	C	-0.592120	0.503275	0.787203
C120	C	-0.258787	0.836608	1.120536
C121	C	-0.982099	0.113515	0.407765
C122	C	-0.648765	0.446849	0.741099
C123	C	-0.315432	0.780182	1.074432
C124	C	-0.982099	0.113508	0.592143
C125	C	-0.648765	0.446841	0.925476
C126	C	-0.315432	0.780174	1.258810
C127	C	-0.982101	0.113506	0.692099
C128	C	-0.648768	0.446839	1.025433
C129	C	-0.315434	0.780172	1.358766
C130	C	-0.982098	0.113518	0.307803
C131	C	-0.648764	0.446851	0.641136
C132	C	-0.315431	0.780185	0.974470
H133	H	-1.120897	-0.325851	-0.000054
H134	H	-0.787564	0.007482	0.333279
H135	H	-0.454231	0.340816	0.666613
O136	O	-1.137944	-0.497263	-0.000052
O137	O	-0.804611	-0.163930	0.333281
O138	O	-0.471278	0.169404	0.666615
H139	H	-1.191398	-0.459451	-0.000068
H140	H	-0.858064	-0.126118	0.333265
H141	H	-0.524731	0.207216	0.666599
O142	O	-0.864369	0.230824	0.404173
O143	O	-0.531035	0.564157	0.737506
O144	O	-0.197702	0.897491	1.070839
H145	H	-0.799590	0.220097	0.421850
H146	H	-0.466256	0.553431	0.755184
H147	H	-0.132923	0.886764	1.088517
O148	O	-0.864353	0.230777	0.595800
O149	O	-0.531019	0.564110	0.929133
O150	O	-0.197686	0.897444	1.262467
H151	H	-0.874795	0.295635	0.578136
H152	H	-0.541462	0.628968	0.911470
H153	H	-0.208128	0.962301	1.244803
O154	O	-0.826234	-0.275700	-0.000045
O155	O	-0.492901	0.057633	0.333288
O156	O	-0.159568	0.390967	0.666621
H157	H	-0.789613	-0.287574	0.059644
H158	H	-0.456280	0.045760	0.392977
H159	H	-0.122946	0.379093	0.726310
O160	O	-1.099833	-0.003778	0.595730
O161	O	-0.766499	0.329555	0.929063
O162	O	-0.433166	0.662888	1.262396
H163	H	-1.090321	0.005697	0.667580
H164	H	-0.756987	0.339030	1.000913
H165	H	-0.423654	0.672364	1.334247
H166	H	-0.843295	-0.447127	-0.000027
H167	H	-0.509962	-0.113793	0.333306
H168	H	-0.176628	0.219540	0.666640
H169	H	-1.084869	0.011148	0.416308
H170	H	-0.751535	0.344482	0.749642
H171	H	-0.418202	0.677815	1.082975
O172	O	-0.551573	0.272534	-0.000042
O173	O	-0.218240	0.605867	0.333291
O174	O	0.115094	0.939200	0.666624
H175	H	-0.499942	0.324415	-0.000053
H176	H	-0.166609	0.657748	0.333281
H177	H	0.166724	0.991081	0.666614
O178	O	-0.371318	0.269364	-0.000036
O179	O	-0.037984	0.602697	0.333297
O180	O	0.295349	0.936030	0.666630
H181	H	-0.409130	0.322817	-0.000023
H182	H	-0.075796	0.656151	0.333310
H183	H	0.257537	0.989484	0.666644
H184	H	-0.578788	-0.022530	-0.000056
H185	H	-0.245455	0.310803	0.333278
H186	H	0.087878	0.644136	0.666611
O187	O	-0.412631	-0.045513	-0.000056
O188	O	-0.079297	0.287820	0.333277
O189	O	0.254036	0.621153	0.666611
H190	H	-0.343376	-0.033979	-0.000047
H191	H	-0.010043	0.299355	0.333286
H192	H	0.323291	0.632688	0.666620
