data_functionalizedCrystal
_audit_creation_method	'MofGen! by Chris Wilmer'
_symmetry_space_group_name_H-M	'P1'
_symmetry_Int_Tables_number	1
_symmetry_cell_setting	triclinic
loop_
_symmetry_equiv_pos_as_xyz
  x,y,z
_cell_length_a	15.624803
_cell_length_b	14.750779
_cell_length_c	16.109301
_cell_angle_alpha	77.359896
_cell_angle_beta	96.137122
_cell_angle_gamma	94.868986
loop_
_atom_site_label
_atom_site_type_symbol
_atom_site_fract_x
_atom_site_fract_y
_atom_site_fract_z
O1	O	1.084132	0.457312	-0.211690
O2	O	1.584132	0.957312	0.288310
O3	O	0.842281	0.373105	-0.205631
O4	O	1.342281	0.873105	0.294369
O5	O	0.969852	0.417513	-0.088160
O6	O	1.469852	0.917513	0.411840
O7	O	0.956560	0.412904	-0.329162
O8	O	1.456560	0.912904	0.170838
O9	O	1.005915	0.270416	-0.054956
O10	O	1.505915	0.770416	0.445044
O11	O	0.878344	0.226008	-0.172427
O12	O	1.378344	0.726008	0.327573
O13	O	1.120195	0.310216	-0.178487
O14	O	1.620195	0.810216	0.321513
Zn15	Zn	1.004995	0.244757	-0.170185
Zn16	Zn	1.504995	0.744757	0.329815
Zn17	Zn	0.957481	0.438563	-0.213933
Zn18	Zn	1.457481	0.938563	0.286067
O19	O	0.992623	0.265808	-0.295958
O20	O	1.492623	0.765808	0.204042
C21	C	0.829364	0.288781	-0.186014
C22	C	1.329364	0.788781	0.313986
C23	C	0.737149	0.256673	-0.177017
C24	C	1.237149	0.756673	0.322983
C25	C	0.335648	0.552076	-0.237901
C26	C	0.835648	1.052076	0.262099
C27	C	0.249001	0.521905	-0.229431
C28	C	0.749001	1.021905	0.270569
C29	C	0.288294	0.361539	-0.193231
C30	C	0.788294	0.861539	0.306769
C31	C	0.374947	0.391696	-0.201694
C32	C	0.874947	0.891696	0.298306
C33	C	0.398617	0.486966	-0.224030
C34	C	0.898617	0.986966	0.275970
C35	C	0.437916	0.326586	-0.187823
C36	C	0.937916	0.826586	0.312177
C37	C	0.524561	0.356742	-0.196290
C38	C	1.024561	0.856742	0.303710
C39	C	0.548237	0.452007	-0.218628
C40	C	1.048237	0.952007	0.281372
C41	C	0.485262	0.517121	-0.232497
C42	C	0.985262	1.017121	0.267503
C43	C	0.414244	0.231317	-0.165494
C44	C	0.914244	0.731317	0.334506
C45	C	0.477212	0.166207	-0.151623
C46	C	0.977212	0.666207	0.348377
C47	C	0.563860	0.196362	-0.160084
C48	C	1.063860	0.696362	0.339916
C49	C	0.587536	0.291628	-0.182421
C50	C	1.087536	0.791628	0.317579
C51	C	0.626835	0.131248	-0.146214
C52	C	1.126835	0.631248	0.353786
C53	C	0.713480	0.161404	-0.154681
C54	C	1.213480	0.661404	0.345319
C55	C	0.674181	0.321783	-0.190888
C56	C	1.174181	0.821783	0.309112
N57	N	1.037428	0.112492	-0.140329
N58	N	1.537428	0.612492	0.359671
C59	C	0.834472	-0.309976	-0.327132
C60	C	1.334472	0.190024	0.172868
C61	C	0.857205	-0.402562	-0.306216
C62	C	1.357205	0.097438	0.193784
C63	C	0.970193	-0.363193	-0.202238
C64	C	1.470193	0.136807	0.297762
C65	C	0.947466	-0.270603	-0.223142
C66	C	1.447466	0.229397	0.276858
C67	C	0.879606	-0.244003	-0.285590
C68	C	1.379606	0.255997	0.214410
C69	C	0.992600	-0.204630	-0.181601
C70	C	1.492600	0.295370	0.318399
C71	C	0.969878	-0.112047	-0.202507
C72	C	1.469878	0.387953	0.297493
C73	C	0.902022	-0.085438	-0.264954
C74	C	1.402022	0.414562	0.235046
C75	C	0.856883	-0.151420	-0.306496
C76	C	1.356883	0.348580	0.193504
C77	C	1.060465	-0.231231	-0.119158
C78	C	1.560465	0.268769	0.380842
C79	C	1.105599	-0.165257	-0.077616
C80	C	1.605599	0.334743	0.422384
C81	C	1.082873	-0.072674	-0.098517
C82	C	1.582873	0.427326	0.401483
C83	C	1.015017	-0.046065	-0.160964
C84	C	1.515017	0.453935	0.339036
C85	C	1.128011	-0.006692	-0.056975
C86	C	1.628011	0.493308	0.443025
C87	C	1.105289	0.085891	-0.077881
C88	C	1.605289	0.585891	0.422119
C89	C	0.992294	0.046518	-0.181870
C90	C	1.492294	0.546518	0.318130
C91	C	1.133111	0.394542	-0.198105
C92	C	1.633111	0.894542	0.301895
C93	C	1.225324	0.426655	-0.207103
C94	C	1.725324	0.926655	0.292897
C95	C	0.987346	0.343777	-0.040540
C96	C	1.487346	0.843777	0.459460
C97	C	0.985732	0.343213	0.051885
C98	C	1.485732	0.843213	0.551885
N99	N	0.925054	0.570831	-0.243783
N100	N	1.425054	1.070831	0.256217
C101	C	0.975129	0.339546	-0.343579
C102	C	1.475129	0.839546	0.156421
C103	C	0.976741	0.340115	-0.436005
C104	C	1.476741	0.840115	0.063995
C105	C	1.057674	0.368277	0.268396
C106	C	1.557674	0.868277	0.768396
C107	C	1.056149	0.367754	0.355236
C108	C	1.556149	0.867754	0.855236
C109	C	0.904793	0.315052	0.347478
C110	C	1.404793	0.815052	0.847478
C111	C	0.906317	0.315581	0.260637
C112	C	1.406317	0.815581	0.760637
C113	C	0.982761	0.342190	0.221100
C114	C	1.482761	0.842190	0.721100
C115	C	0.979713	0.341138	0.394781
C116	C	1.479713	0.841138	0.894781
C117	C	0.978059	0.340571	0.488937
C118	C	1.478059	0.840571	0.988937
C119	C	0.984415	0.342759	0.126937
C120	C	1.484415	0.842759	0.626937
H121	H	0.764751	0.108384	-0.143391
H122	H	1.264751	0.608384	0.356609
H123	H	1.117151	0.388999	0.393741
H124	H	1.617151	0.888999	0.893741
H125	H	0.845310	0.294339	0.222127
H126	H	1.345310	0.794339	0.722127
H127	H	0.842556	0.293385	0.379680
H128	H	1.342556	0.793385	0.879680
Cl129	Cl	1.153774	0.401731	0.218694
Cl130	Cl	1.653774	0.901731	0.718694
H131	H	1.078965	-0.306618	-0.102142
H132	H	1.578965	0.193382	0.397858
Cl133	Cl	0.365412	0.671846	-0.265970
Cl134	Cl	0.865412	1.171846	0.234030
Cl135	Cl	1.213328	-0.040140	0.021519
Cl136	Cl	1.713328	0.459860	0.521519
Cl137	Cl	0.169840	0.603769	-0.246874
Cl138	Cl	0.669840	1.103769	0.253126
H139	H	0.504534	0.594699	-0.250682
H140	H	1.004534	1.094699	0.249318
H141	H	0.618789	0.476558	-0.225526
H142	H	1.118789	0.976558	0.274474
H143	H	0.693453	0.399361	-0.209073
H144	H	1.193453	0.899361	0.290927
Cl145	Cl	0.258529	0.241775	-0.165156
Cl146	Cl	0.758529	0.741775	0.334844
Cl147	Cl	0.305316	0.193407	-0.154854
Cl148	Cl	0.805316	0.693407	0.345146
H149	H	0.607548	0.053679	-0.128036
H150	H	1.107548	0.553679	0.371964
Cl151	Cl	0.447447	0.046444	-0.123548
Cl152	Cl	0.947447	0.546444	0.376452
Cl153	Cl	0.906973	0.079959	-0.260369
Cl154	Cl	1.406973	0.579959	0.239631
H155	H	1.025448	-0.384862	-0.151395
H156	H	1.525448	0.115138	0.348605
Cl157	Cl	0.873460	0.030955	-0.291239
Cl158	Cl	1.373460	0.530955	0.208761
Cl159	Cl	0.771562	-0.117980	-0.384995
Cl160	Cl	1.271562	0.382020	0.115005
H161	H	0.779207	-0.288321	-0.377977
H162	H	1.279207	0.211679	0.122023
Cl163	Cl	1.162034	0.168833	-0.025658
Cl164	Cl	1.662034	0.668833	0.474342
Cl165	Cl	0.800456	-0.485496	-0.358452
Cl166	Cl	1.300456	0.014504	0.141548
H167	H	1.160854	-0.186926	-0.026773
H168	H	1.660854	0.313074	0.473227
