data_functionalizedCrystal
_audit_creation_method	'MofGen! by Chris Wilmer'
_symmetry_space_group_name_H-M	'P1'
_symmetry_Int_Tables_number	1
_symmetry_cell_setting	triclinic
loop_
_symmetry_equiv_pos_as_xyz
  x,y,z
_cell_length_a	11.026607
_cell_length_b	10.654550
_cell_length_c	9.730223
_cell_angle_alpha	90.003749
_cell_angle_beta	89.999947
_cell_angle_gamma	83.464540
loop_
_atom_site_label
_atom_site_type_symbol
_atom_site_fract_x
_atom_site_fract_y
_atom_site_fract_z
O1	O	0.170762	-1.704901	-0.114401
O2	O	0.187032	-1.342954	-0.114379
O3	O	0.001991	-1.493930	-0.114383
O4	O	0.355802	-1.553926	-0.114397
O5	O	0.001996	-1.493929	0.114196
O6	O	0.187036	-1.342953	0.114201
O7	O	0.170767	-1.704900	0.114179
Zn8	Zn	0.178902	-1.523926	0.150482
Zn9	Zn	0.178896	-1.523928	-0.150682
O10	O	0.355807	-1.553924	0.114183
C11	C	0.185839	-1.295897	-0.000086
C12	C	0.182265	-1.155677	-0.000078
C13	C	0.171959	-1.751958	-0.000117
C14	C	0.175533	-1.892177	-0.000135
C15	C	-0.043310	-1.482861	-0.000094
C16	C	-0.178302	-1.449867	-0.000097
C17	C	-0.251341	-1.540970	-0.000105
C18	C	-0.390862	-1.506871	-0.000108
C19	C	0.401109	-1.564993	-0.000109
C20	C	0.536100	-1.597988	-0.000115
N21	N	0.178906	-1.523934	0.356018
C22	C	0.291214	-1.099841	-0.000102
C23	C	0.287849	-0.968090	-0.000126
C24	C	0.066576	-0.948022	-0.000107
C25	C	0.069943	-1.079771	-0.000073
C26	C	0.418964	-1.111426	-0.000119
C27	C	0.415599	-0.979675	-0.000143
N28	N	0.178883	-1.523928	-0.356219
C29	C	0.096998	-1.590814	0.427942
C30	C	0.096983	-1.590808	0.571825
C31	C	0.260795	-1.457040	0.571847
C32	C	0.260803	-1.457040	0.427967
C33	C	0.002426	-1.668049	0.427931
C34	C	0.002411	-1.668043	0.571814
H35	H	-0.210581	-1.644212	-0.000103
H36	H	-0.431617	-1.403623	-0.000111
C37	C	-0.123798	-1.611647	0.375161
H38	H	-0.123785	-1.611653	0.277524
H39	H	-0.141153	-1.527459	0.407708
H40	H	-0.184322	-1.661044	0.407681
C41	C	-0.408857	-1.737468	-0.000111
H42	H	-0.322304	-1.742092	-0.000096
H43	H	-0.435144	-1.778188	-0.079820
H44	H	-0.435151	-1.778166	0.079612
C45	C	0.486473	-1.165712	0.129098
H46	H	0.511940	-1.098631	0.182228
H47	H	0.555844	-1.221554	0.102522
H48	H	0.433269	-1.210425	0.182275
H49	H	0.327472	-1.402575	0.630443
H50	H	0.032038	-1.765661	0.383298
C51	C	-0.233353	-1.310395	-0.000090
H52	H	-0.319906	-1.305773	-0.000084
H53	H	-0.207060	-1.269681	-0.079795
H54	H	-0.207068	-1.269686	0.079636
C55	C	0.473923	-1.171534	-0.133427
H56	H	0.496074	-1.107133	-0.192811
H57	H	0.415323	-1.216434	-0.177707
H58	H	0.544299	-1.228106	-0.112000
C59	C	0.030557	-1.804519	0.624576
H60	H	0.030535	-1.804508	0.722214
H61	H	0.108429	-1.839305	0.592050
H62	H	-0.029947	-1.853932	0.592031
C63	C	-0.116890	-1.600949	0.632104
H64	H	-0.170011	-1.571079	0.559390
H65	H	-0.099036	-1.531686	0.687065
H66	H	-0.155236	-1.658709	0.687039
H67	H	0.454208	-0.942384	0.098540
C68	C	0.480608	-0.937396	-0.129379
H69	H	0.478332	-0.847992	-0.129381
H70	H	0.440508	-0.963496	-0.209091
H71	H	0.563102	-0.974604	-0.129376
C72	C	-0.049897	-1.141193	-0.000034
H73	H	-0.031808	-1.230530	-0.000003
H74	H	-0.095918	-1.115499	-0.079741
H75	H	-0.095893	-1.115457	0.079691
C76	C	-0.056969	-0.864521	-0.000115
H77	H	-0.043372	-0.778059	-0.000147
H78	H	-0.101876	-0.881970	0.079600
H79	H	-0.101872	-0.882011	-0.079831
C80	C	0.350894	-1.383463	0.348854
H81	H	0.399672	-1.343635	0.412314
H82	H	0.306684	-1.321204	0.292727
H83	H	0.401927	-1.440170	0.292729
