data_functionalizedCrystal
_audit_creation_method	'MofGen! by Chris Wilmer'
_symmetry_space_group_name_H-M	'P1'
_symmetry_Int_Tables_number	1
_symmetry_cell_setting	triclinic
loop_
_symmetry_equiv_pos_as_xyz
  x,y,z
_cell_length_a	12.645331
_cell_length_b	18.101395
_cell_length_c	12.645323
_cell_angle_alpha	89.971733
_cell_angle_beta	89.977324
_cell_angle_gamma	90.030083
loop_
_atom_site_label
_atom_site_type_symbol
_atom_site_fract_x
_atom_site_fract_y
_atom_site_fract_z
Zn1	Zn	1.620632	-0.294844	-0.599421
Zn2	Zn	1.620473	-0.418694	-0.422151
Zn3	Zn	1.443347	-0.294869	-0.422166
Zn4	Zn	1.443287	-0.418646	-0.599366
O5	O	1.531935	-0.356763	-0.510776
O6	O	1.768958	-0.311283	-0.575923
O7	O	1.596935	-0.402299	-0.273805
O8	O	1.466956	-0.191233	-0.445708
O9	O	1.768841	-0.402275	-0.445683
O10	O	1.597207	-0.191214	-0.575937
O11	O	1.466801	-0.311325	-0.273816
O12	O	1.294992	-0.311278	-0.445655
O13	O	1.466854	-0.402193	-0.747721
O14	O	1.294948	-0.402217	-0.575843
O15	O	1.597149	-0.311236	-0.747761
O16	O	1.596877	-0.522321	-0.445630
O17	O	1.466699	-0.522285	-0.575829
C18	C	1.256505	-0.356746	-0.510745
C19	C	1.138675	-0.356756	-0.510757
C20	C	0.971103	-0.299284	-0.429308
C21	C	1.093663	-0.299432	-0.428949
C22	C	1.094129	-0.434770	-0.480236
C23	C	0.971530	-0.434456	-0.479680
C24	C	0.971532	-0.336957	-0.623043
C25	C	1.094139	-0.335215	-0.622419
C26	C	1.531793	-0.549174	-0.510745
C27	C	1.531829	-0.631488	-0.510767
C28	C	1.532062	-0.930579	-0.510824
C29	C	1.450348	-0.899262	-0.592945
C30	C	1.449960	-0.813644	-0.592688
C31	C	1.531946	-0.782196	-0.510797
C32	C	1.501694	-0.813349	-0.399071
C33	C	1.501167	-0.898994	-0.399562
C34	C	1.644207	-0.898924	-0.539445
C35	C	1.643548	-0.813273	-0.541895
C36	C	1.531883	-0.698337	-0.510774
C37	C	1.532123	-1.014438	-0.510839
C38	C	1.808440	-0.356781	-0.510807
C39	C	1.926270	-0.356789	-0.510821
C40	C	1.532013	-0.356706	-0.787281
C41	C	1.532046	-0.356682	-0.905112
C42	C	1.532106	-0.163601	-0.510830
C43	C	1.532179	-0.081287	-0.510854
C44	C	1.449825	-0.413633	-1.072650
C45	C	1.450040	-0.413915	-0.950090
C46	C	1.643739	-0.377863	-0.949630
C47	C	1.643288	-0.378220	-1.072228
C48	C	1.503631	-0.278231	-1.072316
C49	C	1.501139	-0.278701	-0.949710
C50	C	1.531918	-0.356767	-0.235346
C51	C	1.532090	-0.356583	-0.117517
H52	H	1.122937	-0.312540	-0.345787
H53	H	1.668278	-0.434540	-0.918936
H54	H	1.123283	-0.478761	-0.537743
O55	O	1.670959	-0.788977	-0.639932
C56	C	1.796197	-0.720192	-0.744654
C57	C	1.765291	-0.747656	-0.633563
H58	H	1.872454	-0.686765	-0.739538
H59	H	1.808670	-0.769563	-0.799184
H60	H	1.730291	-0.683871	-0.777475
H61	H	1.831159	-0.783964	-0.600646
H62	H	1.752782	-0.698252	-0.579105
H63	H	1.468825	-0.472001	-0.920771
H64	H	1.123262	-0.277805	-0.645434
H65	H	1.671788	-0.920471	-0.619527
O66	O	1.351244	-0.398207	-0.914050
C67	C	1.201832	-0.439754	-0.811684
C68	C	1.313730	-0.457626	-0.852397
H69	H	1.171459	-0.487790	-0.761848
H70	H	1.204493	-0.387552	-0.761354
H71	H	1.146671	-0.430706	-0.881786
H72	H	1.368953	-0.466710	-0.782359
H73	H	1.310985	-0.509810	-0.902760
H74	H	1.558102	-0.919713	-0.336289
O75	O	0.935930	-0.230043	-0.451702
C76	C	0.838282	-0.124083	-0.390455
C77	C	0.878081	-0.202485	-0.364936
H78	H	0.791485	-0.101785	-0.320330
H79	H	0.908671	-0.086375	-0.406753
H80	H	0.785163	-0.126068	-0.463221
H81	H	0.931183	-0.200570	-0.292158
H82	H	0.807644	-0.240161	-0.348703
H83	H	1.559338	-0.792980	-0.336216
H84	H	1.468888	-0.792579	-0.675532
H85	H	1.706659	-0.338471	-1.101910
H86	H	1.124778	-0.451877	-0.399076
H87	H	0.941871	-0.478752	-0.536461
H88	H	1.468427	-0.471356	-1.103464
O89	O	1.408249	-0.255101	-1.109292
C90	C	1.313156	-0.162458	-1.207654
C91	C	1.421248	-0.188568	-1.165864
H92	H	1.323626	-0.108655	-1.253383
H93	H	1.278571	-0.206390	-1.262193
H94	H	1.257230	-0.152976	-1.138249
H95	H	1.477253	-0.198044	-1.235202
H96	H	1.455746	-0.144623	-1.111295
H97	H	1.366835	-0.793220	-0.573730
H98	H	1.123783	-0.241582	-0.448080
O99	O	1.575186	-0.227515	-1.106756
C100	C	1.707197	-0.137646	-1.058357
C101	C	1.626215	-0.195062	-1.019203
H102	H	1.748461	-0.111380	-0.987590
H103	H	1.768342	-0.165956	-1.110747
H104	H	1.664680	-0.093056	-1.105730
H105	H	1.668641	-0.239668	-0.971786
H106	H	1.565075	-0.166699	-0.966868
H107	H	1.706675	-0.337625	-0.920498
O108	O	1.672035	-0.446599	-1.106184
C109	C	1.724541	-0.569828	-1.056826
C110	C	1.691977	-0.492425	-1.018235
H111	H	1.740695	-0.606895	-0.985741
H112	H	1.657990	-0.594590	-1.106231
H113	H	1.799123	-0.565285	-1.107092
H114	H	1.617420	-0.496904	-0.967928
H115	H	1.758590	-0.467692	-0.968887
O116	O	1.403299	-0.922785	-0.370672
C117	C	1.226941	-0.888431	-0.317873
C118	C	1.337726	-0.861392	-0.350597
H119	H	1.173900	-0.838810	-0.301611
H120	H	1.191447	-0.922946	-0.384384
H121	H	1.233488	-0.923564	-0.243317
H122	H	1.331271	-0.826230	-0.425127
H123	H	1.373179	-0.826917	-0.284023
O124	O	1.716967	-0.923115	-0.468246
C125	C	1.878120	-0.991358	-0.440284
C126	C	1.795823	-0.963989	-0.521033
H127	H	1.941884	-1.024423	-0.482928
H128	H	1.915794	-0.941954	-0.398981
H129	H	1.837559	-1.028002	-0.379143
H130	H	1.836304	-0.927358	-0.582238
H131	H	1.758154	-1.013427	-0.562256
H132	H	1.420584	-0.791963	-0.374392
O133	O	0.937120	-0.386974	-0.695513
C134	C	0.985568	-0.479247	-0.823966
C135	C	1.024690	-0.422642	-0.741920
H136	H	1.056348	-0.508089	-0.861525
H137	H	0.933147	-0.521945	-0.783324
H138	H	0.938234	-0.449570	-0.887846
H139	H	1.072068	-0.452255	-0.678018
H140	H	1.077055	-0.379947	-0.782637
H141	H	1.707650	-0.791861	-0.486442
O142	O	0.937520	-0.454495	-0.381737
C143	C	0.986780	-0.491096	-0.205271
C144	C	1.025433	-0.468397	-0.316139
H145	H	1.057836	-0.502357	-0.152210
H146	H	0.937364	-0.444590	-0.169917
H147	H	0.936509	-0.543202	-0.211633
H148	H	1.075745	-0.416309	-0.309869
H149	H	1.074791	-0.514946	-0.351452
O150	O	1.403011	-0.259663	-0.915172
C151	C	1.224615	-0.227290	-0.963410
C152	C	1.335689	-0.248856	-1.002675
H153	H	1.170161	-0.218532	-1.034136
H154	H	1.191632	-0.273302	-0.911363
H155	H	1.229849	-0.174015	-0.915650
H156	H	1.330546	-0.302113	-1.050479
H157	H	1.368631	-0.202800	-1.054667
H158	H	1.366755	-0.400505	-1.102125
H159	H	0.940251	-0.312246	-0.346636
O160	O	0.934585	-0.270339	-0.656290
C161	C	0.836298	-0.203958	-0.789014
C162	C	0.878057	-0.279455	-0.751486
H163	H	0.790606	-0.211301	-0.865996
H164	H	0.781734	-0.179775	-0.726158
H165	H	0.905717	-0.164894	-0.802702
H166	H	0.808705	-0.318575	-0.737808
H167	H	0.932653	-0.303579	-0.814361
H168	H	1.124783	-0.374044	-0.686401
H169	H	1.469088	-0.919809	-0.676057
O170	O	1.351853	-0.925133	-0.570592
C171	C	1.240172	-1.032137	-0.550573
C172	C	1.351768	-1.002937	-0.575889
H173	H	1.240061	-1.095044	-0.554869
H174	H	1.216298	-1.013894	-0.467659
H175	H	1.181515	-1.009081	-0.610530
H176	H	1.410501	-1.025980	-0.516001
H177	H	1.375553	-1.021174	-0.658831
O178	O	1.567260	-0.225263	-0.913070
C179	C	1.583583	-0.111767	-0.814903
C180	C	1.508574	-0.172240	-0.856312
H181	H	1.536162	-0.068874	-0.769025
H182	H	1.645235	-0.137664	-0.760592
H183	H	1.624881	-0.083969	-0.884512
H184	H	1.467203	-0.200060	-0.786770
H185	H	1.446988	-0.146301	-0.910655
