data_functionalizedCrystal
_audit_creation_method	'MofGen! by Chris Wilmer'
_symmetry_space_group_name_H-M	'P1'
_symmetry_Int_Tables_number	1
_symmetry_cell_setting	triclinic
loop_
_symmetry_equiv_pos_as_xyz
  x,y,z
_cell_length_a	13.032831
_cell_length_b	25.639239
_cell_length_c	13.033255
_cell_angle_alpha	97.151592
_cell_angle_beta	76.666554
_cell_angle_gamma	82.842759
loop_
_atom_site_label
_atom_site_type_symbol
_atom_site_fract_x
_atom_site_fract_y
_atom_site_fract_z
Zn1	Zn	1.699817	-0.367531	-0.806304
Zn2	Zn	2.199817	0.132469	-0.306304
Zn3	Zn	1.677095	-0.442241	-0.628671
Zn4	Zn	2.177095	0.057759	-0.128671
Zn5	Zn	1.499664	-0.342104	-0.606207
Zn6	Zn	1.999664	0.157896	-0.106207
Zn7	Zn	1.522107	-0.442194	-0.783713
Zn8	Zn	2.022107	0.057806	-0.283713
O9	O	1.599671	-0.398517	-0.706224
O10	O	2.099671	0.101483	-0.206224
O11	O	1.845430	-0.388103	-0.801596
O12	O	2.345430	0.111897	-0.301596
O13	O	1.634657	-0.418336	-0.477065
O14	O	2.134657	0.081664	0.022935
O15	O	1.526332	-0.272322	-0.632803
O16	O	2.026332	0.227678	-0.132803
O17	O	1.828737	-0.442992	-0.671091
O18	O	2.328737	0.057008	-0.171091
O19	O	1.673383	-0.291004	-0.779813
O20	O	2.173383	0.208996	-0.279813
O21	O	1.504300	-0.344765	-0.460560
O22	O	2.004300	0.155235	0.039440
O23	O	1.354014	-0.344719	-0.610897
O24	O	1.854014	0.155281	-0.110897
O25	O	1.564582	-0.442912	-0.935336
O26	O	2.064582	0.057088	-0.435336
O27	O	1.370502	-0.418255	-0.741310
O28	O	1.870502	0.081745	-0.241310
O29	O	1.695144	-0.388057	-0.951934
O30	O	2.195144	0.111943	-0.451934
O31	O	1.656419	-0.515389	-0.649185
O32	O	2.156419	-0.015389	-0.149185
O33	O	1.542550	-0.515355	-0.763093
O34	O	2.042550	-0.015355	-0.263093
C35	C	1.323721	-0.378724	-0.671215
C36	C	1.823721	0.121276	-0.171215
C37	C	1.205671	-0.370270	-0.656264
C38	C	1.705671	0.129730	-0.156264
C39	C	1.161214	-0.402929	-0.714027
C40	C	1.661214	0.097071	-0.214027
C41	C	1.039204	-0.394193	-0.698575
C42	C	1.539204	0.105807	-0.198575
C43	C	1.599486	-0.534344	-0.706152
C44	C	2.099486	-0.034344	-0.206152
C45	C	1.599509	-0.592460	-0.706170
C46	C	2.099509	-0.092460	-0.206170
C47	C	1.659154	-0.952863	-0.647050
C48	C	2.159154	-0.452863	-0.147050
C49	C	1.659197	-1.007472	-0.647069
C50	C	2.159197	-0.507472	-0.147069
O51	O	1.709718	-1.035725	-0.596727
O52	O	2.209718	-0.535725	-0.096727
N53	N	1.599866	-1.034775	-0.706318
N54	N	2.099866	-0.534775	-0.206318
C55	C	1.540497	-1.007468	-0.765559
C56	C	2.040497	-0.507468	-0.265559
O57	O	1.490036	-1.035706	-0.815957
O58	O	1.990036	-0.535706	-0.315957
C59	C	1.540461	-0.952861	-0.765545
C60	C	2.040461	-0.452861	-0.265545
C61	C	1.599787	-0.925560	-0.706284
C62	C	2.099787	-0.425560	-0.206284
C63	C	1.718477	-0.925562	-0.587795
C64	C	2.218477	-0.425562	-0.087795
C65	C	1.718432	-0.870957	-0.587774
C66	C	2.218432	-0.370957	-0.087774
C67	C	1.659065	-0.843654	-0.647008
C68	C	2.159065	-0.343654	-0.147008
C69	C	1.599742	-0.870955	-0.706263
C70	C	2.099742	-0.370955	-0.206263
C71	C	1.481098	-0.925556	-0.824792
C72	C	1.981098	-0.425556	-0.324792
C73	C	1.481068	-0.870946	-0.824773
C74	C	1.981068	-0.370946	-0.324773
C75	C	1.540394	-0.843645	-0.765512
C76	C	2.040394	-0.343645	-0.265512
C77	C	1.540331	-0.789047	-0.765477
C78	C	2.040331	-0.289047	-0.265477
N79	N	1.599661	-0.761744	-0.706229
N80	N	2.099661	-0.261744	-0.206229
C81	C	1.659029	-0.789047	-0.646994
C82	C	2.159029	-0.289047	-0.146994
C83	C	1.540579	-1.122145	-0.765586
C84	C	2.040579	-0.622145	-0.265586
C85	C	1.540609	-1.176750	-0.765594
C86	C	2.040609	-0.676750	-0.265594
C87	C	1.659311	-1.176750	-0.647106
C88	C	2.159311	-0.676750	-0.147106
C89	C	1.659275	-1.122144	-0.647092
C90	C	2.159275	-0.622144	-0.147092
C91	C	1.599910	-1.094842	-0.706337
C92	C	2.099910	-0.594842	-0.206337
C93	C	1.658929	-0.674374	-0.646954
C94	C	2.158929	-0.174374	-0.146954
C95	C	1.658876	-0.619764	-0.646935
C96	C	2.158876	-0.119764	-0.146935
C97	C	1.540179	-0.619769	-0.765428
C98	C	2.040179	-0.119769	-0.265428
C99	C	1.540227	-0.674373	-0.765443
C100	C	2.040227	-0.174373	-0.265443
C101	C	1.599611	-0.701675	-0.706204
C102	C	2.099611	-0.201675	-0.206204
O103	O	1.489839	-0.760759	-0.815797
O104	O	1.989839	-0.260759	-0.315797
O105	O	1.709492	-0.760804	-0.596616
O106	O	2.209492	-0.260804	-0.096616
C107	C	1.876699	-0.418389	-0.741369
C108	C	2.376699	0.081611	-0.241369
C109	C	1.994751	-0.426857	-0.756346
C110	C	2.494751	0.073143	-0.256346
C111	C	1.634901	-0.418316	-0.983250
C112	C	2.134901	0.081684	-0.483250
C113	C	1.649914	-0.426752	-1.101302
C114	C	2.149914	0.073248	-0.601302
C115	C	1.599888	-0.262164	-0.706322
C116	C	2.099888	0.237836	-0.206322
C117	C	1.599981	-0.204059	-0.706364
C118	C	2.099981	0.295941	-0.206364
C119	C	1.607632	-0.402832	-1.267785
C120	C	2.107632	0.097168	-0.767785
C121	C	1.592106	-0.394110	-1.145771
C122	C	2.092106	0.105890	-0.645771
C123	C	1.564639	-0.378763	-0.430283
C124	C	2.064639	0.121237	0.069717
C125	C	1.549832	-0.370194	-0.312258
C126	C	2.049832	0.129806	0.187742
H127	H	1.047014	-0.461286	-0.817250
H128	H	1.547014	0.038714	-0.317250
Br129	Br	1.490454	-0.336774	-1.058688
Br130	Br	1.990454	0.163226	-0.558688
Br131	Br	1.448184	-0.312860	-1.225172
Br132	Br	1.948184	0.187140	-0.725172
H133	H	1.213482	-0.437356	-0.774923
H134	H	1.713482	0.062644	-0.274923
H135	H	1.710900	-0.461154	-1.153552
H136	H	2.210900	0.038846	-0.653552
Br137	Br	1.459617	-0.582704	-0.845818
Br138	Br	1.959617	-0.082704	-0.345818
H139	H	1.153405	-0.335840	-0.595376
H140	H	1.653405	0.164160	-0.095376
H141	H	1.707288	-0.696596	-0.598719
H142	H	2.207288	-0.196596	-0.098719
Br143	Br	1.709260	-0.460174	-1.354869
Br144	Br	2.209260	0.039826	-0.854869
H145	H	1.766744	-0.848732	-0.539522
H146	H	2.266744	-0.348732	-0.039522
Br147	Br	0.952105	-0.336801	-0.597084
Br148	Br	1.452105	0.163199	-0.097084
Br149	Br	1.739393	-0.582715	-0.566502
Br150	Br	2.239393	-0.082715	-0.066502
H151	H	1.766827	-0.947787	-0.539560
H152	H	2.266827	-0.447787	-0.039560
H153	H	1.707584	-1.099918	-0.598837
H154	H	2.207584	-0.599918	-0.098837
H155	H	1.492288	-1.198973	-0.813839
H156	H	1.992288	-0.698973	-0.313839
H157	H	1.707655	-1.198991	-0.598878
H158	H	2.207655	-0.698991	-0.098878
Br159	Br	1.459998	-1.085098	-0.845990
Br160	Br	1.959998	-0.585098	-0.345990
H161	H	1.432783	-0.947775	-0.873043
H162	H	1.932783	-0.447775	-0.373043
H163	H	1.491923	-0.696604	-0.813702
H164	H	1.991923	-0.196604	-0.313702
Br165	Br	1.400502	-0.833898	-0.905187
Br166	Br	1.900502	-0.333898	-0.405187
