data_functionalizedCrystal
_audit_creation_method	'MofGen! by Chris Wilmer'
_symmetry_space_group_name_H-M	'P1'
_symmetry_Int_Tables_number	1
_symmetry_cell_setting	triclinic
loop_
_symmetry_equiv_pos_as_xyz
  x,y,z
_cell_length_a	11.792241
_cell_length_b	15.995350
_cell_length_c	10.868271
_cell_angle_alpha	89.997096
_cell_angle_beta	89.999893
_cell_angle_gamma	83.842895
loop_
_atom_site_label
_atom_site_type_symbol
_atom_site_fract_x
_atom_site_fract_y
_atom_site_fract_z
O1	O	1.505951	0.114763	-0.102196
O2	O	1.175511	0.126591	-0.102224
O3	O	1.349764	-0.001170	-0.102208
O4	O	1.331698	0.242524	-0.102212
O5	O	1.349750	-0.001175	0.102436
O6	O	1.175497	0.126586	0.102420
O7	O	1.505937	0.114758	0.102448
Zn8	Zn	1.340715	0.120671	0.134926
Zn9	Zn	1.340734	0.120678	-0.134702
O10	O	1.331684	0.242519	0.102432
C11	C	1.133220	0.125845	0.000094
C12	C	1.007224	0.123621	0.000084
C13	C	0.776546	0.119532	0.000119
C14	C	0.904913	0.121804	0.000099
C15	C	1.349010	-0.032370	0.000112
C16	C	1.346771	-0.125331	0.000104
C17	C	1.338730	-0.463115	0.000108
C18	C	1.214630	-0.416244	-0.000362
C19	C	1.216870	-0.319544	0.000100
C20	C	1.342718	-0.295536	0.000105
C21	C	1.403921	-0.336339	0.116971
C22	C	1.400803	-0.432989	0.117068
C23	C	1.403383	-0.433329	-0.115651
C24	C	1.403354	-0.336384	-0.117195
C25	C	1.344979	-0.200829	0.000108
C26	C	1.336473	-0.557823	0.000113
C27	C	1.548229	0.115504	0.000127
C28	C	1.674224	0.117727	0.000130
C29	C	1.332438	0.273719	0.000110
C30	C	1.334677	0.366680	0.000109
N31	N	1.340710	0.120666	0.318940
N32	N	1.340747	0.120676	-0.318716
C33	C	1.340728	0.120676	0.569946
C34	C	1.340714	0.120673	0.430269
H35	H	1.168760	-0.291338	-0.083674
H36	H	1.494881	-0.464675	-0.116432
H37	H	1.165035	-0.434999	-0.084168
O38	O	1.350132	-0.303922	-0.220308
C39	C	1.354734	-0.216227	-0.223289
H40	H	1.429270	-0.199523	-0.164717
H41	H	1.366918	-0.195293	-0.322241
H42	H	1.271737	-0.182953	-0.185323
O43	O	1.512834	-0.317518	-0.125400
C44	C	1.537099	-0.266689	-0.024815
H45	H	1.476303	-0.276645	0.054108
H46	H	1.628744	-0.284524	0.006584
H47	H	1.525874	-0.197798	-0.053801
O48	O	1.155597	-0.439968	0.098918
C49	C	1.058671	-0.476797	0.058807
H50	H	1.073252	-0.501360	-0.039006
H51	H	1.043281	-0.531116	0.122423
H52	H	0.981105	-0.427699	0.060570
H53	H	1.168425	-0.291901	0.084008
O54	O	1.347352	-0.455012	0.221186
C55	C	1.235312	-0.414171	0.223683
H56	H	1.206813	-0.396563	0.125977
H57	H	1.175457	-0.458098	0.264973
H58	H	1.233067	-0.354828	0.282118
O59	O	1.509549	-0.470882	0.123257
C60	C	1.571757	-0.447052	0.020609
H61	H	1.529881	-0.384820	-0.017367
H62	H	1.662982	-0.439510	0.049703
H63	H	1.572712	-0.497553	-0.053511
O64	O	1.514261	-0.319096	0.122333
C65	C	1.566611	-0.356620	0.228290
H66	H	1.518754	-0.411338	0.258687
H67	H	1.658914	-0.380762	0.206539
H68	H	1.564496	-0.308104	0.305324
O69	O	1.353360	-0.302643	0.220758
C70	C	1.433969	-0.264138	0.290794
H71	H	1.505754	-0.247361	0.228236
H72	H	1.390775	-0.204530	0.335419
H73	H	1.470560	-0.309386	0.365360
O74	O	1.354821	-0.458077	-0.221209
C75	C	1.261632	-0.502777	-0.192026
H76	H	1.228973	-0.484180	-0.096082
H77	H	1.190531	-0.487125	-0.262039
H78	H	1.290034	-0.573170	-0.194358
