data_functionalizedCrystal
_audit_creation_method	'MofGen! by Chris Wilmer'
_symmetry_space_group_name_H-M	'P1'
_symmetry_Int_Tables_number	1
_symmetry_cell_setting	triclinic
loop_
_symmetry_equiv_pos_as_xyz
  x,y,z
_cell_length_a	11.792241
_cell_length_b	16.992695
_cell_length_c	15.455313
_cell_angle_alpha	92.847427
_cell_angle_beta	87.304628
_cell_angle_gamma	87.430819
loop_
_atom_site_label
_atom_site_type_symbol
_atom_site_fract_x
_atom_site_fract_y
_atom_site_fract_z
O1	O	1.520363	0.104106	-0.072047
O2	O	1.190930	0.115185	-0.072067
O3	O	1.354325	-0.004502	-0.072050
O4	O	1.356967	0.223794	-0.072064
O5	O	1.344979	0.002314	0.072211
O6	O	1.181583	0.122001	0.072194
O7	O	1.511017	0.110922	0.072214
Cu8	Cu	1.345447	0.117084	0.085376
Cu9	Cu	1.356500	0.109023	-0.085229
O10	O	1.347621	0.230610	0.072197
C11	C	1.346254	-0.030321	0.000080
C12	C	1.336116	-0.117409	0.000079
C13	C	1.143909	0.117897	0.000061
C14	C	1.017725	0.115814	0.000053
C15	C	1.433934	-0.167233	0.000086
C16	C	1.424402	-0.249060	0.000077
C17	C	1.317051	-0.281062	0.000068
C18	C	1.219227	-0.231231	0.000058
C19	C	1.228760	-0.149406	0.000061
C20	C	1.277539	-0.524828	0.000053
C21	C	1.268013	-0.606660	0.000053
C22	C	1.473190	-0.624484	0.000071
C23	C	1.482713	-0.542656	0.000079
C24	C	1.384889	-0.492832	0.000065
N25	N	1.307305	-0.364702	0.000062
N26	N	1.394636	-0.409194	0.000065
C27	C	0.786698	0.111984	0.000078
C28	C	0.915258	0.114112	0.000065
C29	C	1.558038	0.108210	0.000084
C30	C	1.684222	0.110293	0.000086
C31	C	1.355692	0.256428	0.000065
C32	C	1.365831	0.343516	0.000060
N33	N	1.337681	0.122753	0.205371
N34	N	1.364274	0.103348	-0.205224
C35	C	1.407124	0.071924	0.250772
C36	C	1.401263	0.076219	0.341580
C37	C	1.325962	0.131346	0.386984
C38	C	1.256511	0.182177	0.341576
C39	C	1.262368	0.177878	0.250771
C40	C	1.300680	0.149880	0.658563
C41	C	1.294830	0.154177	0.749375
C42	C	1.439581	0.048217	0.749372
C43	C	1.445436	0.043926	0.658565
C44	C	1.375981	0.094754	0.613165
N45	N	1.319971	0.135739	0.479804
N46	N	1.381967	0.090357	0.520347
H47	H	1.521350	-0.141184	0.000099
C48	C	1.152300	0.258466	0.740262
C49	C	1.212036	0.214766	0.799285
H50	H	1.101183	0.295864	0.771077
H51	H	1.204390	0.285236	0.704837
H52	H	1.110797	0.223934	0.704851
H53	H	1.253546	0.249298	0.834692
H54	H	1.159939	0.187995	0.834725
H55	H	1.131820	-0.257293	0.000045
C56	C	1.492131	-0.085942	0.777340
C57	C	1.515909	-0.007660	0.799278
H58	H	1.539256	-0.120441	0.808147
H59	H	1.414630	-0.094098	0.792234
H60	H	1.506401	-0.096381	0.716760
H61	H	1.501631	0.002780	0.859857
H62	H	1.593427	0.000499	0.784390
H63	H	1.149106	-0.108839	0.000055
H64	H	1.468447	0.027037	0.213810
H65	H	1.570129	-0.516607	0.000087
C66	C	1.292309	0.251692	0.556445
C67	C	1.224351	0.205763	0.608670
H68	H	1.245185	0.286192	0.525639
H69	H	1.339842	0.281793	0.591861
H70	H	1.337977	0.218237	0.516405
H71	H	1.178689	0.239218	0.648714
H72	H	1.176798	0.175660	0.573251
C73	C	1.066154	-0.580828	0.000010
C74	C	1.150005	-0.641838	0.000029
H75	H	0.993307	-0.602548	-0.000012
H76	H	1.070863	-0.546911	0.050316
H77	H	1.077416	-0.551657	-0.050299
H78	H	1.138748	-0.671006	0.050341
H79	H	1.145293	-0.675768	-0.050282
H80	H	1.205818	0.219267	0.213806
C81	C	1.409665	-0.025597	0.443701
C82	C	1.477606	0.020346	0.391478
H83	H	1.456802	-0.060095	0.474499
H84	H	1.363993	0.007844	0.483738
H85	H	1.362137	-0.055707	0.408277
H86	H	1.525129	0.050461	0.426903
H87	H	1.523298	-0.013098	0.351436
C88	C	1.676951	-0.633881	0.000086
C89	C	1.580715	-0.679250	0.000077
H90	H	1.743334	-0.667693	0.000092
H91	H	1.679657	-0.603970	-0.050217
H92	H	1.673135	-0.599220	0.050398
H93	H	1.584527	-0.713907	-0.050238
H94	H	1.578009	-0.709175	0.050385
H95	H	1.504055	-0.289625	0.000085
C96	C	1.062322	0.228637	0.369558
C97	C	1.173734	0.242769	0.391486
H98	H	1.011220	0.266043	0.400374
H99	H	1.055876	0.233356	0.308987
H100	H	1.044308	0.176929	0.384454
H101	H	1.191751	0.294475	0.376584
H102	H	1.180184	0.238057	0.452070
C103	C	1.174017	-0.425986	-0.074120
C104	C	1.170007	-0.470074	0.000042
H105	H	1.107623	-0.392185	-0.074128
H106	H	1.239300	-0.395213	-0.074109
H107	H	1.177830	-0.460662	-0.124420
H108	H	1.166202	-0.435397	0.050342
H109	H	1.104707	-0.500849	0.000039
C110	C	1.604493	0.022282	0.555926
C111	C	1.527660	-0.016878	0.608426
H112	H	1.655097	-0.015317	0.524908
H113	H	1.563947	0.052136	0.516081
H114	H	1.646556	0.056576	0.591186
H115	H	1.485591	-0.051168	0.573165
H116	H	1.568210	-0.046745	0.648275
