data_functionalizedCrystal
_audit_creation_method	'MofGen! by Chris Wilmer'
_symmetry_space_group_name_H-M	'P1'
_symmetry_Int_Tables_number	1
_symmetry_cell_setting	triclinic
loop_
_symmetry_equiv_pos_as_xyz
  x,y,z
_cell_length_a	16.109302
_cell_length_b	8.559649
_cell_length_c	14.586319
_cell_angle_alpha	90.000709
_cell_angle_beta	89.992206
_cell_angle_gamma	76.620223
loop_
_atom_site_label
_atom_site_type_symbol
_atom_site_fract_x
_atom_site_fract_y
_atom_site_fract_z
O1	O	1.090049	0.205386	-0.076278
O2	O	1.590049	0.705386	0.423722
O3	O	0.846359	0.230945	-0.076270
O4	O	1.346359	0.730945	0.423730
O5	O	0.989673	-0.014448	-0.076272
O6	O	1.489673	0.485552	0.423728
O7	O	0.946734	0.450778	-0.076275
O8	O	1.446734	0.950778	0.423725
O9	O	0.989656	-0.014433	0.076208
O10	O	1.489656	0.485567	0.576208
O11	O	0.846342	0.230959	0.076211
O12	O	1.346342	0.730959	0.576211
O13	O	1.090032	0.205400	0.076203
O14	O	1.590032	0.705400	0.576203
Cu15	Cu	0.968186	0.218181	0.090130
Cu16	Cu	1.468186	0.718181	0.590130
Cu17	Cu	0.968205	0.218164	-0.090197
Cu18	Cu	1.468205	0.718164	0.409803
O19	O	0.946718	0.450793	0.076206
O20	O	1.446718	0.950793	0.576206
C21	C	0.815441	0.229917	-0.000029
C22	C	1.315441	0.729917	0.499971
C23	C	0.723344	0.226812	-0.000026
C24	C	1.223344	0.726812	0.499974
C25	C	0.511451	0.219641	0.083082
C26	C	1.011451	0.719641	0.583082
C27	C	0.424918	0.216707	0.083079
C28	C	0.924918	0.716707	0.583079
C29	C	0.424946	0.216699	-0.083164
C30	C	0.924946	0.716699	0.416836
C31	C	0.511479	0.219622	-0.083160
C32	C	1.011479	0.719622	0.416840
C33	C	0.554728	0.221101	-0.000034
C34	C	1.054728	0.721101	0.499966
C35	C	0.381662	0.215244	-0.000041
C36	C	0.881662	0.715244	0.499959
C37	C	0.287839	0.212063	-0.000045
C38	C	0.787839	0.712063	0.499955
C39	C	0.648558	0.224280	-0.000029
C40	C	1.148558	0.724280	0.499971
C41	C	0.992919	-0.073972	-0.000033
C42	C	1.492919	0.426028	0.499967
C43	C	1.002605	-0.251357	-0.000038
C44	C	1.502605	0.248643	0.499962
C45	C	1.120949	0.206428	-0.000040
C46	C	1.620949	0.706428	0.499960
C47	C	1.213047	0.209533	-0.000049
C48	C	1.713047	0.709533	0.499951
C49	C	0.943472	0.510317	-0.000035
C50	C	1.443472	1.010317	0.499965
C51	C	0.933786	0.687702	-0.000037
C52	C	1.433786	1.187702	0.499963
N53	N	0.968178	0.218192	0.216961
N54	N	1.468178	0.718192	0.716961
N55	N	0.968220	0.218140	-0.217028
N56	N	1.468220	0.718140	0.282972
C57	C	1.012426	0.315113	0.451965
C58	C	1.512426	0.815113	0.951965
C59	C	1.012436	0.315102	0.547947
C60	C	1.512436	0.815102	1.047947
C61	C	0.923971	0.121209	0.547961
C62	C	1.423971	0.621209	1.047961
C63	C	0.923967	0.121212	0.451981
C64	C	1.423967	0.621212	0.951981
C65	C	0.968192	0.218174	0.403986
C66	C	1.468192	0.718174	0.903986
C67	C	0.968206	0.218159	0.595947
C68	C	1.468206	0.718159	1.095947
C69	C	0.968216	0.218146	0.700014
C70	C	1.468216	0.718146	1.200014
C71	C	0.968184	0.218184	0.299912
C72	C	1.468184	0.718184	0.799912
H73	H	0.546717	0.220806	-0.150847
H74	H	1.046717	0.720806	0.349153
C75	C	1.092214	-0.364203	-0.000041
C76	C	1.592214	0.135797	0.499959
N77	N	1.159710	-0.449208	-0.000045
N78	N	1.659710	0.050792	0.499955
H79	H	0.389722	0.215497	-0.150842
H80	H	0.889722	0.715497	0.349158
C81	C	0.875315	0.014574	0.600765
C82	C	1.375315	0.514574	1.100765
N83	N	0.838663	-0.065739	0.640536
N84	N	1.338663	0.434261	1.140536
C85	C	1.061080	0.421771	0.600720
C86	C	1.561080	0.921771	1.100720
N87	N	1.097715	0.502127	0.640467
N88	N	1.597715	1.002127	1.140467
H89	H	0.867453	-0.228758	-0.000028
H90	H	1.367453	0.271242	0.499972
H91	H	1.048438	0.394065	0.412891
H92	H	1.548438	0.894065	0.912891
H93	H	0.546662	0.220845	0.150769
H94	H	1.046662	0.720845	0.650769
C95	C	0.377315	0.215120	0.174514
C96	C	0.877315	0.715120	0.674514
N97	N	0.341460	0.213929	0.243386
N98	N	0.841460	0.713929	0.743386
C99	C	0.875303	0.014568	0.399201
C100	C	1.375303	0.514568	0.899201
N101	N	0.838652	-0.065755	0.359447
N102	N	1.338652	0.434245	0.859447
