data_functionalizedCrystal
_audit_creation_method	'MofGen! by Chris Wilmer'
_symmetry_space_group_name_H-M	'P1'
_symmetry_Int_Tables_number	1
_symmetry_cell_setting	triclinic
loop_
_symmetry_equiv_pos_as_xyz
  x,y,z
_cell_length_a	11.792241
_cell_length_b	10.540510
_cell_length_c	10.868271
_cell_angle_alpha	89.997346
_cell_angle_beta	89.999893
_cell_angle_gamma	84.353363
loop_
_atom_site_label
_atom_site_type_symbol
_atom_site_fract_x
_atom_site_fract_y
_atom_site_fract_z
O1	O	1.507345	0.173994	-0.102196
O2	O	1.177049	0.191926	-0.102223
O3	O	1.349750	-0.001773	-0.102208
O4	O	1.334644	0.367694	-0.102211
O5	O	1.349735	-0.001781	0.102436
O6	O	1.177034	0.191918	0.102421
O7	O	1.507330	0.173987	0.102449
Zn8	Zn	1.342180	0.182951	0.134927
Zn9	Zn	1.342199	0.182961	-0.134701
O10	O	1.334629	0.367686	0.102434
C11	C	1.134748	0.190796	0.000095
C12	C	1.008726	0.187424	0.000084
C13	C	1.348617	-0.049077	0.000111
C14	C	1.345249	-0.190016	0.000104
C15	C	0.777998	0.181225	0.000120
C16	C	0.906392	0.184670	0.000100
C17	C	1.465224	-0.407862	0.000582
C18	C	1.468816	-0.261278	0.000115
C19	C	1.282003	-0.234564	-0.116761
C20	C	1.279285	-0.381316	-0.116853
C21	C	1.276696	-0.381125	0.115866
C22	C	1.282557	-0.234803	0.117405
C23	C	1.549631	0.175117	0.000128
C24	C	1.675654	0.178488	0.000131
C25	C	1.335762	0.414990	0.000112
C26	C	1.339130	0.555929	0.000111
N27	N	1.342175	0.182944	0.318941
N28	N	1.342213	0.182959	-0.318715
C29	C	1.342193	0.182959	0.569947
C30	C	1.342180	0.182954	0.430270
H31	H	1.518303	-0.232099	0.083887
Cl32	Cl	1.336905	-0.446948	0.252624
Cl33	Cl	1.141557	-0.160938	-0.123495
Cl34	Cl	1.136600	-0.416361	-0.125064
Cl35	Cl	1.353597	-0.190853	0.250891
H36	H	1.325937	-0.203848	-0.203724
H37	H	1.192342	-0.185443	0.124454
H38	H	1.513359	-0.449977	0.084393
H39	H	1.513093	-0.451521	-0.082745
Cl40	Cl	1.545677	-0.217658	-0.129439
Cl41	Cl	1.346045	-0.443625	-0.251709
Cl42	Cl	1.133460	-0.414859	0.117074
