data_functionalizedCrystal
_audit_creation_method	'MofGen! by Chris Wilmer'
_symmetry_space_group_name_H-M	'P1'
_symmetry_Int_Tables_number	1
_symmetry_cell_setting	triclinic
loop_
_symmetry_equiv_pos_as_xyz
  x,y,z
_cell_length_a	6.817900
_cell_length_b	10.943574
_cell_length_c	10.943624
_cell_angle_alpha	91.772393
_cell_angle_beta	108.838799
_cell_angle_gamma	108.837846
loop_
_atom_site_label
_atom_site_type_symbol
_atom_site_fract_x
_atom_site_fract_y
_atom_site_fract_z
V1	V	-4.115492	-0.178596	-0.402524
O2	O	-4.073204	0.008617	-0.394890
O3	O	-4.093439	-0.354160	-0.399743
O4	O	-4.093454	-0.175834	-0.578091
O5	O	-4.073188	-0.170944	-0.215308
V6	V	-4.592290	-0.156205	-0.380134
O7	O	-4.391502	-0.227713	-0.451636
O8	O	-4.766477	-0.107089	-0.331022
O9	O	-4.391136	0.019358	-0.382915
O10	O	-4.751974	-0.343419	-0.387769
O11	O	-4.751990	-0.163858	-0.567350
O12	O	-4.391120	-0.158968	-0.204568
C13	C	-3.943996	-0.396959	-0.393386
C14	C	-4.007427	-0.540485	-0.392284
C15	C	-3.890258	-0.703489	-0.384276
C16	C	-4.003635	-0.637681	-0.495234
C17	C	-3.893183	-0.604393	-0.281389
C18	C	-4.233990	-0.730421	-0.501411
C19	C	-4.123465	-0.697124	-0.287470
C20	C	-4.237013	-0.631364	-0.398458
C21	C	-3.944014	-0.169485	-0.620884
C22	C	-4.007454	-0.168388	-0.764411
C23	C	-3.852284	-0.161001	-0.841560
C24	C	-4.041640	-0.270645	-0.947533
C25	C	-3.931163	-0.056802	-0.914179
C26	C	-4.196021	-0.278135	-0.868507
C27	C	-4.085464	-0.064194	-0.835130
C28	C	-4.274957	-0.173870	-0.941074
C29	C	-4.203921	0.062151	-0.389268
C30	C	-4.119730	0.205675	-0.390379
C31	C	-4.203902	-0.165321	-0.161767
C32	C	-4.119700	-0.166411	-0.018239
H33	H	-3.952392	-0.611143	-0.583092
C34	C	-3.486792	-0.041227	-0.690023
C35	C	-3.610372	-0.153849	-0.782888
H36	H	-3.337450	-0.036815	-0.653808
H37	H	-3.547003	-0.044160	-0.622621
H38	H	-3.492085	0.033676	-0.730671
H39	H	-3.605092	-0.228753	-0.742237
H40	H	-3.550143	-0.150927	-0.850301
H41	H	-4.174655	-0.723695	-0.199608
C42	C	-3.801760	0.177607	-0.882998
C43	C	-3.780855	0.069488	-0.942164
H44	H	-3.708966	0.255566	-0.900281
H45	H	-3.759195	0.177415	-0.791377
H46	H	-3.951296	0.173174	-0.917230
H47	H	-3.631321	0.073915	-0.907925
H48	H	-3.823407	0.069681	-1.033803
C49	C	-3.796926	-0.381561	-0.963107
C50	C	-4.017537	-0.388464	-1.013610
H51	H	-3.782037	-0.454290	-1.003904
H52	H	-3.754857	-0.382682	-0.871632
H53	H	-3.704273	-0.303034	-0.979557
H54	H	-4.110188	-0.466987	-0.997152
H55	H	-4.059631	-0.387355	-1.105107
C56	C	-4.498837	-0.481285	-0.959024
C57	C	-4.346390	-0.404556	-0.840769
H58	H	-4.591667	-0.559327	-0.941894
H59	H	-4.421633	-0.502490	-1.009970
H60	H	-4.586623	-0.434078	-1.005398
H61	H	-4.258592	-0.451760	-0.794399
H62	H	-4.423601	-0.383354	-0.789802
H63	H	-4.454271	-0.179337	-0.984317
H64	H	-3.744387	-0.735399	-0.378404
C65	C	-4.498446	-0.620263	-0.298885
C66	C	-4.434354	-0.588635	-0.406605
H67	H	-4.620285	-0.593890	-0.303927
H68	H	-4.378101	-0.576437	-0.220724
H69	H	-4.540457	-0.711920	-0.298967
H70	H	-4.392327	-0.496976	-0.406518
H71	H	-4.554725	-0.632458	-0.484787
C72	C	-4.051195	0.050610	-0.634451
C73	C	-4.109432	0.053636	-0.768995
H74	H	-4.065981	0.123360	-0.593619
H75	H	-3.902154	0.054354	-0.599096
H76	H	-4.145986	-0.027930	-0.619393
H77	H	-4.014630	0.132172	-0.784053
H78	H	-4.258497	0.049904	-0.804361
C79	C	-4.609463	-0.879267	-0.594622
C80	C	-4.429194	-0.804046	-0.627057
H81	H	-4.729961	-0.924725	-0.672192
H82	H	-4.652192	-0.823783	-0.548218
H83	H	-4.568495	-0.940323	-0.541476
H84	H	-4.470157	-0.742982	-0.680196
H85	H	-4.386460	-0.859535	-0.673483
C86	C	-3.641276	-0.395896	-0.157688
C87	C	-3.697830	-0.530561	-0.155881
H88	H	-3.520657	-0.350323	-0.080211
H89	H	-3.764796	-0.371359	-0.162546
H90	H	-3.599983	-0.374679	-0.231524
H91	H	-3.739139	-0.551780	-0.082050
H92	H	-3.574283	-0.555108	-0.151009
