data_functionalizedCrystal
_audit_creation_method	'MofGen! by Chris Wilmer'
_symmetry_space_group_name_H-M	'P1'
_symmetry_Int_Tables_number	1
_symmetry_cell_setting	triclinic
loop_
_symmetry_equiv_pos_as_xyz
  x,y,z
_cell_length_a	12.827893
_cell_length_b	16.625539
_cell_length_c	12.827892
_cell_angle_alpha	89.976806
_cell_angle_beta	90.015553
_cell_angle_gamma	89.984909
loop_
_atom_site_label
_atom_site_type_symbol
_atom_site_fract_x
_atom_site_fract_y
_atom_site_fract_z
Zn1	Zn	1.597626	-0.455885	-0.416046
Zn2	Zn	2.097626	0.044115	0.083954
Zn3	Zn	1.597533	-0.321060	-0.590803
Zn4	Zn	2.097533	0.178940	-0.090803
Zn5	Zn	1.422881	-0.321070	-0.416077
Zn6	Zn	1.922881	0.178930	0.083923
Zn7	Zn	1.422853	-0.455855	-0.590746
Zn8	Zn	1.922853	0.044145	-0.090746
O9	O	1.510223	-0.388468	-0.503418
O10	O	2.010223	0.111532	-0.003418
O11	O	1.743850	-0.438009	-0.439239
O12	O	2.243850	0.061991	0.060761
O13	O	1.574338	-0.208229	-0.567662
O14	O	2.074338	0.291771	-0.067662
O15	O	1.446112	-0.338971	-0.269837
O16	O	1.946112	0.161029	0.230163
O17	O	1.743782	-0.338954	-0.567632
O18	O	2.243782	0.161046	-0.067632
O19	O	1.574497	-0.438019	-0.269814
O20	O	2.074497	0.061981	0.230186
O21	O	1.446021	-0.208237	-0.439292
O22	O	1.946021	0.291763	0.060708
O23	O	1.276641	-0.338941	-0.439237
O24	O	1.776641	0.161059	0.060763
O25	O	1.446065	-0.568691	-0.567535
O26	O	1.946065	-0.068691	-0.067535
O27	O	1.276621	-0.437967	-0.567565
O28	O	1.776621	0.062033	-0.067565
O29	O	1.574470	-0.568714	-0.439183
O30	O	2.074470	-0.068714	0.060817
O31	O	1.574311	-0.338924	-0.737032
O32	O	2.074311	0.161076	-0.237032
O33	O	1.445974	-0.437957	-0.736990
O34	O	1.945974	0.062043	-0.236990
C35	C	1.238713	-0.388452	-0.503399
C36	C	1.738713	0.111548	-0.003399
C37	C	1.122560	-0.388465	-0.503416
C38	C	1.622560	0.111535	-0.003416
C39	C	1.070809	-0.437557	-0.439995
C40	C	1.570809	0.062443	0.060005
C41	C	0.950759	-0.437571	-0.440011
C42	C	1.450759	0.062429	0.059989
C43	C	1.510275	-0.598777	-0.503349
C44	C	2.010275	-0.098777	-0.003349
C45	C	1.510296	-0.688398	-0.503320
C46	C	2.010296	-0.188398	-0.003320
C47	C	1.510313	-0.761180	-0.503297
C48	C	2.010313	-0.261180	-0.003297
C49	C	1.510338	-0.852489	-0.503258
C50	C	2.010338	-0.352489	-0.003258
C51	C	1.510362	-0.925265	-0.503221
C52	C	2.010362	-0.425265	-0.003221
C53	C	1.510389	-1.016580	-0.503183
C54	C	2.010389	-0.516580	-0.003183
C55	C	1.782793	-0.388483	-0.503438
C56	C	2.282793	0.111517	-0.003438
C57	C	1.898947	-0.388490	-0.503447
C58	C	2.398947	0.111510	-0.003447
C59	C	1.510158	-0.388453	-0.774928
C60	C	2.010158	0.111547	-0.274928
C61	C	1.510226	-0.388474	-0.891081
C62	C	2.010226	0.111526	-0.391081
C63	C	1.510232	-0.178977	-0.503411
C64	C	2.010232	0.321023	-0.003411
C65	C	1.510413	-0.089356	-0.503146
C66	C	2.010413	0.410644	-0.003146
C67	C	1.573806	-0.339524	-0.942852
C68	C	2.073806	0.160476	-0.442852
C69	C	1.573878	-0.339544	-1.062902
C70	C	2.073878	0.160456	-0.562902
C71	C	1.510317	-0.388500	-0.230848
C72	C	2.010317	0.111500	0.269152
C73	C	1.510358	-0.388513	-0.114695
C74	C	2.010358	0.111487	0.385305
H75	H	1.115380	-0.479573	-0.385683
H76	H	1.615380	0.020427	0.114317
O77	O	0.897721	-0.487831	-0.375345
O78	O	1.397721	0.012169	0.124655
C79	C	0.924378	-0.568177	-0.398273
C80	C	1.424378	-0.068177	0.101727
H81	H	0.954442	-0.572156	-0.481731
H82	H	1.454442	-0.072156	0.018269
H83	H	0.987670	-0.589363	-0.342214
H84	H	1.487670	-0.089363	0.157786
C85	C	0.790461	-0.617064	-0.283799
C86	C	1.290461	-0.117064	0.216201
C87	C	0.827378	-0.621951	-0.386308
C88	C	1.327378	-0.121951	0.113692
H89	H	0.730629	-0.650235	-0.276415
H90	H	1.230629	-0.150235	0.223585
H91	H	0.772503	-0.562933	-0.268349
H92	H	1.272503	-0.062933	0.231651
H93	H	0.843213	-0.634717	-0.237096
H94	H	1.343213	-0.134717	0.262904
H95	H	0.774631	-0.604288	-0.433008
H96	H	1.274631	-0.104288	0.066992
H97	H	0.845325	-0.676080	-0.401766
H98	H	1.345325	-0.176080	0.098234
H99	H	0.943445	-0.346463	-0.557752
H100	H	1.443445	0.153537	-0.057752
H101	H	1.077990	-0.346444	-0.557722
H102	H	1.577990	0.153556	-0.057722
O103	O	1.638535	-0.289421	-0.889661
O104	O	2.138535	0.210579	-0.389661
C105	C	1.578985	-0.237352	-0.826598
C106	C	2.078985	0.262648	-0.326598
H107	H	1.496734	-0.232298	-0.859632
H108	H	1.996734	0.267702	-0.359632
H109	H	1.575240	-0.262326	-0.743902
H110	H	2.075240	0.237674	-0.243902
C111	C	1.731125	-0.159775	-0.784221
C112	C	2.231125	0.340225	-0.284221
C113	C	1.630105	-0.153561	-0.824800
C114	C	2.130105	0.346439	-0.324800
H115	H	1.762659	-0.108089	-0.783108
H116	H	2.262659	0.391911	-0.283108
H117	H	1.771246	-0.194856	-0.826705
H118	H	2.271246	0.305144	-0.326705
H119	H	1.727990	-0.180589	-0.715312
H120	H	2.227990	0.319411	-0.215312
H121	H	1.633242	-0.132757	-0.893712
H122	H	2.133242	0.367243	-0.393712
H123	H	1.589985	-0.118474	-0.782327
H124	H	2.089985	0.381526	-0.282327
H125	H	1.628308	-0.297634	-1.107424
H126	H	2.128308	0.202366	-0.607424
O127	O	1.445466	-0.438628	-1.061710
O128	O	1.945466	0.061372	-0.561710
C129	C	1.468252	-0.519029	-1.088199
C130	C	1.968252	-0.019029	-0.588199
H131	H	1.508397	-0.520796	-1.167438
H132	H	2.008397	-0.020796	-0.667438
H133	H	1.521978	-0.546167	-1.026724
H134	H	2.021978	-0.046167	-0.526724
C135	C	1.317031	-0.565637	-0.995816
C136	C	1.817031	-0.065637	-0.495816
C137	C	1.366330	-0.567808	-1.093142
C138	C	1.866330	-0.067808	-0.593142
H139	H	1.254162	-0.595729	-0.998861
H140	H	1.754162	-0.095729	-0.498861
H141	H	1.301681	-0.511470	-0.977966
H142	H	1.801681	-0.011470	-0.477966
H143	H	1.361814	-0.588251	-0.944597
H144	H	1.861814	-0.088251	-0.444597
H145	H	1.321553	-0.545186	-1.144356
H146	H	1.821553	-0.045186	-0.644356
H147	H	1.381670	-0.621973	-1.111001
H148	H	1.881670	-0.121973	-0.611001
H149	H	1.455849	-0.430401	-0.935635
H150	H	1.955849	0.069599	-0.435635
