data_functionalizedCrystal
_audit_creation_method	'MofGen! by Chris Wilmer'
_symmetry_space_group_name_H-M	'P1'
_symmetry_Int_Tables_number	1
_symmetry_cell_setting	triclinic
loop_
_symmetry_equiv_pos_as_xyz
  x,y,z
_cell_length_a	12.784905
_cell_length_b	12.811473
_cell_length_c	15.455313
_cell_angle_alpha	98.102523
_cell_angle_beta	92.399933
_cell_angle_gamma	101.398079
loop_
_atom_site_label
_atom_site_type_symbol
_atom_site_fract_x
_atom_site_fract_y
_atom_site_fract_z
O1	O	1.414973	-0.001567	0.072013
O2	O	1.105489	-0.046745	0.068459
O3	O	1.268789	0.130187	0.082371
O4	O	1.251673	-0.178499	0.058101
O5	O	1.259451	0.120107	-0.062684
O6	O	1.096151	-0.056825	-0.076595
O7	O	1.405635	-0.011647	-0.073042
Cu8	Cu	1.250040	-0.035156	-0.088063
Cu9	Cu	1.261084	-0.023236	0.083481
O10	O	1.242335	-0.188579	-0.086954
C11	C	1.061219	-0.054723	-0.004299
C12	C	0.943219	-0.063466	-0.004986
C13	C	0.746950	0.114652	0.009033
C14	C	0.636080	0.106443	0.008388
C15	C	0.610607	-0.088092	-0.006917
C16	C	0.721477	-0.079883	-0.006271
C17	C	0.789646	0.021493	0.001703
C18	C	0.900517	0.029700	0.002342
C19	C	0.875043	-0.164833	-0.012956
C20	C	0.764173	-0.173042	-0.013602
C21	C	1.263446	0.164385	0.012931
C22	C	1.261424	0.281302	0.022129
C23	C	1.449905	-0.003669	-0.000282
C24	C	1.567905	0.005074	0.000412
N25	N	1.242281	-0.043539	-0.208718
C26	C	1.247463	0.490029	-0.118741
C27	C	1.245563	0.599883	-0.110103
C28	C	1.255733	0.610867	0.048043
C29	C	1.257632	0.501013	0.039405
C30	C	1.253496	0.440598	-0.043990
C31	C	1.255388	0.330740	-0.052628
C32	C	1.265565	0.341728	0.105518
C33	C	1.263665	0.451582	0.114156
C34	C	1.247677	0.777222	-0.017514
C35	C	1.249696	0.660305	-0.026714
C36	C	1.311680	0.031605	-0.248204
C37	C	1.305822	0.025256	-0.339511
C38	C	1.230568	-0.056241	-0.391331
C39	C	1.161161	-0.131389	-0.351839
C40	C	1.167015	-0.125035	-0.260533
C41	C	1.205299	-0.083638	-0.665066
C42	C	1.199452	-0.089988	-0.756378
C43	C	1.344112	0.066659	-0.744044
C44	C	1.349964	0.073002	-0.652737
C45	C	1.280553	-0.002142	-0.613253
N46	N	1.224580	-0.062734	-0.484662
N47	N	1.286537	0.004356	-0.519923
N48	N	1.268852	-0.014844	0.204136
H49	H	0.802454	0.197195	0.015520
Cl50	Cl	0.678467	-0.300477	-0.023621
H51	H	1.259112	0.660078	0.115939
H52	H	1.252004	0.281548	-0.120533
H53	H	0.956019	0.112245	0.008833
Cl54	Cl	1.242254	0.414073	-0.223577
H55	H	0.601323	0.182303	0.014359
Cl56	Cl	0.928721	-0.281955	-0.022187
Cl57	Cl	1.273095	0.279568	0.199495
Cl58	Cl	1.066549	-0.233840	-0.416982
Cl59	Cl	1.431362	0.161124	-0.793685
Cl60	Cl	1.237982	0.662022	-0.204080
H61	H	1.148784	-0.144825	-0.632926
H62	H	1.267037	0.500788	0.182054
Cl63	Cl	0.524895	-0.215522	-0.016921
Cl64	Cl	1.406295	0.134060	-0.183068
H65	H	1.110501	-0.186224	-0.228385
Cl66	Cl	1.393067	0.119726	-0.389151
H67	H	1.411242	0.139364	-0.610546
H68	H	1.138168	-0.156358	-0.798567
