data_functionalizedCrystal
_audit_creation_method	'MofGen! by Chris Wilmer'
_symmetry_space_group_name_H-M	'P1'
_symmetry_Int_Tables_number	1
_symmetry_cell_setting	triclinic
loop_
_symmetry_equiv_pos_as_xyz
  x,y,z
_cell_length_a	16.109302
_cell_length_b	6.394989
_cell_length_c	14.586319
_cell_angle_alpha	90.000822
_cell_angle_beta	89.994552
_cell_angle_gamma	95.020254
loop_
_atom_site_label
_atom_site_type_symbol
_atom_site_fract_x
_atom_site_fract_y
_atom_site_fract_z
O1	O	1.105973	-0.268487	-0.076276
O2	O	0.864264	-0.301898	-0.076268
O3	O	0.988549	0.018874	-0.076272
O4	O	0.981688	-0.589259	-0.076271
O5	O	0.988540	0.018879	0.076208
O6	O	0.864255	-0.301893	0.076213
O7	O	1.105964	-0.268483	0.076205
Cu8	Cu	0.985109	-0.285187	0.090132
Cu9	Cu	0.985119	-0.285193	-0.090194
O10	O	0.981679	-0.589254	0.076210
C11	C	0.833271	-0.300542	-0.000026
C12	C	0.740932	-0.296483	-0.000024
C13	C	0.528487	-0.287097	0.083085
C14	C	0.441727	-0.283261	0.083081
C15	C	0.441747	-0.283277	-0.083162
C16	C	0.528507	-0.287098	-0.083157
C17	C	0.571874	-0.289018	-0.000032
C18	C	0.398354	-0.281362	-0.000039
C19	C	0.304284	-0.277203	-0.000043
C20	C	0.665950	-0.293173	-0.000027
C21	C	1.136957	-0.269839	-0.000038
C22	C	1.229296	-0.273897	-0.000047
C23	C	0.987188	0.096697	-0.000035
C24	C	0.983042	0.332929	-0.000036
N25	N	0.985107	-0.285182	0.216964
N26	N	0.985127	-0.285182	-0.217026
C27	C	1.040160	-0.143192	0.451968
C28	C	1.040162	-0.143187	0.547949
C29	C	0.930069	-0.427179	0.547963
C30	C	0.930063	-0.427172	0.451983
C31	C	0.985113	-0.285181	0.403988
C32	C	0.985121	-0.285183	0.595949
C33	C	0.985123	-0.285178	0.700016
C34	C	0.985110	-0.285182	0.299915
H35	H	0.406405	-0.281697	0.150763
H36	H	0.885249	-0.542787	0.587050
H37	H	0.406427	-0.281716	-0.150840
C38	C	0.575681	-0.288759	-0.173376
C39	C	0.632948	-0.111330	-0.178241
C40	C	0.676412	-0.112768	-0.261336
H41	H	0.604535	-0.411841	-0.176914
H42	H	0.537459	-0.286971	-0.222910
H43	H	0.671165	-0.113137	-0.128720
H44	H	0.604115	0.011780	-0.174719
H45	H	0.638190	-0.110980	-0.310871
H46	H	0.705262	-0.235857	-0.264867
H47	H	0.715267	0.007625	-0.264652
H48	H	0.563795	-0.288661	0.150771
C49	C	1.099955	0.011214	0.400024
C50	C	1.148147	0.135601	0.462591
C51	C	1.203231	0.277889	0.414777
H52	H	1.135426	-0.063696	0.362571
H53	H	1.069154	0.098301	0.362610
H54	H	1.178946	0.048524	0.499989
H55	H	1.112698	0.210556	0.500046
H56	H	1.172430	0.364976	0.377363
H57	H	1.238696	0.202962	0.377325
H58	H	1.235930	0.362315	0.457221
C59	C	1.099794	0.011211	0.600090
C60	C	1.054174	0.139151	0.655181
C61	C	1.109080	0.281433	0.703215
H62	H	1.135209	-0.063707	0.637601
H63	H	1.132564	0.095892	0.557785
H64	H	1.021419	0.054481	0.697480
H65	H	1.018762	0.214115	0.617692
H66	H	1.141849	0.366114	0.660911
H67	H	1.144492	0.206498	0.740721
H68	H	1.078134	0.368270	0.740594
H69	H	0.885233	-0.542798	0.412916
