data_functionalizedCrystal
_audit_creation_method	'MofGen! by Chris Wilmer'
_symmetry_space_group_name_H-M	'P1'
_symmetry_Int_Tables_number	1
_symmetry_cell_setting	triclinic
loop_
_symmetry_equiv_pos_as_xyz
  x,y,z
_cell_length_a	19.188930
_cell_length_b	19.188924
_cell_length_c	14.472310
_cell_angle_alpha	89.996838
_cell_angle_beta	89.973109
_cell_angle_gamma	83.143372
loop_
_atom_site_label
_atom_site_type_symbol
_atom_site_fract_x
_atom_site_fract_y
_atom_site_fract_z
O1	O	0.926152	0.087163	-0.077142
O2	O	0.722840	0.098897	-0.077079
O3	O	0.830366	-0.008626	-0.077102
O4	O	0.818626	0.194686	-0.077120
O5	O	0.830338	-0.008619	0.076580
O6	O	0.722813	0.098904	0.076603
O7	O	0.926124	0.087169	0.076540
Cu8	Cu	0.824466	0.093037	0.090604
Cu9	Cu	0.824499	0.093030	-0.091143
O10	O	0.818599	0.194693	0.076562
C11	C	0.696815	0.098521	-0.000230
C12	C	0.619311	0.097380	-0.000206
C13	C	0.574386	0.160471	-0.000226
C14	C	0.501562	0.159399	-0.000236
C15	C	0.473667	0.095233	-0.000245
C16	C	0.518602	0.032134	-0.000219
C17	C	0.591424	0.033207	-0.000200
N18	N	0.365697	0.046184	-0.052582
N19	N	0.296519	0.045168	-0.052602
C20	C	0.254258	0.091995	-0.000301
N21	N	0.283788	0.139886	0.052010
N22	N	0.352973	0.140903	0.052027
C23	C	0.394704	0.094062	-0.000265
C24	C	0.130368	0.153928	-0.000330
C25	C	0.057543	0.152854	-0.000335
C26	C	0.074586	0.025586	-0.000327
C27	C	0.147409	0.026663	-0.000314
C28	C	0.175295	0.090835	-0.000320
C29	C	0.829973	-0.034634	-0.000260
C30	C	0.828834	-0.112138	-0.000257
C31	C	0.828317	-0.148541	-0.084029
C32	C	0.827237	-0.221363	-0.084036
C33	C	0.826688	-0.257783	-0.000265
C34	C	0.827201	-0.221371	0.083518
C35	C	0.828273	-0.148549	0.083522
N36	N	0.864725	-0.377444	0.062071
N37	N	0.863707	-0.446622	0.062061
C38	C	0.823454	-0.477192	-0.000273
N39	N	0.784266	-0.435972	-0.062612
N40	N	0.785287	-0.366788	-0.062605
C41	C	0.825524	-0.336746	-0.000261
C42	C	0.821766	-0.592557	-0.084059
C43	C	0.820681	-0.665380	-0.084062
C44	C	0.820652	-0.665388	0.083494
C45	C	0.821729	-0.592565	0.083495
C46	C	0.822289	-0.556154	-0.000284
C47	C	0.952149	0.087546	-0.000311
C48	C	1.029654	0.088687	-0.000342
C49	C	0.818992	0.220700	-0.000282
C50	C	0.820131	0.298205	-0.000291
N51	N	0.824448	0.093042	0.218435
N52	N	0.824522	0.093019	-0.218974
C53	C	0.824498	0.093027	0.592526
C54	C	0.766771	0.150369	0.553372
C55	C	0.766903	0.150577	0.446284
C56	C	0.824472	0.093034	0.406935
C57	C	0.897274	0.108724	0.445747
C58	C	0.896950	0.109131	0.552869
C59	C	0.810073	0.019824	0.553067
C60	C	0.808400	0.020318	0.445941
C61	C	0.824463	0.093037	0.302047
C62	C	0.824512	0.093026	0.697414
H63	H	0.597086	0.212725	-0.000233
H64	H	0.712781	0.141262	0.420046
F65	F	0.195224	-0.040489	-0.000297
H66	H	0.758151	0.004683	0.580153
F67	F	0.044902	-0.042705	-0.000327
H68	H	0.020965	0.204232	-0.000346
F69	F	0.453740	0.226552	-0.000255
F70	F	0.913609	0.178901	0.585504
H71	H	0.628003	-0.018171	-0.000184
H72	H	0.828772	-0.118899	-0.152248
F73	F	0.822358	-0.553803	-0.173222
H74	H	0.153075	0.206181	-0.000322
F75	F	0.820063	-0.704143	0.172649
H76	H	0.826813	-0.251007	-0.152255
H77	H	0.852173	-0.022845	0.578385
F78	F	0.822278	-0.553821	0.172658
F79	F	0.826611	-0.260132	0.172672
F80	F	0.828822	-0.109806	0.172688
F81	F	0.820127	-0.704122	-0.173229
F82	F	0.695795	0.138390	0.587084
F83	F	0.778619	0.220981	0.588517
H84	H	0.495885	-0.020111	-0.000239
F85	F	0.778890	0.221592	0.412762
F86	F	0.954717	0.056549	0.586721
F87	F	0.954752	0.055574	0.412431
F88	F	0.738403	0.004747	0.412790
F89	F	0.914342	0.177697	0.410658
F90	F	0.859814	-0.038048	0.410945
