data_functionalizedCrystal
_audit_creation_method	'MofGen! by Chris Wilmer'
_symmetry_space_group_name_H-M	'P1'
_symmetry_Int_Tables_number	1
_symmetry_cell_setting	triclinic
loop_
_symmetry_equiv_pos_as_xyz
  x,y,z
_cell_length_a	16.109301
_cell_length_b	10.868271
_cell_length_c	16.109301
_cell_angle_alpha	90.006558
_cell_angle_beta	83.461481
_cell_angle_gamma	90.001598
loop_
_atom_site_label
_atom_site_type_symbol
_atom_site_fract_x
_atom_site_fract_y
_atom_site_fract_z
O1	O	1.103132	0.102248	0.106868
O2	O	1.353132	0.352248	0.356868
O3	O	1.603132	0.602248	0.606868
O4	O	1.853132	0.852248	0.856868
O5	O	0.861070	0.102268	0.120167
O6	O	1.111070	0.352268	0.370167
O7	O	1.361070	0.602268	0.620167
O8	O	1.611070	0.852268	0.870167
O9	O	0.988750	0.102245	-0.007514
O10	O	1.238750	0.352245	0.242486
O11	O	1.488750	0.602245	0.492486
O12	O	1.738750	0.852245	0.742486
O13	O	0.975451	0.102271	0.234548
O14	O	1.225451	0.352271	0.484548
O15	O	1.475451	0.602271	0.734548
O16	O	1.725451	0.852271	0.984548
O17	O	0.988740	-0.102399	-0.007519
O18	O	1.238740	0.147601	0.242481
O19	O	1.488740	0.397601	0.492481
O20	O	1.738740	0.647601	0.742481
O21	O	0.861059	-0.102376	0.120162
O22	O	1.111059	0.147624	0.370162
O23	O	1.361059	0.397624	0.620162
O24	O	1.611059	0.647624	0.870162
O25	O	1.103121	-0.102396	0.106863
O26	O	1.353121	0.147604	0.356863
O27	O	1.603121	0.397604	0.606863
O28	O	1.853121	0.647604	0.856863
Zn29	Zn	0.982088	-0.134878	0.113512
Zn30	Zn	1.232088	0.115122	0.363512
Zn31	Zn	1.482088	0.365122	0.613512
Zn32	Zn	1.732088	0.615122	0.863512
Zn33	Zn	0.982102	0.134750	0.113518
Zn34	Zn	1.232102	0.384750	0.363518
Zn35	Zn	1.482102	0.634750	0.613518
Zn36	Zn	1.732102	0.884750	0.863518
O37	O	0.975440	-0.102373	0.234543
O38	O	1.225440	0.147627	0.484543
O39	O	1.475440	0.397627	0.734543
O40	O	1.725440	0.647627	0.984543
C41	C	0.830090	-0.000051	0.119626
C42	C	1.080090	0.249949	0.369626
C43	C	1.330090	0.499949	0.619626
C44	C	1.580090	0.749949	0.869626
C45	C	0.737794	-0.000044	0.118011
C46	C	0.987794	0.249956	0.368011
C47	C	1.237794	0.499956	0.618011
C48	C	1.487794	0.749956	0.868011
N49	N	0.982085	-0.318892	0.113507
N50	N	1.232085	-0.068892	0.363507
N51	N	1.482085	0.181108	0.613507
N52	N	1.732085	0.431108	0.863507
C53	C	0.515522	-0.000051	0.190018
C54	C	0.765522	0.249949	0.440018
C55	C	1.015522	0.499949	0.690018
C56	C	1.265522	0.749949	0.940018
C57	C	0.428801	-0.000059	0.188494
C58	C	0.678801	0.249941	0.438494
C59	C	0.928801	0.499941	0.688494
C60	C	1.178801	0.749941	0.938494
C61	C	0.448676	-0.000070	0.037006
C62	C	0.698676	0.249930	0.287006
C63	C	0.948676	0.499930	0.537006
C64	C	1.198676	0.749930	0.787006
C65	C	0.535394	-0.000071	0.038530
C66	C	0.785394	0.249929	0.288530
C67	C	1.035394	0.499929	0.538530
C68	C	1.285394	0.749929	0.788530
C69	C	0.568815	-0.000055	0.115039
C70	C	0.818815	0.249945	0.365039
C71	C	1.068815	0.499945	0.615039
C72	C	1.318815	0.749945	0.865039
C73	C	0.395376	-0.000062	0.111990
C74	C	0.645376	0.249938	0.361990
C75	C	0.895376	0.499938	0.611990
C76	C	1.145376	0.749938	0.861990
C77	C	0.301350	-0.000071	0.110337
C78	C	0.551350	0.249929	0.360337
C79	C	0.801350	0.499929	0.610337
C80	C	1.051350	0.749929	0.860337
C81	C	0.662847	-0.000048	0.116693
C82	C	0.912847	0.249952	0.366693
C83	C	1.162847	0.499952	0.616693
C84	C	1.412847	0.749952	0.866693
C85	C	0.982098	-0.569898	0.113516
C86	C	1.232098	-0.319898	0.363516
C87	C	1.482098	-0.069898	0.613516
C88	C	1.732098	0.180102	0.863516
C89	C	0.982088	-0.430221	0.113513
C90	C	1.232088	-0.180221	0.363513
C91	C	1.482088	0.069779	0.613513
C92	C	1.732088	0.319779	0.863513
C93	C	1.134101	-0.000074	0.107404
C94	C	1.384101	0.249926	0.357404
C95	C	1.634101	0.499926	0.607404
C96	C	1.884101	0.749926	0.857404
C97	C	1.226397	-0.000073	0.109019
C98	C	1.476397	0.249927	0.359019
C99	C	1.726397	0.499927	0.609019
C100	C	1.976397	0.749927	0.859019
C101	C	0.988206	-0.000078	-0.038491
C102	C	1.238206	0.249922	0.211509
C103	C	1.488206	0.499922	0.461509
C104	C	1.738206	0.749922	0.711509
C105	C	0.986591	-0.000079	-0.130786
C106	C	1.236591	0.249921	0.119214
C107	C	1.486591	0.499921	0.369214
C108	C	1.736591	0.749921	0.619214
N109	N	0.982112	0.318764	0.113516
N110	N	1.232112	0.568764	0.363516
N111	N	1.482112	0.818764	0.613516
N112	N	1.732112	1.068764	0.863516
C113	C	1.058599	-0.000066	-0.353059
C114	C	1.308599	0.249934	-0.103059
C115	C	1.558599	0.499934	0.146941
C116	C	1.808599	0.749934	0.396941
C117	C	1.057075	-0.000055	-0.439779
C118	C	1.307075	0.249945	-0.189779
C119	C	1.557075	0.499945	0.060221
C120	C	1.807075	0.749945	0.310221
C121	C	0.905586	-0.000048	-0.419905
C122	C	1.155586	0.249952	-0.169905
C123	C	1.405586	0.499952	0.080095
C124	C	1.655586	0.749952	0.330095
C125	C	0.907111	-0.000049	-0.333186
C126	C	1.157111	0.249951	-0.083186
C127	C	1.407111	0.499951	0.166814
C128	C	1.657111	0.749951	0.416814
C129	C	0.983620	-0.000064	-0.299766
C130	C	1.233620	0.249936	-0.049766
C131	C	1.483620	0.499936	0.200234
C132	C	1.733620	0.749936	0.450234
C133	C	0.980571	-0.000053	-0.473205
C134	C	1.230571	0.249947	-0.223205
C135	C	1.480571	0.499947	0.026795
C136	C	1.730571	0.749947	0.276795
C137	C	0.978918	-0.000042	-0.567231
C138	C	1.228918	0.249958	-0.317231
C139	C	1.478918	0.499958	-0.067231
C140	C	1.728918	0.749958	0.182769
C141	C	0.985273	-0.000073	-0.205734
C142	C	1.235273	0.249927	0.044266
C143	C	1.485273	0.499927	0.294266
C144	C	1.735273	0.749927	0.544266
C145	C	0.975984	-0.000048	0.265521
C146	C	1.225984	0.249952	0.515521
C147	C	1.475984	0.499952	0.765521
C148	C	1.725984	0.749952	1.015521
C149	C	0.977600	-0.000038	0.357816
C150	C	1.227600	0.249962	0.607816
C151	C	1.477600	0.499962	0.857816
C152	C	1.727600	0.749962	1.107816
H153	H	0.542730	-0.000047	0.252317
H154	H	0.792730	0.249953	0.502317
H155	H	1.042730	0.499953	0.752317
H156	H	1.292730	0.749953	1.002317
C157	C	0.824630	-0.000051	-0.274560
C158	C	1.074630	0.249949	-0.024560
C159	C	1.324630	0.499949	0.225440
C160	C	1.574630	0.749949	0.475440
H161	H	0.778846	-0.000060	-0.306882
H162	H	1.028846	0.249940	-0.056882
H163	H	1.278846	0.499940	0.193118
H164	H	1.528846	0.749940	0.443118
H165	H	0.822079	0.071312	-0.240311
H166	H	1.072079	0.321312	0.009689
H167	H	1.322079	0.571312	0.259689
H168	H	1.572079	0.821312	0.509689
H169	H	0.822078	-0.071426	-0.240325
H170	H	1.072078	0.178574	0.009675
H171	H	1.322078	0.428574	0.259675
H172	H	1.572078	0.678574	0.509675
H173	H	0.385413	-0.000058	0.249550
H174	H	0.635413	0.249942	0.499550
H175	H	0.885413	0.499942	0.749550
H176	H	1.135413	0.749942	0.999550
H177	H	0.843295	-0.000038	-0.447127
H178	H	1.093295	0.249962	-0.197127
H179	H	1.343295	0.499962	0.052873
H180	H	1.593295	0.749962	0.302873
H181	H	0.421454	-0.000090	-0.025285
H182	H	0.671454	0.249910	0.224715
H183	H	0.921454	0.499910	0.474715
H184	H	1.171454	0.749910	0.724715
H185	H	0.578788	-0.000078	-0.022530
H186	H	0.828788	0.249922	0.227470
H187	H	1.078788	0.499922	0.477470
H188	H	1.328788	0.749922	0.727470
H189	H	1.118130	-0.000054	-0.483168
H190	H	1.368130	0.249946	-0.233168
H191	H	1.618130	0.499946	0.016832
H192	H	1.868130	0.749946	0.266832
H193	H	1.120897	-0.000075	-0.325851
H194	H	1.370897	0.249925	-0.075851
H195	H	1.620897	0.499925	0.174149
H196	H	1.870897	0.749925	0.424149
