data_functionalizedCrystal
_audit_creation_method	'MofGen! by Chris Wilmer'
_symmetry_space_group_name_H-M	'P1'
_symmetry_Int_Tables_number	1
_symmetry_cell_setting	triclinic
loop_
_symmetry_equiv_pos_as_xyz
  x,y,z
_cell_length_a	25.639242
_cell_length_b	14.908571
_cell_length_c	14.908308
_cell_angle_alpha	89.824947
_cell_angle_beta	93.271885
_cell_angle_gamma	93.303821
loop_
_atom_site_label
_atom_site_type_symbol
_atom_site_fract_x
_atom_site_fract_y
_atom_site_fract_z
Zn1	Zn	0.272858	1.345463	0.587621
Zn2	Zn	0.772858	1.845463	1.087621
Zn3	Zn	0.355559	1.354094	0.437273
Zn4	Zn	0.855559	1.854094	0.937273
Zn5	Zn	0.262815	1.203772	0.428617
Zn6	Zn	0.762815	1.703772	0.928617
Zn7	Zn	0.354938	1.195122	0.578924
Zn8	Zn	0.854938	1.695122	1.078924
O9	O	0.311543	1.274613	0.508109
O10	O	0.811543	1.774613	1.008109
O11	O	0.288291	1.472437	0.574939
O12	O	0.788291	1.972437	1.074939
O13	O	0.339313	1.341386	0.310299
O14	O	0.839313	1.841386	0.810299
O15	O	0.190983	1.222576	0.449726
O16	O	0.690983	1.722576	0.949726
O17	O	0.349051	1.478778	0.464479
O18	O	0.849051	1.978778	0.964479
O19	O	0.198361	1.326676	0.566546
O20	O	0.698361	1.826676	1.066546
O21	O	0.271175	1.230945	0.303940
O22	O	0.771175	1.730945	0.803940
O23	O	0.270573	1.076796	0.441294
O24	O	0.770573	1.576796	0.941294
O25	O	0.347993	1.207832	0.705903
O26	O	0.847993	1.707832	1.205903
O27	O	0.338255	1.070441	0.551724
O28	O	0.838255	1.570441	1.051724
O29	O	0.287689	1.318288	0.712292
O30	O	0.787689	1.818288	1.212292
O31	O	0.428641	1.332998	0.456046
O32	O	0.928641	1.832998	0.956046
O33	O	0.428185	1.216202	0.560117
O34	O	0.928185	1.716202	1.060117
C35	C	0.303257	1.040992	0.494626
C36	C	0.803257	1.540992	0.994626
C37	C	0.299726	0.941047	0.488880
C38	C	0.799726	1.441047	0.988880
C39	C	0.363666	0.746679	0.592918
C40	C	0.863666	1.246679	1.092918
C41	C	0.360350	0.652771	0.587522
C42	C	0.860350	1.152771	1.087522
C43	C	0.289774	0.659322	0.472697
C44	C	0.789774	1.159322	0.972697
C45	C	0.293091	0.753230	0.478093
C46	C	0.793091	1.253230	0.978093
C47	C	0.330038	0.796905	0.538205
C48	C	0.830038	1.296905	1.038205
C49	C	0.333357	0.890814	0.543596
C50	C	0.833357	1.390814	1.043596
C51	C	0.262779	0.897364	0.428775
C52	C	0.762779	1.397364	0.928775
C53	C	0.259463	0.803456	0.423379
C54	C	0.759463	1.303456	0.923379
C55	C	0.175171	1.274628	0.508141
C56	C	0.675171	1.774628	1.008141
C57	C	0.117058	1.274634	0.508154
C58	C	0.617058	1.774634	1.008154
C59	C	-0.134366	1.213838	0.562320
C60	C	0.365634	1.713838	1.062320
C61	C	-0.079762	1.213831	0.562321
C62	C	0.420238	1.713831	1.062321
O63	O	-0.051722	1.162094	0.608377
O64	O	0.448278	1.662094	1.108377
N65	N	-0.052216	1.274641	0.508142
N66	N	0.447784	1.774641	1.008142
C67	C	-0.079278	1.335456	0.453951
C68	C	0.420722	1.835456	0.953951
O69	O	-0.050835	1.387178	0.407867
O70	O	0.449165	1.887178	0.907867
C71	C	-0.133882	1.335457	0.453947
C72	C	0.366118	1.835457	0.953947
C73	C	-0.161424	1.274650	0.508136
C74	C	0.338576	1.774650	1.008136
C75	C	-0.161908	1.153034	0.616505
C76	C	0.338092	1.653034	1.116505
C77	C	-0.216509	1.153042	0.616506
C78	C	0.283491	1.653042	1.116506
C79	C	-0.243566	1.213854	0.562321
C80	C	0.256434	1.713854	1.062321
C81	C	-0.216024	1.274658	0.508137
C82	C	0.283976	1.774658	1.008137
C83	C	-0.160943	1.396267	0.399752
C84	C	0.339057	1.896267	0.899752
C85	C	-0.215550	1.396263	0.399751
C86	C	0.284450	1.896263	0.899751
C87	C	-0.243092	1.335455	0.453941
C88	C	0.256908	1.835455	0.953941
C89	C	-0.297682	1.335477	0.453953
C90	C	0.202318	1.835477	0.953953
N91	N	-0.325228	1.274667	0.508133
N92	N	0.174772	1.774667	1.008133
C93	C	-0.298170	1.213856	0.562317
C94	C	0.201830	1.713856	1.062317
C95	C	0.035393	1.335446	0.453964
C96	C	0.535393	1.835446	0.953964
C97	C	0.089995	1.335450	0.453973
C98	C	0.589995	1.835450	0.953973
C99	C	0.089508	1.213824	0.562342
C100	C	0.589508	1.713824	1.062342
C101	C	0.034904	1.213826	0.562337
C102	C	0.534904	1.713826	1.062337
C103	C	0.007847	1.274636	0.508144
C104	C	0.507847	1.774636	1.008144
C105	C	-0.412834	1.213878	0.562314
C106	C	0.087166	1.713878	1.062314
C107	C	-0.467439	1.213894	0.562313
C108	C	0.032561	1.713894	1.062313
C109	C	-0.466947	1.335516	0.453941
C110	C	0.033053	1.835516	0.953941
C111	C	-0.412347	1.335504	0.453945
C112	C	0.087653	1.835504	0.953945
C113	C	-0.385292	1.274677	0.508135
C114	C	0.114708	1.774677	1.008135
O115	O	-0.325757	1.387186	0.407918
O116	O	0.174243	1.887186	0.907918
O117	O	-0.326621	1.162134	0.608385
O118	O	0.173379	1.662134	1.108385
C119	C	0.447385	1.274621	0.508098
C120	C	0.947385	1.774621	1.008098
C121	C	0.505503	1.274705	0.508128
C122	C	1.005503	1.774705	1.008128
C123	C	0.318892	1.261132	0.742635
C124	C	0.818892	1.761132	1.242635
C125	C	0.322024	1.255388	0.842576
C126	C	0.822024	1.755388	1.342576
C127	C	0.319861	1.509146	0.521644
C128	C	0.819861	2.009146	1.021644
C129	C	0.323406	1.609090	0.527412
C130	C	0.823406	2.109090	1.027412
C131	C	0.304186	1.288093	0.274498
C132	C	0.804186	1.788093	0.774498
C133	C	0.300913	1.294012	0.174567
C134	C	0.800913	1.794012	0.674567
C135	C	0.265102	1.359607	1.037031
C136	C	0.765102	1.859607	1.537031
C137	C	0.268043	1.354213	1.130935
C138	C	0.768043	1.854213	1.630935
C139	C	0.330843	1.239199	1.124289
C140	C	0.830843	1.739199	1.624289
C141	C	0.327902	1.244594	1.030385
C142	C	0.827902	1.744594	1.530385
C143	C	0.295031	1.304801	0.986760
C144	C	0.795031	1.804801	1.486760
C145	C	0.292093	1.310200	0.892854
C146	C	0.792093	1.810200	1.392854
C147	C	0.354891	1.195183	0.886210
C148	C	0.854891	1.695183	1.386210
C149	C	0.357832	1.189788	0.980114
C150	C	0.857832	1.689788	1.480114
H151	H	0.363442	0.926373	0.592540
H152	H	0.863442	1.426373	1.092540
Cl153	Cl	0.220506	0.960511	0.359981
Cl154	Cl	0.720506	1.460511	0.859981
H155	H	-0.238931	1.103525	0.660629
H156	H	0.261069	1.603525	1.160629
Cl157	Cl	-0.126332	1.472715	0.331622
Cl158	Cl	0.373668	1.972715	0.831622
H159	H	0.111548	1.164307	0.606461
H160	H	0.611548	1.664307	1.106461
Cl161	Cl	0.372159	1.163511	1.179148
Cl162	Cl	0.872159	1.663511	1.679148
H163	H	-0.489862	1.164377	0.606444
H164	H	0.010138	1.664377	1.106444
H165	H	0.238340	1.408635	1.001511
H166	H	0.738340	1.908635	1.501511
H167	H	-0.139884	1.103510	0.660629
H168	H	0.360116	1.603510	1.160629
Cl169	Cl	0.410118	0.801588	0.668475
Cl170	Cl	0.910118	1.301588	1.168475
H171	H	0.229380	0.767883	0.374440
H172	H	0.729380	1.267883	0.874440
Cl173	Cl	-0.378831	1.137409	0.630439
Cl174	Cl	0.121169	1.637409	1.130439
H175	H	0.384593	1.140768	1.015647
H176	H	0.884593	1.640768	1.515647
H177	H	0.112416	1.384975	0.409857
H178	H	0.612416	1.884975	0.909857
Cl179	Cl	0.000285	1.137377	0.630461
Cl180	Cl	0.500285	1.637377	1.130461
Cl181	Cl	0.001384	1.411911	0.385838
Cl182	Cl	0.501384	1.911911	0.885838
Cl183	Cl	-0.249562	1.472713	0.331614
Cl184	Cl	0.250438	1.972713	0.831614
Cl185	Cl	0.392524	1.126289	0.823007
Cl186	Cl	0.892524	1.626289	1.323007
Cl187	Cl	-0.377721	1.411956	0.385830
Cl188	Cl	0.122279	1.911956	0.885830
Cl189	Cl	0.402625	0.589633	0.656310
Cl190	Cl	0.902625	1.089633	1.156310
Cl191	Cl	-0.500973	1.411962	0.385829
Cl192	Cl	-0.000973	1.911962	0.885829
H193	H	0.265329	1.359225	0.857336
H194	H	0.765329	1.859225	1.357336
Cl195	Cl	0.230415	1.423114	1.194130
Cl196	Cl	0.730415	1.923114	1.694130
H197	H	0.259691	0.623746	0.423762
H198	H	0.759691	1.123746	0.923762
