data_functionalizedCrystal
_audit_creation_method	'MofGen! by Chris Wilmer'
_symmetry_space_group_name_H-M	'P1'
_symmetry_Int_Tables_number	1
_symmetry_cell_setting	triclinic
loop_
_symmetry_equiv_pos_as_xyz
  x,y,z
_cell_length_a	15.995350
_cell_length_b	14.044220
_cell_length_c	13.101039
_cell_angle_alpha	86.332523
_cell_angle_beta	86.648674
_cell_angle_gamma	91.659374
loop_
_atom_site_label
_atom_site_type_symbol
_atom_site_fract_x
_atom_site_fract_y
_atom_site_fract_z
O1	O	1.124319	-0.116957	-0.085064
O2	O	1.457652	0.216376	0.248269
O3	O	1.790986	0.549709	0.581603
O4	O	0.881672	-0.132043	-0.085100
O5	O	1.215006	0.201290	0.248234
O6	O	1.548339	0.534624	0.581567
O7	O	0.999353	0.013484	-0.085072
O8	O	1.332686	0.346817	0.248261
O9	O	1.666020	0.680151	0.581594
O10	O	1.006638	-0.262484	-0.085091
O11	O	1.339972	0.070849	0.248242
O12	O	1.673305	0.404183	0.581575
O13	O	0.990911	0.003025	0.085356
O14	O	1.324244	0.336359	0.418689
O15	O	1.657578	0.669692	0.752022
O16	O	0.873230	-0.142501	0.085328
O17	O	1.206563	0.190832	0.418662
O18	O	1.539897	0.524165	0.751995
O19	O	1.115877	-0.127416	0.085364
O20	O	1.449210	0.205917	0.418697
O21	O	1.782543	0.539251	0.752030
Zn22	Zn	0.993213	-0.136619	0.112405
Zn23	Zn	1.326546	0.196714	0.445738
Zn24	Zn	1.659880	0.530047	0.779072
Zn25	Zn	1.004336	-0.122840	-0.112141
Zn26	Zn	1.337669	0.210494	0.221192
Zn27	Zn	1.671003	0.543827	0.554526
O28	O	0.998196	-0.272943	0.085336
O29	O	1.331529	0.060391	0.418670
O30	O	1.664863	0.393724	0.752003
C31	C	0.846210	-0.136648	0.000110
C32	C	1.179543	0.196685	0.333443
C33	C	1.512877	0.530019	0.666777
C34	C	0.753121	-0.134777	0.000097
C35	C	1.086454	0.198556	0.333430
C36	C	1.419787	0.531889	0.666763
C37	C	1.151339	-0.122811	0.000152
C38	C	1.484672	0.210523	0.333485
C39	C	1.818006	0.543856	0.666819
C40	C	1.244429	-0.124681	0.000159
C41	C	1.577762	0.208652	0.333492
C42	C	1.911095	0.541986	0.666825
C43	C	0.991943	0.043569	0.000142
C44	C	1.325277	0.376902	0.333475
C45	C	1.658610	0.710236	0.666808
C46	C	0.982432	0.148795	0.000142
C47	C	1.315766	0.482128	0.333475
C48	C	1.649099	0.815461	0.666808
C49	C	1.582680	-0.131394	0.000117
C50	C	1.916013	0.201939	0.333450
C51	C	2.249347	0.535273	0.666784
C52	C	1.542968	-0.235060	0.000495
C53	C	1.876302	0.098273	0.333828
C54	C	2.209635	0.431607	0.667162
C55	C	1.446157	-0.233167	0.000122
C56	C	1.779490	0.100167	0.333455
C57	C	2.112823	0.433500	0.666788
C58	C	1.414870	-0.128064	0.000138
C59	C	1.748203	0.205269	0.333472
C60	C	2.081536	0.538602	0.666805
C61	C	1.456933	-0.070971	-0.097182
C62	C	1.790266	0.262362	0.236151
C63	C	2.123600	0.595695	0.569484
C64	C	1.553768	-0.073569	-0.097275
C65	C	1.887101	0.259764	0.236058
C66	C	2.220434	0.593097	0.569392
C67	C	1.544399	-0.083322	0.096534
C68	C	1.877732	0.250011	0.429867
C69	C	2.211066	0.583344	0.763200
C70	C	1.447392	-0.083427	0.097831
C71	C	1.780725	0.249907	0.431164
C72	C	2.114058	0.583240	0.764497
C73	C	1.320031	-0.126177	0.000147
C74	C	1.653364	0.207157	0.333480
C75	C	1.986697	0.540490	0.666813
C76	C	1.677519	-0.133278	0.000102
C77	C	2.010853	0.200055	0.333435
C78	C	2.344186	0.533389	0.666768
C79	C	1.005606	-0.303028	0.000120
C80	C	1.338939	0.030306	0.333454
C81	C	1.672273	0.363639	0.666787
C82	C	1.015117	-0.408253	0.000114
C83	C	1.348451	-0.074920	0.333447
C84	C	1.681784	0.258413	0.666780
N85	N	0.985628	-0.146023	0.265652
N86	N	1.318961	0.187310	0.598985
N87	N	1.652295	0.520644	0.932319
C88	C	0.965045	0.341457	0.000124
C89	C	1.298378	0.674791	0.333458
C90	C	1.631712	1.008124	0.666791
C91	C	1.032501	0.399090	0.000131
C92	C	1.365834	0.732423	0.333464
C93	C	1.699167	1.065757	0.666798
C94	C	1.022826	0.506294	0.000121
C95	C	1.356160	0.839627	0.333455
C96	C	1.689493	1.172961	0.666788
C97	C	0.974718	0.234243	0.000134
C98	C	1.308052	0.567577	0.333467
C99	C	1.641385	0.900910	0.666801
N100	N	1.011927	-0.113428	-0.265388
N101	N	1.345260	0.219905	0.067946
N102	N	1.678594	0.553238	0.401279
C103	C	0.975309	-0.158826	0.474692
C104	C	1.308642	0.174508	0.808025
C105	C	1.641976	0.507841	1.141359
C106	C	1.022244	-0.100629	0.525579
C107	C	1.355577	0.232705	0.858912
C108	C	1.688910	0.566038	1.192245
C109	C	1.016502	-0.107752	0.641896
C110	C	1.349835	0.225581	0.975229
C111	C	1.683169	0.558914	1.308563
C112	C	0.981050	-0.151703	0.358364
C113	C	1.314383	0.181630	0.691698
C114	C	1.647716	0.514963	1.025031
H115	H	1.417292	-0.277636	0.069881
H116	H	1.750626	0.055697	0.403215
H117	H	2.083959	0.389030	0.736548
O118	O	1.567057	-0.295622	0.092920
O119	O	1.900391	0.037711	0.426253
O120	O	2.233724	0.371045	0.759586
H121	H	1.607596	-0.252489	0.139575
H122	H	1.940929	0.080845	0.472908
H123	H	2.274262	0.414178	0.806241
O124	O	1.118626	0.357811	0.000162
O125	O	1.451959	0.691145	0.333495
O126	O	1.785293	1.024478	0.666829
H127	H	1.112810	0.278864	0.000179
H128	H	1.446144	0.612197	0.333512
H129	H	1.779477	0.945531	0.666845
O130	O	1.081185	-0.027546	0.467576
O131	O	1.414518	0.305787	0.800909
O132	O	1.747851	0.639121	1.134243
H133	H	1.114679	0.013992	0.522799
H134	H	1.448012	0.347325	0.856132
H135	H	1.781346	0.680658	1.189466
O136	O	1.430817	0.031604	-0.101965
O137	O	1.764151	0.364937	0.231369
O138	O	2.097484	0.698270	0.564702
H139	H	1.487142	0.079502	-0.100897
H140	H	1.820476	0.412835	0.232436
H141	H	2.153809	0.746169	0.565770
H142	H	0.900034	0.372627	0.000112
H143	H	1.233367	0.705961	0.333446
H144	H	1.566700	1.039294	0.666779
O145	O	0.916386	-0.231923	0.532685
O146	O	1.249719	0.101410	0.866018
O147	O	1.583052	0.434744	1.199352
H148	H	0.870276	-0.195041	0.581582
H149	H	1.203609	0.138292	0.914915
H150	H	1.536942	0.471626	1.248249
O151	O	1.577524	-0.284039	-0.091458
O152	O	1.910857	0.049295	0.241876
O153	O	2.244190	0.382628	0.575209
H154	H	1.646553	-0.288239	-0.088746
H155	H	1.979886	0.045094	0.244587
H156	H	2.313220	0.378428	0.577920
O157	O	1.417800	-0.281153	-0.092389
O158	O	1.751133	0.052180	0.240945
O159	O	2.084466	0.385513	0.574278
H160	H	1.473262	-0.305784	-0.137047
H161	H	1.806596	0.027550	0.196286
H162	H	2.139929	0.360883	0.529619
O163	O	1.427601	-0.112112	-0.193127
O164	O	1.760935	0.221221	0.140206
O165	O	2.094268	0.554554	0.473540
H166	H	1.383088	-0.173198	-0.171743
H167	H	1.716422	0.160135	0.161590
H168	H	2.049755	0.493469	0.494923
O169	O	1.589248	0.027580	-0.103124
O170	O	1.922581	0.360913	0.230210
O171	O	2.255915	0.694247	0.563543
H172	H	1.658610	0.026484	-0.103225
H173	H	1.991943	0.359817	0.230108
H174	H	2.325277	0.693150	0.563442
H175	H	1.578444	-0.106384	-0.170030
H176	H	1.911778	0.226949	0.163303
H177	H	2.245111	0.560282	0.496636
H178	H	1.563831	-0.121733	0.170292
H179	H	1.897164	0.211600	0.503625
H180	H	2.230497	0.544933	0.836958
H181	H	1.426017	-0.007141	0.103717
H182	H	1.759350	0.326192	0.437050
H183	H	2.092683	0.659525	0.770384
O184	O	1.410234	-0.138726	0.193207
O185	O	1.743567	0.194607	0.526540
O186	O	2.076900	0.527941	0.859873
H187	H	1.368768	-0.197753	0.171137
H188	H	1.702102	0.135580	0.504470
H189	H	2.035435	0.468913	0.837803
O190	O	1.578871	0.017840	0.097428
O191	O	1.912205	0.351173	0.430762
O192	O	2.245538	0.684506	0.764095
H193	H	1.623054	0.033847	0.029576
H194	H	1.956387	0.367181	0.362909
H195	H	2.289720	0.700514	0.696243
