data_functionalizedCrystal
_audit_creation_method	'MofGen! by Chris Wilmer'
_symmetry_space_group_name_H-M	'P1'
_symmetry_Int_Tables_number	1
_symmetry_cell_setting	triclinic
loop_
_symmetry_equiv_pos_as_xyz
  x,y,z
_cell_length_a	19.121321
_cell_length_b	21.295418
_cell_length_c	19.120904
_cell_angle_alpha	87.589843
_cell_angle_beta	85.036248
_cell_angle_gamma	87.592065
loop_
_atom_site_label
_atom_site_type_symbol
_atom_site_fract_x
_atom_site_fract_y
_atom_site_fract_z
Zn1	Zn	1.058635	-0.304489	0.351904
Zn2	Zn	1.063568	-0.405448	0.234241
Zn3	Zn	0.946000	-0.295901	0.239279
Zn4	Zn	0.940939	-0.405422	0.356885
O5	O	1.002286	-0.352815	0.295577
O6	O	1.157749	-0.321486	0.332103
O7	O	1.052155	-0.387333	0.136448
O8	O	0.960995	-0.208954	0.254243
O9	O	1.161373	-0.395660	0.245656
O10	O	1.043747	-0.215264	0.336988
O11	O	0.965778	-0.306849	0.140150
O12	O	0.846870	-0.306824	0.259072
O13	O	0.952369	-0.395617	0.454685
O14	O	0.843152	-0.387289	0.345477
O15	O	1.038840	-0.321462	0.451026
O16	O	1.047248	-0.493531	0.250486
O17	O	0.957153	-0.493512	0.340592
C18	C	0.819481	-0.346122	0.303362
C19	C	0.741276	-0.343275	0.306709
C20	C	0.298867	-0.325189	0.327934
C21	C	0.372349	-0.327876	0.324785
C22	C	0.410972	-0.367768	0.278130
C23	C	0.376108	-0.404981	0.234626
C24	C	0.302627	-0.402297	0.237779
C25	C	0.632931	-0.377804	0.266358
C26	C	0.706417	-0.380484	0.263207
C27	C	0.702654	-0.303379	0.353368
C28	C	0.629172	-0.300695	0.356514
C29	C	0.594314	-0.337911	0.313012
C30	C	0.486082	-0.370514	0.274909
C31	C	0.519204	-0.335168	0.316238
C32	C	1.002205	-0.516362	0.295547
C33	C	1.002233	-0.586332	0.295555
C34	C	1.049362	-1.085792	0.248765
C35	C	1.049336	-1.020048	0.248750
C36	C	1.002383	-0.987180	0.295622
C37	C	0.955439	-1.020060	0.342501
C38	C	0.955462	-1.085802	0.342511
N39	N	0.994283	-0.885981	0.357425
N40	N	0.994266	-0.823529	0.357414
C41	C	1.002311	-0.789101	0.295596
N42	N	1.010387	-0.819486	0.233788
N43	N	1.010408	-0.881944	0.233799
C44	C	1.002353	-0.915893	0.295617
C45	C	1.049219	-0.684941	0.248699
C46	C	1.049188	-0.619196	0.248683
C47	C	0.955295	-0.619209	0.342441
C48	C	0.955323	-0.684953	0.342451
C49	C	1.002288	-0.717815	0.295581
C50	C	1.185804	-0.359534	0.287762
C51	C	1.264008	-0.362397	0.284432
C52	C	0.994490	-0.359494	0.479099
C53	C	0.991168	-0.362341	0.557305
C54	C	1.002385	-0.188630	0.295622
C55	C	1.002428	-0.118664	0.295641
C56	C	1.010091	-0.346118	0.112768
C57	C	1.013550	-0.343099	0.034556
C58	C	1.034626	-0.325071	0.592142
C59	C	1.031496	-0.327743	0.665625
C60	C	0.984911	-0.367688	0.704270
C61	C	0.941449	-0.404959	0.669427
C62	C	0.944576	-0.402283	0.595946
C63	C	0.973214	-0.377695	0.926232
C64	C	0.970092	-0.380369	0.999719
C65	C	1.060139	-0.303151	0.995912
C66	C	1.063264	-0.300482	0.922429
C67	C	1.019799	-0.337751	0.887593
C68	C	0.981712	-0.370421	0.779381
C69	C	1.022995	-0.335014	0.812483
H70	H	0.597730	-0.268213	0.394508
H71	H	1.087461	-0.711699	0.210534
H72	H	1.101200	-0.267957	0.890969
H73	H	0.400728	-0.297578	0.360212
H74	H	1.087406	-0.592430	0.210507
H75	H	1.087557	-0.993278	0.210577
H76	H	0.917105	-0.711719	0.380624
H77	H	0.274245	-0.432598	0.202356
H78	H	1.095524	-0.272809	1.024283
O79	O	1.073735	-0.291629	0.699547
C80	C	1.117357	-0.330674	0.740105
H81	H	1.092048	-0.377872	0.752151
H82	H	1.170704	-0.338465	0.709576
C83	C	1.158216	-0.241076	0.794580
C84	C	1.127128	-0.299043	0.809381
H85	H	1.164247	-0.221564	0.837312
H86	H	1.128830	-0.214770	0.767254
H87	H	1.202669	-0.247577	0.769138
H88	H	1.082673	-0.292541	0.834815
H89	H	1.156508	-0.325348	0.836713
H90	H	0.932155	-0.412898	1.031182
H91	H	0.917062	-0.592449	0.380602
H92	H	0.731043	-0.273081	0.388785
H93	H	0.737862	-0.412972	0.225213
O94	O	0.930959	-0.413950	0.892509
C95	C	0.889157	-0.449763	0.942378
H96	H	0.915756	-0.454918	0.993526
H97	H	0.835411	-0.425026	0.952485
C98	C	0.847495	-0.509003	0.851286
C99	C	0.880168	-0.515340	0.914105
H100	H	0.841948	-0.549453	0.833846
H101	H	0.875656	-0.484874	0.817688
H102	H	0.802711	-0.488387	0.859717
H103	H	0.924955	-0.535949	0.905672
H104	H	0.852015	-0.539474	0.947702
H105	H	0.604559	-0.408106	0.230934
H106	H	0.903516	-0.437481	0.700898
H107	H	0.267426	-0.292700	0.365922
O108	O	0.902444	-0.438586	0.562126
C109	C	0.917012	-0.502539	0.579423
H110	H	0.972357	-0.508505	0.597239
H111	H	0.877462	-0.519169	0.623669
C112	C	0.843615	-0.534543	0.492596
C113	C	0.911593	-0.541872	0.514473
H114	H	0.840269	-0.558807	0.452534
H115	H	0.833798	-0.491458	0.480945
H116	H	0.810665	-0.548402	0.529474
H117	H	0.944541	-0.528007	0.477599
H118	H	0.921416	-0.584957	0.526117
H119	H	0.407560	-0.437466	0.196641
O120	O	1.079897	-0.286214	0.554714
C121	C	1.117593	-0.253903	0.601223
H122	H	1.086546	-0.252576	0.654829
H123	H	1.170683	-0.279195	0.606760
C124	C	1.167127	-0.187864	0.506296
C125	C	1.128992	-0.186230	0.572133
H126	H	1.174162	-0.146122	0.488351
H127	H	1.141733	-0.209634	0.474961
H128	H	1.211365	-0.208944	0.510919
H129	H	1.084752	-0.165158	0.567508
H130	H	1.154379	-0.164455	0.603467
H131	H	0.917208	-0.993295	0.380665
H132	H	1.060921	-0.302488	0.781016
H133	H	0.487755	-0.302689	0.354227
H134	H	0.517537	-0.402993	0.236919
O135	O	1.095003	-1.117613	0.203165
C136	C	1.136435	-1.074496	0.161799
H137	H	1.107707	-1.026511	0.160561
H138	H	1.188751	-1.070350	0.185336
C139	C	1.185114	-1.156755	0.088011
C140	C	1.149827	-1.097820	0.086486
H141	H	1.193379	-1.171142	0.041555
H142	H	1.157203	-1.185804	0.115882
H143	H	1.228707	-1.153292	0.107629
H144	H	1.106232	-1.101285	0.066877
H145	H	1.177731	-1.068771	0.058610
H146	H	0.917243	-1.112567	0.380685
H147	H	0.943786	-0.402948	0.810854
