data_functionalizedCrystal
_audit_creation_method	'MofGen! by Chris Wilmer'
_symmetry_space_group_name_H-M	'P1'
_symmetry_Int_Tables_number	1
_symmetry_cell_setting	triclinic
loop_
_symmetry_equiv_pos_as_xyz
  x,y,z
_cell_length_a	19.077399
_cell_length_b	19.076808
_cell_length_c	19.077222
_cell_angle_alpha	94.702520
_cell_angle_beta	85.324226
_cell_angle_gamma	94.711600
loop_
_atom_site_label
_atom_site_type_symbol
_atom_site_fract_x
_atom_site_fract_y
_atom_site_fract_z
Zn1	Zn	1.052958	-0.224084	0.346737
Zn2	Zn	1.052897	-0.346689	0.224112
Zn3	Zn	0.939481	-0.233195	0.233236
Zn4	Zn	0.930305	-0.346681	0.346684
O5	O	0.993910	-0.287662	0.287692
O6	O	1.151746	-0.236538	0.326674
O7	O	1.041667	-0.335451	0.126525
O8	O	0.958399	-0.133182	0.252133
O9	O	1.151702	-0.326616	0.236582
O10	O	1.041771	-0.126487	0.335521
O11	O	0.958340	-0.252067	0.133228
O12	O	0.839467	-0.252059	0.252081
O13	O	0.942760	-0.326602	0.445488
O14	O	0.832726	-0.335437	0.335431
O15	O	1.032873	-0.236530	0.445527
O16	O	1.032770	-0.445493	0.236531
O17	O	0.942701	-0.445487	0.326584
C18	C	0.810480	-0.294736	0.294741
C19	C	0.732006	-0.297779	0.297772
C20	C	0.698628	-0.255727	0.255878
C21	C	0.624894	-0.258592	0.258726
C22	C	0.584539	-0.303506	0.303473
C23	C	0.617921	-0.345562	0.345369
C24	C	0.691655	-0.342700	0.342517
C25	C	0.363645	-0.316730	0.316645
C26	C	0.289907	-0.319587	0.319496
C27	C	0.296885	-0.232618	0.232851
C28	C	0.370619	-0.229757	0.230006
C29	C	0.403995	-0.271816	0.271899
N30	N	0.509170	-0.306433	0.306387
N31	N	0.479363	-0.268892	0.268981
C32	C	0.986752	-0.471108	0.280576
C33	C	0.983753	-0.549583	0.277553
C34	C	1.025716	-0.582905	0.319586
C35	C	1.022896	-0.656642	0.316747
C36	C	0.978115	-0.697054	0.271870
C37	C	0.936148	-0.663727	0.229835
C38	C	0.938965	-0.589993	0.232678
C39	C	0.965035	-0.917958	0.258710
C40	C	0.962223	-0.991698	0.255868
C41	C	1.048970	-0.984607	0.342781
C42	C	1.051786	-0.910871	0.345618
C43	C	1.009816	-0.877550	0.303585
N44	N	0.975233	-0.772424	0.268965
N45	N	1.012695	-0.802182	0.306494
C46	C	1.178057	-0.280561	0.280616
C47	C	1.256529	-0.277535	0.277601
C48	C	0.986800	-0.280549	0.471841
C49	C	0.983770	-0.277517	0.550315
C50	C	1.001115	-0.103499	0.294851
C51	C	1.004186	-0.025020	0.297901
C52	C	0.962059	-0.255799	0.992411
C53	C	0.964910	-0.258644	0.918677
C54	C	1.009715	-0.303484	0.878319
C55	C	1.051677	-0.345476	0.911699
C56	C	1.048830	-0.342626	0.985432
C57	C	1.022885	-0.316659	0.657427
C58	C	1.025728	-0.319507	0.583689
C59	C	0.938961	-0.232674	0.590673
C60	C	0.936114	-0.229832	0.664407
C61	C	0.978080	-0.271821	0.697780
N62	N	1.012628	-0.306396	0.802951
N63	N	0.975170	-0.268905	0.773147
C64	C	1.000987	-0.294763	1.104259
C65	C	1.004017	-0.297789	1.025786
H66	H	0.269701	-0.198376	0.198743
O67	O	0.592457	-0.217864	0.217920
C68	C	0.550011	-0.261435	0.172354
H69	H	0.570239	-0.316348	0.164933
H70	H	0.493185	-0.265212	0.196212
C71	C	0.528239	-0.162301	0.109494
C72	C	0.553087	-0.229745	0.100374
H73	H	0.530133	-0.142753	0.065094
H74	H	0.556833	-0.132945	0.140194
H75	H	0.480886	-0.165458	0.129377
H76	H	0.600442	-0.226586	0.080499
H77	H	0.524501	-0.259099	0.069669
O78	O	0.396026	-0.357503	0.357450
C79	C	0.375887	-0.340170	0.429129
H80	H	0.357676	-0.284412	0.435755
H81	H	0.330904	-0.378997	0.447705
C82	C	0.461618	-0.412586	0.465247
C83	C	0.439257	-0.344101	0.473386
H84	H	0.500706	-0.415014	0.492548
H85	H	0.475184	-0.424267	0.416956
H86	H	0.424126	-0.444935	0.480727
H87	H	0.476745	-0.311755	0.457898
H88	H	0.425698	-0.332415	0.521676
O89	O	0.409852	-0.186051	0.186640
C90	C	0.452741	-0.137315	0.227029
H91	H	0.428550	-0.131752	0.283665
H92	H	0.507679	-0.156893	0.226422
C93	C	0.487768	-0.071978	0.125903
C94	C	0.458053	-0.065141	0.195463
H95	H	0.491048	-0.027459	0.106431
H96	H	0.458876	-0.104814	0.098691
H97	H	0.533547	-0.088295	0.125407
H98	H	0.412272	-0.048833	0.195958
H99	H	0.486938	-0.032301	0.222674
O100	O	1.063696	-0.689096	0.357469
C101	C	1.109254	-0.731498	0.313904
H102	H	1.086033	-0.745606	0.260911
H103	H	1.162967	-0.701319	0.305272
C104	C	1.146350	-0.782196	0.414651
C105	C	1.117827	-0.799529	0.349565
H106	H	1.151642	-0.824160	0.436648
H107	H	1.115659	-0.753628	0.444002
H108	H	1.191108	-0.757046	0.407448
H109	H	1.073067	-0.824671	0.356769
H110	H	1.148511	-0.828104	0.320216
H111	H	0.731481	-0.219148	0.219446
O112	O	0.924045	-0.217933	0.886292
C113	C	0.852381	-0.235369	0.906427
H114	H	0.845826	-0.291131	0.924635
H115	H	0.833756	-0.196575	0.951410
C116	C	0.816164	-0.163004	0.820696
C117	C	0.808112	-0.231495	0.843054
H118	H	0.788855	-0.160611	0.781606
H119	H	0.864445	-0.151254	0.807132
H120	H	0.800644	-0.130683	0.858187
H121	H	0.823640	-0.263812	0.805566
H122	H	0.759832	-0.243249	0.856610
H123	H	0.257051	-0.356160	0.355938
O124	O	1.089795	-1.016862	0.383645
C125	C	1.129904	-0.965381	0.423882
H126	H	1.135506	-0.913853	0.396892
H127	H	1.102225	-0.956466	0.478773
C128	C	1.196658	-1.054082	0.463295
C129	C	1.203544	-0.990796	0.430142
H130	H	1.242082	-1.069760	0.467160
H131	H	1.169635	-1.088767	0.436189
H132	H	1.173590	-1.046645	0.509034
H133	H	1.226603	-0.998236	0.384401
H134	H	1.230573	-0.956113	0.457241
O135	O	0.924193	-0.885567	0.217980
C136	C	0.878644	-0.843141	0.261529
H137	H	0.871243	-0.863364	0.316446
H138	H	0.902506	-0.786299	0.265291
C139	C	0.815744	-0.821428	0.162383
C140	C	0.806649	-0.846269	0.229831
H141	H	0.771335	-0.823354	0.142830
H142	H	0.846432	-0.850009	0.133042
H143	H	0.835631	-0.774061	0.165527
H144	H	0.786771	-0.893637	0.226685
H145	H	0.775956	-0.817696	0.259171
H146	H	1.088250	-0.877968	0.382160
H147	H	1.057054	-0.350852	0.684590
H148	H	0.585058	-0.382135	0.381800
H149	H	1.062230	-0.356009	0.550831
O150	O	1.095140	-0.389018	0.872392
C151	C	1.088669	-0.382519	0.800156
H152	H	1.035479	-0.361882	0.793078
H153	H	1.132826	-0.344115	0.779082
C154	C	1.159129	-0.480520	0.767972
C155	C	1.093798	-0.455179	0.759278
H156	H	1.162296	-0.525340	0.742755
H157	H	1.163492	-0.484898	0.816638
H158	H	1.195920	-0.448511	0.750411
H159	H	1.057009	-0.487184	0.776846
H160	H	1.089429	-0.450809	0.710613
O161	O	0.892578	-0.186209	0.703502
C162	C	0.856142	-0.149769	0.658233
H163	H	0.887184	-0.148241	0.604657
H164	H	0.801812	-0.177992	0.651448
C165	C	0.809676	-0.075778	0.756124
C166	C	0.847805	-0.073897	0.690323
H167	H	0.804529	-0.028977	0.775920
H168	H	0.834221	-0.100330	0.786624
H169	H	0.764404	-0.099300	0.750461
H170	H	0.893078	-0.050383	0.695988
H171	H	0.823267	-0.049339	0.659825
H172	H	1.062184	-0.550006	0.356127
O173	O	0.918655	-1.030851	0.212259
C174	C	0.882227	-0.985631	0.175758
H175	H	0.880649	-0.932040	0.206794
H176	H	0.910488	-0.978855	0.121463
C177	C	0.808327	-1.083602	0.129183
C178	C	0.806384	-1.017782	0.167306
H179	H	0.761545	-1.103435	0.123967
H180	H	0.832871	-1.114068	0.153773
H181	H	0.831881	-1.077947	0.083942
H182	H	0.782838	-1.023440	0.212549
H183	H	0.781834	-0.987318	0.142724
O184	O	0.892688	-0.702906	0.186145
C185	C	0.911590	-0.687029	0.115890
H186	H	0.940833	-0.632477	0.115473
H187	H	0.947239	-0.728019	0.089143
C188	C	0.808661	-0.755009	0.076353
C189	C	0.844573	-0.688004	0.075840
H190	H	0.767323	-0.755613	0.051647
H191	H	0.795928	-0.765708	0.123684
H192	H	0.838376	-0.789159	0.054065
H193	H	0.814861	-0.653856	0.098135
H194	H	0.857300	-0.677299	0.028511
O195	O	1.089611	-0.383487	1.017742
C196	C	1.129781	-0.423663	0.966312
H197	H	1.102796	-0.429255	0.914769
H198	H	1.184715	-0.396043	0.957413
C199	C	1.169047	-0.490435	1.055085
C200	C	1.135901	-0.497309	0.991781
H201	H	1.172826	-0.535863	1.070796
H202	H	1.141987	-0.463367	1.089735
H203	H	1.214823	-0.467416	1.047661
H204	H	1.090124	-0.520319	0.999208
H205	H	1.162954	-0.524383	0.957133
H206	H	0.904793	-0.562863	0.198451
H207	H	0.904796	-0.198488	0.563492
H208	H	0.718830	-0.376943	0.376632
H209	H	0.925572	-0.219287	1.025266
