data_functionalizedCrystal
_audit_creation_method	'MofGen! by Chris Wilmer'
_symmetry_space_group_name_H-M	'P1'
_symmetry_Int_Tables_number	1
_symmetry_cell_setting	triclinic
loop_
_symmetry_equiv_pos_as_xyz
  x,y,z
_cell_length_a	18.050590
_cell_length_b	16.959454
_cell_length_c	16.959447
_cell_angle_alpha	90.026736
_cell_angle_beta	90.000229
_cell_angle_gamma	89.990760
loop_
_atom_site_label
_atom_site_type_symbol
_atom_site_fract_x
_atom_site_fract_y
_atom_site_fract_z
Zn1	Zn	1.135338	0.314895	-0.446621
Zn2	Zn	1.635338	0.814895	0.053379
Zn3	Zn	1.135266	0.447087	-0.314451
Zn4	Zn	1.635266	0.947087	0.185549
Zn5	Zn	1.011156	0.314901	-0.314492
Zn6	Zn	1.511156	0.814901	0.185508
Zn7	Zn	1.011123	0.447010	-0.446623
Zn8	Zn	1.511123	0.947010	0.053377
O9	O	1.073221	0.380973	-0.380547
O10	O	1.573221	0.880973	0.119453
O11	O	1.239253	0.332460	-0.429071
O12	O	1.739253	0.832460	0.070929
O13	O	1.118786	0.429587	-0.203846
O14	O	1.618786	0.929587	0.296154
O15	O	1.027674	0.204290	-0.332036
O16	O	1.527674	0.704290	0.167964
O17	O	1.239200	0.429581	-0.331966
O18	O	1.739200	0.929581	0.168034
O19	O	1.118910	0.204285	-0.429111
O20	O	1.618910	0.704285	0.070889
O21	O	1.027603	0.332471	-0.203876
O22	O	1.527603	0.832471	0.296124
O23	O	0.907228	0.332397	-0.332038
O24	O	1.407228	0.832397	0.167962
O25	O	1.027617	0.429449	-0.557234
O26	O	1.527617	0.929449	-0.057234
O27	O	0.907203	0.429456	-0.429114
O28	O	1.407203	0.929456	0.070886
O29	O	1.118878	0.332385	-0.557233
O30	O	1.618878	0.832385	-0.057233
O31	O	1.118754	0.557688	-0.331968
O32	O	1.618754	1.057688	0.168032
O33	O	1.027547	0.557631	-0.429074
O34	O	1.527547	1.057631	0.070926
C35	C	0.880269	0.380919	-0.380581
C36	C	1.380269	0.880919	0.119419
C37	C	0.797723	0.380915	-0.380614
C38	C	1.297723	0.880915	0.119386
C39	C	0.598281	0.433847	-0.433279
C40	C	1.098281	0.933847	0.066721
C41	C	0.548878	0.361773	-0.452725
C42	C	1.048878	0.861773	0.047275
C43	C	0.646593	0.380959	-0.380576
C44	C	1.146593	0.880959	0.119424
C45	C	0.548914	0.453075	-0.361129
C46	C	1.048914	0.953075	0.138871
C47	C	0.500608	0.381008	-0.380540
C48	C	1.000608	0.881008	0.119460
C49	C	0.598277	0.308847	-0.400059
C50	C	1.098277	0.808847	0.099941
C51	C	0.598317	0.400197	-0.308430
C52	C	1.098317	0.900197	0.191570
C53	C	0.548937	0.328073	-0.327849
C54	C	1.048937	0.828073	0.172151
C55	C	0.730691	0.380932	-0.380598
C56	C	1.230691	0.880932	0.119402
C57	C	0.416511	0.381027	-0.380517
C58	C	0.916511	0.881027	0.119483
C59	C	1.073159	0.586340	-0.380534
C60	C	1.573159	1.086340	0.119466
C61	C	1.073200	0.674196	-0.380554
C62	C	1.573200	1.174196	0.119446
C63	C	1.073252	0.380908	-0.586715
C64	C	1.573252	0.880908	-0.086715
C65	C	1.073265	0.380880	-0.674572
C66	C	1.573265	0.880880	-0.174572
C67	C	1.266927	0.381028	-0.380513
C68	C	1.766927	0.881028	0.119487
C69	C	1.349472	0.381051	-0.380499
C70	C	1.849472	0.881051	0.119501
C71	C	1.073304	0.174805	-0.380578
C72	C	1.573304	0.674805	0.119422
C73	C	1.073339	0.086948	-0.380591
C74	C	1.573339	0.586948	0.119409
C75	C	1.025799	1.045672	-0.431105
C76	C	1.525799	1.545672	0.068895
C77	C	1.120850	1.045671	-0.330070
C78	C	1.620850	1.545671	0.169930
C79	C	1.120824	0.963125	-0.330062
C80	C	1.620824	1.463125	0.169938
C81	C	1.073284	0.921849	-0.380576
C82	C	1.573284	1.421849	0.119424
C83	C	1.025770	0.963119	-0.431098
C84	C	1.525770	1.463119	0.068902
C85	C	1.168333	0.921850	-0.279537
C86	C	1.668333	1.421850	0.220463
C87	C	1.168308	0.839299	-0.279527
C88	C	1.668308	1.339299	0.220473
C89	C	1.120771	0.798021	-0.330045
C90	C	1.620771	1.298021	0.169955
C91	C	1.073255	0.839296	-0.380569
C92	C	1.573255	1.339296	0.119431
C93	C	1.025715	0.798019	-0.431083
C94	C	1.525715	1.298019	0.068917
C95	C	0.978202	0.839292	-0.481611
C96	C	1.478202	1.339292	0.018389
C97	C	0.978232	0.921841	-0.481616
C98	C	1.478232	1.421841	0.018384
C99	C	1.120740	0.715472	-0.330040
C100	C	1.620740	1.215472	0.169960
C101	C	1.025686	0.715466	-0.431075
C102	C	1.525686	1.215466	0.068925
C103	C	1.025839	0.431334	-1.046051
C104	C	1.525839	0.931334	-0.546051
C105	C	1.120869	0.330260	-1.046045
C106	C	1.620869	0.830260	-0.546045
C107	C	1.120849	0.330276	-0.963499
C108	C	1.620849	0.830276	-0.463499
C109	C	1.073324	0.380823	-0.922225
C110	C	1.573324	0.880823	-0.422225
C111	C	1.025819	0.431354	-0.963497
C112	C	1.525819	0.931354	-0.463497
C113	C	1.168359	0.279753	-0.922220
C114	C	1.668359	0.779753	-0.422220
C115	C	1.168341	0.279768	-0.839669
C116	C	1.668341	0.779768	-0.339669
C117	C	1.120812	0.330312	-0.798394
C118	C	1.620812	0.830312	-0.298394
C119	C	1.073304	0.380843	-0.839672
C120	C	1.573304	0.880843	-0.339672
C121	C	1.025780	0.431390	-0.798398
C122	C	1.525780	0.931390	-0.298398
C123	C	0.978268	0.481919	-0.839674
C124	C	1.478268	0.981919	-0.339674
C125	C	0.978290	0.481897	-0.922222
C126	C	1.478290	0.981897	-0.422222
C127	C	1.120790	0.330333	-0.715846
C128	C	1.620790	0.830333	-0.215846
C129	C	1.025760	0.431410	-0.715844
C130	C	1.525760	0.931410	-0.215844
C131	C	1.073233	0.380981	-0.175181
C132	C	1.573233	0.880981	0.324819
C133	C	1.073364	0.380787	-0.087325
C134	C	1.573364	0.880787	0.412675
H135	H	0.527162	0.345517	-0.513721
H136	H	1.027162	0.845517	-0.013721
N137	N	0.974581	0.485815	-1.090562
N138	N	1.474581	0.985815	-0.590562
H139	H	0.981796	0.478129	-1.149120
H140	H	1.481796	0.978129	-0.649120
H141	H	0.986102	0.542278	-1.076125
H142	H	1.486102	1.042278	-0.576125
N143	N	0.974548	1.090178	-0.485597
N144	N	1.474548	1.590178	0.014403
H145	H	0.986042	1.075771	-0.542079
H146	H	1.486042	1.575771	-0.042079
H147	H	0.981801	1.148723	-0.477875
H148	H	1.481801	1.648723	0.022125
H149	H	1.159551	1.079283	-0.288939
H150	H	1.659551	1.579283	0.211061
N151	N	1.219590	0.966366	-0.225041
N152	N	1.719590	1.466366	0.274959
H153	H	1.212397	1.024922	-0.232713
H154	H	1.712397	1.524922	0.267287
H155	H	1.272621	0.951905	-0.237364
H156	H	1.772621	1.451905	0.262636
N157	N	1.172130	0.275749	-1.090556
N158	N	1.672130	0.775749	-0.590556
H159	H	1.164936	0.283405	-1.149114
H160	H	1.664936	0.783405	-0.649114
H161	H	1.160589	0.219296	-1.076146
H162	H	1.660589	0.719296	-0.576146
H163	H	1.206996	0.805699	-0.238385
H164	H	1.706996	1.305699	0.261615
H165	H	0.619949	0.478495	-0.477898
H166	H	1.119949	0.978495	0.022102
N167	N	0.627117	0.421760	-0.227662
N168	N	1.127117	0.921760	0.272338
H169	H	0.657903	0.376899	-0.206214
H170	H	1.157903	0.876899	0.293786
H171	H	0.583995	0.432100	-0.191146
H172	H	1.083995	0.932100	0.308854
N173	N	1.172035	0.275854	-0.671321
N174	N	1.672035	0.775854	-0.171321
H175	H	1.160538	0.219366	-0.685695
H176	H	1.660538	0.719366	-0.185695
H177	H	1.164782	0.283610	-0.612780
H178	H	1.664782	0.783610	-0.112780
H179	H	1.159421	0.681872	-0.288897
H180	H	1.659421	1.181872	0.211103
H181	H	0.527407	0.283317	-0.283264
H182	H	1.027407	0.783317	0.216736
N183	N	0.520191	0.533829	-0.339353
N184	N	1.020191	1.033829	0.160647
H185	H	0.538142	0.573714	-0.379216
H186	H	1.038142	1.073714	0.120784
H187	H	0.538957	0.548679	-0.285246
H188	H	1.038957	1.048679	0.214754
H189	H	1.207056	0.238605	-0.955831
H190	H	1.707056	0.738605	-0.455831
N191	N	0.974488	0.485917	-0.671330
N192	N	1.474488	0.985917	-0.171330
H193	H	0.944392	0.517917	-0.710005
H194	H	1.444392	1.017917	-0.210005
H195	H	1.004686	0.522519	-0.637060
H196	H	1.504686	1.022519	-0.137060
H197	H	0.939610	0.523037	-0.955837
H198	H	1.439610	1.023037	-0.455837
N199	N	0.927008	0.536440	-0.795161
N200	N	1.427008	1.036440	-0.295161
H201	H	0.957167	0.573088	-0.760898
H202	H	1.457167	1.073088	-0.260898
H203	H	0.892610	0.504260	-0.760970
H204	H	1.392610	1.004260	-0.260970
N205	N	0.974412	0.670948	-0.485563
N206	N	1.474412	1.170948	0.014437
H207	H	0.944321	0.709622	-0.517570
H208	H	1.444321	1.209622	-0.017570
H209	H	0.940049	0.636738	-0.453361
H210	H	1.440049	1.136738	0.046639
H211	H	1.207028	0.238624	-0.806069
H212	H	1.707028	0.738624	-0.306069
H213	H	0.939549	0.955453	-0.522753
H214	H	1.439549	1.455453	-0.022753
N215	N	0.626871	0.228063	-0.421917
N216	N	1.126871	0.728063	0.078083
H217	H	0.682822	0.228548	-0.421818
H218	H	1.182822	0.728548	0.078182
H219	H	0.608396	0.213477	-0.476209
H220	H	1.108396	0.713477	0.023791
H221	H	0.939491	0.805676	-0.522737
H222	H	1.439491	1.305676	-0.022737
