data_functionalizedCrystal
_audit_creation_method	'MofGen! by Chris Wilmer'
_symmetry_space_group_name_H-M	'P1'
_symmetry_Int_Tables_number	1
_symmetry_cell_setting	triclinic
loop_
_symmetry_equiv_pos_as_xyz
  x,y,z
_cell_length_a	21.295417
_cell_length_b	17.077404
_cell_length_c	17.077396
_cell_angle_alpha	89.980301
_cell_angle_beta	90.033192
_cell_angle_gamma	89.972425
loop_
_atom_site_label
_atom_site_type_symbol
_atom_site_fract_x
_atom_site_fract_y
_atom_site_fract_z
Zn1	Zn	-0.250658	-1.200013	0.443821
Zn2	Zn	-0.355931	-1.199903	0.312544
Zn3	Zn	-0.250675	-1.068745	0.312569
Zn4	Zn	-0.355888	-1.068695	0.443767
O5	O	-0.303288	-1.134339	0.378175
O6	O	-0.264634	-1.309845	0.426419
O7	O	-0.341994	-1.182479	0.202701
O8	O	-0.162583	-1.086225	0.330012
O9	O	-0.341978	-1.309764	0.329971
O10	O	-0.162571	-1.182667	0.426443
O11	O	-0.264662	-1.086118	0.202718
O12	O	-0.264620	-0.958891	0.329960
O13	O	-0.341904	-1.086140	0.553622
O14	O	-0.341920	-0.958855	0.426351
O15	O	-0.264593	-1.182619	0.553661
O16	O	-0.444015	-1.182431	0.329919
O17	O	-0.443983	-1.086033	0.426328
C18	C	-0.303268	-0.930391	0.378153
C19	C	-0.303274	-0.843141	0.378162
C20	C	-0.263073	-0.802194	0.428458
C21	C	-0.263076	-0.720214	0.428460
C22	C	-0.303284	-0.679182	0.378169
C23	C	-0.343487	-0.720135	0.327867
C24	C	-0.343481	-0.802114	0.327862
C25	C	-0.343500	-0.549265	0.327882
C26	C	-0.343507	-0.467280	0.327888
C27	C	-0.263094	-0.467365	0.428481
C28	C	-0.263088	-0.549344	0.428476
C29	C	-0.303292	-0.590291	0.378175
C30	C	-0.466840	-1.134236	0.378132
C31	C	-0.536808	-1.134264	0.378140
C32	C	-0.569670	-1.184503	0.327991
C33	C	-0.635413	-1.184539	0.328008
C34	C	-0.668290	-1.134323	0.378167
C35	C	-0.635420	-1.084081	0.428325
C36	C	-0.569679	-1.084051	0.428312
N37	N	-0.771553	-1.065655	0.384143
N38	N	-0.834005	-1.065685	0.384152
C39	C	-0.866365	-1.134411	0.378212
N40	N	-0.833915	-1.203107	0.372248
N41	N	-0.771458	-1.203076	0.372235
C42	C	-0.739576	-1.134350	0.378187
C43	C	-0.970513	-1.184694	0.328079
C44	C	-1.036257	-1.184732	0.328102
C45	C	-1.036263	-1.084267	0.428415
C46	C	-0.970520	-1.084236	0.428396
C47	C	-0.937649	-1.134448	0.378224
C48	C	-0.139098	-1.134464	0.378236
C49	C	-0.069130	-1.134517	0.378262
C50	C	-0.303242	-1.134386	0.582920
C51	C	-0.303222	-1.134407	0.670170
C52	C	-0.303306	-0.339083	0.378192
C53	C	-0.303306	-0.426333	0.378185
C54	C	-0.303289	-1.134337	0.174228
C55	C	-0.303131	-1.134469	0.086978
C56	C	-0.262962	-1.184645	0.711182
C57	C	-0.262941	-1.184654	0.793162
C58	C	-0.303184	-1.134429	0.834129
C59	C	-0.343445	-1.084185	0.793111
C60	C	-0.343463	-1.084172	0.711132
C61	C	-0.343407	-1.084217	0.963982
C62	C	-0.343391	-1.084231	1.045966
C63	C	-0.262886	-1.184699	1.046011
C64	C	-0.262904	-1.184686	0.964032
C65	C	-0.303166	-1.134443	0.923020
H66	H	-0.542909	-1.225390	0.287140
H67	H	-0.230332	-0.835596	0.469414
H68	H	-0.376249	-0.433874	0.286937
H69	H	-0.230350	-0.582750	0.469432
H70	H	-0.376237	-0.582602	0.286920
H71	H	-0.230160	-1.225565	0.826550
H72	H	-0.230194	-1.225547	0.677832
H73	H	-0.376209	-1.043288	0.826473
C74	C	-0.218869	-0.422326	0.483809
H75	H	-0.224625	-0.367626	0.476605
H76	H	-0.228137	-0.435778	0.536528
H77	H	-0.176558	-0.435779	0.472417
C78	C	-0.387764	-1.028930	0.666019
H79	H	-0.411737	-0.999029	0.702157
H80	H	-0.363700	-0.994736	0.634033
H81	H	-0.415199	-1.058952	0.634044
H82	H	-0.230138	-1.225588	0.930679
H83	H	-1.063012	-1.225648	0.287267
C84	C	-0.218855	-0.675175	0.483788
H85	H	-0.194913	-0.711353	0.513745
H86	H	-0.191397	-0.643197	0.453828
H87	H	-0.242977	-0.643197	0.517938
H88	H	-0.230102	-1.225607	1.079407
C89	C	-0.387717	-0.675006	0.272546
H90	H	-0.411656	-0.711136	0.242586
H91	H	-0.415179	-0.643026	0.302513
H92	H	-0.363602	-0.643023	0.238399
H93	H	-0.376159	-1.043331	1.079319
H94	H	-0.376217	-0.835452	0.286905
C95	C	-1.072420	-1.029034	0.483592
H96	H	-1.116281	-1.036244	0.476417
H97	H	-1.061605	-1.040488	0.536341
H98	H	-1.061691	-0.976290	0.472050
H99	H	-0.662174	-1.225453	0.287171
C100	C	-0.934370	-1.028963	0.483550
H101	H	-0.963365	-0.999055	0.513421
H102	H	-0.908681	-1.058955	0.517775
H103	H	-0.908769	-0.994764	0.453477
H104	H	-0.376184	-1.043291	0.930592
H105	H	-0.662194	-1.043196	0.469166
H106	H	-0.542922	-1.043140	0.469150
H107	H	-0.943748	-1.225583	0.287229
