data_functionalizedCrystal
_audit_creation_method	'MofGen! by Chris Wilmer'
_symmetry_space_group_name_H-M	'P1'
_symmetry_Int_Tables_number	1
_symmetry_cell_setting	triclinic
loop_
_symmetry_equiv_pos_as_xyz
  x,y,z
_cell_length_a	9.565339
_cell_length_b	11.026607
_cell_length_c	11.026607
_cell_angle_alpha	71.413983
_cell_angle_beta	89.997756
_cell_angle_gamma	89.996104
loop_
_atom_site_label
_atom_site_type_symbol
_atom_site_fract_x
_atom_site_fract_y
_atom_site_fract_z
O1	O	0.116257	-1.726731	0.533614
O2	O	0.116259	-1.360151	0.472851
O3	O	0.116253	-1.513059	0.319943
O4	O	0.116263	-1.573822	0.686522
O5	O	-0.116267	-1.513046	0.319951
O6	O	-0.116261	-1.360138	0.472860
O7	O	-0.116264	-1.726718	0.533623
Zn8	Zn	-0.153180	-1.543426	0.503243
Zn9	Zn	0.153175	-1.543443	0.503231
O10	O	-0.116258	-1.573810	0.686531
C11	C	-0.000001	-1.312485	0.461645
C12	C	-0.000000	-1.170471	0.428228
N13	N	-0.362259	-1.543423	0.503252
C14	C	-0.000006	-1.501843	0.272287
C15	C	-0.000000	-1.468426	0.130273
C16	C	-0.453460	-1.472675	0.573931
C17	C	-0.546639	-1.593231	0.623813
C18	C	-0.546636	-1.422919	0.453390
C19	C	-0.453387	-1.664050	0.553204
C20	C	-0.453376	-1.493652	0.382715
C21	C	-0.546512	-1.614281	0.432566
N22	N	0.362255	-1.543453	0.503214
C23	C	-0.000001	-1.774384	0.544828
C24	C	0.000008	-1.916398	0.578245
C25	C	0.000003	-1.116821	0.520498
C26	C	0.000004	-0.970043	0.485962
C27	C	0.000001	-1.560695	0.076624
C28	C	0.000006	-1.526160	-0.070155
C29	C	0.000004	-1.585026	0.734187
C30	C	0.000008	-1.618443	0.876200
H31	H	-0.412603	-1.412929	0.633787
C32	C	-0.000205	-1.386671	-0.153630
C33	C	-0.119814	-1.326191	-0.127384
C34	C	-0.120046	-1.197694	-0.204245
H35	H	-0.000272	-1.381808	-0.241202
H36	H	0.080838	-1.345384	-0.135980
H37	H	-0.200836	-1.367466	-0.145044
H38	H	-0.119772	-1.331018	-0.039827
H39	H	-0.039003	-1.156407	-0.186594
H40	H	-0.120109	-1.192845	-0.291812
H41	H	-0.201191	-1.156640	-0.186439
H42	H	-0.412598	-1.766018	0.595479
H43	H	-0.587600	-1.320999	0.411237
H44	H	-0.587603	-1.635347	0.725735
C45	C	-0.000063	-1.757803	-0.039953
C46	C	-0.000099	-1.764357	0.088961
C47	C	-0.000182	-1.892710	0.166235
H48	H	0.081000	-1.799167	-0.057418
H49	H	-0.081180	-1.799058	-0.057504
H50	H	0.081010	-1.723120	0.106504
H51	H	-0.081156	-1.723020	0.106465
H52	H	-0.081299	-1.933965	0.148685
H53	H	0.080883	-1.934064	0.148759
H54	H	-0.000219	-1.897174	0.253711
H55	H	-0.587113	-1.674206	0.372793
H56	H	0.000001	-0.979125	0.682816
C57	C	-0.000071	-1.087055	0.288724
C58	C	-0.000107	-1.164995	0.210292
C59	C	-0.000191	-1.088201	0.081771
H60	H	0.080991	-1.034561	0.271673
H61	H	-0.081190	-1.034596	0.271793
H62	H	0.081003	-1.217431	0.227216
H63	H	-0.081164	-1.217488	0.227303
H64	H	-0.081309	-1.035743	0.064840
H65	H	0.080873	-1.035711	0.064733
H66	H	-0.000228	-1.141072	0.028539
H67	H	-0.412378	-1.451506	0.280816
H68	H	-0.000002	-1.179555	0.625061
H69	H	0.000037	-0.907314	0.381393
H70	H	-0.000008	-1.665258	0.139357
H71	H	0.000009	-1.363863	0.067540
