data_functionalizedCrystal
_audit_creation_method	'MofGen! by Chris Wilmer'
_symmetry_space_group_name_H-M	'P1'
_symmetry_Int_Tables_number	1
_symmetry_cell_setting	triclinic
loop_
_symmetry_equiv_pos_as_xyz
  x,y,z
_cell_length_a	25.427154
_cell_length_b	25.426324
_cell_length_c	25.422586
_cell_angle_alpha	60.006367
_cell_angle_beta	60.012446
_cell_angle_gamma	59.992398
loop_
_atom_site_label
_atom_site_type_symbol
_atom_site_fract_x
_atom_site_fract_y
_atom_site_fract_z
O1	O	0.072968	-0.768436	0.642532
O2	O	0.572968	-0.268436	1.142532
O3	O	0.027520	-0.598284	0.517710
O4	O	0.527520	-0.098284	1.017710
O5	O	0.135268	-0.705940	0.517611
O6	O	0.635268	-0.205940	1.017611
O7	O	-0.034780	-0.660780	0.642632
O8	O	0.465220	-0.160780	1.142632
O9	O	0.171018	-0.670200	0.553260
O10	O	0.671018	-0.170200	1.053260
O11	O	0.063270	-0.562544	0.553360
O12	O	0.563270	-0.062544	1.053360
O13	O	0.108718	-0.732696	0.678182
O14	O	0.608718	-0.232696	1.178182
Zn15	Zn	0.091670	-0.641945	0.621431
Zn16	Zn	0.591670	-0.141945	1.121431
Zn17	Zn	0.044568	-0.689034	0.574461
Zn18	Zn	0.544568	-0.189034	1.074461
O19	O	0.000970	-0.625039	0.678281
O20	O	0.500970	-0.125039	1.178281
N21	N	0.123818	-0.609812	0.653490
N22	N	0.623818	-0.109812	1.153490
N23	N	0.012426	-0.721173	0.542402
N24	N	0.512426	-0.221173	1.042402
C25	C	0.168482	-0.466269	0.698103
C26	C	0.668482	0.033731	1.198103
C27	C	0.168494	-0.565177	0.698095
C28	C	0.668494	-0.065177	1.198095
C29	C	0.193243	-0.540453	0.722807
C30	C	0.693243	-0.040453	1.222807
C31	C	0.301113	-0.521853	0.665993
C32	C	0.801113	-0.021853	1.165993
C33	C	0.368545	-0.544324	0.643486
C34	C	0.868545	-0.044324	1.143486
C35	C	0.368579	-0.653434	0.685090
C36	C	0.868579	-0.153434	1.185090
C37	C	0.301149	-0.630961	0.707599
C38	C	0.801149	-0.130961	1.207599
C39	C	0.184722	-0.432539	0.631812
C40	C	0.684722	0.067461	1.131812
C41	C	0.162210	-0.365100	0.609357
C42	C	0.662210	0.134900	1.109357
C43	C	0.107225	-0.365129	0.719489
C44	C	0.607225	0.134871	1.219489
C45	C	0.129737	-0.432567	0.741943
C46	C	0.629737	0.067433	1.241943
C47	C	0.102194	-0.548896	0.714421
C48	C	0.602194	-0.048896	1.214421
C49	C	0.079702	-0.571372	0.691949
C50	C	0.579702	-0.071372	1.191949
C51	C	0.189805	-0.626409	0.636839
C52	C	0.689805	-0.126409	1.136839
C53	C	0.212300	-0.603934	0.659303
C54	C	0.712300	-0.103934	1.159303
C55	C	0.102289	-0.548918	0.830735
C56	C	0.602289	-0.048918	1.330735
C57	C	0.079866	-0.571415	0.898171
C58	C	0.579866	-0.071415	1.398171
C59	C	0.190015	-0.626466	0.898104
C60	C	0.690015	-0.126466	1.398104
C61	C	0.212437	-0.603971	0.830666
C62	C	0.712437	-0.103971	1.330666
C63	C	0.168573	-0.565195	0.796984
C64	C	0.668573	-0.065195	1.296984
C65	C	0.267418	-0.565170	0.698047
C66	C	0.767418	-0.065170	1.198047
C67	C	-0.130981	-0.765617	0.497386
C68	C	0.369019	-0.265617	0.997386
C69	C	-0.032127	-0.765741	0.497606
C70	C	0.467873	-0.265741	0.997606
C71	C	-0.056804	-0.790430	0.472789
C72	C	0.443196	-0.290430	0.972789
C73	C	-0.075480	-0.898263	0.529507
C74	C	0.424520	-0.398263	1.029507
C75	C	-0.053057	-0.965702	0.552014
C76	C	0.446943	-0.465702	1.052014
C77	C	0.056052	-0.965829	0.510599
C78	C	0.556052	-0.465829	1.010599
C79	C	0.033627	-0.898392	0.488091
C80	C	0.533627	-0.398392	0.988091
C81	C	-0.164787	-0.781859	0.563659
C82	C	0.335213	-0.281859	1.063659
C83	C	-0.232219	-0.759299	0.586018
C84	C	0.267781	-0.259299	1.086018
C85	C	-0.232034	-0.704261	0.475827
C86	C	0.267966	-0.204261	0.975827
C87	C	-0.164602	-0.726821	0.453469
C88	C	0.335398	-0.226821	0.953469
C89	C	-0.048372	-0.699446	0.481299
C90	C	0.451628	-0.199446	0.981299
C91	C	-0.025938	-0.677008	0.503867
C92	C	0.474062	-0.177008	1.003867
C93	C	0.028987	-0.787155	0.559036
C94	C	0.528987	-0.287155	1.059036
C95	C	0.006552	-0.809596	0.536475
C96	C	0.506552	-0.309596	1.036475
C97	C	-0.048188	-0.699454	0.364860
C98	C	0.451812	-0.199454	0.864860
C99	C	-0.025608	-0.677017	0.297425
C100	C	0.474392	-0.177017	0.797425
C101	C	0.029406	-0.787170	0.297492
C102	C	0.529406	-0.287170	0.797492
C103	C	0.006827	-0.809605	0.364929
C104	C	0.506827	-0.309605	0.864929
C105	C	-0.031972	-0.765745	0.398611
C106	C	0.468028	-0.265745	0.898611
C107	C	-0.032140	-0.864611	0.497548
C108	C	0.467860	-0.364611	0.997548
N109	N	0.401319	-0.609788	0.653344
N110	N	0.901319	-0.109788	1.153344
O111	O	0.621664	-0.620517	0.494685
O112	O	1.121664	-0.120517	0.994685
O113	O	0.621901	-0.745740	0.664659
O114	O	1.121901	-0.245740	1.164659
O115	O	0.621803	-0.745452	0.556857
O116	O	1.121803	-0.245452	1.056857
O117	O	0.621762	-0.620805	0.602487
O118	O	1.121762	-0.120805	1.102487
O119	O	0.514676	-0.709815	0.592658
O120	O	1.014676	-0.209815	1.092658
O121	O	0.514774	-0.710104	0.700460
O122	O	1.014774	-0.210104	1.200460
O123	O	0.514537	-0.584881	0.530485
O124	O	1.014537	-0.084881	1.030485
Zn125	Zn	0.497647	-0.641834	0.621157
Zn126	Zn	0.997647	-0.141834	1.121157
Zn127	Zn	0.638791	-0.688787	0.573988
Zn128	Zn	1.138791	-0.188787	1.073988
O129	O	0.514635	-0.585169	0.638287
O130	O	1.014635	-0.085169	1.138287
N131	N	0.735119	-0.720834	0.541794
N132	N	1.235119	-0.220834	1.041794
N133	N	0.123794	-0.332357	0.653504
N134	N	0.623794	0.167643	1.153504
O135	O	-0.034774	-0.111885	0.642639
O136	O	0.465226	0.388115	1.142639
O137	O	0.135202	-0.111860	0.517412
O138	O	0.635202	0.388140	1.017412
O139	O	0.027364	-0.111888	0.517742
O140	O	0.527364	0.388112	1.017742
O141	O	0.073064	-0.111857	0.642310
O142	O	0.573064	0.388143	1.142310
O143	O	0.063120	-0.219026	0.553444
O144	O	0.563120	0.280974	1.053444
O145	O	0.170958	-0.218998	0.553115
O146	O	0.670958	0.281002	1.053115
O147	O	0.000983	-0.219022	0.678342
O148	O	0.500983	0.280978	1.178342
Zn149	Zn	0.091647	-0.236020	0.621397
Zn150	Zn	0.591647	0.263980	1.121397
Zn151	Zn	0.044537	-0.094862	0.574357
Zn152	Zn	0.544537	0.405138	1.074357
O153	O	0.108821	-0.218994	0.678013
O154	O	0.608821	0.281006	1.178013
N155	N	0.012383	0.001474	0.542251
N156	N	0.512383	0.501474	1.042251
N157	N	0.124036	-0.609854	0.930891
N158	N	0.624036	-0.109854	1.430891
O159	O	0.113202	-0.768401	1.151342
O160	O	0.613202	-0.268401	1.651342
O161	O	-0.011992	-0.598359	1.151385
O162	O	0.488008	-0.098359	1.651385
O163	O	-0.011700	-0.706176	1.151343
O164	O	0.488300	-0.206176	1.651343
O165	O	0.112910	-0.660584	1.151384
O166	O	0.612910	-0.160584	1.651384
O167	O	0.023980	-0.670446	1.044212
O168	O	0.523980	-0.170446	1.544212
O169	O	0.023689	-0.562630	1.044253
O170	O	0.523689	-0.062630	1.544253
O171	O	0.148882	-0.732671	1.044211
O172	O	0.648882	-0.232671	1.544211
Zn173	Zn	0.091951	-0.641977	1.027223
Zn174	Zn	0.591951	-0.141977	1.527223
Zn175	Zn	0.044940	-0.689053	1.168373
Zn176	Zn	0.544940	-0.189053	1.668373
O177	O	0.148590	-0.624854	1.044252
O178	O	0.648590	-0.124854	1.544252
N179	N	0.012853	-0.721183	1.264704
N180	N	0.512853	-0.221183	1.764704
C181	C	0.041135	-0.558973	0.518338
C182	C	0.541135	-0.058973	1.018338
C183	C	0.174567	-0.692292	0.518215
C184	C	0.674567	-0.192292	1.018215
C185	C	0.095103	-0.772007	0.677553
C186	C	0.595103	-0.272007	1.177553
C187	C	-0.038330	-0.638687	0.677677
C188	C	0.461670	-0.138687	1.177677
C189	C	0.568366	-0.745166	0.703974
C190	C	1.068366	-0.245166	1.203974
C191	C	0.568246	-0.744810	0.570474
C192	C	1.068246	-0.244810	1.070474
C193	C	0.568069	-0.585454	0.491172
C194	C	1.068069	-0.085454	0.991172
C195	C	0.568192	-0.585812	0.624671
C196	C	1.068192	-0.085812	1.124671
C197	C	0.174449	-0.165294	0.517975
C198	C	0.674449	0.334706	1.017975
C199	C	0.040949	-0.165460	0.518427
C200	C	0.540949	0.334540	1.018427
C201	C	-0.038309	-0.165456	0.677735
C202	C	0.461691	0.334544	1.177735
C203	C	0.095236	-0.165423	0.677328
C204	C	0.595236	0.334577	1.177328
C205	C	-0.011393	-0.559072	1.097824
C206	C	0.488607	-0.059072	1.597824
C207	C	-0.011024	-0.692583	1.097752
C208	C	0.488976	-0.192583	1.597752
C209	C	0.148283	-0.771958	1.097772
C210	C	0.648283	-0.271958	1.597772
C211	C	0.147922	-0.638440	1.097820
C212	C	0.647922	-0.138440	1.597820
H213	H	0.025889	-0.558152	0.925643
H214	H	0.525889	-0.058152	1.425643
H215	H	0.223406	-0.701920	0.478955
H216	H	0.723406	-0.201920	0.978955
H217	H	0.568264	-0.783967	0.560707
H218	H	1.068264	-0.283967	1.060707
H219	H	-0.087123	-0.165464	0.717049
H220	H	0.412877	0.334536	1.217049
C221	C	-0.104406	-0.680673	0.785845
C222	C	0.395594	-0.180673	1.285845
C223	C	-0.104262	-0.625702	0.730678
C224	C	0.395738	-0.125702	1.230678
H225	H	-0.145111	-0.672656	0.818563
H226	H	0.354889	-0.172656	1.318563
H227	H	-0.071644	-0.690856	0.800627
H228	H	0.428356	-0.190856	1.300627
H229	H	-0.096570	-0.715785	0.775759
H230	H	0.403430	-0.215785	1.275759
H231	H	-0.112093	-0.590590	0.740763
H232	H	0.387907	-0.090590	1.240763
H233	H	-0.137034	-0.615511	0.715894
H234	H	0.362966	-0.115511	1.215894
C235	C	0.082940	-0.492739	0.410192
C236	C	0.582940	0.007261	0.910192
C237	C	0.028032	-0.492992	0.465410
C238	C	0.528032	0.007008	0.965410
H239	H	0.074851	-0.452003	0.377519
H240	H	0.574851	0.047997	0.877519
H241	H	0.093134	-0.525476	0.395371
H242	H	0.593134	-0.025476	0.895371
H243	H	0.118071	-0.500555	0.420238
H244	H	0.618071	-0.000555	0.920238
H245	H	-0.007097	-0.485180	0.455365
H246	H	0.492903	0.014820	0.955365
H247	H	0.017830	-0.460245	0.480233
H248	H	0.517830	0.039755	0.980233
C249	C	0.171056	-0.877749	0.707356
C250	C	0.671056	-0.377749	1.207356
C251	C	0.108204	-0.837990	0.730479
C252	C	0.608204	-0.337990	1.230479
H253	H	0.179141	-0.918485	0.740029
H254	H	0.679141	-0.418485	1.240029
H255	H	0.200791	-0.858409	0.695618
H256	H	0.700791	-0.358409	1.195618
H257	H	0.175856	-0.883324	0.670743
H258	H	0.675856	-0.383324	1.170743
H259	H	0.103405	-0.832412	0.767089
H260	H	0.603405	-0.332412	1.267089
H261	H	0.078460	-0.857335	0.742226
H262	H	0.578460	-0.357335	1.242226
H263	H	-0.050155	-0.702322	1.097697
H264	H	0.449845	-0.202322	1.597697
H265	H	0.567992	-0.546139	0.442358
H266	H	1.067992	-0.046139	0.942358
C267	C	0.034774	-0.110401	0.411600
C268	C	0.534774	0.389599	0.911600
C269	C	0.027734	-0.165475	0.465601
C270	C	0.527734	0.334525	0.965601
H271	H	0.026609	-0.110412	0.378993
H272	H	0.526609	0.389588	0.878993
H273	H	0.077419	-0.110397	0.395845
H274	H	0.577419	0.389603	0.895845
H275	H	0.005058	-0.073043	0.423341
H276	H	0.505058	0.426957	0.923341
H277	H	0.057454	-0.202833	0.453861
H278	H	0.557454	0.297167	0.953861
H279	H	-0.014918	-0.165485	0.481359
H280	H	0.485082	0.334515	0.981359
H281	H	0.105023	-0.165413	0.716462
H282	H	0.605023	0.334587	1.216462
H283	H	0.223163	-0.164989	0.478564
H284	H	0.723163	0.335011	0.978564
H285	H	-0.050697	-0.510236	1.097837
H286	H	0.449303	-0.010236	1.597837
H287	H	0.187590	-0.820792	1.097751
H288	H	0.687590	-0.320792	1.597751
H289	H	0.187070	-0.628684	1.097824
H290	H	0.687070	-0.128684	1.597824
C291	C	0.568097	-0.477679	0.582978
C292	C	1.068097	0.022321	1.082978
C293	C	0.568179	-0.532950	0.637844
C294	C	1.068179	-0.032950	1.137844
H295	H	0.568094	-0.445048	0.591110
H296	H	1.068094	0.054952	1.091110
H297	H	0.530717	-0.462820	0.572795
H298	H	1.030717	0.037180	1.072795
H299	H	0.605432	-0.487686	0.547821
H300	H	1.105432	0.012314	1.047821
H301	H	0.530841	-0.522944	0.673000
H302	H	1.030841	-0.022944	1.173000
H303	H	0.605563	-0.547811	0.648035
H304	H	1.105563	-0.047811	1.148035
H305	H	0.066565	-0.517338	0.803314
H306	H	0.566565	-0.017338	1.303314
H307	H	0.266414	-0.617231	0.803190
H308	H	0.766414	-0.117231	1.303190
C309	C	0.301147	-0.678608	0.891253
C310	C	0.801147	-0.178608	1.391253
C311	C	0.238233	-0.669077	0.935122
C312	C	0.738233	-0.169077	1.435122
H313	H	0.330915	-0.704918	0.914108
H314	H	0.830915	-0.204918	1.414108
H315	H	0.307593	-0.638185	0.864956
H316	H	0.807593	-0.138185	1.364956
H317	H	0.307603	-0.699195	0.864950
H318	H	0.807603	-0.199195	1.364950
H319	H	0.231776	-0.648486	0.961423
H320	H	0.731776	-0.148486	1.461423
H321	H	0.231785	-0.709508	0.961430
H322	H	0.731785	-0.209508	1.461430
H323	H	0.066522	-0.517340	0.746005
H324	H	0.566522	-0.017340	1.246005
H325	H	0.025716	-0.558101	0.705227
H326	H	0.525716	-0.058101	1.205227
C327	C	0.568476	-0.775300	0.809760
C328	C	1.068476	-0.275300	1.309760
C329	C	0.568456	-0.798240	0.769873
C330	C	1.068456	-0.298240	1.269873
H331	H	0.568535	-0.808068	0.850442
H332	H	1.068535	-0.308068	1.350442
H333	H	0.531099	-0.738715	0.815431
H334	H	1.031099	-0.238715	1.315431
H335	H	0.605815	-0.763568	0.790462
H336	H	1.105815	-0.263568	1.290462
H337	H	0.531114	-0.809967	0.789170
H338	H	1.031114	-0.309967	1.289170
H339	H	0.605836	-0.834836	0.764205
H340	H	1.105836	-0.334836	1.264205
H341	H	0.225479	-0.657972	0.605261
H342	H	0.725479	-0.157972	1.105261
H343	H	0.273715	-0.666239	0.733700
H344	H	0.773715	-0.166239	1.233700
C345	C	0.313021	-0.598912	0.574282
C346	C	0.813021	-0.098912	1.074282
C347	C	0.285176	-0.621805	0.641354
C348	C	0.785176	-0.121805	1.141354
H349	H	0.358011	-0.609944	0.563201
H350	H	0.858011	-0.109944	1.063201
H351	H	0.294043	-0.553418	0.558805
H352	H	0.794043	-0.053418	1.058805
H353	H	0.305903	-0.617859	0.555355
H354	H	0.805903	-0.117859	1.055355
H355	H	0.292290	-0.602855	0.660281
H356	H	0.792290	-0.102855	1.160281
H357	H	0.304161	-0.667308	0.656838
H358	H	0.804161	-0.167308	1.156838
C359	C	0.361847	-0.759031	0.728469
C360	C	0.861847	-0.259031	1.228469
C361	C	0.405662	-0.725754	0.695580
C362	C	0.905662	-0.225754	1.195580
H363	H	0.384741	-0.803678	0.734948
H364	H	0.884741	-0.303678	1.234948
H365	H	0.335520	-0.743213	0.703779
H366	H	0.835520	-0.243213	1.203779
H367	H	0.335570	-0.752780	0.768992
H368	H	0.835570	-0.252780	1.268992
H369	H	0.431936	-0.732002	0.655056
H370	H	0.931936	-0.232002	1.155056
H371	H	0.432000	-0.741578	0.720270
H372	H	0.932000	-0.241578	1.220270
H373	H	0.273654	-0.468282	0.658214
H374	H	0.773654	0.031718	1.158214
C375	C	0.361737	-0.434216	0.604615
C376	C	0.861737	0.065784	1.104615
C377	C	0.405585	-0.496710	0.608248
C378	C	0.905585	0.003290	1.108248
H379	H	0.384607	-0.404820	0.582856
H380	H	0.884607	0.095180	1.082856
H381	H	0.335463	-0.432499	0.646861
H382	H	0.835463	0.067501	1.146861
H383	H	0.335411	-0.422942	0.581653
H384	H	0.835411	0.077058	1.081653
H385	H	0.431908	-0.507986	0.631214
H386	H	0.931908	-0.007986	1.131214
H387	H	0.431870	-0.498428	0.565995
H388	H	0.931870	0.001572	1.065995
H389	H	0.216267	-0.459978	0.596113
H390	H	0.716267	0.040022	1.096113
C391	C	0.001456	-0.910365	0.621428
C392	C	0.501456	-0.410365	1.121428
C393	C	0.024409	-0.882465	0.554368
C394	C	0.524409	-0.382465	1.054368
H395	H	0.012485	-0.955350	0.632465
H396	H	0.512485	-0.455350	1.132465
H397	H	-0.044036	-0.891380	0.636861
H398	H	0.455964	-0.391380	1.136861
H399	H	0.020361	-0.903296	0.640437
H400	H	0.520361	-0.403296	1.140437
H401	H	0.005500	-0.889530	0.535360
H402	H	0.505500	-0.389530	1.035360
H403	H	0.069910	-0.901457	0.538929
H404	H	0.569910	-0.401457	1.038929
H405	H	0.175430	-0.337636	0.555374
H406	H	0.675430	0.162364	1.055374
H407	H	0.075686	-0.337687	0.755188
H408	H	0.575686	0.162313	1.255188
H409	H	-0.038823	-0.623033	0.269953
H410	H	0.461177	-0.123033	0.769953
C411	C	0.073128	-0.425825	0.848554
C412	C	0.573128	0.074175	1.348554
C413	C	0.111890	-0.469649	0.814817
C414	C	0.611890	0.030351	1.314817
H415	H	0.062113	-0.448719	0.893542
H416	H	0.562113	0.051281	1.393542
H417	H	0.034985	-0.399528	0.837521
H418	H	0.534985	0.100472	1.337521
H419	H	0.096003	-0.399516	0.837486
H420	H	0.596003	0.100484	1.337486
H421	H	0.089013	-0.495956	0.825881
H422	H	0.589013	0.004044	1.325881
H423	H	0.150039	-0.495958	0.825855
H424	H	0.650039	0.004042	1.325855
H425	H	-0.039168	-0.623025	0.490592
H426	H	0.460832	-0.123025	0.990592
H427	H	-0.079784	-0.663733	0.392281
H428	H	0.420216	-0.163733	0.892281
H429	H	0.020039	-0.863588	0.392405
H430	H	0.520039	-0.363588	0.892405
C431	C	0.081505	-0.898306	0.304342
C432	C	0.581505	-0.398306	0.804342
C433	C	0.072044	-0.835383	0.260473
C434	C	0.572044	-0.335383	0.760473
H435	H	0.107833	-0.928071	0.281487
H436	H	0.607833	-0.428071	0.781487
H437	H	0.041067	-0.904724	0.330573
H438	H	0.541067	-0.404724	0.830573
H439	H	0.102043	-0.904801	0.330712
H440	H	0.602043	-0.404801	0.830712
H441	H	0.051502	-0.828887	0.234107
H442	H	0.551502	-0.328887	0.734107
H443	H	0.112489	-0.828963	0.234232
H444	H	0.612489	-0.328963	0.734232
H445	H	0.060486	-0.822870	0.590677
H446	H	0.560486	-0.322870	1.090677
C447	C	0.143731	-0.905295	0.449422
C448	C	0.643731	-0.405295	0.949422
C449	C	0.081271	-0.861400	0.452962
C450	C	0.581271	-0.361400	0.952962
H451	H	0.173142	-0.882456	0.427737
H452	H	0.673142	-0.382456	0.927737
H453	H	0.155035	-0.931600	0.426434
H454	H	0.655035	-0.431600	0.926434
H455	H	0.145376	-0.931589	0.491698
H456	H	0.645376	-0.431589	0.991698
H457	H	0.079624	-0.835108	0.410686
H458	H	0.579624	-0.335108	0.910686
H459	H	0.069964	-0.835083	0.475950
H460	H	0.569964	-0.335083	0.975950
H461	H	-0.079862	-0.663733	0.449648
H462	H	0.420138	-0.163733	0.949648
H463	H	-0.088349	-0.993100	0.578027
H464	H	0.411651	-0.493100	1.078027
C465	C	0.137458	-1.041733	0.559988
C466	C	0.637458	-0.541733	1.059988
C467	C	0.128346	-1.002964	0.500210
C468	C	0.628346	-0.502964	1.000210
H469	H	0.182089	-1.064654	0.553571
H470	H	0.682089	-0.564654	1.053571
H471	H	0.114859	-1.071425	0.582236
H472	H	0.614859	-0.571425	1.082236
H473	H	0.121613	-1.015409	0.584693
H474	H	0.621613	-0.515409	1.084693
H475	H	0.144187	-1.029289	0.475507
H476	H	0.644187	-0.529289	0.975507
H477	H	0.150953	-0.973269	0.477952
H478	H	0.650953	-0.473269	0.977952
H479	H	-0.137414	-0.813456	0.599420
H480	H	0.362586	-0.313456	1.099420
C481	C	-0.181070	-0.904918	0.572669
C482	C	0.318930	-0.404918	1.072669
C483	C	-0.147769	-0.861134	0.539876
C484	C	0.352231	-0.361134	1.039876
H485	H	-0.225697	-0.881994	0.579059
H486	H	0.274303	-0.381994	1.079059
H487	H	-0.174901	-0.931205	0.613225
H488	H	0.325099	-0.431205	1.113225
H489	H	-0.165202	-0.931243	0.547958
H490	H	0.334798	-0.431243	1.047958
H491	H	-0.163633	-0.834813	0.564590
H492	H	0.336367	-0.334813	1.064590
H493	H	-0.153942	-0.834836	0.499313
H494	H	0.346058	-0.334836	0.999313
H495	H	-0.259745	-0.772522	0.639985
H496	H	0.240255	-0.272522	1.139985
H497	H	-0.259410	-0.672678	0.440065
H498	H	0.240590	-0.172678	0.940065
H499	H	-0.137077	-0.713589	0.399501
H500	H	0.362923	-0.213589	0.899501
