data_functionalizedCrystal
_audit_creation_method	'MofGen! by Chris Wilmer'
_symmetry_space_group_name_H-M	'P1'
_symmetry_Int_Tables_number	1
_symmetry_cell_setting	triclinic
loop_
_symmetry_equiv_pos_as_xyz
  x,y,z
_cell_length_a	8.559649
_cell_length_b	18.266242
_cell_length_c	8.597275
_cell_angle_alpha	82.302528
_cell_angle_beta	77.624622
_cell_angle_gamma	90.008902
loop_
_atom_site_label
_atom_site_type_symbol
_atom_site_fract_x
_atom_site_fract_y
_atom_site_fract_z
O1	O	2.119309	0.064221	-0.053141
O2	O	1.655367	0.059121	0.027759
O3	O	1.896474	0.076150	-0.242257
O4	O	1.878202	0.047192	0.216875
O5	O	1.896433	-0.045611	-0.242265
O6	O	1.655326	-0.062640	0.027751
O7	O	2.119268	-0.057540	-0.053148
Zn8	Zn	1.887290	-0.079422	-0.012700
Zn9	Zn	1.887345	0.081004	-0.012690
O10	O	1.878160	-0.074569	0.216868
C11	C	1.595912	-0.002146	0.033886
C12	C	1.418817	-0.003296	0.052135
N13	N	1.887264	-0.188909	-0.012709
C14	C	1.994063	-0.219680	-0.132224
C15	C	1.994073	-0.296325	-0.132232
C16	C	1.887300	-0.342196	-0.012701
C17	C	1.780481	-0.311416	0.106825
C18	C	1.780463	-0.234772	0.106821
N19	N	1.869162	-0.471425	0.128356
N20	N	1.869188	-0.544233	0.128354
C21	C	1.887345	-0.573120	-0.012683
N22	N	1.905505	-0.526447	-0.153727
N23	N	1.905487	-0.453633	-0.153724
C24	C	1.887307	-0.425304	-0.012683
C25	C	1.994160	-0.686997	-0.132217
C26	C	1.994159	-0.763643	-0.132226
C27	C	1.780575	-0.778734	0.106844
C28	C	1.780568	-0.702089	0.106840
C29	C	1.887369	-0.656225	-0.012689
C30	C	2.178723	0.003729	-0.059276
C31	C	2.355818	0.004883	-0.077525
C32	C	1.894494	0.018944	-0.300496
C33	C	1.888635	0.029893	-0.474015
N34	N	1.887383	0.190491	-0.012695
C35	C	1.880141	-0.017361	0.275106
C36	C	1.886000	-0.028305	0.448625
H37	H	1.437366	0.012769	-0.202493
H38	H	1.337260	-0.011174	0.177112
H39	H	1.888238	-0.086508	-0.484854
Br40	Br	2.138997	-0.157436	-0.294442
H41	H	2.081044	-0.321383	-0.229560
Br42	Br	1.635561	-0.373667	0.269039
H43	H	1.693493	-0.209719	0.204146
H44	H	1.886414	0.088092	-0.540532
H45	H	2.081120	-0.649653	-0.229550
H46	H	2.081123	-0.788696	-0.229558
H47	H	1.693632	-0.816082	0.204164
Br48	Br	1.635626	-0.660322	0.269051
