data_functionalizedCrystal
_audit_creation_method	'MofGen! by Chris Wilmer'
_symmetry_space_group_name_H-M	'P1'
_symmetry_Int_Tables_number	1
_symmetry_cell_setting	triclinic
loop_
_symmetry_equiv_pos_as_xyz
  x,y,z
_cell_length_a	10.540495
_cell_length_b	15.538191
_cell_length_c	14.750779
_cell_angle_alpha	97.572172
_cell_angle_beta	77.233283
_cell_angle_gamma	65.889803
loop_
_atom_site_label
_atom_site_type_symbol
_atom_site_fract_x
_atom_site_fract_y
_atom_site_fract_z
O1	O	0.374166	-1.226984	0.079851
O2	O	0.228043	-0.953692	0.079845
O3	O	0.488774	-1.096594	0.079850
O4	O	0.113436	-1.084082	0.079847
O5	O	0.562473	-1.136991	-0.079799
O6	O	0.301743	-0.994089	-0.079804
O7	O	0.447865	-1.267380	-0.079798
Zn8	Zn	0.386505	-1.137148	-0.105148
Zn9	Zn	0.289403	-1.083924	0.105196
O10	O	0.187135	-1.124478	-0.079802
C11	C	0.572486	-1.115862	0.000027
C12	C	0.712118	-1.113079	0.000034
C13	C	0.249605	-0.938896	0.000020
C14	C	0.204066	-0.834624	0.000018
C15	C	0.831165	-1.215278	0.000034
C16	C	0.976598	-1.212513	-0.000335
C17	C	0.920179	-1.080536	-0.090965
C18	C	0.775366	-1.084137	-0.091034
C19	C	0.690439	-1.036684	0.090523
C20	C	0.836407	-1.035404	0.091712
C21	C	0.426303	-1.282176	0.000030
C22	C	0.471839	-1.386446	0.000038
C23	C	1.103429	-1.105222	0.000022
C24	C	0.963819	-1.108041	0.000021
N25	N	0.452779	-1.173479	-0.248703
C26	C	0.656482	-0.543838	0.000036
C27	C	0.613659	-0.445855	0.000036
C28	C	0.372788	-0.425005	0.000034
C29	C	0.415594	-0.522989	0.000029
C30	C	0.557442	-0.582398	0.000031
C31	C	0.316554	-0.561550	0.000025
C32	C	0.359354	-0.659524	0.000025
C33	C	0.501194	-0.718938	0.000029
C34	C	0.600242	-0.680373	0.000031
C35	C	0.174703	-0.502137	0.000030
C36	C	0.075662	-0.540697	0.000025
C37	C	0.118465	-0.638675	0.000018
C38	C	0.260306	-0.698090	0.000023
C39	C	0.019417	-0.677241	0.000016
C40	C	0.062218	-0.775215	0.000016
C41	C	0.303106	-0.796064	0.000023
C42	C	0.038107	-0.946132	-0.600528
C43	C	0.084542	-0.971598	-0.701027
C44	C	0.315367	-1.098164	-0.700985
C45	C	0.268954	-1.072706	-0.600485
C46	C	0.130322	-0.996690	-0.550264
C47	C	0.361170	-1.123264	-0.550221
C48	C	0.314757	-1.097811	-0.449729
C49	C	0.176129	-1.021801	-0.399502
C50	C	0.083910	-0.971238	-0.449773
C51	C	0.499797	-1.199284	-0.600444
C52	C	0.592013	-1.249842	-0.550180
C53	C	0.545604	-1.224385	-0.449686
C54	C	0.406976	-1.148374	-0.399459
C55	C	0.637824	-1.274948	-0.399415
C56	C	0.591411	-1.249495	-0.298924
C57	C	0.360564	-1.122921	-0.298967
N58	N	0.223143	-1.047600	0.248751
H59	H	1.007961	-1.235756	0.064872
Br60	Br	-0.150030	-0.842953	-0.532366
Br61	Br	0.766100	-1.256864	0.108775
H62	H	-0.096080	-0.628853	0.000024
Br63	Br	0.882053	-1.068555	0.203909
H64	H	0.643186	-1.053244	0.159509
H65	H	0.139858	-0.422360	0.000033
H66	H	0.750694	-1.336847	-0.440318
H67	H	0.666502	-1.290666	-0.257998
Br68	Br	0.812434	-0.906181	0.101398
H69	H	0.850236	-1.272629	-0.065067
H70	H	0.009436	-0.930422	-0.741947
Br71	Br	0.551575	-0.910672	0.091985
H72	H	0.536034	-0.798712	0.000042
H73	H	0.418616	-0.844440	0.000018
Br74	Br	0.562775	-1.233832	-0.736827
Br75	Br	0.792761	-0.761013	0.000018
Br76	Br	0.780147	-1.353008	-0.618342
Br77	Br	0.748094	-0.393530	0.000029
Br78	Br	-0.072197	-0.827551	0.000016
Br79	Br	0.113131	-0.987262	-0.263118
H80	H	1.067332	-1.268685	-0.065940
H81	H	0.693641	-1.010047	-0.094916
H82	H	-0.028973	-0.909331	-0.408881
H83	H	-0.039833	-0.492313	0.000027
Br84	Br	0.809930	-1.174427	-0.204828
H85	H	0.907674	-1.004661	-0.094093
H86	H	0.247681	-1.061015	-0.258075
Br87	Br	0.180282	-0.344369	0.000041
H88	H	0.771992	-0.592214	0.000032
Br89	Br	1.070740	-1.166972	-0.204255
H90	H	0.428241	-1.160060	-0.741887
