data_functionalizedCrystal
_audit_creation_method	'MofGen! by Chris Wilmer'
_symmetry_space_group_name_H-M	'P1'
_symmetry_Int_Tables_number	1
_symmetry_cell_setting	triclinic
loop_
_symmetry_equiv_pos_as_xyz
  x,y,z
_cell_length_a	23.532407
_cell_length_b	23.532407
_cell_length_c	12.996460
_cell_angle_alpha	89.985369
_cell_angle_beta	89.999749
_cell_angle_gamma	82.848713
loop_
_atom_site_label
_atom_site_type_symbol
_atom_site_fract_x
_atom_site_fract_y
_atom_site_fract_z
O1	O	0.755260	0.069136	-0.085457
O2	O	1.255260	0.569136	0.414543
O3	O	0.589397	0.079139	-0.085490
O4	O	1.089397	0.579139	0.414510
O5	O	0.677330	-0.008794	-0.085444
O6	O	1.177330	0.491206	0.414556
O7	O	0.667327	0.157069	-0.085503
O8	O	1.167327	0.657069	0.414497
O9	O	0.677321	-0.008799	0.085690
O10	O	1.177321	0.491201	0.585690
O11	O	0.589388	0.079134	0.085644
O12	O	1.089388	0.579134	0.585644
O13	O	0.755251	0.069131	0.085677
O14	O	1.255251	0.569131	0.585677
Cu15	Cu	0.672319	0.074132	0.101286
Cu16	Cu	1.172319	0.574132	0.601286
Cu17	Cu	0.672329	0.074138	-0.101099
Cu18	Cu	1.172329	0.574138	0.398901
O19	O	0.667318	0.157064	0.085630
O20	O	1.167318	0.657064	0.585630
C21	C	0.568176	0.078882	0.000073
C22	C	1.068176	0.578882	0.500073
C23	C	0.504959	0.078116	0.000062
C24	C	1.004959	0.578116	0.500062
C25	C	0.105856	0.125350	0.000092
C26	C	0.605856	0.625350	0.500092
C27	C	0.046456	0.124638	0.000098
C28	C	0.546456	0.624638	0.500098
O29	O	0.009711	0.168424	0.000120
O30	O	0.509711	0.668424	0.500120
N31	N	0.023830	0.072362	0.000115
N32	N	0.523830	0.572362	0.500115
C33	C	0.060607	0.020794	0.000136
C34	C	0.560607	0.520794	0.500136
O35	O	0.035908	-0.023737	0.000152
O36	O	0.535908	0.476263	0.500152
C37	C	0.120006	0.021506	0.000137
C38	C	0.620006	0.521506	0.500137
C39	C	0.142629	0.073785	0.000109
C40	C	0.642629	0.573785	0.500109
C41	C	0.128480	0.177625	0.000065
C42	C	0.628480	0.677625	0.500065
C43	C	0.187876	0.178336	0.000057
C44	C	0.687876	0.678336	0.500057
C45	C	0.224649	0.126772	0.000075
C46	C	0.724649	0.626772	0.500075
C47	C	0.202025	0.074496	0.000101
C48	C	0.702025	0.574496	0.500101
C49	C	0.156783	-0.030062	0.000165
C50	C	0.656783	0.469938	0.500165
C51	C	0.216185	-0.029345	0.000167
C52	C	0.716185	0.470655	0.500167
C53	C	0.238808	0.022934	0.000139
C54	C	0.738808	0.522934	0.500139
C55	C	0.298194	0.023643	0.000110
C56	C	0.798194	0.523643	0.500110
N57	N	0.320821	0.075920	0.000093
N58	N	0.820821	0.575920	0.500093
C59	C	0.284048	0.127484	0.000075
C60	C	0.784048	0.627484	0.500075
C61	C	-0.064135	0.019302	0.000136
C62	C	0.435865	0.519302	0.500136
C63	C	-0.123533	0.018589	0.000128
C64	C	0.376467	0.518589	0.500128
C65	C	-0.137680	0.122434	0.000092
C66	C	0.362320	0.622434	0.500092
C67	C	-0.078281	0.123146	0.000093
C68	C	0.421719	0.623146	0.500093
C69	C	-0.041509	0.071578	0.000119
C70	C	0.458491	0.571578	0.500119
C71	C	0.408784	0.128974	0.000057
C72	C	0.908784	0.628974	0.500057
C73	C	0.468186	0.129680	0.000044
C74	C	0.968186	0.629680	0.500044
C75	C	0.482329	0.025836	0.000086
C76	C	0.982329	0.525836	0.500086
C77	C	0.422932	0.025129	0.000093
C78	C	0.922932	0.525129	0.500093
C79	C	0.386160	0.076702	0.000082
C80	C	0.886160	0.576702	0.500082
O81	O	0.334974	-0.020119	0.000093
O82	O	0.834974	0.479881	0.500093
O83	O	0.308756	0.172007	0.000073
O84	O	0.808756	0.672007	0.500073
C85	C	0.677071	-0.030013	0.000128
C86	C	1.177071	0.469987	0.500128
C87	C	0.676305	-0.093230	0.000144
C88	C	1.176305	0.406770	0.500144
C89	C	0.621110	-0.359397	0.000069
C90	C	1.121110	0.140603	0.500069
C91	C	0.621821	-0.299997	0.000077
C92	C	1.121821	0.200003	0.500077
O93	O	0.578035	-0.263252	0.000035
O94	O	1.078035	0.236748	0.500035
N95	N	0.674097	-0.277371	0.000099
N96	N	1.174097	0.222629	0.500099
C97	C	0.725666	-0.314148	0.000103
C98	C	1.225666	0.185852	0.500103
O99	O	0.770196	-0.289449	0.000121
O100	O	1.270196	0.210551	0.500121
C101	C	0.724954	-0.373547	0.000087
C102	C	1.224954	0.126453	0.500087
C103	C	0.672674	-0.396170	0.000075
C104	C	1.172674	0.103830	0.500075
C105	C	0.568834	-0.382020	0.000056
C106	C	1.068834	0.117980	0.500056
C107	C	0.568123	-0.441417	0.000050
C108	C	1.068123	0.058583	0.500050
C109	C	0.619687	-0.478189	0.000056
C110	C	1.119687	0.021811	0.500056
C111	C	0.671963	-0.455566	0.000069
C112	C	1.171963	0.044434	0.500069
C113	C	0.776521	-0.410324	0.000083
C114	C	1.276521	0.089676	0.500083
C115	C	0.775805	-0.469726	0.000067
C116	C	1.275805	0.030274	0.500067
C117	C	0.723525	-0.492349	0.000056
C118	C	1.223525	0.007651	0.500056
C119	C	0.722816	-0.551735	0.000070
C120	C	1.222816	-0.051735	0.500070
N121	N	0.670539	-0.574361	0.000048
N122	N	1.170539	-0.074361	0.500048
C123	C	0.618975	-0.537589	0.000041
C124	C	1.118975	-0.037589	0.500041
C125	C	0.727157	-0.189406	0.000133
C126	C	1.227157	0.310594	0.500133
C127	C	0.727870	-0.130008	0.000156
C128	C	1.227870	0.369992	0.500156
C129	C	0.624025	-0.115861	0.000128
C130	C	1.124025	0.384139	0.500128
C131	C	0.623313	-0.175260	0.000113
C132	C	1.123313	0.324740	0.500113
C133	C	0.674881	-0.212032	0.000111
C134	C	1.174881	0.287968	0.500111
C135	C	0.617486	-0.662325	0.000029
C136	C	1.117486	-0.162325	0.500029
C137	C	0.616779	-0.721727	0.000027
C138	C	1.116779	-0.221727	0.500027
C139	C	0.720623	-0.735869	0.000049
C140	C	1.220623	-0.235869	0.500049
C141	C	0.721330	-0.676473	0.000057
C142	C	1.221330	-0.176473	0.500057
C143	C	0.669757	-0.639701	0.000043
C144	C	1.169757	-0.139701	0.500043
O145	O	0.766579	-0.588514	0.000107
O146	O	1.266579	-0.088514	0.500107
O147	O	0.574452	-0.562296	0.000009
O148	O	1.074452	-0.062296	0.500009
C149	C	0.776472	0.069388	0.000111
C150	C	1.276472	0.569388	0.500111
C151	C	0.839689	0.070154	0.000116
C152	C	1.339689	0.570154	0.500116
C153	C	0.667577	0.178283	0.000056
C154	C	1.167577	0.678283	0.500056
C155	C	0.668343	0.241500	0.000034
C156	C	1.168343	0.741500	0.500034
N157	N	0.672315	0.074128	0.243633
N158	N	1.172315	0.574128	0.743633
N159	N	0.672337	0.074138	-0.243447
N160	N	1.172337	0.574138	0.256553
C161	C	0.672329	0.074138	0.663447
C162	C	1.172329	0.574138	1.163447
C163	C	0.672323	0.074137	0.546642
C164	C	1.172323	0.574137	1.046642
C165	C	0.672322	0.074134	0.453544
C166	C	1.172322	0.574134	0.953544
C167	C	0.672316	0.074132	0.336731
C168	C	1.172316	0.574132	0.836731
H169	H	0.138374	-0.072634	0.000189
H170	H	0.638374	0.427366	0.500189
C171	C	0.510615	-0.466294	0.000022
C172	C	1.010615	0.033706	0.500022
H173	H	0.480012	-0.435880	0.000008
H174	H	0.980012	0.064120	0.500008
H175	H	0.508167	-0.489184	0.059692
H176	H	1.008167	0.010816	0.559692
H177	H	0.508182	-0.489157	-0.059672
H178	H	1.008182	0.010843	0.440328
H179	H	0.526842	-0.352085	0.000047
H180	H	1.026842	0.147915	0.500047
H181	H	0.206289	0.220908	0.000034
H182	H	0.706289	0.720908	0.500034
C183	C	0.256632	-0.086072	0.000185
C184	C	0.756632	0.413928	0.500185
H185	H	0.234647	-0.117306	0.000191
H186	H	0.734647	0.382694	0.500191
H187	H	0.280102	-0.087958	0.059858
H188	H	0.780102	0.412042	0.559858
H189	H	0.280092	-0.087951	-0.059506
H190	H	0.780092	0.412049	0.440494
H191	H	0.098544	0.219617	0.000054
H192	H	0.598544	0.719617	0.500054
C193	C	-0.178138	0.179155	0.000081
C194	C	0.321862	0.679155	0.500081
H195	H	-0.216753	0.171239	0.000096
H196	H	0.283247	0.671239	0.500096
H197	H	-0.171316	0.200611	-0.059603
H198	H	0.328684	0.700611	0.440397
H199	H	-0.171311	0.200601	0.059761
H200	H	0.328689	0.700601	0.559761
H201	H	0.762606	-0.765820	0.000060
H202	H	1.262606	-0.265820	0.500060
H203	H	-0.141947	-0.023982	0.000134
H204	H	0.358053	0.476018	0.500134
C205	C	0.565806	-0.200139	0.000085
C206	C	1.065806	0.299861	0.500085
H207	H	0.535201	-0.169727	0.000076
H208	H	1.035201	0.330273	0.500076
H209	H	0.563361	-0.223032	0.059752
H210	H	1.063361	0.276968	0.559752
H211	H	0.563373	-0.223000	-0.059612
H212	H	1.063373	0.277000	0.440388
C213	C	-0.023690	-0.037426	0.000143
C214	C	0.476310	0.462574	0.500143
H215	H	-0.045677	-0.068658	0.000142
H216	H	0.454323	0.431342	0.500142
H217	H	-0.000221	-0.039317	0.059818
H218	H	0.499779	0.460683	0.559818
H219	H	-0.000228	-0.039304	-0.059546
H220	H	0.499772	0.460696	0.440454
C221	C	-0.053401	0.180653	0.000072
C222	C	0.446599	0.680653	0.500072
H223	H	-0.083814	0.211258	0.000066
H224	H	0.416186	0.711258	0.500066
H225	H	-0.030522	0.183094	-0.059604
H226	H	0.469478	0.683094	0.440396
H227	H	-0.030527	0.183090	0.059759
H228	H	0.469473	0.683090	0.559759
C229	C	0.567304	-0.075403	0.000103
C230	C	1.067304	0.424597	0.500103
H231	H	0.575220	-0.036788	0.000101
H232	H	1.075220	0.463212	0.500101
H233	H	0.545844	-0.082235	0.059769
H234	H	1.045844	0.417765	0.559769
H235	H	0.545863	-0.082219	-0.059594
H236	H	1.045863	0.417781	0.440406
H237	H	0.512280	-0.016146	0.000096
H238	H	1.012280	0.483854	0.500096
H239	H	0.770441	-0.111594	0.000182
H240	H	1.270441	0.388406	0.500182
H241	H	0.769152	-0.219343	0.000139
H242	H	1.269152	0.280657	0.500139
H243	H	0.575489	-0.632392	0.000017
H244	H	1.075489	-0.132392	0.500017
C245	C	0.834028	-0.385449	0.000096
C246	C	1.334028	0.114551	0.500096
H247	H	0.827076	-0.344806	0.000111
H248	H	1.327076	0.155194	0.500111
H249	H	0.855245	-0.398083	-0.059580
H250	H	1.355245	0.101917	0.440420
H251	H	0.855240	-0.398106	0.059784
H252	H	1.355240	0.101894	0.559784
C253	C	0.832529	-0.510175	0.000066
C254	C	1.332529	-0.010175	0.500066
H255	H	0.824622	-0.548792	0.000050
H256	H	1.324622	-0.048792	0.500050
H257	H	0.853979	-0.503357	0.059746
H258	H	1.353979	-0.003357	0.559746
H259	H	0.853978	-0.503334	-0.059617
H260	H	1.353978	-0.003334	0.440383
C261	C	0.778836	-0.651586	0.000082
C262	C	1.278836	-0.151586	0.500082
H263	H	0.809443	-0.681996	0.000083
H264	H	1.309443	-0.181996	0.500083
H265	H	0.781269	-0.628716	0.059759
H266	H	1.281269	-0.128716	0.559759
H267	H	0.781276	-0.628702	-0.059604
H268	H	1.281276	-0.128702	0.440396
C269	C	0.559271	-0.746612	0.000010
C270	C	1.059271	-0.246612	0.500010
H271	H	0.566228	-0.787255	0.000015
H272	H	1.066228	-0.287255	0.500015
H273	H	0.538058	-0.733959	-0.059672
H274	H	1.038058	-0.233959	0.440328
H275	H	0.538052	-0.733979	0.059691
H276	H	1.038052	-0.233979	0.559691
C277	C	0.493068	0.187190	0.000020
C278	C	0.993068	0.687190	0.500020
H279	H	0.462657	0.217797	0.000021
H280	H	0.962657	0.717797	0.500021
H281	H	0.515943	0.189631	-0.059661
H282	H	1.015943	0.689631	0.440339
H283	H	0.515946	0.189624	0.059703
H284	H	1.015946	0.689624	0.559703
H285	H	0.404512	-0.017441	0.000100
H286	H	0.904512	0.482559	0.500100
H287	H	0.378852	0.170970	0.000051
H288	H	0.878852	0.670970	0.500051
