data_functionalizedCrystal
_audit_creation_method	'MofGen! by Chris Wilmer'
_symmetry_space_group_name_H-M	'P1'
_symmetry_Int_Tables_number	1
_symmetry_cell_setting	triclinic
loop_
_symmetry_equiv_pos_as_xyz
  x,y,z
_cell_length_a	16.974897
_cell_length_b	22.610064
_cell_length_c	16.974816
_cell_angle_alpha	86.336863
_cell_angle_beta	83.630038
_cell_angle_gamma	93.659798
loop_
_atom_site_label
_atom_site_type_symbol
_atom_site_fract_x
_atom_site_fract_y
_atom_site_fract_z
O1	O	1.049029	0.094514	0.100814
O2	O	0.818810	0.082893	0.113641
O3	O	0.940344	0.094522	-0.007884
O4	O	0.927495	0.082885	0.222339
O5	O	0.940323	-0.003849	-0.007866
O6	O	0.818788	-0.015478	0.113658
O7	O	1.049008	-0.003857	0.100832
Zn8	Zn	0.933895	-0.025286	0.107248
Zn9	Zn	0.933923	0.104322	0.107225
O10	O	0.927473	-0.015486	0.222357
C11	C	0.789342	0.032322	0.113160
C12	C	0.701567	0.028196	0.111692
N13	N	0.933881	-0.113740	0.107264
C14	C	0.660335	0.079875	0.110994
C15	C	0.577860	0.075989	0.109627
C16	C	0.536619	0.020423	0.108952
C17	C	0.577857	-0.031260	0.109652
C18	C	0.660330	-0.027374	0.111025
C19	C	0.289961	0.003048	0.104854
C20	C	0.207483	-0.000834	0.103479
C21	C	0.207491	0.106415	0.103455
C22	C	0.289966	0.110297	0.104823
C23	C	0.331196	0.058614	0.105527
N24	N	0.452317	0.016449	0.107553
N25	N	0.415496	0.062588	0.106932
C26	C	0.987741	-0.517229	0.053422
C27	C	0.987745	-0.579148	0.053416
O28	O	1.033505	-0.606788	0.007650
N29	N	0.933922	-0.615273	0.107208
C30	C	0.880087	-0.589475	0.161004
O31	O	0.834307	-0.625888	0.206758
C32	C	0.880080	-0.527557	0.161006
C33	C	0.933911	-0.491435	0.107215
C34	C	1.041567	-0.481107	-0.000365
C35	C	1.041564	-0.419192	-0.000358
C36	C	0.987734	-0.393398	0.053436
C37	C	0.933908	-0.429520	0.107222
C38	C	0.826241	-0.501760	0.214797
C39	C	0.826238	-0.439837	0.214794
C40	C	0.880070	-0.403715	0.161003
C41	C	0.880075	-0.341811	0.161023
N42	N	0.933898	-0.305686	0.107231
C43	C	0.987727	-0.331480	0.053437
C44	C	0.880105	-0.719507	0.160997
C45	C	0.880116	-0.781425	0.161000
C46	C	0.987773	-0.771093	0.053410
C47	C	0.987766	-0.709175	0.053412
C48	C	0.933928	-0.683383	0.107204
C49	C	0.987717	-0.201454	0.053456
C50	C	0.987711	-0.139534	0.053470
C51	C	0.880051	-0.149871	0.161056
C52	C	0.880060	-0.211785	0.161046
C53	C	0.933895	-0.237575	0.107239
O54	O	0.834336	-0.314130	0.206764
O55	O	1.033493	-0.295060	0.007684
C56	C	1.078476	0.046715	0.101313
C57	C	1.166251	0.050845	0.102781
N58	N	0.933943	0.192776	0.107203
C59	C	0.927971	0.032312	0.251806
C60	C	0.929430	0.028179	0.339582
C61	C	0.930128	0.079860	0.380807
C62	C	0.931509	0.075977	0.463281
C63	C	0.932187	0.020413	0.504529
C64	C	0.931491	-0.031272	0.463298
C65	C	0.930116	-0.027388	0.380825
C66	C	0.936305	0.003048	0.751188
C67	C	0.937678	-0.000832	0.833667
C68	C	0.937698	0.106418	0.833644
C69	C	0.936318	0.110297	0.751170
C70	C	0.935626	0.058612	0.709946
N71	N	0.933596	0.016443	0.588831
N72	N	0.934222	0.062583	0.625644
C73	C	0.939844	0.046722	0.962667
C74	C	0.938376	0.050849	0.874892
H75	H	0.544292	0.118071	0.109059
O76	O	0.329967	0.164282	0.105618
C77	C	0.300776	0.192255	0.173711
H78	H	0.271798	0.157221	0.221185
H79	H	0.351984	0.217894	0.197578
H80	H	0.254942	0.224270	0.157431
H81	H	0.935743	-0.039037	0.717633
H82	H	0.932048	-0.076513	0.496888
O83	O	0.827753	-0.816423	0.213287
C84	C	0.780259	-0.780371	0.260778
H85	H	0.779409	-0.734719	0.228358
H86	H	0.717102	-0.801866	0.272870
H87	H	0.805862	-0.775377	0.319506
H88	H	0.929547	-0.069472	0.347261
H89	H	0.935771	0.155543	0.717590
O90	O	1.093770	-0.384210	-0.052822
C91	C	1.080888	-0.396344	-0.131011
H92	H	1.017544	-0.416337	-0.131226
H93	H	1.090055	-0.353351	-0.170840
H94	H	1.124646	-0.429155	-0.154191
O95	O	0.167384	0.156591	0.102919
C96	C	0.110639	0.153835	0.170563
H97	H	0.129183	0.121982	0.218820
H98	H	0.106675	0.199972	0.193517
H99	H	0.050174	0.137322	0.154050
H100	H	0.693907	0.125123	0.111541
H101	H	0.836266	-0.698511	0.204808
H102	H	0.323521	-0.039036	0.105422
O103	O	0.167322	-0.054788	0.102936
C104	C	0.110601	-0.063952	0.170599
H105	H	0.095239	-0.019210	0.193195
H106	H	0.054635	-0.088548	0.154248
H107	H	0.136062	-0.091509	0.219068
O108	O	0.537681	-0.085188	0.108961
C109	C	0.456044	-0.077540	0.107619
H110	H	0.448081	-0.030631	0.082400
H111	H	0.429760	-0.111185	0.068734
H112	H	0.424276	-0.084619	0.170633
H113	H	0.938206	-0.046083	0.867252
O114	O	0.700268	-0.077631	0.111661
C115	C	0.646183	-0.127510	0.110790
H116	H	0.590694	-0.113205	0.084787
H117	H	0.675073	-0.161812	0.072824
H118	H	0.629049	-0.147847	0.174051
H119	H	1.031603	-0.792105	0.009607
H120	H	1.031554	-0.222444	0.009641
O121	O	1.040034	-0.104532	0.001137
C122	C	1.087555	-0.140581	-0.046330
H123	H	1.055139	-0.186230	-0.047210
H124	H	1.099693	-0.119079	-0.109483
H125	H	1.146259	-0.145584	-0.020683
O126	O	0.773870	-0.536753	0.267078
C127	C	0.726376	-0.500696	0.314560
H128	H	0.725531	-0.455045	0.282135
H129	H	0.663216	-0.522188	0.326648
H130	H	0.751972	-0.495700	0.373291
H131	H	1.085402	-0.502102	-0.044173
O132	O	1.040083	-0.674175	0.001080
C133	C	1.087607	-0.710227	-0.046380
H134	H	1.055194	-0.755878	-0.047253
H135	H	1.099745	-0.688730	-0.109536
H136	H	1.146311	-0.715226	-0.020731
H137	H	0.782394	-0.418841	0.258598
O138	O	0.827692	-0.246791	0.213325
C139	C	0.780195	-0.210744	0.260820
H140	H	0.779352	-0.165088	0.228410
H141	H	0.717036	-0.232236	0.272899
H142	H	0.805789	-0.205759	0.319554
O143	O	0.938234	0.156632	0.873670
C144	C	0.869469	0.186506	0.862521
H145	H	0.821243	0.153607	0.846169
H146	H	0.847405	0.207036	0.919782
H147	H	0.884154	0.223030	0.812597
O148	O	0.827791	-0.124712	0.213230
C149	C	0.839348	-0.062316	0.201704
H150	H	0.868983	-0.049427	0.138828
H151	H	0.779461	-0.042075	0.210517
H152	H	0.878942	-0.044990	0.246447
O153	O	0.929489	0.133884	0.340862
C154	C	0.930374	0.178664	0.394942
H155	H	0.956387	0.161535	0.450426
H156	H	0.968335	0.219375	0.366042
H157	H	0.867116	0.191293	0.412086
O158	O	0.931975	0.126152	0.503390
C159	C	0.864258	0.123366	0.560047
H160	H	0.841738	0.074974	0.575460
H161	H	0.880511	0.144231	0.616001
H162	H	0.815770	0.148639	0.534497
