data_functionalizedCrystal
_audit_creation_method	'MofGen! by Chris Wilmer'
_symmetry_space_group_name_H-M	'P1'
_symmetry_Int_Tables_number	1
_symmetry_cell_setting	triclinic
loop_
_symmetry_equiv_pos_as_xyz
  x,y,z
_cell_length_a	14.971482
_cell_length_b	10.654550
_cell_length_c	14.048226
_cell_angle_alpha	90.005244
_cell_angle_beta	90.005902
_cell_angle_gamma	84.048756
loop_
_atom_site_label
_atom_site_type_symbol
_atom_site_fract_x
_atom_site_fract_y
_atom_site_fract_z
O1	O	1.187840	0.163637	0.079146
O2	O	0.927546	0.183240	0.079150
O3	O	1.063677	-0.009365	0.079144
O4	O	1.051708	0.356242	0.079152
O5	O	1.063661	-0.009377	-0.079177
O6	O	0.927529	0.183229	-0.079171
O7	O	1.187823	0.163625	-0.079176
Zn8	Zn	1.057673	0.173425	-0.104310
Zn9	Zn	1.057695	0.173440	0.104285
O10	O	1.051691	0.356231	-0.079170
C11	C	0.894208	0.182359	-0.000010
C12	C	0.794896	0.179734	-0.000008
C13	C	0.748236	0.178491	-0.086310
C14	C	0.654924	0.176005	-0.086311
C15	C	0.608273	0.174770	-0.000009
C16	C	0.654940	0.176009	0.086299
C17	C	0.748251	0.178486	0.086299
C18	C	0.460450	0.170849	0.086293
C19	C	0.367133	0.168374	0.086293
C20	C	0.367123	0.168368	-0.086318
C21	C	0.460434	0.170845	-0.086318
C22	C	0.507094	0.172086	-0.000009
C23	C	1.062790	-0.056159	-0.000015
C24	C	1.060161	-0.195574	-0.000012
C25	C	1.140313	-0.275921	-0.000016
C26	C	1.137837	-0.406916	-0.000009
C27	C	0.975050	-0.377203	0.000002
C28	C	0.977526	-0.246211	0.000002
C29	C	1.234297	-0.293077	-0.000027
C30	C	1.231821	-0.424071	-0.000020
C31	C	1.221161	0.164507	-0.000013
C32	C	1.320472	0.167132	-0.000009
C33	C	1.052578	0.403025	-0.000008
C34	C	1.055208	0.542440	-0.000005
N35	N	1.057665	0.173414	-0.246671
C36	C	1.117963	0.088164	-0.296492
C37	C	1.117969	0.088163	-0.396149
C38	C	1.057681	0.173420	-0.445984
C39	C	0.997376	0.258674	-0.396157
C40	C	0.997366	0.258668	-0.296501
C41	C	0.997402	0.258683	-0.603871
C42	C	0.997412	0.258692	-0.703534
C43	C	1.118005	0.088179	-0.703519
C44	C	1.117995	0.088172	-0.603863
C45	C	1.057691	0.173429	-0.554043
N46	N	1.057711	0.173441	0.246646
H47	H	0.498439	0.171860	0.156575
H48	H	0.616951	0.174995	0.156568
H49	H	0.498414	0.171858	-0.156592
C50	C	0.843814	0.289150	0.186433
C51	C	0.799548	0.179857	0.181162
H52	H	0.875486	0.289986	0.244997
H53	H	0.801042	0.361348	0.182854
H54	H	0.884945	0.290224	0.135027
H55	H	0.758412	0.178787	0.232564
H56	H	0.842325	0.107640	0.184750
H57	H	0.948283	0.328088	-0.436738
H58	H	0.948318	0.328115	-0.744105
C59	C	1.369050	-0.453481	-0.089473
C60	C	1.279600	-0.480983	-0.089465
H61	H	1.398540	-0.488612	-0.144695
H62	H	1.398552	-0.488579	-0.034266
H63	H	1.370719	-0.364596	-0.089481
H64	H	1.277931	-0.569868	-0.089451
H65	H	1.250091	-0.445889	-0.144687
H66	H	1.260231	-0.470015	0.068338
C67	C	0.224088	0.164518	-0.162971
C68	C	0.315840	0.166974	-0.181192
H69	H	0.192428	0.163649	-0.221541
H70	H	0.202425	0.237290	-0.127524
H71	H	0.215187	0.090935	-0.127505
H72	H	0.324742	0.240562	-0.216652
H73	H	0.337510	0.094195	-0.216655
H74	H	0.948264	0.328086	-0.255938
C75	C	0.816372	-0.230005	0.000018
C76	C	0.889421	-0.157892	0.000012
H77	H	0.761978	-0.175477	0.000018
H78	H	0.818802	-0.281705	0.055225
H79	H	0.818788	-0.281724	-0.055196
H80	H	0.887009	-0.106179	0.055230
H81	H	0.886989	-0.106170	-0.055201
H82	H	0.907771	-0.418448	0.000014
H83	H	1.271064	-0.264109	0.066225
H84	H	0.786211	0.179507	-0.156588
H85	H	0.616939	0.174973	-0.156587
C86	C	1.237157	-0.080388	-0.306498
C87	C	1.184234	-0.005557	-0.241717
H88	H	1.278065	-0.138256	-0.272682
H89	H	1.269655	-0.028037	-0.345350
H90	H	1.199639	-0.125639	-0.345383
H91	H	1.221751	0.039701	-0.202836
H92	H	1.151733	-0.057916	-0.202848
H93	H	1.167068	0.018745	-0.436713
C94	C	0.376510	0.168622	0.256913
C95	C	0.315852	0.167020	0.181157
H96	H	0.344850	0.167783	0.315477
H97	H	0.406538	0.242756	0.253328
H98	H	0.419273	0.096400	0.253318
H99	H	0.273092	0.239247	0.184748
H100	H	0.285809	0.092878	0.184743
C101	C	1.237193	-0.080379	-0.613854
C102	C	1.184264	-0.005543	-0.549082
H103	H	1.278100	-0.138242	-0.580032
H104	H	1.269694	-0.028030	-0.652707
H105	H	1.199680	-0.125636	-0.652740
H106	H	1.221777	0.039721	-0.510200
H107	H	1.151761	-0.057899	-0.510213
H108	H	1.264218	-0.257777	-0.068387
C109	C	1.136385	-0.082713	-0.815585
C110	C	1.184291	-0.005547	-0.758273
H111	H	1.177310	-0.140575	-0.849384
H112	H	1.100490	-0.031945	-0.859526
H113	H	1.098876	-0.127971	-0.776709
H114	H	1.221795	0.039717	-0.797150
H115	H	1.220202	-0.056322	-0.714327
H116	H	0.948293	0.328104	-0.563310
