data_functionalizedCrystal
_audit_creation_method	'MofGen! by Chris Wilmer'
_symmetry_space_group_name_H-M	'P1'
_symmetry_Int_Tables_number	1
_symmetry_cell_setting	triclinic
loop_
_symmetry_equiv_pos_as_xyz
  x,y,z
_cell_length_a	10.540539
_cell_length_b	14.519731
_cell_length_c	12.996460
_cell_angle_alpha	89.994327
_cell_angle_beta	89.996006
_cell_angle_gamma	84.107172
loop_
_atom_site_label
_atom_site_type_symbol
_atom_site_fract_x
_atom_site_fract_y
_atom_site_fract_z
O1	O	0.166529	1.224754	-0.085564
O2	O	0.186096	0.956385	-0.085565
O3	O	-0.008456	1.096692	-0.085563
O4	O	0.361081	1.084447	-0.085566
O5	O	-0.008467	1.096677	0.085571
O6	O	0.186085	0.956370	0.085569
O7	O	0.166518	1.224739	0.085570
Cu8	Cu	0.176301	1.090553	0.101195
Cu9	Cu	0.176313	1.090571	-0.101190
O10	O	0.361070	1.084432	0.085568
C11	C	0.185174	0.922013	0.000002
C12	C	0.182426	0.819618	0.000001
C13	C	0.180194	0.736462	-0.000003
C14	C	0.177405	0.632138	-0.000003
C15	C	0.175191	0.548987	-0.000003
C16	C	0.172402	0.444657	-0.000006
C17	C	-0.055755	1.095766	0.000002
C18	C	-0.196675	1.093019	-0.000004
C19	C	-0.379038	0.987741	-0.000388
C20	C	-0.232449	0.990526	-0.000003
C21	C	-0.258837	1.142335	0.097722
C22	C	-0.405347	1.138837	0.097805
C23	C	-0.405874	1.140938	-0.096807
C24	C	-0.258901	1.141882	-0.098099
C25	C	0.408369	1.085358	0.000001
C26	C	0.549289	1.088105	-0.000001
C27	C	0.167440	1.259111	0.000001
C28	C	0.170188	1.361506	-0.000005
N29	N	0.176291	1.090548	0.243542
N30	N	0.176313	1.090584	-0.243538
C31	C	0.176315	1.090570	0.663356
C32	C	0.176312	1.090561	0.546551
C33	C	0.176304	1.090559	0.453453
C34	C	0.176299	1.090549	0.336640
H35	H	-0.189449	0.951721	-0.070057
Br36	Br	-0.457878	1.085652	-0.220263
H37	H	-0.237244	1.217603	0.101356
Br38	Br	-0.451749	1.078066	0.219560
H39	H	-0.217674	1.105798	-0.170394
H40	H	-0.235434	1.216608	-0.104000
H41	H	-0.407225	0.947259	-0.070469
H42	H	-0.454060	1.212548	0.102238
H43	H	-0.215896	1.108065	0.170446
H44	H	-0.408843	0.947412	0.069300
Br45	Br	-0.162188	0.925368	0.116948
Br46	Br	-0.485832	1.264326	-0.097904
