data_functionalizedCrystal
_audit_creation_method	'MofGen! by Chris Wilmer'
_symmetry_space_group_name_H-M	'P1'
_symmetry_Int_Tables_number	1
_symmetry_cell_setting	triclinic
loop_
_symmetry_equiv_pos_as_xyz
  x,y,z
_cell_length_a	17.640280
_cell_length_b	13.033304
_cell_length_c	13.032268
_cell_angle_alpha	90.922231
_cell_angle_beta	87.294217
_cell_angle_gamma	95.479665
loop_
_atom_site_label
_atom_site_type_symbol
_atom_site_fract_x
_atom_site_fract_y
_atom_site_fract_z
Zn1	Zn	-0.234117	-1.567886	-0.727854
Zn2	Zn	-0.342244	-1.621695	-0.531093
Zn3	Zn	-0.230140	-1.416567	-0.534937
Zn4	Zn	-0.373607	-1.437247	-0.673938
O5	O	-0.295027	-1.510849	-0.616955
O6	O	-0.236999	-1.715543	-0.722708
O7	O	-0.312584	-1.608349	-0.391086
O8	O	-0.125375	-1.405467	-0.584700
O9	O	-0.316440	-1.755076	-0.578149
O10	O	-0.128296	-1.516639	-0.726435
O11	O	-0.230222	-1.457643	-0.393909
O12	O	-0.260633	-1.278791	-0.532420
O13	O	-0.369893	-1.440712	-0.821608
O14	O	-0.366037	-1.293984	-0.634544
O15	O	-0.267410	-1.536691	-0.861219
O16	O	-0.451698	-1.628401	-0.525870
O17	O	-0.474740	-1.492888	-0.630817
C18	C	-0.316307	-1.249953	-0.578049
C19	C	-0.325432	-1.138344	-0.561424
C20	C	-0.290275	-1.069036	-0.625616
C21	C	-0.299705	-0.953681	-0.608435
C22	C	-0.490520	-1.568752	-0.572102
C23	C	-0.574149	-1.593612	-0.552961
C24	C	-0.909298	-1.322366	-0.762796
C25	C	-0.987876	-1.345731	-0.744778
C26	C	-0.963825	-1.486907	-0.635638
C27	C	-0.885242	-1.463557	-0.653651
C28	C	-0.857986	-1.381285	-0.717230
C29	C	-0.833930	-1.522476	-0.608084
C30	C	-0.755355	-1.499124	-0.626092
C31	C	-0.728092	-1.416854	-0.689665
C32	C	-0.779410	-1.357933	-0.735237
C33	C	-0.861189	-1.604744	-0.544500
C34	C	-0.809876	-1.663663	-0.498934
C35	C	-0.731300	-1.640316	-0.516946
C36	C	-0.704037	-1.558045	-0.580520
C37	C	-0.679981	-1.699237	-0.471375
C38	C	-0.601406	-1.675885	-0.489382
C39	C	-0.625461	-1.534694	-0.598527
C40	C	-0.098771	-1.452744	-0.662010
C41	C	-0.015138	-1.427983	-0.681210
C42	C	-0.322593	-1.485006	-0.878867
C43	C	-0.334340	-1.473993	-0.990478
C44	C	-0.273660	-0.772763	-0.656008
C45	C	-0.264543	-0.884374	-0.672635
C46	C	-0.288871	-1.516573	-1.059837
C47	C	-0.301010	-1.505192	-1.175193
C48	C	-0.267509	-1.536632	-0.356084
C49	C	-0.255535	-1.547777	-0.244551
H50	H	-0.336786	-0.927623	-0.540753
N51	N	-0.374544	-1.103824	-0.471773
H52	H	-0.417277	-1.066632	-0.498059
H53	H	-0.396657	-1.165969	-0.431327
H54	H	-0.664110	-1.397836	-0.704317
N55	N	-0.215415	-0.918875	-0.762283
H56	H	-0.215639	-0.996388	-0.761850
H57	H	-0.236236	-0.897028	-0.828567
N58	N	-0.596047	-1.445964	-0.667107
H59	H	-0.615982	-1.458480	-0.738056
H60	H	-0.613973	-1.379888	-0.637534
N61	N	-0.397816	-1.414544	-1.024922
H62	H	-0.390078	-1.341122	-0.998697
H63	H	-0.397463	-1.414916	-1.102444
H64	H	-0.207612	-1.592653	-1.218537
H65	H	-0.757218	-1.290945	-0.787018
N66	N	-0.364483	-1.445741	-1.209656
H67	H	-0.415072	-1.479033	-1.181440
H68	H	-0.356679	-1.372326	-1.183435
H69	H	-0.887105	-1.255378	-0.814577
N70	N	-0.241171	-1.103547	-0.715279
H71	H	-0.241403	-1.181062	-0.714851
H72	H	-0.262011	-1.081695	-0.781547
N73	N	-1.043223	-1.282176	-0.793926
H74	H	-1.014029	-1.226515	-0.836932
H75	H	-1.077356	-1.328101	-0.839056
H76	H	-0.925170	-1.623756	-0.529844
N77	N	-0.993236	-1.575640	-0.567072
H78	H	-0.975314	-1.641752	-0.596571
H79	H	-0.973291	-1.563040	-0.496142
N80	N	-0.839277	-1.752386	-0.430349
H81	H	-0.896840	-1.758237	-0.425851
H82	H	-0.821301	-1.818449	-0.459885
H83	H	-0.702186	-1.766216	-0.419601
N84	N	-0.225414	-1.576045	-1.025372
H85	H	-0.189323	-1.529192	-0.983753
H86	H	-0.247733	-1.635883	-0.981812
H87	H	-0.559626	-1.723862	-0.452275
