data_functionalizedCrystal
_audit_creation_method	'MofGen! by Chris Wilmer'
_symmetry_space_group_name_H-M	'P1'
_symmetry_Int_Tables_number	1
_symmetry_cell_setting	triclinic
loop_
_symmetry_equiv_pos_as_xyz
  x,y,z
_cell_length_a	12.759401
_cell_length_b	14.909351
_cell_length_c	12.759393
_cell_angle_alpha	86.732504
_cell_angle_beta	90.019596
_cell_angle_gamma	86.724920
loop_
_atom_site_label
_atom_site_type_symbol
_atom_site_fract_x
_atom_site_fract_y
_atom_site_fract_z
Zn1	Zn	1.630354	-0.359073	0.618128
Zn2	Zn	1.640366	-0.509942	0.452593
Zn3	Zn	1.454656	-0.359118	0.442471
Zn4	Zn	1.464761	-0.509876	0.628230
O5	O	1.547534	-0.434502	0.535356
O6	O	1.778704	-0.379095	0.596178
O7	O	1.615692	-0.489982	0.304233
O8	O	1.469544	-0.232880	0.457308
O9	O	1.786060	-0.489938	0.474561
O10	O	1.598628	-0.232847	0.586363
O11	O	1.479252	-0.379171	0.296795
O12	O	1.308975	-0.379107	0.467103
O13	O	1.486767	-0.489825	0.773908
O14	O	1.316399	-0.489869	0.603580
O15	O	1.608427	-0.379031	0.766486
O16	O	1.625491	-0.636166	0.484356
O17	O	1.496475	-0.636117	0.613396
C18	C	1.274566	-0.434486	0.535340
C19	C	1.157790	-0.434501	0.535360
C20	C	0.997097	-0.492276	0.606332
C21	C	1.106821	-0.492266	0.606320
C22	C	1.099031	-0.376749	0.464399
C23	C	0.989310	-0.376764	0.464407
C24	C	1.563194	-0.668872	0.551094
C25	C	1.569990	-0.769136	0.557862
C26	C	1.646705	-0.910364	0.634633
C27	C	1.640327	-0.816157	0.628279
C28	C	1.506028	-0.816329	0.493791
C29	C	1.512405	-0.910537	0.500144
C30	C	1.582745	-0.957551	0.570569
C31	C	1.589117	-1.051760	0.576927
C32	C	1.454823	-1.051930	0.442434
C33	C	1.448446	-0.957723	0.436080
C34	C	1.821569	-0.434519	0.535372
C35	C	1.938346	-0.434526	0.535379
C36	C	1.547607	-0.434416	0.809383
C37	C	1.547638	-0.434379	0.926158
C38	C	1.531842	-0.199217	0.519579
C39	C	1.525155	-0.098953	0.512856
C40	C	1.547518	-0.434523	0.262390
C41	C	1.547673	-0.434306	0.145599
C42	C	1.610991	-0.376679	0.977156
C43	C	1.611006	-0.376640	1.086877
C44	C	1.484313	-0.492009	1.094593
C45	C	1.484293	-0.492042	0.984873
H46	H	0.941473	-0.329736	0.406623
H47	H	1.432742	-0.538958	1.142413
C48	C	1.722887	-0.961469	0.711228
C49	C	1.667005	-1.015534	0.782167
C50	C	1.737144	-1.062616	0.852752
H51	H	1.771199	-0.998289	0.673688
H52	H	1.760050	-0.919907	0.748546
H53	H	1.629859	-1.057091	0.744853
H54	H	1.618697	-0.978736	0.819732
H55	H	1.774307	-1.021054	0.890070
H56	H	1.785452	-1.099431	0.815202
H57	H	1.699238	-1.099298	0.900897
H58	H	1.140539	-0.329720	0.406618
H59	H	1.646383	-1.090038	0.634279
H60	H	1.662568	-0.329723	0.929352
C61	C	1.709815	-0.765088	0.697967
C62	C	1.772758	-0.826429	0.761016
C63	C	1.836776	-0.779417	0.825238
H64	H	1.753219	-0.728325	0.655458
H65	H	1.667135	-0.728359	0.741288
H66	H	1.815434	-0.863143	0.717700
H67	H	1.729383	-0.863193	0.803546
H68	H	1.794096	-0.742688	0.868559
H69	H	1.880172	-0.742656	0.782721
H70	H	1.879483	-0.821030	0.868031
C71	C	1.679858	-0.314139	1.142395
C72	C	1.750593	-0.365196	1.208847
C73	C	1.814024	-0.307646	1.260017
H74	H	1.717677	-0.279780	1.091830
H75	H	1.637080	-0.274832	1.182612
H76	H	1.793366	-0.404487	1.168632
H77	H	1.712803	-0.399553	1.259430
H78	H	1.771246	-0.268339	1.300234
H79	H	1.851836	-0.273290	1.209445
H80	H	1.862019	-0.342279	1.305117
C81	C	1.429700	-0.765113	0.417433
C82	C	1.437796	-0.672511	0.425598
C83	C	1.367491	-0.625303	0.355282
H84	H	1.446088	-0.780478	0.347850
H85	H	1.360118	-0.780531	0.433793
H86	H	1.507362	-0.657100	0.409230
H87	H	1.421398	-0.657120	0.495165
H88	H	1.297909	-0.640721	0.371643
H89	H	1.383885	-0.640675	0.285704
H90	H	1.372968	-0.562468	0.360819
C91	C	1.371912	-0.906787	0.359699
C92	C	1.269510	-0.929777	0.384030
C93	C	1.198976	-0.882883	0.313686
H94	H	1.377130	-0.843909	0.365024
H95	H	1.388302	-0.922276	0.290146
H96	H	1.253125	-0.914282	0.453566
H97	H	1.264258	-0.992647	0.378698
H98	H	1.215366	-0.898371	0.244133
H99	H	1.204204	-0.820007	0.319017
H100	H	1.129490	-0.898481	0.330179
C101	C	1.385492	-1.103325	0.372932
C102	C	1.406140	-1.195891	0.393555
C103	C	1.342296	-1.243264	0.329551
H104	H	1.313819	-1.088026	0.387158
H105	H	1.399867	-1.087977	0.301293
H106	H	1.391757	-1.211233	0.465178
H107	H	1.477800	-1.211217	0.379324
H108	H	1.356671	-1.227916	0.257911
H109	H	1.270627	-1.227957	0.343782
H110	H	1.356304	-1.306074	0.343528
H111	H	1.432696	-0.539028	0.943349
H112	H	1.154652	-0.539292	0.664096
C113	C	0.941892	-0.554937	0.683546
C114	C	0.967339	-0.535413	0.786219
C115	C	0.916516	-0.593127	0.857377
H116	H	0.868119	-0.546731	0.673538
H117	H	0.963946	-0.615544	0.672187
H118	H	0.945278	-0.474820	0.797574
H119	H	1.041102	-0.543624	0.796260
H120	H	0.938570	-0.653734	0.846017
H121	H	0.842746	-0.584917	0.847359
H122	H	0.933782	-0.579893	0.927047
