data_functionalizedCrystal
_audit_creation_method	'MofGen! by Chris Wilmer'
_symmetry_space_group_name_H-M	'P1'
_symmetry_Int_Tables_number	1
_symmetry_cell_setting	triclinic
loop_
_symmetry_equiv_pos_as_xyz
  x,y,z
_cell_length_a	17.640112
_cell_length_b	16.120484
_cell_length_c	17.639306
_cell_angle_alpha	104.591192
_cell_angle_beta	87.804122
_cell_angle_gamma	103.499326
loop_
_atom_site_label
_atom_site_type_symbol
_atom_site_fract_x
_atom_site_fract_y
_atom_site_fract_z
Zn1	Zn	1.243705	-0.109315	-0.201131
Zn2	Zn	1.213523	-0.229528	-0.080825
Zn3	Zn	1.090643	-0.120538	-0.100406
Zn4	Zn	1.110197	-0.284721	-0.236459
O5	O	1.164517	-0.186025	-0.154705
O6	O	1.347001	-0.097466	-0.162193
O7	O	1.176408	-0.196668	0.023865
O8	O	1.115395	-0.000029	-0.107178
O9	O	1.324826	-0.185786	-0.073804
O10	O	1.227849	0.008217	-0.181180
O11	O	1.086128	-0.116594	0.009478
O12	O	0.985937	-0.170113	-0.141433
O13	O	1.148722	-0.279855	-0.339059
O14	O	1.000304	-0.290737	-0.241390
O15	O	1.246810	-0.150985	-0.313104
O16	O	1.195368	-0.355870	-0.108060
O17	O	1.119455	-0.396420	-0.222403
C18	C	0.965299	-0.237633	-0.197371
C19	C	0.880075	-0.259734	-0.215643
C20	C	1.156282	-0.407003	-0.166953
C21	C	1.152835	-0.501524	-0.172203
C22	C	0.562368	-0.018110	-0.015902
C23	C	0.482289	-0.038896	-0.033082
C24	C	0.497264	-0.164623	-0.137007
C25	C	0.577347	-0.143845	-0.119837
C26	C	0.609892	-0.070587	-0.059283
C27	C	0.624871	-0.196323	-0.163219
C28	C	0.704946	-0.175548	-0.146048
C29	C	0.737497	-0.102296	-0.085496
C30	C	0.689967	-0.049813	-0.042113
C31	C	0.592324	-0.269583	-0.223769
C32	C	0.639848	-0.322061	-0.267151
C33	C	0.719925	-0.301283	-0.249984
C34	C	0.752476	-0.228031	-0.189432
C35	C	0.767455	-0.353766	-0.293367
C36	C	0.847530	-0.332991	-0.276196
C37	C	0.832551	-0.207256	-0.172261
C38	C	1.146548	-0.674575	-0.181803
C39	C	1.182626	-0.696602	-0.127591
C40	C	1.179128	-0.792893	-0.132932
C41	C	1.150045	-0.578276	-0.176462
C42	C	1.364513	-0.134217	-0.111874
C43	C	1.449739	-0.112140	-0.093621
C44	C	1.203314	-0.220325	-0.354678
C45	C	1.219847	-0.234941	-0.439894
C46	C	1.172808	0.035818	-0.142422
C47	C	1.176341	0.130354	-0.137188
C48	C	1.039227	-0.074592	-0.757632
C49	C	1.054779	-0.088340	-0.837703
C50	C	1.148777	-0.171712	-0.822704
C51	C	1.133236	-0.157968	-0.742629
C52	C	1.078459	-0.109408	-0.710100
C53	C	1.172468	-0.192784	-0.695098
C54	C	1.156925	-0.179044	-0.615031
C55	C	1.102149	-0.130489	-0.582496
C56	C	1.062916	-0.095668	-0.630033
C57	C	1.227240	-0.241349	-0.727630
C58	C	1.266473	-0.276165	-0.680098
C59	C	1.250934	-0.262420	-0.600028
C60	C	1.196158	-0.213865	-0.567493
C61	C	1.290167	-0.297241	-0.552491
C62	C	1.274624	-0.283501	-0.472424
C63	C	1.180615	-0.200125	-0.487426
C64	C	1.125917	-0.151787	0.044502
C65	C	1.109542	-0.136892	0.129764
H66	H	0.859053	-0.147592	-0.122962
H67	H	1.113035	-0.728031	-0.232223
H68	H	1.216140	-0.643142	-0.077166
Br69	Br	1.364491	-0.363157	-0.596651
H70	H	1.136019	-0.160572	-0.460937
H71	H	1.089489	-0.119310	-0.517301
H72	H	0.886226	-0.375723	-0.311523
H73	H	0.802699	-0.085384	-0.071515
H74	H	1.018320	-0.056115	-0.603544
H75	H	0.994631	-0.035039	-0.731143
H76	H	1.022830	-0.059981	-0.876401
H77	H	1.193373	-0.211253	-0.849202
Br78	Br	1.248336	-0.259995	-0.836293
H79	H	1.311069	-0.315706	-0.706595
Br80	Br	0.734145	0.049616	0.040062
Br81	Br	1.327861	-0.330760	-0.407913
H82	H	0.613338	-0.381709	-0.316452
H83	H	0.588870	0.041555	0.033397
H84	H	0.443597	0.003848	0.002244
Br85	Br	0.723273	-0.453199	-0.375527
H86	H	0.470754	-0.224271	-0.186308
Br87	Br	0.483646	-0.297790	-0.247061
