data_functionalizedCrystal
_audit_creation_method	'MofGen! by Chris Wilmer'
_symmetry_space_group_name_H-M	'P1'
_symmetry_Int_Tables_number	1
_symmetry_cell_setting	triclinic
loop_
_symmetry_equiv_pos_as_xyz
  x,y,z
_cell_length_a	21.395362
_cell_length_b	25.639239
_cell_length_c	21.395355
_cell_angle_alpha	89.980666
_cell_angle_beta	89.956060
_cell_angle_gamma	90.054564
loop_
_atom_site_label
_atom_site_type_symbol
_atom_site_fract_x
_atom_site_fract_y
_atom_site_fract_z
Zn1	Zn	0.957825	-0.207990	-0.354582
Zn2	Zn	1.457825	0.292010	0.145418
Zn3	Zn	0.957713	-0.295409	-0.249803
Zn4	Zn	1.457713	0.204591	0.250197
Zn5	Zn	0.853040	-0.208014	-0.249783
Zn6	Zn	1.353040	0.291986	0.250217
Zn7	Zn	0.852994	-0.295420	-0.354508
Zn8	Zn	1.352994	0.204580	0.145492
O9	O	0.905393	-0.251708	-0.302169
O10	O	1.405393	0.248292	0.197831
O11	O	1.045488	-0.219571	-0.340722
O12	O	1.545488	0.280429	0.159278
O13	O	0.943800	-0.283822	-0.162122
O14	O	1.443800	0.216178	0.337878
O15	O	0.867006	-0.134846	-0.263708
O16	O	1.367006	0.365154	0.236292
O17	O	1.045405	-0.283798	-0.263742
O18	O	1.545405	0.216202	0.236258
O19	O	0.943991	-0.134828	-0.340703
O20	O	1.443991	0.365172	0.159297
O21	O	0.866897	-0.219613	-0.162108
O22	O	1.366897	0.280387	0.337892
O23	O	0.765356	-0.219623	-0.263636
O24	O	1.265356	0.280377	0.236364
O25	O	0.866928	-0.283817	-0.442196
O26	O	1.366928	0.216183	0.057804
O27	O	0.765322	-0.283840	-0.340576
O28	O	1.265322	0.216160	0.159424
O29	O	0.943947	-0.219582	-0.442250
O30	O	1.443947	0.280418	0.057750
O31	O	0.943756	-0.368576	-0.263669
O32	O	1.443756	0.131424	0.236331
O33	O	0.866820	-0.368584	-0.340596
O34	O	1.366820	0.131416	0.159404
C35	C	0.742605	-0.251736	-0.302096
C36	C	1.242605	0.248264	0.197904
C37	C	0.672964	-0.251760	-0.302080
C38	C	1.172964	0.248240	0.197920
C39	C	0.640250	-0.285243	-0.342083
C40	C	1.140250	0.214757	0.157917
C41	C	0.574814	-0.285230	-0.342111
C42	C	1.074814	0.214770	0.157889
C43	C	0.542096	-0.251740	-0.302125
C44	C	1.042096	0.248260	0.197875
C45	C	0.574818	-0.218252	-0.262119
C46	C	1.074818	0.281748	0.237881
C47	C	0.640252	-0.218262	-0.262097
C48	C	1.140252	0.281738	0.237903
C49	C	0.438372	-0.247528	-0.245720
C50	C	0.938372	0.252472	0.254280
C51	C	0.372939	-0.247522	-0.245741
C52	C	0.872939	0.252478	0.254259
C53	C	0.340275	-0.251706	-0.302194
C54	C	0.840275	0.248294	0.197806
C55	C	0.373052	-0.255908	-0.358627
C56	C	0.873052	0.244092	0.141373
C57	C	0.438486	-0.255918	-0.358605
C58	C	0.938486	0.244082	0.141395
C59	C	0.471143	-0.251725	-0.302145
C60	C	0.971143	0.248275	0.197855
C61	C	0.236608	-0.285176	-0.342231
C62	C	0.736608	0.214824	0.157769
C63	C	0.171172	-0.285160	-0.342260
C64	C	0.671172	0.214840	0.157740
C65	C	0.171176	-0.218185	-0.262262
C66	C	0.671176	0.281815	0.237738
C67	C	0.236612	-0.218198	-0.262239
C68	C	0.736612	0.281802	0.237761
C69	C	0.269324	-0.251697	-0.302222
C70	C	0.769324	0.248303	0.197778
C71	C	0.905288	-0.387551	-0.302140
C72	C	1.405288	0.112449	0.197860
C73	C	0.905300	-0.445665	-0.302149
C74	C	1.405300	0.054335	0.197851
C75	C	0.945558	-0.806011	-0.262182
C76	C	1.445558	-0.306011	0.237818
C77	C	0.945582	-0.860616	-0.262190
C78	C	1.445582	-0.360616	0.237810
O79	O	0.979702	-0.888838	-0.228177
O80	O	1.479702	-0.388838	0.271823
N81	N	0.905503	-0.887947	-0.302211
N82	N	1.405503	-0.387947	0.197789
C83	C	0.865401	-0.860672	-0.342230
C84	C	1.365401	-0.360672	0.157770
O85	O	0.831313	-0.888934	-0.376271
O86	O	1.331313	-0.388934	0.123729
C87	C	0.865381	-0.806069	-0.342224
C88	C	1.365381	-0.306069	0.157776
C89	C	0.905458	-0.778740	-0.302196
C90	C	1.405458	-0.278740	0.197804
C91	C	0.985633	-0.778682	-0.222158
C92	C	1.485633	-0.278682	0.277842
C93	C	0.985608	-0.724082	-0.222149
C94	C	1.485608	-0.224082	0.277851
C95	C	0.945508	-0.696810	-0.262164
C96	C	1.445508	-0.196810	0.237836
C97	C	0.905433	-0.724139	-0.302187
C98	C	1.405433	-0.224139	0.197813
C99	C	0.825282	-0.778794	-0.382246
C100	C	1.325282	-0.278794	0.117754
C101	C	0.825266	-0.724187	-0.382237
C102	C	1.325266	-0.224187	0.117763
C103	C	0.865343	-0.696858	-0.342209
C104	C	1.365343	-0.196858	0.157791
C105	C	0.865308	-0.642267	-0.342193
C106	C	1.365308	-0.142267	0.157807
N107	N	0.905387	-0.614935	-0.302173
N108	N	1.405387	-0.114935	0.197827
C109	C	0.945487	-0.642207	-0.262158
C110	C	1.445487	-0.142207	0.237842
C111	C	0.865448	-0.975343	-0.342239
C112	C	1.365448	-0.475343	0.157761
C113	C	0.865465	-1.029945	-0.342242
C114	C	1.365465	-0.529945	0.157758
C115	C	0.945648	-1.029885	-0.262204
C116	C	1.445648	-0.529885	0.237796
C117	C	0.945627	-0.975281	-0.262198
C118	C	1.445627	-0.475281	0.237802
C119	C	0.905528	-0.948011	-0.302219
C120	C	1.405528	-0.448011	0.197781
C121	C	0.945430	-0.527542	-0.262142
C122	C	1.445430	-0.027542	0.237858
C123	C	0.945400	-0.472937	-0.262134
C124	C	1.445400	0.027063	0.237866
C125	C	0.865220	-0.473002	-0.342175
C126	C	1.365220	0.026998	0.157825
C127	C	0.865248	-0.527602	-0.342180
C128	C	1.365248	-0.027602	0.157820
C129	C	0.905358	-0.554871	-0.302162
C130	C	1.405358	-0.054871	0.197838
O131	O	0.831207	-0.614010	-0.376190
O132	O	1.331207	-0.114010	0.123810
O133	O	0.979575	-0.613939	-0.228128
O134	O	1.479575	-0.113939	0.271872
C135	C	1.068816	-0.251681	-0.302242
C136	C	1.568816	0.248319	0.197758
C137	C	1.138458	-0.251669	-0.302274
C138	C	1.638458	0.248331	0.197726
C139	C	0.905445	-0.251698	-0.465592
C140	C	1.405445	0.248302	0.034408
C141	C	0.905467	-0.251693	-0.535234
C142	C	1.405467	0.248307	-0.035234
C143	C	0.905516	-0.115335	-0.302212
C144	C	1.405516	0.384665	0.197788
C145	C	0.905568	-0.057221	-0.302230
C146	C	1.405568	0.442779	0.197770
C147	C	0.945569	-0.218245	-0.567976
C148	C	1.445569	0.281755	-0.067976
C149	C	0.945568	-0.218222	-0.633412
C150	C	1.445568	0.281778	-0.133412
C151	C	0.905472	-0.251658	-0.666102
C152	C	1.405472	0.248342	-0.166102
C153	C	0.865362	-0.285108	-0.633352
C154	C	1.365362	0.214892	-0.133352
C155	C	0.865360	-0.285126	-0.567917
C156	C	1.365360	0.214874	-0.067917
C157	C	0.900488	-0.298736	-0.769765
C158	C	1.400488	0.201264	-0.269765
C159	C	0.900495	-0.298719	-0.835198
C160	C	1.400495	0.201281	-0.335198
C161	C	0.905476	-0.251602	-0.867923
C162	C	1.405476	0.248398	-0.367923
C163	C	0.910463	-0.204501	-0.835207
C164	C	1.410463	0.295499	-0.335207
C165	C	0.910461	-0.204519	-0.769773
C166	C	1.410461	0.295481	-0.269773
C167	C	0.905470	-0.251642	-0.737054
C168	C	1.405470	0.248358	-0.237054
C169	C	0.945579	-0.218127	-0.971618
C170	C	1.445579	0.281873	-0.471618
C171	C	0.945574	-0.218103	-1.037055
C172	C	1.445574	0.281897	-0.537055
C173	C	0.865371	-0.284994	-1.036993
C174	C	1.365371	0.215006	-0.536993
C175	C	0.865373	-0.285013	-0.971558
C176	C	1.365373	0.214987	-0.471558
C177	C	0.905480	-0.251580	-0.938874
C178	C	1.405480	0.248420	-0.438874
C179	C	0.905377	-0.251681	-0.139381
C180	C	1.405377	0.248319	0.360619
C181	C	0.905476	-0.251538	-0.069741
C182	C	1.405476	0.248462	0.430259
H183	H	0.978036	-0.450687	-0.229537
H184	H	1.478036	0.049313	0.270463
H185	H	0.263244	-0.312450	-0.374791
H186	H	0.763244	0.187550	0.125209
H187	H	0.978093	-0.549738	-0.229556
H188	H	1.478093	-0.049738	0.270444
H189	H	0.978227	-0.191020	-0.541369
H190	H	1.478227	0.308980	-0.041369
O191	O	0.470001	-0.243488	-0.190818
O192	O	0.970001	0.256512	0.309182
C193	C	0.427042	-0.239773	-0.141016
C194	C	0.927042	0.260227	0.358984
H195	H	0.380389	-0.257348	-0.155832
H196	H	0.880389	0.242652	0.344168
H197	H	0.445869	-0.261938	-0.098853
H198	H	0.945869	0.238062	0.401147
H199	H	0.420132	-0.197032	-0.128092
H200	H	0.920132	0.302968	0.371908
O201	O	0.671995	-0.317723	-0.381017
O202	O	1.171995	0.182277	0.118983
C203	C	0.656074	-0.306379	-0.443491
C204	C	1.156074	0.193621	0.056509
H205	H	0.638148	-0.264611	-0.446750
H206	H	1.138148	0.235389	0.053250
H207	H	0.699131	-0.310929	-0.474425
H208	H	1.199131	0.189071	0.025575
H209	H	0.618069	-0.334424	-0.459818
H210	H	1.118069	0.165576	0.040182
H211	H	0.465171	-0.259338	-0.404555
H212	H	0.965171	0.240662	0.095445
O213	O	0.826518	-0.948911	-0.381199
O214	O	1.326518	-0.448911	0.118801
C215	C	0.840194	-0.962210	-0.443664
C216	C	1.340194	-0.462210	0.056336
H217	H	0.864300	-1.001828	-0.444995
H218	H	1.364300	-0.501828	0.055005
H219	H	0.794961	-0.964123	-0.471700
H220	H	1.294961	-0.464123	0.028300
H221	H	0.872379	-0.931435	-0.464810
H222	H	1.372379	-0.431435	0.035190
H223	H	0.666887	-0.190995	-0.229521
H224	H	1.166887	0.309005	0.270479
O225	O	1.024605	-0.697619	-0.183253
O226	O	1.524605	-0.197619	0.316747
C227	C	1.059990	-0.733408	-0.147933
C228	C	1.559990	-0.233408	0.352067
H229	H	1.062151	-0.772318	-0.173608
H230	H	1.562151	-0.272318	0.326392
H231	H	1.109356	-0.717588	-0.141315
H232	H	1.609356	-0.217588	0.358685
H233	H	1.037076	-0.739257	-0.100317
H234	H	1.537076	-0.239257	0.399683
H235	H	0.144537	-0.312424	-0.374839
H236	H	0.644537	0.187576	0.125161
O237	O	0.826551	-1.056570	-0.381062
O238	O	1.326551	-0.556570	0.118938
C239	C	0.835177	-1.110614	-0.372509
C240	C	1.335177	-0.610614	0.127491
H241	H	0.855722	-1.118073	-0.324183
H242	H	1.355722	-0.618073	0.175817
H243	H	0.788251	-1.131413	-0.376707
H244	H	1.288251	-0.631413	0.123293
H245	H	0.868531	-1.126056	-0.409718
H246	H	1.368531	-0.626056	0.090282
H247	H	0.978233	-0.190901	-0.945006
H248	H	1.478233	0.309099	-0.445006
H249	H	0.832718	-0.312213	-1.063609
H250	H	1.332718	0.187787	-0.563609
H251	H	0.144537	-0.190914	-0.229707
H252	H	0.644537	0.309086	0.270293
O253	O	0.268297	-0.185660	-0.223315
O254	O	0.768297	0.314340	0.276685
C255	C	0.225390	-0.156088	-0.188039
C256	C	0.725390	0.343912	0.311961
H257	H	0.178714	-0.177494	-0.185838
H258	H	0.678714	0.322506	0.314162
H259	H	0.244249	-0.150453	-0.138679
H260	H	0.744249	0.349547	0.361321
H261	H	0.218510	-0.116407	-0.211072
H262	H	0.718510	0.383593	0.288928
H263	H	0.346256	-0.244104	-0.199789
H264	H	0.846256	0.255896	0.300211
H265	H	0.832722	-0.312253	-0.944899
H266	H	1.332722	0.187747	-0.444899
O267	O	0.543108	-0.185747	-0.223187
O268	O	1.043108	0.314253	0.276813
C269	C	0.559005	-0.197108	-0.160710
C270	C	1.059005	0.302892	0.339290
H271	H	0.606486	-0.217212	-0.159355
H272	H	1.106486	0.282788	0.340645
H273	H	0.561266	-0.159339	-0.132697
H274	H	1.061266	0.340661	0.367303
H275	H	0.522119	-0.223957	-0.139559
H276	H	1.022119	0.276043	0.360441
H277	H	0.978228	-0.190863	-1.063713
H278	H	1.478228	0.309137	-0.563713
O279	O	1.024691	-0.805175	-0.183393
O280	O	1.524691	-0.305175	0.316607
C281	C	1.065149	-0.836692	-0.219140
C282	C	1.565149	-0.336692	0.280860
H283	H	1.068933	-0.820223	-0.268498
H284	H	1.568933	-0.320223	0.231502
H285	H	1.113397	-0.837227	-0.196576
H286	H	1.613397	-0.337227	0.303424
H287	H	1.045834	-0.878109	-0.221250
H288	H	1.545834	-0.378109	0.278750
H289	H	0.792644	-0.801036	-0.414837
H290	H	1.292644	-0.301036	0.085163
O291	O	0.984619	-0.948817	-0.223298
O292	O	1.484619	-0.448817	0.276702
C293	C	1.020000	-0.984603	-0.187971
C294	C	1.520000	-0.484603	0.312029
H295	H	1.022168	-1.023514	-0.213644
H296	H	1.522168	-0.523514	0.286356
H297	H	1.069364	-0.968781	-0.181344
H298	H	1.569364	-0.468781	0.318656
H299	H	0.997079	-0.990453	-0.140358
H300	H	1.497079	-0.490453	0.359642
O301	O	0.984627	-1.056463	-0.223436
O302	O	1.484627	-0.556463	0.276564
C303	C	0.976061	-1.110516	-0.232043
C304	C	1.476061	-0.610516	0.267957
H305	H	0.955459	-1.117960	-0.280349
H306	H	1.455459	-0.617960	0.219651
H307	H	1.023019	-1.131204	-0.227934
H308	H	1.523019	-0.631204	0.272066
H309	H	0.942778	-1.126093	-0.194806
H310	H	1.442778	-0.626093	0.305194
H311	H	0.792613	-0.701986	-0.414829
H312	H	1.292613	-0.201986	0.085171
O313	O	0.826296	-0.554072	-0.381119
O314	O	1.326296	-0.054072	0.118881
C315	C	0.790885	-0.518289	-0.416421
C316	C	1.290885	-0.018289	0.083579
H317	H	0.816526	-0.479335	-0.418609
H318	H	1.316526	0.020665	0.081391
H319	H	0.784189	-0.534049	-0.465783
H320	H	1.284189	-0.034049	0.034217
H321	H	0.743306	-0.512549	-0.393418
H322	H	1.243306	-0.012549	0.106582
H323	H	0.896438	-0.337072	-0.861831
H324	H	1.396438	0.162928	-0.361831
O325	O	0.895611	-0.344553	-0.738076
O326	O	1.395611	0.155447	-0.238076
C327	C	0.891168	-0.386117	-0.780981
C328	C	1.391168	0.113883	-0.280981
H329	H	0.912289	-0.373747	-0.827626
H330	H	1.412289	0.126253	-0.327626
H331	H	0.917678	-0.421287	-0.762071
H332	H	1.417678	0.078713	-0.262071
H333	H	0.839946	-0.396925	-0.787940
H334	H	1.339946	0.103075	-0.287940
O335	O	0.826362	-0.446479	-0.381112
O336	O	1.326362	0.053521	0.118888
C337	C	0.862013	-0.414832	-0.421600
C338	C	1.362013	0.085168	0.078400
H339	H	0.911362	-0.431239	-0.425530
H340	H	1.411362	0.068761	0.074470
H341	H	0.839335	-0.414210	-0.469793
H342	H	1.339335	0.085790	0.030207
H343	H	0.864169	-0.373456	-0.402218
H344	H	1.364169	0.126544	0.097782
O345	O	0.984586	-0.185714	-0.665130
O346	O	1.484586	0.314286	-0.165130
C347	C	1.019971	-0.156199	-0.622251
C348	C	1.519971	0.343801	-0.122251
H349	H	1.022118	-0.177624	-0.575606
H350	H	1.522118	0.322376	-0.075606
H351	H	1.069343	-0.150615	-0.641195
H352	H	1.569343	0.349385	-0.141195
H353	H	0.997068	-0.116493	-0.615279
H354	H	1.497068	0.383507	-0.115279
O355	O	0.915276	-0.158720	-0.738089
O356	O	1.415276	0.341280	-0.238089
C357	C	0.919690	-0.117128	-0.780997
C358	C	1.419690	0.382872	-0.280997
H359	H	0.898629	-0.129495	-0.827627
H360	H	1.398629	0.370505	-0.327627
H361	H	0.893107	-0.081997	-0.762070
H362	H	1.393107	0.418003	-0.262070
H363	H	0.970900	-0.106258	-0.787990
H364	H	1.470900	0.393742	-0.287990
H365	H	0.548173	-0.312495	-0.374689
H366	H	1.048173	0.187505	0.125311
O367	O	0.826445	-0.317662	-0.665035
O368	O	1.326445	0.182338	-0.165035
C369	C	0.840100	-0.369774	-0.649064
C370	C	1.340100	0.130226	-0.149064
H371	H	0.864181	-0.370865	-0.601571
H372	H	1.364181	0.129135	-0.101571
H373	H	0.794859	-0.393226	-0.646792
H374	H	1.294859	0.106774	-0.146792
H375	H	0.872299	-0.387370	-0.685913
H376	H	1.372299	0.112630	-0.185913
O377	O	0.341364	-0.260057	-0.413481
O378	O	0.841364	0.239943	0.086519
C379	C	0.357329	-0.307351	-0.443038
C380	C	0.857329	0.192649	0.056962
H381	H	0.375225	-0.336188	-0.406663
H382	H	0.875225	0.163812	0.093337
H383	H	0.314301	-0.324256	-0.467059
H384	H	0.814301	0.175744	0.032941
H385	H	0.395369	-0.299853	-0.479293
H386	H	0.895369	0.200147	0.020707
O387	O	0.826494	-0.317648	-0.536039
O388	O	1.326494	0.182352	-0.036039
C389	C	0.862138	-0.351431	-0.498230
C390	C	1.362138	0.148569	0.001770
H391	H	0.909637	-0.332985	-0.488466
H392	H	1.409637	0.167015	0.011534
H393	H	0.836613	-0.358455	-0.452195
H394	H	1.336613	0.141545	0.047805
H395	H	0.868986	-0.390169	-0.523454
H396	H	1.368986	0.109831	-0.023454
H397	H	0.914520	-0.166134	-0.861850
H398	H	1.414520	0.333866	-0.361850
