data_functionalizedCrystal
_audit_creation_method	'MofGen! by Chris Wilmer'
_symmetry_space_group_name_H-M	'P1'
_symmetry_Int_Tables_number	1
_symmetry_cell_setting	triclinic
loop_
_symmetry_equiv_pos_as_xyz
  x,y,z
_cell_length_a	16.992701
_cell_length_b	12.811415
_cell_length_c	16.053802
_cell_angle_alpha	87.154093
_cell_angle_beta	87.243340
_cell_angle_gamma	87.340280
loop_
_atom_site_label
_atom_site_type_symbol
_atom_site_fract_x
_atom_site_fract_y
_atom_site_fract_z
O1	O	1.045194	0.217482	-0.085899
O2	O	1.545194	0.717482	0.414101
O3	O	0.816892	0.215053	-0.085716
O4	O	1.316892	0.715053	0.414284
O5	O	0.936241	0.064642	-0.074324
O6	O	1.436241	0.564642	0.425676
O7	O	0.925845	0.367893	-0.097291
O8	O	1.425845	0.867893	0.402709
O9	O	0.929672	0.072884	0.063911
O10	O	1.429672	0.572884	0.563911
O11	O	0.810323	0.223296	0.052519
O12	O	1.310323	0.723296	0.552519
O13	O	1.038625	0.225724	0.052335
O14	O	1.538625	0.725724	0.552335
Zn15	Zn	0.923431	0.225819	0.074375
Zn16	Zn	1.423431	0.725819	0.574375
Zn17	Zn	0.932086	0.214959	-0.107755
Zn18	Zn	1.432086	0.714959	0.392245
O19	O	0.919275	0.376136	0.040943
O20	O	1.419275	0.876136	0.540943
C21	C	0.784373	0.216047	-0.016362
C22	C	1.284373	0.716047	0.483638
C23	C	0.697265	0.206716	-0.015655
C24	C	1.197265	0.706716	0.484345
C25	C	0.207875	0.144019	-0.010910
C26	C	0.707875	0.644019	0.489090
C27	C	0.289721	0.152795	-0.011569
C28	C	0.789721	0.652795	0.488431
C29	C	0.321944	0.251614	-0.019058
C30	C	0.821944	0.751614	0.480942
C31	C	0.272315	0.341663	-0.025878
C32	C	0.772315	0.841663	0.474122
C33	C	0.190469	0.332887	-0.025212
C34	C	0.690469	0.832887	0.474788
C35	C	0.565791	0.287989	-0.021810
C36	C	1.065791	0.787989	0.478190
C37	C	0.647642	0.296759	-0.022478
C38	C	1.147642	0.796759	0.477522
C39	C	0.665043	0.107889	-0.008167
C40	C	1.165043	0.607889	0.491833
C41	C	0.583196	0.099121	-0.007507
C42	C	1.083196	0.599121	0.492493
C43	C	0.533574	0.189170	-0.014324
C44	C	1.033574	0.689170	0.485676
N45	N	0.405604	0.260586	-0.019735
N46	N	0.905604	0.760586	0.480265
N47	N	0.449915	0.180197	-0.013641
N48	N	0.949915	0.680197	0.486359
C49	C	0.932173	0.029781	-0.002256
C50	C	1.432173	0.529781	0.497744
C51	C	0.929828	-0.086375	0.006536
C52	C	1.429828	0.413625	0.506536
C53	C	0.932570	-0.313620	-0.127663
C54	C	1.432570	0.186380	0.372337
C55	C	0.930367	-0.422758	-0.119406
C56	C	1.430367	0.077242	0.380594
C57	C	0.923213	-0.413792	0.031306
C58	C	1.423213	0.086208	0.531306
C59	C	0.925416	-0.304653	0.023050
C60	C	1.425416	0.195347	0.523050
C61	C	0.930096	-0.254571	-0.056438
C62	C	1.430096	0.245429	0.443562
C63	C	0.932304	-0.145431	-0.064694
C64	C	1.432304	0.354569	0.435306
C65	C	0.925145	-0.136466	0.086018
C66	C	1.425145	0.363534	0.586018
C67	C	0.922941	-0.245605	0.094275
C68	C	1.422941	0.254395	0.594275
C69	C	1.071143	0.224730	-0.017020
C70	C	1.571143	0.724730	0.482980
C71	C	1.158252	0.234061	-0.017732
C72	C	1.658252	0.734061	0.482268
C73	C	0.923344	0.410997	-0.031126
C74	C	1.423344	0.910997	0.468874
C75	C	0.925689	0.527152	-0.039924
C76	C	1.425689	1.027152	0.460076
N77	N	0.917529	0.233230	0.198674
N78	N	1.417529	0.733230	0.698674
N79	N	0.937994	0.207539	-0.232053
N80	N	1.437994	0.707539	0.267947
C81	C	0.968331	0.169256	0.247213
C82	C	1.468331	0.669256	0.747213
C83	C	0.964210	0.174451	0.334227
C84	C	1.464210	0.674451	0.834227
C85	C	0.909291	0.243626	0.372698
C86	C	1.409291	0.743626	0.872698
C87	C	0.858483	0.307603	0.324153
C88	C	1.358483	0.807603	0.824153
C89	C	0.862601	0.302402	0.237142
C90	C	1.362601	0.802402	0.737142
C91	C	0.891304	0.266315	0.632390
C92	C	1.391304	0.766315	1.132390
C93	C	0.887192	0.271514	0.719407
C94	C	1.387192	0.771514	1.219407
C95	C	0.992918	0.138359	0.729475
C96	C	1.492918	0.638359	1.229475
C97	C	0.997034	0.133169	0.642461
C98	C	1.497034	0.633169	1.142461
C99	C	0.946224	0.197142	0.593924
C100	C	1.446224	0.697142	1.093924
N101	N	0.905079	0.248941	0.461640
N102	N	1.405079	0.748941	0.961640
N103	N	0.950433	0.191822	0.504984
N104	N	1.450433	0.691822	1.004984
H105	H	0.330121	0.079472	-0.006010
H106	H	0.830121	0.579472	0.493990
C107	C	0.135885	0.431941	-0.032719
C108	C	0.635885	0.931941	0.467281
N109	N	0.094772	0.506552	-0.038372
N110	N	0.594772	1.006552	0.461628
C111	C	0.937722	-0.258528	-0.215098
C112	C	1.437722	0.241472	0.284902
N113	N	0.941602	-0.217034	-0.280957
N114	N	1.441602	0.282966	0.219043
C115	C	0.307762	0.450366	-0.034113
C116	C	0.807762	0.950366	0.465887
N117	N	0.334461	0.532243	-0.040318
N118	N	0.834461	1.032243	0.459682
C119	C	0.826771	0.347612	0.761724
C120	C	1.326771	0.847612	1.261724
N121	N	0.781265	0.404927	0.793598
N122	N	1.281265	0.904927	1.293598
H123	H	0.936117	-0.104657	-0.129417
H124	H	1.436117	0.395343	0.370583
H125	H	0.813762	0.363924	0.355482
H126	H	1.313762	0.863924	0.855482
H127	H	0.849934	0.318407	0.592877
H128	H	1.349934	0.818407	1.092877
H129	H	0.932379	-0.470831	-0.177405
H130	H	1.432379	0.029169	0.322595
C131	C	0.683085	0.405472	-0.030714
C132	C	1.183085	0.905472	0.469286
N133	N	0.709780	0.487351	-0.036920
N134	N	1.209780	0.987351	0.463080
H135	H	1.013056	0.112931	0.215895
H136	H	1.513056	0.612931	0.715895
C137	C	0.547757	-0.009587	0.000747
C138	C	1.047757	0.490413	0.500747
N139	N	0.521064	-0.091467	0.006969
N140	N	1.021064	0.408533	0.506969
C141	C	0.719633	0.008842	-0.000657
C142	C	1.219633	0.508842	0.499343
N143	N	0.760750	-0.065764	0.005005
N144	N	1.260750	0.434236	0.505005
C145	C	0.511216	0.387048	-0.029297
C146	C	1.011216	0.887048	0.470703
N147	N	0.470107	0.461665	-0.034932
N148	N	0.970107	0.961665	0.465068
H149	H	0.919396	-0.454587	0.096021
H150	H	1.419396	0.045413	0.596021
C151	C	0.172438	0.035309	-0.002671
C152	C	0.672438	0.535309	0.497329
N153	N	0.145749	-0.046574	0.003540
N154	N	0.645749	0.453426	0.503540
H155	H	0.919128	-0.286396	0.158991
H156	H	1.419128	0.213604	0.658991
C157	C	0.922424	-0.071504	0.164371
C158	C	1.422424	0.428496	0.664371
N159	N	0.920378	-0.022574	0.223385
N160	N	1.420378	0.477426	0.723385
C161	C	1.020078	0.104047	0.387618
C162	C	1.520078	0.604047	0.887618
N163	N	1.062153	0.051005	0.427833
N164	N	1.562153	0.551005	0.927833
C165	C	0.806720	0.372788	0.183748
C166	C	1.306720	0.872788	0.683748
N167	N	0.764630	0.425806	0.143532
N168	N	1.264630	0.925806	0.643532
H169	H	1.041754	0.076841	0.611140
H170	H	1.541754	0.576841	1.111140
H171	H	1.034285	0.086274	0.769002
H172	H	1.534285	0.586274	1.269002
