data_functionalizedCrystal
_audit_creation_method	'MofGen! by Chris Wilmer'
_symmetry_space_group_name_H-M	'P1'
_symmetry_Int_Tables_number	1
_symmetry_cell_setting	triclinic
loop_
_symmetry_equiv_pos_as_xyz
  x,y,z
_cell_length_a	12.827893
_cell_length_b	18.101397
_cell_length_c	12.827885
_cell_angle_alpha	89.963418
_cell_angle_beta	89.980918
_cell_angle_gamma	90.020627
loop_
_atom_site_label
_atom_site_type_symbol
_atom_site_fract_x
_atom_site_fract_y
_atom_site_fract_z
Zn1	Zn	1.597633	-0.294791	-0.590794
Zn2	Zn	2.097633	0.205209	-0.090794
Zn3	Zn	1.597511	-0.418650	-0.416034
Zn4	Zn	2.097511	0.081350	0.083966
Zn5	Zn	1.422874	-0.294827	-0.416068
Zn6	Zn	1.922874	0.205173	0.083932
Zn7	Zn	1.422844	-0.418595	-0.590734
Zn8	Zn	1.922844	0.081405	-0.090734
O9	O	1.510216	-0.356716	-0.503407
O10	O	2.010216	0.143284	-0.003407
O11	O	1.743853	-0.311228	-0.567622
O12	O	2.243853	0.188772	-0.067622
O13	O	1.574307	-0.402263	-0.269802
O14	O	2.074307	0.097737	0.230198
O15	O	1.446120	-0.191189	-0.439286
O16	O	1.946120	0.308811	0.060714
O17	O	1.743763	-0.402227	-0.439226
O18	O	2.243763	0.097773	0.060774
O19	O	1.574514	-0.191162	-0.567656
O20	O	2.074514	0.308838	-0.067656
O21	O	1.446002	-0.311291	-0.269827
O22	O	1.946002	0.188709	0.230173
O23	O	1.276634	-0.311237	-0.439227
O24	O	1.776634	0.188763	0.060773
O25	O	1.446068	-0.402134	-0.736978
O26	O	1.946068	0.097866	-0.236978
O27	O	1.276612	-0.402169	-0.567554
O28	O	1.776612	0.097831	-0.067554
O29	O	1.574485	-0.311175	-0.737022
O30	O	2.074485	0.188825	-0.237022
O31	O	1.574278	-0.522275	-0.439168
O32	O	2.074278	-0.022275	0.060832
O33	O	1.445951	-0.522235	-0.567520
O34	O	1.945951	-0.022235	-0.067520
C35	C	1.238706	-0.356702	-0.503389
C36	C	1.738706	0.143298	-0.003389
C37	C	1.122553	-0.356714	-0.503405
C38	C	1.622553	0.143286	-0.003405
C39	C	1.070751	-0.311658	-0.440018
C40	C	1.570751	0.188342	0.059982
C41	C	0.950701	-0.311670	-0.440034
C42	C	1.450701	0.188330	0.059966
C43	C	1.510126	-0.549126	-0.503357
C44	C	2.010126	-0.049126	-0.003357
C45	C	1.510183	-0.631440	-0.503370
C46	C	2.010183	-0.131440	-0.003370
C47	C	1.510317	-0.930531	-0.503465
C48	C	2.010317	-0.430531	-0.003465
C49	C	1.590832	-0.899200	-0.422494
C50	C	2.090832	-0.399200	0.077506
C51	C	1.591111	-0.813582	-0.422703
C52	C	2.091111	-0.313582	0.077297
C53	C	1.510251	-0.782149	-0.503417
C54	C	2.010251	-0.282149	-0.003417
C55	C	1.540108	-0.813148	-0.613567
C56	C	2.040108	-0.313148	-0.113567
C57	C	1.540731	-0.898793	-0.613126
C58	C	2.040731	-0.398793	-0.113126
C59	C	1.399730	-0.899042	-0.475240
C60	C	1.899730	-0.399042	0.024760
C61	C	1.400276	-0.813393	-0.472782
C62	C	1.900276	-0.313393	0.027218
C63	C	1.510212	-0.698289	-0.503397
C64	C	2.010212	-0.198289	-0.003397
C65	C	1.510359	-1.014391	-0.503493
C66	C	2.010359	-0.514391	-0.003493
C67	C	1.782786	-0.356730	-0.503427
C68	C	2.282786	0.143270	-0.003427
C69	C	1.898939	-0.356736	-0.503436
C70	C	2.398939	0.143264	-0.003436
C71	C	1.510287	-0.356645	-0.775978
C72	C	2.010287	0.143355	-0.275978
C73	C	1.510317	-0.356614	-0.892131
C74	C	2.010317	0.143386	-0.392131
C75	C	1.510334	-0.163554	-0.503481
C76	C	2.010334	0.336446	-0.003481
C77	C	1.510384	-0.081240	-0.503513
C78	C	2.010384	0.418760	-0.003513
C79	C	1.573868	-0.311596	-0.943938
C80	C	2.073868	0.188404	-0.443938
C81	C	1.573901	-0.311564	-1.063988
C82	C	2.073901	0.188436	-0.563988
C83	C	1.510205	-0.356733	-0.231898
C84	C	2.010205	0.143267	0.268102
C85	C	1.510377	-0.356555	-0.115745
C86	C	2.010377	0.143445	0.384255
H87	H	0.906153	-0.273093	-0.385770
H88	H	1.406153	0.226907	0.114230
F89	F	0.957155	-0.407155	-0.574379
F90	F	1.457155	0.092845	-0.074379
H91	H	1.628314	-0.273025	-1.108540
H92	H	2.128314	0.226975	-0.608540
H93	H	1.078025	-0.395298	-0.557682
H94	H	1.578025	0.104702	-0.057682
H95	H	1.672301	-0.920667	-0.440953
H96	H	2.172301	-0.420667	0.059047
H97	H	1.628249	-0.273076	-0.899414
H98	H	2.128249	0.226924	-0.399414
H99	H	1.483258	-0.792784	-0.675520
H100	H	1.983258	-0.292784	-0.175520
F101	F	1.370843	-0.786919	-0.366831
F102	F	1.870843	-0.286919	0.133169
F103	F	1.566640	-0.786189	-0.315961
F104	F	2.066640	-0.286189	0.184039
H105	H	1.455969	-0.395101	-1.071199
H106	H	1.955969	0.104899	-0.571199
H107	H	1.337059	-0.792004	-0.527439
H108	H	1.837059	-0.292004	-0.027439
F109	F	1.439225	-0.406958	-0.950321
F110	F	1.939225	0.093042	-0.450321
F111	F	1.644582	-0.785036	-0.645349
F112	F	2.144582	-0.285036	-0.145349
F113	F	1.364226	-0.927362	-0.372076
F114	F	1.864226	-0.427362	0.127924
F115	F	1.467400	-0.925881	-0.694663
F116	F	1.967400	-0.425881	-0.194663
H117	H	1.572377	-0.919850	-0.340574
H118	H	2.072377	-0.419850	0.159426
F119	F	1.128947	-0.261229	-0.369064
F120	F	1.628947	0.238771	0.130936
F121	F	1.646387	-0.924828	-0.644375
F122	F	2.146387	-0.424828	-0.144375
F123	F	1.698181	-0.786725	-0.447117
F124	F	2.198181	-0.286725	0.052883
F125	F	1.321318	-0.925527	-0.552322
F126	F	1.821318	-0.425527	-0.052322
