data_functionalizedCrystal
_audit_creation_method	'MofGen! by Chris Wilmer'
_symmetry_space_group_name_H-M	'P1'
_symmetry_Int_Tables_number	1
_symmetry_cell_setting	triclinic
loop_
_symmetry_equiv_pos_as_xyz
  x,y,z
_cell_length_a	17.077404
_cell_length_b	18.101395
_cell_length_c	17.077395
_cell_angle_alpha	89.973793
_cell_angle_beta	89.984359
_cell_angle_gamma	90.031329
loop_
_atom_site_label
_atom_site_type_symbol
_atom_site_fract_x
_atom_site_fract_y
_atom_site_fract_z
Zn1	Zn	1.199980	-0.294834	-0.443848
Zn2	Zn	1.533313	0.038499	-0.110515
Zn3	Zn	1.866647	0.371832	0.222818
Zn4	Zn	1.199877	-0.418680	-0.312585
Zn5	Zn	1.533210	-0.085347	0.020749
Zn6	Zn	1.866544	0.247986	0.354082
Zn7	Zn	1.068721	-0.294858	-0.312596
Zn8	Zn	1.402054	0.038476	0.020737
Zn9	Zn	1.735387	0.371809	0.354070
Zn10	Zn	1.068661	-0.418639	-0.443808
Zn11	Zn	1.401994	-0.085306	-0.110475
Zn12	Zn	1.735328	0.248028	0.222859
O13	O	1.134310	-0.356753	-0.378209
O14	O	1.467643	-0.023420	-0.044876
O15	O	1.800976	0.309914	0.288457
O16	O	1.309813	-0.311270	-0.426448
O17	O	1.643146	0.022063	-0.093114
O18	O	1.976480	0.355396	0.240219
O19	O	1.182461	-0.402282	-0.202739
O20	O	1.515794	-0.068949	0.130594
O21	O	1.849127	0.264385	0.463928
O22	O	1.086200	-0.191222	-0.330029
O23	O	1.419534	0.142112	0.003305
O24	O	1.752867	0.475445	0.336638
O25	O	1.309738	-0.402259	-0.330009
O26	O	1.643071	-0.068926	0.003324
O27	O	1.976404	0.264407	0.336658
O28	O	1.182636	-0.191205	-0.426459
O29	O	1.515969	0.142129	-0.093126
O30	O	1.849303	0.475462	0.240208
O31	O	1.086101	-0.311310	-0.202748
O32	O	1.419434	0.022023	0.130586
O33	O	1.752767	0.355357	0.463919
O34	O	0.958866	-0.311270	-0.329990
O35	O	1.292199	0.022063	0.003344
O36	O	1.625532	0.355397	0.336677
O37	O	1.086099	-0.402189	-0.553660
O38	O	1.419432	-0.068856	-0.220327
O39	O	1.752765	0.264478	0.113006
O40	O	0.958822	-0.402212	-0.426391
O41	O	1.292155	-0.068878	-0.093057
O42	O	1.625489	0.264455	0.240276
O43	O	1.182578	-0.311230	-0.553690
O44	O	1.515912	0.022103	-0.220357
O45	O	1.849245	0.355436	0.112977
O46	O	1.182403	-0.522308	-0.329970
O47	O	1.515736	-0.188974	0.003363
O48	O	1.849070	0.144359	0.336697
O49	O	1.085999	-0.522277	-0.426379
O50	O	1.419332	-0.188944	-0.093046
O51	O	1.752666	0.144389	0.240287
C52	C	0.930362	-0.356739	-0.378188
C53	C	1.263695	-0.023406	-0.044854
C54	C	1.597028	0.309927	0.288479
C55	C	0.843112	-0.356752	-0.378197
C56	C	1.176445	-0.023418	-0.044864
C57	C	1.509779	0.309915	0.288470
C58	C	0.802119	-0.404176	-0.428312
C59	C	1.135453	-0.070843	-0.094979
C60	C	1.468786	0.262490	0.238354
C61	C	0.720139	-0.404178	-0.428325
C62	C	1.053472	-0.070845	-0.094992
C63	C	1.386806	0.262489	0.238342
C64	C	0.679153	-0.356758	-0.378218
C65	C	1.012486	-0.023425	-0.044884
C66	C	1.345819	0.309909	0.288449
C67	C	0.720151	-0.309328	-0.328100
C68	C	1.053484	0.024005	0.005233
C69	C	1.386817	0.357339	0.338567
C70	C	0.802130	-0.309323	-0.328092
C71	C	1.135463	0.024010	0.005241
C72	C	1.468796	0.357344	0.338575
C73	C	0.549281	-0.309343	-0.328119
C74	C	0.882614	0.023991	0.005215
C75	C	1.215947	0.357324	0.338548
C76	C	0.467296	-0.309348	-0.328126
C77	C	0.800629	0.023985	0.005208
C78	C	1.133963	0.357319	0.338541
C79	C	0.467290	-0.404197	-0.428352
C80	C	0.800623	-0.070864	-0.095018
C81	C	1.133957	0.262469	0.238315
C82	C	0.549269	-0.404193	-0.428344
C83	C	0.882602	-0.070859	-0.095010
C84	C	1.215936	0.262474	0.238323
C85	C	0.590262	-0.356763	-0.378225
C86	C	0.923595	-0.023430	-0.044892
C87	C	1.256928	0.309903	0.288442
C88	C	1.134205	-0.549163	-0.378186
C89	C	1.467538	-0.215830	-0.044853
C90	C	1.800871	0.117503	0.288480
C91	C	1.134231	-0.631478	-0.378203
C92	C	1.467565	-0.298144	-0.044869
C93	C	1.800898	0.035189	0.288464
C94	C	1.134404	-0.930568	-0.378245
C95	C	1.467737	-0.597235	-0.044912
C96	C	1.801070	-0.263902	0.288422
C97	C	1.073890	-0.899255	-0.439054
C98	C	1.407223	-0.565922	-0.105720
C99	C	1.740556	-0.232588	0.227613
C100	C	1.073602	-0.813637	-0.438863
C101	C	1.406935	-0.480304	-0.105530
C102	C	1.740269	-0.146970	0.227803
C103	C	1.134318	-0.782186	-0.378225
C104	C	1.467652	-0.448853	-0.044891
C105	C	1.800985	-0.115519	0.288442
C106	C	1.111927	-0.813336	-0.295495
C107	C	1.445260	-0.480003	0.037838
C108	C	1.778593	-0.146669	0.371172
C109	C	1.111537	-0.898981	-0.295859
C110	C	1.444870	-0.565648	0.037474
C111	C	1.778203	-0.232314	0.370808
C112	C	1.217442	-0.898912	-0.399437
C113	C	1.550775	-0.565579	-0.066104
C114	C	1.884108	-0.232246	0.267229
C115	C	1.216953	-0.813261	-0.401252
C116	C	1.550287	-0.479928	-0.067918
C117	C	1.883620	-0.146594	0.265415
C118	C	1.134271	-0.698326	-0.378208
C119	C	1.467605	-0.364993	-0.044875
C120	C	1.800938	-0.031660	0.288459
C121	C	1.134449	-1.014428	-0.378256
C122	C	1.467782	-0.681095	-0.044923
C123	C	1.801115	-0.347761	0.288411
C124	C	1.339054	-0.356767	-0.378231
C125	C	1.672387	-0.023434	-0.044898
C126	C	2.005720	0.309900	0.288435
C127	C	1.426304	-0.356773	-0.378241
C128	C	1.759637	-0.023440	-0.044908
C129	C	2.092970	0.309894	0.288426
C130	C	1.134343	-0.356703	-0.582954
C131	C	1.467677	-0.023369	-0.249620
C132	C	1.801010	0.309964	0.083713
C133	C	1.134358	-0.356681	-0.670203
C134	C	1.467691	-0.023348	-0.336870
C135	C	1.801024	0.309986	-0.003537
C136	C	1.134436	-0.163591	-0.378250
C137	C	1.467770	0.169742	-0.044916
C138	C	1.801103	0.503076	0.288417
C139	C	1.134490	-0.081277	-0.378267
C140	C	1.467824	0.252057	-0.044933
C141	C	1.801157	0.585390	0.288400
C142	C	1.184682	-0.309218	-1.046035
C143	C	1.518015	0.024115	-0.712701
C144	C	1.851348	0.357448	-0.379368
C145	C	1.184666	-0.309244	-0.964054
C146	C	1.517999	0.024089	-0.630721
C147	C	1.851332	0.357422	-0.297388
C148	C	1.134422	-0.356611	-0.923053
C149	C	1.467756	-0.023278	-0.589719
C150	C	1.801089	0.310056	-0.256386
C151	C	1.084197	-0.403960	-0.964036
C152	C	1.417531	-0.070627	-0.630702
C153	C	1.750864	0.262706	-0.297369
C154	C	1.084218	-0.403938	-1.046015
C155	C	1.417551	-0.070604	-0.712681
C156	C	1.750885	0.262729	-0.379348
C157	C	1.084157	-0.404003	-0.793166
C158	C	1.417490	-0.070670	-0.459832
C159	C	1.750823	0.262664	-0.126499
C160	C	1.084135	-0.404025	-0.711181
C161	C	1.417468	-0.070692	-0.377848
C162	C	1.750802	0.262642	-0.044514
C163	C	1.184604	-0.309310	-0.711205
C164	C	1.517938	0.024023	-0.377872
C165	C	1.851271	0.357357	-0.044538
C166	C	1.184625	-0.309287	-0.793184
C167	C	1.517958	0.024046	-0.459851
C168	C	1.851292	0.357380	-0.126517
C169	C	1.134399	-0.356636	-0.834161
C170	C	1.467732	-0.023302	-0.500828
C171	C	1.801065	0.310031	-0.167495
C172	C	1.134321	-0.356750	-0.174261
C173	C	1.467655	-0.023416	0.159072
C174	C	1.800988	0.309917	0.492405
C175	C	1.134459	-0.356562	-0.087012
C176	C	1.467792	-0.023229	0.246321
C177	C	1.801126	0.310104	0.579655
H178	H	0.835485	-0.442794	-0.469113
H179	H	1.168818	-0.109460	-0.135780
H180	H	1.502151	0.223873	0.197554
H181	H	1.225534	-0.270714	-0.826565
H182	H	1.558867	0.062619	-0.493232
H183	H	1.892201	0.395953	-0.159899
H184	H	1.043292	-0.442530	-0.930646
H185	H	1.376625	-0.109197	-0.597312
H186	H	1.709959	0.224136	-0.263979
H187	H	1.225499	-0.270756	-0.677837
H188	H	1.558832	0.062578	-0.344504
H189	H	1.892165	0.395911	-0.011171
Cl190	Cl	1.247806	-0.249724	-0.912543
Cl191	Cl	1.581139	0.083610	-0.579210
Cl192	Cl	1.914473	0.416943	-0.245876
H193	H	1.012714	-0.920841	-0.425192
H194	H	1.346047	-0.587508	-0.091859
H195	H	1.679381	-0.254175	0.241474
H196	H	0.686767	-0.442797	-0.469133
H197	H	1.020100	-0.109463	-0.135800
H198	H	1.353433	0.223870	0.197533
H199	H	1.043204	-0.442578	-0.677799
H200	H	1.376538	-0.109245	-0.344466
H201	H	1.709871	0.224088	-0.011133
Cl202	Cl	1.247840	-0.249660	-1.097572
Cl203	Cl	1.581174	0.083673	-0.764238
Cl204	Cl	1.914507	0.417006	-0.430905
Cl205	Cl	0.600794	-0.463812	-0.491332
Cl206	Cl	0.934127	-0.130479	-0.157998
Cl207	Cl	1.267461	0.202854	0.175335
H208	H	0.433910	-0.442814	-0.469163
H209	H	0.767243	-0.109480	-0.135829
H210	H	1.100577	0.223853	0.197504
H211	H	1.087611	-0.792574	-0.500206
H212	H	1.420944	-0.459241	-0.166873
H213	H	1.754277	-0.125907	0.166460
Cl214	Cl	0.853663	-0.249699	-0.265089
Cl215	Cl	1.186997	0.083634	0.068244
Cl216	Cl	1.520330	0.416968	0.401578
H217	H	0.433927	-0.270726	-0.287333
H218	H	0.767260	0.062608	0.046000
H219	H	1.100594	0.395941	0.379334
Cl220	Cl	1.021080	-0.463460	-1.097529
Cl221	Cl	1.354413	-0.130127	-0.764196
Cl222	Cl	1.687747	0.203207	-0.430863
Cl223	Cl	0.600813	-0.249716	-0.265111
Cl224	Cl	0.934146	0.083617	0.068222
Cl225	Cl	1.267480	0.416951	0.401556
Cl226	Cl	0.668625	-0.249709	-0.265112
Cl227	Cl	1.001958	0.083624	0.068221
Cl228	Cl	1.335291	0.416958	0.401554
H229	H	1.237857	-0.920461	-0.458736
H230	H	1.571191	-0.587128	-0.125402
H231	H	1.904524	-0.253795	0.207931
Cl232	Cl	1.290250	-0.780196	-0.337861
Cl233	Cl	1.623583	-0.446863	-0.004527
Cl234	Cl	1.956916	-0.113530	0.328806
H235	H	1.087759	-0.919804	-0.500595
H236	H	1.421092	-0.586470	-0.167262
H237	H	1.754426	-0.253137	0.166071
Cl238	Cl	0.978573	-0.782100	-0.417193
Cl239	Cl	1.311906	-0.448766	-0.083860
Cl240	Cl	1.645239	-0.115433	0.249473
Cl241	Cl	1.243027	-0.781825	-0.495253
Cl242	Cl	1.576360	-0.448491	-0.161919
Cl243	Cl	1.909694	-0.115158	0.171414
H244	H	1.262527	-0.919161	-0.355148
H245	H	1.595860	-0.585828	-0.021815
H246	H	1.929193	-0.252494	0.311519
H247	H	1.050836	-0.919024	-0.277907
H248	H	1.384170	-0.585691	0.055426
H249	H	1.717503	-0.252357	0.388760
Cl250	Cl	1.176624	-0.930969	-0.223517
Cl251	Cl	1.509958	-0.597636	0.109816
Cl252	Cl	1.843291	-0.264302	0.443149
H253	H	1.051870	-0.791951	-0.277221
H254	H	1.385203	-0.458618	0.056112
H255	H	1.718536	-0.125284	0.389446
Cl256	Cl	1.177833	-0.781887	-0.223633
Cl257	Cl	1.511166	-0.448553	0.109700
Cl258	Cl	1.844500	-0.115220	0.443034
Cl259	Cl	1.021014	-0.463527	-0.844679
Cl260	Cl	1.354347	-0.130194	-0.511345
Cl261	Cl	1.687680	0.203139	-0.178012
