data_functionalizedCrystal
_audit_creation_method	'MofGen! by Chris Wilmer'
_symmetry_space_group_name_H-M	'P1'
_symmetry_Int_Tables_number	1
_symmetry_cell_setting	triclinic
loop_
_symmetry_equiv_pos_as_xyz
  x,y,z
_cell_length_a	10.685976
_cell_length_b	10.685594
_cell_length_c	10.686551
_cell_angle_alpha	89.698963
_cell_angle_beta	90.348485
_cell_angle_gamma	89.687869
loop_
_atom_site_label
_atom_site_type_symbol
_atom_site_fract_x
_atom_site_fract_y
_atom_site_fract_z
Zn1	Zn	1.929799	-0.603124	0.611389
Zn2	Zn	2.263132	-0.269791	0.944722
Zn3	Zn	2.596466	0.063543	1.278055
Zn4	Zn	1.897870	-0.826417	0.419963
Zn5	Zn	2.231204	-0.493083	0.753296
Zn6	Zn	2.564537	-0.159750	1.086629
Zn7	Zn	1.704092	-0.600782	0.417572
Zn8	Zn	2.037425	-0.267448	0.750905
Zn9	Zn	2.370758	0.065885	1.084238
Zn10	Zn	1.706550	-0.794539	0.643173
Zn11	Zn	2.039883	-0.461206	0.976507
Zn12	Zn	2.373217	-0.127873	1.309840
O13	O	1.809578	-0.706215	0.523024
O14	O	2.142911	-0.372882	0.856357
O15	O	2.476244	-0.039549	1.189691
O16	O	2.100091	-0.647065	0.573694
O17	O	2.433425	-0.313732	0.907028
O18	O	2.766758	0.019601	1.240361
O19	O	1.857774	-0.808846	0.245118
O20	O	2.191107	-0.475513	0.578451
O21	O	2.524441	-0.142179	0.911785
O22	O	1.746365	-0.426556	0.428979
O23	O	2.079699	-0.093222	0.762312
O24	O	2.413032	0.240111	1.095646
O25	O	2.076633	-0.811117	0.433055
O26	O	2.409967	-0.477784	0.766388
O27	O	2.743300	-0.144451	1.099721
O28	O	1.912192	-0.428276	0.571376
O29	O	2.245525	-0.094943	0.904709
O30	O	2.578858	0.238390	1.238042
O31	O	1.715406	-0.643073	0.243361
O32	O	2.048739	-0.309740	0.576695
O33	O	2.382072	0.023593	0.910028
O34	O	1.529890	-0.612163	0.459799
O35	O	1.863223	-0.278830	0.793133
O36	O	2.196557	0.054503	1.126466
O37	O	1.750555	-0.756787	0.813484
O38	O	2.083889	-0.423454	1.146818
O39	O	2.417222	-0.090121	1.480151
O40	O	1.531696	-0.754516	0.625548
O41	O	1.865030	-0.421183	0.958881
O42	O	2.198363	-0.087850	1.292215
O43	O	1.914576	-0.616155	0.790132
O44	O	2.247909	-0.282822	1.123466
O45	O	2.581242	0.050511	1.456799
O46	O	1.860158	-0.996725	0.463875
O47	O	2.193491	-0.663392	0.797208
O48	O	2.526825	-0.330058	1.130541
O49	O	1.719596	-0.973305	0.627867
O50	O	2.052929	-0.639972	0.961200
O51	O	2.386262	-0.306638	1.294533
C52	C	1.485540	-0.679627	0.545864
C53	C	1.818873	-0.346294	0.879197
C54	C	2.152207	-0.012961	1.212531
C55	C	1.346916	-0.668281	0.555667
C56	C	1.680249	-0.334947	0.889000
C57	C	2.013582	-0.001614	1.222334
C58	C	1.786715	-1.030271	0.549604
C59	C	2.120048	-0.696938	0.882937
C60	C	2.453382	-0.363605	1.216271
C61	C	1.777052	-1.168910	0.561009
C62	C	2.110385	-0.835577	0.894342
C63	C	2.443718	-0.502244	1.227675
C64	C	2.134881	-0.732908	0.500096
C65	C	2.468214	-0.399575	0.833429
C66	C	2.801547	-0.066242	1.166762
C67	C	2.273505	-0.744283	0.490325
C68	C	2.606839	-0.410950	0.823658
C69	C	2.940172	-0.077617	1.156992
C70	C	1.836401	-0.683177	0.848327
C71	C	2.169735	-0.349843	1.181660
C72	C	2.503068	-0.016510	1.514993
C73	C	1.847832	-0.673359	0.986951
C74	C	2.181165	-0.340026	1.320285
C75	C	2.514499	-0.006692	1.653618
C76	C	1.832566	-0.380895	0.496365
C77	C	2.165899	-0.047562	0.829698
C78	C	2.499233	0.285772	1.163032
C79	C	1.842362	-0.242263	0.485005
C80	C	2.175695	0.091070	0.818338
C81	C	2.509029	0.424404	1.151671
C82	C	1.782937	-0.729080	0.198974
C83	C	2.116270	-0.395747	0.532308
C84	C	2.449603	-0.062414	0.865641
C85	C	1.771772	-0.738567	0.060305
C86	C	2.105106	-0.405233	0.393638
C87	C	2.438439	-0.071900	0.726971
H88	H	1.316713	-0.818046	0.426883
H89	H	1.650046	-0.484713	0.760216
H90	H	1.983380	-0.151380	1.093550
H91	H	1.905677	-1.199002	0.411214
H92	H	2.239010	-0.865669	0.744547
H93	H	2.572343	-0.532335	1.077881
H94	H	1.713744	-1.212178	0.634813
H95	H	2.047077	-0.878845	0.968146
H96	H	2.380411	-0.545512	1.301479
H97	H	1.921704	-0.610023	1.030208
H98	H	2.255038	-0.276689	1.363541
H99	H	2.588371	0.056644	1.696875
H100	H	1.303714	-0.594533	0.619117
H101	H	1.637047	-0.261199	0.952450
H102	H	1.970381	0.072134	1.285783
F103	F	1.675230	-0.821362	1.003775
F104	F	2.008564	-0.488028	1.337109
F105	F	2.341897	-0.154695	1.670442
