data_functionalizedCrystal
_audit_creation_method	'MofGen! by Chris Wilmer'
_symmetry_space_group_name_H-M	'P1'
_symmetry_Int_Tables_number	1
_symmetry_cell_setting	triclinic
loop_
_symmetry_equiv_pos_as_xyz
  x,y,z
_cell_length_a	23.096457
_cell_length_b	23.096457
_cell_length_c	23.096457
_cell_angle_alpha	90.003692
_cell_angle_beta	59.997717
_cell_angle_gamma	60.002514
loop_
_atom_site_label
_atom_site_type_symbol
_atom_site_fract_x
_atom_site_fract_y
_atom_site_fract_z
Zr1	Zr	0.633707	0.557826	-0.075977
O2	O	0.754507	0.465371	-0.168428
O3	O	0.512920	0.586160	-0.047639
O4	O	0.633722	0.586150	-0.168435
O5	O	0.633688	0.465398	0.047657
O6	O	0.633720	0.681432	-0.168437
O7	O	0.633705	0.465381	-0.047632
O8	O	0.417627	0.681450	0.047645
O9	O	0.849781	0.465380	-0.168425
O10	O	0.562595	0.669362	-0.035551
O11	O	0.562585	0.598267	0.035564
O12	O	0.704814	0.598255	-0.106658
O13	O	0.704804	0.527160	-0.035543
Zr14	Zr	0.633678	0.709818	0.075995
Zr15	Zr	0.633704	0.709790	-0.075980
Zr16	Zr	0.633681	0.557853	0.075998
Zr17	Zr	0.785659	0.557841	-0.075972
Zr18	Zr	0.481726	0.709802	0.075990
O19	O	0.754465	0.681484	0.047657
O20	O	0.754502	0.681444	-0.168433
O21	O	0.754470	0.465410	0.047661
O22	O	0.512878	0.802273	0.168446
O23	O	0.512915	0.802233	-0.047644
O24	O	0.512883	0.586199	0.168450
O25	O	0.633697	0.802246	-0.047639
O26	O	0.633663	0.681494	0.168453
O27	O	0.633665	0.586211	0.168455
O28	O	0.633680	0.802263	0.047650
O29	O	0.849779	0.586172	-0.168427
O30	O	0.417606	0.681472	0.168445
O31	O	0.417604	0.802263	0.168443
O32	O	0.417624	0.802241	0.047642
O33	O	0.849761	0.465402	-0.047624
O34	O	0.849758	0.586194	-0.047627
O35	O	0.562571	0.669388	0.106676
O36	O	0.562581	0.740483	0.035561
O37	O	0.704800	0.669376	-0.035546
O38	O	0.704790	0.598281	0.035569
C39	C	0.443623	0.633803	0.000002
C40	C	0.379116	0.633796	-0.000000
C41	C	0.633697	0.443738	0.000013
C42	C	0.633699	0.379225	0.000014
C43	C	0.296320	0.686298	0.052490
C44	C	0.235699	0.686303	0.052497
C45	C	0.257877	0.633811	0.000002
C46	C	0.340687	0.581300	-0.052492
C47	C	0.401306	0.581292	-0.052493
N48	N	0.201778	0.617921	-0.062249
N49	N	0.144189	0.617933	-0.062245
C50	C	0.075238	0.633830	0.000004
N51	N	0.066044	0.649729	0.062252
N52	N	0.123637	0.649721	0.062248
C53	C	0.192152	0.633813	-0.000002
C54	C	-0.073294	0.686340	0.052505
C55	C	-0.133914	0.686340	0.052512
C56	C	-0.028923	0.581340	-0.052482
C57	C	0.031695	0.581337	-0.052484
C58	C	0.009504	0.633841	0.000009
C59	C	0.633713	0.348912	-0.052485
C60	C	0.633706	0.288300	-0.052485
C61	C	0.633700	0.257994	0.000009
C62	C	0.633681	0.288316	0.052518
C63	C	0.633680	0.348932	0.052520
N64	N	0.680051	0.139650	0.015903
N65	N	0.680053	0.082067	0.015896
C66	C	0.633701	0.075365	0.000006
N67	N	0.587356	0.128416	-0.015892
N68	N	0.587357	0.186002	-0.015888
C69	C	0.633700	0.192268	0.000013
C70	C	0.633706	-0.020670	-0.052496
C71	C	0.633694	-0.081280	-0.052492
C72	C	0.633677	-0.081267	0.052508
C73	C	0.633681	-0.020653	0.052506
C74	C	0.633700	0.009640	0.000000
C75	C	0.823762	0.633841	0.000016
C76	C	0.888269	0.633847	0.000018
C77	C	0.633725	0.633787	-0.190089
C78	C	0.633736	0.633775	-0.254607
C79	C	0.633688	0.823906	0.000005
C80	C	0.633686	0.888419	0.000004
C81	C	0.633736	0.686269	-0.284901
C82	C	0.633719	0.686285	-0.345509
C83	C	0.633719	0.633796	-0.375828
C84	C	0.633714	0.581298	-0.345523
C85	C	0.633722	0.581288	-0.284913
N86	N	0.680063	0.571563	-0.494183
N87	N	0.680056	0.571576	-0.551762
C88	C	0.633692	0.633825	-0.558443
N89	N	0.587344	0.696066	-0.505376
N90	N	0.587354	0.696053	-0.447794
C91	C	0.633709	0.633802	-0.441550
C92	C	0.633673	0.686340	-0.654455
C93	C	0.633651	0.686357	-0.715062
C94	C	0.633654	0.581364	-0.715079
C95	C	0.633668	0.581353	-0.654470
C96	C	0.633681	0.633841	-0.624163
C97	C	0.633660	0.633856	0.190107
C98	C	0.633649	0.633868	0.254624
C99	C	0.443619	0.823887	-0.000002
C100	C	0.379110	0.888393	-0.000005
C101	C	0.443591	0.633837	0.190100
C102	C	0.379073	0.633843	0.254615
C103	C	0.443587	0.823921	0.190096
C104	C	0.379067	0.888440	0.254610
C105	C	0.823798	0.443722	-0.190078
C106	C	0.888318	0.379204	-0.254592
C107	C	0.823766	0.443757	0.000020
C108	C	0.888275	0.379250	0.000023
C109	C	0.823794	0.633806	-0.190082
C110	C	0.888312	0.633801	-0.254598
C111	C	0.348823	0.881562	-0.037133
C112	C	0.288218	0.942166	-0.037151
C113	C	0.257897	1.009602	-0.000036
C114	C	0.288190	1.016432	0.037093
C115	C	0.348798	0.955828	0.037106
C116	C	0.348767	0.670969	0.322039
C117	C	0.288153	0.670972	0.382663
C118	C	0.257842	0.633851	0.375863
C119	C	0.288154	0.596719	0.308433
C120	C	0.348771	0.596713	0.247810
C121	C	0.348773	0.955855	0.247785
C122	C	0.288158	1.016483	0.308397
C123	C	0.257833	1.009693	0.375833
C124	C	0.288133	0.942270	0.382656
C125	C	0.348751	0.881644	0.322045
C126	C	0.918620	0.311788	-0.247767
C127	C	0.979254	0.251161	-0.308379
C128	C	1.009581	0.257951	-0.375815
C129	C	0.979277	0.325373	-0.382639
C130	C	0.918648	0.385999	-0.322027
C131	C	0.918569	0.386082	0.037145
C132	C	0.979190	0.325477	0.037146
C133	C	1.009513	0.258041	0.000029
C134	C	0.979217	0.251211	-0.037097
C135	C	0.918601	0.311815	-0.037102
C136	C	0.918604	0.670929	-0.247775
C137	C	0.979218	0.670938	-0.308388
C138	C	1.009543	0.633814	-0.375823
C139	C	0.979246	0.596685	-0.382644
C140	C	0.918629	0.596680	-0.322032
H141	H	0.278245	0.729050	0.095235
H142	H	0.633674	0.004026	0.095253
H143	H	0.263561	0.936591	-0.067385
H144	H	0.633667	-0.105939	0.095252
C145	C	1.012639	0.332830	-0.456825
N146	N	1.037763	0.338445	-0.512704
H147	H	1.003847	0.331052	0.067381
H148	H	0.168274	0.729057	0.095242
H149	H	0.208485	0.633861	0.425233
C150	C	0.633676	0.744083	-0.621111
N151	N	0.633676	0.787576	-0.595996
H152	H	0.263494	1.071346	0.067310
H153	H	0.263466	0.566496	0.302907
H154	H	0.893978	0.440891	-0.327593
H155	H	0.358742	0.538560	-0.095233
C156	C	0.492389	0.523537	-0.110243
N157	N	0.560994	0.480037	-0.153742
H158	H	-0.091363	0.729089	0.095251
H159	H	0.633718	0.263615	-0.095237
H160	H	0.373438	0.566482	0.192913
H161	H	0.373454	0.961397	0.192881
H162	H	0.263494	1.071376	0.302829
H163	H	0.208474	1.059064	0.425181
C164	C	0.382169	0.807388	-0.077970
N165	N	0.407285	0.751521	-0.108734
C166	C	0.633654	0.254989	0.110271
N167	N	0.633625	0.229891	0.153777
H168	H	0.633744	0.729009	-0.260226
C169	C	0.633731	0.744028	-0.378846
N170	N	0.633746	0.787518	-0.403956
H171	H	1.003916	0.196297	-0.067317
C172	C	-0.224997	0.744107	0.110251
N173	N	-0.293601	0.787622	0.153737
H174	H	0.893884	0.440986	0.067374
C175	C	-0.004522	0.523597	-0.110226
N176	N	0.013856	0.480103	-0.153720
H177	H	0.263434	0.936752	0.437571
H178	H	1.058948	0.208579	-0.425163
H179	H	0.373409	0.826754	0.327612
H180	H	0.633668	0.373613	0.095272
C181	C	1.076190	0.191382	0.000045
N182	N	1.126408	0.141176	0.000062
H183	H	0.099113	0.538588	-0.095230
C184	C	0.382099	0.963355	0.077960
N185	N	0.407178	0.969030	0.108734
H186	H	0.893922	0.701160	-0.192871
C187	C	0.885276	0.304302	-0.173593
N188	N	0.860170	0.298657	-0.117727
H189	H	0.373439	0.701198	0.327589
H190	H	0.633726	0.373577	-0.095236
C191	C	1.012538	0.711781	-0.300869
N192	N	1.037634	0.742543	-0.295203
C193	C	0.633693	-0.114616	-0.110239
N194	N	0.633689	-0.139722	-0.153734
H195	H	0.633718	0.003998	-0.095248
C196	C	0.633708	0.523563	-0.378873
N197	N	0.633700	0.480077	-0.403989
H198	H	0.633722	0.538540	-0.260246
C199	C	0.633630	0.744117	-0.748375
N200	N	0.633609	0.787627	-0.773465
C201	C	0.633655	0.523625	-0.748427
N202	N	0.633655	0.480135	-0.773547
H203	H	1.003917	0.196268	-0.302810
H204	H	0.633672	0.538606	-0.629804
C205	C	1.076226	0.633825	-0.442492
N206	N	1.126452	0.633834	-0.492705
H207	H	0.208545	1.058944	-0.000052
C208	C	0.254814	0.711829	0.456830
N209	N	0.229702	0.742605	0.512690
H210	H	0.893938	0.306243	-0.067328
C211	C	1.012584	0.555880	-0.456830
N212	N	1.037688	0.525155	-0.512708
C213	C	0.885326	0.555823	-0.329549
N214	N	0.860247	0.525045	-0.335216
