data_functionalizedCrystal
_audit_creation_method	'MofGen! by Chris Wilmer'
_symmetry_space_group_name_H-M	'P1'
_symmetry_Int_Tables_number	1
_symmetry_cell_setting	triclinic
loop_
_symmetry_equiv_pos_as_xyz
  x,y,z
_cell_length_a	10.268362
_cell_length_b	10.654559
_cell_length_c	10.654550
_cell_angle_alpha	95.513215
_cell_angle_beta	90.000675
_cell_angle_gamma	89.995498
loop_
_atom_site_label
_atom_site_type_symbol
_atom_site_fract_x
_atom_site_fract_y
_atom_site_fract_z
O1	O	-0.108283	1.667836	-0.176446
O2	O	-0.108289	1.302359	-0.193240
O3	O	-0.108278	1.493501	-0.002104
O4	O	-0.108294	1.476695	-0.367582
O5	O	0.108323	1.493481	-0.002113
O6	O	0.108312	1.302339	-0.193249
O7	O	0.108318	1.667816	-0.176454
Cu8	Cu	0.128092	1.485076	-0.184852
Cu9	Cu	-0.128063	1.485100	-0.184842
O10	O	0.108306	1.476675	-0.367591
C11	C	0.000011	1.255551	-0.192009
C12	C	0.000008	1.116109	-0.188312
N13	N	0.308258	1.485068	-0.184859
C14	C	0.426100	1.485076	-0.184861
C15	C	0.573938	1.485091	-0.184851
C16	C	0.000022	1.492257	0.044690
C17	C	0.000020	1.488565	0.184133
N18	N	0.691771	1.485109	-0.184835
C19	C	0.000015	1.714624	-0.177686
C20	C	0.000009	1.854067	-0.181382
C21	C	-0.118061	1.919581	-0.183115
C22	C	-0.118062	2.050604	-0.186575
C23	C	0.118088	2.050585	-0.186576
C24	C	0.118087	1.919566	-0.183107
C25	C	0.000004	1.477919	-0.414384
C26	C	-0.000003	1.481611	-0.553828
C27	C	0.000021	1.601106	0.263615
C28	C	0.000006	1.597629	0.394636
C29	C	-0.000008	1.369061	0.366680
C30	C	-0.000001	1.372539	0.235662
H31	H	-0.214208	1.866256	-0.181709
C32	C	-0.247943	2.122668	-0.188483
C33	C	-0.280423	2.226042	-0.081996
C34	C	-0.410311	2.298104	-0.083900
C35	C	-0.507719	2.266793	-0.192290
C36	C	-0.475241	2.163414	-0.298784
C37	C	-0.345353	2.091352	-0.296880
H38	H	-0.208314	2.249225	-0.001753
H39	H	-0.434352	2.374632	-0.005065
H40	H	-0.603869	2.320138	-0.193699
H41	H	-0.547350	2.140231	-0.379028
H42	H	-0.321312	2.014824	-0.375715
C43	C	0.247975	1.847492	-0.181200
C44	C	0.345386	1.852180	-0.290541
C45	C	0.475266	1.780106	-0.288627
C46	C	0.507736	1.703345	-0.177372
C47	C	0.410322	1.698653	-0.068023
C48	C	0.280442	1.770727	-0.069937
H49	H	0.321352	1.909006	-0.372905
H50	H	0.547378	1.783580	-0.369575
H51	H	0.603881	1.649991	-0.175956
H52	H	0.434356	1.641827	0.014342
H53	H	0.208330	1.767254	0.011011
C54	C	0.000031	1.728730	0.206931
C55	C	0.112504	1.822526	0.236486
C56	C	0.112510	1.950154	0.179806
C57	C	0.000042	1.983986	0.093570
C58	C	-0.112439	1.890189	0.064010
C59	C	-0.112445	1.762561	0.120690
H60	H	0.195767	1.797483	0.300327
H61	H	0.195777	2.019589	0.201689
H62	H	0.000046	2.078464	0.051612
H63	H	-0.195702	1.915232	0.000170
H64	H	-0.195712	1.693126	0.098808
C65	C	0.000012	1.721428	0.482065
C66	C	0.112498	1.816168	0.475590
C67	C	0.112502	1.939973	0.563019
C68	C	0.000020	1.969037	0.656923
C69	C	-0.112475	1.874294	0.663402
C70	C	-0.112479	1.750490	0.575973
H71	H	0.195772	1.794655	0.406073
H72	H	0.195779	2.010108	0.558222
H73	H	0.000023	2.060685	0.721643
H74	H	-0.195749	1.895807	0.732918
H75	H	-0.195756	1.680355	0.580769
H76	H	-0.000023	1.274596	0.408651
H77	H	0.214223	2.103931	-0.187983
H78	H	-0.000006	1.280888	0.170944
