data_functionalizedCrystal
_audit_creation_method	'MofGen! by Chris Wilmer'
_symmetry_space_group_name_H-M	'P1'
_symmetry_Int_Tables_number	1
_symmetry_cell_setting	triclinic
loop_
_symmetry_equiv_pos_as_xyz
  x,y,z
_cell_length_a	14.971486
_cell_length_b	14.971486
_cell_length_c	13.448316
_cell_angle_alpha	90.006811
_cell_angle_beta	90.001801
_cell_angle_gamma	83.614129
loop_
_atom_site_label
_atom_site_type_symbol
_atom_site_fract_x
_atom_site_fract_y
_atom_site_fract_z
O1	O	-1.186947	-0.116565	-0.082578
O2	O	-0.926547	-0.130524	-0.082605
O3	O	-1.063727	0.006656	-0.082584
O4	O	-1.049768	-0.253744	-0.082599
O5	O	-1.063709	0.006664	0.082800
O6	O	-0.926530	-0.130515	0.082779
O7	O	-1.186930	-0.116556	0.082806
Cu8	Cu	-1.056728	-0.123535	0.097893
Cu9	Cu	-1.056749	-0.123545	-0.097692
O10	O	-1.049751	-0.253736	0.082784
C11	C	-0.893214	-0.129895	0.000083
C12	C	-0.793917	-0.128024	0.000073
C13	C	-1.063094	0.039985	0.000108
C14	C	-1.061223	0.139282	0.000107
C15	C	-1.220263	-0.117185	0.000115
C16	C	-1.319561	-0.119056	0.000119
N17	N	-1.056721	-0.123527	0.235457
C18	C	-0.736692	-0.208614	0.000070
C19	C	-0.643392	-0.206850	0.000085
C20	C	-0.607320	-0.124497	0.000096
C21	C	-0.664552	-0.043902	0.000102
C22	C	-0.757850	-0.045666	0.000095
C23	C	-0.470090	-0.040231	0.000116
C24	C	-0.376786	-0.038466	0.000122
C25	C	-0.355632	-0.201415	0.000106
C26	C	-0.448930	-0.203179	0.000099
C27	C	-0.506156	-0.122584	0.000103
C28	C	-1.050384	-0.287065	0.000091
C29	C	-1.052254	-0.386362	0.000085
C30	C	-1.141812	0.196507	0.000116
C31	C	-1.140049	0.289807	0.000106
C32	C	-1.057696	0.325879	0.000093
C33	C	-0.977101	0.268646	0.000081
C34	C	-0.978865	0.175349	0.000084
C35	C	-0.973430	0.463109	0.000077
C36	C	-0.971665	0.556413	0.000076
C37	C	-1.134614	0.577567	0.000099
C38	C	-1.136378	0.484269	0.000102
C39	C	-1.055782	0.427043	0.000091
N40	N	-1.056764	-0.123545	-0.235257
C41	C	-1.117483	-0.062809	0.287507
C42	C	-1.117488	-0.062809	0.391610
C43	C	-1.056735	-0.123531	0.443662
C44	C	-0.995967	-0.184252	0.391605
C45	C	-0.995958	-0.184248	0.287504
C46	C	-0.995992	-0.184258	0.608585
C47	C	-0.996002	-0.184264	0.712693
C48	C	-1.117522	-0.062819	0.712692
C49	C	-1.117513	-0.062815	0.608591
C50	C	-1.056745	-0.123537	0.556541
H51	H	-0.596802	-0.272474	0.000081
H52	H	-0.766054	-0.275675	0.000060
C53	C	-0.487923	-0.292681	0.000135
C54	C	-0.417840	-0.362887	0.000161
C55	C	-0.453727	-0.445348	0.000211
H56	H	-0.523864	-0.296884	-0.057525
H57	H	-0.523856	-0.296799	0.057829
H58	H	-0.381923	-0.358771	-0.057527
H59	H	-0.381893	-0.358714	0.057817
H60	H	-0.489659	-0.449466	0.057904
H61	H	-0.489668	-0.449542	-0.057450
H62	H	-0.406182	-0.492992	0.000237
H63	H	-1.167001	-0.013377	0.755077
H64	H	-0.946530	-0.233709	0.755069
H65	H	-0.347419	0.028593	0.000133
C66	C	-0.929979	-0.250288	0.552251
C67	C	-0.876794	-0.303486	0.620114
C68	C	-0.815987	-0.364332	0.568256
H69	H	-0.892624	-0.218156	0.511647
H70	H	-0.962169	-0.287622	0.511653
H71	H	-0.844606	-0.266157	0.660696
H72	H	-0.914124	-0.335638	0.660720
H73	H	-0.848178	-0.401666	0.527657
H74	H	-0.778639	-0.332193	0.527654
H75	H	-0.779900	-0.400440	0.614293
H76	H	-1.166987	-0.013374	0.566210
H77	H	-0.907800	0.416517	0.000066
H78	H	-1.208874	0.167145	0.000132
H79	H	-0.913240	0.128756	0.000077
C80	C	-1.183505	0.002965	0.448255
C81	C	-1.238285	-0.044783	0.508024
C82	C	-1.299104	0.015779	0.560231
H83	H	-1.219780	0.039154	0.402466
H84	H	-1.151322	0.040241	0.488934
H85	H	-1.270466	-0.082044	0.467349
H86	H	-1.202036	-0.080969	0.553832
H87	H	-1.266921	0.053055	0.600910
H88	H	-1.335372	0.051964	0.514434
H89	H	-1.336274	-0.016610	0.600797
H90	H	-1.203437	0.454903	0.000119
H91	H	-0.946496	-0.233690	0.433991
H92	H	-1.200238	0.624165	0.000104
H93	H	-0.946478	-0.233689	0.245125
H94	H	-0.309033	-0.267039	0.000107
H95	H	-0.516682	0.025399	0.000121
H96	H	-1.205673	0.336396	0.000115
H97	H	-0.635175	0.023152	0.000126
C98	C	-0.887752	0.307932	-0.000087
C99	C	-0.881999	0.360887	-0.085160
C100	C	-0.799708	0.397099	-0.085339
H101	H	-0.839929	0.260580	-0.000145
H102	H	-0.883663	0.343943	0.057556
H103	H	-0.886079	0.324878	-0.142789
H104	H	-0.929802	0.408254	-0.085121
H105	H	-0.795619	0.433111	-0.027696
H106	H	-0.751892	0.349742	-0.085394
H107	H	-0.795797	0.433040	-0.143056
C108	C	-0.882230	0.595534	-0.000157
C109	C	-0.833536	0.566474	-0.085272
C110	C	-0.751151	0.602505	-0.085530
H111	H	-0.848915	0.575933	0.057438
H112	H	-0.892693	0.659298	-0.000209
H113	H	-0.823071	0.502723	-0.085210
H114	H	-0.866824	0.586074	-0.142880
H115	H	-0.761614	0.666269	-0.085582
H116	H	-0.717845	0.582902	-0.027932
H117	H	-0.718106	0.582800	-0.143284
H118	H	-1.166958	-0.013366	0.245134
H119	H	-0.804443	0.019958	0.000097
