data_functionalizedCrystal
_audit_creation_method	'MofGen! by Chris Wilmer'
_symmetry_space_group_name_H-M	'P1'
_symmetry_Int_Tables_number	1
_symmetry_cell_setting	triclinic
loop_
_symmetry_equiv_pos_as_xyz
  x,y,z
_cell_length_a	12.759401
_cell_length_b	12.645330
_cell_length_c	12.759393
_cell_angle_alpha	89.971026
_cell_angle_beta	89.979062
_cell_angle_gamma	90.019217
loop_
_atom_site_label
_atom_site_type_symbol
_atom_site_fract_x
_atom_site_fract_y
_atom_site_fract_z
Zn1	Zn	1.606245	-0.421945	-0.594031
Zn2	Zn	1.606126	-0.599246	-0.418356
Zn3	Zn	1.430543	-0.422001	-0.418366
Zn4	Zn	1.430526	-0.599172	-0.593993
O5	O	1.518360	-0.510591	-0.506187
O6	O	1.753250	-0.445472	-0.570739
O7	O	1.582793	-0.575788	-0.271336
O8	O	1.453907	-0.273647	-0.441689
O9	O	1.753163	-0.575734	-0.441671
O10	O	1.582994	-0.273605	-0.570749
O11	O	1.453793	-0.445568	-0.271344
O12	O	1.283520	-0.445496	-0.441652
O13	O	1.453878	-0.575607	-0.741019
O14	O	1.283507	-0.575662	-0.570684
O15	O	1.582977	-0.445400	-0.741047
O16	O	1.582776	-0.747583	-0.441634
O17	O	1.453763	-0.747529	-0.570674
C18	C	1.245393	-0.510578	-0.506166
C19	C	1.128616	-0.510598	-0.506182
C20	C	1.518283	-0.786021	-0.506172
C21	C	1.518347	-0.903851	-0.506201
C22	C	1.073775	-0.578479	-0.573263
C23	C	0.964051	-0.578483	-0.573284
C24	C	0.964019	-0.442722	-0.439133
C25	C	1.073741	-0.442714	-0.439118
C26	C	0.814153	-0.616521	-0.697146
C27	C	0.759308	-0.684418	-0.764218
C28	C	0.794901	-0.787874	-0.780168
C29	C	0.885336	-0.823454	-0.729031
C30	C	0.940175	-0.755562	-0.661951
C31	C	0.904584	-0.652092	-0.646021
C32	C	1.223641	-0.404686	-0.315255
C33	C	1.278482	-0.336799	-0.248169
C34	C	1.242892	-0.233342	-0.232208
C35	C	1.152453	-0.197766	-0.283327
C36	C	1.097612	-0.265653	-0.350413
C37	C	1.133209	-0.369109	-0.366376
C38	C	1.437519	-1.071424	-0.587630
C39	C	1.437106	-0.948865	-0.587368
C40	C	1.488371	-0.948453	-0.395479
C41	C	1.487878	-1.071052	-0.395973
C42	C	1.629644	-1.070935	-0.534596
C43	C	1.628962	-0.948328	-0.537017
C44	C	1.792393	-0.510605	-0.506208
C45	C	1.909170	-0.510610	-0.506217
C46	C	1.518439	-0.510489	-0.780220
C47	C	1.518472	-0.510446	-0.896997
C48	C	1.518466	-0.234086	-0.506224
C49	C	1.518511	-0.116255	-0.506241
C50	C	1.585699	-0.442636	-0.951875
C51	C	1.585717	-0.442590	-1.061599
C52	C	1.451278	-0.578173	-1.061557
C53	C	1.451255	-0.578213	-0.951835
C54	C	1.623336	-0.317515	-1.211574
C55	C	1.690579	-0.249715	-1.266456
C56	C	1.793093	-0.233459	-1.230864
C57	C	1.828384	-0.285019	-1.140392
C58	C	1.761146	-0.352827	-1.085516
C59	C	1.658618	-0.369063	-1.121106
C60	C	1.413648	-0.703289	-0.801858
C61	C	1.346414	-0.771104	-0.746980
C62	C	1.243899	-0.787370	-0.782570
C63	C	1.208612	-0.735829	-0.873045
C64	C	1.275845	-0.668014	-0.927924
C65	C	1.378359	-0.651746	-0.892326
C66	C	1.518342	-0.510616	-0.233219
C67	C	1.518512	-0.510360	-0.116443
H68	H	1.118451	-0.633752	-0.627873
Br69	Br	1.152663	-0.879432	-0.708108
Br70	Br	1.227956	-0.598063	-1.050714
Br71	Br	1.299783	-0.900134	-0.556067
Br72	Br	0.974864	-0.217375	-0.419781
Br73	Br	1.666644	-0.899736	-0.672834
Br74	Br	1.468362	-0.898589	-0.724207
Br75	Br	1.581919	-1.120494	-0.291448
H76	H	1.125136	-0.749078	-0.902026
H77	H	1.375158	-0.813081	-0.673317
Br78	Br	1.734842	-0.897237	-0.445417
H79	H	1.406639	-1.099747	-0.371952
Br80	Br	1.730221	-1.119275	-0.435811
H81	H	1.640429	-0.387452	-0.907229
H82	H	1.497122	-0.690042	-0.772867
Br83	Br	1.104136	-0.057360	-0.261655
Br84	Br	1.583573	-0.899866	-0.291638
H85	H	1.252634	-0.488927	-0.328255
H86	H	1.789881	-0.394811	-1.011858
Br87	Br	1.317308	-0.141216	-0.141143
Br88	Br	1.468483	-1.120437	-0.724924
Br89	Br	1.301060	-1.122960	-0.556749
Br90	Br	1.401208	-0.385089	-0.178773
H91	H	1.407979	-0.917846	-0.371023
H92	H	1.847843	-0.178253	-1.275557
Br93	Br	1.062898	-0.803838	-0.592550
H94	H	0.785172	-0.532276	-0.684175
H95	H	1.656988	-1.101772	-0.613962
H96	H	0.914302	-0.907702	-0.742015
H97	H	0.685676	-0.655439	-0.805854
Br98	Br	0.720470	-0.880016	-0.871200
H99	H	1.911865	-0.271785	-1.111426
H100	H	0.919326	-0.387455	-0.384531
H101	H	1.661836	-0.207734	-1.340119
Br102	Br	1.484197	-0.339555	-1.259872
H103	H	1.396554	-0.633349	-1.106220
