data_functionalizedCrystal
_audit_creation_method	'MofGen! by Chris Wilmer'
_symmetry_space_group_name_H-M	'P1'
_symmetry_Int_Tables_number	1
_symmetry_cell_setting	triclinic
loop_
_symmetry_equiv_pos_as_xyz
  x,y,z
_cell_length_a	19.121321
_cell_length_b	29.839131
_cell_length_c	19.120904
_cell_angle_alpha	92.409150
_cell_angle_beta	94.963752
_cell_angle_gamma	87.606090
loop_
_atom_site_label
_atom_site_type_symbol
_atom_site_fract_x
_atom_site_fract_y
_atom_site_fract_z
Zn1	Zn	1.058552	-0.217304	-0.351905
Zn2	Zn	1.558552	0.282696	0.148095
Zn3	Zn	1.063457	-0.289355	-0.234242
Zn4	Zn	1.563457	0.210645	0.265758
Zn5	Zn	0.945919	-0.211175	-0.239280
Zn6	Zn	1.445919	0.288825	0.260720
Zn7	Zn	0.940828	-0.289336	-0.356886
Zn8	Zn	1.440828	0.210664	0.143114
O9	O	1.002189	-0.251792	-0.295578
O10	O	1.502189	0.248208	0.204422
O11	O	1.157661	-0.229434	-0.332104
O12	O	1.657661	0.270566	0.167896
O13	O	1.052049	-0.276426	-0.136450
O14	O	1.552049	0.223574	0.363550
O15	O	0.960938	-0.149123	-0.254244
O16	O	1.460938	0.350877	0.245756
O17	O	1.161265	-0.282370	-0.245658
O18	O	1.661265	0.217630	0.254342
O19	O	1.043689	-0.153626	-0.336989
O20	O	1.543689	0.346374	0.163011
O21	O	0.965694	-0.218988	-0.140151
O22	O	1.465694	0.281012	0.359849
O23	O	0.846786	-0.218970	-0.259074
O24	O	1.346786	0.281030	0.240926
O25	O	0.952261	-0.282339	-0.454686
O26	O	1.452261	0.217661	0.045314
O27	O	0.843046	-0.276395	-0.345478
O28	O	1.343046	0.223605	0.154522
O29	O	1.038752	-0.229417	-0.451027
O30	O	1.538752	0.270583	0.048973
O31	O	1.047113	-0.352217	-0.250488
O32	O	1.547113	0.147783	0.249512
O33	O	0.957018	-0.352203	-0.340593
O34	O	1.457018	0.147797	0.159407
C35	C	0.819387	-0.247016	-0.303363
C36	C	1.319387	0.252984	0.196637
C37	C	0.741182	-0.244984	-0.306711
C38	C	1.241182	0.255016	0.193289
C39	C	1.002064	-0.368511	-0.295549
C40	C	1.502064	0.131489	0.204451
C41	C	1.002073	-0.418446	-0.295557
C42	C	1.502073	0.081554	0.204443
C43	C	0.298778	-0.232076	-0.327936
C44	C	0.798778	0.267924	0.172064
C45	C	0.372260	-0.233994	-0.324787
C46	C	0.872260	0.266006	0.175213
C47	C	0.410871	-0.262464	-0.278131
C48	C	0.910871	0.237536	0.221869
C49	C	0.375997	-0.289022	-0.234627
C50	C	0.875997	0.210978	0.265373
C51	C	0.302517	-0.287106	-0.237780
C52	C	0.802517	0.212894	0.262220
C53	C	0.632828	-0.269626	-0.266359
C54	C	1.132828	0.230374	0.233641
C55	C	0.706313	-0.271539	-0.263208
C56	C	1.206313	0.228461	0.236792
C57	C	0.702571	-0.216511	-0.353369
C58	C	1.202571	0.283489	0.146631
C59	C	0.629090	-0.214596	-0.356515
C60	C	1.129090	0.285404	0.143485
C61	C	0.594222	-0.241156	-0.313013
C62	C	1.094222	0.258844	0.186987
C63	C	0.485981	-0.264424	-0.274910
C64	C	0.985981	0.235576	0.225090
C65	C	0.519113	-0.239198	-0.316239
C66	C	1.019113	0.260802	0.183761
C67	C	1.049181	-0.728091	-0.248723
C68	C	1.549181	-0.228091	0.251277
C69	C	1.049266	-0.915767	-0.248746
C70	C	1.549266	-0.415767	0.251254
O71	O	1.089219	-0.940030	-0.208903
O72	O	1.589219	-0.440030	0.291097
N73	N	1.002333	-0.939240	-0.295625
N74	N	1.502333	-0.439240	0.204375
C75	C	0.955378	-0.915791	-0.342505
C76	C	1.455378	-0.415791	0.157495
O77	O	0.915465	-0.940062	-0.382384
O78	O	1.415465	-0.440062	0.117616
C79	C	0.955296	-0.728116	-0.342484
C80	C	1.455296	-0.228116	0.157516
C81	C	1.002228	-0.704645	-0.295597
C82	C	1.502228	-0.204645	0.204403
C83	C	1.096109	-0.704620	-0.201840
C84	C	1.596109	-0.204620	0.298160
C85	C	1.096085	-0.657704	-0.201832
C86	C	1.596085	-0.157704	0.298168
C87	C	1.049132	-0.634258	-0.248707
C88	C	1.549132	-0.134258	0.251293
C89	C	1.002203	-0.657729	-0.295589
C90	C	1.502203	-0.157729	0.204411
C91	C	0.908345	-0.704668	-0.389367
C92	C	1.408345	-0.204668	0.110633
C93	C	0.908330	-0.657746	-0.389358
C94	C	1.408330	-0.157746	0.110642
C95	C	0.955261	-0.634275	-0.342472
C96	C	1.455261	-0.134275	0.157528
C97	C	0.955226	-0.587367	-0.342456
C98	C	1.455226	-0.087367	0.157544
N99	N	1.002159	-0.563894	-0.295577
N100	N	1.502159	-0.063894	0.204423
C101	C	1.049112	-0.587340	-0.248702
C102	C	1.549112	-0.087340	0.251298
C103	C	0.955423	-1.014323	-0.342512
C104	C	1.455423	-0.514323	0.157488
C105	C	0.955442	-1.061241	-0.342516
C106	C	1.455442	-0.561241	0.157484
C107	C	1.049332	-1.061214	-0.248758
C108	C	1.549332	-0.561214	0.251242
C109	C	1.049309	-1.014295	-0.248751
C110	C	1.549309	-0.514295	0.251249
C111	C	1.002357	-0.990850	-0.295632
C112	C	1.502357	-0.490850	0.204368
C113	C	1.049057	-0.488812	-0.248688
C114	C	1.549057	0.011188	0.251312
C115	C	1.049026	-0.441892	-0.248683
C116	C	1.549026	0.058108	0.251317
C117	C	0.955139	-0.441923	-0.342443
C118	C	1.455139	0.058077	0.157557
C119	C	0.955167	-0.488839	-0.342446
C120	C	1.455167	0.011161	0.157554
C121	C	1.002132	-0.512283	-0.295567
C122	C	1.502132	-0.012283	0.204433
O123	O	0.915299	-0.563075	-0.382283
O124	O	1.415299	-0.063075	0.117717
O125	O	1.089030	-0.563061	-0.208840
O126	O	1.589030	-0.063061	0.291160
C127	C	1.049205	-0.775007	-0.248731
C128	C	1.549205	-0.275007	0.251269
C129	C	1.002277	-0.798478	-0.295613
C130	C	1.502277	-0.298478	0.204387
C131	C	0.955324	-0.775032	-0.342488
C132	C	1.455324	-0.275032	0.157512
C133	C	1.002296	-0.845396	-0.295618
C134	C	1.502296	-0.345396	0.204382
C135	C	1.049249	-0.868842	-0.248743
C136	C	1.549249	-0.368842	0.251257
C137	C	1.096183	-0.845369	-0.201864
C138	C	1.596183	-0.345369	0.298136
C139	C	1.096158	-0.798453	-0.201856
C140	C	1.596158	-0.298453	0.298144
C141	C	0.908390	-0.798505	-0.389367
C142	C	1.408390	-0.298505	0.110633
C143	C	0.908418	-0.845421	-0.389371
C144	C	1.408418	-0.345421	0.110629
C145	C	0.955371	-0.868867	-0.342496
C146	C	1.455371	-0.368867	0.157504
C147	C	1.185706	-0.256588	-0.287763
C148	C	1.685706	0.243412	0.212237
C149	C	1.263909	-0.258631	-0.284433
C150	C	1.763909	0.241369	0.215567
C151	C	0.994392	-0.256559	-0.479100
C152	C	1.494392	0.243441	0.020900
C153	C	0.991069	-0.258591	-0.557306
C154	C	1.491069	0.241409	-0.057306
C155	C	1.002334	-0.134619	-0.295623
C156	C	1.502334	0.365381	0.204377
C157	C	1.002395	-0.084687	-0.295641
C158	C	1.502395	0.415313	0.204359
C159	C	1.034537	-0.231993	-0.592143
C160	C	1.534537	0.268007	-0.092143
C161	C	1.031406	-0.233899	-0.665627
C162	C	1.531406	0.266101	-0.165627
C163	C	0.984811	-0.262407	-0.704271
C164	C	1.484811	0.237593	-0.204271
C165	C	0.941338	-0.289006	-0.669429
C166	C	1.441338	0.210994	-0.169429
C167	C	0.944466	-0.287096	-0.595947
C168	C	1.444466	0.212904	-0.095947
C169	C	0.973111	-0.269548	-0.926234
C170	C	1.473111	0.230452	-0.426234
C171	C	0.969988	-0.271456	-0.999720
C172	C	1.469988	0.228544	-0.499720
C173	C	1.060056	-0.216349	-0.995913
C174	C	1.560056	0.283651	-0.495913
C175	C	1.063182	-0.214444	-0.922430
C176	C	1.563182	0.285556	-0.422430
C177	C	1.019707	-0.241042	-0.887594
C178	C	1.519707	0.258958	-0.387594
C179	C	0.981611	-0.264357	-0.779383
C180	C	1.481611	0.235643	-0.279383
C181	C	1.022904	-0.239088	-0.812484
C182	C	1.522904	0.260912	-0.312484
C183	C	1.009997	-0.247013	-0.112769
C184	C	1.509997	0.252987	0.387231
C185	C	1.013456	-0.244858	-0.034558
C186	C	1.513456	0.255142	0.465442
H187	H	0.267346	-0.208890	-0.365923
H188	H	0.767346	0.291110	0.134077
H189	H	0.932042	-0.294672	-1.031183
H190	H	1.432042	0.205328	-0.531183
H191	H	0.730968	-0.194889	-0.388786
H192	H	1.230968	0.305111	0.111214
Br193	Br	0.538388	-0.303061	-0.211593
Br194	Br	1.038388	0.196939	0.288407
Br195	Br	1.097782	-0.193306	-0.539704
Br196	Br	1.597782	0.306694	-0.039704
Br197	Br	0.419579	-0.197958	-0.383834
Br198	Br	0.919579	0.302042	0.116166
H199	H	0.916909	-0.422826	-0.380606
H200	H	1.416909	0.077174	0.119394
H201	H	0.870096	-0.638660	-0.427538
H202	H	1.370096	-0.138660	0.072462
H203	H	0.870156	-0.779419	-0.427539
H204	H	1.370156	-0.279419	0.072461
H205	H	1.066804	-0.212241	-0.693988
H206	H	1.566804	0.287759	-0.193988
Br207	Br	1.126424	-0.175756	-0.869989
Br208	Br	1.626424	0.324244	-0.369989
H209	H	0.917187	-0.995237	-0.380689
H210	H	1.417187	-0.495237	0.119311
Br211	Br	1.086129	-0.200395	-0.760038
Br212	Br	1.586129	0.299605	-0.260038
H213	H	1.134302	-0.638597	-0.163655
H214	H	1.634302	-0.138597	0.336345
H215	H	0.943676	-0.287570	-0.810855
H216	H	1.443676	0.212430	-0.310855
H217	H	1.087563	-1.080312	-0.210591
H218	H	1.587563	-0.580312	0.289409
H219	H	0.903396	-0.312215	-0.700899
H220	H	1.403396	0.187785	-0.200899
Br221	Br	0.844717	-0.877268	-0.453007
Br222	Br	1.344717	-0.377268	0.046993
Br223	Br	1.119053	-0.180254	-1.043194
Br224	Br	1.619053	0.319746	-0.543194
H225	H	1.087301	-0.507895	-0.210516
H226	H	1.587301	-0.007895	0.289484
Br227	Br	0.914107	-0.305644	-0.878966
Br228	Br	1.414107	0.194356	-0.378966
H229	H	0.917220	-1.080346	-0.380690
H230	H	1.417220	-0.580346	0.119310
H231	H	0.737749	-0.294724	-0.225215
H232	H	1.237749	0.205276	0.274785
H233	H	0.597657	-0.191415	-0.394509
H234	H	1.097657	0.308585	0.105491
Br235	Br	0.428397	-0.327664	-0.171313
Br236	Br	0.928397	0.172336	0.328687
H237	H	1.134375	-0.779347	-0.163677
H238	H	1.634375	-0.279347	0.336323
Br239	Br	1.112722	-0.410041	-0.185045
Br240	Br	1.612722	0.089959	0.314955
Br241	Br	0.255193	-0.323152	-0.178747
Br242	Br	0.755193	0.176848	0.321253
Br243	Br	1.159841	-0.736431	-0.138217
Br244	Br	1.659841	-0.236431	0.361783
Br245	Br	0.885467	-0.323192	-0.548667
Br246	Br	1.385467	0.176808	-0.048667
H247	H	0.604447	-0.291252	-0.230935
H248	H	1.104447	0.208748	0.269065
H249	H	0.487672	-0.216019	-0.354228
H250	H	0.987672	0.283981	0.145772
H251	H	1.087525	-0.995188	-0.210572
H252	H	1.587525	-0.495188	0.289428
Br253	Br	0.844655	-0.736509	-0.453010
Br254	Br	1.344655	-0.236509	0.046990
Br255	Br	1.159901	-0.877198	-0.138246
Br256	Br	1.659901	-0.377198	0.361754
H257	H	0.916954	-0.507950	-0.380628
H258	H	1.416954	-0.007950	0.119372
