data_functionalizedCrystal
_audit_creation_method	'MofGen! by Chris Wilmer'
_symmetry_space_group_name_H-M	'P1'
_symmetry_Int_Tables_number	1
_symmetry_cell_setting	triclinic
loop_
_symmetry_equiv_pos_as_xyz
  x,y,z
_cell_length_a	11.026607
_cell_length_b	19.188930
_cell_length_c	9.482900
_cell_angle_alpha	99.297616
_cell_angle_beta	78.636152
_cell_angle_gamma	95.865399
loop_
_atom_site_label
_atom_site_type_symbol
_atom_site_fract_x
_atom_site_fract_y
_atom_site_fract_z
O1	O	1.627581	0.283622	-0.120957
O2	O	1.274451	0.250352	-0.120952
O3	O	1.461202	0.166632	-0.120926
O4	O	1.440830	0.367342	-0.120983
O5	O	1.423268	0.183725	0.120861
O6	O	1.236517	0.267445	0.120835
O7	O	1.589648	0.300715	0.120830
Cu8	Cu	1.409619	0.285641	0.142910
Cu9	Cu	1.454480	0.265426	-0.143032
O10	O	1.402896	0.384435	0.120804
C11	C	1.210306	0.252761	-0.000057
C12	C	1.075688	0.234464	-0.000054
C13	C	1.001617	0.284984	-0.000069
C14	C	0.862482	0.266075	-0.000066
C15	C	1.441575	0.149084	-0.000029
C16	C	1.439592	0.071328	-0.000016
C17	C	1.549173	0.040370	-0.000011
C18	C	1.547315	-0.032693	-0.000034
C19	C	1.435865	-0.074793	-0.000033
C20	C	1.326271	-0.043828	-0.000047
C21	C	1.328134	0.029233	-0.000038
N22	N	1.337766	-0.187838	0.082253
N23	N	1.336003	-0.257242	0.082248
C24	C	1.430246	-0.294921	-0.000063
N25	N	1.526334	-0.260572	-0.082349
N26	N	1.528099	-0.191161	-0.082338
C27	C	1.433833	-0.154016	-0.000044
C28	C	1.537820	-0.405101	-0.000085
C29	C	1.535959	-0.478166	-0.000117
C30	C	1.314910	-0.489299	-0.000115
C31	C	1.316776	-0.416236	-0.000098
C32	C	1.428234	-0.374141	-0.000075
C33	C	1.653793	0.298306	-0.000068
C34	C	1.788412	0.316602	-0.000081
C35	C	1.422524	0.401983	-0.000097
C36	C	1.424509	0.479738	-0.000119
N37	N	1.378075	0.299859	0.344025
N38	N	1.486034	0.251204	-0.344148
C39	C	1.445167	0.269615	0.416234
C40	C	1.418931	0.281452	0.583648
H41	H	0.822904	0.208818	-0.000087
H42	H	0.827994	0.373857	-0.000087
H43	H	1.636553	-0.057905	-0.000036
H44	H	1.041206	0.342235	-0.000077
H45	H	1.238897	0.054438	-0.000042
O46	O	1.028453	0.166155	-0.000295
C47	C	0.975770	0.143723	-0.125496
H48	H	1.019312	0.177739	-0.213030
H49	H	0.871516	0.149359	-0.097185
C50	C	0.946755	0.023877	-0.074749
C51	C	1.000242	0.065652	-0.182265
H52	H	0.961845	-0.024281	-0.109764
H53	H	0.982244	0.038990	0.009605
H54	H	0.859880	0.028582	-0.051166
H55	H	1.087117	0.060954	-0.205833
H56	H	0.964768	0.050537	-0.266624
H57	H	1.628576	-0.370826	-0.000073
H58	H	1.639931	0.074639	0.000002
O59	O	1.642515	-0.508123	-0.000049
C60	C	1.741287	-0.455301	-0.000061
H61	H	1.703028	-0.401622	0.045722
H62	H	1.793676	-0.454005	-0.116053
C63	C	1.877080	-0.537792	0.038533
C64	C	1.830091	-0.471864	0.094777
H65	H	1.931863	-0.548009	0.097027
H66	H	1.810538	-0.573380	0.038536
H67	H	1.920730	-0.536703	-0.058126
H68	H	1.786430	-0.472956	0.191426
H69	H	1.896629	-0.436276	0.094792
H70	H	1.224167	-0.523576	-0.000122
O71	O	1.218115	-0.084807	-0.000238
C72	C	1.230063	-0.136233	-0.125482
H73	H	1.332293	-0.145292	-0.167228
H74	H	1.190000	-0.117016	-0.213169
C75	C	1.033579	-0.195004	-0.036175
C76	C	1.159138	-0.206134	-0.087441
H77	H	0.989825	-0.238122	-0.012714
H78	H	1.025526	-0.160356	0.048202
H79	H	1.000210	-0.178988	-0.109256
H80	H	1.192509	-0.222141	-0.014354
H81	H	1.167195	-0.240787	-0.171806
H82	H	1.227542	-0.391030	-0.000094
H83	H	1.522028	0.234957	0.354116
H84	H	1.342057	0.316106	0.645762
H85	H	1.562899	0.216543	0.593739
H86	H	1.301206	0.334511	0.406145
