data_functionalizedCrystal
_audit_creation_method	'MofGen! by Chris Wilmer'
_symmetry_space_group_name_H-M	'P1'
_symmetry_Int_Tables_number	1
_symmetry_cell_setting	triclinic
loop_
_symmetry_equiv_pos_as_xyz
  x,y,z
_cell_length_a	27.732048
_cell_length_b	14.519709
_cell_length_c	13.596369
_cell_angle_alpha	89.999709
_cell_angle_beta	89.989067
_cell_angle_gamma	96.838600
loop_
_atom_site_label
_atom_site_type_symbol
_atom_site_fract_x
_atom_site_fract_y
_atom_site_fract_z
O1	O	0.063362	-1.222766	-0.081675
O2	O	0.563362	-0.722766	0.418325
O3	O	0.070824	-0.954159	-0.081706
O4	O	0.570824	-0.454159	0.418294
O5	O	-0.003264	-1.096805	-0.081671
O6	O	0.496736	-0.596805	0.418329
O7	O	0.137450	-1.080120	-0.081710
O8	O	0.637450	-0.580120	0.418290
O9	O	-0.003268	-1.096791	0.081912
O10	O	0.496732	-0.596791	0.581912
O11	O	0.070820	-0.954145	0.081877
O12	O	0.570820	-0.454145	0.581877
O13	O	0.063358	-1.222752	0.081908
O14	O	0.563358	-0.722752	0.581908
Zn15	Zn	0.067088	-1.088446	0.107865
Zn16	Zn	0.567088	-0.588446	0.607865
Zn17	Zn	0.067094	-1.088465	-0.107663
Zn18	Zn	0.567094	-0.588465	0.392337
O19	O	0.137446	-1.080106	0.081873
O20	O	0.637446	-0.580106	0.581873
C21	C	0.070474	-0.919799	0.000082
C22	C	0.570474	-0.419799	0.500082
C23	C	0.069432	-0.817435	0.000071
C24	C	0.569432	-0.317435	0.500071
C25	C	-0.021274	-1.096448	0.000124
C26	C	0.478726	-0.596448	0.500124
C27	C	-0.074934	-1.095393	0.000132
C28	C	0.425066	-0.595393	0.500132
C29	C	0.063708	-1.257113	0.000119
C30	C	0.563708	-0.757113	0.500119
C31	C	0.064750	-1.359476	0.000123
C32	C	0.564750	-0.859476	0.500123
C33	C	-0.413378	-1.173048	0.000090
C34	C	0.086622	-0.673048	0.500090
C35	C	-0.615057	-1.169135	0.000076
C36	C	-0.115057	-0.669135	0.500076
O37	O	-0.645973	-1.240145	0.000041
O38	O	-0.145973	-0.740145	0.500041
N39	N	-0.634585	-1.084552	0.000067
N40	N	-0.134585	-0.584552	0.500067
C41	C	-0.603690	-1.000941	0.000055
C42	C	-0.103690	-0.500941	0.500055
O43	O	-0.624927	-0.928909	0.000037
O44	O	-0.124927	-0.428909	0.500037
C45	C	-0.402012	-1.004855	0.000062
C46	C	0.097988	-0.504855	0.500062
C47	C	-0.382487	-1.089444	0.000081
C48	C	0.117513	-0.589444	0.500081
C49	C	-0.393853	-1.257630	0.000108
C50	C	0.106147	-0.757630	0.500108
C51	C	-0.343436	-1.258607	0.000117
C52	C	0.156564	-0.758607	0.500117
C53	C	-0.312545	-1.175003	0.000108
C54	C	0.187455	-0.675003	0.500108
C55	C	-0.332071	-1.090421	0.000090
C56	C	0.167929	-0.590421	0.500090
C57	C	-0.371118	-0.921246	0.000043
C58	C	0.128882	-0.421246	0.500043
C59	C	-0.320696	-0.922232	0.000043
C60	C	0.179304	-0.422232	0.500043
C61	C	-0.301171	-1.006820	0.000062
C62	C	0.198829	-0.506820	0.500062
C63	C	-0.250763	-1.007794	0.000090
C64	C	0.249237	-0.507794	0.500090
N65	N	-0.231235	-1.092377	0.000099
N66	N	0.268765	-0.592377	0.500099
C67	C	-0.262126	-1.175981	0.000108
C68	C	0.237874	-0.675981	0.500108
C69	C	-0.709574	-0.998893	0.000053
C70	C	-0.209574	-0.498893	0.500053
C71	C	-0.759993	-0.997914	0.000053
C72	C	-0.259993	-0.497914	0.500053
C73	C	-0.771356	-1.166108	0.000072
C74	C	-0.271356	-0.666108	0.500072
C75	C	-0.720936	-1.167086	0.000079
C76	C	-0.220936	-0.667086	0.500079
C77	C	-0.690045	-1.083476	0.000062
C78	C	-0.190045	-0.583476	0.500062
C79	C	-0.156247	-1.178028	0.000128
C80	C	0.343753	-0.678028	0.500128
C81	C	-0.105825	-1.178998	0.000141
C82	C	0.394175	-0.678998	0.500141
C83	C	-0.094466	-1.010804	0.000116
C84	C	0.405534	-0.510804	0.500116
C85	C	-0.144883	-1.009833	0.000109
C86	C	0.355117	-0.509833	0.500109
C87	C	-0.175773	-1.093453	0.000111
C88	C	0.324227	-0.593453	0.500111
O89	O	-0.219818	-0.936822	0.000114
O90	O	0.280182	-0.436822	0.500114
O91	O	-0.240879	-1.248004	0.000104
O92	O	0.259121	-0.748004	0.500104
C93	C	-0.463795	-1.172071	0.000081
C94	C	0.036205	-0.672071	0.500081
C95	C	-0.483320	-1.087489	0.000063
C96	C	0.016680	-0.587489	0.500063
C97	C	-0.452429	-1.003885	0.000054
C98	C	0.047571	-0.503885	0.500054
C99	C	-0.533740	-1.086510	0.000063
C100	C	-0.033740	-0.586510	0.500063
C101	C	-0.564631	-1.170115	0.000072
C102	C	-0.064631	-0.670115	0.500072
C103	C	-0.545103	-1.254698	0.000081
C104	C	-0.045103	-0.754698	0.500081
C105	C	-0.494686	-1.255675	0.000090
C106	C	0.005314	-0.755675	0.500090
C107	C	-0.471957	-0.919302	0.000046
C108	C	0.028043	-0.419302	0.500046
C109	C	-0.522375	-0.918331	0.000038
C110	C	-0.022375	-0.418331	0.500038
C111	C	-0.553266	-1.001936	0.000047
C112	C	-0.053266	-0.501936	0.500047
C113	C	0.155456	-1.080464	0.000077
C114	C	0.655456	-0.580464	0.500077
C115	C	0.209116	-1.081518	0.000062
C116	C	0.709116	-0.581518	0.500062
N117	N	0.067085	-1.088441	0.254957
N118	N	0.567085	-0.588441	0.754957
C119	C	0.065596	-0.442606	0.000116
C120	C	0.565596	0.057394	0.500116
C121	C	0.066661	-0.546896	0.000103
C122	C	0.566661	-0.046896	0.500103
C123	C	0.067514	-0.630018	0.000093
C124	C	0.567514	-0.130018	0.500093
C125	C	0.068579	-0.734314	0.000081
C126	C	0.568579	-0.234314	0.500081
N127	N	0.067094	-1.088478	-0.254754
N128	N	0.567094	-0.588478	0.245246
C129	C	0.067094	-1.088464	0.656248
C130	C	0.567094	-0.588464	1.156248
C131	C	0.067093	-1.088454	0.544596
C132	C	0.567093	-0.588454	1.044596
C133	C	0.067090	-1.088453	0.455606
C134	C	0.567090	-0.588453	0.955606
C135	C	0.067088	-1.088442	0.343947
C136	C	0.567088	-0.588442	0.843947
H137	H	-0.089931	-1.247882	0.000158
H138	H	0.410069	-0.747882	0.500158
C139	C	-0.804924	-1.256852	-0.000131
C140	C	-0.304924	-0.756852	0.499869
C141	C	-0.834181	-1.261200	-0.084308
C142	C	-0.334181	-0.761200	0.415692
C143	C	-0.865106	-1.344780	-0.084544
C144	C	-0.365106	-0.844780	0.415456
H145	H	-0.824882	-1.260057	0.056844
H146	H	-0.324882	-0.760057	0.556844
H147	H	-0.786094	-1.307400	-0.000184
H148	H	-0.286094	-0.807400	0.499816
H149	H	-0.853009	-1.210667	-0.084246
H150	H	-0.353009	-0.710667	0.415754
H151	H	-0.814236	-1.258012	-0.141296
H152	H	-0.314236	-0.758012	0.358704
H153	H	-0.846277	-1.395328	-0.084597
H154	H	-0.346277	-0.895328	0.415403
H155	H	-0.885061	-1.347977	-0.027566
H156	H	-0.385061	-0.847977	0.472434
H157	H	-0.884958	-1.347745	-0.141661
H158	H	-0.384958	-0.847745	0.358339
C159	C	-0.392337	-0.829433	0.000213
C160	C	0.107663	-0.329433	0.500213
C161	C	-0.420950	-0.823914	0.084377
C162	C	0.079050	-0.323914	0.584377
C163	C	-0.440499	-0.739340	0.084568
C164	C	0.059501	-0.239340	0.584568
H165	H	-0.411794	-0.825474	-0.056771
H166	H	0.088206	-0.325474	0.443229
H167	H	-0.366726	-0.779761	0.000254
H168	H	0.133274	-0.279761	0.500254
H169	H	-0.446557	-0.873573	0.084327
H170	H	0.053443	-0.373573	0.584327
H171	H	-0.401504	-0.827857	0.141374
H172	H	0.098496	-0.327857	0.641374
H173	H	-0.414888	-0.689668	0.084609
H174	H	0.085112	-0.189668	0.584609
H175	H	-0.459954	-0.735389	0.027581
H176	H	0.040046	-0.235389	0.527581
H177	H	-0.459911	-0.735581	0.141676
H178	H	0.040089	-0.235581	0.641676
C179	C	-0.473585	-1.347611	0.000053
C180	C	0.026415	-0.847611	0.500053
C181	C	-0.511438	-1.420609	0.000032
C182	C	-0.011438	-0.920609	0.500032
C183	C	-0.492023	-1.505318	-0.000018
C184	C	0.007977	-1.005318	0.499982
H185	H	-0.454167	-1.351625	0.057083
H186	H	0.045833	-0.851625	0.557083
H187	H	-0.454162	-1.351549	-0.057014
H188	H	0.045838	-0.851549	0.442986
H189	H	-0.530853	-1.416673	0.057093
H190	H	-0.030853	-0.916673	0.557093
H191	H	-0.530860	-1.416626	-0.056994
H192	H	-0.030860	-0.916626	0.443006
H193	H	-0.472599	-1.509255	-0.057085
H194	H	0.027401	-1.009255	0.442915
H195	H	-0.472604	-1.509321	0.057013
H196	H	0.027396	-1.009321	0.557013
H197	H	-0.517702	-1.554856	-0.000041
H198	H	-0.017702	-1.054856	0.499959
C199	C	-0.699713	-1.258898	0.000292
C200	C	-0.199713	-0.758898	0.500292
C201	C	-0.671116	-1.264386	0.084462
C202	C	-0.171116	-0.764386	0.584462
C203	C	-0.651566	-1.348958	0.084695
C204	C	-0.151566	-0.848958	0.584695
H205	H	-0.680244	-1.262876	-0.056688
H206	H	-0.180244	-0.762876	0.443312
H207	H	-0.725323	-1.308571	0.000352
H208	H	-0.225323	-0.808571	0.500352
H209	H	-0.645510	-1.214726	0.084393
H210	H	-0.145510	-0.714726	0.584393
H211	H	-0.690574	-1.260424	0.141455
H212	H	-0.190574	-0.760424	0.641455
H213	H	-0.677176	-1.398632	0.084755
H214	H	-0.177176	-0.898632	0.584755
H215	H	-0.632100	-1.352928	0.027711
H216	H	-0.132100	-0.852928	0.527711
H217	H	-0.632165	-1.352697	0.141807
H218	H	-0.132165	-0.852697	0.641807
C219	C	-0.166153	-0.918065	-0.000057
C220	C	0.333847	-0.418065	0.499943
C221	C	-0.194763	-0.912610	-0.084214
C222	C	0.305237	-0.412610	0.415786
C223	C	-0.214366	-0.828092	-0.084403
C224	C	0.285634	-0.328092	0.415597
H225	H	-0.140584	-0.868333	-0.000107
H226	H	0.359416	-0.368333	0.499893
H227	H	-0.185623	-0.914174	0.056952
H228	H	0.314377	-0.414174	0.556952
H229	H	-0.175294	-0.916492	-0.141208
H230	H	0.324706	-0.416492	0.358792
H231	H	-0.220340	-0.962322	-0.084181
H232	H	0.279660	-0.462322	0.415819
H233	H	-0.233836	-0.824201	-0.027395
H234	H	0.266164	-0.324201	0.472605
H235	H	-0.188794	-0.778367	-0.084451
H236	H	0.311206	-0.278367	0.415549
H237	H	-0.233783	-0.824383	-0.141498
H238	H	0.266217	-0.324383	0.358502
H239	H	-0.570263	-1.322771	0.000093
H240	H	-0.070263	-0.822771	0.500093
H241	H	-0.069306	-0.942736	0.000113
H242	H	0.430694	-0.442736	0.500113
C243	C	-0.781094	-0.905979	-0.000006
C244	C	-0.281094	-0.405979	0.499994
C245	C	-0.743244	-0.832978	-0.000042
C246	C	-0.243244	-0.332978	0.499958
C247	C	-0.762662	-0.748271	-0.000116
C248	C	-0.262662	-0.248271	0.499884
H249	H	-0.800525	-0.901957	0.057021
H250	H	-0.300525	-0.401957	0.557021
H251	H	-0.800506	-0.902053	-0.057076
H252	H	-0.300506	-0.402053	0.442924
H253	H	-0.723840	-0.836901	0.057022
H254	H	-0.223840	-0.336901	0.557022
H255	H	-0.723810	-0.836968	-0.057065
H256	H	-0.223810	-0.336968	0.442935
H257	H	-0.782074	-0.744346	-0.057186
H258	H	-0.282074	-0.244346	0.442814
H259	H	-0.782092	-0.744260	0.056912
H260	H	-0.282092	-0.244260	0.556912
H261	H	-0.736983	-0.698730	-0.000150
H262	H	-0.236983	-0.198730	0.499850
H263	H	-0.181392	-1.246119	0.000126
H264	H	0.318608	-0.746119	0.500126
C265	C	-0.543541	-0.826456	-0.000186
C266	C	-0.043541	-0.326456	0.499814
C267	C	-0.527842	-0.775990	-0.084368
C268	C	-0.027842	-0.275990	0.415632
C269	C	-0.547334	-0.691359	-0.084624
C270	C	-0.047334	-0.191359	0.415376
H271	H	-0.532963	-0.791942	0.056785
H272	H	-0.032963	-0.291942	0.556785
H273	H	-0.577996	-0.837798	-0.000246
H274	H	-0.077996	-0.337798	0.499754
H275	H	-0.493395	-0.764645	-0.084299
H276	H	0.006605	-0.264645	0.415701
H277	H	-0.538420	-0.810475	-0.141353
H278	H	-0.038420	-0.310475	0.358647
H279	H	-0.581789	-0.702701	-0.084684
H280	H	-0.081789	-0.202701	0.415316
H281	H	-0.536755	-0.656853	-0.027649
H282	H	-0.036755	-0.156853	0.472351
H283	H	-0.536689	-0.657111	-0.141745
H284	H	-0.036689	-0.157111	0.358255
H285	H	-0.327544	-1.327488	0.000128
H286	H	0.172456	-0.827488	0.500128
C287	C	-0.287239	-0.831352	0.000075
C288	C	0.212761	-0.331352	0.500075
C289	C	-0.315135	-0.757073	0.000081
C290	C	0.184865	-0.257073	0.500081
C291	C	-0.284332	-0.673343	0.000126
C292	C	0.215668	-0.173343	0.500126
H293	H	-0.267317	-0.828112	-0.056953
H294	H	0.232683	-0.328112	0.443047
H295	H	-0.267348	-0.828175	0.057145
H296	H	0.232652	-0.328175	0.557145
H297	H	-0.335017	-0.760248	-0.056983
H298	H	0.164983	-0.260248	0.443017
H299	H	-0.335056	-0.760283	0.057105
H300	H	0.164944	-0.260283	0.557105
H301	H	-0.264441	-0.670166	0.057196
H302	H	0.235559	-0.170166	0.557196
H303	H	-0.264411	-0.670112	-0.056903
H304	H	0.235589	-0.170112	0.443097
H305	H	-0.303254	-0.622935	0.000139
H306	H	0.196746	-0.122935	0.500139
H307	H	-0.684426	-0.930803	0.000040
H308	H	-0.184426	-0.430803	0.500040
H309	H	-0.419000	-1.325714	0.000112
H310	H	0.081000	-0.825714	0.500112
H311	H	-0.446810	-0.851220	0.000036
H312	H	0.053190	-0.351220	0.500036
