data_functionalizedCrystal
_audit_creation_method	'MofGen! by Chris Wilmer'
_symmetry_space_group_name_H-M	'P1'
_symmetry_Int_Tables_number	1
_symmetry_cell_setting	triclinic
loop_
_symmetry_equiv_pos_as_xyz
  x,y,z
_cell_length_a	12.759401
_cell_length_b	12.759400
_cell_length_c	17.077396
_cell_angle_alpha	89.973580
_cell_angle_beta	89.985250
_cell_angle_gamma	90.014668
loop_
_atom_site_label
_atom_site_type_symbol
_atom_site_fract_x
_atom_site_fract_y
_atom_site_fract_z
Zn1	Zn	1.606210	-0.418258	-0.443806
Zn2	Zn	1.606118	-0.593961	-0.312547
Zn3	Zn	1.430526	-0.418297	-0.312560
Zn4	Zn	1.430501	-0.593896	-0.443776
O5	O	1.518339	-0.506103	-0.378172
O6	O	1.753219	-0.441577	-0.426402
O7	O	1.582797	-0.570703	-0.202702
O8	O	1.453880	-0.271271	-0.329988
O9	O	1.753151	-0.570665	-0.329966
O10	O	1.582954	-0.271242	-0.426414
O11	O	1.453790	-0.441643	-0.202711
O12	O	1.283501	-0.441579	-0.329959
O13	O	1.453838	-0.570553	-0.553627
O14	O	1.283483	-0.570591	-0.426363
O15	O	1.582931	-0.441513	-0.553649
O16	O	1.582773	-0.740974	-0.329937
O17	O	1.453748	-0.740925	-0.426350
C18	C	1.245371	-0.506083	-0.378160
C19	C	1.128595	-0.506099	-0.378173
C20	C	0.964038	-0.439018	-0.428471
C21	C	1.073762	-0.439003	-0.428464
C22	C	1.073698	-0.573222	-0.327891
C23	C	0.963975	-0.573241	-0.327902
C24	C	0.909212	-0.371910	-0.478760
C25	C	0.964101	-0.304789	-0.529043
C26	C	1.073825	-0.304774	-0.529036
C27	C	1.128660	-0.371881	-0.478746
C28	C	1.518277	-0.779070	-0.378156
C29	C	1.518346	-0.895847	-0.378175
C30	C	1.585604	-0.950699	-0.328028
C31	C	1.585668	-1.060423	-0.328052
C32	C	1.451208	-1.060433	-0.428373
C33	C	1.451150	-0.950711	-0.428352
C34	C	1.652800	-0.895835	-0.277851
C35	C	1.720063	-0.950687	-0.227700
C36	C	1.720127	-1.060411	-0.227724
C37	C	1.652929	-1.115283	-0.277900
C38	C	1.792372	-0.506124	-0.378186
C39	C	1.909149	-0.506133	-0.378191
C40	C	1.518392	-0.506022	-0.582917
C41	C	1.518414	-0.505987	-0.670167
C42	C	1.518430	-0.232070	-0.378206
C43	C	1.518469	-0.115293	-0.378220
C44	C	1.451261	-0.438777	-0.711161
C45	C	1.451278	-0.438754	-0.793142
C46	C	1.518454	-0.505935	-0.834126
C47	C	1.585611	-0.573152	-0.793126
C48	C	1.585588	-0.573180	-0.711147
C49	C	1.585656	-0.573086	-0.963996
C50	C	1.585681	-0.573056	-1.045981
C51	C	1.451346	-0.438659	-1.045991
C52	C	1.451323	-0.438688	-0.964012
C53	C	1.518481	-0.505904	-0.923017
C54	C	1.518347	-0.506108	-0.174225
C55	C	1.518528	-0.505847	-0.086975
H56	H	0.919448	-0.250159	-0.569992
H57	H	1.652995	-1.204628	-0.277922
H58	H	1.640382	-0.627761	-1.079348
C59	C	1.378195	-0.891277	-0.482926
C60	C	1.401014	-0.917894	-0.560610
C61	C	1.333828	-0.863173	-0.610909
H62	H	1.387727	-0.818059	-0.475833
H63	H	1.307601	-0.909338	-0.471450
H64	H	1.471591	-0.899826	-0.572082
H65	H	1.391476	-0.991103	-0.567727
H66	H	1.263233	-0.881234	-0.599433
H67	H	1.343365	-0.789957	-0.603810
H68	H	1.349295	-0.881231	-0.663623
H69	H	0.919283	-0.627894	-0.286962
C70	C	1.133232	-0.231792	-0.583659
C71	C	1.061728	-0.173013	-0.627686
C72	C	1.116413	-0.105756	-0.678004
H73	H	1.176051	-0.271912	-0.617878
H74	H	1.176003	-0.185904	-0.553702
H75	H	1.018976	-0.218895	-0.657641
H76	H	1.018907	-0.132872	-0.593487
H77	H	1.159183	-0.059867	-0.648047
H78	H	1.159230	-0.145884	-0.712218
H79	H	1.067906	-0.065859	-0.707877
C80	C	1.378328	-0.365919	-0.919413
C81	C	1.310976	-0.425420	-0.872323
C82	C	1.243724	-0.358422	-0.831221
H83	H	1.338233	-0.325862	-0.955479
H84	H	1.418496	-0.320174	-0.887396
H85	H	1.270811	-0.471146	-0.904338
H86	H	1.351042	-0.465475	-0.836243
H87	H	1.283893	-0.312678	-0.799203
H88	H	1.203637	-0.318369	-0.867292
H89	H	1.198025	-0.398783	-0.799260
C90	C	1.793132	-0.891307	-0.173196
C91	C	1.852069	-0.962834	-0.129299
C92	C	1.919402	-0.908174	-0.079089
H93	H	1.753060	-0.848571	-0.138889
H94	H	1.838918	-0.848457	-0.203224
H95	H	1.806289	-1.005666	-0.099273
H96	H	1.892162	-1.005573	-0.163585
H97	H	1.965188	-0.865324	-0.109117
H98	H	1.879322	-0.865439	-0.044787
H99	H	1.959405	-0.956696	-0.049304
H100	H	1.118352	-0.627857	-0.286947
C101	C	1.378437	-0.365876	-0.666526
C102	C	1.392807	-0.380262	-0.585957
C103	C	1.325746	-0.313115	-0.544817
H104	H	1.307803	-0.381177	-0.679862
H105	H	1.393850	-0.295259	-0.679928
H106	H	1.377386	-0.450863	-0.572560
H107	H	1.463427	-0.364954	-0.572597
H108	H	1.341158	-0.242498	-0.558219
H109	H	1.255116	-0.328421	-0.558160
H110	H	1.335493	-0.322860	-0.490147
H111	H	1.652752	-0.806492	-0.277824
H112	H	1.396591	-0.384029	-0.826516
C113	C	1.378451	-0.365814	-1.090637
C114	C	1.392815	-0.380195	-1.171202
C115	C	1.325673	-0.313124	-1.212357
H116	H	1.393770	-0.295182	-1.077315
H117	H	1.307834	-0.381210	-1.077233
H118	H	1.463417	-0.364791	-1.184600
H119	H	1.377489	-0.450813	-1.184547
H120	H	1.255056	-0.328520	-1.198954
H121	H	1.340998	-0.242496	-1.199029
H122	H	1.335403	-0.322879	-1.267025
C123	C	1.793353	-1.119984	-0.173438
C124	C	1.860712	-1.182810	-0.217977
C125	C	1.928220	-1.237672	-0.168005
H126	H	1.753405	-1.162966	-0.139179
H127	H	1.833421	-1.071593	-0.143594
H128	H	1.820648	-1.231195	-0.247807
H129	H	1.900683	-1.139854	-0.252234
H130	H	1.968288	-1.189281	-0.138161
H131	H	1.888263	-1.280648	-0.133748
H132	H	1.973937	-1.280298	-0.198217
H133	H	1.218005	-0.371856	-0.478739
H134	H	1.396498	-1.105118	-0.469223
H135	H	0.819869	-0.371910	-0.478768
C136	C	1.658681	-0.646108	-0.919627
C137	C	1.717537	-0.704917	-0.973064
C138	C	1.784826	-0.772182	-0.932220
H139	H	1.618580	-0.691984	-0.887638
H140	H	1.704519	-0.605959	-0.887670
H141	H	1.671704	-0.745063	-1.005007
H142	H	1.757658	-0.659068	-1.005055
H143	H	1.830665	-0.732033	-0.900263
H144	H	1.744717	-0.818052	-0.900232
H145	H	1.824774	-0.812085	-0.968470
C146	C	1.658610	-0.646194	-0.666777
C147	C	1.717465	-0.705005	-0.720213
C148	C	1.784750	-0.772274	-0.679370
H149	H	1.618507	-0.692070	-0.634788
H150	H	1.704450	-0.606048	-0.634818
H151	H	1.671631	-0.745148	-0.752158
H152	H	1.757590	-0.659157	-0.752203
H153	H	1.830590	-0.732128	-0.647411
H154	H	1.744638	-0.818143	-0.647383
H155	H	1.824697	-0.812178	-0.715620
H156	H	1.640302	-0.627857	-0.826502
