data_functionalizedCrystal
_audit_creation_method	'MofGen! by Chris Wilmer'
_symmetry_space_group_name_H-M	'P1'
_symmetry_Int_Tables_number	1
_symmetry_cell_setting	triclinic
loop_
_symmetry_equiv_pos_as_xyz
  x,y,z
_cell_length_a	15.625950
_cell_length_b	15.944493
_cell_length_c	14.185328
_cell_angle_alpha	104.773895
_cell_angle_beta	87.172074
_cell_angle_gamma	83.877139
loop_
_atom_site_label
_atom_site_type_symbol
_atom_site_fract_x
_atom_site_fract_y
_atom_site_fract_z
O1	O	1.124847	0.043298	-0.325638
O2	O	0.881731	0.074384	-0.237230
O3	O	1.009955	-0.063922	-0.283849
O4	O	0.996623	0.181604	-0.279018
O5	O	0.976151	-0.095458	-0.438397
O6	O	0.847927	0.042848	-0.391777
O7	O	1.091043	0.011761	-0.480185
Cu8	Cu	0.966398	0.024425	-0.450093
Cu9	Cu	1.006376	0.061721	-0.267322
O10	O	0.962819	0.150067	-0.433566
C11	C	0.833719	0.060330	-0.303190
C12	C	0.741022	0.065429	-0.269480
C13	C	0.343949	-0.003688	-0.579718
C14	C	0.256853	0.001128	-0.547999
C15	C	0.293748	0.035505	-0.379533
C16	C	0.380849	0.030697	-0.411238
C17	C	0.405942	0.011098	-0.511332
C18	C	0.442842	0.045483	-0.342852
C19	C	0.529935	0.040670	-0.374555
C20	C	0.555036	0.021070	-0.474644
C21	C	0.493036	0.006285	-0.543034
C22	C	0.417747	0.065075	-0.242759
C23	C	0.479740	0.079862	-0.174372
C24	C	0.566835	0.075055	-0.206075
C25	C	0.591936	0.055455	-0.306164
C26	C	0.628835	0.089840	-0.137684
C27	C	0.715929	0.085027	-0.169387
C28	C	0.679029	0.050642	-0.337867
C29	C	0.992509	-0.110944	-0.360921
C30	C	0.990878	-0.204071	-0.360315
C31	C	1.066349	-0.445339	-0.387779
C32	C	1.042315	-0.477390	-0.296779
C33	C	0.987850	-0.374574	-0.359226
C34	C	1.008969	-0.508457	-0.449144
C35	C	0.984929	-0.539274	-0.358181
C36	C	0.963851	-0.405385	-0.268171
C37	C	0.930501	-0.436464	-0.420609
C38	C	0.906414	-0.468474	-0.329569
C39	C	0.989535	-0.279695	-0.359829
C40	C	0.983239	-0.634148	-0.357569
C41	C	1.139055	0.025815	-0.414223
C42	C	1.231754	0.020718	-0.447926
C43	C	0.980265	0.197090	-0.356492
C44	C	0.981897	0.290218	-0.357091
N45	N	0.938287	-0.001808	-0.578646
C46	C	1.117019	0.165047	-1.011261
C47	C	1.095744	0.145162	-1.108550
C48	C	0.994491	0.050597	-1.071707
C49	C	1.015755	0.070478	-0.974413
C50	C	1.077019	0.127702	-0.944198
C51	C	0.975755	0.033134	-0.907349
C52	C	0.997020	0.053009	-0.810064
C53	C	1.058285	0.110230	-0.779842
C54	C	1.098285	0.147578	-0.846913
C55	C	0.914495	-0.024096	-0.937567
C56	C	0.874496	-0.061440	-0.870504
C57	C	0.895756	-0.041560	-0.773216
C58	C	0.957021	0.015661	-0.742994
C59	C	0.855757	-0.078908	-0.706145
C60	C	0.877022	-0.059032	-0.608860
C61	C	0.978286	0.035536	-0.645709
N62	N	1.034494	0.087946	-0.138772
H63	H	0.699459	0.034696	-0.419372
H64	H	0.944611	0.004002	-1.096323
N65	N	0.648974	0.015873	-0.508837
H66	H	0.670431	0.073993	-0.480946
H67	H	0.655397	0.001179	-0.582622
N68	N	0.520104	-0.014845	-0.650994
H69	H	0.562185	-0.070138	-0.670362
H70	H	0.548609	0.034975	-0.665362
H71	H	0.364379	-0.019634	-0.661223
H72	H	0.206376	-0.010895	-0.603694
H73	H	0.897188	-0.040282	-1.016786
N74	N	0.867956	-0.412297	-0.489977
H75	H	0.838834	-0.464850	-0.521585
H76	H	0.900298	-0.392446	-0.542151
N77	N	0.266682	0.056635	-0.271580
H78	H	0.202102	0.057438	-0.261871
H79	H	0.283191	0.115834	-0.237879
H80	H	0.608391	0.105788	-0.056188
H81	H	0.944824	-0.360989	-0.191633
H82	H	0.838753	-0.478996	-0.304919
H83	H	0.766405	0.097072	-0.113699
N84	N	0.323812	0.070260	-0.208564
H85	H	0.303307	0.130696	-0.165388
H86	H	0.316919	0.025589	-0.170362
N87	N	0.452673	0.100991	-0.066419
H88	H	0.388093	0.101794	-0.056710
H89	H	0.469183	0.160190	-0.032718
N90	N	0.808413	-0.123150	-0.903097
H91	H	0.786298	-0.143789	-0.845847
H92	H	0.836004	-0.175092	-0.956683
N93	N	1.155934	-0.431150	-0.420260
H94	H	1.198092	-0.445799	-0.373393
H95	H	1.156221	-0.368018	-0.421038
H96	H	1.089558	-0.495607	-0.244413
H97	H	1.028047	-0.552952	-0.525622
H98	H	1.028164	0.082144	-0.621104
N99	N	1.081228	0.131664	-0.674916
H100	H	1.027852	0.159520	-0.630219
H101	H	1.126130	0.173552	-0.666044
N102	N	1.164352	0.209312	-0.814309
H103	H	1.186463	0.229961	-0.871553
H104	H	1.214007	0.177989	-0.788772
N105	N	1.183086	0.226780	-0.978657
H106	H	1.205198	0.247430	-1.035901
H107	H	1.232741	0.195458	-0.953120
N108	N	1.138883	0.185449	-1.180884
H109	H	1.180917	0.224717	-1.146976
H110	H	1.093637	0.220895	-1.208018
H111	H	0.805881	-0.125508	-0.730763
N112	N	0.833887	-0.099311	-0.536521
H113	H	0.791848	-0.138577	-0.570423
H114	H	0.801882	-0.051491	-0.481327
