data_functionalizedCrystal
_audit_creation_method	'MofGen! by Chris Wilmer'
_symmetry_space_group_name_H-M	'P1'
_symmetry_Int_Tables_number	1
_symmetry_cell_setting	triclinic
loop_
_symmetry_equiv_pos_as_xyz
  x,y,z
_cell_length_a	17.699077
_cell_length_b	14.853559
_cell_length_c	16.776229
_cell_angle_alpha	89.995543
_cell_angle_beta	89.993415
_cell_angle_gamma	83.456015
loop_
_atom_site_label
_atom_site_type_symbol
_atom_site_fract_x
_atom_site_fract_y
_atom_site_fract_z
O1	O	1.004374	0.113983	-0.066274
O2	O	0.784033	0.128821	-0.066277
O3	O	0.900093	-0.009850	-0.066275
O4	O	0.888315	0.252654	-0.066276
O5	O	0.900077	-0.009858	0.066302
O6	O	0.784018	0.128813	0.066299
O7	O	1.004359	0.113974	0.066303
Zn8	Zn	0.894186	0.121392	0.087350
Zn9	Zn	0.894206	0.121404	-0.087325
O10	O	0.888299	0.252646	0.066300
C11	C	0.755827	0.128286	0.000011
C12	C	0.671805	0.126694	0.000009
C13	C	0.632327	0.125939	0.072277
C14	C	0.553381	0.124429	0.072278
C15	C	0.513913	0.123679	0.000010
C16	C	0.553396	0.124432	-0.072264
C17	C	0.632342	0.125936	-0.072264
C18	C	0.235017	0.118365	-0.072265
C19	C	0.156066	0.116863	-0.072260
C20	C	0.156056	0.116857	0.072277
C21	C	0.235002	0.118362	0.072277
C22	C	0.274479	0.119109	0.000003
C23	C	0.360082	0.120745	0.000003
C24	C	0.428311	0.122050	0.000009
C25	C	0.899553	-0.043441	0.000012
C26	C	0.897957	-0.143519	0.000008
C27	C	0.891195	-0.566665	-0.072260
C28	C	0.891179	-0.566669	0.072280
C29	C	0.892684	-0.472641	0.072281
C30	C	0.893444	-0.425620	0.000010
C31	C	0.892699	-0.472628	-0.072261
C32	C	0.893422	-0.425625	0.144551
C33	C	0.894927	-0.331592	0.144555
C34	C	0.895692	-0.284570	0.072283
C35	C	0.894948	-0.331584	0.000009
C36	C	0.895708	-0.284563	-0.072262
C37	C	0.894969	-0.331576	-0.144538
C38	C	0.893465	-0.425607	-0.144533
C39	C	0.897197	-0.190540	0.072278
C40	C	0.897211	-0.190527	-0.072264
C41	C	1.032565	0.114509	0.000013
C42	C	1.116587	0.116102	0.000009
C43	C	0.888840	0.286237	0.000012
C44	C	0.890435	0.386315	0.000011
N45	N	0.894178	0.121384	0.206562
N46	N	0.894221	0.121405	-0.206536
C47	C	0.945584	0.060006	0.248280
C48	C	0.945589	0.060005	0.331732
C49	C	0.894189	0.121388	0.373465
C50	C	0.842777	0.182769	0.331740
C51	C	0.842769	0.182765	0.248290
C52	C	0.842804	0.182787	0.668288
C53	C	0.842817	0.182788	0.751744
C54	C	0.945623	0.060027	0.751730
C55	C	0.945616	0.060023	0.668279
C56	C	0.894201	0.121400	0.626562
C57	C	0.894196	0.121399	0.536074
C58	C	0.894197	0.121394	0.463951
H59	H	0.664483	0.126552	-0.131112
O60	O	0.273425	0.119222	-0.142420
C61	C	0.354016	0.199028	-0.226340
C62	C	0.310568	0.198158	-0.146848
H63	H	0.384044	0.262851	-0.229953
H64	H	0.397888	0.136708	-0.229973
H65	H	0.312230	0.198196	-0.277972
H66	H	0.352296	0.199022	-0.095171
H67	H	0.266685	0.260473	-0.143284
H68	H	0.890555	-0.604957	0.131120
H69	H	0.800942	0.232764	0.634328
O70	O	0.897777	-0.144804	0.142453
C71	C	0.833961	-0.028231	0.226295
C72	C	0.833202	-0.079972	0.146799
H73	H	0.781766	0.024210	0.229827
H74	H	0.833105	-0.077933	0.277985
H75	H	0.887613	0.007378	0.229900
H76	H	0.779558	-0.115584	0.143116
H77	H	0.834098	-0.030227	0.095146
H78	H	0.890597	-0.604947	-0.131105
O79	O	0.892735	-0.471446	0.214678
C80	C	0.890419	-0.616316	0.278732
C81	C	0.891198	-0.564532	0.199253
H82	H	0.889161	-0.691582	0.266288
H83	H	0.943655	-0.606256	0.314365
H84	H	0.837805	-0.589428	0.314389
H85	H	0.943777	-0.591386	0.163532
H86	H	0.837928	-0.574591	0.163681
H87	H	0.897834	-0.152250	-0.131116
O88	O	0.895686	-0.286074	0.214830
C89	C	0.895477	-0.296005	0.358196
C90	C	0.894627	-0.347668	0.278668
H91	H	0.894605	-0.345778	0.409829
H92	H	0.949122	-0.260387	0.361860
H93	H	0.843272	-0.243582	0.361770
H94	H	0.946796	-0.400134	0.275040
H95	H	0.840948	-0.383224	0.275037
O96	O	0.995384	0.000226	0.627719
C97	C	1.011155	-0.123185	0.533761
C98	C	0.954748	-0.055412	0.579585
H99	H	0.978323	-0.168199	0.494846
H100	H	1.049079	-0.084568	0.494557
H101	H	1.047829	-0.167005	0.578005
H102	H	0.918024	-0.011576	0.535399
H103	H	0.916877	-0.094085	0.618801
O104	O	0.792910	0.242514	0.207797
C105	C	0.748680	0.399342	0.182289
C106	C	0.805204	0.331777	0.228181
H107	H	0.758589	0.471525	0.198765
H108	H	0.757501	0.388873	0.115468
H109	H	0.688060	0.387638	0.198704
H110	H	0.865846	0.343440	0.211833
H111	H	0.796316	0.342263	0.294991
H112	H	0.123933	0.116252	-0.131113
O113	O	0.892613	-0.471169	-0.214778
C114	C	0.826556	-0.489624	-0.338251
C115	C	0.827457	-0.437929	-0.258744
H116	H	0.773874	-0.462782	-0.373813
H117	H	0.879732	-0.479516	-0.373980
H118	H	0.825371	-0.564901	-0.325793
H119	H	0.828615	-0.362635	-0.271130
H120	H	0.774283	-0.448112	-0.223040
O121	O	0.995607	0.000358	0.372133
C122	C	1.097569	-0.121422	0.363313
C123	C	1.040971	-0.053908	0.317460
H124	H	1.134250	-0.165326	0.319129
H125	H	1.135464	-0.082587	0.402344
H126	H	1.064851	-0.166378	0.402420
H127	H	1.073627	-0.008935	0.278310
H128	H	1.003076	-0.092799	0.278479
O129	O	0.895732	-0.285761	-0.214668
C130	C	0.897978	-0.140875	-0.278714
C131	C	0.897140	-0.192656	-0.199237
H132	H	0.899100	-0.065588	-0.266266
H133	H	0.950623	-0.167649	-0.314373
H134	H	0.844770	-0.151053	-0.314346
H135	H	0.950311	-0.182500	-0.163541
H136	H	0.844459	-0.165872	-0.163639
H137	H	0.987443	0.010024	0.214307
O138	O	0.995529	0.000270	0.792169
C139	C	1.039691	-0.156562	0.817742
C140	C	0.983146	-0.088991	0.771883
H141	H	1.029689	-0.228744	0.801370
H142	H	1.100336	-0.144983	0.801307
H143	H	1.030876	-0.145975	0.884550
H144	H	0.991891	-0.099538	0.705064
H145	H	0.922521	-0.100588	0.788384
O146	O	0.792806	0.242447	0.792161
C147	C	0.690851	0.364238	0.783374
C148	C	0.747430	0.296714	0.737503
H149	H	0.654160	0.408143	0.739202
H150	H	0.652964	0.325411	0.822436
H151	H	0.723585	0.409192	0.822451
H152	H	0.714757	0.251743	0.698381
H153	H	0.785316	0.335598	0.698491
O154	O	0.273453	0.119127	0.142407
C155	C	0.395075	0.121373	0.206463
C156	C	0.351622	0.120535	0.126983
H157	H	0.458285	0.122492	0.194020
H158	H	0.372742	0.184156	0.242117
H159	H	0.386367	0.058018	0.242098
H160	H	0.360312	0.183847	0.091284
H161	H	0.373964	0.057711	0.091389
H162	H	0.521256	0.123815	-0.131106
O163	O	0.670550	0.126623	0.142552
C164	C	0.662194	0.126504	0.285917
C165	C	0.618817	0.125711	0.206388
H166	H	0.620385	0.125785	0.337550
H167	H	0.706000	0.064124	0.289585
H168	H	0.692311	0.190261	0.289490
H169	H	0.588655	0.061996	0.202762
H170	H	0.575054	0.188133	0.202754
O171	O	0.117724	0.116281	0.142506
C172	C	0.085097	0.193862	0.266065
C173	C	0.128525	0.194636	0.186555
H174	H	0.093827	0.257195	0.301709
H175	H	0.021878	0.192712	0.253703
H176	H	0.107479	0.131061	0.301672
H177	H	0.106207	0.257427	0.150909
H178	H	0.191739	0.195739	0.198974
O179	O	0.792919	0.242363	0.372400
C180	C	0.747338	0.296747	0.500964
C181	C	0.803853	0.229219	0.455019
H182	H	0.756147	0.286130	0.567769
H183	H	0.757269	0.368961	0.484603
H184	H	0.686715	0.285099	0.484525
H185	H	0.864497	0.240784	0.471434
H186	H	0.793856	0.157028	0.471384
H187	H	0.521243	0.123799	0.131126
