data_functionalizedCrystal
_audit_creation_method	'MofGen! by Chris Wilmer'
_symmetry_space_group_name_H-M	'P1'
_symmetry_Int_Tables_number	1
_symmetry_cell_setting	triclinic
loop_
_symmetry_equiv_pos_as_xyz
  x,y,z
_cell_length_a	15.538191
_cell_length_b	15.625429
_cell_length_c	14.185328
_cell_angle_alpha	122.263589
_cell_angle_beta	108.252531
_cell_angle_gamma	66.736792
loop_
_atom_site_label
_atom_site_type_symbol
_atom_site_fract_x
_atom_site_fract_y
_atom_site_fract_z
O1	O	1.243976	-0.296174	-0.024290
O2	O	1.743976	0.203826	0.475710
O3	O	0.978986	-0.186378	0.015644
O4	O	1.478986	0.313622	0.515644
O5	O	1.107073	-0.382289	-0.055618
O6	O	1.607073	0.117711	0.444382
O7	O	1.115890	-0.100264	0.046972
O8	O	1.615890	0.399736	0.546972
O9	O	1.066793	-0.407614	-0.231674
O10	O	1.566793	0.092386	0.268326
O11	O	0.938707	-0.211704	-0.160412
O12	O	1.438707	0.288296	0.339588
O13	O	1.203697	-0.321500	-0.200346
O14	O	1.703697	0.178500	0.299654
Cu15	Cu	1.067524	-0.268915	-0.196454
Cu16	Cu	1.567524	0.231085	0.303546
Cu17	Cu	1.115159	-0.238964	0.011752
Cu18	Cu	1.615159	0.261036	0.511752
O19	O	1.075610	-0.125590	-0.129084
O20	O	1.575610	0.374410	0.370916
C21	C	0.924721	-0.187554	-0.068206
C22	C	1.424721	0.312446	0.431794
C23	C	0.823036	-0.153336	-0.055761
C24	C	1.323036	0.346664	0.444239
C25	C	1.083341	-0.430164	-0.156453
C26	C	1.583341	0.069836	0.343547
C27	C	1.072626	-0.535083	-0.194612
C28	C	1.572626	-0.035083	0.305388
C29	C	0.506547	-0.493280	-0.179403
C30	C	1.006547	0.006720	0.320597
C31	C	0.410998	-0.461103	-0.167698
C32	C	0.910998	0.038897	0.332302
C33	C	0.403836	-0.280115	-0.101862
C34	C	0.903836	0.219885	0.398138
C35	C	0.499385	-0.312278	-0.113567
C36	C	0.999385	0.187722	0.386433
C37	C	0.550734	-0.418861	-0.152337
C38	C	1.050734	0.081139	0.347663
C39	C	0.543572	-0.237859	-0.086501
C40	C	1.043572	0.262141	0.413499
C41	C	0.639114	-0.270019	-0.098200
C42	C	1.139114	0.229981	0.401800
C43	C	0.690469	-0.376597	-0.136965
C44	C	1.190469	0.123403	0.363035
C45	C	0.646276	-0.451021	-0.164036
C46	C	1.146276	0.048979	0.335964
C47	C	0.492223	-0.131275	-0.047723
C48	C	0.992223	0.368725	0.452277
C49	C	0.536409	-0.056857	-0.020657
C50	C	1.036409	0.443143	0.479343
C51	C	0.631951	-0.089017	-0.032363
C52	C	1.131951	0.410983	0.467637
C53	C	0.683307	-0.195595	-0.071128
C54	C	1.183307	0.304405	0.428872
C55	C	0.676145	-0.014593	-0.005292
C56	C	1.176145	0.485407	0.494708
C57	C	0.771687	-0.046753	-0.016991
C58	C	1.271687	0.453247	0.483009
C59	C	0.778849	-0.227755	-0.082827
C60	C	1.278849	0.272245	0.417173
C61	C	1.257963	-0.320324	-0.116494
C62	C	1.757963	0.179676	0.383506
C63	C	1.359650	-0.354541	-0.128932
C64	C	1.859650	0.145459	0.371068
C65	C	1.147132	-0.811121	0.159691
C66	C	1.647132	-0.311121	0.659691
C67	C	1.137052	-0.909711	0.123803
C68	C	1.637052	-0.409711	0.623803
C69	C	1.093142	-0.937306	-0.068121
C70	C	1.593142	-0.437306	0.431879
C71	C	1.103223	-0.838718	-0.032249
C72	C	1.603223	-0.338718	0.467751
C73	C	1.130217	-0.775633	0.081658
C74	C	1.630217	-0.275633	0.581658
C75	C	1.086308	-0.803230	-0.110282
C76	C	1.586308	-0.303230	0.389718
C77	C	1.096384	-0.704649	-0.074412
C78	C	1.596384	-0.204649	0.425588
C79	C	1.123374	-0.641556	0.039491
C80	C	1.623374	-0.141556	0.539491
C81	C	1.140292	-0.677051	0.117529
C82	C	1.640292	-0.177051	0.617529
C83	C	1.059308	-0.866314	-0.224188
C84	C	1.559308	-0.366314	0.275812
C85	C	1.042393	-0.830826	-0.302221
C86	C	1.542393	-0.330826	0.197779
C87	C	1.052475	-0.732246	-0.266353
C88	C	1.552475	-0.232246	0.233647
C89	C	1.079465	-0.669153	-0.152450
C90	C	1.579465	-0.169153	0.347550
C91	C	1.035556	-0.696751	-0.344390
C92	C	1.535556	-0.196751	0.155610
C93	C	1.045632	-0.598169	-0.308520
C94	C	1.545632	-0.098169	0.191480
C95	C	1.089540	-0.570572	-0.116579
C96	C	1.589540	-0.070572	0.383421
C97	C	1.099343	-0.077714	-0.028247
C98	C	1.599343	0.422286	0.471753
C99	C	1.110060	0.027206	0.009919
C100	C	1.610060	0.527206	0.509919
N101	N	1.034027	-0.289983	-0.342897
N102	N	1.534027	0.210017	0.157103
C103	C	1.247007	-0.155953	-0.661745
C104	C	1.747007	0.344047	-0.161745
C105	C	1.221653	-0.171934	-0.772585
C106	C	1.721653	0.328066	-0.272585
C107	C	1.100995	-0.247909	-0.800209
C108	C	1.600995	0.252091	-0.300209
C109	C	1.126335	-0.231929	-0.689367
C110	C	1.626335	0.268071	-0.189367
C111	C	1.199343	-0.185952	-0.620143
C112	C	1.699343	0.314048	-0.120143
C113	C	1.078671	-0.261928	-0.647766
C114	C	1.578671	0.238072	-0.147766
C115	C	1.104014	-0.245954	-0.536935
C116	C	1.604014	0.254046	-0.036935
C117	C	1.177020	-0.199982	-0.467706
C118	C	1.677020	0.300018	0.032294
C119	C	1.224685	-0.169978	-0.509313
C120	C	1.724685	0.330022	-0.009313
C121	C	1.005669	-0.307912	-0.716994
C122	C	1.505669	0.192088	-0.216994
C123	C	0.958005	-0.337911	-0.675393
C124	C	1.458005	0.162089	-0.175393
C125	C	0.983342	-0.321930	-0.564558
C126	C	1.483342	0.178070	-0.064558
C127	C	1.056348	-0.275958	-0.495329
C128	C	1.556348	0.224042	0.004671
C129	C	0.935677	-0.351934	-0.522951
C130	C	1.435677	0.148066	-0.022951
C131	C	0.961019	-0.335960	-0.412120
C132	C	1.461019	0.164040	0.087880
C133	C	1.081691	-0.259984	-0.384498
C134	C	1.581691	0.240016	0.115502
N135	N	1.148663	-0.217905	0.158191
N136	N	1.648663	0.282095	0.658191
H137	H	0.820659	-0.314546	-0.114404
H138	H	1.320659	0.185454	0.385596
H139	H	1.306447	-0.118499	-0.605373
H140	H	1.806447	0.381501	-0.105373
H141	H	1.111530	-0.519207	-0.023826
H142	H	1.611530	-0.019207	0.476174
H143	H	1.031838	-0.569265	-0.372059
H144	H	1.531838	-0.069265	0.127941
H145	H	0.768269	-0.402777	-0.146475
H146	H	1.268269	0.097223	0.353525
H147	H	0.922205	-0.360387	-0.378248
H148	H	1.422205	0.139613	0.121752
H149	H	1.141131	-0.222531	-0.328126
H150	H	1.641131	0.277469	0.171874
H151	H	1.150820	-0.938596	0.187357
H152	H	1.650820	-0.438596	0.687357
H153	H	0.414427	-0.105094	-0.038196
H154	H	0.914427	0.394906	0.461804
H155	H	0.362016	-0.193334	-0.070291
H156	H	0.862016	0.306666	0.429709
H157	H	0.688086	-0.537812	-0.195613
H158	H	1.188086	-0.037812	0.304387
H159	H	0.985043	-0.320924	-0.807242
H160	H	1.485043	0.179076	-0.307242
H161	H	0.807662	0.013845	0.005040
H162	H	1.307662	0.513845	0.505040
H163	H	0.494589	0.029925	0.010914
H164	H	0.994589	0.529925	0.510914
H165	H	0.898564	-0.375350	-0.731771
H166	H	1.398564	0.124650	-0.231771
H167	H	0.876240	-0.389379	-0.579333
H168	H	1.376240	0.110621	-0.079333
H169	H	0.634325	0.072189	0.026285
H170	H	1.134325	0.572189	0.526285
H171	H	0.548357	-0.580071	-0.210980
H172	H	1.048357	-0.080071	0.289020
H173	H	0.375026	-0.521711	-0.189740
H174	H	0.875026	-0.021711	0.310260
H175	H	1.162282	-0.625687	0.210282
H176	H	1.662282	-0.125687	0.710282
H177	H	1.131567	-0.561280	0.068697
H178	H	1.631567	-0.061280	0.568697
H179	H	1.284125	-0.132525	-0.452941
H180	H	1.784125	0.367475	0.047059
H181	H	1.260472	-0.147501	-0.806450
H182	H	1.760472	0.352499	-0.306450
H183	H	1.169121	-0.759756	0.252445
H184	H	1.669121	-0.259756	0.752445
H185	H	1.041554	-0.285348	-0.856587
H186	H	1.541554	0.214652	-0.356587
H187	H	1.071160	-0.988682	-0.160865
H188	H	1.571160	-0.488682	0.339135
H189	H	1.051095	-0.946580	-0.253389
H190	H	1.551095	-0.446580	0.246611
H191	H	1.020411	-0.882202	-0.394965
H192	H	1.520411	-0.382202	0.105035
H193	H	1.013568	-0.748125	-0.437132
H194	H	1.513568	-0.248125	0.062868
H195	H	1.197654	-0.186979	-0.377462
H196	H	1.697654	0.313021	0.122538
