data_functionalizedCrystal
_audit_creation_method	'MofGen! by Chris Wilmer'
_symmetry_space_group_name_H-M	'P1'
_symmetry_Int_Tables_number	1
_symmetry_cell_setting	triclinic
loop_
_symmetry_equiv_pos_as_xyz
  x,y,z
_cell_length_a	14.908783
_cell_length_b	14.908520
_cell_length_c	19.076919
_cell_angle_alpha	84.570994
_cell_angle_beta	91.152445
_cell_angle_gamma	96.791586
loop_
_atom_site_label
_atom_site_type_symbol
_atom_site_fract_x
_atom_site_fract_y
_atom_site_fract_z
Zn1	Zn	1.337223	-0.306432	0.472026
Zn2	Zn	1.334470	-0.451726	0.360746
Zn3	Zn	1.192640	-0.308397	0.347915
Zn4	Zn	1.177086	-0.466474	0.471970
O5	O	1.260355	-0.383257	0.413164
O6	O	1.463232	-0.318711	0.462658
O7	O	1.321013	-0.427364	0.260556
O8	O	1.219480	-0.181175	0.359032
O9	O	1.461209	-0.425458	0.380901
O10	O	1.325705	-0.179731	0.450216
O11	O	1.216811	-0.322061	0.251129
O12	O	1.064202	-0.336361	0.358978
O13	O	1.192971	-0.450594	0.570466
O14	O	1.052775	-0.452500	0.450121
O15	O	1.310623	-0.333012	0.570507
O16	O	1.305931	-0.580645	0.380847
O17	O	1.190302	-0.591480	0.462562
C18	C	1.025721	-0.396245	0.403151
C19	C	0.925342	-0.401824	0.398885
C20	C	0.738805	-0.301318	0.476146
C21	C	0.644490	-0.306557	0.472140
C22	C	0.642395	-0.417535	0.386863
C23	C	0.736710	-0.412296	0.390870
C24	C	0.784912	-0.354187	0.435513
C25	C	0.879229	-0.348953	0.439523
C26	C	0.877132	-0.459926	0.354243
C27	C	0.782816	-0.465165	0.350237
C28	C	1.246154	-0.618982	0.423107
C29	C	1.240160	-0.719822	0.427388
C30	C	1.349416	-0.897965	0.350419
C31	C	1.343788	-0.992714	0.354439
C32	C	1.223279	-1.004069	0.439451
C33	C	1.228908	-0.909320	0.435431
C34	C	1.291977	-0.856272	0.390913
C35	C	1.297601	-0.761522	0.386890
C36	C	1.177097	-0.772878	0.471905
C37	C	1.171469	-0.867627	0.475925
C38	C	1.495904	-0.370220	0.423217
C39	C	1.596281	-0.364664	0.427501
C40	C	1.250369	-0.393229	0.596737
C41	C	1.246114	-0.397478	0.674965
C42	C	1.274635	-0.146612	0.403199
C43	C	1.280720	-0.045768	0.398953
C44	C	1.270357	-0.373257	0.230305
C45	C	1.274802	-0.368742	0.152075
C46	C	1.305367	-0.338258	0.711739
C47	C	1.301358	-0.342248	0.785242
C48	C	1.238100	-0.405462	0.821969
C49	C	1.178841	-0.464685	0.785190
C50	C	1.182846	-0.460690	0.711688
C51	C	1.219549	-0.423970	1.041793
C52	C	1.215550	-0.427962	1.115300
C53	C	1.338066	-0.305523	1.115347
C54	C	1.342069	-0.301538	1.041844
C55	C	1.282807	-0.360757	1.005071
N56	N	1.234003	-0.409544	0.897101
N57	N	1.286901	-0.356671	0.929940
H58	H	1.348953	-0.718330	0.350639
C59	C	1.418790	-0.839610	0.301448
N60	N	1.471046	-0.795658	0.264562
H61	H	1.390562	-1.026656	0.321466
C62	C	1.109248	-0.534213	0.825592
N63	N	1.056828	-0.586583	0.856023
C64	C	1.117665	-0.525838	0.671237
N65	N	1.068566	-0.574909	0.640770
C66	C	1.153906	-1.062438	0.488416
N67	N	1.101652	-1.106402	0.525294
C68	C	1.145955	-0.497503	1.155699
N69	N	1.093539	-0.549880	1.186127
C70	C	1.366543	-0.277102	0.825690
N71	N	1.415643	-0.228032	0.856156
C72	C	1.113910	-0.727008	0.516451
N73	N	1.066318	-0.692458	0.550001
C74	C	0.729784	-0.529083	0.301132
N75	N	0.689840	-0.577230	0.264147
H76	H	0.918473	-0.301638	0.475875
C77	C	0.791829	-0.237402	0.525258
N78	N	0.831766	-0.189259	0.562249
H79	H	0.914681	-0.502983	0.321162
H80	H	0.606954	-0.263503	0.505226
C81	C	0.589357	-0.481442	0.337753
N82	N	0.549408	-0.529578	0.300763
C83	C	1.102091	-0.925990	0.524888
N84	N	1.049830	-0.969949	0.561765
H85	H	1.356881	-0.286785	0.681841
C86	C	1.403240	-0.240376	1.155803
N87	N	1.452326	-0.191300	1.186274
C88	C	1.411650	-0.231988	1.001449
N89	N	1.464058	-0.179601	0.971023
H90	H	1.171306	-0.472203	1.011863
