data_functionalizedCrystal
_audit_creation_method	'MofGen! by Chris Wilmer'
_symmetry_space_group_name_H-M	'P1'
_symmetry_Int_Tables_number	1
_symmetry_cell_setting	triclinic
loop_
_symmetry_equiv_pos_as_xyz
  x,y,z
_cell_length_a	8.559649
_cell_length_b	14.519731
_cell_length_c	7.088929
_cell_angle_alpha	83.763267
_cell_angle_beta	95.325015
_cell_angle_gamma	76.733759
loop_
_atom_site_label
_atom_site_type_symbol
_atom_site_fract_x
_atom_site_fract_y
_atom_site_fract_z
O1	O	2.103667	-0.020642	-0.158956
O2	O	2.603667	0.479358	0.341044
O3	O	1.638604	0.026976	-0.158968
O4	O	2.138604	0.526976	0.341032
O5	O	1.883450	-0.131955	-0.158944
O6	O	2.383450	0.368045	0.341056
O7	O	1.858821	0.138289	-0.158980
O8	O	2.358821	0.638289	0.341020
O9	O	1.916171	-0.153237	0.159034
O10	O	2.416171	0.346763	0.659034
O11	O	1.671325	0.005694	0.159010
O12	O	2.171325	0.505694	0.659010
O13	O	2.136388	-0.041924	0.159023
O14	O	2.636388	0.458076	0.659023
Cu15	Cu	1.906844	-0.020058	0.188050
Cu16	Cu	2.406844	0.479942	0.688050
Cu17	Cu	1.868148	0.005111	-0.187996
Cu18	Cu	2.368148	0.505111	0.312004
O19	O	1.891542	0.117007	0.158999
O20	O	2.391542	0.617007	0.658999
C21	C	1.595445	0.019944	0.000019
C22	C	2.095445	0.519944	0.500019
C23	C	1.418097	0.030685	0.000015
C24	C	1.918097	0.530685	0.500015
C25	C	1.898657	-0.176873	0.000045
C26	C	2.398657	0.323127	0.500045
C27	C	1.895199	-0.279005	0.000046
C28	C	2.395199	0.220995	0.500046
C29	C	1.892389	-0.361947	0.000042
C30	C	2.392389	0.138053	0.500042
C31	C	1.888877	-0.466003	0.000027
C32	C	2.388877	0.033997	0.500027
C33	C	1.886090	-0.548941	0.000015
C34	C	2.386090	-0.048941	0.500015
C35	C	1.882578	-0.653004	0.000004
C36	C	2.382578	-0.153004	0.500004
C37	C	2.179546	-0.034891	0.000031
C38	C	2.679546	0.465109	0.500031
C39	C	2.356893	-0.045632	0.000023
C40	C	2.856893	0.454368	0.500023
C41	C	1.876335	0.161925	0.000005
C42	C	2.376335	0.661925	0.500005
C43	C	1.879791	0.264058	-0.000009
C44	C	2.379791	0.764058	0.499991
N45	N	1.934073	-0.037762	0.452541
N46	N	2.434073	0.462238	0.952541
N47	N	1.840932	0.022806	-0.452487
N48	N	2.340932	0.522806	0.047513
H49	H	1.440170	-0.119188	0.000023
H50	H	1.940170	0.380812	0.500023
C51	C	2.033384	-0.208141	0.514537
C52	C	2.533384	0.291859	1.014537
C53	C	2.064401	-0.122501	0.562769
C54	C	2.564401	0.377499	1.062769
H55	H	2.113847	-0.260453	0.582581
H56	H	2.613847	0.239547	1.082581
H57	H	1.930063	-0.212716	0.547282
H58	H	2.430063	0.287284	1.047282
H59	H	2.035234	-0.209340	0.381038
H60	H	2.535234	0.290660	0.881038
H61	H	2.062539	-0.121299	0.696267
H62	H	2.562539	0.378701	1.196267
H63	H	2.167749	-0.117925	0.530038
H64	H	2.667749	0.382075	1.030038
H65	H	1.334809	0.104247	-0.000005
H66	H	1.834809	0.604247	0.499995
C67	C	1.741627	0.193182	0.485515
C68	C	2.241627	0.693182	0.985515
C69	C	1.710611	0.107540	0.437291
C70	C	2.210611	0.607540	0.937291
H71	H	1.661175	0.245493	0.417449
H72	H	2.161175	0.745493	0.917449
H73	H	1.739767	0.194388	0.618994
H74	H	2.239767	0.694388	1.118994
H75	H	1.844966	0.197752	0.452775
H76	H	2.344966	0.697752	0.952775
H77	H	1.607276	0.102967	0.470045
H78	H	2.107276	0.602967	0.970045
H79	H	1.712454	0.106333	0.303783
H80	H	2.212454	0.606333	0.803783
