data_functionalizedCrystal
_audit_creation_method	'MofGen! by Chris Wilmer'
_symmetry_space_group_name_H-M	'P1'
_symmetry_Int_Tables_number	1
_symmetry_cell_setting	triclinic
loop_
_symmetry_equiv_pos_as_xyz
  x,y,z
_cell_length_a	25.639242
_cell_length_b	29.839131
_cell_length_c	25.639233
_cell_angle_alpha	89.980415
_cell_angle_beta	89.977834
_cell_angle_gamma	90.036947
loop_
_atom_site_label
_atom_site_type_symbol
_atom_site_fract_x
_atom_site_fract_y
_atom_site_fract_z
Zn1	Zn	0.799215	-0.178962	-0.295739
Zn2	Zn	1.132548	0.154372	0.037594
Zn3	Zn	1.465882	0.487705	0.370927
Zn4	Zn	0.799134	-0.254076	-0.208302
Zn5	Zn	1.132468	0.079257	0.125031
Zn6	Zn	1.465801	0.412591	0.458364
Zn7	Zn	0.711791	-0.178955	-0.208303
Zn8	Zn	1.045125	0.154378	0.125030
Zn9	Zn	1.378458	0.487712	0.458363
Zn10	Zn	0.711732	-0.254059	-0.295692
Zn11	Zn	1.045066	0.079274	0.037641
Zn12	Zn	1.378399	0.412607	0.370975
O13	O	0.755468	-0.216513	-0.252009
O14	O	1.088802	0.116820	0.081324
O15	O	1.422135	0.450154	0.414657
O16	O	0.872370	-0.188935	-0.284160
O17	O	1.205703	0.144398	0.049174
O18	O	1.539036	0.477731	0.382507
O19	O	0.787539	-0.244115	-0.135137
O20	O	1.120872	0.089218	0.198196
O21	O	1.454206	0.422551	0.531530
O22	O	0.723447	-0.116089	-0.219922
O23	O	1.056780	0.217245	0.113411
O24	O	1.390114	0.550578	0.446745
O25	O	0.872310	-0.244122	-0.219920
O26	O	1.205644	0.089212	0.113413
O27	O	1.538977	0.422545	0.446746
O28	O	0.787677	-0.116094	-0.284161
O29	O	1.121010	0.217240	0.049173
O30	O	1.454343	0.550573	0.382506
O31	O	0.723369	-0.188924	-0.135138
O32	O	1.056702	0.144409	0.198195
O33	O	1.390035	0.477742	0.531529
O34	O	0.638618	-0.188908	-0.219876
O35	O	0.971952	0.144425	0.113457
O36	O	1.305285	0.477759	0.446790
O37	O	0.723346	-0.244093	-0.368864
O38	O	1.056680	0.089240	-0.035530
O39	O	1.390013	0.422573	0.297803
O40	O	0.638575	-0.244087	-0.284081
O41	O	0.971908	0.089246	0.049253
O42	O	1.305242	0.422580	0.382586
O43	O	0.787619	-0.188919	-0.368898
O44	O	1.120953	0.144414	-0.035565
O45	O	1.454286	0.477747	0.297769
O46	O	0.787482	-0.316941	-0.219875
O47	O	1.120815	0.016392	0.113459
O48	O	1.454149	0.349726	0.446792
O49	O	0.723268	-0.316929	-0.284080
O50	O	1.056601	0.016405	0.049254
O51	O	1.389935	0.349738	0.382587
C52	C	0.619626	-0.216495	-0.251974
C53	C	0.952959	0.116838	0.081360
C54	C	1.286292	0.450171	0.414693
C55	C	0.561512	-0.216499	-0.251971
C56	C	0.894845	0.116835	0.081362
C57	C	1.228178	0.450168	0.414696
C58	C	0.755374	-0.333236	-0.251983
C59	C	1.088707	0.000098	0.081350
C60	C	1.422041	0.333431	0.414683
C61	C	0.755381	-0.383170	-0.251990
C62	C	1.088715	-0.049837	0.081344
C63	C	1.422048	0.283497	0.414677
C64	C	0.201135	-0.245293	-0.285409
C65	C	0.534468	0.088041	0.047925
C66	C	0.867802	0.421374	0.381258
C67	C	0.146531	-0.245295	-0.285417
C68	C	0.479864	0.088038	0.047916
C69	C	0.813197	0.421371	0.381250
O70	O	0.118282	-0.269755	-0.313817
O71	O	0.451616	0.063578	0.019517
O72	O	0.784949	0.396911	0.352850
N73	N	0.119229	-0.216525	-0.252043
N74	N	0.452563	0.116808	0.081290
N75	N	0.785896	0.450141	0.414623
C76	C	0.146535	-0.187748	-0.218663
C77	C	0.479868	0.145586	0.114670
C78	C	0.813202	0.478919	0.448004
O79	O	0.118299	-0.163276	-0.190277
O80	O	0.451632	0.170057	0.143056
O81	O	0.784966	0.503390	0.476389
C82	C	0.201138	-0.187743	-0.218658
C83	C	0.534472	0.145590	0.114676
C84	C	0.867805	0.478924	0.448009
C85	C	0.228437	-0.216518	-0.252030
C86	C	0.561770	0.116815	0.081303
C87	C	0.895104	0.450149	0.414637
C88	C	0.228434	-0.274065	-0.318778
C89	C	0.561767	0.059268	0.014555
C90	C	0.895100	0.392602	0.347888
C91	C	0.283034	-0.274063	-0.318769
C92	C	0.616367	0.059270	0.014564
C93	C	0.949701	0.392604	0.347897
C94	C	0.310336	-0.245288	-0.285390
C95	C	0.643669	0.088045	0.047943
C96	C	0.977003	0.421379	0.381276
C97	C	0.283037	-0.216516	-0.252021
C98	C	0.616371	0.116818	0.081313
C99	C	0.949704	0.450151	0.414646
C100	C	0.228443	-0.158963	-0.185281
C101	C	0.561776	0.174370	0.148053
C102	C	0.895110	0.507704	0.481386
C103	C	0.283050	-0.158961	-0.185279
C104	C	0.616383	0.174373	0.148055
C105	C	0.949717	0.507706	0.481388
C106	C	0.310349	-0.187736	-0.218651
C107	C	0.643682	0.145598	0.114683
C108	C	0.977015	0.478931	0.448016
C109	C	0.364940	-0.187739	-0.218633
C110	C	0.698273	0.145595	0.114700
C111	C	1.031607	0.478928	0.448034
N112	N	0.392241	-0.216509	-0.252006
N113	N	0.725575	0.116825	0.081327
N114	N	1.058908	0.450158	0.414660
C115	C	0.364939	-0.245283	-0.285385
C116	C	0.698273	0.088050	0.047948
C117	C	1.031606	0.421383	0.381281
C118	C	0.031864	-0.187759	-0.218677
C119	C	0.365198	0.145574	0.114656
C120	C	0.698531	0.478908	0.447989
C121	C	-0.022738	-0.187766	-0.218679
C122	C	0.310595	0.145568	0.114654
C123	C	0.643929	0.478901	0.447987
C124	C	-0.022739	-0.245313	-0.285434
C125	C	0.310595	0.088020	0.047899
C126	C	0.643928	0.421354	0.381233
C127	C	0.031865	-0.245308	-0.285429
C128	C	0.365198	0.088025	0.047904
C129	C	0.698531	0.421358	0.381238
C130	C	0.059166	-0.216529	-0.252051
C131	C	0.392499	0.116804	0.081283
C132	C	0.725832	0.450138	0.414616
C133	C	0.479604	-0.245277	-0.285363
C134	C	0.812938	0.088057	0.047970
C135	C	1.146271	0.421390	0.381303
C136	C	0.534210	-0.245273	-0.285350
C137	C	0.867543	0.088060	0.047984
C138	C	1.200876	0.421393	0.381317
C139	C	0.534206	-0.187724	-0.218597
C140	C	0.867539	0.145609	0.114736
C141	C	1.200872	0.478942	0.448069
C142	C	0.479605	-0.187729	-0.218609
C143	C	0.812938	0.145604	0.114725
C144	C	1.146272	0.478937	0.448058
C145	C	0.452306	-0.216507	-0.251996
C146	C	0.785639	0.116826	0.081337
C147	C	1.118972	0.450160	0.414671
O148	O	0.393223	-0.163290	-0.190249
O149	O	0.726556	0.170043	0.143084
O150	O	1.059890	0.503377	0.476418
O151	O	0.393182	-0.269746	-0.313771
O152	O	0.726515	0.063587	0.019562
O153	O	1.059849	0.396920	0.352896
C154	C	0.788965	-0.692807	-0.218627
C155	C	1.122299	-0.359474	0.114707
C156	C	1.455632	-0.026140	0.448040
C157	C	0.789030	-0.880480	-0.218647
C158	C	1.122363	-0.547147	0.114686
C159	C	1.455696	-0.213814	0.448020
O160	O	0.817509	-0.904740	-0.190260
O161	O	1.150843	-0.571406	0.143073
O162	O	1.484176	-0.238073	0.476406
N163	N	0.755577	-0.903955	-0.252049
N164	N	1.088910	-0.570622	0.081285
N165	N	1.422243	-0.237288	0.414618
C166	C	0.722108	-0.880509	-0.285450
C167	C	1.055441	-0.547176	0.047883
C168	C	1.388774	-0.213842	0.381216
O169	O	0.693659	-0.904782	-0.313865
O170	O	1.026992	-0.571449	0.019469
O171	O	1.360326	-0.238115	0.352802
C172	C	0.722046	-0.692837	-0.285432
C173	C	1.055379	-0.359503	0.047901
C174	C	1.388713	-0.026170	0.381235
C175	C	0.755498	-0.669364	-0.252024
C176	C	1.088831	-0.336031	0.081309
C177	C	1.422164	-0.002698	0.414642
C178	C	0.822415	-0.669335	-0.185222
C179	C	1.155748	-0.336001	0.148111
C180	C	1.489081	-0.002668	0.481445
C181	C	0.822396	-0.622419	-0.185215
C182	C	1.155729	-0.289086	0.148118
C183	C	1.489063	0.044247	0.481451
C184	C	0.788928	-0.598976	-0.218613
C185	C	1.122262	-0.265643	0.114720
C186	C	1.455595	0.067690	0.448054
C187	C	0.755479	-0.622449	-0.252018
C188	C	1.088812	-0.289115	0.081316
C189	C	1.422146	0.044218	0.414649
C190	C	0.688580	-0.669391	-0.318836
C191	C	1.021913	-0.336058	0.014497
C192	C	1.355247	-0.002725	0.347831
C193	C	0.688568	-0.622470	-0.318829
C194	C	1.021902	-0.289137	0.014504
C195	C	1.355235	0.044196	0.347837
C196	C	0.722020	-0.598998	-0.285422
C197	C	1.055353	-0.265664	0.047912
C198	C	1.388687	0.067669	0.381245
C199	C	0.721993	-0.552090	-0.285409
C200	C	1.055326	-0.218757	0.047925
C201	C	1.388660	0.114576	0.381258
N202	N	0.755446	-0.528615	-0.252007
N203	N	1.088779	-0.195282	0.081326
N204	N	1.422113	0.138051	0.414660
C205	C	0.788914	-0.552058	-0.218609
C206	C	1.122247	-0.218725	0.114724
C207	C	1.455580	0.114608	0.448058
C208	C	0.722141	-0.979039	-0.285457
C209	C	1.055475	-0.645706	0.047877
C210	C	1.388808	-0.312373	0.381210
C211	C	0.722156	-1.025957	-0.285461
C212	C	1.055489	-0.692624	0.047873
C213	C	1.388823	-0.359291	0.381206
C214	C	0.789079	-1.025925	-0.218658
C215	C	1.122413	-0.692592	0.114676
C216	C	1.455746	-0.359259	0.448009
C217	C	0.789062	-0.979007	-0.218652
C218	C	1.122395	-0.645673	0.114682
C219	C	1.455728	-0.312340	0.448015
C220	C	0.755595	-0.955565	-0.252055
C221	C	1.088928	-0.622231	0.081279
C222	C	1.422261	-0.288898	0.414612
C223	C	0.788872	-0.453533	-0.218597
C224	C	1.122205	-0.120199	0.114736
C225	C	1.455539	0.213134	0.448070
C226	C	0.788849	-0.406613	-0.218592
C227	C	1.122182	-0.073280	0.114742
C228	C	1.455516	0.260054	0.448075
C229	C	0.721928	-0.406649	-0.285396
C230	C	1.055261	-0.073316	0.047937
C231	C	1.388595	0.260018	0.381270
C232	C	0.721949	-0.453564	-0.285400
C233	C	1.055282	-0.120231	0.047933
C234	C	1.388616	0.213102	0.381267
C235	C	0.755425	-0.477005	-0.251999
C236	C	1.088758	-0.143672	0.081335
C237	C	1.422092	0.189662	0.414668
O238	O	0.693533	-0.527802	-0.313784
O239	O	1.026866	-0.194469	0.019549
O240	O	1.360199	0.138865	0.352882
O241	O	0.817366	-0.527777	-0.190207
O242	O	1.150700	-0.194444	0.143126
O243	O	1.484033	0.138889	0.476460
C244	C	0.788984	-0.739723	-0.218633
C245	C	1.122317	-0.406389	0.114700
C246	C	1.455650	-0.073056	0.448033
C247	C	0.755535	-0.763195	-0.252038
C248	C	1.088868	-0.429862	0.081295
C249	C	1.422201	-0.096528	0.414629
C250	C	0.722067	-0.739752	-0.285436
C251	C	1.055400	-0.406419	0.047898
C252	C	1.388733	-0.073085	0.381231
C253	C	0.755549	-0.810113	-0.252042
C254	C	1.088882	-0.476780	0.081291
C255	C	1.422216	-0.143446	0.414625
C256	C	0.789017	-0.833556	-0.218644
C257	C	1.122350	-0.500223	0.114689
C258	C	1.455684	-0.166889	0.448023
C259	C	0.822470	-0.810081	-0.185242
C260	C	1.155803	-0.476748	0.148091
C261	C	1.489137	-0.143414	0.481424
C262	C	0.822451	-0.763166	-0.185235
C263	C	1.155785	-0.429832	0.148098
C264	C	1.489118	-0.096499	0.481431
C265	C	0.688614	-0.763227	-0.318838
C266	C	1.021947	-0.429894	0.014496
C267	C	1.355280	-0.096560	0.347829
C268	C	0.688635	-0.810143	-0.318841
C269	C	1.021968	-0.476809	0.014492
C270	C	1.355301	-0.143476	0.347825
C271	C	0.722102	-0.833585	-0.285443
C272	C	1.055436	-0.500252	0.047890
C273	C	1.388769	-0.166919	0.381223
C274	C	0.891841	-0.216531	-0.252045
C275	C	1.225175	0.116802	0.081288
C276	C	1.558508	0.450136	0.414622
C277	C	0.949955	-0.216539	-0.252060
C278	C	1.283289	0.116794	0.081273
C279	C	1.616622	0.450128	0.414606
C280	C	0.755485	-0.216505	-0.388382
C281	C	1.088819	0.116828	-0.055049
C282	C	1.422152	0.450162	0.278284
C283	C	0.755492	-0.216502	-0.446496
C284	C	1.088826	0.116832	-0.113163
C285	C	1.422159	0.450165	0.220170
C286	C	0.755577	-0.099335	-0.252047
C287	C	1.088911	0.233999	0.081287
C288	C	1.422244	0.567332	0.414620
C289	C	0.755624	-0.049400	-0.252063
C290	C	1.088957	0.283933	0.081271
C291	C	1.422290	0.617266	0.414604
C292	C	0.789002	-0.187687	-0.806883
C293	C	1.122335	0.145646	-0.473550
C294	C	1.455669	0.478979	-0.140217
C295	C	0.789008	-0.187675	-0.861488
C296	C	1.122342	0.145658	-0.528154
C297	C	1.455675	0.478992	-0.194821
O298	O	0.817457	-0.163229	-0.889744
O299	O	1.150790	0.170105	-0.556411
O300	O	1.484124	0.503438	-0.223078
N301	N	0.755550	-0.216396	-0.888779
N302	N	1.088883	0.116937	-0.555446
N303	N	1.422217	0.450270	-0.222112
C304	C	0.722079	-0.245129	-0.861463
C305	C	1.055413	0.088204	-0.528130
C306	C	1.388746	0.421538	-0.194797
O307	O	0.693621	-0.269558	-0.889691
O308	O	1.026954	0.063776	-0.556358
O309	O	1.360287	0.397109	-0.223024
C310	C	0.722071	-0.245139	-0.806860
C311	C	1.055404	0.088194	-0.473527
C312	C	1.388737	0.421528	-0.140193
C313	C	0.755535	-0.216419	-0.779571
C314	C	1.088868	0.116915	-0.446238
C315	C	1.422202	0.450248	-0.112905
C316	C	0.822463	-0.158969	-0.779594
C317	C	1.155796	0.174364	-0.446261
C318	C	1.489130	0.507698	-0.112928
C319	C	0.822457	-0.158982	-0.724994
C320	C	1.155790	0.174351	-0.391661
C321	C	1.489124	0.507685	-0.058327
C322	C	0.788990	-0.187714	-0.697682
C323	C	1.122323	0.145620	-0.364349
C324	C	1.455657	0.478953	-0.031015
C325	C	0.755529	-0.216432	-0.724971
C326	C	1.088862	0.116901	-0.391637
C327	C	1.422196	0.450235	-0.058304
C328	C	0.688598	-0.273869	-0.779545
C329	C	1.021931	0.059464	-0.446212
C330	C	1.355264	0.392798	-0.112879
C331	C	0.688592	-0.273876	-0.724938
C332	C	1.021925	0.059457	-0.391605
C333	C	1.355258	0.392791	-0.058272
C334	C	0.722056	-0.245156	-0.697650
C335	C	1.055389	0.088177	-0.364316
C336	C	1.388722	0.421511	-0.030983
C337	C	0.722056	-0.245176	-0.643058
C338	C	1.055389	0.088157	-0.309725
C339	C	1.388723	0.421490	0.023608
N340	N	0.755514	-0.216455	-0.615767
N341	N	1.088848	0.116879	-0.282434
N342	N	1.422181	0.450212	0.050900
C343	C	0.788981	-0.187723	-0.643079
C344	C	1.122315	0.145610	-0.309745
C345	C	1.455648	0.478943	0.023588
C346	C	0.722100	-0.245106	-0.976134
C347	C	1.055433	0.088228	-0.642801
C348	C	1.388766	0.421561	-0.309467
C349	C	0.722110	-0.245099	-1.030736
C350	C	1.055444	0.088235	-0.697403
C351	C	1.388777	0.421568	-0.364070
C352	C	0.789039	-0.187644	-1.030757
C353	C	1.122372	0.145690	-0.697423
C354	C	1.455706	0.479023	-0.364090
C355	C	0.789030	-0.187653	-0.976153
C356	C	1.122364	0.145680	-0.642820
C357	C	1.455697	0.479013	-0.309487
C358	C	0.755558	-0.216384	-0.948843
C359	C	1.088891	0.116949	-0.615509
C360	C	1.422224	0.450282	-0.282176
C361	C	0.788967	-0.187753	-0.528414
C362	C	1.122300	0.145580	-0.195080
C363	C	1.455633	0.478913	0.138253
C364	C	0.788959	-0.187770	-0.473808
C365	C	1.122293	0.145563	-0.140475
C366	C	1.455626	0.478896	0.192859
C367	C	0.722029	-0.245223	-0.473793
C368	C	1.055363	0.088110	-0.140459
C369	C	1.388696	0.421443	0.192874
C370	C	0.722038	-0.245208	-0.528393
C371	C	1.055372	0.088125	-0.195060
C372	C	1.388705	0.421458	0.138274
C373	C	0.755509	-0.216470	-0.555702
C374	C	1.088842	0.116864	-0.222369
C375	C	1.422175	0.450197	0.110964
O376	O	0.693620	-0.269609	-0.614767
O377	O	1.026954	0.063725	-0.281433
O378	O	1.360287	0.397058	0.051900
O379	O	0.817430	-0.163295	-0.614845
O380	O	1.150764	0.170039	-0.281511
O381	O	1.484097	0.503372	0.051822
C382	C	0.755482	-0.216488	-0.116167
C383	C	1.088815	0.116845	0.217167
C384	C	1.422148	0.450178	0.550500
C385	C	0.755576	-0.216365	-0.058053
C386	C	1.088909	0.116968	0.275280
C387	C	1.422242	0.450301	0.608614
H388	H	0.556434	-0.268707	-0.312526
H389	H	0.889767	0.064626	0.020808
H390	H	1.223101	0.397960	0.354141
N391	N	0.200541	-0.303457	-0.352874
N392	N	0.533875	0.029877	-0.019540
N393	N	0.867208	0.363210	0.313793
N394	N	0.170097	-0.287704	-0.386231
N395	N	0.503430	0.045630	-0.052898
N396	N	0.836763	0.378963	0.280435
H397	H	0.150400	-0.308466	-0.410310
H398	H	0.483733	0.024868	-0.076977
H399	H	0.817066	0.358201	0.256357
H400	H	0.849716	-0.135570	-0.801826
H401	H	1.183049	0.197763	-0.468493
H402	H	1.516383	0.531097	-0.135159
N403	N	-0.050634	-0.274697	-0.319541
N404	N	0.282699	0.058636	0.013792
N405	N	0.616032	0.391970	0.347126
N406	N	-0.044514	-0.271775	-0.367792
N407	N	0.288819	0.061559	-0.034459
N408	N	0.622152	0.394892	0.298875
H409	H	-0.064217	-0.292525	-0.391879
H410	H	0.269116	0.040808	-0.058546
H411	H	0.602449	0.374141	0.274788
H412	H	0.849637	-0.603311	-0.158013
H413	H	1.182970	-0.269977	0.175320
H414	H	1.516303	0.063356	0.508653
H415	H	0.661390	-0.829250	-0.346045
H416	H	0.994723	-0.495916	-0.012712
H417	H	1.328056	-0.162583	0.320621
H418	H	0.816089	-0.387503	-0.191385
H419	H	1.149423	-0.054170	0.141948
H420	H	1.482756	0.279164	0.475281
H421	H	0.457384	-0.268709	-0.312552
H422	H	0.790717	0.064624	0.020782
H423	H	1.124050	0.397957	0.354115
N424	N	0.687931	-0.274433	-1.058616
N425	N	1.021264	0.058901	-0.725282
N426	N	1.354597	0.392234	-0.391949
N427	N	0.687934	-0.274420	-1.107368
N428	N	1.021268	0.058913	-0.774035
N429	N	1.354601	0.392246	-0.440701
H430	H	0.663792	-0.295136	-1.127057
H431	H	0.997125	0.038197	-0.793724
H432	H	1.330458	0.371530	-0.460391
H433	H	0.816212	-0.164382	-0.451592
H434	H	1.149545	0.168951	-0.118259
H435	H	1.482879	0.502284	0.215075
N436	N	0.310928	-0.129555	-0.151184
N437	N	0.644262	0.203778	0.182150
N438	N	0.977595	0.537111	0.515483
N439	N	0.286544	-0.103866	-0.121395
N440	N	0.619877	0.229467	0.211938
N441	N	0.953210	0.562801	0.545271
H442	H	0.306231	-0.083098	-0.097316
H443	H	0.639565	0.250235	0.236017
H444	H	0.972898	0.583569	0.569351
H445	H	0.054088	-0.268739	-0.312604
H446	H	0.387421	0.064594	0.020729
H447	H	0.720754	0.397928	0.354063
N448	N	0.823061	-0.477466	-0.184468
N449	N	1.156395	-0.144133	0.148865
N450	N	1.489728	0.189201	0.482199
N451	N	0.819617	-0.472240	-0.136220
N452	N	1.152950	-0.138907	0.197113
N453	N	1.486283	0.194426	0.530446
H454	H	0.843760	-0.489143	-0.112113
H455	H	1.177093	-0.155810	0.221220
H456	H	1.510427	0.177524	0.554553
N457	N	0.823156	-0.158393	-0.556296
N458	N	1.156489	0.174941	-0.222963
N459	N	1.489822	0.508274	0.110371
N460	N	0.853026	-0.132755	-0.531916
N461	N	1.186359	0.200578	-0.198582
N462	N	1.519693	0.533912	0.134751
H463	H	0.877174	-0.112020	-0.551607
H464	H	1.210507	0.221314	-0.218273
H465	H	1.543840	0.554647	0.115060
H466	H	0.816288	-0.164248	-1.053004
H467	H	1.149622	0.169086	-0.719671
H468	H	1.482955	0.502419	-0.386337
H469	H	0.816279	-0.164266	-0.953939
H470	H	1.149612	0.169067	-0.620605
H471	H	1.482946	0.502401	-0.287272
H472	H	0.661337	-0.688495	-0.346038
H473	H	0.994671	-0.355161	-0.012704
H474	H	1.328004	-0.021828	0.320629
N475	N	0.687769	-0.477545	-0.319512
N476	N	1.021102	-0.144212	0.013822
N477	N	1.354436	0.189121	0.347155
N478	N	0.639524	-0.472350	-0.315988
N479	N	0.972857	-0.139017	0.017345
N480	N	1.306191	0.194316	0.350679
H481	H	0.615386	-0.489285	-0.340082
H482	H	0.948719	-0.155952	-0.006748
H483	H	1.282052	0.177382	0.326585
N484	N	-0.050611	-0.158377	-0.184579
N485	N	0.282722	0.174957	0.148754
N486	N	0.616055	0.508290	0.482088
N487	N	-0.026221	-0.132690	-0.154779
N488	N	0.307112	0.200643	0.178555
N489	N	0.640445	0.533976	0.511888
H490	H	-0.045905	-0.111932	-0.130695
H491	H	0.287429	0.221402	0.202638
H492	H	0.620762	0.554735	0.535971
H493	H	0.556445	-0.164298	-0.191419
H494	H	0.889778	0.169035	0.141914
H495	H	1.223111	0.502368	0.475247
N496	N	0.451725	-0.158339	-0.184512
N497	N	0.785058	0.174994	0.148821
N498	N	1.118392	0.508328	0.482154
N499	N	0.476111	-0.132651	-0.154711
N500	N	0.809444	0.200682	0.178623
N501	N	1.142778	0.534016	0.511956
H502	H	0.456425	-0.111890	-0.130632
H503	H	0.789758	0.221443	0.202701
H504	H	1.123091	0.554777	0.536034
H505	H	0.206226	-0.135532	-0.158104
H506	H	0.539559	0.197801	0.175229
H507	H	0.872893	0.531134	0.508563
H508	H	0.305256	-0.297494	-0.345945
H509	H	0.638589	0.035840	-0.012612
H510	H	0.971922	0.369173	0.320721
N511	N	0.856636	-0.129634	-0.697133
N512	N	1.189970	0.203699	-0.363800
N513	N	1.523303	0.537032	-0.030467
N514	N	0.853203	-0.088180	-0.703246
N515	N	1.186536	0.245154	-0.369913
N516	N	1.519870	0.578487	-0.036580
H517	H	0.877343	-0.067449	-0.683574
H518	H	1.210676	0.265884	-0.350241
H519	H	1.544010	0.599217	-0.016907
N520	N	0.654410	-0.303197	-0.807419
N521	N	0.987743	0.030136	-0.474086
N522	N	1.321076	0.363469	-0.140752
N523	N	0.654410	-0.303187	-0.856171
N524	N	0.987743	0.030146	-0.522838
N525	N	1.321076	0.363479	-0.189505
H526	H	0.630261	-0.323901	-0.875857
H527	H	0.963595	0.009433	-0.542524
H528	H	1.296928	0.342766	-0.209191
N529	N	0.687903	-0.274454	-0.948239
N530	N	1.021237	0.058879	-0.614906
N531	N	1.354570	0.392213	-0.281573
N532	N	0.639663	-0.271466	-0.954332
N533	N	0.972996	0.061867	-0.620998
N534	N	1.306329	0.395201	-0.287665
H535	H	0.615510	-0.292192	-0.934633
H536	H	0.948843	0.041141	-0.601300
H537	H	1.282177	0.374474	-0.267967
H538	H	0.054089	-0.164324	-0.191493
H539	H	0.387423	0.169010	0.141840
H540	H	0.720756	0.502343	0.475174
N541	N	0.856610	-0.693269	-0.151103
N542	N	1.189943	-0.359936	0.182230
N543	N	1.523277	-0.026603	0.515564
N544	N	0.886471	-0.672297	-0.121285
N545	N	1.219804	-0.338964	0.212049
N546	N	1.553138	-0.005630	0.545382
H547	H	0.910622	-0.689198	-0.097184
H548	H	1.243956	-0.355864	0.236150
H549	H	1.577289	-0.022531	0.569483
H550	H	0.816301	-0.959898	-0.191448
H551	H	1.149634	-0.626565	0.141885
H552	H	1.482968	-0.293231	0.475218
H553	H	0.661361	-0.744143	-0.346035
H554	H	0.994694	-0.410810	-0.012702
H555	H	1.328028	-0.077477	0.320632
N556	N	0.856664	-0.834032	-0.151133
N557	N	1.189997	-0.500698	0.182200
N558	N	1.523331	-0.167365	0.515533
N559	N	0.904905	-0.828755	-0.154655
N560	N	1.238239	-0.495422	0.178679
N561	N	1.571572	-0.162088	0.512012
H562	H	0.929055	-0.845672	-0.130568
H563	H	1.262389	-0.512338	0.202765
H564	H	1.595722	-0.179005	0.536099
H565	H	0.661328	-0.297268	-0.702705
H566	H	0.994661	0.036065	-0.369371
H567	H	1.327995	0.369399	-0.036038
N568	N	0.823261	-1.049883	-0.184543
N569	N	1.156594	-0.716550	0.148790
N570	N	1.489928	-0.383217	0.482123
N571	N	0.823265	-1.091774	-0.184556
N572	N	1.156598	-0.758440	0.148777
N573	N	1.489932	-0.425107	0.482110
H574	H	0.847406	-1.108697	-0.160466
H575	H	1.180739	-0.775363	0.172867
H576	H	1.514073	-0.442030	0.506200
N577	N	0.687844	-0.274540	-0.556263
N578	N	1.021177	0.058794	-0.222930
N579	N	1.354511	0.392127	0.110404
N580	N	0.657957	-0.300183	-0.531868
N581	N	0.991291	0.033150	-0.198535
N582	N	1.324624	0.366483	0.134799
H583	H	0.633798	-0.320892	-0.551547
H584	H	0.967131	0.012441	-0.218214
H585	H	1.300464	0.345775	0.115119
N586	N	0.687974	-1.049924	-0.319581
N587	N	1.021308	-0.716591	0.013753
N588	N	1.354641	-0.383257	0.347086
N589	N	0.658096	-1.028981	-0.349396
N590	N	0.991430	-0.695648	-0.016062
N591	N	1.324763	-0.362315	0.317271
H592	H	0.633955	-1.045906	-0.373496
H593	H	0.967289	-0.712573	-0.040163
H594	H	1.300622	-0.379239	0.293171
N595	N	0.856624	-0.739200	-0.151105
N596	N	1.189957	-0.405866	0.182228
N597	N	1.523290	-0.072533	0.515562
N598	N	0.886500	-0.760144	-0.121290
N599	N	1.219833	-0.426811	0.212043
N600	N	1.553167	-0.093477	0.545376
H601	H	0.910636	-0.743221	-0.097184
H602	H	1.243970	-0.409888	0.236149
H603	H	1.577303	-0.076555	0.569483
H604	H	0.694887	-0.959956	-0.312658
H605	H	1.028221	-0.626623	0.020675
H606	H	1.361554	-0.293289	0.354008
N607	N	0.687853	-0.274571	-0.445880
N608	N	1.021186	0.058762	-0.112547
N609	N	1.354519	0.392095	0.220786
N610	N	0.687856	-0.274575	-0.397128
N611	N	1.021189	0.058759	-0.063794
N612	N	1.354522	0.392092	0.269539
H613	H	0.663717	-0.295301	-0.377413
H614	H	0.997050	0.038033	-0.044079
H615	H	1.330384	0.371366	0.289254
N616	N	0.654381	-0.598532	-0.352958
N617	N	0.987715	-0.265199	-0.019624
N618	N	1.321048	0.068134	0.313709
N619	N	0.624521	-0.619499	-0.382782
N620	N	0.957854	-0.286166	-0.049448
N621	N	1.291187	0.047167	0.283885
H622	H	0.600376	-0.602595	-0.406885
H623	H	0.933709	-0.269261	-0.073551
H624	H	1.267042	0.064072	0.259782
H625	H	0.694677	-0.387554	-0.312587
H626	H	1.028011	-0.054221	0.020746
H627	H	1.361344	0.279112	0.354080
