data_functionalizedCrystal
_audit_creation_method	'MofGen! by Chris Wilmer'
_symmetry_space_group_name_H-M	'P1'
_symmetry_Int_Tables_number	1
_symmetry_cell_setting	triclinic
loop_
_symmetry_equiv_pos_as_xyz
  x,y,z
_cell_length_a	16.098538
_cell_length_b	10.723024
_cell_length_c	10.723024
_cell_angle_alpha	84.467869
_cell_angle_beta	92.750045
_cell_angle_gamma	87.235657
loop_
_atom_site_label
_atom_site_type_symbol
_atom_site_fract_x
_atom_site_fract_y
_atom_site_fract_z
O1	O	0.069249	-1.662728	-0.169499
O2	O	0.569249	-1.162728	0.330501
O3	O	0.069251	-1.299576	-0.186252
O4	O	0.569251	-0.799576	0.313748
O5	O	0.069247	-1.489528	0.003701
O6	O	0.569247	-0.989528	0.503701
O7	O	0.069253	-1.472775	-0.359451
O8	O	0.569253	-0.972775	0.140549
O9	O	-0.069266	-1.478432	-0.007352
O10	O	0.430734	-0.978432	0.492648
O11	O	-0.069261	-1.288479	-0.197304
O12	O	0.430739	-0.788479	0.302696
O13	O	-0.069264	-1.651631	-0.180551
O14	O	0.430736	-1.151631	0.319449
Zn15	Zn	-0.091255	-1.468293	-0.190682
Zn16	Zn	0.408745	-0.968293	0.309318
Zn17	Zn	0.091242	-1.482914	-0.176120
Zn18	Zn	0.591242	-0.982914	0.323880
O19	O	-0.069260	-1.461679	-0.370503
O20	O	0.430740	-0.961679	0.129497
C21	C	-0.000005	-1.247528	-0.190559
C22	C	0.499995	-0.747528	0.309441
C23	C	-0.000004	-1.108974	-0.186911
C24	C	0.499996	-0.608974	0.313089
N25	N	-0.215804	-1.458325	-0.200620
N26	N	0.284196	-0.958325	0.299380
C27	C	-0.000009	-1.482761	0.044674
C28	C	0.499991	-0.982761	0.544674
C29	C	-0.000006	-1.479113	0.183229
C30	C	0.499994	-0.979113	0.683229
C31	C	-0.259391	-1.538978	-0.120025
C32	C	0.240609	-1.038978	0.379975
C33	C	-0.346579	-1.532016	-0.126989
C34	C	0.153421	-1.032016	0.373011
C35	C	-0.390180	-1.444406	-0.214554
C36	C	0.109820	-0.944406	0.285446
C37	C	-0.346587	-1.363744	-0.295151
C38	C	0.153413	-0.863744	0.204849
C39	C	-0.259399	-1.370701	-0.288181
C40	C	0.240601	-0.870701	0.211819
C41	C	-0.653429	-1.419187	-0.239801
C42	C	-0.153429	-0.919187	0.260199
C43	C	-0.740622	-1.412239	-0.246768
C44	C	-0.240622	-0.912239	0.253232
C45	C	-0.740609	-1.580510	-0.078603
C46	C	-0.240609	-1.080510	0.421397
C47	C	-0.653420	-1.587464	-0.071645
C48	C	-0.153420	-1.087464	0.428355
C49	C	-0.609835	-1.506798	-0.152238
C50	C	-0.109835	-1.006798	0.347762
C51	C	-0.479301	-1.437291	-0.221676
C52	C	0.020699	-0.937291	0.278324
C53	C	-0.520715	-1.513908	-0.145109
C54	C	-0.020715	-1.013908	0.354891
N55	N	0.215791	-1.492892	-0.166173
N56	N	0.715791	-0.992892	0.333827
C57	C	-0.000006	-1.703679	-0.176244
C58	C	0.499994	-1.203679	0.323756
C59	C	-0.000002	-1.842234	-0.179891
C60	C	0.499998	-1.342234	0.320109
C61	C	-0.000001	-1.033991	-0.293198
C62	C	0.499999	-0.533991	0.206802
C63	C	-0.000000	-0.890788	-0.289431
C64	C	0.500000	-0.390788	0.210569
C65	C	-0.000002	-1.468446	-0.411477
C66	C	0.499998	-0.968446	0.088523
C67	C	0.000000	-1.472094	-0.550031
C68	C	0.500000	-0.972094	-0.050031
C69	C	-0.000005	-1.585401	0.258211
C70	C	0.499995	-1.085401	0.758211
C71	C	-0.000002	-1.581634	0.401415
C72	C	0.499998	-1.081634	0.901415
H73	H	-0.223897	-1.610325	-0.048726
H74	H	0.276103	-1.110325	0.451274
F75	F	-0.607019	-1.680709	0.021549
F76	F	-0.107019	-1.180709	0.521549
F77	F	-0.787001	-1.666353	0.007168
F78	F	-0.287001	-1.166353	0.507168
H79	H	-0.382091	-1.292404	-0.366445
H80	H	0.117909	-0.792404	0.133555
H81	H	0.000001	-1.385328	0.225051
H82	H	0.500001	-0.885328	0.725051
H83	H	-0.514807	-1.365959	-0.292976
H84	H	-0.014807	-0.865959	0.207024
H85	H	-0.000005	-1.075813	-0.386985
H86	H	0.499995	-0.575813	0.113015
H87	H	0.000005	-0.826356	-0.380421
H88	H	0.500005	-0.326356	0.119579
H89	H	-0.382067	-1.597690	-0.061362
H90	H	0.117933	-1.097690	0.438638
F91	F	0.000002	-0.926441	-0.060950
F92	F	0.500002	-0.426441	0.439050
F93	F	-0.787020	-1.318987	-0.339974
F94	F	-0.287020	-0.818987	0.160026
F95	F	-0.000006	-1.353153	0.365762
F96	F	0.499994	-0.853153	0.865762
H97	H	-0.223912	-1.305023	-0.353808
H98	H	0.276088	-0.805023	0.146192
F99	F	-0.000011	-1.054316	-0.064322
F100	F	0.499989	-0.554316	0.435678
H101	H	-0.000006	-1.672624	0.465847
H102	H	0.499994	-1.172624	0.965847
H103	H	-0.000011	-1.679186	0.216389
H104	H	0.499989	-1.179186	0.716389
H105	H	-0.485214	-1.585236	-0.073809
H106	H	0.014786	-1.085236	0.426191
H107	H	-0.617949	-1.353507	-0.305426
H108	H	-0.117949	-0.853507	0.194574
