data_functionalizedCrystal
_audit_creation_method	'MofGen! by Chris Wilmer'
_symmetry_space_group_name_H-M	'P1'
_symmetry_Int_Tables_number	1
_symmetry_cell_setting	triclinic
loop_
_symmetry_equiv_pos_as_xyz
  x,y,z
_cell_length_a	21.295419
_cell_length_b	29.839132
_cell_length_c	21.295412
_cell_angle_alpha	90.031603
_cell_angle_beta	89.976510
_cell_angle_gamma	89.939935
loop_
_atom_site_label
_atom_site_type_symbol
_atom_site_fract_x
_atom_site_fract_y
_atom_site_fract_z
Zn1	Zn	0.962285	0.178687	-0.355907
Zn2	Zn	1.462285	0.678687	0.144093
Zn3	Zn	0.962162	0.253815	-0.250631
Zn4	Zn	1.462162	0.753815	0.249369
Zn5	Zn	0.857010	0.178719	-0.250652
Zn6	Zn	1.357010	0.678719	0.249348
Zn7	Zn	0.856950	0.253810	-0.355862
Zn8	Zn	1.356950	0.753810	0.144138
O9	O	0.909602	0.216258	-0.303263
O10	O	1.409602	0.716258	0.196737
O11	O	1.050358	0.188641	-0.341952
O12	O	1.550358	0.688641	0.158048
O13	O	0.948187	0.243868	-0.162544
O14	O	1.448187	0.743868	0.337456
O15	O	0.871051	0.115847	-0.264642
O16	O	1.371051	0.615847	0.235358
O17	O	1.050267	0.243837	-0.264606
O18	O	1.550267	0.743837	0.235394
O19	O	0.948396	0.115824	-0.341972
O20	O	1.448396	0.615824	0.158028
O21	O	0.870932	0.188695	-0.162560
O22	O	1.370932	0.688695	0.337440
O23	O	0.768912	0.188691	-0.264599
O24	O	1.268912	0.688691	0.235401
O25	O	0.870949	0.243830	-0.443958
O26	O	1.370949	0.743830	0.056042
O27	O	0.768869	0.243861	-0.341896
O28	O	1.268869	0.743861	0.158104
O29	O	0.948338	0.188637	-0.443991
O30	O	1.448338	0.688637	0.056009
O31	O	0.948129	0.316681	-0.264562
O32	O	1.448129	0.816681	0.235438
O33	O	0.870830	0.316678	-0.341876
O34	O	1.370830	0.816678	0.158124
C35	C	0.746050	0.216279	-0.303245
C36	C	1.246050	0.716279	0.196755
C37	C	0.676082	0.216299	-0.303253
C38	C	1.176082	0.716299	0.196747
C39	C	0.643285	0.187606	-0.343589
C40	C	1.143285	0.687606	0.156411
C41	C	0.577542	0.187594	-0.343592
C42	C	1.077542	0.687594	0.156408
C43	C	0.544599	0.216283	-0.303264
C44	C	1.044599	0.716283	0.196736
C45	C	0.577404	0.244979	-0.262920
C46	C	1.077404	0.744979	0.237080
C47	C	0.643146	0.244987	-0.262914
C48	C	1.143146	0.744987	0.237086
N49	N	0.441310	0.255591	-0.298344
N50	N	0.941310	0.755591	0.201656
N51	N	0.378858	0.255582	-0.298353
N52	N	0.878858	0.755582	0.201647
C53	C	0.346525	0.216260	-0.303278
C54	C	0.846525	0.716260	0.196722
N55	N	0.379002	0.176946	-0.308206
N56	N	0.879002	0.676946	0.191794
N57	N	0.441459	0.176956	-0.308201
N58	N	0.941459	0.676956	0.191799
C59	C	0.473314	0.216277	-0.303266
C60	C	0.973314	0.716277	0.196734
C61	C	0.242442	0.187551	-0.343619
C62	C	0.742442	0.687551	0.156381
C63	C	0.176698	0.187538	-0.343617
C64	C	0.676698	0.687538	0.156383
C65	C	0.176562	0.244927	-0.262949
C66	C	0.676562	0.744927	0.237051
C67	C	0.242304	0.244936	-0.262948
C68	C	0.742304	0.744936	0.237052
C69	C	0.275240	0.216248	-0.303286
C70	C	0.775240	0.716248	0.196714
C71	C	0.909477	0.332980	-0.303226
C72	C	1.409477	0.832980	0.196774
C73	C	0.909481	0.382915	-0.303231
C74	C	1.409481	0.882915	0.196769
C75	C	0.949879	0.692547	-0.263039
C76	C	1.449879	1.192547	0.236961
C77	C	0.949939	0.880220	-0.263053
C78	C	1.449939	1.380220	0.236947
O79	O	0.984220	0.904475	-0.228870
O80	O	1.484220	1.404475	0.271130
N81	N	0.909667	0.903700	-0.303273
N82	N	1.409667	1.403700	0.196727
C83	C	0.869380	0.880258	-0.343495
C84	C	1.369380	1.380258	0.156505
O85	O	0.835133	0.904535	-0.377710
O86	O	1.335133	1.404535	0.122290
C87	C	0.869324	0.692586	-0.343484
C88	C	1.369324	1.192586	0.156516
C89	C	0.909594	0.669109	-0.303257
C90	C	1.409594	1.169109	0.196743
C91	C	0.990147	0.669070	-0.222816
C92	C	1.490147	1.169070	0.277184
C93	C	0.990129	0.622154	-0.222810
C94	C	1.490129	1.122154	0.277190
C95	C	0.949844	0.598716	-0.263028
C96	C	1.449844	1.098716	0.236972
C97	C	0.909576	0.622193	-0.303251
C98	C	1.409576	1.122193	0.196749
C99	C	0.829041	0.669145	-0.383709
C100	C	1.329041	1.169145	0.116291
C101	C	0.829031	0.622224	-0.383704
C102	C	1.329031	1.122224	0.116296
C103	C	0.869301	0.598747	-0.343476
C104	C	1.369301	1.098747	0.156524
C105	C	0.869273	0.551840	-0.343463
C106	C	1.369273	1.051840	0.156537
N107	N	0.909545	0.528360	-0.303243
N108	N	1.409545	1.028360	0.196757
C109	C	0.949830	0.551798	-0.263026
C110	C	1.449830	1.051798	0.236974
C111	C	0.869412	0.978789	-0.343498
C112	C	1.369412	1.478789	0.156502
C113	C	0.869425	1.025707	-0.343500
C114	C	1.369425	1.525707	0.156500
C115	C	0.949985	1.025665	-0.263059
C116	C	1.449985	1.525665	0.236941
C117	C	0.949968	0.978747	-0.263054
C118	C	1.449968	1.478747	0.236946
C119	C	0.909684	0.955309	-0.303278
C120	C	1.409684	1.455309	0.196722
C121	C	0.949790	0.453272	-0.263017
C122	C	1.449790	0.953272	0.236983
C123	C	0.949766	0.406353	-0.263013
C124	C	1.449766	0.906353	0.236987
C125	C	0.869209	0.406398	-0.343456
C126	C	1.369209	0.906398	0.156544
C127	C	0.869230	0.453314	-0.343458
C128	C	1.369230	0.953314	0.156542
C129	C	0.909525	0.476750	-0.303236
C130	C	1.409525	0.976750	0.196764
O131	O	0.835016	0.527555	-0.377634
O132	O	1.335016	1.027555	0.122366
O133	O	0.984083	0.527513	-0.228826
O134	O	1.484083	1.027513	0.271174
C135	C	0.949897	0.739462	-0.263045
C136	C	1.449897	1.239462	0.236955
C137	C	0.909630	0.762940	-0.303268
C138	C	1.409630	1.262940	0.196732
C139	C	0.869345	0.739502	-0.343486
C140	C	1.369345	1.239502	0.156514
C141	C	0.909643	0.809858	-0.303270
C142	C	1.409643	1.309858	0.196730
C143	C	0.949928	0.833296	-0.263052
C144	C	1.449928	1.333296	0.236948
C145	C	0.990200	0.809816	-0.222832
C146	C	1.490200	1.309816	0.277168
C147	C	0.990182	0.762901	-0.222827
C148	C	1.490182	1.262901	0.277173
C149	C	0.829073	0.762981	-0.383706
C150	C	1.329073	1.262981	0.116294
C151	C	0.829093	0.809897	-0.383708
C152	C	1.329093	1.309897	0.116292
C153	C	0.869379	0.833335	-0.343490
C154	C	1.369379	1.333335	0.156510
C155	C	1.073792	0.216236	-0.303281
C156	C	1.573792	0.716236	0.196719
C157	C	1.143760	0.216227	-0.303289
C158	C	1.643760	0.716227	0.196711
C159	C	0.909651	0.216230	-0.467453
C160	C	1.409651	0.716230	0.032547
C161	C	0.909672	0.216218	-0.537422
C162	C	1.409672	0.716218	-0.037422
C163	C	0.909720	1.099079	-0.303301
C164	C	1.409720	1.599079	0.196699
C165	C	0.909710	1.049145	-0.303282
C166	C	1.409710	1.549145	0.196718
C167	C	0.869456	0.187486	-0.570286
C168	C	1.369456	0.687486	-0.070286
C169	C	0.869454	0.187478	-0.636029
C170	C	1.369454	0.687478	-0.136029
C171	C	0.909679	0.216196	-0.668904
C172	C	1.409679	0.716196	-0.168904
C173	C	0.949897	0.244934	-0.636031
C174	C	1.449897	0.744934	-0.136031
C175	C	0.949894	0.244944	-0.570290
C176	C	1.449894	0.744944	-0.070290
N177	N	0.964782	0.219617	-0.772142
N178	N	1.464782	0.719617	-0.272142
N179	N	0.964783	0.219604	-0.834594
N180	N	1.464783	0.719604	-0.334594
C181	C	0.909690	0.216166	-0.866979
C182	C	1.409690	0.716166	-0.366979
N183	N	0.854594	0.212733	-0.834553
N184	N	1.354594	0.712733	-0.334553
N185	N	0.854594	0.212743	-0.772096
N186	N	1.354594	0.712743	-0.272096
C187	C	0.909686	0.216188	-0.740190
C188	C	1.409686	0.716188	-0.240190
C189	C	0.869468	0.187424	-0.971129
C190	C	1.369468	0.687424	-0.471129
C191	C	0.869465	0.187419	-1.036873
C192	C	1.369465	0.687419	-0.536873
C193	C	0.949914	0.244872	-1.036874
C194	C	1.449914	0.744872	-0.536874
C195	C	0.949912	0.244880	-0.971132
C196	C	1.449912	0.744880	-0.471132
C197	C	0.909690	0.216153	-0.938263
C198	C	1.409690	0.716153	-0.438263
C199	C	0.909589	0.216253	-0.139712
C200	C	1.409589	0.716253	0.360288
C201	C	0.909690	0.216138	-0.069744
C202	C	1.409690	0.716138	0.430256
H203	H	0.149740	0.268286	-0.230114
H204	H	0.649740	0.768286	0.269886
H205	H	0.982787	1.044757	-0.230312
H206	H	1.482787	1.544757	0.269688
H207	H	0.982648	0.268316	-0.662802
H208	H	1.482648	0.768316	-0.162802
H209	H	0.982668	0.268255	-1.063640
H210	H	1.482668	0.768255	-0.563640
H211	H	0.269008	0.268303	-0.230104
H212	H	0.769008	0.768303	0.269896
H213	H	0.836706	0.164079	-0.662793
H214	H	1.336706	0.664079	-0.162793
N215	N	0.828390	0.158087	-0.937537
N216	N	1.328390	0.658087	-0.437537
N217	N	0.850576	0.129463	-0.900876
N218	N	1.350576	0.629463	-0.400876
H219	H	0.821566	0.108743	-0.877150
H220	H	1.321566	0.608743	-0.377150
N221	N	0.676660	0.274300	-0.221721
N222	N	1.176660	0.774300	0.278279
N223	N	0.735357	0.274306	-0.221726
N224	N	1.235357	0.774306	0.278274
H225	H	0.759029	0.295009	-0.192634
H226	H	1.259029	0.795009	0.307366
H227	H	0.796268	0.743901	-0.416457
H228	H	1.296268	1.243901	0.083543
N229	N	0.143207	0.158223	-0.384828
N230	N	0.643207	0.658223	0.115172
N231	N	0.150573	0.161259	-0.442906
N232	N	0.650573	0.661259	0.057094
H233	H	0.126921	0.140554	-0.472012
H234	H	0.626921	0.640554	0.027988
N235	N	1.031343	0.833770	-0.181750
N236	N	1.531343	1.333770	0.318250
N237	N	1.031345	0.875660	-0.181766
N238	N	1.531345	1.375660	0.318234
H239	H	1.060401	0.892580	-0.152755
H240	H	1.560401	1.392580	0.347245
N241	N	0.991006	0.274214	-0.937547
N242	N	1.491006	0.774214	-0.437547
N243	N	0.991004	0.274215	-0.878851
N244	N	1.491004	0.774215	-0.378851
H245	H	1.020029	0.294932	-0.855130
H246	H	1.520029	0.794932	-0.355130
H247	H	0.670097	0.164246	-0.376435
H248	H	1.170097	0.664246	0.123565
N249	N	0.990936	0.477208	-0.221919
N250	N	1.490936	0.977208	0.278081
N251	N	0.968814	0.503423	-0.181785
N252	N	1.468814	1.003423	0.318215
H253	H	0.997869	0.520328	-0.152756
H254	H	1.497869	1.020328	0.347244
H255	H	0.982645	0.268341	-0.543532
H256	H	1.482645	0.768341	-0.043532
N257	N	0.543758	0.274278	-0.221718
N258	N	1.043758	0.774278	0.278282
N259	N	0.507081	0.258428	-0.181650
N260	N	1.007081	0.758428	0.318350
H261	H	0.483319	0.279120	-0.152546
H262	H	0.983319	0.779120	0.347454
H263	H	0.550833	0.164226	-0.376437
H264	H	1.050833	0.664226	0.123563
N265	N	0.990904	0.382379	-0.221912
N266	N	1.490904	0.882379	0.278088
N267	N	1.026869	0.403315	-0.186008
N268	N	1.526869	0.903315	0.313992
H269	H	1.055922	0.386386	-0.156981
H270	H	1.555922	0.886386	0.343019
H271	H	0.982760	0.959634	-0.230298
H272	H	1.482760	1.459634	0.269702
H273	H	0.269260	0.164189	-0.376461
H274	H	0.769260	0.664189	0.123539
N275	N	0.787963	0.833875	-0.424810
N276	N	1.287963	1.333875	0.075190
N277	N	0.810104	0.860013	-0.464950
N278	N	1.310104	1.360013	0.035050
H279	H	0.781061	0.876947	-0.493981
H280	H	1.281061	1.376947	0.006019
H281	H	1.022955	0.688148	-0.190065
H282	H	1.522955	1.188148	0.309935
H283	H	1.022922	0.603042	-0.190056
H284	H	1.522922	1.103042	0.309944
H285	H	0.836440	0.472430	-0.376216
H286	H	1.336440	0.972430	0.123784
H287	H	0.836712	0.164024	-1.063631
H288	H	1.336712	0.664024	-0.563631
H289	H	0.836606	0.959709	-0.376254
H290	H	1.336606	1.459709	0.123746
N291	N	0.828276	1.049678	-0.384585
N292	N	1.328276	1.549678	0.115415
N293	N	0.792312	1.028740	-0.420488
N294	N	1.292312	1.528740	0.079512
H295	H	0.763250	1.045668	-0.449508
H296	H	1.263250	1.545668	0.050492
H297	H	0.836407	0.387308	-0.376199
H298	H	1.336407	0.887308	0.123801
N299	N	0.787901	0.693112	-0.424804
N300	N	1.287901	1.193112	0.075196
N301	N	0.751943	0.672170	-0.460710
N302	N	1.251943	1.172170	0.039290
H303	H	0.722885	0.689096	-0.489737
H304	H	1.222885	1.189096	0.010263
H305	H	0.836702	0.164096	-0.543529
H306	H	1.336702	0.664096	-0.043529
H307	H	0.796228	0.603144	-0.416461
H308	H	1.296228	1.103144	0.083539
N309	N	1.031320	0.738930	-0.181730
N310	N	1.531320	1.238930	0.318270
N311	N	1.067282	0.759870	-0.145827
N312	N	1.567282	1.259870	0.354173
H313	H	1.096338	0.742944	-0.116799
H314	H	1.596338	1.242944	0.383201
