data_functionalizedCrystal
_audit_creation_method	'MofGen! by Chris Wilmer'
_symmetry_space_group_name_H-M	'P1'
_symmetry_Int_Tables_number	1
_symmetry_cell_setting	triclinic
loop_
_symmetry_equiv_pos_as_xyz
  x,y,z
_cell_length_a	12.759394
_cell_length_b	14.908618
_cell_length_c	14.908308
_cell_angle_alpha	90.173623
_cell_angle_beta	86.731597
_cell_angle_gamma	93.290508
loop_
_atom_site_label
_atom_site_type_symbol
_atom_site_fract_x
_atom_site_fract_y
_atom_site_fract_z
Zn1	Zn	-0.548328	-1.345339	0.587628
Zn2	Zn	-0.714508	-1.353933	0.437272
Zn3	Zn	-0.528144	-1.203653	0.428622
Zn4	Zn	-0.713255	-1.194961	0.578919
O5	O	-0.626059	-1.274471	0.508110
O6	O	-0.579345	-1.472305	0.574948
O7	O	-0.681864	-1.341232	0.310300
O8	O	-0.383804	-1.222488	0.449739
O9	O	-0.701436	-1.478619	0.464482
O10	O	-0.398634	-1.326585	0.566560
O11	O	-0.544943	-1.230822	0.303945
O12	O	-0.543727	-1.076673	0.441294
O13	O	-0.699300	-1.207674	0.705899
O14	O	-0.679727	-1.070287	0.551717
O15	O	-0.578129	-1.318157	0.712297
O16	O	-0.861359	-1.332804	0.456037
O17	O	-0.860438	-1.216008	0.560105
C18	C	-0.609402	-1.040855	0.494622
C19	C	-0.602302	-0.940911	0.488874
C20	C	-0.730778	-0.746515	0.592900
C21	C	-0.724111	-0.652609	0.587502
C22	C	-0.582297	-0.659191	0.472684
C23	C	-0.588964	-0.753097	0.478082
C24	C	-0.663208	-0.796756	0.538191
C25	C	-0.669879	-0.890664	0.543584
C26	C	-0.528061	-0.897244	0.428772
C27	C	-0.521394	-0.803338	0.423374
C28	C	-0.899021	-1.274418	0.508085
C29	C	-1.015803	-1.274476	0.508109
C30	C	-1.016721	-1.396178	0.399835
C31	C	-1.072042	-1.457051	0.345709
C32	C	-1.181769	-1.457102	0.345737
C33	C	-1.236177	-1.396275	0.399898
C34	C	-1.180855	-1.335402	0.454023
C35	C	-1.071126	-1.335356	0.453988
C36	C	-1.179939	-1.213707	0.562301
C37	C	-1.070211	-1.213650	0.562270
C38	C	-1.234346	-1.152880	0.616462
C39	C	-1.179024	-1.092001	0.670584
C40	C	-1.069290	-1.091951	0.670553
C41	C	-1.014889	-1.152776	0.616396
C42	C	-0.352034	-1.274548	0.508156
C43	C	-0.235260	-1.274580	0.508176
C44	C	-0.640826	-1.260987	0.742635
C45	C	-0.647119	-1.255241	0.842576
C46	C	-0.642773	-0.509000	0.521644
C47	C	-0.649874	-0.608944	0.527395
C48	C	-0.611277	-1.287954	0.274500
C49	C	-0.604700	-1.293875	0.174570
C50	C	-0.532744	-1.359486	1.037039
C51	C	-0.538653	-1.354090	1.130943
C52	C	-0.664840	-1.239049	1.124287
C53	C	-0.658931	-1.244445	1.030384
C54	C	-0.592882	-1.304667	0.986764
C55	C	-0.586979	-1.310067	0.892859
C56	C	-0.713160	-1.195022	0.886205
C57	C	-0.719069	-1.189626	0.980108
H58	H	-0.460944	-0.767779	0.374437
C59	C	-0.776856	-0.505737	0.630210
C60	C	-0.798385	-0.597382	0.647638
H61	H	-0.822708	-0.471643	0.667343
H62	H	-0.787233	-0.493810	0.568898
H63	H	-0.706029	-0.489602	0.642587
H64	H	-0.869211	-0.613517	0.635255
H65	H	-0.788017	-0.609314	0.708965
H66	H	-0.791235	-0.782062	0.641838
H67	H	-0.473043	-0.938161	0.384222
C68	C	-0.385680	-1.378091	0.932168
C69	C	-0.460155	-1.425683	0.989081
H70	H	-0.340873	-1.418962	0.902558
H71	H	-0.345003	-1.336834	0.966546
H72	H	-0.420660	-1.346212	0.888791
H73	H	-0.425175	-1.457557	1.032463
H74	H	-0.500837	-1.466957	0.954701
C75	C	-1.398475	-1.170905	0.703377
C76	C	-1.354961	-1.152942	0.616496
H77	H	-1.472938	-1.170947	0.703395
H78	H	-1.373320	-1.125947	0.743353
H79	H	-1.378691	-1.228012	0.722297
H80	H	-1.374738	-1.095831	0.597579
H81	H	-1.380126	-1.197903	0.576507
H82	H	-1.223332	-1.042484	0.714681
H83	H	-0.489680	-1.398728	1.171874
H84	H	-0.718614	-1.190019	1.159820
C85	C	-0.760138	-1.152209	0.739305
C86	C	-0.779268	-1.134757	0.830939
H87	H	-0.800948	-1.115003	0.705188
H88	H	-0.778850	-1.213498	0.727407
H89	H	-0.687642	-1.139947	0.723171
H90	H	-0.851764	-1.147026	0.847074
H91	H	-0.760563	-1.073455	0.842842
C92	C	-0.439905	-1.328652	0.787997
C93	C	-0.514374	-1.376255	0.844907
H94	H	-0.395082	-1.369515	0.758393
H95	H	-0.399243	-1.287385	0.822377
H96	H	-0.474889	-1.296783	0.744615
H97	H	-0.479390	-1.408119	0.888293
H98	H	-0.555040	-1.417538	0.810525
C99	C	-0.784159	-1.130273	1.121101
C100	C	-0.791670	-1.123435	1.028062
H101	H	-0.828988	-1.089413	1.150702
H102	H	-0.713609	-1.116240	1.135734
H103	H	-0.804804	-1.189803	1.139967
H104	H	-0.771018	-1.063906	1.009195
H105	H	-0.862235	-1.137462	1.013423
H106	H	-0.925543	-1.152736	0.616359
C107	C	-0.809374	-0.874721	0.656544
C108	C	-0.751480	-0.938655	0.609660
H109	H	-0.859745	-0.904348	0.697342
H110	H	-0.844424	-0.840340	0.615207
H111	H	-0.763213	-0.836122	0.688891
H112	H	-0.797641	-0.977250	0.577307
H113	H	-0.716428	-0.973051	0.651002
C114	C	-0.509057	-0.518155	0.413489
C115	C	-0.500654	-0.611189	0.406652
H116	H	-0.458646	-0.488522	0.372729
H117	H	-0.496539	-0.499336	0.473048
H118	H	-0.577684	-0.503511	0.399311
H119	H	-0.432029	-0.625833	0.420837
H120	H	-0.513164	-0.630015	0.347080
H121	H	-0.927374	-1.396131	0.399795
H122	H	-1.027734	-1.506577	0.301614
H123	H	-1.226813	-1.506675	0.301668
H124	H	-1.325524	-1.396330	0.399923
C125	C	-1.079417	-0.971667	0.777593
C126	C	-1.008485	-1.025038	0.730053
H127	H	-1.041878	-0.930355	0.814323
H128	H	-1.127111	-1.008863	0.814281
H129	H	-1.117354	-0.939574	0.736413
H130	H	-0.970552	-1.057136	0.771234
H131	H	-0.960772	-0.987837	0.693363
