data_functionalizedCrystal
_audit_creation_method	'MofGen! by Chris Wilmer'
_symmetry_space_group_name_H-M	'P1'
_symmetry_Int_Tables_number	1
_symmetry_cell_setting	triclinic
loop_
_symmetry_equiv_pos_as_xyz
  x,y,z
_cell_length_a	27.731993
_cell_length_b	26.809956
_cell_length_c	19.188930
_cell_angle_alpha	89.990297
_cell_angle_beta	97.117412
_cell_angle_gamma	90.004510
loop_
_atom_site_label
_atom_site_type_symbol
_atom_site_fract_x
_atom_site_fract_y
_atom_site_fract_z
O1	O	0.641206	0.041351	-0.082895
O2	O	1.141206	0.541351	0.417105
O3	O	0.500448	0.041382	-0.095567
O4	O	1.000448	0.541382	0.404433
O5	O	0.574889	0.041356	0.012452
O6	O	1.074889	0.541356	0.512452
O7	O	0.566765	0.041377	-0.190914
O8	O	1.066765	0.541377	0.309086
O9	O	0.574866	-0.041603	0.012452
O10	O	1.074866	0.458397	0.512452
O11	O	0.500425	-0.041577	-0.095567
O12	O	1.000425	0.458423	0.404433
O13	O	0.641183	-0.041608	-0.082895
O14	O	1.141183	0.458392	0.417105
Zn15	Zn	0.570800	-0.054764	-0.089231
Zn16	Zn	1.070800	0.445236	0.410769
Zn17	Zn	0.570830	0.054538	-0.089231
Zn18	Zn	1.070830	0.554538	0.410769
O19	O	0.566742	-0.041582	-0.190914
O20	O	1.066742	0.458418	0.309086
C21	C	0.482428	-0.000094	-0.095307
C22	C	0.982428	0.499906	0.404693
C23	C	0.428769	-0.000082	-0.094523
C24	C	0.928769	0.499918	0.405477
C25	C	0.045604	0.045114	-0.088846
C26	C	0.545604	0.545114	0.411154
C27	C	0.247271	0.045128	-0.091832
C28	C	0.747271	0.545128	0.408168
O29	O	0.273356	0.083588	-0.092190
O30	O	0.773356	0.583588	0.407810
N31	N	0.272480	-0.000092	-0.092205
N32	N	0.772480	0.499908	0.407795
C33	C	0.247269	-0.045319	-0.091828
C34	C	0.747269	0.454681	0.408172
O35	O	0.273339	-0.083781	-0.092207
O36	O	0.773339	0.416219	0.407793
C37	C	0.045604	-0.045332	-0.088837
C38	C	0.545604	0.454668	0.411163
C39	C	0.020397	-0.000109	-0.088471
C40	C	0.520397	0.499891	0.411529
C41	C	0.020397	0.090333	-0.088479
C42	C	0.520397	0.590333	0.411521
C43	C	-0.030017	0.090329	-0.087736
C44	C	0.469983	0.590329	0.412264
C45	C	-0.055224	0.045106	-0.087361
C46	C	0.444776	0.545106	0.412639
C47	C	-0.030017	-0.000113	-0.087728
C48	C	0.469983	0.499887	0.412272
C49	C	0.020395	-0.090558	-0.088455
C50	C	0.520395	0.409442	0.411545
C51	C	-0.030024	-0.090558	-0.087705
C52	C	0.469976	0.409442	0.412295
C53	C	-0.055231	-0.045335	-0.087339
C54	C	0.444769	0.454665	0.412661
C55	C	-0.105638	-0.045340	-0.086610
C56	C	0.394362	0.454660	0.413390
N57	N	-0.130847	-0.000120	-0.086237
N58	N	0.369153	0.499880	0.413763
C59	C	-0.105640	0.045103	-0.086612
C60	C	0.394360	0.545103	0.413388
C61	C	0.353146	-0.045309	-0.093399
C62	C	0.853146	0.454691	0.406601
C63	C	0.403562	-0.045305	-0.094148
C64	C	0.903562	0.454695	0.405852
C65	C	0.403560	0.045142	-0.094151
C66	C	0.903560	0.545142	0.405849
C67	C	0.353143	0.045138	-0.093407
C68	C	0.853143	0.545138	0.406593
C69	C	0.327937	-0.000089	-0.093026
C70	C	0.827937	0.499911	0.406974
C71	C	-0.211513	0.045091	-0.085053
C72	C	0.288487	0.545091	0.414947
C73	C	-0.261931	0.045083	-0.084314
C74	C	0.238069	0.545083	0.415686
C75	C	-0.261925	-0.045363	-0.084307
C76	C	0.238075	0.454637	0.415693
C77	C	-0.211511	-0.045355	-0.085051
C78	C	0.288489	0.454645	0.414949
C79	C	-0.186306	-0.000124	-0.085421
C80	C	0.313694	0.499876	0.414579
O81	O	-0.131753	-0.083780	-0.086244
O82	O	0.368247	0.416220	0.413756
O83	O	-0.131717	0.083559	-0.086217
O84	O	0.368283	0.583559	0.413783
C85	C	0.096018	0.045118	-0.089588
C86	C	0.596018	0.545118	0.410412
C87	C	0.121225	-0.000101	-0.089956
C88	C	0.621225	0.499899	0.410044
C89	C	0.096018	-0.045325	-0.089580
C90	C	0.596018	0.454675	0.410420
C91	C	0.171641	-0.000098	-0.090705
C92	C	0.671641	0.499902	0.409295
C93	C	0.196848	0.045125	-0.091080
C94	C	0.696848	0.545125	0.408920
C95	C	0.171639	0.090345	-0.090706
C96	C	0.671639	0.590345	0.409294
C97	C	0.121225	0.090341	-0.089964
C98	C	0.621225	0.590341	0.410036
C99	C	0.121227	-0.090545	-0.089954
C100	C	0.621227	0.409455	0.410046
C101	C	0.171641	-0.090537	-0.090697
C102	C	0.671641	0.409463	0.409303
C103	C	0.196848	-0.045314	-0.091073
C104	C	0.696848	0.454686	0.408927
N105	N	0.570783	-0.129360	-0.089230
N106	N	1.070783	0.370640	0.410770
C107	C	0.600050	-0.473989	-0.131270
C108	C	1.100050	0.026011	0.368730
C109	C	0.600066	-0.682866	-0.131270
C110	C	1.100066	-0.182866	0.368730
O111	O	0.624937	-0.709872	-0.167006
O112	O	1.124937	-0.209872	0.332994
N113	N	0.570842	-0.708987	-0.089224
N114	N	1.070842	-0.208987	0.410776
C115	C	0.541615	-0.682886	-0.047171
C116	C	1.041615	-0.182886	0.452829
O117	O	0.516762	-0.709896	-0.011403
O118	O	1.016762	-0.209896	0.488597
C119	C	0.541602	-0.474009	-0.047169
C120	C	1.041602	0.025991	0.452831
C121	C	0.570824	-0.447891	-0.089223
C122	C	1.070824	0.052109	0.410777
C123	C	0.629271	-0.447870	-0.173321
C124	C	1.129271	0.052130	0.326679
C125	C	0.629264	-0.395654	-0.173323
C126	C	1.129264	0.104346	0.326677
C127	C	0.600038	-0.369556	-0.131276
C128	C	1.100038	0.130444	0.368724
C129	C	0.570818	-0.395674	-0.089225
C130	C	1.070818	0.104326	0.410775
C131	C	0.512377	-0.447909	-0.005113
C132	C	1.012377	0.052091	0.494887
C133	C	0.512378	-0.395686	-0.005115
C134	C	1.012378	0.104314	0.494885
C135	C	0.541600	-0.369568	-0.047169
C136	C	1.041600	0.130432	0.452831
C137	C	0.541585	-0.317360	-0.047181
C138	C	1.041585	0.182640	0.452819
N139	N	0.570809	-0.291239	-0.089227
N140	N	1.070809	0.208761	0.410773
C141	C	0.600036	-0.317337	-0.131274
C142	C	1.100036	0.182663	0.368726
C143	C	0.541623	-0.792549	-0.047177
C144	C	1.041623	-0.292549	0.452823
C145	C	0.541625	-0.844768	-0.047178
C146	C	1.041625	-0.344768	0.452822
C147	C	0.600077	-0.844745	-0.131276
C148	C	1.100077	-0.344745	0.368724
C149	C	0.600072	-0.792525	-0.131278
C150	C	1.100072	-0.292525	0.368722
C151	C	0.570846	-0.766428	-0.089223
C152	C	1.070846	-0.266428	0.410777
C153	C	0.600020	-0.207679	-0.131277
C154	C	1.100020	0.292321	0.368723
C155	C	0.600010	-0.155458	-0.131278
C156	C	1.100010	0.344542	0.368722
C157	C	0.541560	-0.155486	-0.047178
C158	C	1.041560	0.344514	0.452822
C159	C	0.541568	-0.207702	-0.047179
C160	C	1.041568	0.292298	0.452821
C161	C	0.570802	-0.233798	-0.089231
C162	C	1.070802	0.266202	0.410769
O163	O	0.516731	-0.290322	-0.011457
O164	O	1.016731	0.209678	0.488543
O165	O	0.624893	-0.290318	-0.167025
O166	O	1.124893	0.209682	0.332975
C167	C	0.600057	-0.526205	-0.131268
C168	C	1.100057	-0.026205	0.368732
C169	C	0.570836	-0.552323	-0.089218
C170	C	1.070836	-0.052323	0.410782
C171	C	0.541610	-0.526225	-0.047170
C172	C	1.041610	-0.026225	0.452830
C173	C	0.570839	-0.604542	-0.089219
C174	C	1.070839	-0.104542	0.410781
C175	C	0.600065	-0.630640	-0.131267
C176	C	1.100065	-0.130640	0.368733
C177	C	0.629289	-0.604519	-0.173313
C178	C	1.129289	-0.104519	0.326687
C179	C	0.629283	-0.552303	-0.173315
C180	C	1.129283	-0.052303	0.326685
C181	C	0.512386	-0.552347	-0.005124
C182	C	1.012386	-0.052347	0.494876
C183	C	0.512394	-0.604563	-0.005125
C184	C	1.012394	-0.104563	0.494875
C185	C	0.541621	-0.630661	-0.047173
C186	C	1.041621	-0.130661	0.452827
C187	C	0.659203	-0.000132	-0.083155
C188	C	1.159203	0.499868	0.416845
C189	C	0.712862	-0.000140	-0.083938
C190	C	1.212862	0.499860	0.416062
C191	C	0.574614	-0.000125	0.038461
C192	C	1.074614	0.499875	0.538461
C193	C	0.573825	-0.000129	0.115960
C194	C	1.073825	0.499871	0.615960
N195	N	0.570851	0.129134	-0.089226
N196	N	1.070851	0.629134	0.410774
C197	C	0.567017	-0.000100	-0.216923
C198	C	1.067017	0.499900	0.283077
C199	C	0.567806	-0.000093	-0.294422
C200	C	1.067806	0.499907	0.205578
C201	C	0.617504	-0.000141	0.161175
C202	C	1.117504	0.499859	0.661175
C203	C	0.616762	-0.000133	0.233994
C204	C	1.116762	0.499867	0.733994
C205	C	0.572338	-0.000123	0.261595
C206	C	1.072338	0.499877	0.761595
C207	C	0.528653	-0.000108	0.216370
C208	C	1.028653	0.499892	0.716370
C209	C	0.529396	-0.000111	0.143553
C210	C	1.029396	0.499889	0.643553
N211	N	0.538373	-0.028348	0.369374
N212	N	1.038373	0.471652	0.869374
N213	N	0.537670	-0.028346	0.438548
N214	N	1.037670	0.471654	0.938548
C215	C	0.570096	-0.000112	0.480989
C216	C	1.070096	0.499888	0.980989
N217	N	0.603259	0.028113	0.451644
N218	N	1.103259	0.528113	0.951644
N219	N	0.603964	0.028109	0.382464
N220	N	1.103964	0.528109	0.882464
C221	C	0.571527	-0.000119	0.340552
C222	C	1.071527	0.499881	0.840552
C223	C	0.612975	-0.000115	0.605163
C224	C	1.112975	0.499885	1.105163
C225	C	0.612231	-0.000104	0.677982
C226	C	1.112231	0.499896	1.177982
C227	C	0.524120	-0.000084	0.660357
C228	C	1.024120	0.499916	1.160357
C229	C	0.524865	-0.000090	0.587538
C230	C	1.024865	0.499910	1.087538
C231	C	0.569294	-0.000108	0.559946
C232	C	1.069294	0.499892	1.059946
H233	H	-0.050544	-0.127387	-0.087401
H234	H	0.449456	0.372613	0.412599
H235	H	0.493826	-0.000102	0.106738
H236	H	0.993826	0.499898	0.606738
H237	H	0.623867	-0.771263	-0.165522
H238	H	1.123867	-0.271263	0.334478
H239	H	0.517822	-0.771306	-0.012929
H240	H	1.017822	-0.271306	0.487071
Br241	Br	0.639742	-0.880173	-0.188339
Br242	Br	1.139742	-0.380173	0.311661
H243	H	0.489296	-0.000083	0.550723
H244	H	0.989296	0.499917	1.050723
Br245	Br	0.639695	-0.243086	-0.188347
Br246	Br	1.139695	0.256914	0.311653
H247	H	-0.282453	0.081911	-0.084017
H248	H	0.217547	0.581911	0.415983
Br249	Br	0.639666	-0.120015	-0.188363
Br250	Br	1.139666	0.379985	0.311637
H251	H	0.652333	-0.000141	0.270815
H252	H	1.152333	0.499859	0.770815
H253	H	0.487949	-0.000073	0.682828
H254	H	0.987949	0.499927	1.182828
H255	H	0.424092	0.081964	-0.094459
H256	H	0.924092	0.581964	0.405541
Br257	Br	0.501956	-0.880208	0.009884
Br258	Br	1.001956	-0.380208	0.509884
Br259	Br	0.205858	0.151719	-0.091220
Br260	Br	0.705858	0.651719	0.408780
H261	H	0.040910	-0.127384	-0.088751
H262	H	0.540910	0.372616	0.411249
Br263	Br	0.205844	-0.151917	-0.091202
Br264	Br	0.705844	0.348083	0.408798
Br265	Br	0.087023	0.151719	-0.089467
Br266	Br	0.587023	0.651719	0.410533
Br267	Br	0.472710	-0.516936	0.051935
Br268	Br	0.972710	-0.016936	0.551935
H269	H	0.100709	-0.127372	-0.089645
H270	H	0.600709	0.372628	0.410355
Br271	Br	0.668939	-0.516865	-0.230398
Br272	Br	1.168939	-0.016865	0.269602
Br273	Br	0.668950	-0.639948	-0.230381
Br274	Br	1.168950	-0.139948	0.269619
H275	H	-0.190997	0.081923	-0.085356
H276	H	0.309003	0.581923	0.414644
Br277	Br	0.472718	-0.360272	0.051971
Br278	Br	0.972718	0.139728	0.551971
H279	H	0.332629	-0.082139	-0.093087
H280	H	0.832629	0.417861	0.406913
Br281	Br	-0.064218	0.151707	-0.087233
Br282	Br	0.435782	0.651707	0.412767
Br283	Br	0.673269	-0.000144	0.567711
Br284	Br	1.173269	0.499856	1.067711
H285	H	0.647802	-0.000111	0.714796
H286	H	1.147802	0.499889	1.214796
Br287	Br	0.472728	-0.640003	0.051948
Br288	Br	0.972728	-0.140003	0.551948
Br289	Br	0.318939	0.106514	-0.092909
Br290	Br	0.818939	0.606514	0.407091
H291	H	-0.190987	-0.082180	-0.085363
H292	H	0.309013	0.417820	0.414637
Br293	Br	0.437764	-0.106682	-0.094663
Br294	Br	0.937764	0.393318	0.405337
Br295	Br	0.668916	-0.360216	-0.230414
Br296	Br	1.168916	0.139784	0.269586
H297	H	0.653073	-0.469114	-0.207561
H298	H	1.153073	0.030886	0.292439
H299	H	0.492482	-0.000099	0.238847
H300	H	0.992482	0.499901	0.738847
Br301	Br	0.501903	-0.243150	0.009886
Br302	Br	1.001903	0.256850	0.509886
Br303	Br	-0.296144	-0.106735	-0.083802
Br304	Br	0.203856	0.393265	0.416198
Br305	Br	0.677800	-0.000152	0.123731
Br306	Br	1.177800	0.499848	0.623731
H307	H	0.040916	0.127162	-0.088782
H308	H	0.540916	0.627162	0.411218
H309	H	0.488582	-0.469165	0.029133
H310	H	0.988582	0.030835	0.529133
Br311	Br	0.501895	-0.120057	0.009882
Br312	Br	1.001895	0.379943	0.509882
