data_functionalizedCrystal
_audit_creation_method	'MofGen! by Chris Wilmer'
_symmetry_space_group_name_H-M	'P1'
_symmetry_Int_Tables_number	1
_symmetry_cell_setting	triclinic
loop_
_symmetry_equiv_pos_as_xyz
  x,y,z
_cell_length_a	13.033409
_cell_length_b	29.839131
_cell_length_c	13.032268
_cell_angle_alpha	82.859460
_cell_angle_beta	74.837427
_cell_angle_gamma	82.872582
loop_
_atom_site_label
_atom_site_type_symbol
_atom_site_fract_x
_atom_site_fract_y
_atom_site_fract_z
Zn1	Zn	1.547172	-0.284725	0.393900
Zn2	Zn	2.047172	0.215275	0.893900
Zn3	Zn	1.569562	-0.351386	0.216298
Zn4	Zn	2.069562	0.148614	0.716298
Zn5	Zn	1.392141	-0.267828	0.238909
Zn6	Zn	1.892141	0.232172	0.738909
Zn7	Zn	1.369479	-0.351369	0.416449
Zn8	Zn	1.869479	0.148631	0.916449
O9	O	1.469589	-0.313827	0.316389
O10	O	1.969589	0.186173	0.816389
O11	O	1.698759	-0.300646	0.351441
O12	O	2.198759	0.199354	0.851441
O13	O	1.564881	-0.333237	0.070669
O14	O	2.064881	0.166763	0.570669
O15	O	1.412820	-0.207210	0.259494
O16	O	1.912820	0.292790	0.759494
O17	O	1.715208	-0.349621	0.220957
O18	O	2.215208	0.150379	0.720957
O19	O	1.526721	-0.219624	0.373365
O20	O	2.026721	0.280376	0.873365
O21	O	1.434530	-0.271848	0.087281
O22	O	1.934530	0.228152	0.587281
O23	O	1.240518	-0.271832	0.281359
O24	O	1.740518	0.228168	0.781359
O25	O	1.374197	-0.349593	0.562086
O26	O	1.874197	0.150407	1.062086
O27	O	1.223869	-0.333208	0.411797
O28	O	1.723869	0.166792	0.911797
O29	O	1.504747	-0.300630	0.545519
O30	O	2.004747	0.199370	1.045519
O31	O	1.542907	-0.414243	0.242823
O32	O	2.042907	0.085757	0.742823
O33	O	1.395907	-0.414230	0.389873
O34	O	1.895907	0.085770	0.889873
C35	C	1.193659	-0.300685	0.351479
C36	C	1.693659	0.199315	0.851479
C37	C	1.075612	-0.295075	0.366517
C38	C	1.575612	0.204925	0.866517
C39	C	0.909123	-0.310960	0.324103
C40	C	1.409123	0.189040	0.824103
C41	C	1.031132	-0.316760	0.308556
C42	C	1.531132	0.183240	0.808556
C43	C	1.469404	-0.430538	0.316360
C44	C	1.969404	0.069462	0.816360
C45	C	1.469417	-0.480474	0.316372
C46	C	1.969417	0.019526	0.816372
C47	C	1.546242	-0.790132	0.239903
C48	C	2.046242	-0.290132	0.739903
C49	C	1.546368	-0.977813	0.239928
C50	C	2.046368	-0.477813	0.739928
O51	O	1.611541	-1.002081	0.174891
O52	O	2.111541	-0.502081	0.674891
N53	N	1.469799	-1.001283	0.316441
N54	N	1.969799	-0.501283	0.816441
C55	C	1.393197	-0.977831	0.392957
C56	C	1.893197	-0.477831	0.892957
O57	O	1.328079	-1.002101	0.458044
O58	O	1.828079	-0.502101	0.958044
C59	C	1.393076	-0.790151	0.392937
C60	C	1.893076	-0.290151	0.892937
C61	C	1.469644	-0.766682	0.316412
C62	C	1.969644	-0.266682	0.816412
C63	C	1.622805	-0.766663	0.163386
C64	C	2.122805	-0.266663	0.663386
C65	C	1.622769	-0.719745	0.163377
C66	C	2.122769	-0.219745	0.663377
C67	C	1.546171	-0.696296	0.239885
C68	C	2.046171	-0.196296	0.739885
C69	C	1.469608	-0.719765	0.316403
C70	C	1.969608	-0.219765	0.816403
C71	C	1.316480	-0.766700	0.469457
C72	C	1.816480	-0.266700	0.969457
C73	C	1.316458	-0.719777	0.469447
C74	C	1.816458	-0.219777	0.969447
C75	C	1.393026	-0.696309	0.392922
C76	C	1.893026	-0.196309	0.892922
C77	C	1.392974	-0.649397	0.392903
C78	C	1.892974	-0.149397	0.892903
N79	N	1.469544	-0.625927	0.316390
N80	N	1.969544	-0.125927	0.816390
C81	C	1.546142	-0.649376	0.239881
C82	C	2.046142	-0.149376	0.739881
C83	C	1.393264	-1.076365	0.392962
C84	C	1.893264	-0.576365	0.892962
C85	C	1.393293	-1.123285	0.392966
C86	C	1.893293	-0.623285	0.892966
C87	C	1.546466	-1.123264	0.239937
C88	C	2.046466	-0.623264	0.739937
C89	C	1.546431	-1.076343	0.239929
C90	C	2.046431	-0.576343	0.739929
C91	C	1.469833	-1.052895	0.316449
C92	C	1.969833	-0.552895	0.816449
C93	C	1.546061	-0.550845	0.239868
C94	C	2.046061	-0.050845	0.739868
C95	C	1.546015	-0.503923	0.239863
C96	C	2.046015	-0.003923	0.739863
C97	C	1.392846	-0.503949	0.392894
C98	C	1.892846	-0.003949	0.892894
C99	C	1.392887	-0.550866	0.392896
C100	C	1.892887	-0.050866	0.892896
C101	C	1.469504	-0.574314	0.316378
C102	C	1.969504	-0.074314	0.816378
O103	O	1.327843	-0.625101	0.457913
O104	O	1.827843	-0.125101	0.957913
O105	O	1.611264	-0.625100	0.174819
O106	O	2.111264	-0.125100	0.674819
C107	C	1.546278	-0.837050	0.239912
C108	C	2.046278	-0.337050	0.739912
C109	C	1.469716	-0.860518	0.316430
C110	C	1.969716	-0.360518	0.816430
C111	C	1.393118	-0.837069	0.392939
C112	C	1.893118	-0.337069	0.892939
C113	C	1.469744	-0.907438	0.316434
C114	C	1.969744	-0.407438	0.816434
C115	C	1.546343	-0.930887	0.239925
C116	C	2.046343	-0.430887	0.739925
C117	C	1.622912	-0.907417	0.163412
C118	C	2.122912	-0.407417	0.663412
C119	C	1.622876	-0.860499	0.163403
C120	C	2.122876	-0.360499	0.663403
C121	C	1.316548	-0.860539	0.469452
C122	C	1.816548	-0.360539	0.969452
C123	C	1.316589	-0.907457	0.469454
C124	C	1.816589	-0.407457	0.969454
C125	C	1.393188	-0.930906	0.392945
C126	C	1.893188	-0.430906	0.892945
C127	C	1.746596	-0.327021	0.281162
C128	C	2.246596	0.172979	0.781162
C129	C	1.864639	-0.332643	0.266150
C130	C	2.364639	0.167357	0.766150
C131	C	1.434446	-0.326994	0.593418
C132	C	1.934446	0.173006	1.093418
C133	C	1.419471	-0.332606	0.711471
C134	C	1.919471	0.167394	1.211471
C135	C	1.469800	-0.196663	0.316437
C136	C	1.969800	0.303337	0.816437
C137	C	1.469891	-0.146734	0.316457
C138	C	1.969891	0.353266	0.816457
C139	C	1.504655	-0.300681	0.040430
C140	C	2.004655	0.199319	0.540430
C141	C	1.519837	-0.294953	-0.077649
C142	C	2.019837	0.205047	0.422351
C143	C	1.477388	-0.310881	0.755906
C144	C	1.977388	0.189119	1.255906
C145	C	1.461911	-0.316680	0.877920
C146	C	1.961911	0.183320	1.377920
H147	H	1.023374	-0.272217	0.427649
H148	H	1.523374	0.227783	0.927649
C149	C	1.602306	-0.264026	0.851730
C150	C	2.102306	0.235974	1.351730
H151	H	1.601896	-0.264187	0.778986
H152	H	2.101896	0.235813	1.278986
H153	H	1.584537	-0.233960	0.871846
H154	H	2.084537	0.266040	1.371846
H155	H	1.671372	-0.274858	0.860777
H156	H	2.171372	0.225142	1.360777
H157	H	1.685186	-0.785751	0.101082
H158	H	2.185186	-0.285751	0.601082
C159	C	1.101688	-0.347643	0.225978
C160	C	1.601688	0.152357	0.725978
H161	H	1.057957	-0.360497	0.191641
H162	H	1.557957	0.139503	0.691641
H163	H	1.150835	-0.330277	0.174298
H164	H	1.650835	0.169723	0.674298
H165	H	1.139788	-0.371214	0.261062
H166	H	1.639788	0.128786	0.761062
C167	C	0.935199	-0.363524	0.183577
C168	C	1.435199	0.136476	0.683577
H169	H	0.891468	-0.376378	0.149240
H170	H	1.391468	0.123622	0.649240
H171	H	0.984346	-0.346158	0.131897
H172	H	1.484346	0.153842	0.631897
H173	H	0.973299	-0.387096	0.218661
H174	H	1.473299	0.112904	0.718661
C175	C	1.630247	-0.478110	0.155687
C176	C	2.130247	0.021890	0.655687
H177	H	1.675877	-0.498800	0.110132
H178	H	2.175877	0.001200	0.610132
H179	H	1.595527	-0.455699	0.114531
H180	H	2.095527	0.044301	0.614531
H181	H	1.671320	-0.463915	0.190476
H182	H	2.171320	0.036085	0.690476
C183	C	1.630727	-1.149062	0.155781
C184	C	2.130727	-0.649062	0.655781
H185	H	1.676329	-1.128368	0.110203
H186	H	2.176329	-0.628368	0.610203
H187	H	1.671809	-1.171474	0.190580
H188	H	2.171809	-0.671474	0.690580
H189	H	1.596021	-1.163256	0.114630
H190	H	2.096021	-0.663256	0.614630
H191	H	1.685120	-0.700640	0.101067
H192	H	2.185120	-0.200640	0.601067
C193	C	1.232260	-0.792506	0.553642
C194	C	1.732260	-0.292506	1.053642
H195	H	1.186654	-0.771815	0.599209
H196	H	1.686654	-0.271815	1.099209
H197	H	1.191178	-0.806704	0.518878
H198	H	1.691178	-0.306704	1.018878
H199	H	1.266996	-0.814916	0.594798
H200	H	1.766996	-0.314916	1.094798
C201	C	1.337004	-0.363531	0.782093
C202	C	1.837004	0.136469	1.282093
H203	H	1.302669	-0.376406	0.738394
H204	H	1.802669	0.123594	1.238394
H205	H	1.372141	-0.387080	0.820193
H206	H	1.872141	0.112920	1.320193
H207	H	1.285307	-0.346182	0.831252
H208	H	1.785307	0.153818	1.331252
H209	H	1.254229	-0.926561	0.531769
H210	H	1.754229	-0.426561	1.031769
H211	H	1.538427	-0.287988	0.703618
H212	H	2.038427	0.212012	1.203618
C213	C	1.379447	-0.347610	0.948543
C214	C	1.879447	0.152390	1.448543
H215	H	1.379870	-0.347453	1.021284
H216	H	1.879870	0.152547	1.521284
H217	H	1.310383	-0.336785	0.939497
H218	H	1.810383	0.163215	1.439497
H219	H	1.397232	-0.377678	0.928426
H220	H	1.897232	0.122322	1.428426
H221	H	0.856881	-0.288106	0.385232
H222	H	1.356881	0.211894	0.885232
C223	C	1.630662	-1.050532	0.155761
C224	C	2.130662	-0.550532	0.655761
H225	H	1.676285	-1.071222	0.110203
H226	H	2.176285	-0.571222	0.610203
H227	H	1.595946	-1.028118	0.114607
H228	H	2.095946	-0.528118	0.614607
H229	H	1.671741	-1.036341	0.190550
H230	H	2.171741	-0.536341	0.690550
H231	H	1.330886	-1.057277	0.455275
H232	H	1.830886	-0.557277	0.955275
C233	C	1.630329	-0.576630	0.155693
C234	C	2.130329	-0.076630	0.655693
H235	H	1.675909	-0.555927	0.110120
H236	H	2.175909	-0.055927	0.610120
H237	H	1.671434	-0.599042	0.190468
H238	H	2.171434	-0.099042	0.690468
H239	H	1.595621	-0.590823	0.114542
H240	H	2.095621	-0.090823	0.614542
C241	C	1.309065	-1.149097	0.477135
C242	C	1.809065	-0.649097	0.977135
H243	H	1.320040	-1.180399	0.466183
H244	H	1.820040	-0.680399	0.966183
H245	H	1.315493	-1.145517	0.546536
H246	H	1.815493	-0.645517	1.046536
H247	H	1.239692	-1.137301	0.470599
H248	H	1.739692	-0.637301	0.970599
H249	H	1.254083	-0.700688	0.531761
H250	H	1.754083	-0.200688	1.031761
H251	H	1.330543	-0.569976	0.455212
H252	H	1.830543	-0.069976	0.955212
H253	H	1.330478	-0.484848	0.455184
H254	H	1.830478	0.015152	0.955184
C255	C	1.707109	-0.834690	0.079233
C256	C	2.207109	-0.334690	0.579233
H257	H	1.752732	-0.855382	0.033681
H258	H	2.252732	-0.355382	0.533681
H259	H	1.672394	-0.812277	0.038074
H260	H	2.172394	-0.312277	0.538074
H261	H	1.748186	-0.820497	0.114020
H262	H	2.248186	-0.320497	0.614020
H263	H	1.685278	-0.926517	0.101114
H264	H	2.185278	-0.426517	0.601114
H265	H	1.254174	-0.841451	0.531756
H266	H	1.754174	-0.341451	1.031756
