data_functionalizedCrystal
_audit_creation_method	'MofGen! by Chris Wilmer'
_symmetry_space_group_name_H-M	'P1'
_symmetry_Int_Tables_number	1
_symmetry_cell_setting	triclinic
loop_
_symmetry_equiv_pos_as_xyz
  x,y,z
_cell_length_a	14.446369
_cell_length_b	14.446369
_cell_length_c	14.446369
_cell_angle_alpha	60.001874
_cell_angle_beta	90.002026
_cell_angle_gamma	60.000221
loop_
_atom_site_label
_atom_site_type_symbol
_atom_site_fract_x
_atom_site_fract_y
_atom_site_fract_z
Zr1	Zr	0.891804	1.013153	-0.121446
O2	O	0.744002	1.206266	-0.269253
O3	O	0.937109	0.820040	-0.076134
O4	O	0.937116	1.013143	-0.269245
O5	O	0.743995	1.013172	0.076187
O6	O	1.089453	1.013134	-0.269240
O7	O	0.743995	1.013164	-0.076142
O8	O	1.089441	0.667710	0.076201
O9	O	0.744007	1.358597	-0.269254
O10	O	1.070124	0.899464	-0.056806
O11	O	0.956437	0.899477	0.056871
O12	O	0.956445	1.126830	-0.170492
O13	O	0.842757	1.126842	-0.056815
Zr14	Zr	1.134764	1.013153	0.121510
Zr15	Zr	1.134765	1.013140	-0.121437
Zr16	Zr	0.891804	1.013167	0.121501
Zr17	Zr	0.891812	1.256103	-0.121447
Zr18	Zr	1.134756	0.770203	0.121511
O19	O	1.089459	1.206266	0.076198
O20	O	1.089460	1.206247	-0.269241
O21	O	0.744001	1.206285	0.076186
O22	O	1.282567	0.820040	0.269318
O23	O	1.282567	0.820021	-0.076121
O24	O	0.937109	0.820059	0.269305
O25	O	1.282574	1.013134	-0.076122
O26	O	1.089452	1.013164	0.269310
O27	O	0.937115	1.013172	0.269304
O28	O	1.282574	1.013143	0.076206
O29	O	0.937128	1.358586	-0.269247
O30	O	1.089441	0.667720	0.269311
O31	O	1.282562	0.667710	0.269318
O32	O	1.282562	0.667699	0.076208
O33	O	0.744006	1.358608	-0.076144
O34	O	0.937127	1.358597	-0.076137
O35	O	1.070124	0.899477	0.170557
O36	O	1.183812	0.899464	0.056880
O37	O	1.070132	1.126830	-0.056807
O38	O	0.956444	1.126842	0.056870
C39	C	1.013274	0.709260	0.000034
C40	C	1.013271	0.606121	0.000034
C41	C	0.709378	1.013170	0.000021
C42	C	0.606235	1.013176	0.000017
C43	C	1.013285	1.013137	-0.303857
C44	C	1.013285	1.013131	-0.406995
C45	C	0.387871	1.156560	-0.071324
C46	C	0.495103	1.156657	-0.071725
C47	C	0.602909	0.941943	-0.052281
C48	C	0.495141	0.942854	-0.052804
C49	C	0.496504	0.939910	0.123747
C50	C	0.602473	0.942613	0.123552
C51	C	1.317190	1.013137	0.000043
C52	C	1.420333	1.013131	0.000047
C53	C	0.941563	0.566840	0.071740
C54	C	0.941892	0.459205	0.072120
C55	C	1.136859	0.371400	0.051956
C56	C	1.136450	0.478646	0.052501
C57	C	0.962418	0.653837	-0.123639
C58	C	0.959939	0.547664	-0.123455
C59	C	1.013294	1.317047	0.000031
C60	C	1.013298	1.420185	0.000030
C61	C	1.085340	0.869747	-0.481974
C62	C	1.085028	0.869650	-0.374645
C63	C	0.889757	1.084363	-0.481559
C64	C	0.890152	1.083453	-0.588418
C65	C	1.063759	1.086396	-0.589985
C66	C	1.066259	1.083694	-0.481314
C67	C	1.013284	1.013170	0.303921
C68	C	1.013284	1.013176	0.407059
C69	C	1.317180	0.709243	0.000045
C70	C	1.420320	0.606099	0.000049
C71	C	1.013274	0.709276	0.303923
C72	C	1.013270	0.606143	0.407061
C73	C	1.317180	0.709260	0.303934
C74	C	1.420319	0.606121	0.407076
C75	C	0.709389	1.317047	-0.303870
C76	C	0.606249	1.420185	-0.407012
C77	C	0.709388	1.317063	0.000019
C78	C	0.606249	1.420208	0.000015
C79	C	1.013295	1.317030	-0.303859
C80	C	1.013298	1.420163	-0.406997
C81	C	1.638684	0.459782	0.071382
C82	C	1.531455	0.566707	0.071788
C83	C	1.423644	0.479247	0.052346
C84	C	1.531409	0.371867	0.052864
C85	C	1.530042	0.546831	-0.123688
C86	C	1.424077	0.655305	-0.123488
C87	C	0.941216	0.459838	0.482041
C88	C	0.941524	0.566755	0.374712
C89	C	1.136799	0.479288	0.481620
C90	C	1.136408	0.371916	0.588479
C91	C	0.962807	0.546893	0.590058
C92	C	0.960303	0.655359	0.481386
C93	C	1.495301	0.459791	0.625436
C94	C	1.387970	0.566732	0.518206
C95	C	1.494859	0.479272	0.410390
C96	C	1.601720	0.371878	0.518158
C97	C	1.603340	0.546816	0.516818
C98	C	1.494666	0.655306	0.410850
H99	H	0.493345	1.212829	-0.036918
H100	H	1.007336	0.687483	0.506909
O101	O	1.316692	0.517148	0.521420
H102	H	1.307080	0.515714	0.446009
H103	H	1.443272	0.745763	0.411416
H104	H	0.850918	0.495749	0.037325
O105	O	0.987886	0.519319	0.191870
H106	H	0.921042	0.582678	0.211760
H107	H	1.607471	0.586373	0.566845
H108	H	0.605046	0.991412	-0.142443
H109	H	1.692642	0.497017	0.036481
O110	O	1.706948	0.513968	0.480469
H111	H	1.680204	0.572044	0.386536
H112	H	0.849062	1.034894	-0.429958
H113	H	1.492977	0.497018	0.679402
H114	H	0.868905	0.587116	-0.162249
O115	O	0.994576	1.226350	-0.693599
H116	H	0.958704	1.293551	-0.666866
O117	O	1.003959	1.222364	-0.515148
H118	H	0.933948	1.243252	-0.479369
H119	H	0.873217	0.586469	0.594171
H120	H	1.050650	0.813736	-0.480941
O121	O	1.319227	0.697854	-0.199853
H122	H	1.324634	0.731984	-0.286312
O123	O	1.598102	0.251657	0.173436
H124	H	1.675575	0.173922	0.175002
H125	H	1.502593	0.522041	-0.177114
O126	O	0.316400	1.231148	-0.025105
H127	H	0.233123	1.318155	-0.091764
O128	O	1.601352	0.251671	0.584837
H129	H	1.600089	0.228336	0.670420
O130	O	1.533586	0.685063	0.025334
H131	H	1.611393	0.666265	0.002381
O132	O	0.532858	0.799951	0.194508
H133	H	0.626793	0.732765	0.225831
O134	O	1.190707	0.428187	0.413279
H135	H	1.129748	0.492905	0.326230
O136	O	0.430261	1.000709	0.181621
H137	H	0.342298	1.083802	0.122856
H138	H	1.424600	0.745789	-0.162554
O139	O	0.428437	1.009913	-0.173376
H140	H	0.473302	1.041393	-0.230761
O141	O	1.211010	0.508757	0.517680
H142	H	1.243758	0.449493	0.611634
O143	O	1.528486	0.697860	0.306009
H144	H	1.492681	0.684548	0.249326
H145	H	1.693667	0.370119	0.162080
H146	H	1.533912	0.529246	0.163040
O147	O	1.496120	0.332157	-0.011525
H148	H	1.402229	0.389656	-0.042887
O149	O	0.707324	0.803954	0.199923
H150	H	0.701916	0.757040	0.286381
O151	O	1.319971	0.508698	-0.013177
H152	H	1.264843	0.614315	-0.083878
O153	O	0.839758	0.775236	0.413280
H154	H	0.817652	0.799678	0.326851
H155	H	0.332888	1.212574	-0.162022
H156	H	0.850020	0.497081	0.479703
H157	H	0.850562	0.656105	0.320441
H158	H	1.522098	0.501516	0.332131
O159	O	0.601826	1.011372	0.175331
H160	H	0.604177	1.095452	0.113352
O161	O	0.836833	1.016131	-0.587825
H162	H	0.748421	1.070023	-0.588832
H163	H	1.680302	0.341911	0.491508
O164	O	0.815570	1.224091	-0.517592
H165	H	0.782815	1.291553	-0.611543
O166	O	1.205520	0.795599	-0.302739
H167	H	1.254043	0.693310	-0.277375
H168	H	0.975899	0.370173	0.481008
H169	H	0.976536	0.529285	0.320928
H170	H	1.443236	0.440735	0.408242
H171	H	0.681174	0.836446	-0.002800
O172	O	0.491867	1.231149	-0.192593
H173	H	0.489818	1.183224	-0.232491
O174	O	0.530425	0.803471	0.011586
H175	H	0.624315	0.735716	0.042953
H176	H	1.006843	0.526476	-0.181293
O177	O	0.820732	0.684341	0.025910
H178	H	0.810490	0.771999	-0.048461
H179	H	1.421510	0.440694	0.142509
H180	H	1.176537	0.813450	-0.479631
O181	O	0.988696	0.341358	0.192956
H182	H	1.011190	0.361111	0.251347
O183	O	1.191137	0.248970	0.171329
H184	H	1.278470	0.215420	0.207134
H185	H	1.192637	0.342888	0.002212
H186	H	1.157270	1.031746	-0.429892
O187	O	1.190325	0.424605	0.173030
H188	H	1.216420	0.322272	0.230380
H189	H	1.192812	0.500891	0.003623
O190	O	0.815167	1.222844	-0.692507
H191	H	0.866157	1.244816	-0.746159
H192	H	0.872776	0.747424	-0.167052
O193	O	1.032019	0.514069	0.693646
H194	H	0.995874	0.603975	0.690930
O195	O	1.596268	0.599295	-0.181545
H196	H	1.684227	0.535676	-0.122776
O197	O	1.031247	0.688636	-0.194747
H198	H	1.101327	0.672067	-0.142331
O199	O	1.038636	0.795173	-0.303400
H200	H	1.016326	0.759096	-0.345566
O201	O	1.182436	1.025598	-0.595423
H202	H	1.206768	0.942504	-0.600293
O203	O	1.316071	0.685074	0.520357
H204	H	1.357825	0.666260	0.598174
H205	H	1.494253	0.370137	0.680406
O206	O	1.189914	0.251701	0.588125
H207	H	1.215820	0.270653	0.511779
H208	H	1.193018	0.341962	0.667061
