data_functionalizedCrystal
_audit_creation_method	'MofGen! by Chris Wilmer'
_symmetry_space_group_name_H-M	'P1'
_symmetry_Int_Tables_number	1
_symmetry_cell_setting	triclinic
loop_
_symmetry_equiv_pos_as_xyz
  x,y,z
_cell_length_a	6.817900
_cell_length_b	10.773890
_cell_length_c	10.943624
_cell_angle_alpha	95.382956
_cell_angle_beta	108.838799
_cell_angle_gamma	96.645716
loop_
_atom_site_label
_atom_site_type_symbol
_atom_site_fract_x
_atom_site_fract_y
_atom_site_fract_z
V1	V	-4.053411	-0.172562	-0.400448
O2	O	-4.076200	0.008326	-0.394990
O3	O	-3.970332	-0.342194	-0.395628
O4	O	-4.032334	-0.169893	-0.576047
O5	O	-4.013768	-0.165168	-0.213321
V6	V	-4.537992	-0.150927	-0.378319
O7	O	-4.312348	-0.220019	-0.448990
O8	O	-4.729252	-0.103470	-0.329777
O9	O	-4.397865	0.018704	-0.383140
O10	O	-4.632601	-0.331815	-0.383778
O11	O	-4.695032	-0.158322	-0.565446
O12	O	-4.335863	-0.153597	-0.202720
C13	C	-3.806012	-0.383547	-0.388774
C14	C	-3.819554	-0.522223	-0.386003
C15	C	-3.998378	-0.590085	-0.390818
C16	C	-4.012378	-0.733414	-0.387954
C17	C	-3.885101	-0.163758	-0.618915
C18	C	-3.948922	-0.162698	-0.762454
C19	C	-3.796320	-0.155561	-0.839689
C20	C	-3.947564	-0.261501	-0.944388
C21	C	-3.911419	-0.054882	-0.913519
C22	C	-4.099341	-0.268737	-0.865275
C23	C	-4.063150	-0.062025	-0.834384
C24	C	-4.214519	-0.167995	-0.939053
C25	C	-4.225525	0.060051	-0.389990
C26	C	-4.191223	0.198726	-0.392769
C27	C	-4.146436	-0.159735	-0.159846
C28	C	-4.061855	-0.160789	-0.016305
H29	H	-3.869635	-0.781421	-0.381719
C30	C	-3.571637	-0.644771	-0.264393
C31	C	-3.626850	-0.587019	-0.377572
H32	H	-3.452657	-0.684763	-0.259186
H33	H	-3.685634	-0.705916	-0.267054
H34	H	-3.539142	-0.582792	-0.190178
H35	H	-3.659360	-0.648999	-0.451787
H36	H	-3.512828	-0.525869	-0.374921
C37	C	-4.551966	-0.826642	-0.405110
C38	C	-4.383943	-0.736485	-0.401203
H39	H	-4.670941	-0.786643	-0.410326
H40	H	-4.514482	-0.865812	-0.328335
H41	H	-4.584445	-0.888604	-0.479336
H42	H	-4.351453	-0.674528	-0.326971
H43	H	-4.421431	-0.697295	-0.477986
C44	C	-3.498932	-0.148625	-0.646133
C45	C	-3.556894	-0.148651	-0.781098
H46	H	-3.351124	-0.144357	-0.609962
H47	H	-3.566153	-0.223843	-0.628757
H48	H	-3.540184	-0.077644	-0.608147
H49	H	-3.515656	-0.219638	-0.819086
H50	H	-3.489648	-0.073425	-0.798485
H51	H	-4.178171	-0.359218	-0.843628
H52	H	-3.832579	0.035477	-0.935382
C53	C	-3.664295	-0.368668	-0.958674
C54	C	-3.882506	-0.375339	-1.009097
H55	H	-3.624125	-0.438941	-0.998625
H56	H	-3.621836	-0.369752	-0.867185
H57	H	-3.598938	-0.292795	-0.976035
H58	H	-3.947863	-0.451208	-0.991726
H59	H	-3.924986	-0.374267	-1.100606
H60	H	-4.391933	-0.173277	-0.982233
C61	C	-3.949645	0.126223	-0.678260
C62	C	-4.128086	0.051824	-0.769626
H63	H	-3.989722	0.196513	-0.638273
H64	H	-3.855480	0.155233	-0.720909
H65	H	-3.882739	0.077380	-0.613621
H66	H	-4.194984	0.100664	-0.834270
H67	H	-4.222287	0.022814	-0.726975
C68	C	-4.139906	-0.395840	-0.400444
C69	C	-4.191076	-0.525285	-0.399241
H70	H	-4.258873	-0.355839	-0.405636
H71	H	-4.098084	-0.383333	-0.473750
H72	H	-4.028077	-0.360557	-0.322747
H73	H	-4.302895	-0.560570	-0.476942
H74	H	-4.232927	-0.537800	-0.325928
