data_functionalizedCrystal
_audit_creation_method	'MofGen! by Chris Wilmer'
_symmetry_space_group_name_H-M	'P1'
_symmetry_Int_Tables_number	1
_symmetry_cell_setting	triclinic
loop_
_symmetry_equiv_pos_as_xyz
  x,y,z
_cell_length_a	10.489741
_cell_length_b	15.995350
_cell_length_c	15.072220
_cell_angle_alpha	89.993871
_cell_angle_beta	89.999236
_cell_angle_gamma	84.015775
loop_
_atom_site_label
_atom_site_type_symbol
_atom_site_fract_x
_atom_site_fract_y
_atom_site_fract_z
O1	O	0.164400	1.111987	-0.073651
O2	O	0.184702	0.868334	-0.073681
O3	O	-0.011125	0.995705	-0.073660
O4	O	0.360226	0.984616	-0.073672
O5	O	-0.011114	0.995673	0.073905
O6	O	0.184713	0.868303	0.073884
O7	O	0.164411	1.111955	0.073914
Zn8	Zn	0.174563	0.990124	0.097328
Zn9	Zn	0.174549	0.990166	-0.097095
O10	O	0.360237	0.984585	0.073893
C11	C	-0.058639	0.994852	0.000122
C12	C	-0.200234	0.992346	0.000120
C13	C	0.183868	0.837119	0.000097
C14	C	0.181352	0.744153	0.000086
N15	N	0.174572	0.990102	0.230017
C16	C	-0.267240	0.911304	0.000103
C17	C	-0.359892	0.949572	0.072865
C18	C	-0.359878	0.949622	-0.072622
C19	C	-0.291021	1.030647	0.072942
C20	C	-0.290997	1.030686	-0.072611
C21	C	-0.383624	1.069013	0.000169
C22	C	0.407752	0.985438	0.000109
C23	C	0.549346	0.987944	0.000105
C24	C	0.165244	1.143171	0.000134
C25	C	0.167761	1.236137	0.000139
C26	C	0.176797	1.573939	0.000104
C27	C	0.316262	1.527345	0.000433
C28	C	0.313745	1.430640	0.000109
C29	C	0.172315	1.406351	0.000122
C30	C	0.103520	1.447015	-0.084144
C31	C	0.107023	1.543672	-0.084224
C32	C	0.104155	1.544010	0.083585
C33	C	0.104189	1.447065	0.084708
C34	C	0.169774	1.311638	0.000129
C35	C	0.179334	1.668652	0.000090
N36	N	0.174530	0.990195	-0.229784
C37	C	0.174544	0.990164	0.589219
C38	C	0.278976	0.921777	0.551600
C39	C	0.279357	0.921938	0.448775
C40	C	0.174558	0.990132	0.411015
C41	C	0.203626	1.077672	0.448316
C42	C	0.204368	1.077290	0.551174
C43	C	0.040735	0.971788	0.551321
C44	C	0.041628	0.969788	0.448457
C45	C	0.174564	0.990120	0.310301
C46	C	0.174541	0.990182	0.689932
H47	H	-0.216656	0.844671	0.000168
F48	F	-0.449447	1.156184	0.000230
H49	H	0.371751	1.547274	-0.059664
F50	F	0.384883	1.394646	-0.078982
H51	H	0.377714	0.933437	0.577437
F52	F	0.106851	1.145822	0.416349
F53	F	0.329723	1.099155	0.414634
H54	H	0.131304	1.129811	0.576057
H55	H	-0.390367	0.915334	-0.134143
H56	H	0.012784	0.909296	0.577304
H57	H	0.367828	1.402543	0.060512
H58	H	0.301954	1.093361	0.575154
H59	H	-0.260664	1.064895	0.134526
F60	F	0.012791	0.885613	0.416593
F61	F	-0.251050	1.075487	-0.153009
F62	F	0.389411	1.552431	0.079096
F63	F	0.169844	1.411778	0.166192
H64	H	0.378654	0.933756	0.424159
F65	F	0.172584	1.567992	-0.166563
H66	H	-0.390420	0.915268	0.134372
F67	F	-0.064710	1.030589	0.414874
F68	F	-0.060844	1.036959	0.583117
H69	H	0.004631	1.575303	-0.088057
F70	F	-0.032292	1.427734	-0.088232
H71	H	0.151260	1.418899	-0.146854
H72	H	0.261942	0.856525	0.576354
F73	F	-0.030618	1.426171	0.091374
F74	F	-0.030240	1.584722	0.084339
F75	F	0.163758	1.571217	0.167061
H76	H	0.262038	0.856894	0.423556
