data_functionalizedCrystal
_audit_creation_method	'MofGen! by Chris Wilmer'
_symmetry_space_group_name_H-M	'P1'
_symmetry_Int_Tables_number	1
_symmetry_cell_setting	triclinic
loop_
_symmetry_equiv_pos_as_xyz
  x,y,z
_cell_length_a	14.853566
_cell_length_b	14.853567
_cell_length_c	16.176319
_cell_angle_alpha	89.996997
_cell_angle_beta	89.995436
_cell_angle_gamma	83.634672
loop_
_atom_site_label
_atom_site_type_symbol
_atom_site_fract_x
_atom_site_fract_y
_atom_site_fract_z
O1	O	1.196369	0.117701	-0.068685
O2	O	0.933909	0.131724	-0.068698
O3	O	1.072150	-0.006517	-0.068693
O4	O	1.058128	0.255942	-0.068689
O5	O	1.072131	-0.006526	0.068800
O6	O	0.933890	0.131715	0.068796
O7	O	1.196350	0.117692	0.068808
Cu8	Cu	1.065118	0.124703	0.081356
Cu9	Cu	1.065141	0.124713	-0.081245
O10	O	1.058109	0.255933	0.068804
C11	C	0.900311	0.131084	0.000047
C12	C	0.800227	0.129181	0.000042
C13	C	0.377053	0.121135	-0.074891
C14	C	0.377053	0.121126	0.075009
C15	C	0.471088	0.122913	0.075007
C16	C	0.518108	0.123813	0.000054
C17	C	0.471095	0.122925	-0.074896
C18	C	0.518107	0.123810	0.149956
C19	C	0.612146	0.125599	0.149956
C20	C	0.659170	0.126492	0.075002
C21	C	0.612151	0.125603	0.000049
C22	C	0.659172	0.126503	-0.074903
C23	C	0.612156	0.125607	-0.149857
C24	C	0.518119	0.123818	-0.149849
C25	C	0.753206	0.128281	0.074995
C26	C	0.753214	0.128293	-0.074908
C27	C	1.071505	-0.040111	0.000051
C28	C	1.069601	-0.140194	0.000044
C29	C	0.979435	-0.552728	0.000055
C30	C	1.143668	-0.574009	0.000063
C31	C	1.145458	-0.479976	0.000058
C32	C	1.064236	-0.422313	0.000053
C33	C	0.981223	-0.458685	0.000053
C34	C	1.228470	-0.443597	0.000067
C35	C	1.230263	-0.349558	0.000063
C36	C	1.149040	-0.291894	0.000052
C37	C	1.066023	-0.328271	0.000051
C38	C	0.984801	-0.270608	0.000046
C39	C	0.901784	-0.306984	0.000038
C40	C	0.899999	-0.401021	0.000042
C41	C	1.150824	-0.197856	0.000049
C42	C	0.986588	-0.176566	0.000043
C43	C	1.229948	0.118332	0.000062
C44	C	1.330032	0.120235	0.000062
C45	C	1.058754	0.289526	0.000058
C46	C	1.060658	0.389610	0.000060
N47	N	1.065109	0.124695	0.195721
N48	N	1.065157	0.124714	-0.195611
C49	C	1.126340	0.063507	0.238988
C50	C	1.126345	0.063506	0.325535
C51	C	1.065122	0.124698	0.368814
C52	C	1.003884	0.185889	0.325542
C53	C	1.003876	0.185885	0.238996
C54	C	1.003915	0.185906	0.674570
C55	C	1.003930	0.185907	0.761122
C56	C	1.126384	0.063527	0.761108
C57	C	1.126376	0.063523	0.674563
C58	C	1.065135	0.124710	0.631298
C59	C	1.065130	0.124709	0.537454
C60	C	1.065131	0.124704	0.462657
H61	H	0.650419	0.126326	0.210988
H62	H	0.338769	0.120402	-0.135917
H63	H	1.176247	0.013702	0.796344
H64	H	0.791492	0.129023	-0.135944
H65	H	0.479830	0.123088	-0.210873
H66	H	1.176232	0.013697	0.639327
H67	H	0.832411	-0.430646	0.000037
C68	C	1.193702	-0.003797	0.373132
C69	C	1.261074	-0.071086	0.325534
C70	C	1.328433	-0.138391	0.373132
C71	C	1.328420	-0.138408	0.468329
C72	C	1.261046	-0.071117	0.515932
C73	C	1.193687	-0.003811	0.468334
H74	H	1.261086	-0.071075	0.255058
H75	H	1.378307	-0.188204	0.337892
H76	H	1.378283	-0.188232	0.503564
H77	H	1.261034	-0.071127	0.586407
H78	H	1.143812	0.046002	0.503573
C79	C	0.897240	-0.113140	0.000038
C80	C	0.875871	-0.045568	0.071433
C81	C	0.786523	0.017857	0.071428
C82	C	0.718544	0.013711	0.000027
C83	C	0.739911	-0.053864	-0.071374
C84	C	0.829259	-0.117289	-0.071369
H85	H	0.926195	-0.042496	0.124293
H86	H	0.770706	0.067881	0.124284
H87	H	0.652403	0.060662	0.000022
H88	H	0.689587	-0.056936	-0.124235
H89	H	0.845076	-0.167313	-0.124225
H90	H	0.954030	0.235710	0.360785
C91	C	0.936521	0.253195	0.191401
C92	C	0.869208	0.320537	0.239004
C93	C	0.801848	0.387846	0.191410
C94	C	0.801802	0.387813	0.096213
C95	C	0.869118	0.320468	0.048605
C96	C	0.936477	0.253159	0.096199
H97	H	0.869240	0.320564	0.309479
H98	H	0.752016	0.437699	0.226653
H99	H	0.751938	0.437639	0.060981
H100	H	0.869085	0.320441	-0.021870
H101	H	0.986309	0.203306	0.060956
H102	H	0.479814	0.123084	0.210978
C103	C	0.804931	0.129272	0.157430
C104	C	0.859440	0.208728	0.178026
C105	C	0.911167	0.209719	0.260465
C106	C	0.908385	0.131255	0.322308
C107	C	0.853873	0.051793	0.301714
C108	C	0.802146	0.050802	0.219275
H109	H	0.861502	0.266817	0.132244
H110	H	0.951520	0.268543	0.275709
H111	H	0.946676	0.131989	0.383334
H112	H	0.851812	-0.006296	0.347496
H113	H	0.761793	-0.008022	0.204031
H114	H	1.209796	-0.620963	0.000074
H115	H	0.954071	0.235739	0.796358
H116	H	0.911845	-0.582349	0.000046
C117	C	0.812441	-0.243549	0.000033
C118	C	0.744460	-0.247683	-0.071369
C119	C	0.655121	-0.184244	-0.071374
C120	C	0.633762	-0.116672	0.000023
C121	C	0.701745	-0.112535	0.071430
C122	C	0.791084	-0.175973	0.071435
H123	H	0.760269	-0.297707	-0.124225
H124	H	0.604796	-0.187307	-0.124234
H125	H	0.567628	-0.069711	0.000019
H126	H	0.685935	-0.062511	0.124287
H127	H	0.841409	-0.172911	0.124296
C128	C	1.193689	-0.003807	0.191385
C129	C	1.192052	-0.106473	0.203295
C130	C	1.259400	-0.173792	0.155695
C131	C	1.328384	-0.138444	0.096185
C132	C	1.330024	-0.035773	0.084272
C133	C	1.262676	0.031545	0.131872
H134	H	1.140983	-0.132644	0.247350
H135	H	1.258186	-0.249796	0.164514
H136	H	1.378239	-0.188278	0.060949
H137	H	1.381093	-0.009602	0.040217
H138	H	1.263890	0.107549	0.123053
C139	C	0.936561	0.253215	0.626982
C140	C	0.869244	0.320555	0.674584
C141	C	0.801889	0.387868	0.626989
C142	C	0.801851	0.387841	0.531792
C143	C	0.869170	0.320499	0.484185
C144	C	0.936525	0.253186	0.531780
H145	H	0.869271	0.320577	0.745059
H146	H	0.752055	0.437719	0.662232
H147	H	0.751991	0.437670	0.496560
H148	H	0.869144	0.320476	0.413710
H149	H	0.986359	0.203334	0.496537
C150	C	0.663885	0.126601	-0.232303
C151	C	0.738683	0.049615	-0.252913
C152	C	0.790416	0.050610	-0.335356
C153	C	0.767352	0.128590	-0.397189
C154	C	0.692551	0.205581	-0.376580
C155	C	0.640817	0.204587	-0.294137
H156	H	0.755759	-0.008116	-0.207139
H157	H	0.845789	-0.006384	-0.350611
H158	H	0.805648	0.129327	-0.458218
H159	H	0.675474	0.263312	-0.422354
H160	H	0.585444	0.261581	-0.278882
H161	H	1.294597	-0.490552	0.000079
H162	H	0.338763	0.120400	0.136032
C163	C	1.321579	-0.309551	0.000059
C164	C	1.389075	-0.331260	0.071455
C165	C	1.480392	-0.291253	0.071446
C166	C	1.504212	-0.229538	0.000043
C167	C	1.436714	-0.207826	-0.071358
C168	C	1.345397	-0.247833	-0.071350
H169	H	1.371444	-0.376948	0.124317
H170	H	1.530358	-0.307326	0.124302
H171	H	1.571809	-0.199922	0.000036
H172	H	1.454345	-0.162138	-0.124220
H173	H	1.295431	-0.231760	-0.124206
H174	H	1.218415	-0.168244	0.000060
