data_functionalizedCrystal
_audit_creation_method	'MofGen! by Chris Wilmer'
_symmetry_space_group_name_H-M	'P1'
_symmetry_Int_Tables_number	1
_symmetry_cell_setting	triclinic
loop_
_symmetry_equiv_pos_as_xyz
  x,y,z
_cell_length_a	19.121063
_cell_length_b	12.645331
_cell_length_c	12.645324
_cell_angle_alpha	90.022962
_cell_angle_beta	92.401246
_cell_angle_gamma	87.532020
loop_
_atom_site_label
_atom_site_type_symbol
_atom_site_fract_x
_atom_site_fract_y
_atom_site_fract_z
Zn1	Zn	-0.279578	-1.602660	-0.617385
Zn2	Zn	-0.397050	-1.594947	-0.447663
Zn3	Zn	-0.279616	-1.425371	-0.440132
Zn4	Zn	-0.396990	-1.417766	-0.624874
O5	O	-0.338308	-1.510186	-0.532514
O6	O	-0.295170	-1.749984	-0.594889
O7	O	-0.381513	-1.572407	-0.298319
O8	O	-0.181327	-1.455300	-0.457359
O9	O	-0.381476	-1.744316	-0.470194
O10	O	-0.181299	-1.585553	-0.587586
O11	O	-0.295235	-1.447821	-0.292786
O12	O	-0.295176	-1.276016	-0.464621
O13	O	-0.381374	-1.442338	-0.772226
O14	O	-0.381411	-1.270428	-0.600350
O15	O	-0.295112	-1.578179	-0.766723
O16	O	-0.495326	-1.565032	-0.477456
O17	O	-0.495282	-1.434858	-0.607653
C18	C	-0.338292	-1.234757	-0.532482
C19	C	-0.338301	-1.116927	-0.532494
C20	C	-0.520788	-1.498312	-0.544207
C21	C	-0.598853	-1.493329	-0.549245
C22	C	-0.338232	-1.510270	-0.809014
C23	C	-0.338199	-1.510306	-0.926842
C24	C	-0.635528	-1.558815	-0.483882
C25	C	-0.708879	-1.554135	-0.488627
C26	C	-0.745553	-1.483963	-0.558730
C27	C	-0.708873	-1.418474	-0.624100
C28	C	-0.635524	-1.423160	-0.619360
C29	C	-0.967021	-1.466425	-0.576435
C30	C	-1.040376	-1.461741	-0.581168
C31	C	-1.040376	-1.597405	-0.445695
C32	C	-0.967026	-1.602080	-0.440957
C33	C	-0.930352	-1.536595	-0.506331
C34	C	-0.820530	-1.479175	-0.563579
C35	C	-0.855377	-1.541389	-0.501487
C36	C	-0.155116	-1.522136	-0.520797
C37	C	-0.077051	-1.527228	-0.515804
C38	C	-0.338326	-1.786690	-0.532546
C39	C	-0.338333	-1.904520	-0.532560
C40	C	-0.283802	-0.952859	-0.447543
C41	C	-0.283943	-1.075409	-0.447193
C42	C	-0.412291	-1.067623	-0.506727
C43	C	-0.411993	-0.945044	-0.506152
C44	C	-0.319516	-0.950992	-0.643573
C45	C	-0.317863	-1.073705	-0.642843
C46	C	-0.284089	-1.596073	-1.090955
C47	C	-0.283894	-1.595822	-0.968382
C48	C	-0.318085	-1.399925	-0.970030
C49	C	-0.317674	-1.400451	-1.092602
C50	C	-0.412503	-1.534010	-1.098808
C51	C	-0.412129	-1.536478	-0.976178
C52	C	-0.338334	-1.510166	-0.257085
C53	C	-0.338168	-1.510348	-0.139245
H54	H	-0.738736	-1.607460	-0.435400
N55	N	-0.210907	-0.918531	-0.467910
H56	H	-0.179235	-0.982928	-0.480367
H57	H	-0.212586	-0.871293	-0.532429
N58	N	-0.249274	-0.914671	-0.675798
H59	H	-0.238226	-0.945423	-0.747217
H60	H	-0.250763	-0.834848	-0.680064
N61	N	-0.815819	-1.617069	-0.425879
H62	H	-0.828632	-1.599824	-0.350947
H63	H	-0.828547	-1.691965	-0.443320
N64	N	-0.210952	-1.575564	-0.924882
H65	H	-0.212131	-1.508968	-0.880755
H66	H	-0.193081	-1.637445	-0.879449
N67	N	-0.372118	-0.909174	-0.727397
H68	H	-0.347208	-0.868863	-0.782437
H69	H	-0.396414	-0.970304	-0.762149
N70	N	-0.927473	-1.677783	-0.365359
H71	H	-0.940289	-1.660553	-0.290425
H72	H	-0.940211	-1.752670	-0.382822
N73	N	-0.433796	-1.106830	-0.400605
H74	H	-0.395724	-1.156511	-0.369073
H75	H	-0.441347	-1.044621	-0.351662
H76	H	-0.264354	-1.378825	-0.935887
H77	H	-0.427297	-1.617686	-0.948080
N78	N	-1.079931	-1.668027	-0.375183
H79	H	-1.131962	-1.654412	-0.388818
H80	H	-1.067061	-1.744553	-0.390917
N81	N	-0.927471	-1.395787	-0.646931
H82	H	-0.940187	-1.411393	-0.723511
H83	H	-0.940304	-1.319265	-0.631125
N84	N	-0.245738	-1.116901	-0.668699
H85	H	-0.226378	-1.164274	-0.609189
H86	H	-0.248835	-1.158971	-0.736515
H87	H	-0.354683	-1.101983	-0.709191
H88	H	-0.296102	-0.921215	-0.365661
N89	N	-0.300690	-1.704390	-0.929617
H90	H	-0.308274	-1.752849	-0.992181
H91	H	-0.260449	-1.733929	-0.882750
H92	H	-0.605673	-1.615952	-0.426792
H93	H	-0.738739	-1.361342	-0.681185
H94	H	-0.296528	-1.678357	-1.121246
H95	H	-0.296381	-1.103883	-0.364831
H96	H	-0.850398	-1.422038	-0.620655
H97	H	-0.229328	-1.581007	-1.118265
H98	H	-0.605664	-1.369835	-0.672588
N99	N	-0.245702	-1.373135	-1.125891
H100	H	-0.214540	-1.360868	-1.060962
H101	H	-0.224954	-1.433457	-1.168426
H102	H	-1.070234	-1.404611	-0.638273
H103	H	-0.229077	-1.109057	-0.462799
N104	N	-0.433123	-0.905715	-0.398842
H105	H	-0.481621	-0.929468	-0.384701
H106	H	-0.398720	-0.935487	-0.342597
H107	H	-0.355350	-1.334663	-1.124666
H108	H	-0.430815	-1.612842	-1.130968
N109	N	-0.468380	-1.459281	-0.939191
H110	H	-0.446639	-1.406007	-0.889712
H111	H	-0.491729	-1.421295	-1.002356
N112	N	-0.467630	-0.902168	-0.584938
H113	H	-0.492244	-0.962906	-0.619883
H114	H	-0.502755	-0.855587	-0.547068
N115	N	-0.368644	-1.313279	-0.934635
H116	H	-0.392351	-1.277341	-0.998700
H117	H	-0.405122	-1.344895	-0.890139
N118	N	-0.465877	-1.451228	-1.140622
H119	H	-0.467622	-1.452358	-1.220551
H120	H	-0.513499	-1.466881	-1.114311
N121	N	-0.467549	-1.102645	-0.586471
H122	H	-0.445099	-1.150931	-0.640192
H123	H	-0.504195	-1.141812	-0.548897
