data_functionalizedCrystal
_audit_creation_method	'MofGen! by Chris Wilmer'
_symmetry_space_group_name_H-M	'P1'
_symmetry_Int_Tables_number	1
_symmetry_cell_setting	triclinic
loop_
_symmetry_equiv_pos_as_xyz
  x,y,z
_cell_length_a	18.215407
_cell_length_b	21.295417
_cell_length_c	18.215399
_cell_angle_alpha	89.965438
_cell_angle_beta	89.983176
_cell_angle_gamma	90.030955
loop_
_atom_site_label
_atom_site_type_symbol
_atom_site_fract_x
_atom_site_fract_y
_atom_site_fract_z
Zn1	Zn	1.125021	-0.250593	-0.416094
Zn2	Zn	1.458355	0.082740	-0.082761
Zn3	Zn	1.791688	0.416073	0.250572
Zn4	Zn	1.124924	-0.355869	-0.293019
Zn5	Zn	1.458257	-0.022535	0.040314
Zn6	Zn	1.791591	0.310798	0.373648
Zn7	Zn	1.001960	-0.250618	-0.293042
Zn8	Zn	1.335294	0.082715	0.040292
Zn9	Zn	1.668627	0.416048	0.373625
Zn10	Zn	1.001908	-0.355829	-0.416044
Zn11	Zn	1.335241	-0.022496	-0.082711
Zn12	Zn	1.668574	0.310837	0.250623
O13	O	1.063453	-0.303227	-0.354550
O14	O	1.396787	0.030106	-0.021216
O15	O	1.730120	0.363439	0.312117
O16	O	1.227993	-0.264564	-0.399780
O17	O	1.561326	0.068769	-0.066446
O18	O	1.894659	0.402102	0.266887
O19	O	1.108594	-0.341934	-0.190038
O20	O	1.441927	-0.008601	0.143296
O21	O	1.775261	0.324733	0.476629
O22	O	1.018347	-0.162525	-0.309396
O23	O	1.351681	0.170808	0.023938
O24	O	1.685014	0.504141	0.357271
O25	O	1.227921	-0.341910	-0.309357
O26	O	1.561255	-0.008576	0.023976
O27	O	1.894588	0.324757	0.357310
O28	O	1.108760	-0.162507	-0.399802
O29	O	1.442093	0.170826	-0.066468
O30	O	1.775426	0.504160	0.266865
O31	O	1.018253	-0.264607	-0.190054
O32	O	1.351586	0.068726	0.143279
O33	O	1.684920	0.402060	0.476612
O34	O	0.898969	-0.264569	-0.309347
O35	O	1.232302	0.068765	0.023987
O36	O	1.565636	0.402098	0.357320
O37	O	1.018258	-0.341843	-0.519035
O38	O	1.351591	-0.008509	-0.185702
O39	O	1.684924	0.324824	0.147632
O40	O	0.898930	-0.341867	-0.399716
O41	O	1.232264	-0.008533	-0.066383
O42	O	1.565597	0.324800	0.266951
O43	O	1.108709	-0.264526	-0.519072
O44	O	1.442042	0.068807	-0.185739
O45	O	1.775375	0.402141	0.147595
O46	O	1.108543	-0.443953	-0.309308
O47	O	1.441876	-0.110620	0.024025
O48	O	1.775210	0.222714	0.357359
O49	O	1.018163	-0.443924	-0.399694
O50	O	1.351497	-0.110591	-0.066361
O51	O	1.684830	0.222743	0.266973
C52	C	0.872247	-0.303217	-0.354529
C53	C	1.205580	0.030117	-0.021195
C54	C	1.538914	0.363450	0.312138
C55	C	0.790448	-0.303227	-0.354537
C56	C	1.123782	0.030106	-0.021204
C57	C	1.457115	0.363440	0.312130
C58	C	0.602253	-0.343540	-0.401533
C59	C	0.935587	-0.010206	-0.068200
C60	C	1.268920	0.323127	0.265133
C61	C	0.525395	-0.343542	-0.401542
C62	C	0.858728	-0.010208	-0.068209
C63	C	1.192061	0.323125	0.265124
C64	C	0.525405	-0.262927	-0.307582
C65	C	0.858739	0.070407	0.025751
C66	C	1.192072	0.403740	0.359084
C67	C	0.602263	-0.262922	-0.307577
C68	C	0.935596	0.070411	0.025756
C69	C	1.268929	0.403745	0.359089
C70	C	0.640685	-0.303232	-0.354552
C71	C	0.974018	0.030101	-0.021218
C72	C	1.307351	0.363435	0.312115
C73	C	0.486969	-0.303239	-0.354566
C74	C	0.820302	0.030095	-0.021233
C75	C	1.153635	0.363428	0.312101
C76	C	0.403635	-0.303240	-0.354575
C77	C	0.736968	0.030093	-0.021242
C78	C	1.070302	0.363426	0.312091
C79	C	0.724024	-0.303229	-0.354543
C80	C	1.057357	0.030104	-0.021210
C81	C	1.390690	0.363437	0.312123
C82	C	1.063357	-0.466779	-0.354509
C83	C	1.396690	-0.133446	-0.021176
C84	C	1.730024	0.199888	0.312158
C85	C	1.063383	-0.536747	-0.354516
C86	C	1.396716	-0.203414	-0.021183
C87	C	1.730050	0.129920	0.312150
C88	C	1.110485	-0.569608	-0.307500
C89	C	1.443819	-0.236275	0.025833
C90	C	1.777152	0.097059	0.359166
C91	C	1.110520	-0.635350	-0.307517
C92	C	1.443853	-0.302017	0.025816
C93	C	1.777187	0.031316	0.359150
C94	C	1.063439	-0.668230	-0.354542
C95	C	1.396772	-0.334896	-0.021208
C96	C	1.730106	-0.001563	0.312125
C97	C	1.016333	-0.635361	-0.401566
C98	C	1.349666	-0.302027	-0.068233
C99	C	1.683000	0.031306	0.265100
C100	C	1.016305	-0.569620	-0.401554
C101	C	1.349638	-0.236286	-0.068220
C102	C	1.682972	0.097047	0.265113
N103	N	0.999060	-0.771496	-0.360145
N104	N	1.332393	-0.438162	-0.026811
N105	N	1.665727	-0.104829	0.306522
N106	N	0.999088	-0.833947	-0.360153
N107	N	1.332422	-0.500614	-0.026819
N108	N	1.665755	-0.167280	0.306514
C109	C	1.063521	-0.866304	-0.354584
C110	C	1.396855	-0.532971	-0.021250
C111	C	1.730188	-0.199638	0.312083
N112	N	1.127926	-0.833851	-0.348993
N113	N	1.461259	-0.500518	-0.015659
N114	N	1.794592	-0.167184	0.317674
N115	N	1.127896	-0.771394	-0.348981
N116	N	1.461230	-0.438060	-0.015648
N117	N	1.794563	-0.104727	0.317686
C118	C	1.063464	-0.739515	-0.354561
C119	C	1.396798	-0.406182	-0.021228
C120	C	1.730131	-0.072848	0.312106
C121	C	1.110665	-0.970451	-0.307584
C122	C	1.443998	-0.637117	0.025750
C123	C	1.777332	-0.303784	0.359083
C124	C	1.110701	-1.036194	-0.307605
C125	C	1.444034	-0.702861	0.025728
C126	C	1.777368	-0.369528	0.359061
C127	C	1.016507	-1.036203	-0.401651
C128	C	1.349841	-0.702870	-0.068317
C129	C	1.683174	-0.369537	0.265016
C130	C	1.016478	-0.970461	-0.401633
C131	C	1.349812	-0.637128	-0.068300
C132	C	1.683145	-0.303794	0.265034
C133	C	1.063556	-0.937589	-0.354595
C134	C	1.396889	-0.604255	-0.021262
C135	C	1.730223	-0.270922	0.312071
C136	C	1.255406	-0.303239	-0.354571
C137	C	1.588740	0.030095	-0.021238
C138	C	1.922073	0.363428	0.312095
C139	C	1.337205	-0.303243	-0.354581
C140	C	1.670539	0.030090	-0.021247
C141	C	2.003872	0.363423	0.312086
C142	C	1.063488	-0.303177	-0.546503
C143	C	1.396822	0.030156	-0.213169
C144	C	1.730155	0.363490	0.120164
C145	C	1.063503	-0.303156	-0.628302
C146	C	1.396836	0.030178	-0.294968
C147	C	1.730170	0.363511	0.038365
C148	C	1.063570	-0.139037	-0.354607
C149	C	1.396904	0.194296	-0.021273
C150	C	1.730237	0.527630	0.312060
C151	C	1.063620	-0.069069	-0.354631
C152	C	1.396953	0.264264	-0.021298
C153	C	1.730287	0.597598	0.312036
C154	C	1.016502	-0.262864	-0.816505
C155	C	1.349836	0.070469	-0.483172
C156	C	1.683169	0.403802	-0.149839
C157	C	1.016515	-0.262852	-0.893364
C158	C	1.349848	0.070482	-0.560031
C159	C	1.683182	0.403815	-0.226697
C160	C	1.110592	-0.343372	-0.893336
C161	C	1.443925	-0.010039	-0.560003
C162	C	1.777258	0.323295	-0.226669
C163	C	1.110575	-0.343387	-0.816479
C164	C	1.443908	-0.010054	-0.483145
C165	C	1.777241	0.323279	-0.149812
C166	C	1.063531	-0.303130	-0.778065
C167	C	1.396864	0.030203	-0.444732
C168	C	1.730198	0.363537	-0.111399
C169	C	1.063561	-0.303102	-0.931781
C170	C	1.396894	0.030231	-0.598448
C171	C	1.730228	0.363565	-0.265115
C172	C	1.063575	-0.303088	-1.015115
C173	C	1.396908	0.030245	-0.681782
C174	C	1.730242	0.363578	-0.348449
C175	C	1.063516	-0.303144	-0.694726
C176	C	1.396849	0.030189	-0.361393
C177	C	1.730182	0.363523	-0.028060
C178	C	1.063461	-0.303232	-0.163344
C179	C	1.396794	0.030101	0.169990
C180	C	1.730128	0.363435	0.503323
C181	C	1.063589	-0.303076	-0.081545
C182	C	1.396922	0.030257	0.251788
C183	C	1.730256	0.363591	0.585122
H184	H	0.494107	-0.376363	-0.439801
H185	H	0.827441	-0.043030	-0.106467
H186	H	1.160774	0.290304	0.226866
H187	H	1.148894	-0.376148	-0.924622
H188	H	1.482227	-0.042814	-0.591288
H189	H	1.815560	0.290519	-0.257955
F190	F	0.966452	-0.220002	-0.934272
F191	F	1.299786	0.113331	-0.600938
F192	F	1.633119	0.446665	-0.267605
H193	H	1.148821	-0.542845	-0.269202
H194	H	1.482154	-0.209512	0.064132
H195	H	1.815487	0.123822	0.397465
H196	H	1.148879	-0.662111	-0.269231
H197	H	1.482212	-0.328778	0.064102
H198	H	1.815546	0.004556	0.397435
F199	F	1.160629	-0.386248	-0.775566
F200	F	1.493963	-0.052915	-0.442232
F201	F	1.827296	0.280418	-0.108899
F202	F	0.643167	-0.220015	-0.257574
F203	F	0.976500	0.113318	0.075759
F204	F	1.309833	0.446651	0.409092
H205	H	0.494113	-0.230108	-0.269336
H206	H	0.827446	0.103225	0.063997
H207	H	1.160779	0.436558	0.397330
F208	F	0.966229	-0.670354	-0.451616
F209	F	1.299562	-0.337021	-0.118283
F210	F	1.632895	-0.003687	0.215051
F211	F	0.643142	-0.386439	-0.451529
F212	F	0.976476	-0.053106	-0.118196
F213	F	1.309809	0.280227	0.215137
F214	F	1.160768	-0.935463	-0.257522
F215	F	1.494102	-0.602130	0.075811
F216	F	1.827435	-0.268796	0.409144
F217	F	0.966170	-0.534646	-0.451597
F218	F	1.299503	-0.201312	-0.118263
F219	F	1.632837	0.132021	0.215070
F220	F	1.160841	-1.071167	-0.257567
F221	F	1.494175	-0.737834	0.075767
F222	F	1.827508	-0.404500	0.409100
F223	F	0.966404	-1.071191	-0.451703
F224	F	1.299737	-0.737858	-0.118369
F225	F	1.633071	-0.404525	0.214964
H226	H	0.978120	-0.943704	-0.439914
H227	H	1.311453	-0.610371	-0.106581
H228	H	1.644786	-0.277037	0.226752
H229	H	0.978196	-0.230084	-0.785231
H230	H	1.311529	0.103249	-0.451898
H231	H	1.644863	0.436583	-0.118565
