data_functionalizedCrystal
_audit_creation_method	'MofGen! by Chris Wilmer'
_symmetry_space_group_name_H-M	'P1'
_symmetry_Int_Tables_number	1
_symmetry_cell_setting	triclinic
loop_
_symmetry_equiv_pos_as_xyz
  x,y,z
_cell_length_a	19.288859
_cell_length_b	19.288865
_cell_length_c	9.130313
_cell_angle_alpha	90.008224
_cell_angle_beta	90.004585
_cell_angle_gamma	83.134986
loop_
_atom_site_label
_atom_site_type_symbol
_atom_site_fract_x
_atom_site_fract_y
_atom_site_fract_z
O1	O	0.921350	0.086626	0.121845
O2	O	1.421350	0.586626	0.621845
O3	O	0.719089	0.098319	0.121844
O4	O	1.219089	0.598319	0.621844
O5	O	0.826064	-0.008658	0.121815
O6	O	1.326064	0.491342	0.621815
O7	O	0.814375	0.193603	0.121873
O8	O	1.314375	0.693603	0.621873
O9	O	0.826056	-0.008658	-0.121784
O10	O	1.326056	0.491342	0.378216
O11	O	0.719081	0.098319	-0.121755
O12	O	1.219081	0.598319	0.378245
O13	O	0.921342	0.086626	-0.121754
O14	O	1.421342	0.586626	0.378246
Cu15	Cu	0.820211	0.092472	-0.143997
Cu16	Cu	1.320211	0.592472	0.356003
Cu17	Cu	0.820220	0.092472	0.144087
Cu18	Cu	1.320220	0.592472	0.644087
O19	O	0.814367	0.193603	-0.121726
O20	O	1.314367	0.693603	0.378274
C21	C	0.693209	0.097943	0.000044
C22	C	1.193209	0.597943	0.500044
C23	C	0.616105	0.096816	0.000042
C24	C	1.116105	0.596816	0.500042
C25	C	0.052064	0.151959	0.000060
C26	C	0.552064	0.651959	0.500060
C27	C	0.124511	0.153025	0.000068
C28	C	0.624511	0.653025	0.500068
C29	C	0.169217	0.090255	0.000047
C30	C	0.669217	0.590255	0.500047
C31	C	0.141472	0.026416	0.000056
C32	C	0.641472	0.526416	0.500056
C33	C	0.069027	0.025353	0.000063
C34	C	0.569027	0.525353	0.500063
C35	C	0.290485	0.043442	-0.085315
C36	C	0.790485	0.543442	0.414685
C37	C	0.362928	0.044508	-0.085331
C38	C	0.862928	0.544508	0.414669
C39	C	0.392663	0.093533	0.000033
C40	C	0.892663	0.593533	0.500033
C41	C	0.349944	0.141503	0.085394
C42	C	0.849944	0.641503	0.585394
C43	C	0.277499	0.140439	0.085401
C44	C	0.777499	0.640439	0.585401
C45	C	0.247773	0.091401	0.000041
C46	C	0.747773	0.591401	0.500041
C47	C	0.498955	0.158523	0.000043
C48	C	0.998955	0.658523	0.500043
C49	C	0.571403	0.159586	0.000060
C50	C	1.071403	0.659586	0.500060
C51	C	0.588364	0.032976	0.000034
C52	C	1.088364	0.532976	0.500034
C53	C	0.515917	0.031915	0.000031
C54	C	1.015917	0.531915	0.500031
C55	C	0.471216	0.094691	0.000029
C56	C	0.971216	0.594691	0.500029
C57	C	0.825684	-0.034535	0.000012
C58	C	1.325684	0.465465	0.500012
C59	C	0.824555	-0.111638	-0.000001
C60	C	1.324555	0.388362	0.499999
C61	C	0.887323	-0.156336	-0.000008
C62	C	1.387323	0.343664	0.499992
C63	C	0.886262	-0.228783	0.000015
C64	C	1.386262	0.271217	0.500015
C65	C	0.822430	-0.256529	0.000016
C66	C	1.322430	0.243471	0.500016
C67	C	0.759654	-0.211822	0.000031
C68	C	1.259654	0.288178	0.500031
C69	C	0.760716	-0.139376	0.000022
C70	C	1.260716	0.360624	0.500022
C71	C	0.772248	-0.364815	-0.085312
C72	C	1.272248	0.135185	0.414688
C73	C	0.771188	-0.437260	-0.085313
C74	C	1.271188	0.062740	0.414687
C75	C	0.819150	-0.479975	0.000048
C76	C	1.319150	0.020025	0.500048
C77	C	0.868185	-0.450238	0.085391
C78	C	1.368185	0.049762	0.585391
C79	C	0.869247	-0.377792	0.085382
C80	C	1.369247	0.122208	0.585382
C81	C	0.821271	-0.335083	0.000026
C82	C	1.321271	0.164917	0.500026
C83	C	0.880773	-0.603228	0.000069
C84	C	1.380773	-0.103228	0.500069
C85	C	0.879709	-0.675676	0.000101
C86	C	1.379709	-0.175676	0.500101
C87	C	0.753099	-0.658713	0.000102
C88	C	1.253099	-0.158713	0.500102
C89	C	0.754164	-0.586267	0.000084
C90	C	1.254164	-0.086267	0.500084
C91	C	0.818003	-0.558529	0.000061
C92	C	1.318003	-0.058529	0.500061
C93	C	0.947223	0.087001	0.000049
C94	C	1.447223	0.587001	0.500049
C95	C	1.024327	0.088128	0.000061
C96	C	1.524327	0.588128	0.500061
C97	C	0.814747	0.219479	0.000081
C98	C	1.314747	0.719479	0.500081
C99	C	0.815876	0.296583	0.000104
C100	C	1.315876	0.796583	0.500104
N101	N	0.820209	0.092472	-0.346620
N102	N	1.320209	0.592472	0.153380
C103	C	0.862202	0.134492	-0.423253
C104	C	1.362202	0.634492	0.076747
C105	C	0.862214	0.134488	-0.576590
C106	C	1.362214	0.634488	-0.076590
C107	C	0.778233	0.050442	-0.576646
C108	C	1.278233	0.550442	-0.076646
C109	C	0.778226	0.050443	-0.423312
C110	C	1.278226	0.550443	0.076688
N111	N	0.820228	0.092467	0.346709
N112	N	1.320228	0.592467	0.846709
H113	H	0.046445	-0.026628	0.000064
H114	H	0.546445	0.473372	0.500064
H115	H	0.896388	0.168715	-0.360815
H116	H	1.396388	0.668715	0.139185
H117	H	0.624763	-0.018132	0.000028
H118	H	1.124763	0.481868	0.500028
H119	H	0.896409	0.168705	-0.638978
H120	H	1.396409	0.668705	-0.138978
H121	H	0.493333	-0.020063	0.000023
H122	H	0.993333	0.479937	0.500023
N123	N	0.409000	-0.007220	-0.177411
N124	N	0.909000	0.492780	0.322589
H125	H	0.379173	-0.038442	-0.231477
H126	H	0.879173	0.461558	0.268523
H127	H	0.443056	-0.036559	-0.111963
H128	H	0.943056	0.463441	0.388037
H129	H	0.266282	0.003517	-0.154832
H130	H	0.766282	0.503517	0.345168
H131	H	0.907240	-0.485015	0.154901
H132	H	1.407240	0.014985	0.654901
N133	N	0.732933	0.005113	-0.340654
N134	N	1.232933	0.505113	0.159346
H135	H	0.682355	0.018941	-0.367345
H136	H	1.182355	0.518941	0.132655
H137	H	0.739360	0.011507	-0.231907
H138	H	1.239360	0.511507	0.268093
N139	N	0.949623	-0.573305	0.000044
N140	N	1.449623	-0.073305	0.500044
H141	H	0.952892	-0.543610	0.090331
H142	H	1.452892	-0.043610	0.590331
H143	H	0.952834	-0.543674	-0.090333
H144	H	1.452834	-0.043674	0.409667
H145	H	0.593984	0.211567	0.000072
H146	H	1.093984	0.711567	0.500072
H147	H	0.733189	-0.330042	-0.154831
H148	H	1.233189	0.169958	0.345169
N149	N	0.718312	-0.469332	-0.177374
N150	N	1.218312	0.030668	0.322626
H151	H	0.688085	-0.431281	-0.231440
H152	H	1.188085	0.068719	0.268560
H153	H	0.688092	-0.495399	-0.111914
H154	H	1.188092	0.004601	0.388086
N155	N	0.947413	-0.723890	0.000100
N156	N	1.447413	-0.223890	0.500100
H157	H	0.988012	-0.695322	0.000079
H158	H	1.488012	-0.195322	0.500079
H159	H	0.949720	-0.754327	-0.090200
H160	H	1.449720	-0.254327	0.409800
N161	N	0.690805	-0.241742	0.000039
N162	N	1.190805	0.258258	0.500039
H163	H	0.699656	-0.294419	0.000039
H164	H	1.199656	0.205581	0.500039
H165	H	0.663343	-0.225382	-0.090264
H166	H	1.163343	0.274618	0.409736
N167	N	0.732952	0.005112	-0.659365
N168	N	1.232952	0.505112	-0.159365
H169	H	0.739327	0.011489	-0.768131
H170	H	1.239327	0.511489	-0.268131
H171	H	0.682393	0.018964	-0.632576
H172	H	1.182393	0.518964	-0.132576
H173	H	0.147099	0.205005	0.000054
H174	H	0.647099	0.705005	0.500054
H175	H	0.937377	-0.265183	0.000015
H176	H	1.437377	0.234817	0.500015
N177	N	0.693014	-0.091161	0.000030
N178	N	1.193014	0.408839	0.500030
H179	H	0.652413	-0.119728	0.000039
H180	H	1.152413	0.380272	0.500039
H181	H	0.690694	-0.060744	-0.090281
H182	H	1.190694	0.439256	0.409719
H183	H	0.015673	0.203077	0.000065
H184	H	0.515673	0.703077	0.500065
H185	H	0.242719	0.179497	0.154907
H186	H	0.742719	0.679497	0.654907
N187	N	0.189687	-0.041286	0.000039
N188	N	0.689687	0.458714	0.500039
H189	H	0.239790	-0.030927	0.000030
H190	H	0.739790	0.469073	0.500030
H191	H	0.180720	-0.069118	-0.090268
H192	H	0.680720	0.430882	0.409732
N193	N	0.382002	0.194388	0.177466
N194	N	0.882002	0.694388	0.677466
H195	H	0.434377	0.187783	0.164518
H196	H	0.934377	0.687783	0.664518
H197	H	0.370211	0.187711	0.283916
H198	H	0.870211	0.687711	0.783916
N199	N	0.450736	0.226227	0.000057
N200	N	0.950736	0.726227	0.500057
H201	H	0.479304	0.266827	0.000074
H202	H	0.979304	0.766827	0.500074
H203	H	0.420313	0.228541	0.090364
H204	H	0.920313	0.728541	0.590364
H205	H	0.939306	-0.133757	-0.000022
H206	H	1.439306	0.366243	0.499978
H207	H	0.909171	-0.353583	0.154874
H208	H	1.409171	0.146417	0.654874
N209	N	0.686465	-0.538049	0.000062
N210	N	1.186465	-0.038049	0.500062
H211	H	0.684086	-0.507605	0.090359
H212	H	1.184086	-0.007605	0.590359
H213	H	0.645903	-0.566664	0.000007
H214	H	1.145903	-0.066664	0.500007
N215	N	0.684249	-0.688628	0.000119
N216	N	1.184249	-0.188628	0.500119
H217	H	0.693099	-0.741305	0.000128
H218	H	1.193099	-0.241305	0.500128
H219	H	0.656787	-0.672272	-0.090186
H220	H	1.156787	-0.172272	0.409814
