data_functionalizedCrystal
_audit_creation_method	'MofGen! by Chris Wilmer'
_symmetry_space_group_name_H-M	'P1'
_symmetry_Int_Tables_number	1
_symmetry_cell_setting	triclinic
loop_
_symmetry_equiv_pos_as_xyz
  x,y,z
_cell_length_a	21.395364
_cell_length_b	19.076808
_cell_length_c	19.076919
_cell_angle_alpha	89.878360
_cell_angle_beta	92.280361
_cell_angle_gamma	92.338361
loop_
_atom_site_label
_atom_site_type_symbol
_atom_site_fract_x
_atom_site_fract_y
_atom_site_fract_z
Zn1	Zn	0.933460	-0.295469	-0.386067
Zn2	Zn	1.433460	0.204531	0.113933
Zn3	Zn	0.933724	-0.408264	-0.263837
Zn4	Zn	1.433724	0.091736	0.236163
Zn5	Zn	0.833059	-0.290798	-0.268574
Zn6	Zn	1.333059	0.209202	0.231426
Zn7	Zn	0.824622	-0.412978	-0.381302
Zn8	Zn	1.324622	0.087022	0.118698
O9	O	0.881216	-0.351877	-0.324945
O10	O	1.381216	0.148123	0.175055
O11	O	1.021173	-0.310414	-0.369865
O12	O	1.521173	0.189586	0.130135
O13	O	0.924012	-0.388754	-0.166134
O14	O	1.424012	0.111246	0.333866
O15	O	0.849797	-0.193080	-0.288136
O16	O	1.349797	0.306920	0.211864
O17	O	1.021367	-0.393284	-0.280062
O18	O	1.521367	0.106716	0.219938
O19	O	0.923562	-0.196512	-0.374458
O20	O	1.423562	0.303488	0.125542
O21	O	0.850053	-0.302452	-0.169615
O22	O	1.350053	0.197548	0.330385
O23	O	0.744261	-0.307023	-0.283516
O24	O	1.244261	0.192977	0.216484
O25	O	0.835419	-0.401318	-0.480265
O26	O	1.335419	0.098682	0.019735
O27	O	0.738063	-0.396788	-0.366337
O28	O	1.238063	0.103212	0.133663
O29	O	0.915382	-0.314985	-0.483766
O30	O	1.415382	0.185015	0.016234
O31	O	0.915831	-0.507227	-0.275442
O32	O	1.415831	-0.007227	0.224558
O33	O	0.835675	-0.510690	-0.361743
O34	O	1.335675	-0.010690	0.138257
C35	C	0.718428	-0.351911	-0.324924
C36	C	1.218428	0.148089	0.175076
C37	C	0.648786	-0.351943	-0.324931
C38	C	1.148786	0.148057	0.175069
C39	C	0.615989	-0.308869	-0.371757
C40	C	1.115989	0.191131	0.128243
C41	C	0.550554	-0.308850	-0.371761
C42	C	1.050554	0.191150	0.128239
C43	C	0.517918	-0.351918	-0.324945
C44	C	1.017918	0.148082	0.175055
C45	C	0.550723	-0.394995	-0.278109
C46	C	1.050723	0.105005	0.221891
C47	C	0.616157	-0.395007	-0.278102
C48	C	1.116157	0.104993	0.221898
C49	C	0.412237	-0.414977	-0.316751
C50	C	0.912237	0.085023	0.183249
C51	C	0.346804	-0.414967	-0.316763
C52	C	0.846804	0.085033	0.183237
C53	C	0.316098	-0.351880	-0.324962
C54	C	0.816098	0.148120	0.175038
C55	C	0.350832	-0.288803	-0.333164
C56	C	0.850832	0.211197	0.166836
C57	C	0.416266	-0.288815	-0.333157
C58	C	0.916266	0.211185	0.166843
C59	C	0.446966	-0.351910	-0.324947
C60	C	0.946966	0.148090	0.175053
C61	C	0.212349	-0.308782	-0.371795
C62	C	0.712349	0.191218	0.128205
C63	C	0.146913	-0.308762	-0.371793
C64	C	0.646913	0.191238	0.128207
C65	C	0.147083	-0.394914	-0.278145
C66	C	0.647083	0.105086	0.221855
C67	C	0.212518	-0.394927	-0.278143
C68	C	0.712518	0.105073	0.221857
C69	C	0.245147	-0.351863	-0.324972
C70	C	0.745147	0.148137	0.175028
C71	C	0.874883	-0.534457	-0.317577
C72	C	1.374883	-0.034457	0.182423
C73	C	0.872229	-0.612566	-0.314448
C74	C	1.372229	-0.112566	0.185552
C75	C	0.909357	-0.650990	-0.357958
C76	C	1.409357	-0.150990	0.142042
C77	C	0.906862	-0.724382	-0.355019
C78	C	1.406862	-0.224382	0.144981
C79	C	0.867241	-0.759349	-0.308567
C80	C	1.367241	-0.259349	0.191433
C81	C	0.830110	-0.720920	-0.265056
C82	C	1.330110	-0.220920	0.234944
C83	C	0.832602	-0.647529	-0.267998
C84	C	1.332602	-0.147529	0.232002
C85	C	0.855669	-0.978658	-0.294947
C86	C	1.355669	-0.478658	0.205053
C87	C	0.853180	-1.052053	-0.292006
C88	C	1.353180	-0.552053	0.207994
C89	C	0.929932	-1.055511	-0.381971
C90	C	1.429932	-0.555511	0.118029
C91	C	0.932423	-0.982118	-0.384907
C92	C	1.432423	-0.482118	0.115093
C93	C	0.895289	-0.943696	-0.341398
C94	C	1.395289	-0.443696	0.158602
N95	N	0.864691	-0.834367	-0.305561
N96	N	1.364691	-0.334367	0.194439
N97	N	0.897837	-0.868679	-0.344408
N98	N	1.397837	-0.368679	0.155592
C99	C	1.044640	-0.351844	-0.324967
C100	C	1.544640	0.148156	0.175033
C101	C	1.114281	-0.351830	-0.324976
C102	C	1.614281	0.148170	0.175024
C103	C	0.874430	-0.359198	-0.508225
C104	C	1.374430	0.140802	-0.008225
C105	C	0.871538	-0.362318	-0.586328
C106	C	1.371538	0.137682	-0.086328
C107	C	0.887591	-0.168585	-0.332357
C108	C	1.387591	0.331415	0.167643
C109	C	0.890308	-0.090477	-0.335516
C110	C	1.390308	0.409523	0.164484
C111	C	0.911809	-0.318837	-0.624844
C112	C	1.411809	0.181163	-0.124844
C113	C	0.909084	-0.321765	-0.698230
C114	C	1.409084	0.178235	-0.198230
C115	C	0.866090	-0.368179	-0.733098
C116	C	1.366090	0.131821	-0.233098
C117	C	0.825814	-0.411662	-0.694577
C118	C	1.325814	0.088338	-0.194577
C119	C	0.828537	-0.408730	-0.621192
C120	C	1.328537	0.091270	-0.121192
C121	C	0.853481	-0.381767	-0.952379
C122	C	1.353481	0.118233	-0.452379
C123	C	0.850763	-0.384698	-1.025769
C124	C	1.350763	0.115302	-0.525769
C125	C	0.934032	-0.294799	-1.029418
C126	C	1.434032	0.205201	-0.529418
C127	C	0.936754	-0.291874	-0.956032
C128	C	1.436754	0.208126	-0.456032
C129	C	0.896476	-0.335354	-0.917516
C130	C	1.396476	0.164646	-0.417516
N131	N	0.863305	-0.371175	-0.808111
N132	N	1.363305	0.128825	-0.308111
N133	N	0.899258	-0.332354	-0.842506
N134	N	1.399258	0.167646	-0.342506
C135	C	0.888014	-0.344534	-0.142380
C136	C	1.388014	0.155466	0.357620
C137	C	0.891035	-0.341216	-0.064286
C138	C	1.391035	0.158784	0.435714
H139	H	0.523846	-0.273771	-0.409892
H140	H	1.023846	0.226229	0.090108
C141	C	0.454471	-0.219436	-0.342168
C142	C	0.954471	0.280564	0.157832
H143	H	0.426817	-0.181859	-0.347047
H144	H	0.926817	0.318141	0.152953
H145	H	0.478465	-0.222041	-0.382853
H146	H	0.978465	0.277959	0.117147
H147	H	0.481697	-0.211599	-0.302148
H148	H	0.981697	0.288401	0.197852
C149	C	0.778523	-0.462717	-0.732929
C150	C	1.278523	0.037283	-0.232929
H151	H	0.782673	-0.458242	-0.782151
H152	H	1.282673	0.041758	-0.282151
H153	H	0.737228	-0.451962	-0.721311
H154	H	1.237228	0.048038	-0.221311
H155	H	0.786501	-0.509452	-0.718992
H156	H	1.286501	-0.009452	-0.218992
C157	C	0.809183	-0.429597	-0.910018
C158	C	1.309183	0.070403	-0.410018
H159	H	0.816954	-0.421201	-0.861319
H160	H	1.316954	0.078799	-0.361319
H161	H	0.816264	-0.477291	-0.920137
H162	H	1.316264	0.022709	-0.420137
H163	H	0.766995	-0.419797	-0.922455
H164	H	1.266995	0.080203	-0.422455
C165	C	0.791763	-0.605263	-0.220137
C166	C	1.291763	-0.105263	0.279863
H167	H	0.767813	-0.636598	-0.192046
H168	H	1.267813	-0.136598	0.307954
H169	H	0.764422	-0.577731	-0.248136
H170	H	1.264422	-0.077731	0.251864
H171	H	0.817861	-0.575392	-0.190691
H172	H	1.317861	-0.075392	0.309309
C173	C	0.959100	-0.267778	-0.586496
C174	C	1.459100	0.232222	-0.086496
H175	H	0.982689	-0.242296	-0.619949
H176	H	1.482689	0.257704	-0.119949
H177	H	0.986529	-0.293504	-0.556785
H178	H	1.486529	0.206496	-0.056785
H179	H	0.937252	-0.236018	-0.559106
H180	H	1.437252	0.263982	-0.059106
H181	H	0.120211	-0.273682	-0.409924
H182	H	0.620211	0.226318	0.090076
C183	C	0.651878	-0.261491	-0.423258
C184	C	1.151878	0.238509	0.076742
H185	H	0.622970	-0.235829	-0.451142
H186	H	1.122970	0.264171	0.048858
H187	H	0.675335	-0.289641	-0.452742
H188	H	1.175335	0.210359	0.047258
H189	H	0.679465	-0.229759	-0.397656
H190	H	1.179465	0.270241	0.102344
H191	H	0.120511	-0.429981	-0.240026
H192	H	0.620511	0.070019	0.259974
C193	C	0.784253	-0.456576	-0.578823
C194	C	1.284253	0.043424	-0.078823
H195	H	0.758265	-0.484648	-0.610098
H196	H	1.258265	0.015352	-0.110098
H197	H	0.758946	-0.428570	-0.551268
H198	H	1.258946	0.071430	-0.051268
H199	H	0.808234	-0.486044	-0.548971
H200	H	1.308234	0.013956	-0.048971
C201	C	0.970774	-1.097773	-0.429831
C202	C	1.470774	-0.597773	0.070169
H203	H	0.994730	-1.066436	-0.457913
H204	H	1.494730	-0.566436	0.042087
H205	H	0.944681	-1.127646	-0.459274
H206	H	1.444681	-0.627646	0.040726
H207	H	0.998119	-1.125303	-0.401828
H208	H	1.498119	-0.625303	0.098172
C209	C	0.809591	-1.090516	-0.240912
C210	C	1.309591	-0.590516	0.259088
H211	H	0.787827	-1.057123	-0.215426
H212	H	1.287827	-0.557123	0.284574
H213	H	0.833739	-1.117904	-0.209172
H214	H	1.333739	-0.617904	0.290828
H215	H	0.780307	-1.120243	-0.266625
H216	H	1.280307	-0.620243	0.233375
H217	H	0.239221	-0.430006	-0.240015
H218	H	0.739221	0.069994	0.259985
H219	H	0.238917	-0.273712	-0.409921
H220	H	0.738917	0.226288	0.090079
C221	C	0.446008	-0.484378	-0.307738
C222	C	0.946008	0.015622	0.192262
H223	H	0.415951	-0.521942	-0.302866
H224	H	0.915951	-0.021942	0.197134
H225	H	0.473071	-0.481786	-0.267046
H226	H	0.973071	0.018214	0.232954
H227	H	0.469827	-0.492225	-0.347752
H228	H	0.969827	0.007775	0.152248
H229	H	0.825434	-0.947380	-0.259519
H230	H	1.325434	-0.447380	0.240481
C231	C	0.947706	-0.766648	-0.402873
C232	C	1.447706	-0.266648	0.097127
H233	H	0.940544	-0.815365	-0.394474
H234	H	1.440544	-0.315365	0.105526
H235	H	0.990599	-0.754161	-0.393111
H236	H	1.490599	-0.254161	0.106889
H237	H	0.937165	-0.756501	-0.450562
H238	H	1.437165	-0.256501	0.049438
H239	H	0.797847	-0.749396	-0.227237
H240	H	1.297847	-0.249396	0.272763
H241	H	0.941879	-0.286360	-0.729588
H242	H	1.441879	0.213640	-0.229588
C243	C	0.978330	-0.246970	-1.071786
C244	C	1.478330	0.253030	-0.571786
H245	H	0.970549	-0.255358	-1.120485
H246	H	1.470549	0.244642	-0.620485
H247	H	1.020516	-0.256763	-1.059352
H248	H	1.520516	0.243237	-0.559352
H249	H	0.971242	-0.199274	-1.061666
H250	H	1.471242	0.300726	-0.561666
H251	H	0.815750	-0.422495	-1.054156
H252	H	1.315750	0.077505	-0.554156
C253	C	0.984047	-0.240819	-0.917682
C254	C	1.484047	0.259181	-0.417682
H255	H	1.007639	-0.215339	-0.951132
H256	H	1.507639	0.284661	-0.451132
H257	H	1.011472	-0.266554	-0.887974
H258	H	1.511472	0.233446	-0.387974
H259	H	0.962205	-0.209058	-0.890288
H260	H	1.462205	0.290942	-0.390288
H261	H	0.325832	-0.237432	-0.339840
H262	H	0.825832	0.262568	0.160160
H263	H	0.524146	-0.430061	-0.239991
H264	H	1.024146	0.069939	0.260009
C265	C	0.308603	-0.484346	-0.307737
C266	C	0.808603	0.015654	0.192263
H267	H	0.336261	-0.521918	-0.302839
H268	H	0.836261	-0.021918	0.197161
H269	H	0.281373	-0.492197	-0.347746
H270	H	0.781373	0.007803	0.152254
H271	H	0.284614	-0.481730	-0.267044
H272	H	0.784614	0.018270	0.232956
H273	H	0.642859	-0.430084	-0.239969
H274	H	1.142859	0.069916	0.260031
C275	C	0.952932	-0.612533	-0.409064
C276	C	1.452932	-0.112533	0.090936
H277	H	0.974679	-0.645931	-0.434563
H278	H	1.474679	-0.145931	0.065437
H279	H	0.982221	-0.582801	-0.383372
H280	H	1.482221	-0.082801	0.116628
H281	H	0.928769	-0.585151	-0.440803
H282	H	1.428769	-0.085151	0.059197
H283	H	0.964685	-0.953650	-0.422732
H284	H	1.464685	-0.453650	0.077268
