data_functionalizedCrystal
_audit_creation_method	'MofGen! by Chris Wilmer'
_symmetry_space_group_name_H-M	'P1'
_symmetry_Int_Tables_number	1
_symmetry_cell_setting	triclinic
loop_
_symmetry_equiv_pos_as_xyz
  x,y,z
_cell_length_a	14.971486
_cell_length_b	14.971486
_cell_length_c	14.048226
_cell_angle_alpha	89.993360
_cell_angle_beta	89.998499
_cell_angle_gamma	83.614129
loop_
_atom_site_label
_atom_site_type_symbol
_atom_site_fract_x
_atom_site_fract_y
_atom_site_fract_z
O1	O	1.186947	0.116565	-0.079052
O2	O	0.926547	0.130523	-0.079078
O3	O	1.063726	-0.006656	-0.079057
O4	O	1.049768	0.253744	-0.079072
O5	O	1.063710	-0.006664	0.079264
O6	O	0.926530	0.130515	0.079244
O7	O	1.186930	0.116556	0.079270
Zn8	Zn	1.056728	0.123535	0.104394
Zn9	Zn	1.056750	0.123545	-0.104202
O10	O	1.049751	0.253736	0.079249
C11	C	0.893214	0.129895	0.000080
C12	C	0.793917	0.128024	0.000070
C13	C	0.736692	0.208614	0.000067
C14	C	0.643392	0.206850	0.000081
C15	C	0.607320	0.124497	0.000092
C16	C	0.664552	0.043902	0.000098
C17	C	0.757850	0.045666	0.000090
C18	C	0.470090	0.040231	0.000111
C19	C	0.376786	0.038466	0.000117
C20	C	0.355632	0.201415	0.000102
C21	C	0.448930	0.203179	0.000094
C22	C	0.506156	0.122584	0.000099
C23	C	1.063094	-0.039985	0.000103
C24	C	1.061223	-0.139282	0.000102
C25	C	1.141812	-0.196507	0.000111
C26	C	1.140049	-0.289807	0.000101
C27	C	1.057696	-0.325879	0.000089
C28	C	0.977101	-0.268646	0.000078
C29	C	0.978865	-0.175349	0.000081
C30	C	0.973430	-0.463109	0.000074
C31	C	0.971665	-0.556413	0.000073
C32	C	1.134614	-0.577567	0.000094
C33	C	1.136378	-0.484269	0.000097
C34	C	1.055782	-0.427043	0.000088
C35	C	1.220263	0.117185	0.000110
C36	C	1.319561	0.119056	0.000114
C37	C	1.050384	0.287065	0.000087
C38	C	1.052254	0.386362	0.000082
N39	N	1.056719	0.123527	0.246754
N40	N	1.056765	0.123546	-0.246562
C41	C	1.117482	0.062809	0.296581
C42	C	1.117488	0.062808	0.396239
C43	C	1.056735	0.123531	0.446068
C44	C	0.995966	0.184252	0.396234
C45	C	0.995957	0.184247	0.296578
C46	C	0.995992	0.184258	0.603948
C47	C	0.996003	0.184264	0.703611
C48	C	1.117523	0.062819	0.703609
C49	C	1.117514	0.062815	0.603953
C50	C	1.056746	0.123537	0.554126
H51	H	0.635175	-0.023152	0.000120
C52	C	0.769394	-0.115578	0.000090
C53	C	0.820756	-0.042920	0.000085
H54	H	0.808231	-0.170268	0.000083
H55	H	0.732571	-0.112882	0.055300
H56	H	0.732559	-0.112866	-0.055121
H57	H	0.857587	-0.045628	0.055300
H58	H	0.857595	-0.045618	-0.055130
C59	C	0.880599	-0.361292	-0.081320
C60	C	0.886577	-0.308298	0.000065
H61	H	0.824715	-0.385774	-0.081320
H62	H	0.884674	-0.325329	-0.136519
H63	H	0.928349	-0.408723	-0.081304
H64	H	0.838831	-0.260863	0.000046
H65	H	0.882493	-0.344263	0.055279
H66	H	1.166987	0.013375	0.563383
H67	H	0.309033	0.267039	0.000103
H68	H	0.907800	-0.416517	0.000064
C69	C	1.302702	-0.226798	0.000115
C70	C	1.232339	-0.156862	0.000117
H71	H	1.358589	-0.202322	0.000110
H72	H	1.298623	-0.262750	0.055322
H73	H	1.298618	-0.262742	-0.055099
H74	H	1.236419	-0.120921	0.055335
H75	H	1.236420	-0.120894	-0.055096
H76	H	1.205673	-0.336396	0.000110
H77	H	0.946496	0.233690	0.436810
H78	H	0.946531	0.233710	0.744176
H79	H	0.347419	-0.028593	0.000127
C80	C	0.909217	-0.022934	0.000069
C81	C	0.890279	-0.112442	0.000071
H82	H	0.854525	0.015900	0.000054
H83	H	0.942967	-0.012000	0.055281
H84	H	0.942991	-0.011997	-0.055139
H85	H	0.856510	-0.123381	0.055284
H86	H	0.856515	-0.123380	-0.055147
H87	H	0.946506	0.233702	0.563382
H88	H	0.946477	0.233689	0.256010
H89	H	1.200238	-0.624165	0.000099
C90	C	1.237592	-0.057239	0.306600
C91	C	1.184262	-0.003942	0.241815
H92	H	1.278815	-0.098454	0.272789
H93	H	1.269806	-0.019952	0.345455
H94	H	1.200321	-0.089469	0.345483
H95	H	1.221533	0.028293	0.202936
H96	H	1.152046	-0.041235	0.202943
C97	C	0.896619	-0.690042	0.000067
C98	C	0.881143	-0.596067	0.000058
H99	H	0.840733	-0.714521	0.000064
H100	H	0.929810	-0.709667	-0.055133
H101	H	0.929799	-0.709670	0.055287
H102	H	0.847969	-0.576439	-0.055167
H103	H	0.847937	-0.576434	0.055263
H104	H	1.167002	0.013377	0.744184
H105	H	0.766054	0.275675	0.000057
H106	H	1.203437	-0.454903	0.000114
H107	H	1.166964	0.013367	0.436808
C108	C	0.631854	0.368093	0.000052
C109	C	0.580490	0.295437	0.000073
H110	H	0.593019	0.422784	0.000043
H111	H	0.668686	0.365392	0.055255
H112	H	0.668682	0.365383	-0.055166
H113	H	0.543667	0.298143	0.055295
H114	H	0.543642	0.298139	-0.055135
H115	H	0.478296	0.270239	0.000077
H116	H	0.516682	-0.025399	0.000116
