data_functionalizedCrystal
_audit_creation_method	'MofGen! by Chris Wilmer'
_symmetry_space_group_name_H-M	'P1'
_symmetry_Int_Tables_number	1
_symmetry_cell_setting	triclinic
loop_
_symmetry_equiv_pos_as_xyz
  x,y,z
_cell_length_a	12.759401
_cell_length_b	13.031981
_cell_length_c	12.759393
_cell_angle_alpha	97.218247
_cell_angle_beta	90.017039
_cell_angle_gamma	97.192140
loop_
_atom_site_label
_atom_site_type_symbol
_atom_site_fract_x
_atom_site_fract_y
_atom_site_fract_z
Zn1	Zn	1.553132	-0.416049	0.540805
Zn2	Zn	1.530716	-0.590866	0.342782
Zn3	Zn	1.377431	-0.416104	0.365138
Zn4	Zn	1.355118	-0.590784	0.518433
O5	O	1.454099	-0.503451	0.441789
O6	O	1.697178	-0.439249	0.514544
O7	O	1.510339	-0.567741	0.198719
O8	O	1.419458	-0.269831	0.407159
O9	O	1.680709	-0.567687	0.369057
O10	O	1.548545	-0.269790	0.536221
O11	O	1.397722	-0.439344	0.215144
O12	O	1.227452	-0.439265	0.385466
O13	O	1.381428	-0.567548	0.668430
O14	O	1.211058	-0.567602	0.498092
O15	O	1.526908	-0.439170	0.684866
O16	O	1.488703	-0.737121	0.347363
O17	O	1.359692	-0.737061	0.476414
C18	C	1.181134	-0.503431	0.441778
C19	C	1.064356	-0.503448	0.441794
C20	C	1.000971	-0.570380	0.500314
C21	C	0.891245	-0.570394	0.500324
C22	C	0.908298	-0.436540	0.383286
C23	C	1.018023	-0.436522	0.383283
C24	C	0.991124	-0.647663	0.567881
C25	C	0.881399	-0.647676	0.567891
C26	C	1.419372	-0.775016	0.407058
C27	C	1.404611	-0.891193	0.392235
C28	C	1.461859	-0.942884	0.449547
C29	C	1.446604	-1.062959	0.434228
C30	C	1.728130	-0.503471	0.441802
C31	C	1.844905	-0.503479	0.441807
C32	C	1.454179	-0.503344	0.715837
C33	C	1.454214	-0.503298	0.832619
C34	C	1.488991	-0.230825	0.476679
C35	C	1.503860	-0.114648	0.491547
C36	C	1.454089	-0.503482	0.168818
C37	C	1.454296	-0.503233	0.052074
C38	C	1.378535	-0.570090	0.988656
C39	C	1.378491	-0.570120	0.878928
C40	C	1.529979	-0.436434	0.896045
C41	C	1.530018	-0.436399	1.005772
C42	C	1.291077	-0.647276	0.978773
C43	C	1.291033	-0.647307	0.869045
H44	H	0.870561	-0.382050	0.335648
C45	C	1.324029	-0.950647	0.311822
C46	C	1.223394	-0.924257	0.337970
C47	C	1.149131	-0.979012	0.263924
H48	H	1.341544	-0.932896	0.243455
H49	H	1.324389	-1.023452	0.312239
H50	H	1.223035	-0.851468	0.337542
H51	H	1.205845	-0.942011	0.406324
H52	H	1.149491	-1.051817	0.264341
H53	H	1.166656	-0.961257	0.195562
H54	H	1.080840	-0.961121	0.281660
C55	C	1.366017	-1.122410	0.353811
C56	C	1.265382	-1.096019	0.379958
C57	C	1.191119	-1.150775	0.305913
H58	H	1.383533	-1.104659	0.285444
H59	H	1.366378	-1.195214	0.354228
H60	H	1.265024	-1.023231	0.379530
H61	H	1.247834	-1.113773	0.448312
H62	H	1.191480	-1.223579	0.306330
H63	H	1.208645	-1.133019	0.237550
H64	H	1.122829	-1.132883	0.323649
H65	H	0.851087	-0.618781	0.648936
H66	H	1.591703	-0.381949	1.057404
C67	C	1.612134	-0.363989	0.845567
C68	C	1.595899	-0.378341	0.735898
C69	C	1.671568	-0.311630	0.689365
H70	H	1.605820	-0.293713	0.872427
H71	H	1.680796	-0.379292	0.861523
H72	H	1.527253	-0.363030	0.719950
H73	H	1.602221	-0.448602	0.709009
H74	H	1.740231	-0.326933	0.705320
H75	H	1.665249	-0.241359	0.716232
H76	H	1.660569	-0.321365	0.614949
C77	C	1.034357	-0.618803	0.680167
C78	C	0.951106	-0.601168	0.748856
C79	C	0.990893	-0.574567	0.852295
H80	H	1.068628	-0.674178	0.700162
H81	H	1.083538	-0.557328	0.683748
H82	H	0.901943	-0.662636	0.745280
H83	H	0.916826	-0.545789	0.728895
H84	H	1.040074	-0.513092	0.855876
H85	H	1.025164	-0.629946	0.872279
H86	H	0.934415	-0.562589	0.898912
H87	H	1.015329	-0.724518	0.528774
H88	H	1.310395	-0.724163	1.002959
H89	H	1.564165	-1.070014	0.551963
H90	H	1.212492	-0.625583	1.011328
C91	C	1.306292	-0.755322	0.815700
C92	C	1.315677	-0.821360	0.892768
C93	C	1.329731	-0.920867	0.843667
H94	H	1.247166	-0.782340	0.770918
H95	H	1.368605	-0.751007	0.774908
H96	H	1.253371	-0.825679	0.933542
H97	H	1.374804	-0.794376	0.937554
H98	H	1.392043	-0.916552	0.802875
H99	H	1.270601	-0.947875	0.798886
H100	H	1.336109	-0.965684	0.895950
H101	H	0.841273	-0.728608	0.535615
H102	H	1.217432	-0.618321	0.838728
H103	H	1.069628	-0.382013	0.335638
H104	H	1.522160	-0.898247	0.509959
