data_functionalizedCrystal
_audit_creation_method	'MofGen! by Chris Wilmer'
_symmetry_space_group_name_H-M	'P1'
_symmetry_Int_Tables_number	1
_symmetry_cell_setting	triclinic
loop_
_symmetry_equiv_pos_as_xyz
  x,y,z
_cell_length_a	17.077404
_cell_length_b	17.077402
_cell_length_c	17.077404
_cell_angle_alpha	90.011995
_cell_angle_beta	90.003452
_cell_angle_gamma	90.023108
loop_
_atom_site_label
_atom_site_type_symbol
_atom_site_fract_x
_atom_site_fract_y
_atom_site_fract_z
Zn1	Zn	1.199930	-0.312641	0.443835
Zn2	Zn	1.199874	-0.443875	0.312566
Zn3	Zn	1.068699	-0.312628	0.312583
Zn4	Zn	1.068630	-0.443870	0.443790
O5	O	1.134283	-0.378254	0.378194
O6	O	1.309770	-0.330058	0.426434
O7	O	1.182479	-0.426462	0.202722
O8	O	1.086159	-0.202783	0.330020
O9	O	1.309728	-0.426475	0.329991
O10	O	1.182574	-0.202793	0.426451
O11	O	1.086105	-0.330035	0.202734
O12	O	0.958843	-0.330030	0.329976
O13	O	1.086042	-0.426465	0.553643
O14	O	0.958792	-0.426452	0.426373
O15	O	1.182508	-0.330052	0.553676
O16	O	1.182412	-0.553722	0.329947
O17	O	1.085988	-0.553717	0.426357
C18	C	0.930335	-0.378239	0.378172
C19	C	0.843086	-0.378252	0.378181
C20	C	1.134208	-0.582201	0.378162
C21	C	1.134247	-0.669451	0.378175
C22	C	0.802090	-0.428535	0.428295
C23	C	0.720109	-0.428537	0.428307
C24	C	0.679126	-0.378259	0.378202
C25	C	0.720128	-0.327970	0.328086
C26	C	0.802107	-0.327965	0.328078
C27	C	0.549258	-0.327986	0.328105
C28	C	0.467273	-0.327992	0.328112
C29	C	0.467260	-0.428557	0.428334
C30	C	0.549239	-0.428552	0.428326
C31	C	0.590235	-0.378265	0.378209
C32	C	1.184506	-0.710418	0.328029
C33	C	1.184545	-0.792398	0.328049
C34	C	1.134319	-0.833411	0.378212
C35	C	1.084058	-0.792439	0.428364
C36	C	1.084024	-0.710460	0.428347
C37	C	1.084130	-0.963309	0.428394
C38	C	1.084163	-1.045293	0.428410
C39	C	1.184651	-1.045247	0.328095
C40	C	1.184618	-0.963268	0.328079
C41	C	1.134355	-0.922302	0.378230
C42	C	1.339028	-0.378268	0.378216
C43	C	1.426277	-0.378275	0.378225
C44	C	1.134273	-0.378259	0.582938
C45	C	1.134269	-0.378262	0.670188
C46	C	1.134381	-0.173509	0.378242
C47	C	1.134422	-0.086259	0.378263
C48	C	1.184506	-0.328062	1.046021
C49	C	1.184507	-0.328065	0.964040
C50	C	1.134280	-0.378260	0.923037
C51	C	1.084054	-0.428461	0.964018
C52	C	1.084057	-0.428460	1.045997
C53	C	1.084049	-0.428457	0.793148
C54	C	1.084045	-0.428456	0.711163
C55	C	1.184500	-0.328062	0.711191
C56	C	1.184503	-0.328061	0.793170
C57	C	1.134275	-0.378261	0.834146
C58	C	1.134285	-0.378264	1.174246
C59	C	1.134282	-0.378256	1.086996
H60	H	0.835452	-0.469480	0.469094
Br61	Br	1.015890	-0.496587	0.908371
Br62	Br	1.252666	-0.654765	0.259939
Br63	Br	1.252674	-0.259943	0.908434
Br64	Br	1.252683	-0.259952	0.848818
H65	H	1.043203	-0.929956	0.469235
Br66	Br	1.252762	-0.847992	0.259995
H67	H	0.582605	-0.469497	0.469122
Br68	Br	1.252689	-0.259957	0.655583
Br69	Br	0.604895	-0.259736	0.260091
H70	H	0.433877	-0.469501	0.469143
Br71	Br	1.252780	-0.907608	0.259998
Br72	Br	0.664509	-0.259728	0.260093
Br73	Br	1.015900	-0.848098	0.496450
H74	H	0.835485	-0.287016	0.287275
H75	H	1.225580	-1.078606	0.287263
H76	H	1.043279	-1.078683	0.469271
H77	H	1.043098	-0.677106	0.469183
Br78	Br	1.252665	-0.259925	1.101661
H79	H	1.043127	-0.469312	0.677780
Br80	Br	0.411653	-0.259763	0.260105
Br81	Br	1.015884	-0.496586	0.848757
H82	H	0.686734	-0.469483	0.469114
Br83	Br	1.015897	-0.496588	1.101607
