data_functionalizedCrystal
_audit_creation_method	'MofGen! by Chris Wilmer'
_symmetry_space_group_name_H-M	'P1'
_symmetry_Int_Tables_number	1
_symmetry_cell_setting	triclinic
loop_
_symmetry_equiv_pos_as_xyz
  x,y,z
_cell_length_a	17.699083
_cell_length_b	17.699092
_cell_length_c	14.586319
_cell_angle_alpha	90.002662
_cell_angle_beta	89.998107
_cell_angle_gamma	83.284691
loop_
_atom_site_label
_atom_site_type_symbol
_atom_site_fract_x
_atom_site_fract_y
_atom_site_fract_z
O1	O	1.004078	0.095710	0.076108
O2	O	0.783700	0.108163	0.076138
O3	O	0.900112	-0.008252	0.076120
O4	O	0.887666	0.212125	0.076126
O5	O	0.900103	-0.008255	-0.076361
O6	O	0.783691	0.108160	-0.076343
O7	O	1.004069	0.095708	-0.076372
Cu8	Cu	0.893879	0.101934	-0.090280
Cu9	Cu	0.893890	0.101937	0.090046
O10	O	0.887657	0.212123	-0.076355
C11	C	0.755499	0.107715	-0.000099
C12	C	0.671480	0.106377	-0.000087
C13	C	0.622862	0.174710	-0.000086
C14	C	0.543918	0.173448	-0.000098
C15	C	0.513595	0.103851	-0.000104
C16	C	0.562220	0.035513	-0.000109
C17	C	0.641162	0.036776	-0.000103
C18	C	0.243857	0.030418	-0.000132
C19	C	0.164909	0.029160	-0.000134
C20	C	0.146613	0.167089	-0.000126
C21	C	0.225555	0.168352	-0.000120
C22	C	0.274173	0.100014	-0.000129
C23	C	0.359772	0.101384	-0.000118
C24	C	0.427998	0.102481	-0.000109
C25	C	0.899661	-0.036450	-0.000119
C26	C	0.898319	-0.120468	-0.000114
C27	C	0.897696	-0.159934	0.083004
C28	C	0.896431	-0.238877	0.083005
C29	C	0.895795	-0.278353	-0.000113
C30	C	0.896416	-0.238882	-0.083238
C31	C	0.897676	-0.159939	-0.083238
C32	C	0.891336	-0.557247	-0.083238
C33	C	0.890078	-0.636195	-0.083231
C34	C	0.890091	-0.636184	0.083005
C35	C	0.891351	-0.557242	0.083005
C36	C	0.891968	-0.517777	-0.000119
C37	C	0.893338	-0.432178	-0.000120
C38	C	0.894430	-0.363952	-0.000113
C39	C	1.032271	0.096155	-0.000134
C40	C	1.116289	0.097494	-0.000139
C41	C	0.888109	0.240321	-0.000114
C42	C	0.889450	0.324339	-0.000112
N43	N	0.893877	0.101931	-0.217112
C44	C	0.945444	0.050399	-0.548114
C45	C	0.945442	0.050399	-0.452132
C46	C	0.842329	0.153471	-0.452127
C47	C	0.842335	0.153474	-0.548107
C48	C	0.893892	0.101933	-0.596098
C49	C	0.893884	0.101931	-0.404137
C50	C	0.893881	0.101932	-0.300070
C51	C	0.893895	0.101933	-0.700171
N52	N	0.893898	0.101934	0.216878
H53	H	0.107018	0.222733	-0.000123
C54	C	0.892138	-0.514318	-0.173411
C55	C	0.957942	-0.477616	-0.178255
C56	C	0.958706	-0.438048	-0.261305
H57	H	0.891624	-0.549049	-0.222994
H58	H	0.848535	-0.477629	-0.176871
H59	H	1.001534	-0.514301	-0.174804
H60	H	0.958470	-0.442872	-0.128691
H61	H	0.915102	-0.401360	-0.264764
H62	H	0.958190	-0.472785	-0.310881
H63	H	1.003349	-0.413136	-0.264599
C64	C	0.786229	0.209385	-0.400140
C65	C	0.711883	0.197222	-0.423513
C66	C	0.660181	0.248722	-0.375653
H67	H	0.793499	0.202058	-0.336091
H68	H	0.794312	0.259904	-0.415883
H69	H	0.703802	0.146715	-0.407764
H70	H	0.704588	0.204555	-0.487554
H71	H	0.668264	0.299240	-0.391396
H72	H	0.667458	0.241390	-0.311606
H73	H	0.609732	0.240480	-0.391511
C74	C	0.892145	-0.514331	0.173202
C75	C	0.957944	-0.477624	0.178095
C76	C	0.958680	-0.438081	0.261169
H77	H	0.848554	-0.477645	0.176689
H78	H	0.891617	-0.549100	0.222755
H79	H	0.958465	-0.442857	0.128556
H80	H	1.001546	-0.514292	0.174624
H81	H	0.958151	-0.472851	0.310722
H82	H	0.915085	-0.401399	0.264648
H83	H	1.003326	-0.413176	0.264504
H84	H	0.800354	0.195443	-0.587178
C85	C	0.529448	-0.040128	-0.000159
C86	C	0.588926	-0.099701	-0.000183
C87	C	0.558768	-0.169393	-0.000237
H88	H	0.499043	-0.043593	0.053000
H89	H	0.499057	-0.043531	-0.053354
H90	H	0.619304	-0.096299	0.053007
H91	H	0.619336	-0.096260	-0.053338
H92	H	0.528377	-0.172796	-0.053432
H93	H	0.528363	-0.172851	0.052923
H94	H	0.599118	-0.209822	-0.000262
C95	C	0.296510	-0.043857	-0.000091
C96	C	0.253055	-0.105074	-0.000071
C97	C	0.301536	-0.173510	-0.000021
H98	H	0.327704	-0.046342	-0.053250
H99	H	0.327674	-0.046276	0.053104
H100	H	0.221904	-0.102656	-0.053260
H101	H	0.221862	-0.102614	0.053084
H102	H	0.332700	-0.175929	0.053173
H103	H	0.332728	-0.175987	-0.053182
H104	H	0.272059	-0.215054	0.000000
C105	C	0.693988	-0.037392	-0.000290
C106	C	0.739834	-0.040707	-0.078748
C107	C	0.788497	-0.109025	-0.078961
H108	H	0.725232	-0.039840	0.052822
H109	H	0.664650	-0.079044	-0.000343
H110	H	0.769169	0.000934	-0.078687
H111	H	0.708610	-0.038272	-0.131873
H112	H	0.759159	-0.150677	-0.079014
H113	H	0.819736	-0.111467	-0.025846
H114	H	0.819604	-0.111286	-0.132198
H115	H	0.895893	-0.271029	-0.150914
H116	H	0.889558	-0.668334	-0.150920
H117	H	0.889585	-0.668326	0.150689
H118	H	0.898172	-0.127806	-0.150921
H119	H	0.987426	0.008433	-0.587185
H120	H	0.895927	-0.271007	0.150689
C121	C	0.655633	0.250351	-0.000124
C122	C	0.596154	0.309923	-0.000151
C123	C	0.626310	0.379616	-0.000201
H124	H	0.686032	0.253822	0.053037
H125	H	0.686030	0.253751	-0.053317
H126	H	0.565769	0.306525	0.053036
H127	H	0.565750	0.306478	-0.053308
H128	H	0.656707	0.383016	-0.053394
H129	H	0.656709	0.383079	0.052961
H130	H	0.585959	0.420044	-0.000228
H131	H	0.898218	-0.127799	0.150689
H132	H	0.987422	0.008437	-0.413067
H133	H	0.504335	0.229091	-0.000095
H134	H	0.140224	-0.027517	-0.000141
C135	C	0.258329	0.243992	-0.000161
C136	C	0.198853	0.303567	-0.000188
C137	C	0.229014	0.373258	-0.000242
H138	H	0.288730	0.247462	0.052999
H139	H	0.288726	0.247389	-0.053355
H140	H	0.168469	0.300172	0.053000
H141	H	0.168448	0.300122	-0.053344
H142	H	0.259410	0.376655	-0.053435
H143	H	0.259414	0.376720	0.052919
H144	H	0.188665	0.413688	-0.000268
