data_functionalizedCrystal
_audit_creation_method	'MofGen! by Chris Wilmer'
_symmetry_space_group_name_H-M	'P1'
_symmetry_Int_Tables_number	1
_symmetry_cell_setting	triclinic
loop_
_symmetry_equiv_pos_as_xyz
  x,y,z
_cell_length_a	14.519709
_cell_length_b	19.288865
_cell_length_c	12.996460
_cell_angle_alpha	90.005525
_cell_angle_beta	90.000602
_cell_angle_gamma	83.408197
loop_
_atom_site_label
_atom_site_type_symbol
_atom_site_fract_x
_atom_site_fract_y
_atom_site_fract_z
O1	O	-1.223293	-0.091045	-0.085445
O2	O	-0.973293	0.158955	0.164555
O3	O	-0.723293	0.408955	0.414555
O4	O	-0.473293	0.658955	0.664555
O5	O	-0.954748	-0.101767	-0.085478
O6	O	-0.704748	0.148233	0.164522
O7	O	-0.454748	0.398233	0.414522
O8	O	-0.204748	0.648233	0.664522
O9	O	-1.096780	0.004696	-0.085440
O10	O	-0.846780	0.254696	0.164560
O11	O	-0.596780	0.504696	0.414560
O12	O	-0.346780	0.754696	0.664560
O13	O	-1.081261	-0.197509	-0.085483
O14	O	-0.831261	0.052491	0.164517
O15	O	-0.581261	0.302491	0.414517
O16	O	-0.331261	0.552491	0.664517
O17	O	-1.096762	0.004690	0.085693
O18	O	-0.846762	0.254690	0.335693
O19	O	-0.596762	0.504690	0.585693
O20	O	-0.346762	0.754690	0.835693
O21	O	-0.954730	-0.101774	0.085656
O22	O	-0.704730	0.148226	0.335656
O23	O	-0.454730	0.398226	0.585656
O24	O	-0.204730	0.648226	0.835656
O25	O	-1.223275	-0.091051	0.085689
O26	O	-0.973275	0.158949	0.335689
O27	O	-0.723275	0.408949	0.585689
O28	O	-0.473275	0.658949	0.835689
Cu29	Cu	-1.089001	-0.096413	0.101298
Cu30	Cu	-0.839001	0.153587	0.351298
Cu31	Cu	-0.589001	0.403587	0.601298
Cu32	Cu	-0.339001	0.653587	0.851298
Cu33	Cu	-1.089022	-0.096406	-0.101088
Cu34	Cu	-0.839022	0.153594	0.148912
Cu35	Cu	-0.589022	0.403594	0.398912
Cu36	Cu	-0.339022	0.653594	0.648912
O37	O	-1.081243	-0.197515	0.085651
O38	O	-0.831243	0.052485	0.335651
O39	O	-0.581243	0.302485	0.585651
O40	O	-0.331243	0.552485	0.835651
C41	C	-0.920382	-0.101271	0.000085
C42	C	-0.670382	0.148729	0.250085
C43	C	-0.420382	0.398729	0.500085
C44	C	-0.170382	0.648729	0.750085
C45	C	-0.818010	-0.099773	0.000073
C46	C	-0.568010	0.150227	0.250073
C47	C	-0.318010	0.400227	0.500073
C48	C	-0.068010	0.650227	0.750073
C49	C	-1.096272	0.030571	0.000130
C50	C	-0.846272	0.280571	0.250130
C51	C	-0.596272	0.530571	0.500130
C52	C	-0.346272	0.780571	0.750130
C53	C	-1.094773	0.107680	0.000138
C54	C	-0.844773	0.357680	0.250138
C55	C	-0.594773	0.607680	0.500138
C56	C	-0.344773	0.857680	0.750138
C57	C	-1.257640	-0.091548	0.000123
C58	C	-1.007640	0.158452	0.250123
C59	C	-0.757640	0.408452	0.500123
C60	C	-0.507640	0.658452	0.750123
C61	C	-1.360012	-0.093045	0.000128
C62	C	-1.110012	0.156955	0.250128
C63	C	-0.860012	0.406955	0.500128
C64	C	-0.610012	0.656955	0.750128
C65	C	-0.443150	-0.094261	0.000121
C66	C	-0.193150	0.155739	0.250121
C67	C	0.056850	0.405739	0.500121
C68	C	0.306850	0.655739	0.750121
C69	C	-0.547448	-0.095792	0.000108
C70	C	-0.297448	0.154208	0.250108
C71	C	-0.047448	0.404208	0.500108
C72	C	0.202552	0.654208	0.750108
C73	C	-0.630577	-0.097017	0.000096
C74	C	-0.380577	0.152983	0.250096
C75	C	-0.130577	0.402983	0.500096
C76	C	0.119423	0.652983	0.750096
C77	C	-0.734882	-0.098548	0.000084
C78	C	-0.484882	0.151452	0.250084
C79	C	-0.234882	0.401452	0.500084
C80	C	0.015118	0.651452	0.750084
C81	C	-1.081751	-0.223390	0.000079
C82	C	-0.831751	0.026610	0.250079
C83	C	-0.581751	0.276610	0.500079
C84	C	-0.331751	0.526610	0.750079
C85	C	-1.083250	-0.300499	0.000063
C86	C	-0.833250	-0.050499	0.250063
C87	C	-0.583250	0.199501	0.500063
C88	C	-0.333250	0.449501	0.750063
N89	N	-1.088992	-0.096418	0.243645
N90	N	-0.838992	0.153582	0.493645
N91	N	-0.588992	0.403582	0.743645
N92	N	-0.338992	0.653582	0.993645
C93	C	-1.178111	0.152077	0.000154
C94	C	-0.928111	0.402077	0.250154
C95	C	-0.678111	0.652077	0.500154
C96	C	-0.428111	0.902077	0.750154
C97	C	-1.176702	0.224529	0.000137
C98	C	-0.926702	0.474529	0.250137
C99	C	-0.676702	0.724529	0.500137
C100	C	-0.426702	0.974529	0.750137
C101	C	-1.091951	0.252581	0.000126
C102	C	-0.841951	0.502581	0.250126
C103	C	-0.591951	0.752581	0.500126
C104	C	-0.341951	1.002581	0.750126
C105	C	-1.008602	0.208175	0.000105
C106	C	-0.758602	0.458175	0.250105
C107	C	-0.508602	0.708175	0.500105
C108	C	-0.258602	0.958175	0.750105
C109	C	-1.010013	0.135725	0.000111
C110	C	-0.760013	0.385725	0.250111
C111	C	-0.510013	0.635725	0.500111
C112	C	-0.260013	0.885725	0.750111
C113	C	-1.025321	0.361106	0.060062
C114	C	-0.775321	0.611106	0.310062
C115	C	-0.525321	0.861106	0.560062
C116	C	-0.275321	1.111106	0.810062
C117	C	-1.023914	0.433556	0.060063
C118	C	-0.773914	0.683556	0.310063
C119	C	-0.523914	0.933556	0.560063
C120	C	-0.273914	1.183556	0.810063
C121	C	-1.087597	0.476043	0.000103
C122	C	-0.837597	0.726043	0.250103
C123	C	-0.587597	0.976043	0.500103
C124	C	-0.337597	1.226043	0.750103
C125	C	-1.152703	0.446072	-0.059844
C126	C	-0.902703	0.696072	0.190156
C127	C	-0.652703	0.946072	0.440156
C128	C	-0.402703	1.196072	0.690156
C129	C	-1.154114	0.373622	-0.059838
C130	C	-0.904114	0.623622	0.190162
C131	C	-0.654114	0.873622	0.440162
C132	C	-0.404114	1.123622	0.690162
C133	C	-1.090412	0.331141	0.000119
C134	C	-0.840412	0.581141	0.250119
C135	C	-0.590412	0.831141	0.500119
C136	C	-0.340412	1.081141	0.750119
C137	C	-1.169414	0.599000	0.000099
C138	C	-0.919414	0.849000	0.250099
C139	C	-0.669414	1.099000	0.500099
C140	C	-0.419414	1.349000	0.750099
C141	C	-1.168002	0.671454	0.000076
C142	C	-0.918002	0.921454	0.250076
C143	C	-0.668002	1.171454	0.500076
C144	C	-0.418002	1.421454	0.750076
C145	C	-0.999899	0.655098	0.000054
C146	C	-0.749899	0.905098	0.250054
C147	C	-0.499899	1.155098	0.500054
C148	C	-0.249899	1.405098	0.750054
C149	C	-1.001314	0.582647	0.000066
C150	C	-0.751314	0.832647	0.250066
C151	C	-0.501314	1.082647	0.500066
C152	C	-0.251314	1.332647	0.750066
C153	C	-1.086073	0.554602	0.000094
C154	C	-0.836073	0.804602	0.250094
C155	C	-0.586073	1.054602	0.500094
C156	C	-0.336073	1.304602	0.750094
N157	N	-1.089038	-0.096396	-0.243435
N158	N	-0.839038	0.153604	0.006565
N159	N	-0.589038	0.403604	0.256565
N160	N	-0.339038	0.653604	0.506565
C161	C	-1.088996	-0.096419	0.336751
C162	C	-0.838996	0.153581	0.586751
C163	C	-0.588996	0.403581	0.836751
C164	C	-0.338996	0.653581	1.086751
C165	C	-1.089005	-0.096415	0.453556
C166	C	-0.839005	0.153585	0.703556
C167	C	-0.589005	0.403585	0.953556
C168	C	-0.339005	0.653585	1.203556
C169	C	-1.089016	-0.096407	0.546654
C170	C	-0.839016	0.153593	0.796654
C171	C	-0.589016	0.403593	1.046654
C172	C	-0.339016	0.653593	1.296654
C173	C	-1.089026	-0.096403	0.663467
C174	C	-0.839026	0.153597	0.913467
C175	C	-0.589026	0.403597	1.163467
C176	C	-0.339026	0.653597	1.413467
H177	H	-1.247128	0.129248	0.000172
H178	H	-0.997128	0.379248	0.250172
H179	H	-0.747128	0.629248	0.500172
H180	H	-0.497128	0.879248	0.750172
Br181	Br	-0.884878	0.693161	0.000029
Br182	Br	-0.634878	0.943161	0.250029
Br183	Br	-0.384878	1.193161	0.500029
Br184	Br	-0.134878	1.443161	0.750029
H185	H	-0.973460	0.326519	0.108895
H186	H	-0.723460	0.576519	0.358895
H187	H	-0.473460	0.826519	0.608895
H188	H	-0.223460	1.076519	0.858895
Br189	Br	-0.896902	0.075468	0.000088
Br190	Br	-0.646902	0.325468	0.250088
Br191	Br	-0.396902	0.575468	0.500088
Br192	Br	-0.146902	0.825468	0.750088
Br193	Br	-0.888205	0.522390	0.000047
Br194	Br	-0.638205	0.772390	0.250047
Br195	Br	-0.388205	1.022390	0.500047
Br196	Br	-0.138205	1.272390	0.750047
H197	H	-0.939597	0.231020	0.000094
H198	H	-0.689597	0.481020	0.250094
H199	H	-0.439597	0.731020	0.500094
H200	H	-0.189597	0.981020	0.750094
Br201	Br	-1.289812	0.284793	0.000153
Br202	Br	-1.039812	0.534793	0.250153
Br203	Br	-0.789812	0.784793	0.500153
Br204	Br	-0.539812	1.034793	0.750153
H205	H	-1.207124	0.349223	-0.108651
H206	H	-0.957124	0.599223	0.141349
H207	H	-0.707124	0.849223	0.391349
H208	H	-0.457124	1.099223	0.641349
Br209	Br	-1.239138	0.503724	-0.141224
Br210	Br	-0.989138	0.753724	0.108776
Br211	Br	-0.739138	1.003724	0.358776
Br212	Br	-0.489138	1.253724	0.608776
Br213	Br	-1.284441	0.560936	0.000146
Br214	Br	-1.034441	0.810936	0.250146
Br215	Br	-0.784441	1.060936	0.500146
Br216	Br	-0.534441	1.310936	0.750146
Br217	Br	-1.281114	0.731709	0.000085
Br218	Br	-1.031114	0.981709	0.250085
Br219	Br	-0.781114	1.231709	0.500085
Br220	Br	-0.531114	1.481709	0.750085
Br221	Br	-0.935563	0.474223	0.141425
Br222	Br	-0.685563	0.724223	0.391425
Br223	Br	-0.435563	0.974223	0.641425
Br224	Br	-0.185563	1.224223	0.891425
