data_functionalizedCrystal
_audit_creation_method	'MofGen! by Chris Wilmer'
_symmetry_space_group_name_H-M	'P1'
_symmetry_Int_Tables_number	1
_symmetry_cell_setting	triclinic
loop_
_symmetry_equiv_pos_as_xyz
  x,y,z
_cell_length_a	16.109301
_cell_length_b	16.992695
_cell_length_c	15.186229
_cell_angle_alpha	89.995943
_cell_angle_beta	89.999362
_cell_angle_gamma	87.064852
loop_
_atom_site_label
_atom_site_type_symbol
_atom_site_fract_x
_atom_site_fract_y
_atom_site_fract_z
O1	O	1.109856	0.100784	-0.073174
O2	O	1.609856	0.600784	0.426826
O3	O	0.868631	0.113326	-0.073188
O4	O	1.368631	0.613326	0.426812
O5	O	0.988276	-0.007088	-0.073174
O6	O	1.488276	0.492912	0.426826
O7	O	0.990210	0.221197	-0.073188
O8	O	1.490210	0.721197	0.426812
O9	O	0.988268	-0.007089	0.073284
O10	O	1.488268	0.492911	0.573284
O11	O	0.868622	0.113324	0.073270
O12	O	1.368622	0.613324	0.573270
O13	O	1.109847	0.100782	0.073284
O14	O	1.609847	0.600782	0.573284
Zn15	Zn	0.989233	0.107053	0.096530
Zn16	Zn	1.489233	0.607053	0.596530
Zn17	Zn	0.989245	0.107055	-0.096434
Zn18	Zn	1.489245	0.607055	0.403566
O19	O	0.990202	0.221196	0.073270
O20	O	1.490202	0.721196	0.573270
C21	C	0.837618	0.112817	0.000039
C22	C	1.337618	0.612817	0.500039
C23	C	0.745221	0.111294	0.000034
C24	C	1.245221	0.611294	0.500034
C25	C	0.527480	0.179203	0.000040
C26	C	1.027480	0.679203	0.500040
C27	C	0.440664	0.177766	0.000046
C28	C	0.940664	0.677766	0.500046
C29	C	0.451005	0.034899	0.000051
C30	C	0.951005	0.534899	0.500051
C31	C	0.537819	0.036337	0.000051
C32	C	1.037819	0.536337	0.500051
C33	C	0.576055	0.108492	0.000042
C34	C	1.076055	0.608492	0.500042
C35	C	0.402424	0.105616	0.000047
C36	C	0.902424	0.605616	0.500047
C37	C	0.308294	0.104057	0.000053
C38	C	0.808294	0.604057	0.500053
C39	C	0.670191	0.110051	0.000037
C40	C	1.170191	0.610051	0.500037
C41	C	0.985784	-0.036300	0.000055
C42	C	1.485784	0.463700	0.500055
C43	C	0.978361	-0.123343	0.000054
C44	C	1.478361	0.376657	0.500054
C45	C	1.049987	-0.173601	0.000059
C46	C	1.549987	0.326399	0.500059
C47	C	1.043007	-0.255386	0.000050
C48	C	1.543007	0.244614	0.500050
C49	C	0.964400	-0.286911	0.000043
C50	C	1.464400	0.213089	0.500043
C51	C	0.892768	-0.236645	0.000035
C52	C	1.392768	0.263355	0.500035
C53	C	0.899749	-0.154862	0.000038
C54	C	1.399749	0.345138	0.500038
C55	C	0.935467	-0.530501	0.000029
C56	C	1.435467	-0.030501	0.500029
C57	C	0.928491	-0.612291	0.000029
C58	C	1.428491	-0.112291	0.500029
C59	C	1.078731	-0.631026	0.000043
C60	C	1.578731	-0.131026	0.500043
C61	C	1.085704	-0.549240	0.000051
C62	C	1.585704	-0.049240	0.500051
C63	C	1.014073	-0.498982	0.000038
C64	C	1.514073	0.001018	0.500038
N65	N	0.957263	-0.370508	0.000037
N66	N	1.457263	0.129492	0.500037
N67	N	1.021210	-0.415387	0.000038
N68	N	1.521210	0.084613	0.500038
C69	C	1.140860	0.101291	0.000055
C70	C	1.640860	0.601291	0.500055
C71	C	1.233257	0.102814	0.000054
C72	C	1.733257	0.602814	0.500054
C73	C	0.992694	0.250408	0.000039
C74	C	1.492694	0.750408	0.500039
C75	C	1.000118	0.337451	0.000034
C76	C	1.500118	0.837451	0.500034
N77	N	0.989232	0.107051	0.228223
N78	N	1.489232	0.607051	0.728223
N79	N	0.989253	0.107051	-0.228127
N80	N	1.489253	0.607051	0.271873
C81	C	1.042231	0.053750	0.453952
C82	C	1.542231	0.553750	0.953952
C83	C	1.042234	0.053748	0.546141
C84	C	1.542234	0.553748	1.046141
C85	C	0.936247	0.160355	0.546138
C86	C	1.436247	0.660355	1.046138
C87	C	0.936241	0.160352	0.453950
C88	C	1.436241	0.660352	0.953950
C89	C	0.989238	0.107051	0.407859
C90	C	1.489238	0.607051	0.907859
C91	C	0.989246	0.107051	0.592237
C92	C	1.489246	0.607051	1.092237
C93	C	0.989249	0.107050	0.692193
C94	C	1.489249	0.607050	1.192193
C95	C	0.989235	0.107051	0.307897
C96	C	1.489235	0.607051	0.807897
H97	H	0.419863	-0.023846	0.000064
H98	H	0.919863	0.476154	0.500064
C99	C	0.387235	0.255555	0.000049
C100	C	0.887235	0.755555	0.500049
N101	N	0.346993	0.314148	0.000053
N102	N	0.846993	0.814148	0.500053
H103	H	1.149714	-0.523580	0.000057
H104	H	1.649714	-0.023580	0.500057
H105	H	0.841423	-0.113942	0.000033
H106	H	1.341423	0.386058	0.500033
H107	H	0.893100	0.203753	0.583674
H108	H	1.393100	0.703753	1.083674
C109	C	1.157520	-0.686316	0.000048
C110	C	1.657520	-0.186316	0.500048
N111	N	1.216867	-0.727960	0.000048
N112	N	1.716867	-0.227960	0.500048
H113	H	1.085383	0.010347	0.416427
H114	H	1.585383	0.510347	0.916427
C115	C	0.877982	0.219026	0.403245
C116	C	1.377982	0.719026	0.903245
N117	N	0.834115	0.263229	0.365055
N118	N	1.334115	0.763229	0.865055
C119	C	1.100523	-0.004894	0.596839
C120	C	1.600523	0.495106	1.096839
N121	N	1.144427	-0.049068	0.635024
N122	N	1.644427	0.450932	1.135024
C123	C	0.591255	-0.041455	0.000053
C124	C	1.091255	0.458545	0.500053
N125	N	0.631502	-0.100046	0.000057
N126	N	1.131502	0.399954	0.500057
C127	C	1.136461	-0.138933	0.000068
C128	C	1.636461	0.361067	0.500068
N129	N	1.201596	-0.112823	0.000070
N130	N	1.701596	0.387177	0.500070
H131	H	1.101332	-0.296304	0.000056
H132	H	1.601332	0.203696	0.500056
C133	C	0.842014	-0.646965	0.000014
C134	C	1.342014	-0.146965	0.500014
N135	N	0.776883	-0.673082	0.000003
N136	N	1.276883	-0.173082	0.500003
C137	C	0.569536	0.258575	0.000040
C138	C	1.069536	0.758575	0.500040
N139	N	0.601209	0.318360	0.000045
N140	N	1.101209	0.818360	0.500045
H141	H	0.877139	-0.489590	0.000019
H142	H	1.377139	0.010410	0.500019
H143	H	0.828765	-0.262319	0.000023
H144	H	1.328765	0.237681	0.500023
