data_functionalizedCrystal
_audit_creation_method	'MofGen! by Chris Wilmer'
_symmetry_space_group_name_H-M	'P1'
_symmetry_Int_Tables_number	1
_symmetry_cell_setting	triclinic
loop_
_symmetry_equiv_pos_as_xyz
  x,y,z
_cell_length_a	14.519709
_cell_length_b	12.837942
_cell_length_c	11.295471
_cell_angle_alpha	94.527666
_cell_angle_beta	85.889017
_cell_angle_gamma	89.254543
loop_
_atom_site_label
_atom_site_type_symbol
_atom_site_fract_x
_atom_site_fract_y
_atom_site_fract_z
O1	O	-1.241207	-0.128953	0.098867
O2	O	-0.974115	-0.144956	0.098903
O3	O	-1.101738	0.013959	0.098879
O4	O	-1.113584	-0.287868	0.098892
O5	O	-1.090517	0.000031	-0.099170
O6	O	-0.962894	-0.158884	-0.099145
O7	O	-1.229986	-0.142881	-0.099182
Cu8	Cu	-1.095415	-0.152154	-0.117247
Cu9	Cu	-1.108686	-0.135683	0.116969
O10	O	-1.102363	-0.301796	-0.099157
C11	C	-0.934081	-0.151173	-0.000116
C12	C	-0.831507	-0.148937	-0.000103
C13	C	-1.092126	0.045623	-0.000144
C14	C	-1.080192	0.160723	-0.000141
C15	C	-1.270021	-0.136663	-0.000159
C16	C	-1.372595	-0.138899	-0.000165
C17	C	-0.455897	-0.140712	-0.000157
C18	C	-0.560403	-0.142996	-0.000142
C19	C	-0.643699	-0.144824	-0.000129
C20	C	-0.748212	-0.147109	-0.000115
C21	C	-1.111975	-0.333460	-0.000131
C22	C	-1.123909	-0.448558	-0.000127
N23	N	-1.086089	-0.163739	-0.281982
C24	C	-1.223663	0.401415	-0.000135
C25	C	-1.212454	0.509562	-0.000132
C26	C	-1.046567	0.485166	-0.000122
C27	C	-1.057776	0.377019	-0.000125
C28	C	-1.146327	0.335148	-0.000134
C29	C	-1.157534	0.226998	-0.000146
C30	C	-0.991648	0.202605	-0.000127
C31	C	-0.980440	0.310751	-0.000124
C32	C	-1.019013	-0.247238	-0.468991
C33	C	-1.026044	-0.238467	-0.344328
C34	C	-1.139105	-0.097774	-0.344306
C35	C	-1.132074	-0.106544	-0.468969
C36	C	-1.072028	-0.181280	-0.531307
C37	C	-1.065003	-0.190055	-0.655972
C38	C	-1.178058	-0.049357	-0.655947
C39	C	-1.185089	-0.040587	-0.531285
N40	N	-1.118019	-0.124090	0.281704
H41	H	-1.229636	0.192909	-0.000157
F42	F	-0.969616	-0.308667	-0.278011
F43	F	-1.202998	-0.018230	-0.277949
F44	F	-1.294767	0.580086	-0.000130
F45	F	-0.952335	0.529749	-0.000083
H46	H	-1.233975	0.020264	-0.480515
F47	F	-0.886203	0.355326	-0.000105
F48	F	-0.909335	0.132069	-0.000138
H49	H	-1.221229	0.004347	-0.706699
H50	H	-1.295764	0.367323	-0.000154
F51	F	-1.001099	-0.269596	-0.722314
H52	H	-0.970128	-0.308097	-0.519747
