data_functionalizedCrystal
_audit_creation_method	'MofGen! by Chris Wilmer'
_symmetry_space_group_name_H-M	'P1'
_symmetry_Int_Tables_number	1
_symmetry_cell_setting	triclinic
loop_
_symmetry_equiv_pos_as_xyz
  x,y,z
_cell_length_a	14.519709
_cell_length_b	27.732048
_cell_length_c	12.996460
_cell_angle_alpha	89.988908
_cell_angle_beta	90.000034
_cell_angle_gamma	83.161400
loop_
_atom_site_label
_atom_site_type_symbol
_atom_site_fract_x
_atom_site_fract_y
_atom_site_fract_z
O1	O	1.222766	0.063362	-0.085445
O2	O	0.954160	0.070824	-0.085477
O3	O	1.096805	-0.003264	-0.085440
O4	O	1.080121	0.137450	-0.085482
O5	O	1.096791	-0.003268	0.085693
O6	O	0.954145	0.070820	0.085656
O7	O	1.222752	0.063358	0.085689
Cu8	Cu	1.088447	0.067089	0.101299
Cu9	Cu	1.088464	0.067093	-0.101087
O10	O	1.080106	0.137446	0.085652
C11	C	0.919799	0.070474	0.000086
C12	C	0.817435	0.069432	0.000074
C13	C	0.442606	0.065596	0.000122
C14	C	0.546896	0.066661	0.000108
C15	C	0.630018	0.067514	0.000097
C16	C	0.734314	0.068579	0.000085
C17	C	1.096448	-0.021274	0.000129
C18	C	1.095393	-0.074934	0.000138
C19	C	1.173048	-0.413378	0.000094
C20	C	1.169135	-0.615057	0.000080
O21	O	1.240145	-0.645973	0.000043
N22	N	1.084552	-0.634585	0.000070
C23	C	1.000941	-0.603690	0.000058
O24	O	0.928909	-0.624927	0.000039
C25	C	1.004855	-0.402012	0.000065
C26	C	1.089444	-0.382487	0.000085
C27	C	1.257630	-0.393853	0.000113
C28	C	1.258607	-0.343436	0.000122
C29	C	1.175003	-0.312545	0.000113
C30	C	1.090421	-0.332071	0.000094
C31	C	0.921246	-0.371118	0.000045
C32	C	0.922232	-0.320696	0.000045
C33	C	1.006820	-0.301171	0.000064
C34	C	1.007794	-0.250763	0.000094
N35	N	1.092377	-0.231235	0.000104
C36	C	1.175981	-0.262126	0.000113
C37	C	0.998893	-0.709574	0.000056
C38	C	0.997914	-0.759993	0.000056
C39	C	1.166108	-0.771356	0.000076
C40	C	1.167086	-0.720936	0.000083
C41	C	1.083476	-0.690045	0.000065
C42	C	1.178028	-0.156247	0.000133
C43	C	1.178998	-0.105825	0.000147
C44	C	1.010804	-0.094466	0.000122
C45	C	1.009833	-0.144883	0.000114
C46	C	1.093453	-0.175773	0.000116
O47	O	0.936822	-0.219818	0.000119
O48	O	1.248004	-0.240879	0.000109
C49	C	1.172071	-0.463795	0.000085
C50	C	1.087489	-0.483320	0.000066
C51	C	1.003885	-0.452429	0.000057
C52	C	1.086510	-0.533740	0.000066
C53	C	1.170115	-0.564631	0.000076
C54	C	1.254698	-0.545103	0.000085
C55	C	1.255675	-0.494686	0.000094
C56	C	0.919302	-0.471957	0.000048
C57	C	0.918331	-0.522375	0.000039
C58	C	1.001936	-0.553266	0.000049
C59	C	1.257113	0.063708	0.000124
C60	C	1.359476	0.064750	0.000129
C61	C	1.080464	0.155456	0.000080
C62	C	1.081518	0.209116	0.000065
N63	N	1.088442	0.067085	0.243646
N64	N	1.088477	0.067093	-0.243434
C65	C	1.088463	0.067094	0.663460
C66	C	1.088454	0.067093	0.546655
C67	C	1.088453	0.067090	0.453557
C68	C	1.088443	0.067088	0.336744
H69	H	1.247882	-0.089931	0.000166
H70	H	0.851220	-0.446810	0.000038
H71	H	0.854144	-0.295547	0.000029
O72	O	1.247238	-0.801437	0.000030
C73	C	1.228225	-0.850123	0.000050
H74	H	1.155813	-0.852115	-0.032344
H75	H	1.281550	-0.872912	-0.049642
H76	H	1.231937	-0.864711	0.082149
H77	H	1.325714	-0.419000	0.000117
H78	H	0.930803	-0.684426	0.000042
O79	O	1.249277	-0.701994	-0.000090
C80	C	1.300211	-0.717779	-0.088702
H81	H	1.250738	-0.728308	-0.150654
H82	H	1.339008	-0.687200	-0.118453
H83	H	1.352071	-0.750593	-0.068654
H84	H	0.942736	-0.069306	0.000118
H85	H	0.940955	-0.160781	0.000126
O86	O	1.259338	-0.186179	0.000185
C87	C	1.334192	-0.158125	0.000179
H88	H	1.310219	-0.120523	0.032577
H89	H	1.392724	-0.176668	0.049873
H90	H	1.360164	-0.154499	-0.081917
O91	O	1.335972	-0.575066	-0.000046
C92	C	1.387367	-0.566204	-0.088685
H93	H	1.364177	-0.527976	-0.118228
H94	H	1.464332	-0.569688	-0.068747
H95	H	1.375150	-0.593783	-0.150755
O96	O	1.340858	-0.324553	0.000087
C97	C	1.414429	-0.362638	0.000118
H98	H	1.389068	-0.396907	-0.032284
H99	H	1.473535	-0.352046	-0.049561
H100	H	1.440177	-0.369758	0.082222
O101	O	0.838994	-0.389996	-0.000024
C102	C	0.765425	-0.351911	-0.000013
H103	H	0.790797	-0.317636	-0.032400
H104	H	0.706330	-0.362491	-0.049716
H105	H	0.739658	-0.344807	0.082082
H106	H	0.929034	-0.775885	0.000058
O107	O	0.836074	-0.541257	-0.000024
C108	C	0.762499	-0.503175	-0.000007
H109	H	0.787865	-0.468897	-0.032388
H110	H	0.703407	-0.513756	-0.049711
H111	H	0.736732	-0.496076	0.082090
H112	H	1.324556	-0.478794	0.000110
