data_functionalizedCrystal
_audit_creation_method	'MofGen! by Chris Wilmer'
_symmetry_space_group_name_H-M	'P1'
_symmetry_Int_Tables_number	1
_symmetry_cell_setting	triclinic
loop_
_symmetry_equiv_pos_as_xyz
  x,y,z
_cell_length_a	16.109302
_cell_length_b	14.044190
_cell_length_c	15.186229
_cell_angle_alpha	89.991383
_cell_angle_beta	89.994701
_cell_angle_gamma	88.326779
loop_
_atom_site_label
_atom_site_type_symbol
_atom_site_fract_x
_atom_site_fract_y
_atom_site_fract_z
O1	O	1.112198	0.121838	-0.073279
O2	O	0.871264	0.136999	-0.073273
O3	O	0.988112	-0.008565	-0.073258
O4	O	0.995350	0.267402	-0.073293
O5	O	0.988103	-0.008567	0.073199
O6	O	0.871256	0.136997	0.073184
O7	O	1.112189	0.121836	0.073179
Zn8	Zn	0.991721	0.129416	0.096435
Zn9	Zn	0.991732	0.129419	-0.096529
O10	O	0.995342	0.267400	0.073164
C11	C	0.840239	0.136384	-0.000043
C12	C	0.747807	0.134543	-0.000040
C13	C	0.535144	0.130283	0.079785
C14	C	0.448295	0.128542	0.079782
C15	C	0.448315	0.128550	-0.079893
C16	C	0.535163	0.130283	-0.079890
C17	C	0.578576	0.131155	-0.000048
C18	C	0.404878	0.127681	-0.000054
C19	C	0.310712	0.125793	-0.000058
C20	C	0.672748	0.133040	-0.000044
C21	C	0.984940	-0.043879	-0.000027
C22	C	0.975494	-0.149103	-0.000019
C23	C	1.025219	-0.399404	-0.000055
C24	C	0.958238	-0.341755	-0.000047
C25	C	0.967842	-0.234553	-0.000032
C26	C	1.015617	-0.506616	-0.000070
C27	C	1.143214	0.122451	-0.000053
C28	C	1.235646	0.124293	-0.000062
C29	C	0.998513	0.302715	-0.000069
C30	C	1.007959	0.407938	-0.000083
N31	N	0.991719	0.129414	0.228127
N32	N	0.991740	0.129414	-0.228222
C33	C	1.043480	0.064980	0.453857
C34	C	1.043482	0.064977	0.546046
C35	C	0.939974	0.193851	0.546043
C36	C	0.939967	0.193848	0.453855
C37	C	0.991725	0.129414	0.407764
C38	C	0.991734	0.129414	0.592142
C39	C	0.991736	0.129412	0.692098
C40	C	0.991722	0.129414	0.307802
H41	H	0.570488	0.130993	0.144798
O42	O	0.577228	0.131171	-0.157523
C43	C	0.520290	0.130015	-0.227994
H44	H	0.457160	0.158770	-0.204599
H45	H	0.543527	0.176508	-0.283834
H46	H	0.514143	0.053834	-0.252535
H47	H	1.089770	-0.368250	-0.000047
O48	O	0.406233	0.127744	0.157411
C49	C	0.463178	0.128859	0.227877
H50	H	0.523870	0.160089	0.204469
H51	H	0.436209	0.174346	0.283708
H52	H	0.475501	0.053046	0.252434
H53	H	0.893681	-0.372910	-0.000051
H54	H	0.897835	0.246314	0.583579
H55	H	1.085623	0.012512	0.416332
H56	H	0.897819	0.246318	0.416323
O57	O	1.093682	0.002424	0.590957
C58	C	1.082605	0.016253	0.682209
H59	H	1.019134	0.051655	0.694805
H60	H	1.086535	-0.055527	0.717253
H61	H	1.133188	0.063811	0.708356
H62	H	0.412958	0.127841	-0.144898
