data_functionalizedCrystal
_audit_creation_method	'MofGen! by Chris Wilmer'
_symmetry_space_group_name_H-M	'P1'
_symmetry_Int_Tables_number	1
_symmetry_cell_setting	triclinic
loop_
_symmetry_equiv_pos_as_xyz
  x,y,z
_cell_length_a	14.519709
_cell_length_b	14.519709
_cell_length_c	14.586319
_cell_angle_alpha	89.995260
_cell_angle_beta	90.002108
_cell_angle_gamma	83.680145
loop_
_atom_site_label
_atom_site_type_symbol
_atom_site_fract_x
_atom_site_fract_y
_atom_site_fract_z
O1	O	1.223866	0.120890	-0.076123
O2	O	0.955389	0.135127	-0.076151
O3	O	1.096746	-0.006230	-0.076128
O4	O	1.082510	0.262247	-0.076146
O5	O	1.096736	-0.006232	0.076353
O6	O	0.955380	0.135125	0.076330
O7	O	1.223856	0.120888	0.076358
Cu8	Cu	1.089617	0.128006	0.090266
Cu9	Cu	1.089629	0.128009	-0.090060
O10	O	1.082500	0.262245	0.076335
C11	C	0.921025	0.134462	0.000086
C12	C	0.818643	0.132474	0.000075
C13	C	0.443748	0.125154	0.000117
C14	C	0.548056	0.127187	0.000105
C15	C	0.631192	0.128814	0.000095
C16	C	0.735507	0.130847	0.000085
C17	C	1.096078	-0.040591	0.000112
C18	C	1.094090	-0.142972	0.000113
C19	C	1.086770	-0.517868	0.000088
C20	C	1.088803	-0.413560	0.000095
C21	C	1.090430	-0.330423	0.000101
C22	C	1.092463	-0.226109	0.000107
C23	C	1.258221	0.121553	0.000119
C24	C	1.360602	0.123541	0.000123
C25	C	1.083168	0.296606	0.000092
C26	C	1.085156	0.398987	0.000086
N27	N	1.089616	0.128004	0.217098
N28	N	1.089637	0.128004	-0.216892
C29	C	1.152229	0.065432	0.452115
C30	C	1.152232	0.065430	0.548096
C31	C	1.027017	0.190578	0.548085
C32	C	1.027011	0.190575	0.452106
C33	C	1.089622	0.128003	0.404123
C34	C	1.089631	0.128004	0.596084
C35	C	1.089634	0.128002	0.700151
C36	C	1.089619	0.128004	0.300049
H37	H	1.203211	0.014478	0.587168
O38	O	1.212896	0.004571	0.405423
C39	C	1.163377	-0.052445	0.349960
H40	H	1.091294	-0.015837	0.335557
H41	H	1.201839	-0.067013	0.282476
H42	H	1.156955	-0.120588	0.386995
O43	O	0.966295	0.251329	0.594839
C44	C	0.979710	0.237902	0.689845
H45	H	1.052972	0.203594	0.702955
H46	H	0.969569	0.307724	0.726313
H47	H	0.927439	0.191535	0.717092
H48	H	0.976024	0.241529	0.413028
