data_functionalizedCrystal
_audit_creation_method	'MofGen! by Chris Wilmer'
_symmetry_space_group_name_H-M	'P1'
_symmetry_Int_Tables_number	1
_symmetry_cell_setting	triclinic
loop_
_symmetry_equiv_pos_as_xyz
  x,y,z
_cell_length_a	19.851628
_cell_length_b	20.875641
_cell_length_c	20.875641
_cell_angle_alpha	60.089808
_cell_angle_beta	90.005247
_cell_angle_gamma	62.438296
loop_
_atom_site_label
_atom_site_type_symbol
_atom_site_fract_x
_atom_site_fract_y
_atom_site_fract_z
Zr1	Zr	0.679809	0.694277	-0.105692
O2	O	0.581086	0.820527	-0.208968
O3	O	0.706379	0.563019	-0.070758
O4	O	0.716300	0.687041	-0.204229
O5	O	0.567541	0.703959	0.026062
O6	O	0.827161	0.687030	-0.204216
O7	O	0.571165	0.696505	-0.075497
O8	O	0.809414	0.465176	0.034539
O9	O	0.585288	0.925812	-0.212693
O10	O	0.804908	0.618853	-0.059806
O11	O	0.719469	0.624424	0.015977
O12	O	0.731150	0.770445	-0.141168
O13	O	0.645711	0.776016	-0.065385
Zr14	Zr	0.850840	0.706146	0.056303
Zr15	Zr	0.856619	0.694258	-0.105672
Zr16	Zr	0.674029	0.706165	0.056282
Zr17	Zr	0.686510	0.862194	-0.111634
Zr18	Zr	0.844138	0.538229	0.062244
O19	O	0.824269	0.837404	0.021368
O20	O	0.832488	0.820501	-0.208939
O21	O	0.572868	0.837430	0.021339
O22	O	0.949562	0.579896	0.159578
O23	O	0.957781	0.562993	-0.070729
O24	O	0.698161	0.579922	0.159549
O25	O	0.963107	0.696464	-0.075452
O26	O	0.814349	0.713382	0.154839
O27	O	0.703488	0.713394	0.154826
O28	O	0.959483	0.703918	0.026107
O29	O	0.725829	0.925797	-0.212677
O30	O	0.804820	0.474626	0.163288
O31	O	0.945361	0.474611	0.163304
O32	O	0.949955	0.465162	0.034556
O33	O	0.580694	0.935261	-0.083945
O34	O	0.721234	0.935247	-0.083929
O35	O	0.799499	0.629979	0.091779
O36	O	0.884938	0.624407	0.015996
O37	O	0.811179	0.775999	-0.065366
O38	O	0.725741	0.781570	0.010416
C39	C	0.756942	0.490173	-0.017262
C40	C	0.754097	0.418888	-0.014740
C41	C	0.544162	0.700234	-0.024720
C42	C	0.469101	0.700242	-0.024729
C43	C	0.797356	0.382490	-0.053113
C44	C	0.794685	0.315506	-0.050735
C45	C	0.748749	0.284925	-0.009989
C46	C	0.705489	0.321326	0.028388
C47	C	0.708165	0.388305	0.026015
C48	C	0.735967	0.084915	0.001355
C49	C	0.733292	0.017933	0.003723
C50	C	0.822490	0.012116	-0.075399
C51	C	0.825159	0.079100	-0.077773
C52	C	0.781901	0.115492	-0.039392
N53	N	0.746016	0.216458	-0.007560
N54	N	0.784640	0.183953	-0.041817
C55	C	0.247538	0.782878	-0.069065
C56	C	0.224536	0.737848	-0.097497
C57	C	0.331693	0.700220	-0.024706
C58	C	0.220955	0.745255	0.003711
C59	C	0.198959	0.700206	-0.024685
C60	C	0.309681	0.655186	-0.053180
C61	C	0.306096	0.662609	0.048067
C62	C	0.283144	0.617518	0.019656
C63	C	0.408156	0.700231	-0.024720
C64	C	0.122501	0.700188	-0.024672
C65	C	0.986487	0.700189	-0.024669
C66	C	1.061548	0.700181	-0.024661
C67	C	0.772554	0.685342	-0.227300
C68	C	0.775008	0.680295	-0.296063
C69	C	0.773707	0.910250	-0.032127
C70	C	0.776552	0.981535	-0.034649
C71	C	0.737661	0.757051	-0.370837
C72	C	0.739977	0.752304	-0.435444
C73	C	0.779635	0.670800	-0.425274
C74	C	0.816987	0.594038	-0.350492
C75	C	0.814675	0.598786	-0.285887
C76	C	0.790681	0.648114	-0.613939
C77	C	0.792988	0.643372	-0.678552
C78	C	0.715979	0.801639	-0.763500
C79	C	0.713667	0.806380	-0.698890
C80	C	0.751022	0.729618	-0.624113
N81	N	0.782001	0.665945	-0.491312
N82	N	0.748660	0.734473	-0.558077
C83	C	0.758095	0.715082	0.177911
C84	C	0.755641	0.720128	0.246673
C85	C	0.978105	0.490150	-0.017237
C86	C	1.050320	0.418857	-0.014706
C87	C	0.749712	0.505043	0.185343
C88	C	0.744414	0.438805	0.256628
C89	C	0.970875	0.505020	0.185368
C90	C	1.040637	0.438774	0.256662
C91	C	0.559774	0.895403	-0.234758
C92	C	0.490012	0.961649	-0.306051
C93	C	0.552544	0.910273	-0.032152
C94	C	0.480328	0.981566	-0.034684
C95	C	0.780936	0.895380	-0.234732
C96	C	0.786235	0.961619	-0.306017
C97	C	1.042459	0.382478	-0.053092
C98	C	1.110308	0.315499	-0.050729
C99	C	1.186016	0.284896	-0.009975
C100	C	1.193876	0.321282	0.028411
C101	C	1.126029	0.388264	0.026044
C102	C	0.783700	0.410598	0.329678
C103	C	0.778718	0.348370	0.396664
C104	C	0.734455	0.314345	0.390597
C105	C	0.695164	0.342557	0.317539
C106	C	0.700141	0.404789	0.250555
C107	C	1.118004	0.404756	0.250584
C108	C	1.183560	0.342520	0.317566
C109	C	1.171747	0.314298	0.390624
C110	C	1.094373	0.348322	0.396700
C111	C	1.028819	0.410562	0.329719
C112	C	0.412646	0.995675	-0.299974
C113	C	0.347090	1.057933	-0.366956
C114	C	0.358903	1.086158	-0.440014
C115	C	0.436277	1.052129	-0.446090
C116	C	0.501831	0.989878	-0.379109
C117	C	0.488190	1.017952	0.003695
C118	C	0.420343	1.084948	0.001314
C119	C	0.344635	1.115553	-0.039442
C120	C	0.336775	1.079164	-0.077826
C121	C	0.404621	1.012173	-0.075448
C122	C	0.830505	0.995624	-0.299926
C123	C	0.835499	1.057854	-0.366899
C124	C	0.796218	1.086081	-0.439963
C125	C	0.751946	1.052069	-0.446053
C126	C	0.746957	0.989836	-0.379080
H127	H	0.834758	0.407388	-0.086297
H128	H	0.426758	1.114566	0.032574
C129	C	0.661780	0.913012	-0.461300
C130	C	0.694068	0.846644	-0.382021
H131	H	0.634873	0.968323	-0.468205
H132	H	0.625213	0.907873	-0.484736
H133	H	0.703363	0.907855	-0.484722
H134	H	0.652485	0.851797	-0.358600
H135	H	0.730637	0.851785	-0.358576
H136	H	0.710905	0.962155	-0.384051
H137	H	0.403012	0.972698	-0.240492
H138	H	0.862494	0.972652	-0.240439
H139	H	0.825282	0.576998	-0.670263
H140	H	0.980820	0.407392	-0.086287
H141	H	0.305518	1.136847	-0.494549
C142	C	0.375369	1.144970	-0.583899
C143	C	0.449252	1.083153	-0.526400
H144	H	0.383380	1.164115	-0.633480
H145	H	0.347800	1.193464	-0.579930
H146	H	0.344827	1.119249	-0.577290
H147	H	0.479793	1.108876	-0.533007
H148	H	0.476834	1.034651	-0.530372
H149	H	0.800287	1.136756	-0.494490
H150	H	0.564824	0.962173	-0.384066
C151	C	0.645599	0.030207	0.081913
C152	C	0.682938	-0.015817	0.048660
H153	H	0.614558	0.009328	0.109697
H154	H	0.612069	0.090683	0.042260
H155	H	0.684850	0.021810	0.116346
H156	H	0.643687	-0.007415	0.014222
H157	H	0.716470	-0.076307	0.088319
C158	C	0.633694	0.214442	-0.010121
C159	C	0.688409	0.124920	0.043533
H160	H	0.604334	0.239141	0.015921
H161	H	0.598199	0.222668	-0.047946
H162	H	0.661444	0.242232	-0.034717
H163	H	0.660658	0.097129	0.068125
H164	H	0.723908	0.116687	0.081372
H165	H	0.819744	0.438295	0.334633
H166	H	0.284095	1.085629	-0.361994
C167	C	0.629307	0.917836	0.042487
C168	C	0.571405	0.984323	0.048495
H169	H	0.680678	0.897078	0.070148
H170	H	0.626019	0.940142	-0.010482
H171	H	0.620500	0.871189	0.063734
H172	H	0.580209	1.030973	0.027243
H173	H	0.574695	0.962018	0.101475
C174	C	0.099376	0.795451	0.036465
C175	C	0.169311	0.796669	0.036150
H176	H	0.067492	0.827201	0.056482
H177	H	0.112591	0.736742	0.068046
H178	H	0.070609	0.821599	-0.014925
H179	H	0.198081	0.770515	0.087541
H180	H	0.156097	0.855389	0.004569
H181	H	0.275124	1.104092	-0.111008
H182	H	1.127636	0.427725	0.191103
H183	H	0.672936	0.417942	0.057260
H184	H	0.709566	0.814807	-0.496327
H185	H	0.289396	1.170102	-0.041371
H186	H	1.255527	0.296356	0.061592
C187	C	1.215459	0.387221	0.104524
C188	C	1.134677	0.428239	0.068253
H189	H	1.220800	0.411895	0.130588
H190	H	1.242935	0.395463	0.066696
H191	H	1.237422	0.326488	0.140899
H192	H	1.112716	0.488971	0.031874
H193	H	1.107191	0.420004	0.106085
C194	C	0.917562	1.057332	-0.281917
C195	C	0.884154	1.095242	-0.360193
H196	H	0.947593	1.080419	-0.277778
H197	H	0.951471	0.995829	-0.256122
H198	H	0.876274	1.070051	-0.258771
H199	H	0.925443	1.082517	-0.383338
H200	H	0.850243	1.156759	-0.385999
H201	H	0.821099	0.585609	-0.553061
C202	C	0.861831	0.360358	0.468134
C203	C	0.821920	0.317359	0.476963
H204	H	0.888506	0.341209	0.517707
H205	H	0.824448	0.421620	0.439046
H206	H	0.899618	0.347395	0.441672
H207	H	0.784129	0.330328	0.503421
H208	H	0.859307	0.256084	0.506063
H209	H	0.719965	1.075061	-0.505551
C210	C	0.854672	0.516479	-0.411801
C211	C	0.860580	0.504444	-0.339307
H212	H	0.881580	0.461165	-0.404892
H213	H	0.878281	0.548219	-0.439862
H214	H	0.800148	0.548203	-0.439809
H215	H	0.915104	0.472725	-0.311301
H216	H	0.836974	0.472691	-0.311235
C217	C	0.322125	0.572167	-0.105696
C218	C	0.361181	0.603819	-0.085713
H219	H	0.353922	0.540454	-0.125777
H220	H	0.272265	0.619829	-0.143844
H221	H	0.313712	0.534741	-0.061012
H222	H	0.369589	0.641251	-0.130398
H223	H	0.411056	0.556151	-0.047562
C224	C	0.315188	1.013183	-0.153893
C225	C	0.395970	0.972171	-0.117628
H226	H	0.309845	0.988484	-0.179930
H227	H	0.293229	1.073904	-0.190282
H228	H	0.287709	1.004959	-0.116058
H229	H	0.423448	0.980400	-0.155464
H230	H	0.417940	0.911435	-0.081235
H231	H	0.857709	-0.017521	-0.106646
C232	C	0.883105	0.316498	-0.129197
C233	C	0.842230	0.275504	-0.092924
H234	H	0.912454	0.291805	-0.155247
H235	H	0.918610	0.308259	-0.091371
H236	H	0.845970	0.377231	-0.165583
H237	H	0.879366	0.214772	-0.056533
H238	H	0.806722	0.283735	-0.130754
H239	H	1.103892	0.285881	-0.081988
C240	C	0.913065	0.066614	-0.155738
C241	C	0.875656	0.112710	-0.122560
H242	H	0.944241	0.087363	-0.183385
H243	H	0.873855	0.075093	-0.190275
H244	H	0.946480	0.006124	-0.116050
H245	H	0.842235	0.173199	-0.162248
H246	H	0.914871	0.104238	-0.088020
H247	H	0.668152	0.427746	0.191076
C248	C	0.704337	0.198493	0.131647
C249	C	0.655026	0.287663	0.073186
H250	H	0.673189	0.177700	0.159300
H251	H	0.743531	0.190037	0.166181
H252	H	0.729725	0.167267	0.109102
H253	H	0.629644	0.318890	0.095731
H254	H	0.615818	0.296126	0.038646
C255	C	0.772833	0.228362	0.529629
C256	C	0.728995	0.245932	0.464233
H257	H	0.769469	0.186122	0.575090
H258	H	0.751791	0.280623	0.527764
H259	H	0.826975	0.206410	0.530391
H260	H	0.674851	0.267890	0.463468
H261	H	0.750035	0.193660	0.466099
H262	H	0.233228	0.852765	-0.106627
H263	H	0.189322	0.769642	-0.159032
C264	C	0.891019	0.441871	-0.208405
C265	C	0.855724	0.514413	-0.203690
H266	H	0.916359	0.389782	-0.157659
H267	H	0.929388	0.443306	-0.235362
H268	H	0.851241	0.443320	-0.235380
H269	H	0.895503	0.512967	-0.176720
H270	H	0.817351	0.512976	-0.176721
H271	H	0.659125	0.314845	0.312611
H272	H	0.297609	0.547568	0.057171
H273	H	1.246556	0.314823	0.312605
C274	C	0.307999	0.667034	0.160761
C275	C	0.353642	0.619729	0.131117
H276	H	0.337353	0.640567	0.212031
H277	H	0.260081	0.667192	0.161321
H278	H	0.295620	0.725421	0.129039
H279	H	0.366016	0.561343	0.162835
H280	H	0.401574	0.619561	0.130562
H281	H	0.681375	0.872749	-0.707179
H282	H	0.685567	0.864134	-0.824388
C283	C	1.243574	0.281417	0.506172
C284	C	1.243815	0.245883	0.464243
H285	H	1.288071	0.239181	0.551616
H286	H	1.195817	0.297623	0.520258
H287	H	1.246684	0.331539	0.475080
H288	H	1.240699	0.195764	0.495333
H289	H	1.291584	0.229665	0.450159
H290	H	1.241255	0.230354	-0.008053
H291	H	1.084767	0.325335	0.456193
C292	C	0.947263	0.410014	0.414681
C293	C	0.943777	0.447940	0.336408
H294	H	0.894761	0.433084	0.418813
H295	H	0.976159	0.422732	0.437840
H296	H	0.973223	0.348504	0.440470
H297	H	0.917822	0.509450	0.310620
H298	H	0.914869	0.435229	0.313239
