data_functionalizedCrystal
_audit_creation_method	'MofGen! by Chris Wilmer'
_symmetry_space_group_name_H-M	'P1'
_symmetry_Int_Tables_number	1
_symmetry_cell_setting	triclinic
loop_
_symmetry_equiv_pos_as_xyz
  x,y,z
_cell_length_a	14.519709
_cell_length_b	19.188930
_cell_length_c	12.996460
_cell_angle_alpha	89.988736
_cell_angle_beta	90.000034
_cell_angle_gamma	83.412464
loop_
_atom_site_label
_atom_site_type_symbol
_atom_site_fract_x
_atom_site_fract_y
_atom_site_fract_z
O1	O	1.223300	0.091525	-0.085445
O2	O	1.723300	0.591525	0.414555
O3	O	0.954756	0.102303	-0.085478
O4	O	1.454756	0.602303	0.414522
O5	O	1.096778	-0.004714	-0.085440
O6	O	1.596778	0.495286	0.414560
O7	O	1.081279	0.198542	-0.085482
O8	O	1.581279	0.698542	0.414518
O9	O	1.096763	-0.004720	0.085693
O10	O	1.596763	0.495280	0.585693
O11	O	0.954742	0.102297	0.085656
O12	O	1.454742	0.602297	0.585656
O13	O	1.223285	0.091519	0.085689
O14	O	1.723285	0.591519	0.585689
Cu15	Cu	1.089012	0.096907	0.101298
Cu16	Cu	1.589012	0.596907	0.601298
Cu17	Cu	1.089030	0.096914	-0.101087
Cu18	Cu	1.589030	0.596914	0.398913
O19	O	1.081264	0.198536	0.085651
O20	O	1.581264	0.698536	0.585651
C21	C	0.920392	0.101797	0.000085
C22	C	1.420392	0.601797	0.500085
C23	C	0.818020	0.100292	0.000073
C24	C	1.318020	0.600292	0.500073
C25	C	0.443159	0.094751	0.000121
C26	C	0.943159	0.594751	0.500121
C27	C	0.547457	0.096290	0.000108
C28	C	1.047457	0.596290	0.500108
C29	C	0.630586	0.097521	0.000097
C30	C	1.130586	0.597521	0.500097
C31	C	0.734891	0.099060	0.000085
C32	C	1.234891	0.599060	0.500085
C33	C	1.096269	-0.030730	0.000129
C34	C	1.596269	0.469270	0.500129
C35	C	1.094762	-0.108240	0.000138
C36	C	1.594762	0.391760	0.500138
C37	C	1.178095	-0.152867	0.000153
C38	C	1.678095	0.347133	0.500153
C39	C	1.176680	-0.225696	0.000137
C40	C	1.676680	0.274304	0.500137
C41	C	1.091926	-0.253895	0.000125
C42	C	1.591926	0.246105	0.500125
C43	C	1.008582	-0.209257	0.000105
C44	C	1.508582	0.290743	0.500105
C45	C	1.009999	-0.136430	0.000111
C46	C	1.509999	0.363570	0.500111
N47	N	1.027137	-0.362132	0.058358
N48	N	1.527137	0.137868	0.558358
N49	N	1.025796	-0.431316	0.058354
N50	N	1.525796	0.068684	0.558354
C51	C	1.087649	-0.473318	0.000104
C52	C	1.587649	0.026682	0.500104
N53	N	1.150908	-0.443526	-0.058129
N54	N	1.650908	0.056474	0.441871
N55	N	1.152252	-0.374336	-0.058120
N56	N	1.652252	0.125664	0.441880
C57	C	1.090379	-0.332863	0.000118
C58	C	1.590379	0.167137	0.500118
C59	C	1.169454	-0.596916	0.000100
C60	C	1.669454	-0.096916	0.500100
C61	C	1.168035	-0.669745	0.000077
C62	C	1.668035	-0.169745	0.500077
C63	C	0.999934	-0.653305	0.000055
C64	C	1.499934	-0.153305	0.500055
C65	C	1.001355	-0.580477	0.000068
C66	C	1.501355	-0.080477	0.500068
C67	C	1.086118	-0.552287	0.000095
C68	C	1.586118	-0.052287	0.500095
C69	C	1.257649	0.092024	0.000124
C70	C	1.757649	0.592024	0.500124
C71	C	1.360021	0.093529	0.000128
C72	C	1.860021	0.593529	0.500128
C73	C	1.081773	0.224551	0.000079
C74	C	1.581773	0.724551	0.500079
C75	C	1.083280	0.302061	0.000064
C76	C	1.583280	0.802061	0.500064
N77	N	1.089007	0.096902	0.243645
N78	N	1.589007	0.596902	0.743645
N79	N	1.089042	0.096914	-0.243434
N80	N	1.589042	0.596914	0.256566
C81	C	1.089028	0.096915	0.663460
C82	C	1.589028	0.596915	1.163460
C83	C	1.089020	0.096914	0.546655
C84	C	1.589020	0.596914	1.046655
C85	C	1.089018	0.096909	0.453556
C86	C	1.589018	0.596909	0.953556
C87	C	1.089008	0.096906	0.336744
C88	C	1.589008	0.596906	0.836744
H89	H	1.244542	-0.262039	0.000145
H90	H	1.744542	0.237961	0.500145
C91	C	1.259709	-0.718838	0.000091
C92	C	1.759709	-0.218838	0.500091
C93	C	1.329226	-0.715622	0.088975
C94	C	1.829226	-0.215622	0.588975
C95	C	1.420903	-0.764715	0.088990
C96	C	1.920903	-0.264715	0.588990
C97	C	1.443063	-0.817024	0.000120
C98	C	1.943063	-0.317024	0.500120
C99	C	1.373544	-0.820241	-0.088771
C100	C	1.873544	-0.320241	0.411229
C101	C	1.281867	-0.771148	-0.088786
C102	C	1.781867	-0.271148	0.411214
H103	H	1.312824	-0.676899	0.154768
H104	H	1.812824	-0.176899	0.654768
H105	H	1.472365	-0.762333	0.154793
H106	H	1.972365	-0.262333	0.654793
H107	H	1.510927	-0.853365	0.000130
H108	H	2.010927	-0.353365	0.500130
H109	H	1.389946	-0.858964	-0.154564
H110	H	1.889946	-0.358964	0.345436
H111	H	1.230405	-0.773530	-0.154589
H112	H	1.730405	-0.273530	0.345411
H113	H	0.930926	-0.676263	0.000041
H114	H	1.430926	-0.176263	0.500041
H115	H	0.933496	-0.544140	0.000061
H116	H	1.433496	-0.044140	0.500061
C117	C	0.915352	-0.240273	0.000092
C118	C	1.415352	0.259727	0.500092
C119	C	0.891250	-0.288092	0.088951
C120	C	1.391250	0.211908	0.588951
C121	C	0.798016	-0.319106	0.088932
C122	C	1.298016	0.180894	0.588932
C123	C	0.728885	-0.302302	0.000053
C124	C	1.228885	0.197698	0.500053
C125	C	0.752985	-0.254481	-0.088813
C126	C	1.252985	0.245519	0.411187
C127	C	0.846218	-0.223467	-0.088793
C128	C	1.346218	0.276533	0.411207
H129	H	0.942426	-0.300533	0.154751
H130	H	1.442426	0.199467	0.654751
H131	H	0.780176	-0.354507	0.154717
H132	H	1.280176	0.145493	0.654717
H133	H	0.659868	-0.325261	0.000039
H134	H	1.159868	0.174739	0.500039
H135	H	0.701808	-0.242040	-0.154612
H136	H	1.201808	0.257960	0.345388
H137	H	0.864059	-0.188066	-0.154578
H138	H	1.364059	0.311934	0.345422
C139	C	0.918327	-0.087336	0.000102
C140	C	1.418327	0.412664	0.500102
C141	C	0.896194	-0.034991	-0.088758
C142	C	1.396194	0.465009	0.411242
C143	C	0.804520	0.014105	-0.088764
C144	C	1.304520	0.514105	0.411236
C145	C	0.734979	0.010856	0.000091
C146	C	1.234979	0.510856	0.500091
C147	C	0.757110	-0.041491	0.088958
C148	C	1.257110	0.458509	0.588958
C149	C	0.848784	-0.090587	0.088964
C150	C	1.348784	0.409413	0.588964
H151	H	0.947674	-0.032584	-0.154539
H152	H	1.447674	0.467416	0.345461
H153	H	0.788138	0.052856	-0.154549
H154	H	1.288138	0.552856	0.345451
H155	H	0.667116	0.047200	0.000087
H156	H	1.167116	0.547200	0.500087
H157	H	0.705629	-0.043898	0.154740
H158	H	1.205629	0.456102	0.654740
H159	H	0.865166	-0.129338	0.154749
H160	H	1.365166	0.370662	0.654749
C161	C	1.271334	-0.121862	0.000164
C162	C	1.771334	0.378138	0.500164
C163	C	1.340474	-0.138672	0.089033
C164	C	1.840474	0.361328	0.589033
C165	C	1.433714	-0.107666	0.089037
C166	C	1.933714	0.392334	0.589037
C167	C	1.457813	-0.059850	0.000174
C168	C	1.957813	0.440150	0.500174
C169	C	1.388671	-0.043037	-0.088702
C170	C	1.888671	0.456963	0.411298
C171	C	1.295431	-0.074043	-0.088707
C172	C	1.795431	0.425957	0.411293
H173	H	1.322636	-0.174070	0.154821
H174	H	1.822636	0.325930	0.654821
H175	H	1.484897	-0.120112	0.154829
H176	H	1.984897	0.379888	0.654829
H177	H	1.526834	-0.036897	0.000177
H178	H	2.026834	0.463103	0.500177
H179	H	1.406509	-0.007639	-0.154490
H180	H	1.906509	0.492361	0.345510
H181	H	1.244248	-0.061597	-0.154498
H182	H	1.744248	0.438403	0.345502
C183	C	1.262688	-0.565900	0.000121
C184	C	1.762688	-0.065900	0.500121
C185	C	1.354358	-0.614994	0.000125
C186	C	1.854358	-0.114994	0.500125
C187	C	1.447592	-0.583981	0.000148
C188	C	1.947592	-0.083981	0.500148
C189	C	1.449157	-0.503874	0.000168
C190	C	1.949157	-0.003874	0.500168
C191	C	1.357483	-0.454776	0.000165
C192	C	1.857483	0.045224	0.500165
C193	C	1.264249	-0.485789	0.000141
C194	C	1.764249	0.014211	0.500141
H195	H	1.353203	-0.674298	0.000110
H196	H	1.853203	-0.174298	0.500110
H197	H	1.515455	-0.620327	0.000150
H198	H	2.015455	-0.120327	0.500150
H199	H	1.518174	-0.480916	0.000185
H200	H	2.018174	0.019084	0.500185
H201	H	1.358638	-0.395472	0.000180
H202	H	1.858638	0.104528	0.500180
H203	H	1.196386	-0.449442	0.000139
H204	H	1.696386	0.050558	0.500139
