data_functionalizedCrystal
_audit_creation_method	'MofGen! by Chris Wilmer'
_symmetry_space_group_name_H-M	'P1'
_symmetry_Int_Tables_number	1
_symmetry_cell_setting	triclinic
loop_
_symmetry_equiv_pos_as_xyz
  x,y,z
_cell_length_a	12.837943
_cell_length_b	11.792241
_cell_length_c	11.295483
_cell_angle_alpha	94.123059
_cell_angle_beta	85.461227
_cell_angle_gamma	89.511178
loop_
_atom_site_label
_atom_site_type_symbol
_atom_site_fract_x
_atom_site_fract_y
_atom_site_fract_z
O1	O	1.384055	0.288341	-0.099005
O2	O	1.082168	0.273757	-0.099012
O3	O	1.240437	0.116622	-0.099000
O4	O	1.225787	0.445476	-0.099017
O5	O	1.226536	0.130400	0.099050
O6	O	1.068267	0.287535	0.099038
O7	O	1.370154	0.302119	0.099045
Cu8	Cu	1.217941	0.296085	0.117125
Cu9	Cu	1.234381	0.279791	-0.117092
O10	O	1.211885	0.459254	0.099033
C11	C	1.036570	0.275719	0.000012
C12	C	0.921410	0.261025	0.000010
C13	C	0.681444	0.437671	0.000018
C14	C	0.573241	0.423870	0.000016
C15	C	0.596797	0.219624	0.000014
C16	C	0.705001	0.233425	0.000016
C17	C	0.747320	0.342452	0.000016
C18	C	0.855526	0.356251	0.000008
C19	C	0.879080	0.152006	0.000015
C20	C	0.770877	0.138205	0.000013
C21	C	1.232566	0.081127	0.000025
C22	C	1.229812	-0.045167	0.000023
C23	C	1.224748	-0.276394	0.000003
C24	C	1.227561	-0.147723	0.000014
C25	C	1.415753	0.300157	0.000018
C26	C	1.530913	0.314850	0.000013
C27	C	1.219756	0.494749	0.000006
C28	C	1.222512	0.621042	-0.000001
N29	N	1.206386	0.307545	0.281860
N30	N	1.245945	0.268322	-0.281827
C31	C	1.329126	0.185760	0.531159
C32	C	1.320401	0.194430	0.655822
C33	C	1.180207	0.333547	0.655852
C34	C	1.188932	0.324878	0.531189
C35	C	1.263395	0.250983	0.468847
C36	C	1.272124	0.242320	0.344181
C37	C	1.131925	0.381431	0.344213
C38	C	1.123200	0.390100	0.468876
H39	H	0.562315	0.130866	0.000112
H40	H	1.119573	0.393702	0.706627
C41	C	1.047580	0.465167	0.659990
C42	C	1.041358	0.471328	0.537409
H43	H	0.997058	0.515323	0.702295
H44	H	1.034450	0.389579	0.680418
H45	H	1.115449	0.486442	0.680391
H46	H	0.973491	0.450045	0.517007
H47	H	1.054480	0.546933	0.516973
H48	H	0.889980	0.445026	0.000010
C49	C	0.647296	0.638174	0.000009
C50	C	0.727969	0.557508	0.000012
H51	H	0.676020	0.712157	0.000012
H52	H	0.610433	0.623740	-0.069052
H53	H	0.600733	0.633342	0.069077
H54	H	0.774528	0.562335	-0.069061
H55	H	0.764850	0.571947	0.069080
C56	C	0.670005	-0.002876	-0.101805
C57	C	0.724354	0.018366	0.000007
H58	H	0.641292	-0.076865	-0.101813
H59	H	0.615288	0.051852	-0.101790
H60	H	0.716583	0.001959	-0.170861
H61	H	0.677774	0.013539	0.069063
H62	H	0.779077	-0.036377	0.000003
H63	H	0.932729	0.074471	0.000005
C64	C	1.074814	0.568750	0.305854
C65	C	1.059668	0.453136	0.275720
H66	H	1.030213	0.613018	0.263563
H67	H	1.058958	0.584473	0.389011
H68	H	1.145542	0.587171	0.285402
H69	H	0.988942	0.434713	0.296180
H70	H	1.075517	0.437406	0.192544
C71	C	1.409813	0.105670	0.356679
C72	C	1.353968	0.161092	0.275652
H73	H	1.460334	0.055515	0.314371
H74	H	1.443987	0.160378	0.405287
H75	H	1.362990	0.063513	0.405316
H76	H	1.400790	0.203256	0.227020
H77	H	1.319792	0.106376	0.227022
H78	H	0.519607	0.501409	0.000021
H79	H	1.389764	0.125601	0.480399
C80	C	1.459853	0.056050	0.643266
C81	C	1.392656	0.122737	0.724317
H82	H	1.504463	0.011792	0.685554
H83	H	1.419849	0.007129	0.594657
H84	H	1.500831	0.104009	0.594630
H85	H	1.351672	0.074777	0.772947
H86	H	1.432663	0.171663	0.772947
