data_functionalizedCrystal
_audit_creation_method	'MofGen! by Chris Wilmer'
_symmetry_space_group_name_H-M	'P1'
_symmetry_Int_Tables_number	1
_symmetry_cell_setting	triclinic
loop_
_symmetry_equiv_pos_as_xyz
  x,y,z
_cell_length_a	19.805407
_cell_length_b	16.120297
_cell_length_c	16.120484
_cell_angle_alpha	95.614431
_cell_angle_beta	92.922838
_cell_angle_gamma	92.879222
loop_
_atom_site_label
_atom_site_type_symbol
_atom_site_fract_x
_atom_site_fract_y
_atom_site_fract_z
Zn1	Zn	0.999909	-0.489441	-0.356805
Zn2	Zn	1.333242	-0.156108	-0.023472
Zn3	Zn	1.666576	0.177226	0.309862
Zn4	Zn	0.999824	-0.356751	-0.489495
Zn5	Zn	1.333157	-0.023418	-0.156161
Zn6	Zn	1.666490	0.309915	0.177172
Zn7	Zn	0.892766	-0.349688	-0.349735
Zn8	Zn	1.226099	-0.016355	-0.016402
Zn9	Zn	1.559433	0.316978	0.316932
Zn10	Zn	0.880647	-0.496475	-0.496529
Zn11	Zn	1.213981	-0.163142	-0.163196
Zn12	Zn	1.547314	0.170191	0.170138
O13	O	0.943287	-0.423089	-0.423141
O14	O	1.276620	-0.089756	-0.089808
O15	O	1.609953	0.243578	0.243526
O16	O	1.094613	-0.471851	-0.374422
O17	O	1.427946	-0.138518	-0.041088
O18	O	1.761280	0.194815	0.292245
O19	O	0.990658	-0.238853	-0.465053
O20	O	1.323992	0.094481	-0.131719
O21	O	1.657325	0.427814	0.201614
O22	O	0.912086	-0.362327	-0.233708
O23	O	1.245419	-0.028994	0.099625
O24	O	1.578753	0.304340	0.432959
O25	O	1.094550	-0.374365	-0.471908
O26	O	1.427884	-0.041032	-0.138575
O27	O	1.761217	0.292302	0.194758
O28	O	0.990804	-0.465003	-0.238902
O29	O	1.324137	-0.131669	0.094431
O30	O	1.657470	0.201664	0.427764
O31	O	0.912003	-0.233663	-0.362372
O32	O	1.245337	0.099670	-0.029038
O33	O	1.578670	0.433003	0.304295
O34	O	0.796443	-0.369148	-0.369193
O35	O	1.129776	-0.035815	-0.035859
O36	O	1.463110	0.297519	0.297474
O37	O	0.891432	-0.612504	-0.483897
O38	O	1.224765	-0.279171	-0.150564
O39	O	1.558098	0.054162	0.182769
O40	O	0.787539	-0.476992	-0.477042
O41	O	1.120873	-0.143659	-0.143708
O42	O	1.454206	0.189675	0.189625
O43	O	0.979053	-0.607336	-0.381243
O44	O	1.312386	-0.274003	-0.047909
O45	O	1.645719	0.059331	0.285424
O46	O	0.978907	-0.381186	-0.607393
O47	O	1.312241	-0.047853	-0.274059
O48	O	1.645574	0.285481	0.059274
O49	O	0.891349	-0.483841	-0.612561
O50	O	1.224682	-0.150507	-0.279228
O51	O	1.558016	0.182826	0.054106
C52	C	0.767433	-0.423067	-0.423114
C53	C	1.100766	-0.089734	-0.089780
C54	C	1.434099	0.243599	0.243553
C55	C	0.692200	-0.423079	-0.423123
C56	C	1.025533	-0.089746	-0.089790
C57	C	1.358866	0.243588	0.243543
C58	C	0.656881	-0.473926	-0.372461
C59	C	0.990215	-0.140593	-0.039127
C60	C	1.323548	0.192740	0.294206
C61	C	0.586192	-0.473930	-0.372465
C62	C	0.919526	-0.140596	-0.039132
C63	C	1.252859	0.192737	0.294201
C64	C	0.550823	-0.423090	-0.423137
C65	C	0.884156	-0.089756	-0.089804
C66	C	1.217490	0.243577	0.243529
C67	C	0.586147	-0.372237	-0.473802
C68	C	0.919480	-0.038903	-0.140469
C69	C	1.252813	0.294430	0.192865
C70	C	0.656834	-0.372229	-0.473792
C71	C	0.990168	-0.038896	-0.140459
C72	C	1.323501	0.294437	0.192874
C73	C	0.301071	-0.372264	-0.473841
C74	C	0.634404	-0.038931	-0.140508
C75	C	0.967737	0.294402	0.192826
C76	C	0.230378	-0.372277	-0.473848
C77	C	0.563711	-0.038944	-0.140515
C78	C	0.897044	0.294389	0.192818
C79	C	0.230429	-0.473965	-0.372514
C80	C	0.563762	-0.140631	-0.039180
C81	C	0.897095	0.192702	0.294153
C82	C	0.301116	-0.473957	-0.372504
C83	C	0.634450	-0.140624	-0.039171
C84	C	0.967783	0.192709	0.294163
C85	C	0.336434	-0.423101	-0.423165
C86	C	0.669767	-0.089768	-0.089832
C87	C	1.003101	0.243565	0.243502
C88	C	0.413083	-0.423097	-0.423158
C89	C	0.746416	-0.089764	-0.089825
C90	C	1.079750	0.243570	0.243508
C91	C	0.474175	-0.423098	-0.423149
C92	C	0.807508	-0.089765	-0.089816
C93	C	1.140842	0.243569	0.243518
C94	C	0.933900	-0.641095	-0.434143
C95	C	1.267233	-0.307762	-0.100810
C96	C	1.600567	0.025572	0.232523
C97	C	0.929900	-0.733996	-0.438832
C98	C	1.263233	-0.400663	-0.105498
C99	C	1.596567	-0.067329	0.227835
C100	C	0.922573	-0.904086	-0.447373
C101	C	1.255906	-0.570753	-0.114040
C102	C	1.589240	-0.237420	0.219294
C103	C	0.964144	-0.942931	-0.398658
C104	C	1.297478	-0.609597	-0.065325
C105	C	1.630811	-0.276264	0.268008
C106	C	0.960068	-1.037575	-0.403411
C107	C	1.293401	-0.704241	-0.070078
C108	C	1.626734	-0.370908	0.263256
C109	C	0.926649	-0.809434	-0.442622
C110	C	1.259982	-0.476101	-0.109288
C111	C	1.593315	-0.142767	0.224045
C112	C	1.119827	-0.423111	-0.423169
C113	C	1.453160	-0.089778	-0.089836
C114	C	1.786494	0.243555	0.243498
C115	C	1.195058	-0.423121	-0.423181
C116	C	1.528392	-0.089787	-0.089847
C117	C	1.861725	0.243546	0.243486
C118	C	0.933821	-0.434061	-0.640305
C119	C	1.267155	-0.100728	-0.306972
C120	C	1.600488	0.232605	0.026361
C121	C	0.929833	-0.438783	-0.733211
C122	C	1.263166	-0.105450	-0.399877
C123	C	1.596500	0.227883	-0.066544
C124	C	0.952678	-0.205928	-0.412121
C125	C	1.286012	0.127405	-0.078788
C126	C	1.619345	0.460739	0.254545
C127	C	0.956820	-0.113016	-0.407197
C128	C	1.290153	0.220318	-0.073864
C129	C	1.623486	0.553651	0.259469
C130	C	0.922554	-0.447421	-0.903310
C131	C	1.255888	-0.114088	-0.569977
C132	C	1.589221	0.219245	-0.236644
C133	C	0.964139	-0.398770	-0.942132
C134	C	1.297473	-0.065437	-0.608798
C135	C	1.630806	0.267896	-0.275465
C136	C	0.960090	-0.403577	-1.036781
C137	C	1.293423	-0.070243	-0.703448
C138	C	1.626756	0.263090	-0.370114
C139	C	0.926603	-0.442616	-0.808653
C140	C	1.259937	-0.109283	-0.475319
C141	C	1.593270	0.224051	-0.141986
C142	C	0.952806	-0.412092	-0.205129
C143	C	1.286140	-0.078759	0.128204
C144	C	1.619473	0.254574	0.461537
C145	C	0.956863	-0.407406	-0.112226
C146	C	1.290196	-0.074073	0.221107
C147	C	1.623530	0.259261	0.554441
H148	H	0.329910	-0.515359	-0.331245
H149	H	0.663244	-0.182026	0.002089
H150	H	0.996577	0.151307	0.335422
H151	H	1.002796	-0.905107	-0.353382
H152	H	1.336129	-0.571773	-0.020049
H153	H	1.669463	-0.238440	0.313284
O154	O	0.871355	-0.507359	-0.953433
O155	O	1.204689	-0.174026	-0.620099
O156	O	1.538022	0.159308	-0.286766
H157	H	0.876163	-0.501760	-1.020984
H158	H	1.209497	-0.168427	-0.687650
H159	H	1.542830	0.164906	-0.354317
O160	O	0.871379	-0.954183	-0.507347
O161	O	1.204712	-0.620849	-0.174014
O162	O	1.538046	-0.287516	0.159320
H163	H	0.819587	-0.936754	-0.492181
H164	H	1.152920	-0.603421	-0.158848
H165	H	1.486254	-0.270088	0.174485
O166	O	0.695030	-0.528756	-0.317802
O167	O	1.028363	-0.195422	0.015532
O168	O	1.361696	0.137911	0.348865
H169	H	0.658592	-0.564105	-0.282566
H170	H	0.991925	-0.230772	0.050767
H171	H	1.325259	0.102561	0.384101
O172	O	0.694931	-0.317382	-0.528431
O173	O	1.028265	0.015952	-0.195098
O174	O	1.361598	0.349285	0.138235
H175	H	0.723690	-0.356863	-0.572891
H176	H	1.057024	-0.023530	-0.239558
H177	H	1.390357	0.309803	0.093775
H178	H	0.557439	-0.515336	-0.331212
H179	H	0.890772	-0.182003	0.002121
H180	H	1.224106	0.151330	0.335454
H181	H	0.201665	-0.515371	-0.331260
H182	H	0.534998	-0.182037	0.002073
H183	H	0.868331	0.151296	0.335407
O184	O	0.192226	-0.317430	-0.528493
O185	O	0.525559	0.015903	-0.195160
O186	O	0.858892	0.349236	0.138173
H187	H	0.228660	-0.282057	-0.563712
H188	H	0.561993	0.051277	-0.230379
H189	H	0.895327	0.384610	0.102955
H190	H	1.002783	-0.353509	-0.904283
H191	H	1.336116	-0.020175	-0.570950
H192	H	1.669450	0.313158	-0.237617
H193	H	0.329818	-0.330855	-0.515093
H194	H	0.663151	0.002478	-0.181760
H195	H	0.996484	0.335812	0.151574
H196	H	0.557344	-0.330838	-0.515056
H197	H	0.890677	0.002496	-0.181723
H198	H	1.224010	0.335829	0.151611
