data_functionalizedCrystal
_audit_creation_method	'MofGen! by Chris Wilmer'
_symmetry_space_group_name_H-M	'P1'
_symmetry_Int_Tables_number	1
_symmetry_cell_setting	triclinic
loop_
_symmetry_equiv_pos_as_xyz
  x,y,z
_cell_length_a	6.394989
_cell_length_b	10.654550
_cell_length_c	9.130313
_cell_angle_alpha	90.003780
_cell_angle_beta	89.998359
_cell_angle_gamma	85.491307
loop_
_atom_site_label
_atom_site_type_symbol
_atom_site_fract_x
_atom_site_fract_y
_atom_site_fract_z
O1	O	-0.293432	-1.670942	-0.121910
O2	O	-0.321389	-1.305759	-0.121885
O3	O	-0.003422	-1.493534	-0.121899
O4	O	-0.611400	-1.483167	-0.121896
O5	O	-0.003430	-1.493532	0.121700
O6	O	-0.321398	-1.305757	0.121713
O7	O	-0.293441	-1.670940	0.121689
Cu8	Cu	-0.307420	-1.488348	0.143944
Cu9	Cu	-0.307410	-1.488351	-0.144140
O10	O	-0.611408	-1.483165	0.121703
C11	C	-0.319341	-1.258939	-0.000083
C12	C	-0.313199	-1.119430	-0.000074
C13	C	-0.295489	-1.717760	-0.000117
C14	C	-0.301631	-1.857269	-0.000135
N15	N	-0.307426	-1.488355	0.346566
C16	C	0.074425	-1.491483	-0.000105
C17	C	0.310751	-1.485219	-0.000106
N18	N	-0.307388	-1.488353	-0.346763
C19	C	-0.500414	-1.041927	-0.000094
C20	C	-0.494630	-0.910845	-0.000120
C21	C	-0.114402	-0.934782	-0.000110
C22	C	-0.120188	-1.065861	-0.000074
C23	C	-0.719936	-1.028107	-0.000106
C24	C	-0.714152	-0.897025	-0.000132
C25	C	-0.166678	-1.571524	0.423212
C26	C	-0.166653	-1.571521	0.576549
C27	C	-0.448142	-1.405175	0.576581
C28	C	-0.448155	-1.405174	0.423247
C29	C	-0.004169	-1.667567	0.423195
C30	C	-0.004143	-1.667563	0.576532
H31	H	0.032261	-1.128960	-0.000037
H32	H	-0.562745	-1.337440	0.360843
H33	H	0.156415	-1.644423	0.381576
H34	H	-0.805794	-1.058346	0.101846
C35	C	0.190400	-1.626380	0.793900
C36	C	0.200702	-1.624204	0.640739
H37	H	0.316854	-1.599603	0.833537
H38	H	0.172004	-1.709586	0.826013
H39	H	0.075371	-1.571409	0.826021
H40	H	0.315723	-1.679183	0.608618
H41	H	0.219122	-1.540985	0.608613
C42	C	-0.870381	-0.975837	-0.235347
C43	C	-0.814305	-1.077253	-0.142073
H44	H	-0.928647	-1.006181	-0.322988
H45	H	-0.749470	-0.933267	-0.258172
H46	H	-0.971086	-0.919292	-0.188144
H47	H	-0.713588	-1.133794	-0.189273
H48	H	-0.935232	-1.119843	-0.119251
H49	H	-0.780498	-0.852055	0.105037
H50	H	-0.055053	-1.759289	0.375631
H51	H	-0.039940	-1.764454	0.618143
C52	C	-0.567425	-1.189663	0.623820
C53	C	-0.602825	-1.313747	0.660877
H54	H	-0.662915	-1.133220	0.675868
H55	H	-0.587594	-1.177770	0.521543
H56	H	-0.427763	-1.173843	0.648942
H57	H	-0.742484	-1.329570	0.635745
H58	H	-0.582673	-1.325645	0.763176
H59	H	-0.796861	-0.856169	-0.102085
H60	H	0.042742	-0.891149	-0.000133
