data_functionalizedCrystal
_audit_creation_method	'MofGen! by Chris Wilmer'
_symmetry_space_group_name_H-M	'P1'
_symmetry_Int_Tables_number	1
_symmetry_cell_setting	triclinic
loop_
_symmetry_equiv_pos_as_xyz
  x,y,z
_cell_length_a	15.944493
_cell_length_b	10.489746
_cell_length_c	9.565339
_cell_angle_alpha	89.999333
_cell_angle_beta	90.005248
_cell_angle_gamma	95.991827
loop_
_atom_site_label
_atom_site_type_symbol
_atom_site_fract_x
_atom_site_fract_y
_atom_site_fract_z
O1	O	-0.118524	1.692368	-0.116185
O2	O	-0.129644	1.321016	-0.116210
O3	O	-0.001867	1.516872	-0.116168
O4	O	-0.246301	1.496513	-0.116227
O5	O	-0.001875	1.516856	0.116352
O6	O	-0.129652	1.321000	0.116310
O7	O	-0.118532	1.692353	0.116335
Zn8	Zn	-0.124093	1.506674	0.153240
Zn9	Zn	-0.124083	1.506695	-0.153115
O10	O	-0.246309	1.496497	0.116293
C11	C	-0.128807	1.273489	0.000047
C12	C	-0.126292	1.131895	0.000039
C13	C	-0.043502	0.980211	0.000078
C14	C	-0.084898	1.057011	0.114709
C15	C	-0.084909	1.056981	-0.114538
C16	C	-0.163247	0.956408	0.114799
C17	C	-0.163247	0.956373	-0.114550
C18	C	-0.204700	1.033123	0.000108
C19	C	-0.277605	1.497337	0.000026
C20	C	-0.370868	1.499832	0.000004
C21	C	-0.605934	1.384547	0.000042
C22	C	-0.656882	1.446724	-0.114592
C23	C	-0.541617	1.504454	0.000037
C24	C	-0.656847	1.446736	0.114654
C25	C	-0.706554	1.508910	0.000074
C26	C	-0.591337	1.566599	-0.114692
C27	C	-0.591299	1.566593	0.114657
C28	C	-0.642214	1.628858	-0.000005
C29	C	-0.446602	1.501884	0.000014
C30	C	-0.801566	1.511490	0.000087
C31	C	0.029429	1.516032	0.000096
C32	C	0.122692	1.513537	0.000109
C33	C	-0.119369	1.739880	0.000075
C34	C	-0.121884	1.881474	0.000074
N35	N	-0.124100	1.506670	0.362319
N36	N	-0.124070	1.506709	-0.362195
C37	C	-0.183173	1.416066	0.453503
C38	C	-0.200170	1.531321	0.546685
C39	C	-0.107109	1.391464	0.546693
C40	C	-0.141136	1.621983	0.453450
C41	C	-0.048041	1.482050	0.453449
C42	C	-0.065007	1.597389	0.546589
H43	H	0.024654	0.956457	0.000210
H44	H	-0.051812	1.100950	0.211640
H45	H	-0.658303	1.732224	-0.000057
O46	O	-0.691173	1.386205	-0.230071
C47	C	-0.749349	1.282515	-0.188910
H48	H	-0.772460	1.299872	-0.078441
H49	H	-0.805235	1.273581	-0.263889
H50	H	-0.717398	1.190247	-0.191116
H51	H	0.016246	1.461163	0.412463
H52	H	-0.562639	1.617180	0.211588
O53	O	-0.202554	0.904193	0.230664
C54	C	-0.144990	0.840812	0.310024
H55	H	-0.077884	0.882409	0.284042
H56	H	-0.157489	0.854623	0.426103
H57	H	-0.153050	0.734155	0.284102
H58	H	-0.562827	1.617209	-0.211720
O59	O	-0.158545	1.738159	0.404777
C60	C	-0.232398	1.722663	0.322790
H61	H	-0.271829	1.630043	0.353780
H62	H	-0.270512	1.807306	0.340683
H63	H	-0.214575	1.718109	0.207613
H64	H	-0.264478	1.552172	0.587639
H65	H	-0.589684	1.281261	-0.000082
O66	O	-0.005289	1.688839	0.594884
C67	C	0.074611	1.663675	0.545304
H68	H	0.066607	1.602618	0.446670
H69	H	0.113897	1.758025	0.520312
H70	H	0.107939	1.610039	0.628836
O71	O	-0.286081	1.061118	0.000404
C72	C	-0.327098	1.009391	0.121412
H73	H	-0.278243	0.995375	0.205528
H74	H	-0.372649	1.077917	0.161409
H75	H	-0.363569	0.913057	0.095151
H76	H	-0.685464	1.396067	0.211573
O77	O	-0.202689	0.903700	-0.230079
C78	C	-0.200413	0.769710	-0.227773
H79	H	-0.191899	0.736755	-0.115571
H80	H	-0.262030	0.720679	-0.271562
H81	H	-0.145473	0.743350	-0.294321
H82	H	-0.233175	1.339514	0.412632
O83	O	-0.045301	1.109245	-0.230120
C84	C	0.039613	1.082864	-0.229638
H85	H	0.046238	0.994674	-0.162514
H86	H	0.060395	1.064071	-0.341125
H87	H	0.080870	1.168511	-0.184887
H88	H	-0.092752	1.294020	0.587654
