data_functionalizedCrystal
_audit_creation_method	'MofGen! by Chris Wilmer'
_symmetry_space_group_name_H-M	'P1'
_symmetry_Int_Tables_number	1
_symmetry_cell_setting	triclinic
loop_
_symmetry_equiv_pos_as_xyz
  x,y,z
_cell_length_a	17.038272
_cell_length_b	17.019282
_cell_length_c	13.330367
_cell_angle_alpha	93.873670
_cell_angle_beta	89.995338
_cell_angle_gamma	87.241387
loop_
_atom_site_label
_atom_site_type_symbol
_atom_site_fract_x
_atom_site_fract_y
_atom_site_fract_z
O1	O	0.099546	1.053361	0.007607
O2	O	0.599546	1.553361	0.507607
O3	O	0.112259	0.824550	-0.012169
O4	O	0.612259	1.324550	0.487831
O5	O	-0.007912	0.937595	-0.002391
O6	O	0.492088	1.437595	0.497609
O7	O	0.219716	0.940315	-0.002172
O8	O	0.719716	1.440315	0.497828
O9	O	-0.007915	0.937578	0.164455
O10	O	0.492085	1.437578	0.664455
O11	O	0.112256	0.824532	0.154676
O12	O	0.612256	1.324532	0.654676
O13	O	0.099543	1.053343	0.174452
O14	O	0.599543	1.553343	0.674452
Cu15	Cu	0.105899	0.938936	0.179799
Cu16	Cu	0.605899	1.438936	0.679799
Cu17	Cu	0.105902	0.938957	-0.017516
Cu18	Cu	0.605902	1.438957	0.482484
O19	O	0.219714	0.940297	0.164674
O20	O	0.719714	1.440297	0.664674
C21	C	0.111777	0.795119	0.068711
C22	C	0.611777	1.295119	0.568711
C23	C	0.110337	0.707453	0.061134
C24	C	0.610337	1.207453	0.561134
C25	C	0.109658	0.666262	0.148524
C26	C	0.609658	1.166262	0.648524
C27	C	0.108292	0.583890	0.141408
C28	C	0.608292	1.083890	0.641408
C29	C	0.107612	0.542711	0.046900
C30	C	0.607612	1.042711	0.546900
C31	C	0.108290	0.583908	-0.040496
C32	C	0.608290	1.083908	0.459504
C33	C	0.109649	0.666278	-0.033379
C34	C	0.609649	1.166278	0.466621
C35	C	0.103502	0.294007	0.020861
C36	C	0.603502	0.794007	0.520861
C37	C	0.102144	0.211631	0.013750
C38	C	0.602144	0.711631	0.513750
C39	C	0.102145	0.211619	0.195655
C40	C	0.602145	0.711619	0.695655
C41	C	0.103510	0.293990	0.202764
C42	C	0.603510	0.793990	0.702764
C43	C	0.104183	0.335180	0.115368
C44	C	0.604183	0.835180	0.615368
C45	C	0.106219	0.458514	0.039624
C46	C	0.606219	0.958514	0.539624
C47	C	0.105570	0.419376	0.122645
C48	C	0.605570	0.919376	0.622645
C49	C	-0.037039	0.935113	0.080818
C50	C	0.462961	1.435113	0.580818
C51	C	-0.123825	0.927732	0.080180
C52	C	0.376175	1.427732	0.580180
C53	C	-0.174001	0.995492	0.086037
C54	C	0.325999	1.495492	0.586037
C55	C	-0.255546	0.988553	0.085428
C56	C	0.244454	1.488553	0.585428
C57	C	-0.286912	0.913853	0.078968
C58	C	0.213088	1.413853	0.578968
C59	C	-0.236730	0.846088	0.073108
C60	C	0.263270	1.346088	0.573108
C61	C	-0.155187	0.853028	0.073710
C62	C	0.344813	1.353028	0.573710
C63	C	-0.532648	0.889335	0.076836
C64	C	-0.032648	1.389335	0.576836
C65	C	-0.614197	0.882401	0.076237
C66	C	-0.114197	1.382401	0.576237
C67	C	-0.633007	1.024866	0.088556
C68	C	-0.133007	1.524866	0.588556
C69	C	-0.551462	1.031799	0.089163
C70	C	-0.051462	1.531799	0.589163
C71	C	-0.501287	0.964034	0.083297
C72	C	-0.001287	1.464034	0.583297
C73	C	-0.370263	0.906758	0.078349
C74	C	0.129737	1.406758	0.578349
C75	C	-0.417937	0.971130	0.083910
C76	C	0.082063	1.471130	0.583910
C77	C	0.248841	0.942780	0.081463
C78	C	0.748841	1.442780	0.581463
C79	C	0.335627	0.950160	0.082094
C80	C	0.835627	1.450160	0.582094
C81	C	0.100025	1.082773	0.093570
C82	C	0.600025	1.582773	0.593570
C83	C	0.101464	1.170440	0.101140
C84	C	0.601464	1.670440	0.601140
N85	N	0.105897	0.938927	0.318579
N86	N	0.605897	1.438927	0.818579
N87	N	0.105899	0.938972	-0.156296
N88	N	0.605899	1.438972	0.343704
C89	C	0.159093	0.888896	0.786875
C90	C	0.659093	1.388896	1.286875
C91	C	0.052706	0.989038	0.795505
C92	C	0.552706	1.489038	1.295505
C93	C	0.052703	0.989029	0.690486
C94	C	0.552703	1.489029	1.190486
C95	C	0.105897	0.938954	0.633656
C96	C	0.605897	1.438954	1.133656
C97	C	0.159094	0.888888	0.681846
C98	C	0.659094	1.388888	1.181846
C99	C	-0.000487	1.039100	0.642289
C100	C	0.499513	1.539100	1.142289
C101	C	-0.000491	1.039094	0.537263
C102	C	0.499509	1.539094	1.037263
C103	C	0.052700	0.989014	0.480432
C104	C	0.552700	1.489014	0.980432
C105	C	0.105898	0.938945	0.528627
C106	C	0.605898	1.438945	1.028627
C107	C	0.159092	0.888870	0.471798
C108	C	0.659092	1.388870	0.971798
C109	C	0.212287	0.838796	0.519991
C110	C	0.712287	1.338796	1.019991
C111	C	0.212285	0.838808	0.625014
C112	C	0.712285	1.338808	1.125014
C113	C	0.052702	0.989002	0.375409
C114	C	0.552702	1.489002	0.875409
C115	C	0.159093	0.888861	0.366769
C116	C	0.659093	1.388861	0.866769
H117	H	0.101596	0.178073	0.266809
H118	H	0.601596	0.678073	0.766809
F119	F	-0.518085	1.111305	0.096013
F120	F	-0.018085	1.611305	0.596013
H121	H	-0.296396	1.043730	0.090200
H122	H	0.203604	1.543730	0.590200
H123	H	0.202408	0.848080	0.320504
H124	H	0.702408	1.348080	0.820504
H125	H	-0.043792	1.079874	0.688563
H126	H	0.456208	1.579874	1.188563
H127	H	0.106120	0.452908	0.199592
H128	H	0.606120	0.952908	0.699592
F129	F	-0.057106	1.092383	0.485979
F130	F	0.442894	1.592383	0.985979
F131	F	0.107579	0.540055	0.234421
F132	F	0.607579	1.040055	0.734421
H133	H	0.105665	0.424977	-0.037324
H134	H	0.605665	0.924977	0.462676
H135	H	-0.262275	0.785266	0.067842
H136	H	0.237725	1.285266	0.567842
F137	F	0.268896	0.785522	0.676309
F138	F	0.768896	1.285522	1.176309
H139	H	0.202402	0.848125	0.826116
H140	H	0.702402	1.348125	1.326116
H141	H	-0.395811	0.845937	0.073091
H142	H	0.104189	1.345937	0.573091
H143	H	-0.148469	1.056321	0.091304
H144	H	0.351531	1.556321	0.591304
F145	F	-0.003903	1.042295	0.324124
F146	F	0.496097	1.542295	0.824124
H147	H	-0.673868	1.080036	0.093330
H148	H	-0.173868	1.580036	0.593330
F149	F	-0.647577	0.802891	0.069366
F150	F	-0.147577	1.302891	0.569366
F151	F	-0.479258	0.817213	0.070590
F152	F	0.020742	1.317213	0.570590
H153	H	-0.114334	0.797851	0.068940
H154	H	0.385666	1.297851	0.568940
F155	F	-0.003900	1.042334	0.855987
F156	F	0.496100	1.542334	1.355987
F157	F	0.268903	0.785509	0.459499
F158	F	0.768903	1.285509	0.959499
F159	F	0.101423	0.167806	-0.086842
F160	F	0.601423	0.667806	0.413158
H161	H	0.104047	0.327534	-0.050304
H162	H	0.604047	0.827534	0.449696
H163	H	0.110218	0.699784	0.225483
H164	H	0.610218	1.199784	0.725483
F165	F	-0.384553	1.050628	0.090779
F166	F	0.115447	1.550628	0.590779
H167	H	0.107731	0.550374	-0.117447
H168	H	0.607731	1.050374	0.382553
F169	F	0.110370	0.710117	-0.126392
F170	F	0.610370	1.210117	0.373608
F171	F	0.104237	0.337810	0.303352
F172	F	0.604237	0.837810	0.803352
