data_functionalizedCrystal
_audit_creation_method	'MofGen! by Chris Wilmer'
_symmetry_space_group_name_H-M	'P1'
_symmetry_Int_Tables_number	1
_symmetry_cell_setting	triclinic
loop_
_symmetry_equiv_pos_as_xyz
  x,y,z
_cell_length_a	16.109302
_cell_length_b	10.654555
_cell_length_c	15.186229
_cell_angle_alpha	89.998792
_cell_angle_beta	89.994701
_cell_angle_gamma	83.975668
loop_
_atom_site_label
_atom_site_type_symbol
_atom_site_fract_x
_atom_site_fract_y
_atom_site_fract_z
O1	O	1.104094	0.161423	-0.073263
O2	O	0.862152	0.181510	-0.073256
O3	O	0.988681	-0.011348	-0.073259
O4	O	0.977566	0.354280	-0.073259
O5	O	0.988673	-0.011350	0.073198
O6	O	0.862144	0.181507	0.073202
O7	O	1.104086	0.161420	0.073194
Zn8	Zn	0.983113	0.171463	0.096451
Zn9	Zn	0.983125	0.171467	-0.096513
O10	O	0.977557	0.354277	0.073198
C11	C	0.831168	0.180695	-0.000026
C12	C	0.738859	0.178255	-0.000023
C13	C	0.526479	0.172611	0.079802
C14	C	0.439745	0.170305	0.079799
C15	C	0.439765	0.170315	-0.079877
C16	C	0.526498	0.172612	-0.079873
C17	C	0.569853	0.173766	-0.000031
C18	C	0.396386	0.169163	-0.000038
C19	C	0.302345	0.166663	-0.000042
C20	C	0.663899	0.176264	-0.000027
C21	C	0.987859	-0.058136	-0.000033
C22	C	0.985411	-0.197545	-0.000038
C23	C	0.980808	-0.459517	0.159641
C24	C	0.981949	-0.394019	0.239476
C25	C	0.984245	-0.263031	0.239476
C26	C	0.985398	-0.197538	0.159632
C27	C	0.984256	-0.263035	0.079797
C28	C	0.981963	-0.394027	0.079806
C29	C	0.984270	-0.263043	-0.079873
C30	C	0.981980	-0.394032	-0.079875
C31	C	0.985422	-0.197549	-0.159717
C32	C	0.984287	-0.263048	-0.239554
C33	C	0.981991	-0.394044	-0.239551
C34	C	0.980838	-0.459529	-0.159710
C35	C	1.135070	0.162235	-0.000037
C36	C	1.227380	0.164675	-0.000046
C37	C	0.978379	0.401065	-0.000031
C38	C	0.980827	0.540475	-0.000031
N39	N	0.983112	0.171460	0.228144
N40	N	0.983133	0.171460	-0.228205
C41	C	1.039158	0.086091	0.453865
C42	C	1.039161	0.086088	0.546055
C43	C	0.927081	0.256832	0.546067
C44	C	0.927075	0.256828	0.453879
C45	C	0.983118	0.171459	0.407780
C46	C	0.983127	0.171460	0.592158
C47	C	0.983129	0.171458	0.692114
C48	C	0.983115	0.171460	0.307818
H49	H	0.404435	0.169365	0.144807
Br50	Br	0.851026	0.372689	0.608632
Br51	Br	0.988481	-0.019761	0.159634
Br52	Br	0.585315	0.174174	0.188158
H53	H	0.404456	0.169376	-0.144882
H54	H	0.881436	0.326346	0.416354
Br55	Br	0.980432	-0.482920	-0.347905
Br56	Br	0.585369	0.174164	-0.188226
H57	H	0.978947	-0.566176	0.159649
H58	H	0.981009	-0.447358	0.304483
Br59	Br	0.977732	-0.637302	-0.159700
Br60	Br	0.985789	-0.174135	0.347824
H61	H	0.987287	-0.090891	-0.159711
Br62	Br	0.985856	-0.174161	-0.347902
H63	H	1.084791	0.016577	0.416334
H64	H	1.084793	0.016572	0.583574
