data_functionalizedCrystal
_audit_creation_method	'MofGen! by Chris Wilmer'
_symmetry_space_group_name_H-M	'P1'
_symmetry_Int_Tables_number	1
_symmetry_cell_setting	triclinic
loop_
_symmetry_equiv_pos_as_xyz
  x,y,z
_cell_length_a	15.698487
_cell_length_b	20.875641
_cell_length_c	20.875641
_cell_angle_alpha	60.088404
_cell_angle_beta	89.999282
_cell_angle_gamma	57.591190
loop_
_atom_site_label
_atom_site_type_symbol
_atom_site_fract_x
_atom_site_fract_y
_atom_site_fract_z
Zr1	Zr	-0.111154	0.653203	0.666364
O2	O	-0.258966	0.794427	0.565422
O3	O	-0.061505	0.517373	0.693782
O4	O	-0.245470	0.650815	0.698868
O5	O	0.065179	0.660988	0.560336
O6	O	-0.239756	0.642796	0.808143
O7	O	-0.075002	0.660985	0.560337
O8	O	0.089322	0.404092	0.799046
O9	O	-0.263900	0.899691	0.569433
O10	O	-0.041306	0.565259	0.791286
O11	O	0.059045	0.571246	0.709735
O12	O	-0.157549	0.728357	0.715723
O13	O	-0.057197	0.734344	0.634171
Zr14	Zr	0.121530	0.640417	0.840644
Zr15	Zr	-0.102042	0.640413	0.840645
Zr16	Zr	0.112418	0.653207	0.666363
Zr17	Zr	-0.119022	0.821087	0.672761
Zr18	Zr	0.129398	0.472533	0.834247
O19	O	0.071881	0.776247	0.813225
O20	O	-0.246010	0.776241	0.813227
O21	O	0.058925	0.794433	0.565420
O22	O	0.269342	0.499193	0.941586
O23	O	-0.048549	0.499187	0.941587
O24	O	0.256386	0.517379	0.693781
O25	O	-0.054803	0.632632	0.946672
O26	O	0.255845	0.642805	0.808140
O27	O	0.250132	0.650824	0.698865
O28	O	0.085378	0.632635	0.946671
O29	O	-0.256657	0.889525	0.707963
O30	O	0.267032	0.404095	0.799045
O31	O	0.274275	0.393928	0.937575
O32	O	0.096565	0.393925	0.937576
O33	O	-0.086189	0.899695	0.569432
O34	O	-0.078947	0.889528	0.707962
O35	O	0.167925	0.565263	0.791285
O36	O	0.067573	0.559276	0.872836
O37	O	-0.048670	0.722374	0.797273
O38	O	0.051682	0.728361	0.715721
C39	C	0.015029	0.436812	0.745503
C40	C	0.018370	0.365541	0.742787
C41	C	-0.032444	0.328933	0.784078
C42	C	-0.029295	0.261961	0.781529
C43	C	0.024661	0.231604	0.737683
C44	C	0.075481	0.268215	0.696391
C45	C	0.072338	0.335180	0.698946
C46	C	0.039683	0.031656	0.725483
C47	C	0.042820	-0.035313	0.722929
C48	C	-0.061956	-0.041563	0.808069
C49	C	-0.065099	0.025408	0.810615
C50	C	-0.014274	0.062010	0.769327
N51	N	0.027878	0.163150	0.735074
N52	N	-0.017485	0.130457	0.771941
C53	C	-0.274467	0.646805	0.753505
C54	C	-0.369380	0.646803	0.753506
C55	C	-0.446458	0.646801	0.753506
C56	C	-0.543163	0.646806	0.753505
C57	C	0.284843	0.646815	0.753502
C58	C	0.379755	0.646817	0.753502
C59	C	-0.006210	0.662809	0.535505
C60	C	-0.010078	0.668239	0.461518
C61	C	-0.004654	0.856808	0.761505
C62	C	-0.007994	0.928079	0.764220
C63	C	0.048776	0.585656	0.466201
C64	C	0.045139	0.590764	0.396680
C65	C	-0.017359	0.678454	0.322477
C66	C	-0.076216	0.761043	0.317797
C67	C	-0.072572	0.755934	0.387317
C68	C	-0.034759	0.702862	0.110329
C69	C	-0.038401	0.707964	0.040807
C70	C	0.082956	0.537684	0.119695
C71	C	0.086590	0.532583	0.189213
C72	C	0.027738	0.615172	0.184527
N73	N	-0.021082	0.683677	0.251415
N74	N	0.031467	0.609948	0.255588
C75	C	0.016585	0.630811	0.971503
C76	C	0.020454	0.625381	1.045489
C77	C	0.026427	0.420814	0.963501
C78	C	0.033636	0.344113	1.034773
C79	C	0.294684	0.436818	0.745501
C80	C	0.392937	0.365548	0.742785
C81	C	0.306082	0.420819	0.963500
C82	C	0.408203	0.344120	1.034771
C83	C	-0.295706	0.872801	0.543508
C84	C	-0.397827	0.949500	0.472237
C85	C	-0.016051	0.872806	0.543506
C86	C	-0.023260	0.949507	0.472235
C87	C	-0.284309	0.856802	0.761506
C88	C	-0.382561	0.928072	0.764222
C89	C	-0.019823	0.311216	1.025674
C90	C	-0.013071	0.239157	1.092635
C91	C	0.047145	0.199991	1.168693
C92	C	0.100604	0.232895	1.177790
C93	C	0.093846	0.304957	1.110831
C94	C	0.495921	0.328956	0.784078
C95	C	0.588247	0.262001	0.781523
C96	C	0.577588	0.231633	0.737680
C97	C	0.474594	0.268232	0.696382
C98	C	0.382269	0.335191	0.698933
C99	C	0.403778	0.304975	1.110816
C100	C	0.499722	0.232917	1.177790
C101	C	0.600091	0.200000	1.168716
C102	C	0.604514	0.239151	1.092662
C103	C	0.508570	0.311213	1.025691
C104	C	-0.393402	0.988653	0.396192
C105	C	-0.489348	1.060732	0.329219
C106	C	-0.589717	1.093653	0.338293
C107	C	-0.594139	1.054497	0.414347
C108	C	-0.498195	0.982424	0.481318
C109	C	0.030188	0.982411	0.481334
C110	C	0.023412	1.054488	0.414374
C111	C	-0.036808	1.093656	0.338316
C112	C	-0.090263	1.060750	0.329218
C113	C	-0.083492	0.988678	0.396178
C114	C	-0.371868	0.958417	0.808073
C115	C	-0.464177	1.025373	0.810641
C116	C	-0.567179	1.061986	0.769352
C117	C	-0.577870	1.031634	0.725500
C118	C	-0.485562	0.964675	0.722938
H119	H	-0.109034	0.050123	0.846318
H120	H	-0.076387	0.353649	0.819778
H121	H	0.465931	0.243497	0.660686
H122	H	0.496102	0.201047	1.239710
H123	H	-0.068870	0.343104	0.963750
H124	H	-0.103333	-0.071372	0.841685
H125	H	0.052640	0.141313	1.223209
H126	H	-0.667833	1.152339	0.283754
H127	H	-0.139293	1.092652	0.267283
H128	H	0.504620	0.353673	0.819780
H129	H	0.149631	0.200995	1.239726
H130	H	0.099674	0.514249	0.526616
H131	H	-0.042312	1.152341	0.283800
H132	H	-0.675871	1.081310	0.421726
H133	H	0.079232	0.950525	0.543258
H134	H	0.672101	0.232209	0.815156
H135	H	0.512188	0.343076	0.963773
H136	H	0.298419	0.364976	0.665309
H137	H	0.678207	0.141322	1.223255
H138	H	0.652774	0.177110	0.735610
H139	H	-0.661747	1.061455	0.691885
H140	H	-0.127014	0.961891	0.388758
H141	H	-0.056605	0.212376	1.085212
H142	H	0.686247	0.212340	1.085285
H143	H	-0.501810	0.950546	0.543236
H144	H	0.066946	1.081268	0.421797
H145	H	-0.311686	0.961854	0.388788
H146	H	-0.288007	0.928617	0.841696
H147	H	-0.455450	1.050078	0.846349
H148	H	-0.089300	0.779376	-0.019614
H149	H	-0.642333	1.116508	0.771445
H150	H	0.086757	-0.060026	0.687221
H151	H	0.322062	0.331765	1.118220
H152	H	0.137385	0.331732	1.118250
H153	H	-0.485726	1.092601	0.267299
H154	H	-0.070671	0.232154	0.815152
H155	H	0.081073	0.061445	0.691866
H156	H	-0.494284	0.939976	0.687226
H157	H	0.119420	0.243488	0.660696
H158	H	0.113713	0.364989	0.665320
H159	H	0.093066	0.523516	0.400499
H160	H	0.137462	0.461176	0.249628
H161	H	0.130871	0.470445	0.123501
H162	H	-0.082699	0.770111	0.106503
H163	H	-0.120484	0.823182	0.383500
H164	H	-0.127097	0.832442	0.257375
