data_functionalizedCrystal
_audit_creation_method	'MofGen! by Chris Wilmer'
_symmetry_space_group_name_H-M	'P1'
_symmetry_Int_Tables_number	1
_symmetry_cell_setting	triclinic
loop_
_symmetry_equiv_pos_as_xyz
  x,y,z
_cell_length_a	16.974897
_cell_length_b	14.853559
_cell_length_c	16.053802
_cell_angle_alpha	92.571272
_cell_angle_beta	83.774775
_cell_angle_gamma	83.516184
loop_
_atom_site_label
_atom_site_type_symbol
_atom_site_fract_x
_atom_site_fract_y
_atom_site_fract_z
O1	O	1.056009	0.107270	-0.140702
O2	O	0.825073	0.122744	-0.125116
O3	O	0.946713	-0.016262	-0.133325
O4	O	0.934369	0.246276	-0.132494
O5	O	0.940018	-0.008642	0.005986
O6	O	0.818377	0.130364	0.014195
O7	O	1.049313	0.114890	-0.001392
Zn8	Zn	0.932782	0.123837	0.028520
Zn9	Zn	0.941604	0.113797	-0.155028
O10	O	0.927673	0.253896	0.006817
C11	C	0.792171	0.126105	-0.053466
C12	C	0.704108	0.124755	-0.047523
C13	C	0.666378	0.119970	-0.120663
C14	C	0.583632	0.118716	-0.115066
C15	C	0.538618	0.122242	-0.036328
C16	C	0.576353	0.127030	0.036817
C17	C	0.659097	0.128290	0.031219
C18	C	0.290758	0.118926	-0.011444
C19	C	0.208008	0.117664	-0.005852
C20	C	0.215293	0.109351	-0.157736
C21	C	0.298039	0.110606	-0.163327
C22	C	0.335766	0.115399	-0.090181
N23	N	0.454038	0.120958	-0.030606
N24	N	0.420344	0.116689	-0.095905
C25	C	0.942807	-0.046038	-0.063633
C26	C	0.941135	-0.146111	-0.063525
C27	C	0.937689	-0.573395	-0.138985
C28	C	0.930390	-0.565083	0.012897
C29	C	0.931968	-0.471059	0.012791
C30	C	0.936405	-0.428200	-0.063204
C31	C	0.939265	-0.479363	-0.139093
C32	C	0.929100	-0.419887	0.088680
C33	C	0.930677	-0.325858	0.088577
C34	C	0.935120	-0.282997	0.012581
C35	C	0.937981	-0.334167	-0.063312
C36	C	0.942419	-0.291307	-0.139306
C37	C	0.945285	-0.342476	-0.215200
C38	C	0.943709	-0.436503	-0.215089
C39	C	0.936697	-0.188971	0.012470
C40	C	0.943995	-0.197275	-0.139414
C41	C	1.082215	0.111529	-0.073043
C42	C	1.170278	0.112878	-0.078992
C43	C	0.931579	0.283671	-0.062876
C44	C	0.933252	0.383745	-0.062990
N45	N	0.926768	0.130688	0.153786
N46	N	0.947625	0.106939	-0.280294
C47	C	0.978545	0.071561	0.193986
C48	C	0.974345	0.076362	0.281676
C49	C	0.918371	0.140295	0.329165
C50	C	0.866589	0.199424	0.288959
C51	C	0.870785	0.194618	0.201271
C52	C	0.900039	0.161262	0.591812
C53	C	0.895848	0.166065	0.679506
C54	C	1.003603	0.043002	0.672217
C55	C	1.007798	0.038205	0.584527
C56	C	0.956013	0.097331	0.544329
N57	N	0.914078	0.145205	0.418798
N58	N	0.960303	0.092416	0.454697
H59	H	0.689815	0.132191	0.090778
H60	H	0.928346	-0.284204	0.150374
N61	N	0.948788	-0.151051	-0.221382
H62	H	0.950366	-0.197736	-0.269439
H63	H	0.900464	-0.104672	-0.221423
H64	H	1.016505	0.028216	0.314406
H65	H	0.334685	0.107729	-0.227443
N66	N	0.159459	0.121463	0.079078
H67	H	0.195988	0.124067	0.124556
H68	H	0.118963	0.177332	0.085362
N69	N	0.925609	-0.611309	0.094857
H70	H	0.924038	-0.564628	0.142916
H71	H	0.875659	-0.642589	0.101528
H72	H	0.321466	0.122823	0.048116
H73	H	0.948893	-0.307567	-0.277075
N74	N	0.174604	0.104196	-0.236627
H75	H	0.196962	0.046717	-0.271230
H76	H	0.115362	0.103973	-0.221072
H77	H	0.828622	0.242764	0.168542
H78	H	1.045764	-0.005137	0.704954
N79	N	0.527801	0.130837	0.121740
H80	H	0.498830	0.075200	0.126588
H81	H	0.564439	0.132865	0.167161
N82	N	0.946800	-0.491689	-0.296939
H83	H	0.945124	-0.557757	-0.285337
H84	H	0.899533	-0.469517	-0.326804
N85	N	0.806222	0.268385	0.340177
H86	H	0.774057	0.305112	0.301402
H87	H	0.769378	0.236015	0.378944
H88	H	1.024128	0.019504	0.155326
N89	N	0.714928	0.116157	-0.205587
H90	H	0.678467	0.112936	-0.251071
H91	H	0.743053	0.172381	-0.210791
N92	N	0.940787	-0.628577	-0.220839
H93	H	0.939119	-0.694648	-0.209244
H94	H	0.893520	-0.606408	-0.250705
N95	N	0.924330	-0.466121	0.170636
H96	H	0.874387	-0.497413	0.177386
H97	H	0.972695	-0.512443	0.170678
H98	H	0.934345	-0.147311	0.074262
H99	H	0.850265	0.218131	0.718168
H100	H	0.552916	0.114820	-0.174624
H101	H	1.053377	-0.013853	0.545863
H102	H	0.857875	0.209406	0.559090
