data_functionalizedCrystal
_audit_creation_method	'MofGen! by Chris Wilmer'
_symmetry_space_group_name_H-M	'P1'
_symmetry_Int_Tables_number	1
_symmetry_cell_setting	triclinic
loop_
_symmetry_equiv_pos_as_xyz
  x,y,z
_cell_length_a	10.654550
_cell_length_b	9.065218
_cell_length_c	8.140239
_cell_angle_alpha	90.002802
_cell_angle_beta	89.997641
_cell_angle_gamma	95.249606
loop_
_atom_site_label
_atom_site_type_symbol
_atom_site_fract_x
_atom_site_fract_y
_atom_site_fract_z
O1	O	0.184157	-1.959391	-0.136613
O2	O	0.199263	-1.530024	-0.136615
O3	O	0.009010	-1.754580	-0.136608
O4	O	0.374410	-1.734836	-0.136620
O5	O	0.009008	-1.754567	0.136619
O6	O	0.199261	-1.530011	0.136612
O7	O	0.184155	-1.959379	0.136614
Zn8	Zn	0.191708	-1.744693	0.179994
Zn9	Zn	0.191711	-1.744710	-0.179995
O10	O	0.374408	-1.734823	0.136607
C11	C	0.197810	-1.475039	-0.000002
C12	C	0.193469	-1.311220	-0.000003
C13	C	-0.037795	-1.753124	0.000004
C14	C	-0.177255	-1.748786	-0.000002
C15	C	0.185608	-2.014364	-0.000003
C16	C	0.189949	-2.178183	-0.000013
C17	C	-0.256217	-1.881001	0.000003
C18	C	-0.387254	-1.876917	-0.000008
C19	C	-0.360354	-1.608391	-0.000024
C20	C	-0.229320	-1.612477	-0.000024
C21	C	-0.204153	-2.017310	0.000025
C22	C	-0.283116	-2.149536	0.000033
C23	C	-0.414153	-2.145452	0.000021
C24	C	-0.466226	-2.009142	0.000002
C25	C	0.421213	-1.736279	-0.000008
C26	C	0.560673	-1.740616	-0.000013
N27	N	0.191705	-1.744693	0.425676
N28	N	0.191704	-1.744722	-0.425677
H29	H	-0.097457	-2.020651	0.000040
O30	O	-0.411143	-1.476116	0.000043
C31	C	-0.601090	-1.350820	-0.000051
C32	C	-0.543742	-1.500725	-0.000096
H33	H	-0.708304	-1.370664	-0.000198
H34	H	-0.568789	-1.285385	0.114320
H35	H	-0.568620	-1.285423	-0.114371
H36	H	-0.576186	-1.566243	0.114147
H37	H	-0.576039	-1.566047	-0.114542
O38	O	-0.152734	-1.483950	-0.000246
C39	C	-0.089579	-1.255755	-0.141869
C40	C	-0.176406	-1.401240	-0.141790
H41	H	-0.108668	-1.188858	-0.256312
H42	H	-0.108718	-1.188625	-0.027606
H43	H	0.013006	-1.282134	-0.141793
H44	H	-0.279021	-1.374995	-0.141924
H45	H	-0.157159	-1.468329	-0.256043
H46	H	-0.572927	-2.005827	-0.000025
H47	H	-0.478442	-2.253116	0.000010
H48	H	-0.240708	-2.260515	0.000007
