data_functionalizedCrystal
_audit_creation_method	'MofGen! by Chris Wilmer'
_symmetry_space_group_name_H-M	'P1'
_symmetry_Int_Tables_number	1
_symmetry_cell_setting	triclinic
loop_
_symmetry_equiv_pos_as_xyz
  x,y,z
_cell_length_a	14.519709
_cell_length_b	14.519709
_cell_length_c	12.996460
_cell_angle_alpha	90.004595
_cell_angle_beta	90.007122
_cell_angle_gamma	96.319855
loop_
_atom_site_label
_atom_site_type_symbol
_atom_site_fract_x
_atom_site_fract_y
_atom_site_fract_z
O1	O	0.120894	-1.223863	0.085435
O2	O	0.620894	-0.723863	0.585435
O3	O	0.135130	-0.955386	0.085467
O4	O	0.635130	-0.455386	0.585467
O5	O	-0.006227	-1.096742	0.085441
O6	O	0.493773	-0.596742	0.585441
O7	O	0.262250	-1.082506	0.085461
O8	O	0.762250	-0.582506	0.585461
O9	O	-0.006236	-1.096740	-0.085693
O10	O	0.493764	-0.596740	0.414307
O11	O	0.135121	-0.955383	-0.085667
O12	O	0.635121	-0.455383	0.414333
O13	O	0.120884	-1.223860	-0.085699
O14	O	0.620884	-0.723860	0.414301
Cu15	Cu	0.128002	-1.089622	-0.101309
Cu16	Cu	0.628002	-0.589622	0.398691
Cu17	Cu	0.128013	-1.089624	0.101077
Cu18	Cu	0.628013	-0.589624	0.601077
O19	O	0.262241	-1.082503	-0.085673
O20	O	0.762241	-0.582503	0.414327
C21	C	0.134462	-0.921025	-0.000096
C22	C	0.634462	-0.421025	0.499904
C23	C	0.132474	-0.818643	-0.000084
C24	C	0.632474	-0.318643	0.499916
C25	C	-0.040591	-1.096078	-0.000126
C26	C	0.459409	-0.596078	0.499874
C27	C	-0.142972	-1.094090	-0.000126
C28	C	0.357028	-0.594090	0.499874
N29	N	0.128014	-1.089627	0.243424
N30	N	0.628014	-0.589627	0.743424
C31	C	-0.517868	-1.086770	-0.000099
C32	C	-0.017868	-0.586770	0.499901
C33	C	-0.413560	-1.088803	-0.000107
C34	C	0.086440	-0.588803	0.499893
C35	C	-0.330423	-1.090430	-0.000114
C36	C	0.169577	-0.590430	0.499886
C37	C	-0.226109	-1.092463	-0.000120
C38	C	0.273891	-0.592463	0.499880
C39	C	0.296605	-1.083168	-0.000103
C40	C	0.796605	-0.583168	0.499897
C41	C	0.398987	-1.085156	-0.000096
C42	C	0.898987	-0.585156	0.499904
C43	C	0.121553	-1.258221	-0.000134
C44	C	0.621553	-0.758221	0.499866
C45	C	0.123541	-1.360602	-0.000139
C46	C	0.623541	-0.860602	0.499861
C47	C	0.125154	-0.443748	-0.000132
C48	C	0.625154	0.056252	0.499868
C49	C	0.127187	-0.548056	-0.000118
C50	C	0.627187	-0.048056	0.499882
C51	C	0.128814	-0.631192	-0.000107
C52	C	0.628814	-0.131192	0.499893
C53	C	0.130847	-0.735507	-0.000095
C54	C	0.630847	-0.235507	0.499905
N55	N	0.127993	-1.089626	-0.243656
N56	N	0.627993	-0.589626	0.256344
C57	C	0.128005	-1.089622	0.663238
C58	C	0.628005	-0.589622	1.163238
C59	C	0.128010	-1.089620	0.546433
C60	C	0.628010	-0.589620	1.046433
C61	C	0.128009	-1.089624	0.453335
C62	C	0.628009	-0.589624	0.953335
C63	C	0.128015	-1.089623	0.336522
C64	C	0.628015	-0.589623	0.836522
