data_functionalizedCrystal
_audit_creation_method	'MofGen! by Chris Wilmer'
_symmetry_space_group_name_H-M	'P1'
_symmetry_Int_Tables_number	1
_symmetry_cell_setting	triclinic
loop_
_symmetry_equiv_pos_as_xyz
  x,y,z
_cell_length_a	21.295420
_cell_length_b	25.639233
_cell_length_c	21.295417
_cell_angle_alpha	89.980184
_cell_angle_beta	90.025484
_cell_angle_gamma	89.986550
loop_
_atom_site_label
_atom_site_type_symbol
_atom_site_fract_x
_atom_site_fract_y
_atom_site_fract_z
Zn1	Zn	0.962290	-0.295617	-0.250757
Zn2	Zn	1.462290	0.204383	0.249243
Zn3	Zn	0.962214	-0.208179	-0.356007
Zn4	Zn	1.462214	0.291821	0.143993
Zn5	Zn	0.857033	-0.208194	-0.250748
Zn6	Zn	1.357033	0.291806	0.249252
Zn7	Zn	0.856984	-0.295583	-0.355984
Zn8	Zn	1.356984	0.204417	0.144016
O9	O	0.909630	-0.251893	-0.303374
O10	O	1.409630	0.248107	0.196626
O11	O	1.050369	-0.284026	-0.264732
O12	O	1.550369	0.215974	0.235268
O13	O	0.948251	-0.135016	-0.342050
O14	O	1.448251	0.364984	0.157950
O15	O	0.871048	-0.219811	-0.162660
O16	O	1.371048	0.280189	0.337340
O17	O	1.050313	-0.219786	-0.342059
O18	O	1.550313	0.280214	0.157941
O19	O	0.948380	-0.284040	-0.162666
O20	O	1.448380	0.215960	0.337334
O21	O	0.870975	-0.135027	-0.264717
O22	O	1.370975	0.364973	0.235283
O23	O	0.768937	-0.219778	-0.264695
O24	O	1.268937	0.280222	0.235305
O25	O	0.870964	-0.368752	-0.342020
O26	O	1.370964	0.131248	0.157980
O27	O	0.768901	-0.283982	-0.342011
O28	O	1.268901	0.216018	0.157989
O29	O	0.948331	-0.368777	-0.264709
O30	O	1.448331	0.131223	0.235291
O31	O	0.948203	-0.219753	-0.444093
O32	O	1.448203	0.280247	0.055907
O33	O	0.870890	-0.283968	-0.444077
O34	O	1.370890	0.216032	0.055923
C35	C	0.746079	-0.251879	-0.303350
C36	C	1.246079	0.248121	0.196650
C37	C	0.676110	-0.251885	-0.303355
C38	C	1.176110	0.248115	0.196645
C39	C	0.176681	-0.285405	-0.263205
C40	C	0.676681	0.214595	0.236795
C41	C	0.242423	-0.285405	-0.263200
C42	C	0.742423	0.214595	0.236800
C43	C	0.275271	-0.251905	-0.303393
C44	C	0.775271	0.248095	0.196607
C45	C	0.242371	-0.218413	-0.343605
C46	C	0.742371	0.281587	0.156395
C47	C	0.176630	-0.218418	-0.343613
C48	C	0.676630	0.281582	0.156387
N49	N	0.378472	-0.206124	-0.308128
N50	N	0.878472	0.293876	0.191872
N51	N	0.440923	-0.206121	-0.308117
N52	N	0.940923	0.293879	0.191883
C53	C	0.473346	-0.251890	-0.303372
C54	C	0.973346	0.248110	0.196628
N55	N	0.440958	-0.297663	-0.298627
N56	N	0.940958	0.202337	0.201373
N57	N	0.378500	-0.297665	-0.298635
N58	N	0.878500	0.202335	0.201365
C59	C	0.346556	-0.251897	-0.303389
C60	C	0.846556	0.248103	0.196611
C61	C	0.577524	-0.285383	-0.263161
C62	C	1.077524	0.214617	0.236839
C63	C	0.643267	-0.285384	-0.263160
C64	C	1.143267	0.214616	0.236840
C65	C	0.643214	-0.218387	-0.343562
C66	C	1.143214	0.281613	0.156438
C67	C	0.577471	-0.218391	-0.343566
C68	C	1.077471	0.281609	0.156434
C69	C	0.544630	-0.251888	-0.303362
C70	C	1.044630	0.248112	0.196638
C71	C	0.909650	-0.388266	-0.303363
C72	C	1.409650	0.111734	0.196637
C73	C	0.909659	-0.446380	-0.303358
C74	C	1.409659	0.053620	0.196642
C75	C	0.949996	-0.806762	-0.262983
C76	C	1.449996	-0.306762	0.237017
C77	C	0.950003	-0.861367	-0.262966
C78	C	1.450003	-0.361367	0.237034
O79	O	0.984248	-0.889619	-0.228712
O80	O	1.484248	-0.389619	0.271288
N81	N	0.909728	-0.888663	-0.303211
N82	N	1.409728	-0.388663	0.196789
C83	C	0.869439	-0.861352	-0.343471
C84	C	1.369439	-0.361352	0.156529
O85	O	0.835182	-0.889584	-0.377700
O86	O	1.335182	-0.389584	0.122300
C87	C	0.869428	-0.806749	-0.343485
C88	C	1.369428	-0.306749	0.156515
C89	C	0.909710	-0.779455	-0.303242
C90	C	1.409710	-0.279455	0.196758
C91	C	0.990274	-0.779469	-0.222743
C92	C	1.490274	-0.279469	0.277257
C93	C	0.990267	-0.724868	-0.222761
C94	C	1.490267	-0.224868	0.277239
C95	C	0.949981	-0.697561	-0.263020
C96	C	1.449981	-0.197561	0.236980
C97	C	0.909703	-0.724855	-0.303260
C98	C	1.409703	-0.224855	0.196740
C99	C	0.829136	-0.779439	-0.383741
C100	C	1.329136	-0.279439	0.116259
C101	C	0.829128	-0.724832	-0.383751
C102	C	1.329128	-0.224832	0.116249
C103	C	0.869410	-0.697539	-0.343508
C104	C	1.369410	-0.197539	0.156492
C105	C	0.869411	-0.642947	-0.343537
C106	C	1.369411	-0.142947	0.156463
N107	N	0.909686	-0.615651	-0.303292
N108	N	1.409686	-0.115651	0.196708
C109	C	0.949971	-0.642958	-0.263034
C110	C	1.449971	-0.142958	0.236966
C111	C	0.869463	-0.976023	-0.343438
C112	C	1.369463	-0.476023	0.156562
C113	C	0.869476	-1.030625	-0.343428
C114	C	1.369476	-0.530625	0.156572
C115	C	0.950040	-1.030636	-0.262922
C116	C	1.450040	-0.530636	0.237078
C117	C	0.950030	-0.976033	-0.262936
C118	C	1.450030	-0.476033	0.237064
C119	C	0.909738	-0.948727	-0.303193
C120	C	1.409738	-0.448727	0.196807
C121	C	0.949953	-0.528293	-0.263076
C122	C	1.449953	-0.028293	0.236924
C123	C	0.949944	-0.473687	-0.263100
C124	C	1.449944	0.026313	0.236900
C125	C	0.869378	-0.473682	-0.343603
C126	C	1.369378	0.026318	0.156397
C127	C	0.869389	-0.528282	-0.343582
C128	C	1.369389	-0.028282	0.156418
C129	C	0.909679	-0.555586	-0.303313
C130	C	1.409679	-0.055586	0.196687
O131	O	0.835182	-0.614660	-0.377772
O132	O	1.335182	-0.114660	0.122228
O133	O	0.984216	-0.614719	-0.228804
O134	O	1.484216	-0.114719	0.271196
C135	C	1.073820	-0.251908	-0.303399
C136	C	1.573820	0.248092	0.196601
C137	C	1.143788	-0.251915	-0.303409
C138	C	1.643788	0.248085	0.196591
C139	C	0.909550	-0.251867	-0.466926
C140	C	1.409550	0.248133	0.033074
C141	C	0.909573	-0.251873	-0.536894
C142	C	1.409573	0.248127	-0.036894
C143	C	0.909646	-0.116051	-0.303340
C144	C	1.409646	0.383949	0.196660
C145	C	0.909759	-0.057937	-0.303167
C146	C	1.409759	0.442063	0.196833
C147	C	0.949817	-0.285341	-0.569706
C148	C	1.449817	0.214659	-0.069706
C149	C	0.949839	-0.285354	-0.635449
C150	C	1.449839	0.214646	-0.135449
C151	C	0.909624	-0.251889	-0.668376
C152	C	1.409624	0.248111	-0.168376
C153	C	0.869373	-0.218419	-0.635555
C154	C	1.369373	0.281581	-0.135555
C155	C	0.869348	-0.218411	-0.569814
C156	C	1.369348	0.281589	-0.069814
N157	N	0.904875	-0.206132	-0.771627
N158	N	1.404875	0.293868	-0.271627
N159	N	0.904903	-0.206141	-0.834079
N160	N	1.404903	0.293859	-0.334079
C161	C	0.909698	-0.251913	-0.866451
C162	C	1.409698	0.248087	-0.366451
N163	N	0.914475	-0.297676	-0.834012
N164	N	1.414475	0.202324	-0.334012
N165	N	0.914451	-0.297666	-0.771555
N166	N	1.414451	0.202334	-0.271555
C167	C	0.909647	-0.251895	-0.739662
C168	C	1.409647	0.248105	-0.239662
C169	C	0.949967	-0.285398	-0.970549
C170	C	1.449967	0.214602	-0.470549
C171	C	0.949985	-0.285412	-1.036293
C172	C	1.449985	0.214588	-0.536293
C173	C	0.869523	-0.218472	-1.036398
C174	C	1.369523	0.281528	-0.536398
C175	C	0.869502	-0.218463	-0.970656
C176	C	1.369502	0.281537	-0.470656
C177	C	0.909727	-0.251925	-0.937735
C178	C	1.409727	0.248075	-0.437735
C179	C	0.909728	-0.251931	-0.139184
C180	C	1.409728	0.248069	0.360816
C181	C	0.909769	-0.251948	-0.069216
C182	C	1.409769	0.248052	0.430784
H183	H	0.269209	-0.312676	-0.230458
H184	H	0.769209	0.187324	0.269542
N185	N	0.993338	-0.321494	-0.935032
N186	N	1.493338	0.178506	-0.435032
H187	H	1.022519	-0.300266	-0.907746
H188	H	1.522519	0.199734	-0.407746
H189	H	1.018791	-0.342697	-0.965834
H190	H	1.518791	0.157303	-0.465834
N191	N	1.033730	-0.808920	-0.179324
N192	N	1.533730	-0.308920	0.320676
H193	H	1.008176	-0.831578	-0.150138
H194	H	1.508176	-0.331578	0.349862
H195	H	1.059234	-0.783307	-0.153878
H196	H	1.559234	-0.283307	0.346122
H197	H	0.796334	-0.801652	-0.416512
H198	H	1.296334	-0.301652	0.083488
H199	H	0.269120	-0.191139	-0.376332
H200	H	0.769120	0.308861	0.123668
N201	N	0.825946	-0.182310	-0.534415
N202	N	1.325946	0.317690	-0.034415
H203	H	0.780965	-0.190396	-0.545885
H204	H	1.280965	0.309604	-0.045885
H205	H	0.835812	-0.144976	-0.545886
H206	H	1.335812	0.355024	-0.045886
N207	N	0.541988	-0.182262	-0.386919
N208	N	1.041988	0.317738	0.113081
H209	H	0.514710	-0.203467	-0.416132
H210	H	1.014710	0.296533	0.083868
H211	H	0.572809	-0.161045	-0.412339
H212	H	1.072809	0.338955	0.087661
N213	N	0.141148	-0.182294	-0.386978
N214	N	0.641148	0.317706	0.113022
H215	H	0.171930	-0.161072	-0.412442
H216	H	0.671930	0.338928	0.087558
H217	H	0.113873	-0.158138	-0.361313
H218	H	0.613873	0.341862	0.138687
N219	N	0.993246	-0.321452	-0.670851
N220	N	1.493246	0.178548	-0.170851
H221	H	1.018724	-0.342649	-0.640020
H222	H	1.518724	0.157351	-0.140020
H223	H	1.022402	-0.300190	-0.698114
H224	H	1.522402	0.199810	-0.198114
N225	N	0.993479	-1.060101	-0.219492
N226	N	1.493479	-0.560101	0.280508
H227	H	0.983722	-1.050603	-0.174517
H228	H	1.483722	-0.550603	0.325483
H229	H	1.038436	-1.050599	-0.229322
H230	H	1.538436	-0.550599	0.270678
H231	H	0.796310	-0.702603	-0.416528
H232	H	1.296310	-0.202603	0.083472
N233	N	0.141252	-0.321536	-0.219853
N234	N	0.641252	0.178464	0.280147
H235	H	0.113977	-0.300331	-0.190651
H236	H	0.613977	0.199669	0.309349
H237	H	0.172102	-0.342748	-0.194422
H238	H	0.672102	0.157252	0.305578
N239	N	0.826104	-0.182360	-0.935257
N240	N	1.326104	0.317640	-0.435257
H241	H	0.781124	-0.190445	-0.946730
H242	H	1.281124	0.309555	-0.446730
H243	H	0.835972	-0.145027	-0.946727
H244	H	1.335972	0.354973	-0.446727
H245	H	0.550783	-0.312659	-0.230424
H246	H	1.050783	0.187341	0.269576
H247	H	0.836629	-0.191173	-0.662369
H248	H	1.336629	0.308827	-0.162369
H249	H	0.669957	-0.191115	-0.376293
H250	H	1.169957	0.308885	0.123707
N251	N	0.678748	-0.321511	-0.219800
N252	N	1.178748	0.178489	0.280200
H253	H	0.647965	-0.342730	-0.194334
H254	H	1.147965	0.157270	0.305666
H255	H	0.706028	-0.300270	-0.190632
H256	H	1.206028	0.199730	0.309368
H257	H	0.982830	-0.953814	-0.230165
H258	H	1.482830	-0.453814	0.269835
H259	H	0.982749	-0.451467	-0.230328
H260	H	1.482749	0.048533	0.269672
N261	N	0.993404	-0.557738	-0.219641
N262	N	1.493404	-0.057738	0.280359
H263	H	1.018916	-0.532155	-0.194155
H264	H	1.518916	-0.032155	0.305845
H265	H	1.022526	-0.580394	-0.245259
H266	H	1.522526	-0.080394	0.254741
N267	N	0.825999	-0.946573	-0.386858
N268	N	1.325999	-0.446573	0.113142
H269	H	0.800487	-0.972155	-0.412345
H270	H	1.300487	-0.472155	0.087655
H271	H	0.851592	-0.923914	-0.416004
H272	H	1.351592	-0.423914	0.083996
H273	H	1.023067	-0.702650	-0.189990
H274	H	1.523067	-0.202650	0.310010
H275	H	0.836594	-0.550506	-0.376357
H276	H	1.336594	-0.050506	0.123643
N277	N	0.993369	-0.321531	-1.071687
N278	N	1.493369	0.178469	-0.571687
H279	H	1.018840	-0.342731	-1.040854
H280	H	1.518840	0.157269	-0.540854
H281	H	1.022532	-0.300290	-1.098967
H282	H	1.522532	0.199710	-0.598967
N283	N	0.826038	-1.060061	-0.386842
N284	N	1.326038	-0.560061	0.113158
H285	H	0.800520	-1.034471	-0.412346
H286	H	1.300520	-0.534471	0.087654
H287	H	0.796922	-1.082715	-0.361209
H288	H	1.296922	-0.582715	0.138791
H289	H	0.836581	-0.451438	-0.376383
H290	H	1.336581	0.048562	0.123617
N291	N	0.993196	-0.321434	-0.534199
N292	N	1.493196	0.178566	-0.034199
H293	H	1.018693	-0.342639	-0.564966
H294	H	1.518693	0.157361	-0.064966
H295	H	0.967540	-0.345608	-0.506932
H296	H	1.467540	0.154392	-0.006932
N297	N	0.826142	-0.182382	-1.071903
N298	N	1.326142	0.317618	-0.571903
H299	H	0.832263	-0.187466	-1.118529
H300	H	1.332263	0.312534	-0.618529
H301	H	0.835965	-0.145046	-1.060427
H302	H	1.335965	0.354954	-0.560427
