data_functionalizedCrystal
_audit_creation_method	'MofGen! by Chris Wilmer'
_symmetry_space_group_name_H-M	'P1'
_symmetry_Int_Tables_number	1
_symmetry_cell_setting	triclinic
loop_
_symmetry_equiv_pos_as_xyz
  x,y,z
_cell_length_a	18.050590
_cell_length_b	12.759399
_cell_length_c	12.759393
_cell_angle_alpha	90.030434
_cell_angle_beta	90.007068
_cell_angle_gamma	90.005382
loop_
_atom_site_label
_atom_site_type_symbol
_atom_site_fract_x
_atom_site_fract_y
_atom_site_fract_z
Zn1	Zn	1.135412	-0.418519	0.593632
Zn2	Zn	1.135332	-0.594235	0.417952
Zn3	Zn	1.011214	-0.418537	0.418009
Zn4	Zn	1.011205	-0.594124	0.593632
O5	O	1.073291	-0.506354	0.505806
O6	O	1.239326	-0.441868	0.570303
O7	O	1.118837	-0.570982	0.270938
O8	O	1.027727	-0.271514	0.441330
O9	O	1.239267	-0.570965	0.441232
O10	O	1.118974	-0.271501	0.570359
O11	O	1.027649	-0.441898	0.270981
O12	O	0.907288	-0.441790	0.441330
O13	O	1.027711	-0.570775	0.740653
O14	O	0.907282	-0.570793	0.570359
O15	O	1.118965	-0.441760	0.740653
O16	O	1.118829	-0.741241	0.441232
O17	O	1.027633	-0.741159	0.570303
C18	C	0.880338	-0.506282	0.505851
C19	C	0.797793	-0.506277	0.505896
C20	C	1.073241	-0.779321	0.505784
C21	C	1.073288	-0.896098	0.505810
C22	C	1.025843	-0.951060	0.438595
C23	C	1.025896	-1.060784	0.438622
C24	C	1.120840	-1.060574	0.573088
C25	C	1.120791	-0.950852	0.573055
C26	C	0.999473	-1.210864	0.314738
C27	C	0.952017	-1.265830	0.247532
C28	C	0.879543	-1.230307	0.231326
C29	C	0.854510	-1.139821	0.282341
C30	C	0.901962	-1.084860	0.349554
C31	C	0.974447	-1.120382	0.365741
C32	C	1.147206	-0.800770	0.696941
C33	C	1.194655	-0.745808	0.764160
C34	C	1.267131	-0.781328	0.780377
C35	C	1.292160	-0.871818	0.729381
C36	C	1.244711	-0.926781	0.662161
C37	C	1.172236	-0.891252	0.645943
C38	C	0.598360	-0.576629	0.575895
C39	C	0.548955	-0.480828	0.601743
C40	C	0.646662	-0.506335	0.505844
C41	C	0.548985	-0.602191	0.479995
C42	C	0.500677	-0.506401	0.505797
C43	C	0.598345	-0.410484	0.531742
C44	C	0.598379	-0.531911	0.409950
C45	C	0.548997	-0.436044	0.435762
C46	C	0.730761	-0.506299	0.505874
C47	C	0.416581	-0.506426	0.505766
C48	C	1.266996	-0.506427	0.505761
C49	C	1.349542	-0.506458	0.505742
C50	C	1.073346	-0.506253	0.779840
C51	C	1.073370	-0.506210	0.896616
C52	C	1.073360	-0.232321	0.505851
C53	C	1.073390	-0.115544	0.505870
C54	C	1.073278	-0.506379	0.232839
C55	C	1.073398	-0.506126	0.116063
C56	C	1.120889	-0.439021	0.951480
C57	C	1.120902	-0.438976	1.061204
C58	C	1.025873	-0.573318	1.061191
C59	C	1.025858	-0.573357	0.951469
C60	C	1.147491	-0.315027	1.211173
C61	C	1.195022	-0.247847	1.266040
C62	C	1.267486	-0.231759	1.230424
C63	C	1.292433	-0.282866	1.139942
C64	C	1.244905	-0.350053	1.085080
C65	C	1.172432	-0.366122	1.120695
C66	C	0.999276	-0.697307	0.801498
C67	C	0.951752	-0.764501	0.746635
C68	C	0.879287	-0.780600	0.782249
C69	C	0.854343	-0.729511	0.872734
C70	C	0.901867	-0.662318	0.927598
C71	C	0.974331	-0.646217	0.891976
H72	H	0.987165	-0.906481	0.383839
O73	O	1.166931	-0.373735	0.898081
C74	C	1.176933	-0.231885	0.774284
C75	C	1.124710	-0.305779	0.834667
H76	H	1.142817	-0.176910	0.723016
H77	H	1.215737	-0.280088	0.722829
H78	H	1.210911	-0.183903	0.832371
H79	H	1.090683	-0.353777	0.776656
H80	H	1.085954	-0.257515	0.886138
H81	H	0.840596	-0.835324	0.737574
O82	O	0.833481	-1.283863	0.166124
C83	C	0.772034	-1.447526	0.129599
C84	C	0.824216	-1.387001	0.203516
H85	H	0.764514	-1.530917	0.159814
H86	H	0.796961	-1.449881	0.047540
H87	H	0.715950	-1.406550	0.126756
H88	H	0.880312	-1.427929	0.206449
H89	H	0.799229	-1.384639	0.285538
H90	H	1.088196	-0.771823	0.683718
O91	O	1.313764	-0.166568	1.283618
C92	C	1.435401	-0.089313	1.293129
C93	C	1.383080	-0.163192	1.232799
H94	H	1.491450	-0.086542	1.252053
H95	H	1.442979	-0.119390	1.376563
H96	H	1.410483	-0.007247	1.295398
H97	H	1.407956	-0.245277	1.230448
H98	H	1.375505	-0.133028	1.149397
O99	O	0.624269	-0.557904	0.313287
C100	C	0.627367	-0.687500	0.175918
C101	C	0.598008	-0.658192	0.285405
H102	H	0.606134	-0.768575	0.153332
H103	H	0.690519	-0.688080	0.177078
H104	H	0.607141	-0.627496	0.116251
H105	H	0.618179	-0.718166	0.345133
H106	H	0.534858	-0.657578	0.284158
H107	H	1.058281	-0.684196	0.772487
O108	O	1.170338	-0.658002	0.813870
C109	C	1.147295	-0.573022	0.979384
C110	C	1.174832	-0.672534	0.923224
H111	H	1.150934	-0.584728	1.067806
H112	H	1.087329	-0.557047	0.956335
H113	H	1.183289	-0.503582	0.955576
H114	H	1.138893	-0.742035	0.947004
H115	H	1.234809	-0.688417	0.946275
H116	H	1.265095	-1.000467	0.620643
H117	H	0.972071	-0.806109	0.672963
H118	H	0.620036	-0.635970	0.635201
O119	O	0.523172	-0.455078	0.698534
C120	C	0.554114	-0.408614	0.876305
C121	C	0.583411	-0.437775	0.766745
H122	H	0.602803	-0.394595	0.931477
H123	H	0.518512	-0.475320	0.907846
H124	H	0.519330	-0.334259	0.870675
H125	H	0.618227	-0.512103	0.772285
H126	H	0.618972	-0.371008	0.735243
O127	O	0.877547	-0.996961	0.398991
C128	C	0.775813	-0.877813	0.426477
C129	C	0.803375	-0.977365	0.370413
H130	H	0.715837	-0.861950	0.403410
H131	H	0.811755	-0.808308	0.402697
H132	H	0.779432	-0.889524	0.514900
H133	H	0.799756	-0.965756	0.281980
H134	H	0.767427	-1.046834	0.394278
O135	O	0.624060	-0.313713	0.557746
C136	C	0.627460	-0.130101	0.513917
C137	C	0.598301	-0.239632	0.484331
H138	H	0.606633	-0.070172	0.454589
H139	H	0.690616	-0.130797	0.513709
H140	H	0.606676	-0.108236	0.595412
H141	H	0.619030	-0.261564	0.402829
H142	H	0.535146	-0.238877	0.484611
O143	O	0.523380	-0.365152	0.364936
C144	C	0.520507	-0.311006	0.184084
C145	C	0.549587	-0.391351	0.264178
H146	H	0.541670	-0.332171	0.102600
H147	H	0.540915	-0.229378	0.206202
H148	H	0.457354	-0.312026	0.184152
H149	H	0.612738	-0.390424	0.264151
H150	H	0.529122	-0.472941	0.242031
O151	O	0.784091	-1.105439	0.266454
C152	C	0.667761	-1.134306	0.178385
C153	C	0.747497	-1.173349	0.196267
H154	H	0.638146	-1.189204	0.121656
H155	H	0.669219	-1.051868	0.144033
H156	H	0.636870	-1.132975	0.256299
H157	H	0.778435	-1.174746	0.118395
H158	H	0.745985	-1.255763	0.230667
O159	O	0.979796	-0.638512	1.114640
C160	C	0.937673	-0.697948	1.283666
C161	C	0.989905	-0.624077	1.223271
H162	H	0.945817	-0.686287	1.371505
H163	H	0.950689	-0.782701	1.262154
H164	H	0.877800	-0.679492	1.262041
H165	H	1.049796	-0.642439	1.244864
H166	H	0.976826	-0.539346	1.244788
O167	O	0.523201	-0.698942	0.454057
C168	C	0.518998	-0.882328	0.498689
C169	C	0.548264	-0.772821	0.528155
H170	H	0.539237	-0.942085	0.558594
H171	H	0.540192	-0.904774	0.417562
H172	H	0.455848	-0.881177	0.498133
H173	H	0.611412	-0.773888	0.528773
H174	H	0.527013	-0.750418	0.609264
O175	O	1.269238	-0.399578	0.997185
C176	C	1.370883	-0.427272	0.877936
C177	C	1.343416	-0.371108	0.977484
H178	H	1.430863	-0.404292	0.861989
H179	H	1.334914	-0.403489	0.808457
H180	H	1.367215	-0.515682	0.889708
H181	H	1.347083	-0.282688	0.965815
H182	H	1.379390	-0.394976	1.046927
O183	O	1.170864	-0.198318	1.354036
C184	C	1.188068	-0.171522	1.539407
C185	C	1.215486	-0.227694	1.439836
H186	H	1.224142	-0.195235	1.608798
H187	H	1.128121	-0.194564	1.555522
H188	H	1.191672	-0.083112	1.527591
H189	H	1.211931	-0.316115	1.451576
H190	H	1.275421	-0.204567	1.423752
H191	H	1.088484	-0.328112	1.240175
O192	O	0.976279	-1.353657	0.197806
C193	C	0.999389	-1.438574	0.032277
C194	C	0.971885	-1.339053	0.088453
H195	H	0.995860	-1.426792	-0.056143
H196	H	0.963392	-1.508057	0.055953
H197	H	1.059334	-1.454525	0.055445
H198	H	0.911950	-1.323003	0.065314
H199	H	1.007934	-1.269625	0.064775
H200	H	1.058490	-1.239788	0.327916
H201	H	0.881551	-0.620719	1.001276
O202	O	0.783918	-0.745227	0.907168
C203	C	0.667550	-0.833283	0.878571
C204	C	0.747282	-0.815552	0.839446
H205	H	0.637912	-0.890158	0.823849
H206	H	0.636624	-0.755392	0.879818
H207	H	0.669107	-0.867481	0.961068
H208	H	0.745794	-0.781388	0.756937
H209	H	0.778177	-0.893469	0.838276
H210	H	1.351442	-0.269768	1.110956
H211	H	1.159514	-1.105169	0.627837
H212	H	1.351157	-0.900789	0.742652
H213	H	1.305762	-0.736569	0.835116
