data_functionalizedCrystal
_audit_creation_method	'MofGen! by Chris Wilmer'
_symmetry_space_group_name_H-M	'P1'
_symmetry_Int_Tables_number	1
_symmetry_cell_setting	triclinic
loop_
_symmetry_equiv_pos_as_xyz
  x,y,z
_cell_length_a	28.938199
_cell_length_b	28.937346
_cell_length_c	28.934044
_cell_angle_alpha	60.005004
_cell_angle_beta	60.009897
_cell_angle_gamma	59.994060
loop_
_atom_site_label
_atom_site_type_symbol
_atom_site_fract_x
_atom_site_fract_y
_atom_site_fract_z
O1	O	0.064043	-0.675186	0.564597
O2	O	0.564043	-0.175186	1.064597
O3	O	0.024124	-0.525682	0.454913
O4	O	0.524124	-0.025682	0.954913
O5	O	0.118795	-0.620275	0.454833
O6	O	0.618795	-0.120275	0.954833
O7	O	-0.030629	-0.580593	0.564678
O8	O	0.469371	-0.080593	1.064678
O9	O	0.150204	-0.588870	0.486157
O10	O	0.650204	-0.088870	0.986157
O11	O	0.055533	-0.494276	0.486238
O12	O	0.555533	0.005724	0.986238
O13	O	0.095452	-0.643780	0.595921
O14	O	0.595452	-0.143780	1.095921
Cu15	Cu	0.078360	-0.566161	0.543940
Cu16	Cu	0.578360	-0.066161	1.043940
Cu17	Cu	0.041215	-0.603301	0.506895
Cu18	Cu	0.541215	-0.103301	1.006895
O19	O	0.000780	-0.549187	0.596002
O20	O	0.500780	-0.049187	1.096002
N21	N	0.104487	-0.540042	0.569998
N22	N	0.604487	-0.040042	1.069998
N23	N	0.015094	-0.629425	0.480837
N24	N	0.515094	-0.129425	0.980837
C25	C	0.165467	-0.323909	0.630915
C26	C	0.665467	0.176091	1.130915
C27	C	0.165587	-0.479117	0.786068
C28	C	0.665587	0.020883	1.286068
C29	C	0.165481	-0.479095	0.630906
C30	C	0.665481	0.020905	1.130906
C31	C	0.320696	-0.479083	0.630835
C32	C	0.820696	0.020917	1.130835
C33	C	0.182557	-0.375118	0.647971
C34	C	0.682557	0.124882	1.147971
C35	C	0.182626	-0.462038	0.734858
C36	C	0.682626	0.037962	1.234858
C37	C	0.269485	-0.462018	0.647928
C38	C	0.769485	0.037982	1.147928
C39	C	0.182566	-0.462025	0.647966
C40	C	0.682566	0.037975	1.147966
C41	C	0.143714	-0.258726	0.609206
C42	C	0.643714	0.241274	1.109206
C43	C	0.143738	-0.500820	0.609192
C44	C	0.643738	-0.000820	1.109192
C45	C	0.204309	-0.440300	0.669680
C46	C	0.704309	0.059700	1.169680
C47	C	0.415481	-0.462740	0.580919
C48	C	0.915481	0.037260	1.080919
C49	C	0.474732	-0.482485	0.561145
C50	C	0.974732	0.017515	1.061145
C51	C	0.474757	-0.578356	0.597704
C52	C	0.974757	-0.078356	1.097704
C53	C	0.415508	-0.558609	0.617479
C54	C	0.915508	-0.058609	1.117479
C55	C	0.157989	-0.229089	0.550957
C56	C	0.657989	0.270911	1.050957
C57	C	0.138212	-0.169834	0.531225
C58	C	0.638212	0.330166	1.031225
C59	C	0.089890	-0.169857	0.627992
C60	C	0.589890	0.330143	1.127992
C61	C	0.109667	-0.229112	0.647725
C62	C	0.609667	0.270888	1.147725
C63	C	0.085482	-0.486515	0.623535
C64	C	0.585482	0.013485	1.123535
C65	C	0.065722	-0.506265	0.603789
C66	C	0.565722	-0.006265	1.103789
C67	C	0.162467	-0.554625	0.555370
C68	C	0.662467	-0.054625	1.055370
C69	C	0.182230	-0.534875	0.575110
C70	C	0.682230	-0.034875	1.075110
C71	C	0.085661	-0.486557	0.880902
C72	C	0.585661	0.013443	1.380902
C73	C	0.065952	-0.506323	0.940155
C74	C	0.565952	-0.006323	1.440155
C75	C	0.162734	-0.554693	0.940102
C76	C	0.662734	-0.054693	1.440102
C77	C	0.182441	-0.534928	0.880847
C78	C	0.682441	-0.034928	1.380847
C79	C	0.143904	-0.500859	0.851249
C80	C	0.643904	-0.000859	1.351249
C81	C	0.385871	-0.500801	0.609083
C82	C	0.885871	-0.000801	1.109083
C83	C	-0.110907	-0.668480	0.441278
C84	C	0.389093	-0.168480	0.941278
C85	C	-0.024049	-0.668588	0.441475
C86	C	0.475951	-0.168588	0.941475
C87	C	-0.045729	-0.690282	0.419668
C88	C	0.454271	-0.190282	0.919668
C89	C	-0.062146	-0.785032	0.469507
C90	C	0.437854	-0.285032	0.969507
C91	C	-0.042446	-0.844287	0.489286
C92	C	0.457554	-0.344287	0.989286
C93	C	0.053426	-0.844399	0.452899
C94	C	0.553426	-0.344399	0.952899
C95	C	0.033725	-0.785144	0.433120
C96	C	0.533725	-0.285144	0.933120
C97	C	-0.140617	-0.682751	0.499509
C98	C	0.359383	-0.182751	0.999509
C99	C	-0.199867	-0.662928	0.519152
C100	C	0.300133	-0.162928	1.019152
C101	C	-0.199694	-0.614571	0.422330
C102	C	0.300306	-0.114571	0.922330
C103	C	-0.140443	-0.634393	0.402687
C104	C	0.359557	-0.134393	0.902687
C105	C	-0.038320	-0.610337	0.427144
C106	C	0.461680	-0.110337	0.927144
C107	C	-0.018610	-0.590621	0.446974
C108	C	0.481390	-0.090621	0.946974
C109	C	0.029642	-0.687402	0.495454
C110	C	0.529642	-0.187402	0.995454
C111	C	0.009933	-0.707121	0.475630
C112	C	0.509933	-0.207121	0.975630
C113	C	-0.038148	-0.610347	0.324832
C114	C	0.461852	-0.110347	0.824832
C115	C	-0.018301	-0.590634	0.265579
C116	C	0.481699	-0.090634	0.765579
C117	C	0.030035	-0.687421	0.265643
C118	C	0.530035	-0.187421	0.765643
C119	C	0.010190	-0.707133	0.324897
C120	C	0.510190	-0.207133	0.824897
C121	C	-0.023903	-0.668595	0.354491
C122	C	0.476097	-0.168595	0.854491
C123	C	-0.024062	-0.755463	0.441426
C124	C	0.475938	-0.255463	0.941426
N125	N	0.503527	-0.540005	0.569810
N126	N	1.003527	-0.040005	1.069810
O127	O	0.684453	-0.545211	0.434650
O128	O	1.184453	-0.045211	0.934650
O129	O	0.684643	-0.655237	0.584005
O130	O	1.184643	-0.155237	1.084005
O131	O	0.684567	-0.654986	0.489282
O132	O	1.184567	-0.154986	0.989282
O133	O	0.684529	-0.545462	0.529373
O134	O	1.184529	-0.045462	1.029373
O135	O	0.590438	-0.623674	0.520735
O136	O	1.090438	-0.123674	1.020735
O137	O	0.590513	-0.623924	0.615457
O138	O	1.090513	-0.123924	1.115457
O139	O	0.590323	-0.513899	0.466102
O140	O	1.090323	-0.013899	0.966102
Cu141	Cu	0.581823	-0.566053	0.543652
Cu142	Cu	1.081823	-0.066053	1.043652
Cu143	Cu	0.693143	-0.603083	0.506456
Cu144	Cu	1.193143	-0.103083	1.006456
O145	O	0.590399	-0.514149	0.560825
O146	O	1.090399	-0.014149	1.060825
N147	N	0.771439	-0.629131	0.480292
N148	N	1.271439	-0.129131	0.980292
N149	N	0.104456	-0.141061	0.570015
N150	N	0.604456	0.358939	1.070015
O151	O	-0.030629	0.039964	0.564688
O152	O	0.469371	0.539964	1.064688
O153	O	0.118732	0.039984	0.454661
O154	O	0.618732	0.539984	0.954661
O155	O	0.023980	0.039958	0.454946
O156	O	0.523980	0.539958	0.954946
O157	O	0.064123	0.039990	0.564403
O158	O	0.564123	0.539990	1.064403
O159	O	0.055392	-0.054179	0.486321
O160	O	0.555392	0.445821	0.986321
O161	O	0.150144	-0.054153	0.486036
O162	O	0.650144	0.445847	0.986036
O163	O	0.000784	-0.054173	0.596063
O164	O	0.500784	0.445827	1.096063
Cu165	Cu	0.078332	-0.062759	0.543914
Cu166	Cu	0.578332	0.437241	1.043914
Cu167	Cu	0.041183	0.048570	0.506810
Cu168	Cu	0.541183	0.548570	1.006810
O169	O	0.095535	-0.054147	0.595778
O170	O	0.595535	0.445853	1.095778
N171	N	0.015053	0.126872	0.480710
N172	N	0.515053	0.626872	0.980710
N173	N	0.104760	-0.540096	0.968910
N174	N	0.604760	-0.040096	1.468910
O175	O	0.099447	-0.675167	1.149923
O176	O	0.599447	-0.175167	1.649923
O177	O	-0.010552	-0.525757	1.149951
O178	O	0.489448	-0.025757	1.649951
O179	O	-0.010297	-0.620493	1.149918
O180	O	0.489703	-0.120493	1.649918
O181	O	0.099192	-0.580431	1.149956
O182	O	0.599192	-0.080431	1.649956
O183	O	0.021064	-0.589100	1.055785
O184	O	0.521064	-0.089100	1.555785
O185	O	0.020809	-0.494365	1.055818
O186	O	0.520809	0.005635	1.555818
O187	O	0.130808	-0.643774	1.055790
O188	O	0.630808	-0.143774	1.555790
Cu189	Cu	0.078672	-0.566203	1.047209
Cu190	Cu	0.578672	-0.066203	1.547209
Cu191	Cu	0.041584	-0.603328	1.158532
Cu192	Cu	0.541584	-0.103328	1.658532
O193	O	0.130553	-0.549038	1.055823
O194	O	0.630553	-0.049038	1.555823
N195	N	0.015495	-0.629442	1.236831
N196	N	0.515495	-0.129442	1.736831
C197	C	0.036087	-0.491140	0.455465
C198	C	0.536087	0.008860	0.955465
C199	C	0.153325	-0.608283	0.455364
C200	C	0.653325	-0.108283	0.955364
C201	C	0.083488	-0.678322	0.595370
C202	C	0.583488	-0.178322	1.095370
C203	C	-0.033750	-0.561180	0.595470
C204	C	0.466250	-0.061180	1.095470
C205	C	0.637601	-0.654732	0.618548
C206	C	1.137601	-0.154732	1.118548
C207	C	0.637509	-0.654422	0.501245
C208	C	1.137509	-0.154422	1.001245
C209	C	0.637362	-0.514403	0.431560
C210	C	1.137362	-0.014403	0.931560
C211	C	0.637458	-0.514713	0.548862
C212	C	1.137458	-0.014713	1.048862
C213	C	0.153215	-0.006966	0.455158
C214	C	0.653215	0.493034	0.955158
C215	C	0.035916	-0.007114	0.455550
C216	C	0.535916	0.492886	0.955550
C217	C	-0.033739	-0.007106	0.595527
C218	C	0.466261	0.492894	1.095527
C219	C	0.083600	-0.007076	0.595174
C220	C	0.583600	0.492924	1.095174
C221	C	-0.010020	-0.491238	1.102888
C222	C	0.489980	0.008762	1.602888
C223	C	-0.009698	-0.608550	1.102828
C224	C	0.490302	-0.108550	1.602828
C225	C	0.130276	-0.678293	1.102853
C226	C	0.630276	-0.178293	1.602853
C227	C	0.129961	-0.560974	1.102892
C228	C	0.629961	-0.060974	1.602892
H229	H	0.054276	-0.458811	0.856808
H230	H	0.554276	0.041189	1.356808
O231	O	0.176018	-0.735136	1.102853
O232	O	0.676018	-0.235136	1.602853
H233	H	0.186390	-0.743174	1.064483
H234	H	0.686390	-0.243174	1.564483
H235	H	0.196241	-0.616742	0.420869
H236	H	0.696241	-0.116742	0.920869
H237	H	0.021552	-0.754553	0.487300
H238	H	0.521552	-0.254553	0.987300
H239	H	0.092017	-0.721269	0.629819
H240	H	0.592017	-0.221269	1.129819
H241	H	-0.076669	-0.552723	0.629962
H242	H	0.423331	-0.052723	1.129962
H243	H	0.185713	-0.253197	0.519589
H244	H	0.685713	0.246803	1.019589
O245	O	-0.090559	-0.007101	0.641283
O246	O	0.409441	0.492899	1.141283
H247	H	-0.118334	-0.007104	0.625292
H248	H	0.381666	0.492896	1.125292
O249	O	0.094981	-0.007074	0.640732
O250	O	0.594981	0.492926	1.140732
H251	H	0.138775	-0.007072	0.624530
H252	H	0.638775	0.492928	1.124530
O253	O	0.209927	-0.006688	0.409283
O254	O	0.709927	0.493312	0.909283
H255	H	0.203902	0.031733	0.371809
H256	H	0.703902	0.531733	0.871809
H257	H	0.027560	-0.448192	0.421017
H258	H	0.527560	0.051808	0.921017
H259	H	-0.223743	-0.586821	0.390905
H260	H	0.276257	-0.086821	0.890905
H261	H	0.637300	-0.479859	0.388668
H262	H	1.137300	0.020141	0.888668
H263	H	0.637649	-0.689271	0.661445
H264	H	1.137649	-0.189271	1.161445
H265	H	0.229870	-0.546579	0.856706
H266	H	0.729870	-0.046579	1.356706
H267	H	0.637450	-0.480310	0.557440
H268	H	1.137450	0.019690	1.057440
H269	H	0.637525	-0.688829	0.492664
H270	H	1.137525	-0.188829	0.992664
H271	H	0.027318	-0.007118	0.421162
H272	H	0.527318	0.492882	0.921162
H273	H	-0.044554	-0.448327	1.102896
H274	H	0.455446	0.051673	1.602896
H275	H	0.164358	-0.552401	1.102897
H276	H	0.664358	-0.052401	1.602897
O277	O	0.003130	-0.490882	0.972136
O278	O	0.503130	0.009118	1.472136
H279	H	-0.020352	-0.463863	0.941597
H280	H	0.479648	0.036137	1.441597
O281	O	0.204297	-0.591436	0.972028
O282	O	0.704297	-0.091436	1.472028
H283	H	0.248109	-0.598063	0.941454
H284	H	0.748109	-0.098063	1.441454
O285	O	-0.055239	-0.619879	1.102750
O286	O	0.444761	-0.119879	1.602750
H287	H	-0.065511	-0.655963	1.141092
H288	H	0.434489	-0.155963	1.641092
O289	O	0.043967	-0.449791	0.660299
O290	O	0.543967	0.050209	1.160299
H291	H	0.000139	-0.443160	0.666950
H292	H	0.500139	0.056840	1.166950
H293	H	0.193817	-0.582360	0.527624
H294	H	0.693817	-0.082360	1.027624
O295	O	0.002891	-0.490843	0.619245
O296	O	0.502891	0.009157	1.119245
H297	H	-0.016493	-0.506799	0.665962
H298	H	0.483507	-0.006799	1.165962
O299	O	0.245064	-0.550309	0.559648
O300	O	0.745064	-0.050309	1.059648
H301	H	0.264446	-0.534367	0.512930
H302	H	0.764446	-0.034367	1.012930
O303	O	0.383577	-0.599666	0.647848
O304	O	0.883577	-0.099666	1.147848
H305	H	0.394982	-0.631359	0.686300
H306	H	0.894982	-0.131359	1.186300
O307	O	0.506720	-0.640707	0.606765
O308	O	1.006720	-0.140707	1.106765
H309	H	0.495330	-0.654997	0.585846
H310	H	0.995330	-0.154997	1.085846
O311	O	0.506676	-0.441435	0.530764
O312	O	1.006676	0.058565	1.030764
H313	H	0.476115	-0.397919	0.528244
H314	H	0.976115	0.102081	1.028244
H315	H	0.391352	-0.415667	0.574082
H316	H	0.891352	0.084333	1.074082
H317	H	0.062174	-0.145744	0.659359
H318	H	0.562174	0.354256	1.159359
O319	O	0.153609	-0.137861	0.468397
O320	O	0.653609	0.362139	0.968397
H321	H	0.180613	-0.168409	0.444928
H322	H	0.680613	0.331591	0.944928
H323	H	-0.029909	-0.543201	0.241439
H324	H	0.470091	-0.043201	0.741439
O325	O	0.094192	-0.261078	0.710551
O326	O	0.594192	0.238922	1.210551
H327	H	0.067167	-0.230528	0.734018
H328	H	0.567167	0.269472	1.234018
H329	H	0.057785	-0.718806	0.241554
H330	H	0.557785	-0.218806	0.741554
O331	O	-0.074917	-0.568779	0.356753
O332	O	0.425083	-0.068779	0.856753
H333	H	-0.081486	-0.524963	0.326175
H334	H	0.418514	-0.024963	0.826175
H335	H	0.021795	-0.754566	0.349042
H336	H	0.521795	-0.254566	0.849042
H337	H	-0.065985	-0.578958	0.399332
H338	H	0.434015	-0.078958	0.899332
H339	H	-0.030233	-0.543188	0.435308
H340	H	0.469767	-0.043188	0.935308
H341	H	0.057315	-0.718782	0.523258
H342	H	0.557315	-0.218782	1.023258
H343	H	-0.109200	-0.760870	0.476275
H344	H	0.390800	-0.260870	0.976275
O345	O	0.074801	-0.753248	0.402836
O346	O	0.574801	-0.253248	0.902836
H347	H	0.118292	-0.783845	0.400393
H348	H	0.618292	-0.283845	0.900393
H349	H	-0.073458	-0.868361	0.512142
H350	H	0.426542	-0.368361	1.012142
O351	O	0.115754	-0.876420	0.443945
O352	O	0.615754	-0.376420	0.943945
H353	H	0.138929	-0.845903	0.421090
H354	H	0.638929	-0.345903	0.921090
H355	H	-0.116569	-0.710512	0.530934
H356	H	0.383431	-0.210512	1.030934
O357	O	-0.231918	-0.678319	0.581962
O358	O	0.268082	-0.178319	1.081962
H359	H	-0.201425	-0.705356	0.605497
H360	H	0.298575	-0.205356	1.105497
H361	H	-0.116252	-0.622767	0.355267
H362	H	0.383748	-0.122767	0.855267
