data_functionalizedCrystal
_audit_creation_method	'MofGen! by Chris Wilmer'
_symmetry_space_group_name_H-M	'P1'
_symmetry_Int_Tables_number	1
_symmetry_cell_setting	triclinic
loop_
_symmetry_equiv_pos_as_xyz
  x,y,z
_cell_length_a	17.699083
_cell_length_b	16.053802
_cell_length_c	17.699083
_cell_angle_alpha	87.440590
_cell_angle_beta	83.283015
_cell_angle_gamma	92.569971
loop_
_atom_site_label
_atom_site_type_symbol
_atom_site_fract_x
_atom_site_fract_y
_atom_site_fract_z
O1	O	1.007269	0.069313	0.092524
O2	O	1.507269	0.569313	0.592524
O3	O	0.786892	0.069341	0.104975
O4	O	1.286892	0.569341	0.604975
O5	O	0.903307	0.069319	-0.011439
O6	O	1.403307	0.569319	0.488561
O7	O	0.890855	0.069335	0.208938
O8	O	1.390855	0.569335	0.708938
O9	O	0.896899	-0.069539	-0.005058
O10	O	1.396899	0.430461	0.494942
O11	O	0.780484	-0.069517	0.111357
O12	O	1.280484	0.430483	0.611357
O13	O	1.000862	-0.069544	0.098905
O14	O	1.500862	0.430456	0.598905
Zn15	Zn	0.889656	-0.091577	0.106144
Zn16	Zn	1.389656	0.408423	0.606144
Zn17	Zn	0.898098	0.091374	0.097736
Zn18	Zn	1.398098	0.591374	0.597736
O19	O	0.884447	-0.069522	0.215320
O20	O	1.384447	0.430478	0.715320
C21	C	0.755492	-0.000084	0.107720
C22	C	1.255492	0.499916	0.607720
C23	C	0.671474	-0.000074	0.106380
C24	C	1.171474	0.499926	0.606380
N25	N	0.883899	-0.216436	0.111882
N26	N	1.383899	0.283564	0.611882
C27	C	0.622853	-0.000069	0.174714
C28	C	1.122853	0.499931	0.674714
C29	C	0.543909	-0.000080	0.173452
C30	C	1.043909	0.499920	0.673452
C31	C	0.513588	-0.000090	0.103856
C32	C	1.013588	0.499910	0.603856
C33	C	0.562215	-0.000097	0.035518
C34	C	1.062215	0.499903	0.535518
C35	C	0.641157	-0.000092	0.036780
C36	C	1.141157	0.499908	0.536780
C37	C	0.243851	-0.000118	0.030423
C38	C	0.743851	0.499882	0.530423
C39	C	0.164903	-0.000121	0.029166
C40	C	0.664903	0.499879	0.529166
C41	C	0.146603	-0.000106	0.167095
C42	C	0.646603	0.499894	0.667095
C43	C	0.225545	-0.000101	0.168358
C44	C	0.725545	0.499899	0.668358
C45	C	0.274165	-0.000113	0.100020
C46	C	0.774165	0.499887	0.600020
C47	C	0.359765	-0.000103	0.101389
C48	C	0.859765	0.499897	0.601389
C49	C	0.427990	-0.000094	0.102486
C50	C	0.927990	0.499906	0.602486
C51	C	0.933452	-0.260140	0.062365
C52	C	1.433452	0.239860	0.562365
C53	C	0.929432	-0.347546	0.066386
C54	C	1.429432	0.152454	0.566386
C55	C	0.875864	-0.391247	0.119927
C56	C	1.375864	0.108753	0.619927
C57	C	0.826306	-0.347537	0.169447
C58	C	1.326306	0.152463	0.669447
C59	C	0.830322	-0.260133	0.165422
C60	C	1.330322	0.239867	0.665422
C61	C	0.858319	-0.652653	0.137487
C62	C	1.358319	-0.152653	0.637487
C63	C	0.854308	-0.740064	0.141510
C64	C	1.354308	-0.240064	0.641510
C65	C	0.957434	-0.740066	0.038447
C66	C	1.457434	-0.240066	0.538447
C67	C	0.961449	-0.652660	0.034430
C68	C	1.461449	-0.152660	0.534430
C69	C	0.911888	-0.608958	0.083947
C70	C	1.411888	-0.108958	0.583947
N71	N	0.871755	-0.480590	0.124040
N72	N	1.371755	0.019410	0.624040
N73	N	0.915994	-0.519617	0.079830
N74	N	1.415994	-0.019617	0.579830
C75	C	1.032262	-0.000117	0.096161
C76	C	1.532262	0.499883	0.596161
C77	C	1.116280	-0.000122	0.097500
C78	C	1.616280	0.499878	0.597500
C79	C	0.899657	-0.000110	-0.036445
C80	C	1.399657	0.499890	0.463555
C81	C	0.898318	-0.000110	-0.120464
C82	C	1.398318	0.499890	0.379536
N83	N	0.903860	0.216233	0.091993
N84	N	1.403860	0.716233	0.591993
C85	C	0.966651	-0.000120	-0.169084
C86	C	1.466651	0.499880	0.330916
C87	C	0.965389	-0.000112	-0.248028
C88	C	1.465389	0.499888	0.251972
C89	C	0.895793	-0.000101	-0.278349
C90	C	1.395793	0.499899	0.221651
C91	C	0.827455	-0.000089	-0.229722
C92	C	1.327455	0.499911	0.270278
C93	C	0.828718	-0.000090	-0.150781
C94	C	1.328718	0.499910	0.349219
C95	C	0.822360	-0.000081	-0.548086
C96	C	1.322360	0.499919	-0.048086
C97	C	0.821102	-0.000082	-0.627034
C98	C	1.321102	0.499918	-0.127034
C99	C	0.959031	-0.000103	-0.645333
C100	C	1.459031	0.499897	-0.145333
C101	C	0.960294	-0.000105	-0.566391
C102	C	1.460294	0.499895	-0.066391
C103	C	0.891957	-0.000088	-0.517772
C104	C	1.391957	0.499912	-0.017772
C105	C	0.893326	-0.000095	-0.432172
C106	C	1.393326	0.499905	0.067828
C107	C	0.894423	-0.000100	-0.363947
C108	C	1.394423	0.499900	0.136053
C109	C	0.888097	-0.000092	0.240326
C110	C	1.388097	0.499908	0.740326
C111	C	0.889436	-0.000086	0.324344
C112	C	1.389436	0.499914	0.824344
H113	H	0.504325	-0.000075	0.229096
H114	H	1.004325	0.499925	0.729096
C115	C	0.528867	-0.000107	-0.041039
C116	C	1.028867	0.499893	0.458961
H117	H	0.569132	-0.000116	-0.081554
H118	H	1.069132	0.499884	0.418446
H119	H	0.500681	0.048314	-0.046624
H120	H	1.000681	0.548314	0.453376
H121	H	0.496225	-0.048537	-0.042172
H122	H	0.996225	0.451463	0.457828
H123	H	0.810683	-0.775641	0.185113
H124	H	1.310683	-0.275641	0.685113
H125	H	0.140219	-0.000130	-0.027511
H126	H	0.640219	0.499870	0.472489
C127	C	0.258895	-0.000094	0.244913
C128	C	0.758895	0.499906	0.744913
H129	H	0.218630	-0.000101	0.285431
H130	H	0.718630	0.499899	0.785431
H131	H	0.291539	0.048329	0.246050
H132	H	0.791539	0.548329	0.746050
H133	H	0.287079	-0.048523	0.250494
H134	H	0.787079	0.451477	0.750494
C135	C	0.803811	-0.604592	0.191959
C136	C	1.303811	-0.104592	0.691959
H137	H	0.771340	-0.643139	0.224428
H138	H	1.271340	-0.143139	0.724428
H139	H	0.773921	-0.570505	0.163207
H140	H	1.273921	-0.070505	0.663207
H141	H	0.832548	-0.570487	0.221865
H142	H	1.332548	-0.070487	0.721865
H143	H	0.680744	-0.000096	-0.018864
H144	H	1.180744	0.499904	0.481136
H145	H	0.107007	-0.000101	0.222739
H146	H	0.607007	0.499899	0.722739
C147	C	0.297323	-0.000125	-0.044745
C148	C	0.797323	0.499875	0.455255
H149	H	0.267956	-0.000123	-0.086373
H150	H	0.767956	0.499877	0.413627
H151	H	0.326270	-0.048547	-0.044897
H152	H	0.826270	0.451453	0.455103
H153	H	0.330727	0.048304	-0.049348
H154	H	0.830727	0.548304	0.450652
H155	H	0.997783	-0.775656	-0.001867
H156	H	1.497783	-0.275656	0.498133
C157	C	0.744544	-0.000059	-0.660386
C158	C	1.244544	0.499941	-0.160386
H159	H	0.704025	-0.000040	-0.620125
H160	H	1.204025	0.499960	-0.120125
H161	H	0.738944	-0.048479	-0.688579
H162	H	1.238944	0.451521	-0.188579
H163	H	0.743430	0.048372	-0.693024
H164	H	1.243430	0.548372	-0.193024
H165	H	1.016966	-0.000118	-0.541708
H166	H	1.516966	0.499882	-0.041708
C167	C	0.750899	-0.000070	-0.263070
C168	C	1.250899	0.499930	0.236930
H169	H	0.710384	-0.000055	-0.222806
H170	H	1.210384	0.499945	0.277194
H171	H	0.745300	-0.048490	-0.291264
H172	H	1.245300	0.451510	0.208736
H173	H	0.749779	0.048362	-0.295706
H174	H	1.249779	0.548362	0.204294
C175	C	0.992377	-0.212076	0.003467
C176	C	1.492377	0.287924	0.503467
H177	H	1.021308	-0.250626	-0.025452
H178	H	1.521308	0.249374	0.474548
H179	H	1.025399	-0.177968	0.029081
H180	H	1.525399	0.322032	0.529081
H181	H	0.966772	-0.177992	-0.029578
H182	H	1.466772	0.322008	0.470422
H183	H	0.969781	-0.383128	0.026065
H184	H	1.469781	0.116872	0.526065
H185	H	1.005069	-0.617080	-0.009168
H186	H	1.505069	-0.117080	0.490832
C187	C	0.767382	-0.395606	0.228343
C188	C	1.267382	0.104394	0.728343
H189	H	0.772092	-0.453921	0.223654
H190	H	1.272092	0.046079	0.723654
H191	H	0.717545	-0.381293	0.219529
H192	H	1.217545	0.118707	0.719529
H193	H	0.776171	-0.381268	0.278188
H194	H	1.276171	0.118732	0.778188
H195	H	0.789970	-0.224551	0.205743
H196	H	1.289970	0.275449	0.705743
C197	C	1.034205	-0.000112	-0.698814
C198	C	1.534205	0.499888	-0.198814
H199	H	1.075832	-0.000129	-0.669447
H200	H	1.575832	0.499871	-0.169447
H201	H	1.038819	0.048311	-0.732211
H202	H	1.538819	0.548311	-0.232211
H203	H	1.034343	-0.048540	-0.727766
H204	H	1.534343	0.451460	-0.227766
C205	C	0.747191	-0.000078	-0.494614
C206	C	1.247191	0.499922	0.005386
H207	H	0.705564	-0.000082	-0.523980
H208	H	1.205564	0.499918	-0.023980
H209	H	0.747044	0.048343	-0.465658
H210	H	1.247044	0.548343	0.034342
H211	H	0.742585	-0.048509	-0.461219
H212	H	1.242585	0.451491	0.038781
C213	C	1.043205	-0.000135	-0.135734
C214	C	1.543205	0.499865	0.364266
H215	H	1.034173	-0.000143	-0.081755
H216	H	1.534173	0.499857	0.418245
H217	H	1.073572	0.048283	-0.154653
H218	H	1.573572	0.548283	0.345347
H219	H	1.069097	-0.048568	-0.150211
H220	H	1.569097	0.451432	0.349789
C221	C	0.656200	-0.000058	0.251270
C222	C	1.156200	0.499942	0.751270
H223	H	0.615933	-0.000064	0.291786
H224	H	1.115933	0.499936	0.791786
H225	H	0.688842	0.048366	0.252407
H226	H	1.188842	0.548366	0.752407
H227	H	0.684386	-0.048485	0.256855
H228	H	1.184386	0.451515	0.756855
C229	C	1.040555	-0.000131	-0.301507
C230	C	1.540555	0.499869	0.198493
H231	H	1.082183	-0.000151	-0.272142
H232	H	1.582183	0.499849	0.227858
H233	H	1.045171	0.048291	-0.334906
H234	H	1.545171	0.548291	0.165094
H235	H	1.040688	-0.048561	-0.330458
H236	H	1.540688	0.451439	0.169542
C237	C	0.753552	-0.000082	-0.097298
C238	C	1.253552	0.499918	0.402702
H239	H	0.711921	-0.000082	-0.126661
H240	H	1.211921	0.499918	0.373339
H241	H	0.753413	0.048341	-0.068345
H242	H	1.253413	0.548341	0.431655
H243	H	0.748942	-0.048510	-0.063900
H244	H	1.248942	0.451490	0.436100
