data_functionalizedCrystal
_audit_creation_method	'MofGen! by Chris Wilmer'
_symmetry_space_group_name_H-M	'P1'
_symmetry_Int_Tables_number	1
_symmetry_cell_setting	triclinic
loop_
_symmetry_equiv_pos_as_xyz
  x,y,z
_cell_length_a	18.050589
_cell_length_b	18.050591
_cell_length_c	10.686551
_cell_angle_alpha	85.593335
_cell_angle_beta	94.403861
_cell_angle_gamma	89.978696
loop_
_atom_site_label
_atom_site_type_symbol
_atom_site_fract_x
_atom_site_fract_y
_atom_site_fract_z
Zn1	Zn	-0.263514	-1.167600	0.713839
Zn2	Zn	-0.397254	-1.157961	0.502837
Zn3	Zn	-0.273068	-1.033869	0.502812
Zn4	Zn	-0.387656	-1.043364	0.713751
O5	O	-0.330373	-1.100698	0.608310
O6	O	-0.281273	-1.270248	0.685896
O7	O	-0.388795	-1.133492	0.326250
O8	O	-0.167875	-1.051669	0.530831
O9	O	-0.379531	-1.263167	0.530874
O10	O	-0.160856	-1.149921	0.685872
O11	O	-0.297557	-1.042322	0.326231
O12	O	-0.288250	-0.931201	0.530746
O13	O	-0.363173	-1.067851	0.890346
O14	O	-0.372437	-0.938177	0.685722
O15	O	-0.271967	-1.159128	0.890411
O16	O	-0.499906	-1.142699	0.530789
O17	O	-0.492855	-1.058505	0.685747
C18	C	-0.330339	-0.907742	0.608222
C19	C	-0.330341	-0.825196	0.608215
C20	C	-0.284485	-0.621939	0.524115
C21	C	-0.353624	-0.571114	0.493065
C22	C	-0.330354	-0.674068	0.608258
C23	C	-0.261231	-0.577810	0.639291
C24	C	-0.330361	-0.528085	0.608297
C25	C	-0.399532	-0.624327	0.577148
C26	C	-0.307091	-0.631031	0.723428
C27	C	-0.376276	-0.580230	0.692422
C28	C	-0.330350	-0.758165	0.608232
C29	C	-0.330373	-0.443989	0.608324
C30	C	-0.523326	-1.100608	0.608289
C31	C	-0.605870	-1.100639	0.608322
C32	C	-0.801515	-1.054901	0.692558
C33	C	-0.856161	-1.031592	0.577406
C34	C	-0.757000	-1.100713	0.608338
C35	C	-0.849434	-1.124059	0.723503
C36	C	-0.902984	-1.100783	0.608364
C37	C	-0.810562	-1.077365	0.493125
C38	C	-0.803827	-1.169867	0.639300
C39	C	-0.858455	-1.146580	0.524069
C40	C	-0.672902	-1.100670	0.608325
C41	C	-0.987080	-1.100825	0.608365
C42	C	-0.136665	-1.100811	0.608358
C43	C	-0.054118	-1.100859	0.608379
C44	C	-0.315433	-1.115624	0.937445
C45	C	-0.309067	-1.121984	1.077703
C46	C	-0.330395	-0.294407	0.608375
C47	C	-0.330375	-0.376951	0.608345
C48	C	-0.345201	-1.085874	0.280455
C49	C	-0.351358	-1.079657	0.140198
H50	H	-0.202782	-0.557288	0.665479
C51	C	-0.887156	-0.952625	0.542033
N52	N	-0.910499	-0.893147	0.515397
C53	C	-0.767905	-1.002475	0.788634
N54	N	-0.742587	-0.962986	0.860990
C55	C	-0.772794	-1.248809	0.674733
N56	N	-0.749414	-1.308266	0.701438
H57	H	-0.392437	-1.038556	1.086401
C58	C	-0.891889	-1.198951	0.427757
N59	N	-0.917074	-1.238392	0.355211
H60	H	-0.793406	-1.057579	0.395715
C61	C	-0.253568	-1.177517	1.150383
N62	N	-0.211765	-1.219342	1.205128
C63	C	-0.232153	-0.646848	0.427890
N64	N	-0.192741	-0.665612	0.355411
C65	C	-0.478537	-0.651865	0.541549
N66	N	-0.538041	-0.672608	0.514731
C67	C	-0.380213	-0.535786	0.361512
N68	N	-0.400233	-0.509178	0.262424
C69	C	-0.428748	-0.555499	0.788569
N70	N	-0.468273	-0.536867	0.860979
H71	H	-0.866681	-1.143777	0.820887
H72	H	-0.287388	-0.657193	0.820779
