data_functionalizedCrystal
_audit_creation_method	'MofGen! by Chris Wilmer'
_symmetry_space_group_name_H-M	'P1'
_symmetry_Int_Tables_number	1
_symmetry_cell_setting	triclinic
loop_
_symmetry_equiv_pos_as_xyz
  x,y,z
_cell_length_a	10.654550
_cell_length_b	9.065218
_cell_length_c	8.140239
_cell_angle_alpha	89.998314
_cell_angle_beta	89.993751
_cell_angle_gamma	84.750394
loop_
_atom_site_label
_atom_site_type_symbol
_atom_site_fract_x
_atom_site_fract_y
_atom_site_fract_z
O1	O	1.668659	0.207232	-0.136742
O2	O	1.303259	0.226976	-0.136715
O3	O	1.493512	0.002421	-0.136725
O4	O	1.478406	0.431788	-0.136731
O5	O	1.493501	0.002418	0.136502
O6	O	1.303248	0.226974	0.136513
O7	O	1.668648	0.207230	0.136486
Zn8	Zn	1.485947	0.217101	0.179880
Zn9	Zn	1.485961	0.217105	-0.180109
O10	O	1.478395	0.431786	0.136496
C11	C	1.492055	-0.052559	-0.000114
C12	C	1.487714	-0.216378	-0.000122
C13	C	1.256450	0.225525	-0.000098
C14	C	1.116989	0.221188	-0.000087
C15	C	1.038027	0.353403	-0.000113
C16	C	0.906990	0.349319	-0.000141
C17	C	0.933890	0.080793	-0.000125
C18	C	1.064925	0.084879	-0.000085
C19	C	1.090092	0.489712	-0.000115
C20	C	1.011129	0.621938	-0.000143
C21	C	0.880092	0.617853	-0.000171
C22	C	0.828018	0.481543	-0.000172
C23	C	1.715457	0.208681	-0.000135
C24	C	1.854918	0.213018	-0.000156
C25	C	1.479852	0.486766	-0.000118
C26	C	1.484193	0.650585	-0.000122
N27	N	1.485946	0.217098	0.425562
N28	N	1.485971	0.217096	-0.425791
H29	H	1.196787	0.493053	-0.000100
H30	H	1.129218	-0.022782	-0.000069
H31	H	0.721318	0.478229	-0.000169
H32	H	0.815803	0.725518	-0.000177
C33	C	1.068405	0.771865	-0.000140
H34	H	1.157754	0.755365	-0.000135
H35	H	1.041385	0.826367	0.095130
H36	H	1.041423	0.826353	-0.095442
H37	H	0.891481	-0.030184	-0.000153
