data_functionalizedCrystal
_audit_creation_method	'MofGen! by Chris Wilmer'
_symmetry_space_group_name_H-M	'P1'
_symmetry_Int_Tables_number	1
_symmetry_cell_setting	triclinic
loop_
_symmetry_equiv_pos_as_xyz
  x,y,z
_cell_length_a	10.540535
_cell_length_b	10.654550
_cell_length_c	9.130313
_cell_angle_alpha	90.004369
_cell_angle_beta	89.998864
_cell_angle_gamma	95.495714
loop_
_atom_site_label
_atom_site_type_symbol
_atom_site_fract_x
_atom_site_fract_y
_atom_site_fract_z
O1	O	1.685825	-0.176965	-0.121719
O2	O	1.316405	-0.193647	-0.121739
O3	O	1.509609	-0.002569	-0.121719
O4	O	1.492622	-0.368042	-0.121739
O5	O	1.509596	-0.002564	0.121879
O6	O	1.316392	-0.193641	0.121860
O7	O	1.685812	-0.176959	0.121880
Cu8	Cu	1.501101	-0.185300	0.144112
Cu9	Cu	1.501117	-0.185306	-0.143972
O10	O	1.492608	-0.368037	0.121860
C11	C	1.269096	-0.192394	0.000058
C12	C	1.128149	-0.188655	0.000050
C13	C	1.091529	-0.049145	0.000063
C14	C	0.944930	-0.045210	0.000631
C15	C	0.918783	-0.252335	0.138900
C16	C	1.065547	-0.255304	0.139002
C17	C	1.065445	-0.257340	-0.138025
C18	C	0.919102	-0.250888	-0.139835
C19	C	1.508355	0.044232	0.000079
C20	C	1.504623	0.183676	0.000077
C21	C	1.733121	-0.178212	0.000080
C22	C	1.874068	-0.181951	0.000078
C23	C	1.493862	-0.414838	0.000058
C24	C	1.497594	-0.554282	0.000051
N25	N	1.501099	-0.185294	0.346735
C26	C	1.618378	0.263124	0.000082
C27	C	1.614865	0.394146	0.000064
C28	C	1.383830	0.366260	0.000041
C29	C	1.387345	0.235241	0.000049
N30	N	1.501128	-0.185302	-0.346594
C31	C	1.586679	-0.100721	0.423396
C32	C	1.586691	-0.100721	0.576732
C33	C	1.415540	-0.269879	0.576734
C34	C	1.415522	-0.269872	0.423400
H35	H	1.133522	0.004425	-0.099475
C36	C	1.680805	-0.007674	0.339069
N37	N	1.751700	0.062417	0.275558
H38	H	1.288346	0.408260	0.000021
H39	H	0.871390	-0.353015	0.143666
H40	H	1.345827	-0.338742	0.360979
H41	H	1.345867	-0.338742	0.639171
C42	C	1.262199	0.147842	0.000035
N43	N	1.167943	0.082014	0.000020
H44	H	1.713873	0.221145	0.000102
H45	H	0.915617	0.009835	-0.098862
C46	C	1.150241	0.022020	0.134373
N47	N	1.194460	0.075617	0.235541
H48	H	0.890523	-0.199667	-0.242538
C49	C	0.906502	0.028771	0.135891
N50	N	0.877559	0.084486	0.237782
C51	C	1.119836	-0.191074	0.279733
N52	N	1.160721	-0.142690	0.385732
C53	C	1.096614	-0.393466	0.146994
N54	N	1.120009	-0.497528	0.153024
H55	H	1.656376	-0.031853	0.639145
H56	H	0.887892	-0.204041	0.242615
H57	H	1.107926	-0.213810	-0.243285
C58	C	0.852827	-0.385729	-0.151725
N59	N	0.802912	-0.487298	-0.160667
H60	H	1.087593	-0.359985	-0.139373
H61	H	1.707496	0.458827	0.000066
