data_functionalizedCrystal
_audit_creation_method	'MofGen! by Chris Wilmer'
_symmetry_space_group_name_H-M	'P1'
_symmetry_Int_Tables_number	1
_symmetry_cell_setting	triclinic
loop_
_symmetry_equiv_pos_as_xyz
  x,y,z
_cell_length_a	15.711784
_cell_length_b	27.731996
_cell_length_c	14.750779
_cell_angle_alpha	77.461457
_cell_angle_beta	106.501624
_cell_angle_gamma	101.105094
loop_
_atom_site_label
_atom_site_type_symbol
_atom_site_fract_x
_atom_site_fract_y
_atom_site_fract_z
O1	O	1.124430	0.271635	-0.079926
O2	O	1.624430	0.771635	0.420074
O3	O	0.873273	0.234916	-0.079910
O4	O	1.373273	0.734916	0.420090
O5	O	1.006680	0.184291	-0.079898
O6	O	1.506680	0.684291	0.420102
O7	O	0.991022	0.322260	-0.079938
O8	O	1.491022	0.822260	0.420062
O9	O	1.044392	0.169983	0.079756
O10	O	1.544392	0.669983	0.579756
O11	O	0.910985	0.220607	0.079744
O12	O	1.410985	0.720607	0.579744
O13	O	1.162142	0.257326	0.079728
O14	O	1.662142	0.757326	0.579728
Zn15	Zn	1.042551	0.236695	0.105084
Zn16	Zn	1.542551	0.736695	0.605084
Zn17	Zn	0.992863	0.255547	-0.105266
Zn18	Zn	1.492863	0.755547	0.394734
O19	O	1.028735	0.307951	0.079716
O20	O	1.528735	0.807951	0.579716
C21	C	0.860007	0.221763	-0.000081
C22	C	1.360007	0.721763	0.499919
C23	C	0.764295	0.203884	-0.000074
C24	C	1.264295	0.703884	0.499926
C25	C	1.025216	0.159071	-0.000067
C26	C	1.525216	0.659071	0.499933
C27	C	1.024250	0.105239	-0.000058
C28	C	1.524250	0.605239	0.499942
C29	C	0.640274	0.136577	-0.000054
C30	C	1.140274	0.636577	0.499946
C31	C	0.730209	0.153382	-0.000060
C32	C	1.230209	0.653382	0.499940
C33	C	0.708452	0.237603	-0.000088
C34	C	1.208452	0.737603	0.499912
C35	C	0.618513	0.220805	-0.000087
C36	C	1.118513	0.720805	0.499913
C37	C	0.584431	0.170292	-0.000069
C38	C	1.084431	0.670292	0.499931
C39	C	0.562670	0.254520	-0.000102
C40	C	1.062670	0.754520	0.499898
C41	C	0.472740	0.237724	-0.000096
C42	C	0.972740	0.737724	0.499904
C43	C	0.438652	0.187212	-0.000074
C44	C	0.938652	0.687212	0.499926
C45	C	0.494501	0.153495	-0.000062
C46	C	0.994501	0.653495	0.499938
C47	C	0.596755	0.305033	-0.000113
C48	C	1.096755	0.805033	0.499887
C49	C	0.540912	0.338748	-0.000128
C50	C	1.040912	0.838748	0.499872
C51	C	0.450978	0.321952	-0.000129
C52	C	0.950978	0.821952	0.499871
C53	C	0.416890	0.271440	-0.000108
C54	C	0.916890	0.771440	0.499892
C55	C	0.395129	0.355669	-0.000141
C56	C	0.895129	0.855669	0.499859
C57	C	0.305199	0.338872	-0.000135
C58	C	0.805199	0.838872	0.499865
C59	C	0.326960	0.254644	-0.000101
C60	C	0.826960	0.754644	0.499899
C61	C	0.997590	-0.220776	-0.087131
C62	C	1.497590	0.279224	0.412869
C63	C	0.993910	-0.423099	-0.087148
C64	C	1.493910	0.076901	0.412852
O65	O	0.975914	-0.442629	-0.161162
O66	O	1.475914	0.057371	0.338838
N67	N	1.014010	-0.456198	-0.000122
N68	N	1.514010	0.043802	0.499878
C69	C	1.035026	-0.438715	0.086915
C70	C	1.535026	0.061285	0.586915
O71	O	1.052029	-0.471511	0.160936
O72	O	1.552029	0.028489	0.660936
C73	C	1.038700	-0.236394	0.086931
C74	C	1.538700	0.263606	0.586931
C75	C	1.018607	-0.203296	-0.000101
C76	C	1.518607	0.296704	0.499899
C77	C	0.977498	-0.187679	-0.174157
C78	C	1.477498	0.312321	0.325843
C79	C	0.978423	-0.137101	-0.174152
C80	C	1.478423	0.362899	0.325848
C81	C	0.999440	-0.119620	-0.087121
C82	C	1.499440	0.380380	0.412879
C83	C	1.019532	-0.152718	-0.000096
C84	C	1.519532	0.347282	0.499904
C85	C	1.059710	-0.218912	0.173967
C86	C	1.559710	0.281088	0.673967
C87	C	1.060625	-0.168329	0.173963
C88	C	1.560625	0.331671	0.673963
C89	C	1.040532	-0.135230	0.086931
C90	C	1.540532	0.364770	0.586931
C91	C	1.041475	-0.084660	0.086939
C92	C	1.541475	0.415340	0.586939
N93	N	1.021374	-0.051560	-0.000088
N94	N	1.521374	0.448440	0.499912
C95	C	1.000357	-0.069041	-0.087118
C96	C	1.500357	0.430959	0.412882
C97	C	1.033097	-0.544935	0.086901
C98	C	1.533097	-0.044935	0.586901
C99	C	1.032181	-0.595515	0.086897
C100	C	1.532181	-0.095515	0.586897
C101	C	0.991062	-0.579896	-0.087167
C102	C	1.491062	-0.079896	0.412833
C103	C	0.991986	-0.529314	-0.087162
C104	C	1.491986	-0.029314	0.412838
C105	C	1.012997	-0.511836	-0.000126
C106	C	1.512997	-0.011836	0.499874
C107	C	1.002302	0.037176	-0.087101
C108	C	1.502302	0.537176	0.412899
C109	C	1.003232	0.087758	-0.087088
C110	C	1.503232	0.587758	0.412912
C111	C	1.044346	0.072134	0.086975
C112	C	1.544346	0.572134	0.586975
C113	C	1.043420	0.021557	0.086963
C114	C	1.543420	0.521557	0.586963
C115	C	1.022393	0.004079	-0.000083
C116	C	1.522393	0.504079	0.499917
O117	O	1.059452	-0.065096	0.160914
O118	O	1.559452	0.434904	0.660914
O119	O	0.983337	-0.036238	-0.161128
O120	O	1.483337	0.463762	0.338872
C121	C	0.996665	-0.271354	-0.087137
C122	C	1.496665	0.228646	0.412863
C123	C	1.016757	-0.304452	-0.000111
C124	C	1.516757	0.195548	0.499889
C125	C	1.037774	-0.286971	0.086919
C126	C	1.537774	0.213029	0.586919
C127	C	1.015840	-0.355032	-0.000115
C128	C	1.515840	0.144968	0.499885
C129	C	0.994823	-0.372512	-0.087145
C130	C	1.494823	0.127488	0.412855
C131	C	0.974723	-0.339413	-0.174172
C132	C	1.474723	0.160587	0.325828
C133	C	0.975648	-0.288835	-0.174167
C134	C	1.475648	0.211165	0.325833
C135	C	1.057875	-0.320071	0.173945
C136	C	1.557875	0.179929	0.673945
C137	C	1.056949	-0.370648	0.173933
C138	C	1.556949	0.129352	0.673933
C139	C	1.035932	-0.388128	0.086903
C140	C	1.535932	0.111872	0.586903
C141	C	1.175407	0.270479	-0.000103
C142	C	1.675407	0.770479	0.499897
C143	C	1.271117	0.288359	-0.000116
C144	C	1.771117	0.788359	0.499884
C145	C	1.010199	0.333171	-0.000117
C146	C	1.510199	0.833171	0.499883
C147	C	1.011163	0.387004	-0.000133
C148	C	1.511163	0.887004	0.499867
N149	N	1.076468	0.223830	0.248643
N150	N	1.576468	0.723830	0.748643
N151	N	0.958953	0.268410	-0.248825
N152	N	1.458953	0.768410	0.251175
C153	C	0.864228	0.304320	0.600441
C154	C	1.364228	0.804320	1.100441
C155	C	0.888001	0.295309	0.700943
C156	C	1.388001	0.795309	1.200943
C157	C	1.006157	0.250509	0.700917
C158	C	1.506157	0.750509	1.200917
C159	C	0.982391	0.259514	0.600413
C160	C	1.482391	0.759514	1.100413
C161	C	0.911427	0.286420	0.550184
C162	C	1.411427	0.786420	1.050184
C163	C	1.029590	0.241615	0.550155
C164	C	1.529590	0.741615	1.050155
C165	C	1.005828	0.250622	0.449661
C166	C	1.505828	0.750622	0.949661
C167	C	0.934868	0.277528	0.399424
C168	C	1.434868	0.777528	0.899424
C169	C	0.887665	0.295427	0.449689
C170	C	1.387665	0.795427	0.949689
C171	C	1.100558	0.214712	0.600387
C172	C	1.600558	0.714712	1.100387
C173	C	1.147757	0.196813	0.550129
C174	C	1.647757	0.696813	1.050129
C175	C	1.123991	0.205816	0.449633
C176	C	1.623991	0.705816	0.949633
C177	C	1.053031	0.232722	0.399396
C178	C	1.553031	0.732722	0.899396
C179	C	1.171195	0.187917	0.399368
C180	C	1.671195	0.687917	0.899368
C181	C	1.147433	0.196924	0.298873
C182	C	1.647433	0.696924	0.798873
C183	C	1.029270	0.241729	0.298901
C184	C	1.529270	0.741729	0.798901
H185	H	0.299207	0.213512	-0.000097
H186	H	0.799207	0.713512	0.499903
F187	F	0.788691	0.332951	0.546981
F188	F	1.288691	0.832951	1.046981
H189	H	0.849561	0.309888	0.741858
H190	H	1.349561	0.809888	1.241858
F191	F	1.078342	-0.405869	0.266572
F192	F	1.578342	0.094131	0.766572
H193	H	0.959286	-0.261890	-0.245037
H194	H	1.459286	0.238110	0.254963
F195	F	0.744734	0.291361	-0.000108
F196	F	1.244734	0.791361	0.499892
H197	H	1.074991	-0.305844	0.244817
H198	H	1.574991	0.194156	0.744817
H199	H	0.986872	0.114706	-0.157963
H200	H	1.486872	0.614706	0.342037
H201	H	0.669983	0.318707	-0.000115
H202	H	1.169983	0.818707	0.499885
F203	F	1.081684	0.221876	0.754383
F204	F	1.581684	0.721876	1.254383
H205	H	0.775674	0.125923	-0.000051
H206	H	1.275674	0.625923	0.499949
F207	F	0.955126	-0.206274	-0.266794
F208	F	1.455126	0.293726	0.233206
F209	F	1.125847	0.205130	0.707344
F210	F	1.625847	0.705130	1.207344
H211	H	1.050213	-0.530710	0.157780
H212	H	1.550213	-0.030710	0.657780
H213	H	0.962058	-0.110156	-0.245022
H214	H	1.462058	0.389844	0.254978
H215	H	0.975623	-0.502369	-0.158031
H216	H	1.475623	-0.002369	0.341969
H217	H	0.985176	0.022953	-0.157981
H218	H	1.485176	0.522953	0.342019
F219	F	1.223283	0.168180	0.603595
F220	F	1.723283	0.668180	1.103595
F221	F	1.066715	0.090747	0.179594
F222	F	1.566715	0.590747	0.679594
H223	H	1.228980	0.166014	0.440278
H224	H	1.728980	0.666014	0.940278
F225	F	1.197670	0.177874	0.245384
F226	F	1.697670	0.677874	0.745384
H227	H	0.971477	0.263634	0.258002
H228	H	1.471477	0.763634	0.758002
H229	H	0.568674	0.379876	-0.000140
H230	H	1.068674	0.879876	0.499860
F231	F	1.082988	-0.149731	0.266602
F232	F	1.582988	0.350269	0.766602
F233	F	1.081092	-0.254128	0.266600
F234	F	1.581092	0.245872	0.766600
F235	F	0.431415	0.409426	-0.000151
F236	F	0.931415	0.909426	0.499849
H237	H	1.059789	-0.005393	0.157832
H238	H	1.559789	0.494607	0.657832
F239	F	0.245765	0.374755	-0.000144
F240	F	0.745765	0.874755	0.499856
F241	F	0.952359	-0.358025	-0.266796
F242	F	1.452359	0.141975	0.233204
H243	H	0.365426	0.173536	-0.000060
H244	H	0.865426	0.673536	0.499940
H245	H	0.973950	-0.594136	-0.158030
H246	H	1.473950	-0.094136	0.341970
H247	H	1.048555	-0.622459	0.157768
H248	H	1.548555	-0.122459	0.657768
H249	H	0.915525	0.284863	0.317595
H250	H	1.415525	0.784863	0.817595
F251	F	0.812128	0.324058	0.396228
F252	F	1.312128	0.824058	0.896228
H253	H	0.612521	0.095445	-0.000049
H254	H	1.112521	0.595445	0.499951
F255	F	0.458225	0.099733	-0.000042
F256	F	0.958225	0.599733	0.499958
