data_functionalizedCrystal
_audit_creation_method	'MofGen! by Chris Wilmer'
_symmetry_space_group_name_H-M	'P1'
_symmetry_Int_Tables_number	1
_symmetry_cell_setting	triclinic
loop_
_symmetry_equiv_pos_as_xyz
  x,y,z
_cell_length_a	23.532407
_cell_length_b	15.944551
_cell_length_c	14.421503
_cell_angle_alpha	89.996660
_cell_angle_beta	90.002238
_cell_angle_gamma	83.173708
loop_
_atom_site_label
_atom_site_type_symbol
_atom_site_fract_x
_atom_site_fract_y
_atom_site_fract_z
O1	O	-0.755658	-0.101953	-0.076998
O2	O	-0.589852	-0.116706	-0.077025
O3	O	-0.677283	0.012983	-0.077003
O4	O	-0.668227	-0.231642	-0.077021
O5	O	-0.677268	0.012964	0.077221
O6	O	-0.589837	-0.116726	0.077198
O7	O	-0.755643	-0.101972	0.077225
Cu8	Cu	-0.672739	-0.109351	0.091294
Cu9	Cu	-0.672756	-0.109328	-0.091094
O10	O	-0.668213	-0.231662	0.077203
C11	C	-0.676899	0.044265	0.000109
C12	C	-0.675772	0.137501	0.000110
C13	C	-0.568627	-0.116340	0.000083
C14	C	-0.505406	-0.115211	0.000073
C15	C	-0.776868	-0.102338	0.000115
C16	C	-0.840090	-0.103468	0.000119
C17	C	-0.106572	-0.184874	0.000109
C18	C	-0.047168	-0.183824	0.000115
O19	O	-0.010674	-0.248403	0.000144
N20	N	-0.024243	-0.106724	0.000119
C21	C	-0.060726	-0.030668	0.000127
O22	O	-0.035772	0.035009	0.000132
C23	C	-0.120129	-0.031718	0.000128
C24	C	-0.143051	-0.108823	0.000114
C25	C	-0.129494	-0.261973	0.000097
C26	C	-0.188894	-0.263022	0.000089
C27	C	-0.225373	-0.186971	0.000094
C28	C	-0.202451	-0.109872	0.000107
C29	C	-0.156611	0.044337	0.000143
C30	C	-0.216018	0.043281	0.000144
C31	C	-0.238939	-0.033825	0.000131
C32	C	-0.298329	-0.034871	0.000105
N33	N	-0.321254	-0.111971	0.000100
C34	C	-0.284776	-0.188022	0.000095
C35	C	0.064025	-0.028468	0.000127
C36	C	0.123427	-0.027417	0.000119
C37	C	0.136981	-0.180574	0.000109
C38	C	0.077578	-0.181624	0.000110
C39	C	0.041100	-0.105569	0.000123
C40	C	-0.409521	-0.190219	0.000079
C41	C	-0.468927	-0.191261	0.000067
C42	C	-0.482476	-0.038104	0.000083
C43	C	-0.423075	-0.037062	0.000089
C44	C	-0.386599	-0.113126	0.000090
O45	O	-0.334859	0.029673	0.000080
O46	O	-0.309738	-0.253687	0.000103
C47	C	-0.668596	-0.262943	0.000089
C48	C	-0.669723	-0.356179	0.000082
N49	N	-0.672731	-0.109366	0.219575
C50	C	-0.618885	0.351879	0.000087
C51	C	-0.645294	0.413109	0.076133
C52	C	-0.673733	0.308210	0.000102
C53	C	-0.645322	0.413111	-0.075919
C54	C	-0.671760	0.473106	0.000091
C55	C	-0.700158	0.368212	0.076211
C56	C	-0.700178	0.368208	-0.075910
C57	C	-0.726627	0.429421	0.000155
C58	C	-0.674869	0.213217	0.000109
C59	C	-0.670629	0.568097	0.000090
N60	N	-0.672769	-0.109306	-0.219375
C61	C	-0.632296	-0.169308	0.469218
C62	C	-0.683757	-0.185182	0.531028
C63	C	-0.672745	-0.109346	0.408736
C64	C	-0.621298	-0.093492	0.531020
C65	C	-0.672754	-0.109328	0.591458
C66	C	-0.724232	-0.125257	0.469185
C67	C	-0.661739	-0.033535	0.469172
C68	C	-0.713237	-0.049376	0.530954
C69	C	-0.672739	-0.109358	0.303475
C70	C	-0.672766	-0.109315	0.696717
H71	H	-0.487586	-0.254052	0.000056
H72	H	-0.598124	-0.220056	0.442111
F73	F	-0.521309	0.042829	0.000090
F74	F	-0.370708	-0.271175	0.000081
F75	F	-0.614965	0.439126	0.160157
F76	F	-0.559378	0.307842	0.000172
F77	F	-0.757999	0.016916	0.566168
H78	H	-0.723331	0.348409	0.140572
F79	F	-0.213281	-0.345089	0.000079
F80	F	-0.254837	0.124232	0.000160
H81	H	-0.772194	0.462964	0.000205
F82	F	-0.695936	-0.268969	0.566541
H83	H	-0.723363	0.348281	-0.140196
H84	H	-0.622122	0.433001	-0.140214
H85	H	-0.767753	-0.138736	0.442138
H86	H	-0.652405	0.030549	0.441981
H87	H	-0.099799	-0.323906	0.000096
F88	F	0.053189	-0.263689	0.000097
F89	F	-0.564425	-0.075973	0.566525
H90	H	0.166693	-0.242498	0.000109
F91	F	0.025207	0.052486	0.000132
F92	F	0.147815	0.054649	0.000113
F93	F	-0.132230	0.126405	0.000144
F94	F	-0.398680	0.045002	0.000104
