data_functionalizedCrystal
_audit_creation_method	'MofGen! by Chris Wilmer'
_symmetry_space_group_name_H-M	'P1'
_symmetry_Int_Tables_number	1
_symmetry_cell_setting	triclinic
loop_
_symmetry_equiv_pos_as_xyz
  x,y,z
_cell_length_a	10.723024
_cell_length_b	14.971486
_cell_length_c	14.048226
_cell_angle_alpha	89.997552
_cell_angle_beta	89.992150
_cell_angle_gamma	84.040999
loop_
_atom_site_label
_atom_site_type_symbol
_atom_site_fract_x
_atom_site_fract_y
_atom_site_fract_z
O1	O	-1.655885	-0.125450	0.079155
O2	O	-1.292607	-0.137458	0.079158
O3	O	-1.483982	-0.001306	0.079150
O4	O	-1.464509	-0.261602	0.079164
O5	O	-1.483952	-0.001309	-0.079172
O6	O	-1.292576	-0.137461	-0.079163
O7	O	-1.655854	-0.125453	-0.079166
Zn8	Zn	-1.474210	-0.131458	-0.104302
Zn9	Zn	-1.474251	-0.131454	0.104294
O10	O	-1.464478	-0.261605	-0.079158
C11	C	-1.246101	-0.136586	-0.000002
C12	C	-1.107574	-0.133971	-0.000001
C13	C	-1.483096	0.032022	-0.000011
C14	C	-1.480486	0.131333	-0.000010
C15	C	-1.702360	-0.126325	-0.000004
C16	C	-1.840887	-0.128940	0.000001
C17	C	-1.031795	-0.210155	0.000004
C18	C	-0.888620	-0.207454	0.000005
C19	C	-1.465364	-0.294933	0.000005
C20	C	-1.467974	-0.394244	0.000010
C21	C	-1.592914	0.187954	-0.000011
C22	C	-1.590455	0.281267	-0.000002
C23	C	-1.475566	0.317956	0.000003
C24	C	-1.363129	0.261327	0.000007
C25	C	-1.365590	0.168016	0.000004
C26	C	-1.358008	0.455817	0.000011
C27	C	-1.355546	0.549134	0.000012
C28	C	-1.582872	0.569068	0.000004
C29	C	-1.585333	0.475757	0.000002
C30	C	-1.472896	0.419134	0.000004
N31	N	-1.474191	-0.131460	-0.246662
C32	C	-1.559032	-0.071181	-0.703506
C33	C	-1.559021	-0.071187	-0.603848
C34	C	-1.474250	-0.131453	-0.554032
C35	C	-1.389493	-0.191722	-0.603879
C36	C	-1.389511	-0.191720	-0.703535
C37	C	-1.389458	-0.191722	-0.396165
C38	C	-1.389438	-0.191723	-0.296503
C39	C	-1.558968	-0.071189	-0.296478
C40	C	-1.558987	-0.071187	-0.396134
C41	C	-1.474228	-0.131455	-0.445974
N42	N	-1.474279	-0.131444	0.246654
H43	H	-1.072915	-0.277377	0.000002
C44	C	-1.221858	-0.310853	-0.386185
C45	C	-1.296279	-0.257962	-0.450952
H46	H	-1.164326	-0.351737	-0.420010
H47	H	-1.273827	-0.343379	-0.347310
H48	H	-1.176933	-0.273311	-0.347319
H49	H	-1.341212	-0.295504	-0.489812
H50	H	-1.244303	-0.225434	-0.489843
C51	C	-1.221921	-0.310850	-0.693556
C52	C	-1.296338	-0.257956	-0.758324
H53	H	-1.164396	-0.351739	-0.727382
H54	H	-1.273893	-0.343370	-0.654679
H55	H	-1.176987	-0.273311	-0.654695
H56	H	-1.341279	-0.295496	-0.797181
H57	H	-1.244359	-0.225434	-0.797218
C58	C	-0.978141	-0.036902	0.081387
C59	C	-1.052081	-0.043216	-0.000001
H60	H	-0.943893	0.019131	0.081388
H61	H	-0.912052	-0.084342	0.081381
H62	H	-1.028343	-0.041199	0.136590
H63	H	-1.001877	-0.038926	-0.055205
H64	H	-1.118179	0.004237	-0.000004
H65	H	-1.686470	0.158090	-0.000021
H66	H	-0.823506	-0.272673	0.000013
H67	H	-1.627982	-0.022117	-0.255892
C68	C	-1.815400	0.291597	-0.000032
C69	C	-1.714040	0.343506	-0.000015
H70	H	-1.891698	0.330023	-0.000046
H71	H	-1.811652	0.254788	0.055175
H72	H	-1.811600	0.254787	-0.055246
H73	H	-1.717834	0.380311	0.055204
H74	H	-1.717790	0.380330	-0.055226
C75	C	-1.585963	0.050383	-0.815571
C76	C	-1.652213	-0.004932	-0.758260
H77	H	-1.643494	0.091285	-0.849368
H78	H	-1.535501	0.014494	-0.859514
H79	H	-1.533979	0.082897	-0.776695
H80	H	-1.704190	-0.037451	-0.797138
H81	H	-1.702696	0.030962	-0.714312
H82	H	-1.628034	-0.022117	-0.563268
C83	C	-1.712023	0.685547	0.081409
C84	C	-1.706472	0.631299	0.000014
H85	H	-1.788330	0.723962	0.081413
H86	H	-1.643261	0.720752	0.081407
H87	H	-1.708263	0.648713	0.136607
H88	H	-1.710222	0.668133	-0.055185
H89	H	-1.775253	0.596091	0.000007
H90	H	-0.905993	-0.063717	0.000003
C91	C	-1.131089	0.520064	0.000057
C92	C	-1.229260	0.589466	0.000037
H93	H	-1.053126	0.544965	0.000082
H94	H	-1.136742	0.484089	-0.055154
H95	H	-1.136812	0.484078	0.055267
H96	H	-1.223542	0.625447	-0.055176
H97	H	-1.223604	0.625455	0.055254
C98	C	-1.172607	0.122293	0.081393
C99	C	-1.242005	0.105775	0.000005
H100	H	-1.096306	0.083871	0.081392
H101	H	-1.219725	0.111092	0.136591
H102	H	-1.154708	0.183118	0.081383
H103	H	-1.259912	0.044951	0.000019
H104	H	-1.194877	0.116969	-0.055207
C105	C	-1.726572	0.047949	-0.386105
C106	C	-1.652173	-0.004946	-0.450893
H107	H	-1.784108	0.088836	-0.419913
H108	H	-1.674588	0.080470	-0.347252
H109	H	-1.771492	0.010409	-0.347220
H110	H	-1.607245	0.032593	-0.489774
H111	H	-1.704163	-0.037470	-0.489762
H112	H	-1.320410	-0.240799	-0.255948
H113	H	-1.678886	0.445888	-0.000009
C114	C	-1.228901	0.339311	0.081400
C115	C	-1.234416	0.393575	0.000014
H116	H	-1.152600	0.300890	0.081399
H117	H	-1.297670	0.304113	0.081392
H118	H	-1.232674	0.376134	0.136604
H119	H	-1.230652	0.356752	-0.055192
H120	H	-1.165629	0.428777	0.000013
H121	H	-1.269584	0.291207	0.000017
H122	H	-1.320474	-0.240796	-0.563314
