data_functionalizedCrystal
_audit_creation_method	'MofGen! by Chris Wilmer'
_symmetry_space_group_name_H-M	'P1'
_symmetry_Int_Tables_number	1
_symmetry_cell_setting	triclinic
loop_
_symmetry_equiv_pos_as_xyz
  x,y,z
_cell_length_a	31.640172
_cell_length_b	12.970454
_cell_length_c	12.970454
_cell_angle_alpha	60.000396
_cell_angle_beta	90.003776
_cell_angle_gamma	59.998190
loop_
_atom_site_label
_atom_site_type_symbol
_atom_site_fract_x
_atom_site_fract_y
_atom_site_fract_z
Zr1	Zr	0.407184	1.128385	-0.135157
O2	O	0.339695	1.343494	-0.299801
O3	O	0.427873	0.913290	-0.084686
O4	O	0.427874	1.128378	-0.299774
O5	O	0.339694	1.128407	0.084953
O6	O	0.497431	1.128357	-0.299752
O7	O	0.339694	1.128406	-0.084713
O8	O	0.497429	0.743604	0.085001
O9	O	0.339695	1.513160	-0.299800
O10	O	0.488606	1.001741	-0.063143
O11	O	0.436696	1.001758	0.063461
O12	O	0.436697	1.254996	-0.189778
O13	O	0.384787	1.255012	-0.063174
Zr14	Zr	0.518119	1.128353	0.135477
Zr15	Zr	0.518119	1.128351	-0.135121
Zr16	Zr	0.407183	1.128387	0.135441
Zr17	Zr	0.407184	1.398983	-0.135155
Zr18	Zr	0.518118	0.857755	0.135475
O19	O	0.497430	1.343448	0.085006
O20	O	0.497431	1.343446	-0.299750
O21	O	0.339694	1.343496	0.084955
O22	O	0.585608	0.913244	0.300121
O23	O	0.585609	0.913242	-0.084635
O24	O	0.427872	0.913292	0.300070
O25	O	0.585609	1.128331	-0.084633
O26	O	0.497429	1.128360	0.300094
O27	O	0.427872	1.128381	0.300072
O28	O	0.585608	1.128332	0.085033
O29	O	0.427874	1.513133	-0.299771
O30	O	0.497428	0.743605	0.300091
O31	O	0.585607	0.743578	0.300120
O32	O	0.585608	0.743577	0.085030
O33	O	0.339695	1.513161	-0.084710
O34	O	0.427874	1.513134	-0.084681
O35	O	0.488605	1.001742	0.190098
O36	O	0.540515	1.001726	0.063494
O37	O	0.488607	1.254981	-0.063141
O38	O	0.436697	1.254997	0.063463
C39	C	0.323888	1.128412	0.000115
C40	C	0.276793	1.128426	0.000100
C41	C	0.462651	0.789893	0.000157
C42	C	0.462651	0.675017	0.000156
C43	C	0.462652	1.128367	-0.338318
C44	C	0.462653	1.128367	-0.453194
C45	C	0.011883	0.996159	0.066288
C46	C	-0.165102	0.996134	0.066313
O47	O	-0.164944	0.883705	0.122576
N48	N	-0.214328	1.128329	0.000209
C49	C	-0.219306	1.260540	-0.065899
O50	O	-0.265237	1.372980	-0.122113
C51	C	-0.042322	1.260564	-0.065916
C52	C	0.006903	1.128360	0.000182
C53	C	0.061106	0.863966	0.132381
C54	C	0.105349	0.863973	0.132369
C55	C	0.100370	0.996174	0.066263
C56	C	0.051147	1.128368	0.000169
C57	C	-0.047301	1.392774	-0.132016
C58	C	-0.003050	1.392768	-0.132012
C59	C	0.046176	1.260564	-0.065914
C60	C	0.090410	1.260576	-0.065949
N61	N	0.139636	1.128381	0.000154
C62	C	0.144616	0.996180	0.066260
C63	C	-0.312224	1.260518	-0.065888
C64	C	-0.356470	1.260513	-0.065886
C65	C	-0.302263	0.996106	0.066328
C66	C	-0.258016	0.996113	0.066318
C67	C	-0.262998	1.128323	0.000216
C68	C	0.237528	0.996206	0.066228
C69	C	0.281773	0.996225	0.066206
C70	C	0.227562	1.260631	-0.066003
C71	C	0.183320	1.260613	-0.065986
C72	C	0.188307	1.128388	0.000139
O73	O	0.090292	1.372946	-0.122172
O74	O	0.190550	0.883757	0.122489
C75	C	-0.032360	0.996151	0.066300
C76	C	-0.081583	1.128345	0.000207
C77	C	-0.086563	1.260546	-0.065899
C78	C	-0.125829	1.128339	0.000209
C79	C	-0.120850	0.996138	0.066315
C80	C	-0.071624	0.863943	0.132419
C81	C	-0.027381	0.863950	0.132406
C82	C	-0.135789	1.392741	-0.132003
C83	C	-0.180030	1.392723	-0.131986
C84	C	-0.175050	1.260522	-0.065880
C85	C	0.601415	1.128326	0.000205
C86	C	0.648510	1.128312	0.000220
C87	C	0.462652	1.466845	0.000163
C88	C	0.462652	1.581721	0.000164
C89	C	0.462650	1.128371	0.338637
C90	C	0.462650	1.128371	0.453514
C91	C	0.601414	0.789850	0.000202
C92	C	0.648509	0.674960	0.000217
C93	C	0.462650	0.789895	0.338635
C94	C	0.462649	0.675019	0.453510
C95	C	0.601413	0.789852	0.338680
C96	C	0.648508	0.674962	0.453570
C97	C	0.323889	1.466886	-0.338360
C98	C	0.276795	1.581776	-0.453250
C99	C	0.323889	1.466888	0.000118
C100	C	0.276794	1.581778	0.000103
C101	C	0.462653	1.466844	-0.338315
C102	C	0.462653	1.581719	-0.453190
C103	C	0.643529	0.621014	-0.065891
C104	C	0.687775	0.513077	-0.065903
C105	C	0.737001	0.459081	0.000201
C106	C	0.741980	0.513037	0.066311
C107	C	0.697734	0.620980	0.066315
C108	C	0.697725	0.621000	0.441438
C109	C	0.741979	0.513064	0.549380
C110	C	0.737016	0.459085	0.669452
C111	C	0.687793	0.513058	0.681581
C112	C	0.643540	0.620999	0.573641
C113	C	0.227578	1.635751	-0.441118
C114	C	0.183323	1.743721	-0.549060
C115	C	0.188287	1.797706	-0.669132
C116	C	0.237509	1.743726	-0.681261
C117	C	0.281763	1.635766	-0.573321
C118	C	0.281774	1.635735	0.066200
C119	C	0.237527	1.743702	0.066182
C120	C	0.188301	1.797702	0.000074
C121	C	0.183323	1.743740	-0.066031
C122	C	0.227568	1.635783	-0.066019
H123	H	0.321854	0.888564	0.120034
H124	H	0.145427	0.756319	0.186187
H125	H	0.223507	1.591855	-0.119840
H126	H	-0.067577	0.756300	0.186237
H127	H	0.773025	0.371187	0.000189
H128	H	0.241591	1.787619	0.120017
H129	H	0.701776	0.664934	0.343679
H130	H	0.223526	1.591802	-0.343359
H131	H	0.683711	0.469159	-0.119737
H132	H	0.241596	0.888536	0.120074
O133	O	0.135530	1.795943	-0.130141
C134	C	0.129849	1.680774	-0.081508
H135	H	0.169680	1.572783	-0.033117
H136	H	0.108713	1.679334	-0.010141
C137	C	0.049468	1.835427	-0.249593
C138	C	0.098389	1.702792	-0.190167
H139	H	0.030060	1.849011	-0.316616
H140	H	0.053294	1.913022	-0.282356
H141	H	0.031862	1.834211	-0.190108
H142	H	0.115997	1.704017	-0.249648
H143	H	0.094566	1.625198	-0.157417
H144	H	0.782066	0.469058	0.120130
H145	H	0.321852	1.591777	0.120041
H146	H	0.701796	0.664888	0.120155
H147	H	0.603467	0.664921	0.583537
H148	H	-0.396548	1.368167	-0.119725
H149	H	0.143249	1.787653	-0.539159
H150	H	0.683759	0.469092	0.779358
H151	H	0.241545	1.787695	-0.779037
O152	O	0.066042	0.735404	0.196618
C153	C	0.118980	0.618748	0.254971
H154	H	0.142566	0.657537	0.203118
H155	H	0.132023	0.578092	0.357564
C156	C	0.098356	0.446198	0.313857
C157	C	0.127325	0.493837	0.250164
H158	H	0.103505	0.369143	0.310898
H159	H	0.062691	0.524790	0.274548
H160	H	0.109229	0.412328	0.399346
H161	H	0.116448	0.527722	0.164674
H162	H	0.162989	0.415247	0.289459
H163	H	0.782054	0.469130	0.539481
H164	H	0.773054	0.371192	0.757334
O165	O	0.329533	1.583442	-0.585341
C166	C	0.324417	1.654273	-0.714469
H167	H	0.284924	1.698776	-0.772025
H168	H	0.328048	1.748009	-0.746268
C169	C	0.415780	1.490248	-0.664125
C170	C	0.367276	1.544896	-0.734816
H171	H	0.442219	1.422783	-0.676677
H172	H	0.419228	1.442530	-0.577128
H173	H	0.418798	1.568373	-0.690632
H174	H	0.364256	1.466774	-0.708297
H175	H	0.363829	1.592599	-0.821809
H176	H	0.152249	1.885613	-0.757014
H177	H	-0.217937	0.888460	0.120152
H178	H	0.152278	1.885608	0.000075
O179	O	0.135475	1.388945	-0.130023
C180	C	0.108269	1.396888	-0.045164
H181	H	0.125167	1.282111	0.041842
H182	H	0.111955	1.462124	-0.015604
C183	C	0.029986	1.613456	-0.216792
C184	C	0.050739	1.472484	-0.109935
H185	H	-0.005501	1.660093	-0.256746
H186	H	0.048316	1.608109	-0.273964
H187	H	0.033064	1.667801	-0.192143
H188	H	0.047667	1.418136	-0.134586
H189	H	0.032407	1.477823	-0.052768
H190	H	-0.298215	0.888462	0.120147
H191	H	-0.316289	1.368186	-0.119725
H192	H	-0.007112	1.500432	-0.185825
O193	O	-0.095073	1.521329	-0.196228
C194	C	-0.089967	1.637995	-0.254579
H195	H	-0.050474	1.599208	-0.202739
H196	H	-0.093605	1.678671	-0.357178
C197	C	-0.181331	1.810520	-0.313420
C198	C	-0.132826	1.762884	-0.249742
H199	H	-0.207769	1.887562	-0.310443
H200	H	-0.184771	1.731922	-0.274113
H201	H	-0.184355	1.844407	-0.398914
H202	H	-0.129800	1.728982	-0.164247
H203	H	-0.129386	1.841480	-0.289036
H204	H	0.223516	1.368266	-0.119829
H205	H	-0.220110	1.500387	-0.185823
O206	O	0.595753	0.673340	-0.130222
C207	C	0.600857	0.602541	-0.188542
H208	H	0.640344	0.558057	-0.201615
H209	H	0.597232	0.508794	-0.126609
C210	C	0.509489	0.766564	-0.302196
C211	C	0.557986	0.711940	-0.318261
H212	H	0.483043	0.834043	-0.382210
H213	H	0.506050	0.814261	-0.262901
H214	H	0.506475	0.688430	-0.250580
H215	H	0.561002	0.790071	-0.369862
H216	H	0.561425	0.664259	-0.357568
H217	H	0.012697	0.756296	0.186232
H218	H	-0.139851	1.500397	-0.185838
