data_functionalizedCrystal
_audit_creation_method	'MofGen! by Chris Wilmer'
_symmetry_space_group_name_H-M	'P1'
_symmetry_Int_Tables_number	1
_symmetry_cell_setting	triclinic
loop_
_symmetry_equiv_pos_as_xyz
  x,y,z
_cell_length_a	10.654550
_cell_length_b	15.995350
_cell_length_c	9.730223
_cell_angle_alpha	90.000899
_cell_angle_beta	89.996251
_cell_angle_gamma	83.988639
loop_
_atom_site_label
_atom_site_type_symbol
_atom_site_fract_x
_atom_site_fract_y
_atom_site_fract_z
O1	O	1.666298	0.117599	-0.114395
O2	O	1.300673	0.128803	-0.114373
O3	O	1.493480	0.001371	-0.114383
O4	O	1.473491	0.245031	-0.114385
O5	O	1.493478	0.001375	0.114197
O6	O	1.300671	0.128806	0.114207
O7	O	1.666295	0.117602	0.114185
Zn8	Zn	1.483483	0.123205	0.150488
Zn9	Zn	1.483486	0.123200	-0.150676
O10	O	1.473488	0.245034	0.114195
C11	C	1.253885	0.127982	-0.000080
C12	C	1.114473	0.125521	-0.000071
C13	C	1.492652	-0.029827	-0.000096
C14	C	1.490175	-0.122791	-0.000104
C15	C	1.034008	0.200551	-0.000092
C16	C	0.903017	0.198233	-0.000116
C17	C	0.932971	0.045849	-0.000104
C18	C	1.063959	0.048168	-0.000071
C19	C	1.084522	0.277904	-0.000093
C20	C	1.004055	0.352940	-0.000115
C21	C	0.873064	0.350622	-0.000138
C22	C	0.822541	0.273268	-0.000140
C23	C	1.481278	-0.460591	-0.000098
C24	C	1.343964	-0.413954	-0.000603
C25	C	1.346442	-0.317249	-0.000087
C26	C	1.485691	-0.293004	-0.000102
C27	C	1.553417	-0.333687	0.130422
C28	C	1.549968	-0.430342	0.130531
C29	C	1.552807	-0.430688	-0.129407
C30	C	1.552775	-0.333743	-0.131132
C31	C	1.488192	-0.198292	-0.000099
C32	C	1.478780	-0.555303	-0.000092
C33	C	1.713084	0.118423	-0.000111
C34	C	1.852495	0.120884	-0.000129
C35	C	1.474316	0.276232	-0.000095
C36	C	1.476793	0.369197	-0.000097
N37	N	1.483490	0.123207	0.356024
N38	N	1.483488	0.123191	-0.356212
C39	C	1.568886	0.066800	0.427946
C40	C	1.568883	0.066789	0.571829
C41	C	1.398083	0.179602	0.571856
C42	C	1.398081	0.179607	0.427976
C43	C	1.654295	0.010400	0.355994
C44	C	1.739700	-0.046012	0.427915
C45	C	1.739697	-0.046022	0.571798
C46	C	1.654289	0.010379	0.643760
H47	H	1.191179	0.279800	-0.000080
C48	C	0.784554	0.433156	-0.000161
H49	H	0.833404	0.479553	-0.000167
H50	H	0.732810	0.435427	0.079536
H51	H	0.732857	0.435412	-0.079895
C52	C	1.654300	0.010413	0.197728
H53	H	1.591213	0.052090	0.165199
H54	H	1.637131	-0.043208	0.165160
H55	H	1.734563	0.022385	0.165188
H56	H	1.654285	0.010360	0.760919
C57	C	1.059626	0.438021	-0.000111
H58	H	1.149162	0.428658	-0.000107
H59	H	1.031989	0.468952	0.079592
H60	H	1.032021	0.468941	-0.079840
H61	H	1.289082	-0.432806	-0.094203
C62	C	1.483235	-0.455455	0.262337
H63	H	1.458478	-0.406606	0.315308
H64	H	1.539337	-0.493099	0.314523
H65	H	1.410693	-0.482139	0.238490
C66	C	1.304153	0.241658	0.348857
H67	H	1.253300	0.275256	0.412313
H68	H	1.251885	0.211215	0.292727
H69	H	1.349333	0.276797	0.292734
C70	C	1.689969	-0.312222	-0.141782
H71	H	1.728146	-0.337639	-0.221820
H72	H	1.735744	-0.332777	-0.062846
H73	H	1.690658	-0.252973	-0.147264
H74	H	1.809228	-0.091960	0.630355
H75	H	0.715878	0.271387	-0.000138
H76	H	1.650782	-0.462005	0.136444
C77	C	0.877397	-0.039232	-0.000126
H78	H	0.787861	-0.029866	-0.000163
H79	H	0.904991	-0.070161	0.079588
H80	H	0.905041	-0.070153	-0.079844
C81	C	1.691615	-0.313799	0.136981
H82	H	1.709277	-0.280425	0.059995
H83	H	1.746068	-0.364770	0.135768
H84	H	1.704751	-0.283915	0.219226
H85	H	1.506376	-0.305577	0.227563
H86	H	1.129477	-0.012928	-0.000058
H87	H	1.289324	-0.433864	0.092484
H88	H	1.328548	0.225522	0.630457
C89	C	1.274506	-0.279267	-0.126468
H90	H	1.243497	-0.322936	-0.178585
H91	H	1.329841	-0.250655	-0.181704
H92	H	1.205772	-0.240787	-0.097076
C93	C	1.274056	-0.280020	0.126543
H94	H	1.243029	-0.324009	0.177878
H95	H	1.205331	-0.241448	0.097451
H96	H	1.329168	-0.251647	0.182446
H97	H	1.507914	-0.451490	-0.228337
H98	H	1.503258	-0.306783	-0.227690
C99	C	1.833645	-0.108044	0.348764
H100	H	1.821428	-0.099954	0.252773
H101	H	1.820025	-0.164016	0.372328
H102	H	1.917452	-0.098419	0.372350
H103	H	1.654048	-0.461861	-0.130294
