data_functionalizedCrystal
_audit_creation_method	'MofGen! by Chris Wilmer'
_symmetry_space_group_name_H-M	'P1'
_symmetry_Int_Tables_number	1
_symmetry_cell_setting	triclinic
loop_
_symmetry_equiv_pos_as_xyz
  x,y,z
_cell_length_a	18.050590
_cell_length_b	18.050590
_cell_length_c	18.050583
_cell_angle_alpha	90.040797
_cell_angle_beta	89.999666
_cell_angle_gamma	89.988341
loop_
_atom_site_label
_atom_site_type_symbol
_atom_site_fract_x
_atom_site_fract_y
_atom_site_fract_z
Zn1	Zn	1.135330	0.295821	-0.419578
Zn2	Zn	1.635330	0.795821	0.080422
Zn3	Zn	1.135251	0.420034	-0.295378
Zn4	Zn	1.635251	0.920034	0.204622
Zn5	Zn	1.011147	0.295839	-0.295436
Zn6	Zn	1.511147	0.795839	0.204564
Zn7	Zn	1.011110	0.419950	-0.419561
Zn8	Zn	1.511110	0.919950	0.080439
O9	O	1.073209	0.357911	-0.357489
O10	O	1.573209	0.857911	0.142511
O11	O	1.239244	0.312326	-0.403086
O12	O	1.739244	0.812326	0.096914
O13	O	1.118771	0.403602	-0.191462
O14	O	1.618771	0.903602	0.308538
O15	O	1.027669	0.191912	-0.311936
O16	O	1.527669	0.691912	0.188064
O17	O	1.239186	0.403585	-0.311837
O18	O	1.739186	0.903585	0.188163
O19	O	1.118906	0.191899	-0.403142
O20	O	1.618906	0.691899	0.096858
O21	O	1.027592	0.312356	-0.191504
O22	O	1.527592	0.812356	0.308496
O23	O	0.907217	0.312275	-0.311919
O24	O	1.407217	0.812275	0.188081
O25	O	1.027605	0.403442	-0.523488
O26	O	1.527605	0.903442	-0.023488
O27	O	0.907190	0.403459	-0.403113
O28	O	1.407190	0.903459	0.096887
O29	O	1.118870	0.312245	-0.523501
O30	O	1.618870	0.812245	-0.023501
O31	O	1.118734	0.523948	-0.311820
O32	O	1.618734	1.023948	0.188180
O33	O	1.027529	0.523886	-0.403056
O34	O	1.527529	1.023886	0.096944
C35	C	0.880257	0.357860	-0.357521
C36	C	1.380257	0.857860	0.142479
C37	C	0.797711	0.357857	-0.357552
C38	C	1.297711	0.857857	0.142448
C39	C	0.598267	0.407584	-0.407025
C40	C	1.098267	0.907584	0.092975
C41	C	0.548868	0.339865	-0.425306
C42	C	1.048868	0.839865	0.074694
C43	C	0.646581	0.357898	-0.357516
C44	C	1.146581	0.857898	0.142484
C45	C	0.548899	0.425656	-0.339234
C46	C	1.048899	0.925656	0.160766
C47	C	0.500596	0.357944	-0.357482
C48	C	1.000596	0.857944	0.142518
C49	C	0.598269	0.290143	-0.375831
C50	C	1.098269	0.790143	0.124169
C51	C	0.598304	0.375979	-0.289728
C52	C	1.098304	0.875979	0.210272
C53	C	0.548927	0.308213	-0.307983
C54	C	1.048927	0.808213	0.192017
C55	C	0.730679	0.357872	-0.357537
C56	C	1.230679	0.857872	0.142463
C57	C	0.416499	0.357962	-0.357461
C58	C	0.916499	0.857962	0.142539
C59	C	1.073139	0.550863	-0.357446
C60	C	1.573139	1.050863	0.142554
C61	C	1.073177	0.633409	-0.357453
C62	C	1.573177	1.133409	0.142547
C63	C	1.122864	0.832866	-0.307895
C64	C	1.622864	1.332866	0.192105
C65	C	1.140998	0.882192	-0.375667
C66	C	1.640998	1.382192	0.124333
C67	C	1.073209	0.784539	-0.357473
C68	C	1.573209	1.284539	0.142527
C69	C	1.055141	0.882295	-0.289722
C70	C	1.555141	1.382295	0.210278
C71	C	1.073241	0.930524	-0.357486
C72	C	1.573241	1.430524	0.142514
C73	C	1.091377	0.832778	-0.425280
C74	C	1.591377	1.332778	0.074720
C75	C	1.005489	0.832877	-0.339289
C76	C	1.505489	1.332877	0.160711
C77	C	1.023596	0.882180	-0.407108
C78	C	1.523596	1.382180	0.092892
C79	C	1.073192	0.700441	-0.357464
C80	C	1.573192	1.200441	0.142536
C81	C	1.073257	1.014621	-0.357502
C82	C	1.573257	1.514621	0.142498
C83	C	1.266915	0.357963	-0.357457
C84	C	1.766915	0.857963	0.142543
C85	C	1.349461	0.357984	-0.357443
C86	C	1.849461	0.857984	0.142557
C87	C	1.073242	0.357832	-0.551194
C88	C	1.573242	0.857832	-0.051194
C89	C	1.073256	0.357798	-0.633740
C90	C	1.573256	0.857798	-0.133740
C91	C	1.073283	1.164205	-0.357531
C92	C	1.573283	1.664205	0.142469
C93	C	1.073270	1.081660	-0.357507
C94	C	1.573270	1.581660	0.142493
C95	C	1.122935	0.308181	-0.833198
C96	C	1.622935	0.808181	-0.333198
C97	C	1.055200	0.289992	-0.882613
C98	C	1.555200	0.789992	-0.382613
C99	C	1.073286	0.357785	-0.784870
C100	C	1.573286	0.857785	-0.284870
C101	C	1.141049	0.375927	-0.882537
C102	C	1.641049	0.875927	-0.382537
C103	C	1.073321	0.357772	-0.930856
C104	C	1.573321	0.857772	-0.430856
C105	C	1.005515	0.339561	-0.833198
C106	C	1.505515	0.839561	-0.333198
C107	C	1.091409	0.425528	-0.833119
C108	C	1.591409	0.925528	-0.333119
C109	C	1.023627	0.407365	-0.882511
C110	C	1.523627	0.907365	-0.382511
C111	C	1.073267	0.357791	-0.700772
C112	C	1.573267	0.857791	-0.200772
C113	C	1.073332	0.357766	-1.014952
C114	C	1.573332	0.857766	-0.514952
C115	C	1.073219	0.357936	-0.164536
C116	C	1.573219	0.857936	0.335464
C117	C	1.073349	0.357761	-0.081991
C118	C	1.573349	0.857761	0.418009
H119	H	0.527153	0.324587	-0.482617
H120	H	1.027153	0.824587	0.017383
C121	C	0.627441	0.212734	-0.396796
C122	C	1.127441	0.712734	0.103204
N123	N	0.649415	0.154433	-0.412590
N124	N	1.149415	0.654433	0.087410
C125	C	0.966884	0.911249	-0.463820
C126	C	1.466884	1.411249	0.036180
N127	N	0.924170	0.933144	-0.506537
N128	N	1.424170	1.433144	-0.006537
C129	C	0.627536	0.464253	-0.463649
C130	C	1.127536	0.964253	0.036351
N131	N	0.649581	0.506933	-0.506299
N132	N	1.149581	1.006933	-0.006299
H133	H	1.198340	0.391276	-0.904214
H134	H	1.698340	0.891276	-0.404214
H135	H	0.981606	0.449308	-0.904027
H136	H	1.481606	0.949308	-0.404027
H137	H	1.106747	0.482806	-0.811364
H138	H	1.606747	0.982806	-0.311364
H139	H	1.198281	0.903856	-0.391057
H140	H	1.698281	1.403856	0.108943
C141	C	0.519836	0.251410	-0.251404
C142	C	1.019836	0.751410	0.248596
N143	N	0.497922	0.208624	-0.208793
N144	N	0.997922	0.708624	0.291207
H145	H	1.039882	0.232698	-0.904353
H146	H	1.539882	0.732698	-0.404353
H147	H	1.106615	0.811120	-0.482631
H148	H	1.606615	1.311120	0.017369
H149	H	0.620035	0.391278	-0.232433
H150	H	1.120035	0.891278	0.267567
C151	C	0.928095	0.318728	-0.804044
C152	C	1.428095	0.818728	-0.304044
N153	N	0.869784	0.303034	-0.782082
N154	N	1.369784	0.803034	-0.282082
H155	H	1.164853	0.266206	-0.811542
H156	H	1.664853	0.766206	-0.311542
C157	C	1.179618	0.803602	-0.251323
C158	C	1.679618	1.303602	0.248677
N159	N	1.222366	0.781557	-0.208718
N160	N	1.722366	1.281557	0.291282
C161	C	0.519611	0.503044	-0.318356
C162	C	1.019611	1.003044	0.181644
N163	N	0.497557	0.561336	-0.302635
N164	N	0.997557	1.061336	0.197365
H165	H	0.948222	0.811197	-0.323879
H166	H	1.448222	1.311197	0.176121
C167	C	1.034474	0.911674	-0.212309
C168	C	1.534474	1.411674	0.287691
N169	N	1.018913	0.933798	-0.154001
N170	N	1.518913	1.433798	0.345999
