data_functionalizedCrystal
_audit_creation_method	'MofGen! by Chris Wilmer'
_symmetry_space_group_name_H-M	'P1'
_symmetry_Int_Tables_number	1
_symmetry_cell_setting	triclinic
loop_
_symmetry_equiv_pos_as_xyz
  x,y,z
_cell_length_a	6.817900
_cell_length_b	15.301126
_cell_length_c	10.992410
_cell_angle_alpha	93.551656
_cell_angle_beta	108.764651
_cell_angle_gamma	104.177575
loop_
_atom_site_label
_atom_site_type_symbol
_atom_site_fract_x
_atom_site_fract_y
_atom_site_fract_z
V1	V	-4.090843	-0.124759	-0.400984
O2	O	-4.073501	0.005995	-0.392949
O3	O	-4.045418	-0.247376	-0.398628
O4	O	-4.068795	-0.122840	-0.575690
O5	O	-4.049962	-0.119403	-0.214660
V6	V	-4.570670	-0.109119	-0.378651
O7	O	-4.360207	-0.159066	-0.449972
O8	O	-4.751504	-0.074812	-0.329662
O9	O	-4.392889	0.013498	-0.381007
O10	O	-4.705409	-0.239873	-0.386686
O11	O	-4.728948	-0.114475	-0.564974
O12	O	-4.369512	-0.111038	-0.203944
C13	C	-3.890289	-0.277267	-0.392402
C14	C	-3.934612	-0.377508	-0.391640
C15	C	-4.138640	-0.429194	-0.397705
C16	C	-4.180278	-0.523382	-0.396997
C17	C	-4.017879	-0.565880	-0.390214
C18	C	-3.813835	-0.514188	-0.384153
C19	C	-3.772205	-0.420003	-0.384870
C20	C	-3.900616	-0.710499	-0.382654
C21	C	-3.942247	-0.804689	-0.381934
C22	C	-4.308689	-0.813877	-0.394781
C23	C	-4.267059	-0.719692	-0.395499
C24	C	-4.063016	-0.668006	-0.389434
C25	C	-3.920108	-0.118408	-0.618261
C26	C	-3.983385	-0.117650	-0.761087
C27	C	-3.851803	-0.110746	-0.956188
C28	C	-3.786035	-0.111908	-0.807709
C29	C	-4.164721	-0.206559	-0.838469
C30	C	-4.229182	-0.205773	-0.987033
C31	C	-4.139246	-0.033613	-0.948462
C32	C	-4.068616	-0.033192	-0.799448
C33	C	-4.211358	0.043384	-0.387229
C34	C	-4.146276	0.143624	-0.387999
C35	C	-4.181539	-0.115473	-0.161367
C36	C	-4.097501	-0.116226	-0.018540
H37	H	-4.474820	-0.855963	-0.399700
C38	C	-4.404720	-0.580232	-0.403664
N39	N	-4.573779	-0.623051	-0.408687
H40	H	-4.048998	0.033902	-0.968610
H41	H	-4.313706	-0.213971	-0.809689
C42	C	-3.891755	0.055664	-0.728441
N43	N	-3.758538	0.122588	-0.674950
H44	H	-3.810024	-0.839293	-0.376450
H45	H	-3.815729	-0.170104	-1.004367
C46	C	-3.547757	-0.363148	-0.378194
N47	N	-3.378698	-0.320326	-0.373167
C48	C	-3.693538	-0.193214	-0.774435
N49	N	-3.623874	-0.254460	-0.749375
C50	C	-4.192283	-0.290273	-1.049808
N51	N	-4.164475	-0.353919	-1.097083
C52	C	-3.601646	-0.025552	-0.735375
N53	N	-3.462747	0.039490	-0.680900
H54	H	-4.210925	-0.032148	-0.766933
H55	H	-4.270884	-0.394598	-0.403216
H56	H	-4.399298	-0.685092	-0.401014
C57	C	-3.709788	-0.023874	-0.981566
N58	N	-3.602830	0.041530	-1.000764
H59	H	-3.681614	-0.548798	-0.378638
C60	C	-4.473099	-0.216223	-1.044664
N61	N	-4.656818	-0.224106	-1.088068
C62	C	-4.087005	-0.291274	-0.804153
N63	N	-4.028455	-0.355079	-0.778310
C64	C	-4.380221	-0.037972	-1.003660
N65	N	-4.561722	-0.041261	-1.045244
H66	H	-3.734471	-0.668419	-0.377726
