data_functionalizedCrystal
_audit_creation_method	'MofGen! by Chris Wilmer'
_symmetry_space_group_name_H-M	'P1'
_symmetry_Int_Tables_number	1
_symmetry_cell_setting	triclinic
loop_
_symmetry_equiv_pos_as_xyz
  x,y,z
_cell_length_a	10.654550
_cell_length_b	11.792241
_cell_length_c	9.730223
_cell_angle_alpha	89.995449
_cell_angle_beta	89.999957
_cell_angle_gamma	84.339173
loop_
_atom_site_label
_atom_site_type_symbol
_atom_site_fract_x
_atom_site_fract_y
_atom_site_fract_z
O1	O	1.667388	0.159420	-0.114188
O2	O	1.301867	0.174608	-0.114213
O3	O	1.493498	0.001864	-0.114190
O4	O	1.475757	0.332164	-0.114211
O5	O	1.493485	0.001859	0.114390
O6	O	1.301854	0.174603	0.114367
O7	O	1.667376	0.159415	0.114392
Zn8	Zn	1.484613	0.167008	0.150671
Zn9	Zn	1.484629	0.167015	-0.150493
O10	O	1.475745	0.332159	0.114369
C11	C	1.255066	0.173491	0.000074
C12	C	1.115632	0.170154	0.000064
C13	C	1.492377	-0.040432	0.000099
C14	C	1.489042	-0.166453	0.000098
C15	C	1.035859	0.271863	0.000062
C16	C	0.904847	0.268721	0.000086
C17	C	0.933394	0.062152	0.000109
C18	C	1.064403	0.065295	0.000095
C19	C	1.482908	-0.397180	0.000074
C20	C	1.486316	-0.268787	0.000087
C21	C	1.714177	0.160533	0.000102
C22	C	1.853611	0.163869	0.000103
C23	C	1.476865	0.374455	0.000077
C24	C	1.480201	0.500477	0.000069
N25	N	1.484611	0.167003	0.356208
N26	N	1.484641	0.167011	-0.356029
C27	C	1.569494	0.090545	0.428144
C28	C	1.569507	0.090545	0.572027
C29	C	1.399749	0.243473	0.572025
C30	C	1.399731	0.243466	0.428145
H31	H	0.839900	0.351543	0.000087
O32	O	1.651912	0.016120	0.641753
C33	C	1.630724	-0.096415	0.606637
H34	H	1.582306	-0.096685	0.502177
H35	H	1.567988	-0.132044	0.687628
C36	C	1.817197	-0.170516	0.728280
C37	C	1.757738	-0.170849	0.599975
H38	H	1.895544	-0.216432	0.724176
H39	H	1.831470	-0.094699	0.751944
H40	H	1.764904	-0.200204	0.795759
H41	H	1.810024	-0.141147	0.532503
H42	H	1.743477	-0.246662	0.576300
O43	O	1.651736	0.016171	0.358143
C44	C	1.583952	-0.054437	0.275010
H45	H	1.486012	-0.010015	0.253429
H46	H	1.574798	-0.138359	0.330532
C47	C	1.774868	-0.132769	0.164856
C48	C	1.654579	-0.078204	0.138340
H49	H	1.818435	-0.147435	0.080554
H50	H	1.820537	-0.085203	0.220867
H51	H	1.767223	-0.202698	0.211128
H52	H	1.662226	-0.008271	0.092085
H53	H	1.608913	-0.125760	0.082318
O54	O	1.085831	0.373621	-0.000020
C55	C	1.218571	0.354591	-0.000002
H56	H	1.248728	0.266258	-0.043271
H57	H	1.255084	0.360380	0.109654
C58	C	1.236465	0.553800	-0.036518
C59	C	1.273506	0.445311	-0.089672
H60	H	1.270354	0.609762	-0.091824
H61	H	1.147037	0.566622	-0.036525
H62	H	1.266896	0.558608	0.054861
H63	H	1.243062	0.440500	-0.181042
H64	H	1.362931	0.432489	-0.089682
H65	H	1.330643	0.305729	0.630610
H66	H	0.891668	-0.023220	0.000142
H67	H	1.129359	-0.017534	0.000101
H68	H	1.330603	0.305728	0.369570
