data_functionalizedCrystal
_audit_creation_method	'MofGen! by Chris Wilmer'
_symmetry_space_group_name_H-M	'P1'
_symmetry_Int_Tables_number	1
_symmetry_cell_setting	triclinic
loop_
_symmetry_equiv_pos_as_xyz
  x,y,z
_cell_length_a	12.784890
_cell_length_b	17.019294
_cell_length_c	11.295483
_cell_angle_alpha	90.223525
_cell_angle_beta	86.328828
_cell_angle_gamma	78.262590
loop_
_atom_site_label
_atom_site_type_symbol
_atom_site_fract_x
_atom_site_fract_y
_atom_site_fract_z
O1	O	1.417470	-0.000861	-0.098900
O2	O	1.917470	0.499139	0.401100
O3	O	1.108213	0.032724	-0.102354
O4	O	1.608213	0.532724	0.397646
O5	O	1.270624	-0.098804	-0.088856
O6	O	1.770624	0.401196	0.411144
O7	O	1.255060	0.130667	-0.112398
O8	O	1.755060	0.630667	0.387602
O9	O	1.256359	-0.087268	0.108011
O10	O	1.756359	0.412732	0.608011
O11	O	1.093948	0.044260	0.094513
O12	O	1.593948	0.544260	0.594513
O13	O	1.403205	0.010675	0.097967
O14	O	1.903205	0.510675	0.597967
Cu15	Cu	1.247274	0.028521	0.114216
Cu16	Cu	1.747274	0.528521	0.614216
Cu17	Cu	1.264144	0.014878	-0.118602
Cu18	Cu	1.764144	0.514878	0.381398
O19	O	1.240795	0.142203	0.084469
O20	O	1.740795	0.642203	0.584469
C21	C	1.061494	0.040676	-0.004145
C22	C	1.561494	0.540676	0.495855
C23	C	0.943539	0.047176	-0.004815
C24	C	1.443539	0.547176	0.495185
C25	C	0.765043	0.128632	-0.013174
C26	C	1.265043	0.628632	0.486826
C27	C	0.875872	0.122530	-0.012548
C28	C	1.375872	0.622530	0.487452
C29	C	0.900370	-0.022082	0.002288
C30	C	1.400370	0.477918	0.502288
C31	C	0.789541	-0.015981	0.001662
C32	C	1.289541	0.484019	0.501662
C33	C	0.721881	0.059379	-0.006067
C34	C	1.221881	0.559379	0.493933
C35	C	0.611049	0.065481	-0.006685
C36	C	1.111049	0.565481	0.493315
C37	C	0.635549	-0.079132	0.008142
C38	C	1.135549	0.420868	0.508142
C39	C	0.746378	-0.085233	0.008768
C40	C	1.246378	0.414767	0.508768
C41	C	1.262620	-0.122205	0.012568
C42	C	1.762620	0.377795	0.512568
C43	C	1.260011	-0.209118	0.021477
C44	C	1.760011	0.290882	0.521477
C45	C	1.266563	-0.256234	-0.081649
C46	C	1.766563	0.243766	0.418351
C47	C	1.264104	-0.337898	-0.073275
C48	C	1.764104	0.162102	0.426725
C49	C	1.255101	-0.372444	0.038227
C50	C	1.755101	0.127556	0.538227
C51	C	1.248545	-0.325321	0.141360
C52	C	1.748545	0.174679	0.641360
C53	C	1.250996	-0.243659	0.132985
C54	C	1.750996	0.256341	0.632985
C55	C	1.247304	-0.618698	0.068884
C56	C	1.747304	-0.118698	0.568884
C57	C	1.244856	-0.700367	0.077253
C58	C	1.744856	-0.200367	0.577253
C59	C	1.260414	-0.712938	-0.137384
C60	C	1.760414	-0.212938	0.362616
C61	C	1.262871	-0.631274	-0.145750
C62	C	1.762871	-0.131274	0.354250
C63	C	1.256309	-0.584157	-0.042616
C64	C	1.756309	-0.084157	0.457384
C65	C	1.252591	-0.455918	0.046789
C66	C	1.752591	0.044082	0.546789
C67	C	1.258812	-0.500684	-0.051180
C68	C	1.758812	-0.000684	0.448820
C69	C	1.449924	0.002722	-0.000244
C70	C	1.949924	0.502722	0.499756
C71	C	1.567880	-0.003777	0.000419
C72	C	2.067880	0.496223	0.500419
C73	C	1.248799	0.165603	-0.016957
C74	C	1.748799	0.665603	0.483043
C75	C	1.251409	0.252517	-0.025873
C76	C	1.751409	0.752517	0.474127
N77	N	1.235417	0.038115	0.277967
N78	N	1.735417	0.538115	0.777967
N79	N	1.276010	0.005277	-0.282353
N80	N	1.776010	0.505277	0.217647
C81	C	1.361368	-0.063834	0.537719
C82	C	1.861368	0.436166	1.037719
C83	C	1.352415	-0.056578	0.661638
C84	C	1.852415	0.443422	1.161638
C85	C	1.208552	0.059879	0.649727
C86	C	1.708552	0.559879	1.149727
C87	C	1.217505	0.052623	0.525808
C88	C	1.717505	0.552623	1.025808
C89	C	1.293917	-0.009235	0.469809
C90	C	1.793917	0.490765	0.969809
C91	C	1.302875	-0.016487	0.345887
C92	C	1.802875	0.483513	0.845887
C93	C	1.159008	0.099967	0.333979
C94	C	1.659008	0.599967	0.833979
C95	C	1.150054	0.107222	0.457898
C96	C	1.650054	0.607222	0.957898
H97	H	0.801482	-0.146589	0.015057
H98	H	1.301482	0.353411	0.515057
H99	H	0.600403	-0.135528	0.013835
H100	H	1.100403	0.364472	0.513835
H101	H	1.146332	0.110237	0.695339
H102	H	1.646332	0.610237	1.195339
O103	O	1.242885	-0.493185	0.167048
O104	O	1.742885	0.006815	0.667048
H105	H	1.238737	-0.446706	0.237360
H106	H	1.738737	0.053294	0.737360
O107	O	0.538068	0.146758	-0.015012
O108	O	1.038068	0.646758	0.484988
H109	H	0.492790	0.148294	-0.095884
H110	H	0.992790	0.648294	0.404116
O111	O	1.276265	-0.218972	-0.201913
O112	O	1.776265	0.281028	0.298087
H113	H	1.280395	-0.265456	-0.272215
H114	H	1.780395	0.234544	0.227785
H115	H	1.269444	-0.376257	-0.157251
H116	H	1.769444	0.123743	0.342749
H117	H	1.365096	-0.066852	0.300293
H118	H	1.865096	0.433148	0.800293
H119	H	1.423593	-0.114196	0.492123
H120	H	1.923593	0.385804	0.992123
O121	O	1.425176	-0.115458	0.734890
O122	O	1.925176	0.384542	1.234890
H123	H	1.479818	-0.159683	0.675126
H124	H	1.979818	0.340317	1.175126
O125	O	1.067648	0.173943	0.518297
O126	O	1.567648	0.673943	1.018297
H127	H	1.072758	0.169821	0.615875
H128	H	1.572758	0.669821	1.115875
O129	O	1.086242	0.158859	0.260736
O130	O	1.586242	0.658859	0.760736
H131	H	1.105297	0.143420	0.165158
H132	H	1.605297	0.643420	0.665158
H133	H	1.270204	-0.603152	-0.236546
H134	H	1.770204	-0.103152	0.263454
H135	H	1.241982	-0.580348	0.152864
H136	H	1.741982	-0.080348	0.652864
H137	H	1.265754	-0.751308	-0.221349
H138	H	1.765754	-0.251308	0.278651
H139	H	0.709952	0.189994	-0.019453
H140	H	1.209952	0.689994	0.480547
H141	H	0.955478	-0.083437	0.008572
H142	H	1.455478	0.416563	0.508572
O143	O	0.922423	0.197227	-0.020194
O144	O	1.422423	0.697227	0.479806
H145	H	0.901083	0.228376	-0.104103
H146	H	1.401083	0.728376	0.395897
O147	O	1.235133	-0.737632	0.197520
O148	O	1.735133	-0.237632	0.697520
H149	H	1.230970	-0.691148	0.267829
H150	H	1.730970	-0.191148	0.767829
O151	O	1.238852	-0.362588	0.261621
O152	O	1.738852	0.137412	0.761621
H153	H	1.165046	-0.387580	0.269350
H154	H	1.665046	0.112420	0.769350
H155	H	1.245645	-0.205295	0.216961
H156	H	1.745645	0.294705	0.716961
H157	H	1.266135	-0.472551	-0.141964
H158	H	1.766135	0.027449	0.358036
