data_functionalizedCrystal
_audit_creation_method	'MofGen! by Chris Wilmer'
_symmetry_space_group_name_H-M	'P1'
_symmetry_Int_Tables_number	1
_symmetry_cell_setting	triclinic
loop_
_symmetry_equiv_pos_as_xyz
  x,y,z
_cell_length_a	12.759401
_cell_length_b	18.101396
_cell_length_c	12.759393
_cell_angle_alpha	89.968261
_cell_angle_beta	90.020938
_cell_angle_gamma	89.961452
loop_
_atom_site_label
_atom_site_type_symbol
_atom_site_fract_x
_atom_site_fract_y
_atom_site_fract_z
Zn1	Zn	1.606103	0.294764	0.594011
Zn2	Zn	1.605926	0.418623	0.418327
Zn3	Zn	1.430402	0.294803	0.418346
Zn4	Zn	1.430326	0.418571	0.593964
O5	O	1.518189	0.356690	0.506162
O6	O	1.753101	0.311199	0.570718
O7	O	1.582600	0.402236	0.271309
O8	O	1.453816	0.191165	0.441676
O9	O	1.752971	0.402198	0.441644
O10	O	1.582903	0.191136	0.570736
O11	O	1.453644	0.311266	0.271323
O12	O	1.283371	0.311216	0.441631
O13	O	1.453685	0.402110	0.740992
O14	O	1.283315	0.402148	0.570657
O15	O	1.582828	0.311149	0.741026
O16	O	1.582526	0.522249	0.441599
O17	O	1.453513	0.522211	0.570638
C18	C	1.245222	0.356681	0.506141
C19	C	1.128445	0.356695	0.506157
C20	C	1.518021	0.549101	0.506134
C21	C	1.518044	0.631415	0.506158
C22	C	1.073582	0.404115	0.573235
C23	C	0.963858	0.404118	0.573256
C24	C	0.963871	0.309278	0.439112
C25	C	1.073593	0.309272	0.439097
C26	C	1.518231	0.930506	0.506219
C27	C	1.437253	0.899188	0.587608
C28	C	1.436880	0.813570	0.587352
C29	C	1.518138	0.782123	0.506189
C30	C	1.488151	0.813282	0.395464
C31	C	1.487617	0.898927	0.395952
C32	C	1.629379	0.898846	0.534579
C33	C	1.628738	0.813194	0.537006
C34	C	1.518088	0.698264	0.506166
C35	C	1.518279	1.014365	0.506235
C36	C	1.792223	0.356700	0.506184
C37	C	1.908999	0.356704	0.506193
C38	C	1.518268	0.356619	0.780196
C39	C	1.518301	0.356589	0.896972
C40	C	1.518351	1.163528	0.506217
C41	C	1.518325	1.081214	0.506251
C42	C	1.518171	0.356708	0.233195
C43	C	1.518342	0.356529	0.116419
C44	C	1.585551	0.309218	0.951854
C45	C	1.585569	0.309186	1.061578
C46	C	1.451084	0.403902	1.061530
C47	C	1.451062	0.403930	0.951807
H48	H	1.118239	0.442728	0.627843
H49	H	1.640299	0.270668	0.907210
H50	H	1.118264	0.270652	0.384474
N51	N	0.907822	0.260844	0.370622
N52	N	0.809857	0.260856	0.370642
H53	H	0.770272	0.226649	0.322269
H54	H	1.640329	0.270611	1.106258
H55	H	1.455643	0.792500	0.669454
H56	H	1.396292	0.442504	0.907122
N57	N	1.657140	0.787649	0.639225
N58	N	1.674332	0.833042	0.710981
H59	H	1.694394	0.814997	0.783173
N60	N	0.907832	0.452558	0.641787
N61	N	0.956825	0.494890	0.701658
H62	H	0.917258	0.529102	0.750063
N63	N	1.460610	0.924909	0.690950
N64	N	1.537204	0.966628	0.705826
H65	H	1.553723	0.984780	0.778818
H66	H	1.355369	0.920777	0.569059
H67	H	1.406369	0.918973	0.371928
N68	N	1.333533	0.787957	0.563788
N69	N	1.261458	0.833336	0.547472
H70	H	1.188463	0.815248	0.530827
N71	N	1.558375	0.924914	0.317262
N72	N	1.607989	0.879796	0.262154
H73	H	1.657950	0.898146	0.206568
H74	H	1.396343	0.442447	1.106190
H75	H	1.545283	0.792915	0.333169
H76	H	1.407770	0.791900	0.371008
N77	N	1.663681	0.925876	0.634133
N78	N	1.674257	0.993769	0.648461
H79	H	1.698475	1.012861	0.718773
H80	H	1.692270	0.791784	0.482046
N81	N	1.705055	0.924251	0.460205
N82	N	1.677395	0.965493	0.386604
H83	H	1.730833	0.983438	0.334072
