data_functionalizedCrystal
_audit_creation_method	'MofGen! by Chris Wilmer'
_symmetry_space_group_name_H-M	'P1'
_symmetry_Int_Tables_number	1
_symmetry_cell_setting	triclinic
loop_
_symmetry_equiv_pos_as_xyz
  x,y,z
_cell_length_a	10.654550
_cell_length_b	16.109301
_cell_length_c	9.130313
_cell_angle_alpha	89.997330
_cell_angle_beta	89.996220
_cell_angle_gamma	83.973192
loop_
_atom_site_label
_atom_site_type_symbol
_atom_site_fract_x
_atom_site_fract_y
_atom_site_fract_z
O1	O	1.666250	0.116770	-0.121925
O2	O	1.300621	0.127896	-0.121902
O3	O	1.493479	0.001362	-0.121899
O4	O	1.473391	0.243304	-0.121928
O5	O	1.493477	0.001365	0.121700
O6	O	1.300618	0.127899	0.121697
O7	O	1.666248	0.116774	0.121674
Cu8	Cu	1.483433	0.122337	0.143928
Cu9	Cu	1.483435	0.122333	-0.144156
O10	O	1.473389	0.243308	0.121671
C11	C	1.253832	0.127080	-0.000099
C12	C	1.114422	0.124636	-0.000090
C13	C	1.033926	0.199138	-0.000120
C14	C	0.902936	0.196836	-0.000145
C15	C	0.932952	0.045526	-0.000116
C16	C	1.063939	0.047828	-0.000081
C17	C	1.016595	0.286496	-0.000143
C18	C	0.885606	0.284194	-0.000168
C19	C	1.492665	-0.029616	-0.000099
C20	C	1.490225	-0.121926	-0.000097
C21	C	1.598991	-0.343552	-0.000127
C22	C	1.596689	-0.430286	-0.000139
C23	C	1.367868	-0.411772	-0.000119
C24	C	1.370172	-0.325040	-0.000117
C25	C	1.485737	-0.290932	-0.000114
C26	C	1.481131	-0.464399	-0.000127
C27	C	1.478634	-0.558440	-0.000140
C28	C	1.488234	-0.196885	-0.000104
C29	C	1.713036	0.117589	-0.000132
C30	C	1.852446	0.120033	-0.000151
C31	C	1.474204	0.274286	-0.000132
C32	C	1.476643	0.366595	-0.000144
N33	N	1.483440	0.122339	0.346551
N34	N	1.483438	0.122324	-0.346779
C35	C	1.568859	0.066329	0.423204
C36	C	1.568856	0.066319	0.576541
C37	C	1.398010	0.178336	0.576558
C38	C	1.398008	0.178342	0.423223
C39	C	1.667500	0.001659	0.423195
C40	C	1.667497	0.001649	0.576532
H41	H	1.051874	0.314310	-0.105318
N42	N	0.824619	0.319156	0.139131
H43	H	0.891494	0.337744	0.206456
H44	H	0.761448	0.368417	0.114783
N45	N	1.723633	-0.306767	-0.000130
H46	H	1.729690	-0.271188	-0.090427
H47	H	1.729613	-0.271242	0.090237
N48	N	1.248019	-0.268272	-0.000103
H49	H	1.197596	-0.279313	-0.090399
H50	H	1.197699	-0.279342	0.090265
H51	H	0.891833	-0.017009	-0.000131
H52	H	0.843427	0.317108	-0.102126
H53	H	1.328442	0.223942	0.360814
N54	N	1.305870	0.238733	0.659264
H55	H	1.353832	0.275840	0.722884
H56	H	1.251777	0.274160	0.587343
N57	N	1.718839	-0.487043	-0.000134
H58	H	1.722990	-0.523437	-0.090439
H59	H	1.792324	-0.452216	-0.000075
H60	H	1.045462	0.320663	0.101804
N61	N	1.640250	-0.082984	0.368058
H62	H	1.628082	-0.120760	0.454052
H63	H	1.561028	-0.076703	0.306569
H64	H	1.273779	-0.439553	-0.000118
N65	N	1.787913	0.028479	0.360169
H66	H	1.846095	0.041433	0.442497
H67	H	1.830642	-0.018008	0.297871
N68	N	1.150771	-0.032522	-0.000042
H69	H	1.205761	-0.034930	0.090278
H70	H	1.098830	-0.081484	-0.000100
H71	H	1.637803	-0.058739	0.624088
H72	H	1.763815	0.015894	0.618141
