data_functionalizedCrystal
_audit_creation_method	'MofGen! by Chris Wilmer'
_symmetry_space_group_name_H-M	'P1'
_symmetry_Int_Tables_number	1
_symmetry_cell_setting	triclinic
loop_
_symmetry_equiv_pos_as_xyz
  x,y,z
_cell_length_a	16.109318
_cell_length_b	23.532357
_cell_length_c	15.186229
_cell_angle_alpha	89.990735
_cell_angle_beta	90.000224
_cell_angle_gamma	83.148428
loop_
_atom_site_label
_atom_site_type_symbol
_atom_site_fract_x
_atom_site_fract_y
_atom_site_fract_z
O1	O	1.102526	0.073251	-0.073166
O2	O	1.435860	0.406584	0.260167
O3	O	1.769193	0.739917	0.593500
O4	O	0.860393	0.082350	-0.073185
O5	O	1.193726	0.415684	0.260148
O6	O	1.527059	0.749017	0.593481
O7	O	0.988783	-0.005106	-0.073157
O8	O	1.322116	0.328227	0.260176
O9	O	1.655449	0.661561	0.593509
O10	O	0.974136	0.160707	-0.073195
O11	O	1.307470	0.494040	0.260139
O12	O	1.640803	0.827374	0.593472
O13	O	0.988774	-0.005107	0.073300
O14	O	1.322108	0.328226	0.406633
O15	O	1.655441	0.661560	0.739967
O16	O	0.860384	0.082349	0.073272
O17	O	1.193717	0.415683	0.406605
O18	O	1.527051	0.749016	0.739938
O19	O	1.102518	0.073249	0.073291
O20	O	1.435851	0.406583	0.406624
O21	O	1.769185	0.739916	0.739958
Zn22	Zn	0.981450	0.077799	0.096535
Zn23	Zn	1.314783	0.411132	0.429868
Zn24	Zn	1.648116	0.744466	0.763201
Zn25	Zn	0.981461	0.077801	-0.096429
Zn26	Zn	1.314794	0.411134	0.236904
Zn27	Zn	1.648128	0.744467	0.570238
O28	O	0.974128	0.160706	0.073263
O29	O	1.307461	0.494039	0.406596
O30	O	1.640795	0.827372	0.739929
C31	C	0.829417	0.081979	0.000041
C32	C	1.162750	0.415313	0.333374
C33	C	1.496083	0.748646	0.666708
C34	C	0.737131	0.080869	0.000034
C35	C	1.070464	0.414202	0.333368
C36	C	1.403798	0.747536	0.666701
C37	C	0.438091	0.077284	-0.079783
C38	C	0.771425	0.410617	0.253550
C39	C	1.104758	0.743951	0.586884
C40	C	0.524804	0.078323	-0.079789
C41	C	0.858137	0.411657	0.253545
C42	C	1.191471	0.744990	0.586878
C43	C	0.524814	0.078314	0.079887
C44	C	0.858147	0.411647	0.413220
C45	C	1.191480	0.744981	0.746554
C46	C	0.438103	0.077271	0.079892
C47	C	0.771437	0.410604	0.413225
C48	C	1.104770	0.743937	0.746558
C49	C	0.394744	0.076758	0.000054
C50	C	0.728077	0.410092	0.333387
C51	C	1.061410	0.743425	0.666721
C52	C	0.568167	0.078841	0.000044
C53	C	0.901500	0.412175	0.333377
C54	C	1.234834	0.745508	0.666710
C55	C	0.662185	0.079968	0.000038
C56	C	0.995518	0.413302	0.333372
C57	C	1.328851	0.746635	0.666705
C58	C	0.300720	0.075630	0.000059
C59	C	0.634053	0.408964	0.333393
C60	C	0.967387	0.742297	0.666726
C61	C	0.988412	-0.026324	0.000074
C62	C	1.321745	0.307009	0.333408
C63	C	1.655079	0.640342	0.666741
C64	C	0.987311	-0.089547	0.000082
C65	C	1.320644	0.243786	0.333416
C66	C	1.653977	0.577120	0.666749
C67	C	0.980401	-0.481584	-0.079800
C68	C	1.313734	-0.148250	0.253534
C69	C	1.647067	0.185083	0.586867
C70	C	0.979353	-0.540987	-0.079805
C71	C	1.312687	-0.207654	0.253529
C72	C	1.646020	0.125680	0.586862
O73	O	0.978788	-0.571705	-0.147700
O74	O	1.312121	-0.238371	0.185633
O75	O	1.645454	0.094962	0.518966
N76	N	0.978830	-0.570701	0.000028
N77	N	1.312163	-0.237367	0.333361
N78	N	1.645496	0.095966	0.666695
C79	C	0.979344	-0.541007	0.079871
C80	C	1.312678	-0.207674	0.413204
C81	C	1.646011	0.125659	0.746538
O82	O	0.978802	-0.571736	0.147775
O83	O	1.312135	-0.238402	0.481108
O84	O	1.645469	0.094931	0.814441
C85	C	0.980385	-0.481604	0.079875
C86	C	1.313719	-0.148271	0.413209
C87	C	1.647052	0.185062	0.746542
C88	C	0.980918	-0.451895	0.000037
C89	C	1.314251	-0.118561	0.333371
C90	C	1.647584	0.214772	0.666704
C91	C	0.980932	-0.451873	-0.159631
C92	C	1.314265	-0.118540	0.173702
C93	C	1.647599	0.214793	0.507036
C94	C	0.981980	-0.392474	-0.159626
C95	C	1.315314	-0.059141	0.173708
C96	C	1.648647	0.274192	0.507041
C97	C	0.982498	-0.362785	-0.079789
C98	C	1.315831	-0.029452	0.253545
C99	C	1.649164	0.303881	0.586878
C100	C	0.981966	-0.392495	0.000043
C101	C	1.315300	-0.059162	0.333376
C102	C	1.648633	0.274171	0.666709
C103	C	0.980894	-0.451912	0.159717
C104	C	1.314228	-0.118578	0.493051
C105	C	1.647561	0.214755	0.826384
C106	C	0.981935	-0.392505	0.159715
C107	C	1.315268	-0.059171	0.493048
C108	C	1.648601	0.274162	0.826381
C109	C	0.982467	-0.362795	0.079877
C110	C	1.315800	-0.029461	0.413210
C111	C	1.649134	0.303872	0.746543
C112	C	0.983532	-0.303407	0.079885
C113	C	1.316865	0.029926	0.413218
C114	C	1.650199	0.363259	0.746552
N115	N	0.984056	-0.273693	0.000052
N116	N	1.317389	0.059640	0.333386
N117	N	1.650723	0.392973	0.666719
C118	C	0.983539	-0.303382	-0.079785
C119	C	1.316872	0.029951	0.253549
C120	C	1.650205	0.363284	0.586882
C121	C	0.977157	-0.665757	0.079856
C122	C	1.310490	-0.332424	0.413190
C123	C	1.643823	0.000910	0.746523
C124	C	0.976122	-0.725159	0.079853
C125	C	1.309455	-0.391826	0.413186
C126	C	1.642788	-0.058493	0.746520
C127	C	0.976129	-0.725135	-0.079823
C128	C	1.309462	-0.391801	0.253510
C129	C	1.642796	-0.058468	0.586844
C130	C	0.977170	-0.665732	-0.079819
C131	C	1.310504	-0.332398	0.253514
C132	C	1.643837	0.000935	0.586848
C133	C	0.977680	-0.636043	0.000023
C134	C	1.311014	-0.302710	0.333357
C135	C	1.644347	0.030623	0.666690
C136	C	0.985741	-0.178640	-0.079767
C137	C	1.319075	0.154693	0.253566
C138	C	1.652408	0.488027	0.586900
C139	C	0.986793	-0.119236	-0.079755
C140	C	1.320127	0.214097	0.253579
C141	C	1.653460	0.547431	0.586912
C142	C	0.986781	-0.119266	0.079921
C143	C	1.320115	0.214068	0.413254
C144	C	1.653448	0.547401	0.746588
C145	C	0.985734	-0.178665	0.079909
C146	C	1.319067	0.154669	0.413242
C147	C	1.652400	0.488002	0.746576
C148	C	0.985211	-0.208350	0.000058
C149	C	1.318544	0.124983	0.333391
C150	C	1.651878	0.458316	0.666725
O151	O	0.984095	-0.272651	0.147746
O152	O	1.317428	0.060682	0.481079
O153	O	1.650762	0.394015	0.814413
O154	O	0.984070	-0.272646	-0.147677
O155	O	1.317404	0.060688	0.185657
O156	O	1.650737	0.394021	0.518990
C157	C	1.133494	0.073620	0.000063
C158	C	1.466827	0.406954	0.333396
C159	C	1.800161	0.740287	0.666729
C160	C	1.225779	0.074731	0.000063
C161	C	1.559113	0.408064	0.333397
C162	C	1.892446	0.741397	0.666730
C163	C	0.974498	0.181924	0.000029
C164	C	1.307832	0.515258	0.333363
C165	C	1.641165	0.848591	0.666696
C166	C	0.975600	0.245147	0.000015
C167	C	1.308933	0.578480	0.333349
C168	C	1.642267	0.911814	0.666682
N169	N	0.981448	0.077798	0.228227
N170	N	1.314781	0.411131	0.561561
N171	N	1.648115	0.744464	0.894894
N172	N	0.981469	0.077798	-0.228122
N173	N	1.314802	0.411131	0.105212
N174	N	1.648136	0.744464	0.438545
C175	C	1.038318	0.039085	0.453963
C176	C	1.371652	0.372418	0.787296
C177	C	1.704985	0.705752	1.120629
C178	C	1.038321	0.039084	0.546152
C179	C	1.371654	0.372417	0.879486
C180	C	1.704988	0.705750	1.212819
C181	C	0.924593	0.116512	0.546136
C182	C	1.257926	0.449845	0.879470
C183	C	1.591259	0.783179	1.212803
C184	C	0.924587	0.116510	0.453948
C185	C	1.257920	0.449844	0.787282
C186	C	1.591253	0.783177	1.120615
C187	C	0.981454	0.077797	0.407864
C188	C	1.314788	0.411131	0.741197
C189	C	1.648121	0.744464	1.074531
C190	C	0.981463	0.077798	0.592242
C191	C	1.314796	0.411131	0.925575
C192	C	1.648130	0.744465	1.258908
C193	C	0.981465	0.077797	0.692198
C194	C	1.314799	0.411130	1.025531
C195	C	1.648132	0.744463	1.358864
C196	C	0.981451	0.077798	0.307901
C197	C	1.314784	0.411131	0.641235
C198	C	1.648118	0.744464	0.974568
H199	H	0.560094	0.078750	-0.144800
H200	H	0.893427	0.412084	0.188533
H201	H	1.226761	0.745417	0.521867
H202	H	0.878294	0.148032	0.583668
H203	H	1.211627	0.481365	0.917001
H204	H	1.544960	0.814699	1.250334
H205	H	0.878277	0.148035	0.416412
H206	H	1.211611	0.481368	0.749746
H207	H	1.544944	0.814701	1.083079
C208	C	0.975544	-0.757834	0.167681
C209	C	1.308878	-0.424501	0.501014
C210	C	1.642211	-0.091168	0.834348
N211	N	0.975103	-0.782442	0.233836
N212	N	1.308437	-0.449109	0.567170
N213	N	1.641770	-0.115776	0.900503
H214	H	0.402809	0.076842	0.144909
H215	H	0.736142	0.410176	0.478242
H216	H	1.069475	0.743509	0.811575
C217	C	1.100869	-0.003508	0.596857
C218	C	1.434203	0.329826	0.930190
C219	C	1.767536	0.663159	1.263523
N220	N	1.147981	-0.035591	0.635047
N221	N	1.481314	0.297742	0.968380
N222	N	1.814647	0.631075	1.301713
H223	H	0.980462	-0.476091	0.224730
H224	H	1.313795	-0.142758	0.558063
H225	H	1.647129	0.190575	0.891397
H226	H	0.402791	0.076866	-0.144792
H227	H	0.736124	0.410199	0.188541
H228	H	1.069457	0.743533	0.521875
C229	C	1.100868	-0.003505	0.403273
C230	C	1.434201	0.329829	0.736606
C231	C	1.767534	0.663162	1.069940
N232	N	1.147979	-0.035586	0.365096
N233	N	1.481312	0.297747	0.698429
N234	N	1.814646	0.631080	1.031763
C235	C	0.572511	0.078908	0.167704
C236	C	0.905844	0.412241	0.501037
C237	C	1.239178	0.745575	0.834370
N238	N	0.608434	0.079366	0.233849
N239	N	0.941767	0.412700	0.567183
N240	N	1.275101	0.746033	0.900516
C241	C	0.987376	-0.086558	-0.167586
C242	C	1.320710	0.246775	0.165747
C243	C	1.654043	0.580108	0.499081
N244	N	0.987813	-0.061947	-0.233739
N245	N	1.321146	0.271386	0.099594
N246	N	1.654480	0.604719	0.432927
C247	C	0.985181	-0.211287	-0.167607
C248	C	1.318514	0.122046	0.165726
C249	C	1.651847	0.455380	0.499059
N250	N	0.984768	-0.235877	-0.233769
N251	N	1.318101	0.097456	0.099564
N252	N	1.651434	0.430790	0.432898
H253	H	0.980508	-0.476040	-0.224647
H254	H	1.313841	-0.142706	0.108686
H255	H	1.647174	0.190627	0.442019
C256	C	0.982556	-0.359800	-0.247455
C257	C	1.315890	-0.026467	0.085879
C258	C	1.649223	0.306866	0.419212
N259	N	0.982986	-0.335193	-0.313612
N260	N	1.316320	-0.001860	0.019721
N261	N	1.649653	0.331473	0.353055
H262	H	0.982338	-0.368334	0.224734
H263	H	1.315671	-0.035001	0.558067
H264	H	1.649004	0.298332	0.891400
H265	H	0.975705	-0.749318	-0.144831
H266	H	1.309039	-0.415985	0.188502
H267	H	1.642372	-0.082651	0.521836
C268	C	0.977748	-0.633056	-0.167646
C269	C	1.311082	-0.299722	0.165687
C270	C	1.644415	0.033611	0.499021
N271	N	0.978180	-0.608447	-0.233801
N272	N	1.311514	-0.275113	0.099532
N273	N	1.644847	0.058220	0.432865
C274	C	0.977731	-0.633106	0.167695
C275	C	1.311064	-0.299773	0.501028
C276	C	1.644398	0.033561	0.834362
N277	N	0.978164	-0.608516	0.233855
N278	N	1.311497	-0.275183	0.567189
N279	N	1.644831	0.058150	0.900522
H280	H	0.985308	-0.202857	0.144920
H281	H	1.318641	0.130477	0.478253
H282	H	1.651975	0.463810	0.811586
C283	C	0.987342	-0.086596	0.167737
C284	C	1.320675	0.246738	0.501071
C285	C	1.654009	0.580071	0.834404
N286	N	0.987756	-0.061986	0.233881
N287	N	1.321089	0.271347	0.567215
N288	N	1.654422	0.604681	0.900548
