data_functionalizedCrystal
_audit_creation_method	'MofGen! by Chris Wilmer'
_symmetry_space_group_name_H-M	'P1'
_symmetry_Int_Tables_number	1
_symmetry_cell_setting	triclinic
loop_
_symmetry_equiv_pos_as_xyz
  x,y,z
_cell_length_a	18.101398
_cell_length_b	21.295417
_cell_length_c	18.101389
_cell_angle_alpha	90.021518
_cell_angle_beta	90.009745
_cell_angle_gamma	90.025259
loop_
_atom_site_label
_atom_site_type_symbol
_atom_site_fract_x
_atom_site_fract_y
_atom_site_fract_z
Zn1	Zn	1.132128	-0.250750	0.418535
Zn2	Zn	1.132027	-0.356003	0.294686
Zn3	Zn	1.008287	-0.250744	0.294727
Zn4	Zn	1.008241	-0.355977	0.418506
O5	O	1.070171	-0.303369	0.356614
O6	O	1.235748	-0.264726	0.402101
O7	O	1.115590	-0.342049	0.191059
O8	O	1.024776	-0.162655	0.311179
O9	O	1.235673	-0.342055	0.311110
O10	O	1.115762	-0.162660	0.402140
O11	O	1.024678	-0.264715	0.191089
O12	O	0.904648	-0.264690	0.311152
O13	O	1.024698	-0.342010	0.522143
O14	O	0.904614	-0.342004	0.402092
O15	O	1.115717	-0.264700	0.522164
O16	O	1.115545	-0.444089	0.311083
O17	O	1.024600	-0.444070	0.402053
C18	C	0.877760	-0.303344	0.356624
C19	C	0.795446	-0.303348	0.356646
C20	C	0.496355	-0.303385	0.356615
C21	C	0.527684	-0.352265	0.413550
C22	C	0.613302	-0.352112	0.413784
C23	C	0.644738	-0.303368	0.356630
C24	C	0.613681	-0.237068	0.377962
C25	C	0.528036	-0.237361	0.378367
C26	C	0.527903	-0.320222	0.278211
C27	C	0.613553	-0.321676	0.278630
C28	C	0.728597	-0.303353	0.356638
C29	C	0.412496	-0.303395	0.356609
C30	C	1.070076	-0.466920	0.356576
C31	C	1.070104	-0.536888	0.356585
C32	C	1.117453	-0.569700	0.403982
C33	C	1.117479	-0.635443	0.404000
C34	C	1.070164	-0.668371	0.356608
C35	C	1.022806	-0.635551	0.309208
C36	C	1.022776	-0.569810	0.309196
N37	N	1.064571	-0.771624	0.291797
N38	N	1.064604	-0.834075	0.291810
C39	C	1.070250	-0.866445	0.356642
N40	N	1.075877	-0.834005	0.421461
N41	N	1.075848	-0.771548	0.421447
C42	C	1.070191	-0.739656	0.356616
C43	C	1.117630	-0.970543	0.404063
C44	C	1.117651	-1.036286	0.404082
C45	C	1.022982	-1.036394	0.309283
C46	C	1.022957	-0.970651	0.309270
C47	C	1.070285	-0.937730	0.356659
C48	C	1.263333	-0.303394	0.356604
C49	C	1.345647	-0.303405	0.356600
C50	C	1.070214	-0.303353	0.549776
C51	C	1.070232	-0.303346	0.632090
C52	C	1.070286	-0.139178	0.356668
C53	C	1.070335	-0.069210	0.356690
C54	C	1.070171	-0.303339	0.164203
C55	C	1.070296	-0.303168	0.081890
C56	C	1.070275	-0.303228	0.931181
C57	C	1.012811	-0.351714	0.899843
C58	C	1.012966	-0.351939	0.814224
C59	C	1.070253	-0.303286	0.782798
C60	C	1.148279	-0.321298	0.813883
C61	C	1.147959	-0.321617	0.899528
C62	C	1.050392	-0.236622	0.899615
C63	C	1.048656	-0.237006	0.813964
C64	C	1.070245	-0.303318	0.698939
C65	C	1.070288	-0.303197	1.015041
H66	H	0.633804	-0.340973	0.471876
H67	H	1.165426	-0.369471	0.792433
C68	C	1.217217	-0.896543	0.414422
C69	C	1.169646	-0.934353	0.456159
H70	H	1.249331	-0.874207	0.446586
H71	H	1.189018	-0.867591	0.386195
H72	H	1.245572	-0.922193	0.382186
H73	H	1.141287	-0.908703	0.488392
H74	H	1.197848	-0.963309	0.484398
H75	H	1.026093	-0.401310	0.793736
H76	H	0.984280	-0.662365	0.270623
H77	H	0.984404	-0.943934	0.270672
H78	H	0.955107	-0.340667	0.793207
H79	H	1.164814	-0.370307	0.919504
H80	H	0.508075	-0.223080	0.435684
H81	H	0.633859	-0.370463	0.262542
H82	H	0.991235	-0.223423	0.793648
H83	H	1.192225	-0.287834	0.920259
C84	C	1.153955	-0.212732	0.738546
C85	C	1.101039	-0.185646	0.785098
H86	H	1.186301	-0.181025	0.720732
H87	H	1.129935	-0.232429	0.698037
H88	H	1.181523	-0.243105	0.765303
H89	H	1.073466	-0.155277	0.758340
H90	H	1.125061	-0.165939	0.825613
H91	H	1.192244	-0.287093	0.793528
C92	C	0.929203	-0.576521	0.215494
C93	C	0.970730	-0.533739	0.257089
H94	H	0.897077	-0.554250	0.183321
H95	H	0.900867	-0.602164	0.247744
H96	H	0.961503	-0.602156	0.187198
H97	H	0.938430	-0.508107	0.285389
H98	H	0.999068	-0.508085	0.224835
H99	H	1.155988	-0.542897	0.442571
C100	C	0.945282	-0.260395	0.975516
C101	C	0.974921	-0.214465	0.928776
H102	H	0.898688	-0.246720	0.993518
H103	H	0.977843	-0.267143	1.015891
H104	H	0.939205	-0.298469	0.948833
H105	H	0.981003	-0.176392	0.955461
H106	H	0.942352	-0.207709	0.888395
H107	H	0.507644	-0.284618	0.235790
H108	H	1.156208	-1.063001	0.442682
H109	H	0.984452	-1.063203	0.270700
C110	C	1.211051	-0.628740	0.497706
C111	C	1.169522	-0.671519	0.456110
H112	H	1.243179	-0.651012	0.529875
H113	H	1.178757	-0.603107	0.525999
H114	H	1.239391	-0.603095	0.465451
H115	H	1.141177	-0.697162	0.488364
H116	H	1.201820	-0.697163	0.427814
C117	C	0.459391	-0.376713	0.186038
C118	C	0.498721	-0.384366	0.252038
H119	H	0.441372	-0.416315	0.169891
H120	H	0.491101	-0.359587	0.149411
H121	H	0.419020	-0.349053	0.194055
H122	H	0.539095	-0.412022	0.244019
H123	H	0.467009	-0.401501	0.288673
H124	H	0.954777	-0.340558	0.920444
H125	H	1.025808	-0.400784	0.921362
H126	H	1.092246	-0.200497	0.919882
H127	H	0.635146	-0.222528	0.434656
H128	H	0.634299	-0.401277	0.400413
H129	H	0.507070	-0.401591	0.400329
H130	H	0.506173	-0.341268	0.471306
H131	H	0.634952	-0.288659	0.233931
C132	C	0.422699	-0.186265	0.324702
C133	C	0.500054	-0.186513	0.324859
H134	H	0.405428	-0.154869	0.291675
H135	H	0.405166	-0.177586	0.373093
H136	H	0.405044	-0.226171	0.309221
H137	H	0.517709	-0.146608	0.340346
H138	H	0.517594	-0.195187	0.276458
C139	C	0.686485	-0.214475	0.270334
C140	C	0.641173	-0.186567	0.323736
H141	H	0.703461	-0.183296	0.236860
H142	H	0.659131	-0.245350	0.244112
H143	H	0.727601	-0.233696	0.293813
H144	H	0.600054	-0.167349	0.300257
H145	H	0.668528	-0.155680	0.349961
