data_functionalizedCrystal
_audit_creation_method	'MofGen! by Chris Wilmer'
_symmetry_space_group_name_H-M	'P1'
_symmetry_Int_Tables_number	1
_symmetry_cell_setting	triclinic
loop_
_symmetry_equiv_pos_as_xyz
  x,y,z
_cell_length_a	14.519709
_cell_length_b	10.967926
_cell_length_c	10.065875
_cell_angle_alpha	93.120479
_cell_angle_beta	98.804604
_cell_angle_gamma	84.207347
loop_
_atom_site_label
_atom_site_type_symbol
_atom_site_fract_x
_atom_site_fract_y
_atom_site_fract_z
O1	O	0.160831	1.613236	0.265926
O2	O	0.494164	1.946570	0.599259
O3	O	0.827498	2.279903	0.932592
O4	O	0.163464	1.263198	0.183596
O5	O	0.496798	1.596531	0.516929
O6	O	0.830131	1.929865	0.850263
O7	O	0.028218	1.447496	0.226956
O8	O	0.361552	1.780829	0.560289
O9	O	0.694885	2.114163	0.893622
O10	O	0.296077	1.428938	0.222566
O11	O	0.629410	1.762272	0.555900
O12	O	0.962744	2.095605	0.889233
O13	O	0.054116	1.412353	0.445676
O14	O	0.387450	1.745687	0.779010
O15	O	0.720783	2.079020	1.112343
O16	O	0.189362	1.228055	0.402317
O17	O	0.522696	1.561388	0.735650
O18	O	0.856029	1.894722	1.068983
O19	O	0.186729	1.578094	0.484646
O20	O	0.520062	1.911427	0.817980
O21	O	0.853396	2.244760	1.151313
Zn22	Zn	0.192158	1.397495	0.478208
Zn23	Zn	0.525491	1.730828	0.811542
Zn24	Zn	0.858824	2.064161	1.144875
Zn25	Zn	0.158036	1.443797	0.190034
Zn26	Zn	0.491369	1.777130	0.523368
Zn27	Zn	0.824703	2.110464	0.856701
O28	O	0.321975	1.393795	0.441287
O29	O	0.655308	1.727129	0.774620
O30	O	0.988642	2.060462	1.107954
C31	C	0.174265	1.200829	0.282420
C32	C	0.507598	1.534162	0.615753
C33	C	0.840932	1.867495	0.949087
C34	C	0.167852	1.067344	0.251025
C35	C	0.501185	1.400678	0.584358
C36	C	0.834519	1.734011	0.917691
C37	C	0.178409	0.989628	0.350331
C38	C	0.511742	1.322961	0.683665
C39	C	0.845076	1.656294	1.016998
C40	C	0.171781	0.851665	0.317885
C41	C	0.505115	1.184998	0.651219
C42	C	0.838448	1.518331	0.984552
C43	C	0.006779	1.429060	0.336113
C44	C	0.340112	1.762393	0.669446
C45	C	0.673446	2.095726	1.002779
C46	C	-0.095688	1.426467	0.335504
C47	C	0.237645	1.759801	0.668837
C48	C	0.570978	2.093134	1.002170
C49	C	-0.470904	1.416930	0.333225
C50	C	-0.137571	1.750263	0.666558
C51	C	0.195762	2.083596	0.999892
C52	C	-0.366507	1.419578	0.333858
C53	C	-0.033174	1.752911	0.667192
C54	C	0.300159	2.086245	1.000525
C55	C	-0.283299	1.421698	0.334366
C56	C	0.050034	1.755031	0.667699
C57	C	0.383367	2.088365	1.001032
C58	C	-0.178896	1.424347	0.334996
C59	C	0.154437	1.757681	0.668330
C60	C	0.487770	2.091014	1.001663
C61	C	0.343414	1.412233	0.332127
C62	C	0.676748	1.745566	0.665460
C63	C	1.010081	2.078899	0.998794
C64	C	0.445880	1.414826	0.332727
C65	C	0.779214	1.748160	0.666061
C66	C	1.112547	2.081493	0.999394
C67	C	0.175928	1.640464	0.385820
C68	C	0.509261	1.973797	0.719153
C69	C	0.842595	2.307130	1.052486
C70	C	0.182340	1.773949	0.417206
C71	C	0.515673	2.107282	0.750540
C72	C	0.849007	2.440616	1.083873
N73	N	0.215444	1.365903	0.674881
N74	N	0.548778	1.699237	1.008215
N75	N	0.882111	2.032570	1.341548
N76	N	0.134742	1.475398	-0.006637
N77	N	0.468075	1.808731	0.326697
N78	N	0.801409	2.142064	0.660030
C79	C	0.166132	1.432798	0.758398
C80	C	0.499465	1.766131	1.091732
C81	C	0.832799	2.099464	1.425065
C82	C	0.184062	1.408494	0.909848
C83	C	0.517395	1.741827	1.243181
C84	C	0.850728	2.075160	1.576514
H85	H	0.192349	1.025231	0.459372
H86	H	0.525682	1.358564	0.792706
H87	H	0.859015	1.691897	1.126039
H88	H	0.110636	1.508058	0.717780
H89	H	0.443969	1.841391	1.051114
H90	H	0.777303	2.174725	1.384447
C91	C	0.290412	1.264229	0.729743
C92	C	0.623745	1.597562	1.063076
C93	C	0.957078	1.930895	1.396409
H94	H	0.292632	1.261238	0.824338
H95	H	0.625966	1.594571	1.157672
H96	H	0.959299	1.927905	1.491005
H97	H	0.275128	1.187490	0.688363
H98	H	0.608462	1.520823	1.021696
H99	H	0.941795	1.854157	1.355030
H100	H	0.349734	1.281247	0.710388
H101	H	0.683068	1.614580	1.043721
H102	H	1.016401	1.947914	1.377054
H103	H	0.239554	1.333220	0.950459
H104	H	0.572887	1.666553	1.283792
H105	H	0.906221	1.999887	1.617126
H106	H	0.196282	0.809544	0.526255
H107	H	0.529616	1.142877	0.859589
H108	H	0.862949	1.476210	1.192922
C109	C	0.152945	0.803587	0.170571
C110	C	0.486278	1.136921	0.503904
C111	C	0.819611	1.470254	0.837237
H112	H	0.150968	0.717167	0.168088
H113	H	0.484302	1.050500	0.501421
H114	H	0.817635	1.383834	0.834755
H115	H	0.094694	0.841013	0.128502
H116	H	0.428027	1.174346	0.461835
H117	H	0.761360	1.507679	0.795169
H118	H	0.201569	0.822905	0.124245
H119	H	0.534902	1.156238	0.457579
H120	H	0.868235	1.489572	0.790912
H121	H	0.153905	1.031743	0.141984
H122	H	0.487238	1.365076	0.475317
H123	H	0.820572	1.698409	0.808651
H124	H	0.079243	1.550662	0.952750
H125	H	0.412576	1.883996	1.286083
H126	H	0.745909	2.217329	1.619417
