data_functionalizedCrystal
_audit_creation_method	'MofGen! by Chris Wilmer'
_symmetry_space_group_name_H-M	'P1'
_symmetry_Int_Tables_number	1
_symmetry_cell_setting	triclinic
loop_
_symmetry_equiv_pos_as_xyz
  x,y,z
_cell_length_a	13.262503
_cell_length_b	9.730217
_cell_length_c	10.654541
_cell_angle_alpha	89.996959
_cell_angle_beta	95.537555
_cell_angle_gamma	74.085232
loop_
_atom_site_label
_atom_site_type_symbol
_atom_site_fract_x
_atom_site_fract_y
_atom_site_fract_z
O1	O	-1.393859	0.406711	0.169250
O2	O	-1.088418	0.292539	0.187622
O3	O	-1.248163	0.352259	-0.004340
O4	O	-1.234115	0.346991	0.361211
O5	O	-1.248158	0.580837	-0.004341
O6	O	-1.088413	0.521118	0.187620
O7	O	-1.393854	0.635289	0.169248
Zn8	Zn	-1.241133	0.614495	0.178434
Zn9	Zn	-1.241139	0.313333	0.178436
O10	O	-1.234110	0.575570	0.361210
C11	C	-1.049305	0.392209	0.186588
C12	C	-0.932768	0.348649	0.183493
N13	N	-1.241136	0.820033	0.178432
C14	C	-1.247129	0.466162	-0.051133
C15	C	-1.244045	0.465007	-0.190561
C16	C	-0.604250	0.724253	0.174784
C17	C	-0.713742	0.765187	0.177698
C18	C	-0.768504	0.661056	0.179146
C19	C	-0.713763	0.515984	0.177682
C20	C	-0.604260	0.475046	0.174778
C21	C	-0.768514	0.411849	0.179140
C22	C	-0.713773	0.266778	0.177676
C23	C	-0.604281	0.225847	0.174772
C24	C	-0.549519	0.329978	0.173323
C25	C	-0.878017	0.452787	0.182044
C26	C	-0.878027	0.203580	0.182038
C27	C	-0.768535	0.162647	0.179125
C28	C	-0.432968	0.535620	0.170270
C29	C	-0.549509	0.579184	0.173329
N30	N	-1.241144	0.107799	0.178429
C31	C	-1.382648	0.872927	0.008499
C32	C	-1.453411	0.971316	-0.076464
C33	C	-1.453422	1.115200	-0.076465
C34	C	-1.382660	1.160694	0.008504
C35	C	-1.311897	1.062305	0.093467
C36	C	-1.311896	0.918421	0.093461
C37	C	-1.170381	1.009409	0.263391
C38	C	-1.170374	0.865527	0.263400
C39	C	-1.099619	1.054903	0.348360
C40	C	-1.028859	0.956515	0.433331
C41	C	-1.028852	0.812624	0.433329
C42	C	-1.099611	0.767137	0.348363
C43	C	-1.435063	0.536425	-0.219511
C44	C	-1.529119	0.571594	-0.299488
C45	C	-1.526214	0.570504	-0.430491
C46	C	-1.429243	0.534237	-0.481519
C47	C	-1.335188	0.499068	-0.401542
C48	C	-1.338103	0.500166	-0.270538
C49	C	-1.144172	0.427641	-0.372592
C50	C	-1.147074	0.428740	-0.241589
C51	C	-1.047201	0.391374	-0.423620
C52	C	-0.953143	0.356215	-0.343643
C53	C	-0.956052	0.357308	-0.212633
C54	C	-1.053018	0.393571	-0.161612
C55	C	-1.235143	0.461663	0.408003
C56	C	-1.238227	0.462810	0.547431
H57	H	-0.922576	0.570905	0.183239
H58	H	-1.382655	0.755775	0.008501
Br59	Br	-1.056973	0.395072	0.016177
Br60	Br	-0.400913	0.274428	0.169400
H61	H	-0.758304	0.883304	0.178888
H62	H	-1.511024	0.934262	-0.145647
H63	H	-0.922613	0.118788	0.183222
H64	H	-0.559713	0.107720	0.173593
Br65	Br	-1.099622	1.250171	0.348355
H66	H	-1.602802	0.599130	-0.495609
H67	H	-0.857657	0.694393	0.181519
Br68	Br	-0.694235	-0.034229	0.177110
Br69	Br	-1.099614	0.571872	0.348361
H70	H	-0.874197	0.326680	-0.385202
H71	H	-0.971224	0.732518	0.502511
H72	H	-1.044843	0.390481	-0.530291
Br73	Br	-0.529925	0.865555	0.172842
H74	H	-1.437438	0.537335	-0.112843
Br75	Br	-1.425303	0.532651	-0.659311
H76	H	-0.879460	0.328663	-0.147522
Br77	Br	-1.549450	1.248730	-0.191782
H78	H	-1.382664	1.277850	0.008488
Br79	Br	-0.932825	1.018259	0.548623
H80	H	-1.608070	0.601134	-0.257926
