data_functionalizedCrystal
_audit_creation_method	'MofGen! by Chris Wilmer'
_symmetry_space_group_name_H-M	'P1'
_symmetry_Int_Tables_number	1
_symmetry_cell_setting	triclinic
loop_
_symmetry_equiv_pos_as_xyz
  x,y,z
_cell_length_a	11.792254
_cell_length_b	10.868271
_cell_length_c	11.026607
_cell_angle_alpha	89.997040
_cell_angle_beta	83.607693
_cell_angle_gamma	90.004259
loop_
_atom_site_label
_atom_site_type_symbol
_atom_site_fract_x
_atom_site_fract_y
_atom_site_fract_z
O1	O	1.539986	0.102318	-0.166626
O2	O	1.213052	0.102320	-0.183775
O3	O	1.349423	0.102314	0.001632
O4	O	1.403615	0.102323	-0.352033
O5	O	1.349407	-0.102330	0.001639
O6	O	1.213036	-0.102325	-0.183768
O7	O	1.539970	-0.102327	-0.166619
Zn8	Zn	1.376500	-0.134818	-0.175192
Zn9	Zn	1.376521	0.134810	-0.175202
O10	O	1.403599	-0.102322	-0.352026
C11	C	1.170538	-0.000002	-0.182691
C12	C	1.043883	-0.000001	-0.179458
N13	N	1.376494	-0.318832	-0.175185
C14	C	0.941025	0.000004	-0.176831
C15	C	0.811986	0.000005	-0.173546
C16	C	1.376515	-0.569838	-0.175199
C17	C	1.376500	-0.430160	-0.175195
C18	C	1.582483	-0.000002	-0.167703
C19	C	1.709138	0.000005	-0.170936
C20	C	1.339417	-0.000006	0.046913
C21	C	1.309614	-0.000002	0.181824
N22	N	1.376534	0.318825	-0.175200
C23	C	1.413604	0.000002	-0.397307
C24	C	1.443407	0.000005	-0.532218
C25	C	1.391905	-0.000001	0.255084
C26	C	1.361104	0.000004	0.394523
H27	H	1.267844	0.000013	0.435027
C28	C	1.569398	0.000006	0.413076
C29	C	1.648575	0.106275	0.441765
C30	C	1.774564	0.106277	0.387057
C31	C	1.821375	0.000010	0.303662
C32	C	1.742198	-0.106267	0.274969
C33	C	1.616209	-0.106269	0.329676
H34	H	1.613923	0.184947	0.503503
H35	H	1.833176	0.184951	0.408298
H36	H	1.914640	0.000012	0.263164
H37	H	1.776850	-0.184939	0.213230
H38	H	1.557597	-0.184943	0.308435
H39	H	1.485159	-0.000009	0.214575
H40	H	1.216360	0.000007	0.222334
