data_functionalizedCrystal
_audit_creation_method	'MofGen! by Chris Wilmer'
_symmetry_space_group_name_H-M	'P1'
_symmetry_Int_Tables_number	1
_symmetry_cell_setting	triclinic
loop_
_symmetry_equiv_pos_as_xyz
  x,y,z
_cell_length_a	17.699077
_cell_length_b	10.654551
_cell_length_c	16.176319
_cell_angle_alpha	89.996057
_cell_angle_beta	89.993140
_cell_angle_gamma	83.882969
loop_
_atom_site_label
_atom_site_type_symbol
_atom_site_fract_x
_atom_site_fract_y
_atom_site_fract_z
O1	O	1.005091	0.158773	-0.068730
O2	O	0.784844	0.179442	-0.068734
O3	O	0.900031	-0.013720	-0.068732
O4	O	0.889904	0.351936	-0.068732
O5	O	0.900015	-0.013733	0.068761
O6	O	0.784828	0.179430	0.068759
O7	O	1.005075	0.158761	0.068763
Cu8	Cu	0.894950	0.169094	0.081315
Cu9	Cu	0.894969	0.169109	-0.081286
O10	O	0.889888	0.351923	0.068761
C11	C	0.756634	0.178697	0.000012
C12	C	0.672602	0.176479	0.000011
C13	C	0.633119	0.175427	0.074959
C14	C	0.554163	0.173323	0.074960
C15	C	0.514691	0.172279	0.000012
C16	C	0.554179	0.173328	-0.074943
C17	C	0.633134	0.175423	-0.074943
C18	C	0.235762	0.164877	-0.074944
C19	C	0.156801	0.162785	-0.074938
C20	C	0.156791	0.162777	0.074958
C21	C	0.235746	0.164872	0.074958
C22	C	0.275228	0.165913	0.000005
C23	C	0.360841	0.168192	0.000005
C24	C	0.429078	0.170009	0.000011
C25	C	0.899279	-0.060511	0.000012
C26	C	0.897054	-0.199915	0.000007
C27	C	0.896019	-0.265402	-0.074939
C28	C	0.893922	-0.396386	-0.074936
C29	C	0.893898	-0.396385	0.074967
C30	C	0.895990	-0.265402	0.074962
C31	C	0.897083	-0.199916	-0.149895
C32	C	0.896049	-0.265403	-0.224847
C33	C	0.893952	-0.396386	-0.224844
C34	C	0.892889	-0.461883	-0.149888
C35	C	1.033285	0.159506	0.000015
C36	C	1.117318	0.161724	0.000011
C37	C	0.890640	0.398714	0.000015
C38	C	0.892865	0.538119	0.000015
N39	N	0.894942	0.169083	0.195680
N40	N	0.894983	0.169110	-0.195652
C41	C	0.945963	0.083586	0.238945
C42	C	0.945967	0.083584	0.325492
C43	C	0.894953	0.169088	0.368773
C44	C	0.843927	0.254589	0.325502
C45	C	0.843920	0.254584	0.238957
C46	C	0.843953	0.254613	0.674530
C47	C	0.843965	0.254614	0.761082
C48	C	0.946000	0.083614	0.761066
C49	C	0.945993	0.083608	0.674521
C50	C	0.894964	0.169105	0.631257
C51	C	0.894960	0.169103	0.537413
C52	C	0.894961	0.169096	0.462616
H53	H	0.522021	0.172445	0.135991
N54	N	0.890621	-0.603157	-0.149875
H55	H	0.843285	-0.624377	-0.179301
H56	H	0.936986	-0.644948	-0.179281
N57	N	0.788930	0.346826	0.807763
H58	H	0.796682	0.333855	0.869154
H59	H	0.798127	0.435901	0.792628
H60	H	0.802373	0.324203	0.203731
H61	H	0.802387	0.324203	0.360746
H62	H	0.893033	-0.449722	0.135992
H63	H	0.665280	0.176282	-0.135973
H64	H	0.893102	-0.449701	-0.285873
H65	H	0.124665	0.161935	-0.135974
N66	N	0.897102	-0.194758	0.155795
H67	H	0.896115	-0.256117	0.203279
H68	H	0.944803	-0.150734	0.159060
H69	H	0.665251	0.176287	0.135991
N70	N	0.278319	0.166010	0.155795
H71	H	0.241325	0.165024	0.203276
H72	H	0.316809	0.089061	0.159060
H73	H	0.987548	0.013994	0.796300
H74	H	0.124635	0.161923	0.135989
N75	N	0.278342	0.165990	-0.155783
H76	H	0.241353	0.165013	-0.203260
H77	H	0.305375	0.244673	-0.159056
H78	H	0.987507	0.013965	0.203712
N79	N	1.001023	-0.008601	0.372145
H80	H	0.991866	-0.097726	0.357094
H81	H	1.054774	0.005909	0.357031
N82	N	1.001011	-0.008609	0.627833
H83	H	1.054803	0.005736	0.642878
H84	H	0.991764	-0.097680	0.642920
N85	N	0.511611	0.172187	-0.155782
H86	H	0.455601	0.170702	-0.144411
H87	H	0.519685	0.250372	-0.188515
N88	N	0.899350	-0.058644	-0.149898
H89	H	0.899867	-0.027092	-0.208753
H90	H	0.853012	-0.016860	-0.120440
N91	N	0.897125	-0.194755	-0.305689
H92	H	0.898591	-0.101836	-0.294321
H93	H	0.943578	-0.227934	-0.338464
N94	N	0.788914	0.346816	0.627874
H95	H	0.756601	0.400980	0.668427
H96	H	0.818167	0.402276	0.591950
