data_functionalizedCrystal
_audit_creation_method	'MofGen! by Chris Wilmer'
_symmetry_space_group_name_H-M	'P1'
_symmetry_Int_Tables_number	1
_symmetry_cell_setting	triclinic
loop_
_symmetry_equiv_pos_as_xyz
  x,y,z
_cell_length_a	8.559649
_cell_length_b	12.503572
_cell_length_c	8.559649
_cell_angle_alpha	93.028969
_cell_angle_beta	110.221336
_cell_angle_gamma	93.020673
loop_
_atom_site_label
_atom_site_type_symbol
_atom_site_fract_x
_atom_site_fract_y
_atom_site_fract_z
O1	O	2.137386	0.089304	0.065566
O2	O	1.661902	0.089308	-0.018215
O3	O	1.941534	0.089305	0.261418
O4	O	1.857754	0.089307	-0.214067
O5	O	1.920500	-0.089337	0.240357
O6	O	1.640868	-0.089334	-0.039276
O7	O	2.116352	-0.089338	0.044505
Cu8	Cu	1.876690	-0.105647	0.000692
Cu9	Cu	1.901564	0.105617	0.025599
O10	O	1.836720	-0.089334	-0.235128
C11	C	1.591076	-0.000012	-0.035094
C12	C	1.411377	-0.000010	-0.053993
N13	N	1.859206	-0.254239	-0.016824
C14	C	1.833485	-0.473354	-0.042604
C15	C	1.944778	-0.526683	0.068903
C16	C	1.930466	-0.648606	0.054559
C17	C	1.847794	-0.351420	-0.028262
C18	C	2.187178	-0.000015	0.061385
C19	C	2.366878	-0.000010	0.080285
C20	C	1.937367	-0.000014	0.311197
C21	C	1.956267	-0.000009	0.490897
N22	N	1.919063	0.254209	0.043129
C23	C	1.840887	-0.000013	-0.284906
C24	C	1.821988	-0.000012	-0.464605
H25	H	1.311989	-0.000004	-0.183420
C26	C	1.499182	-0.000178	0.252941
C27	C	1.469999	-0.092071	0.328464
C28	C	1.591841	-0.092254	0.487526
H29	H	1.606478	-0.000234	0.243368
H30	H	1.494310	0.062087	0.319199
H31	H	1.474888	-0.154319	0.262223
H32	H	1.362727	-0.092034	0.338081
H33	H	1.586968	-0.029989	0.553784
H34	H	1.699129	-0.092307	0.477936
H35	H	1.572048	-0.154596	0.538795
H36	H	1.727463	-0.519260	-0.148836
C37	C	2.085785	-0.465280	0.210697
C38	C	2.071969	-0.354805	0.197087
C39	C	2.201704	-0.298204	0.327794
H40	H	2.078882	-0.483648	0.314510
H41	H	2.190077	-0.483446	0.204759
H42	H	1.967703	-0.336647	0.203040
H43	H	2.078892	-0.336405	0.093302
H44	H	2.305996	-0.316370	0.321856
H45	H	2.194790	-0.316581	0.431598
H46	H	2.192357	-0.223241	0.318569
C47	C	2.128987	-0.000068	0.623151
C48	C	2.249068	-0.000088	0.546085
C49	C	2.408189	-0.000157	0.667861
H50	H	2.149641	0.062207	0.697976
H51	H	2.134823	-0.062394	0.683193
H52	H	2.243237	0.062231	0.486071
H53	H	2.228468	-0.062358	0.471270
H54	H	2.414025	-0.062482	0.727903
H55	H	2.428826	0.062119	0.742679
H56	H	2.489682	-0.000180	0.615588
H57	H	1.692569	-0.000014	0.436016
