data_functionalizedCrystal
_audit_creation_method	'MofGen! by Chris Wilmer'
_symmetry_space_group_name_H-M	'P1'
_symmetry_Int_Tables_number	1
_symmetry_cell_setting	triclinic
loop_
_symmetry_equiv_pos_as_xyz
  x,y,z
_cell_length_a	12.645331
_cell_length_b	29.839131
_cell_length_c	12.645323
_cell_angle_alpha	89.967288
_cell_angle_beta	89.977324
_cell_angle_gamma	90.040399
loop_
_atom_site_label
_atom_site_type_symbol
_atom_site_fract_x
_atom_site_fract_y
_atom_site_fract_z
Zn1	Zn	1.620556	-0.178862	-0.599388
Zn2	Zn	1.620365	-0.253994	-0.422104
Zn3	Zn	1.443271	-0.178877	-0.422133
Zn4	Zn	1.443179	-0.253964	-0.599320
O5	O	1.531843	-0.216424	-0.510736
O6	O	1.768878	-0.188834	-0.575888
O7	O	1.596831	-0.244048	-0.273761
O8	O	1.466907	-0.116008	-0.445687
O9	O	1.768737	-0.244033	-0.445638
O10	O	1.597158	-0.115997	-0.575916
O11	O	1.466721	-0.188860	-0.273782
O12	O	1.294912	-0.188832	-0.445620
O13	O	1.466751	-0.243983	-0.747676
O14	O	1.294844	-0.243998	-0.575799
O15	O	1.597069	-0.188806	-0.747727
O16	O	1.596742	-0.316857	-0.445571
O17	O	1.466565	-0.316835	-0.575771
C18	C	1.256413	-0.216414	-0.510706
C19	C	1.138583	-0.216420	-0.510718
C20	C	0.971026	-0.181555	-0.429274
C21	C	1.093586	-0.181645	-0.428915
C22	C	1.094017	-0.263746	-0.480188
C23	C	0.971418	-0.263555	-0.479632
C24	C	0.971445	-0.204409	-0.623006
C25	C	1.094052	-0.203352	-0.622382
C26	C	1.531651	-0.333147	-0.510684
C27	C	1.531667	-0.383081	-0.510697
C28	C	1.599749	-0.692723	-0.443041
C29	C	1.599880	-0.880396	-0.443082
O30	O	1.657615	-0.904660	-0.385518
N31	N	1.532063	-0.903866	-0.510816
C32	C	1.464212	-0.880415	-0.578550
O33	O	1.406540	-0.904684	-0.636171
C34	C	1.464088	-0.692743	-0.578514
C35	C	1.531902	-0.669275	-0.510767
C36	C	1.667559	-0.669256	-0.375300
C37	C	1.667522	-0.622340	-0.375287
C38	C	1.599674	-0.598892	-0.443013
C39	C	1.531865	-0.622360	-0.510753
C40	C	1.396244	-0.669293	-0.646252
C41	C	1.396220	-0.622372	-0.646239
C42	C	1.464035	-0.598904	-0.578492
C43	C	1.463980	-0.551997	-0.578466
N44	N	1.531798	-0.528527	-0.510732
C45	C	1.599645	-0.551975	-0.443005
C46	C	1.464281	-0.978946	-0.578563
C47	C	1.464311	-1.025864	-0.578571
C48	C	1.599980	-1.025842	-0.443104
C49	C	1.599945	-0.978923	-0.443091
C50	C	1.532099	-0.955476	-0.510829
C51	C	1.599560	-0.453449	-0.442981
C52	C	1.599514	-0.406529	-0.442970
C53	C	1.463849	-0.406555	-0.578441
C54	C	1.463891	-0.453471	-0.578448
C55	C	1.531755	-0.476916	-0.510715
O56	O	1.406284	-0.527704	-0.636009
O57	O	1.657325	-0.527697	-0.385409
C58	C	1.599787	-0.739639	-0.443054
C59	C	1.531977	-0.763106	-0.510794
C60	C	1.464130	-0.739659	-0.578521
C61	C	1.532007	-0.810024	-0.510802
C62	C	1.599854	-0.833472	-0.443076
C63	C	1.667672	-0.810002	-0.375341
C64	C	1.667634	-0.763087	-0.375328
C65	C	1.396312	-0.763129	-0.646256
C66	C	1.396354	-0.810044	-0.646263
C67	C	1.464202	-0.833492	-0.578536
C68	C	1.808348	-0.216435	-0.510768
C69	C	1.926178	-0.216440	-0.510781
C70	C	1.531921	-0.216390	-0.787242
C71	C	1.531954	-0.216375	-0.905072
C72	C	1.532064	-0.099246	-0.510812
C73	C	1.532158	-0.049312	-0.510845
C74	C	1.449718	-0.250923	-1.072604
C75	C	1.449934	-0.251094	-0.950044
C76	C	1.643641	-0.229224	-0.949588
C77	C	1.643190	-0.229441	-1.072186
C78	C	1.503559	-0.168784	-1.072285
C79	C	1.501067	-0.169069	-0.949679
C80	C	1.531826	-0.216427	-0.235307
C81	C	1.531998	-0.216315	-0.117477
H82	H	1.654736	-0.387423	-0.387799
C83	C	1.675784	-0.276379	-1.110815
C84	C	1.609484	-0.317634	-1.079641
C85	C	1.642090	-0.364573	-1.118256
C86	C	1.740995	-0.370257	-1.188046
C87	C	1.807300	-0.329000	-1.219223
C88	C	1.774695	-0.282062	-1.180608
H89	H	1.536264	-0.313427	-1.027976
H90	H	1.593006	-0.395113	-1.095176
H91	H	1.765132	-0.405004	-1.216631
H92	H	1.880521	-0.333207	-1.270889
H93	H	1.823779	-0.251521	-1.203688
H94	H	0.941747	-0.290427	-0.536408
H95	H	1.468704	-0.286331	-0.920719
H96	H	1.668166	-0.263606	-0.918888
C97	C	1.133416	-0.156305	-0.653494
C98	C	1.100550	-0.135700	-0.760203
C99	C	1.139923	-0.088654	-0.791312
C100	C	1.212161	-0.062212	-0.715712
C101	C	1.245030	-0.082817	-0.608996
C102	C	1.205658	-0.129863	-0.577887
H103	H	1.047072	-0.155274	-0.816172
H104	H	1.115591	-0.073401	-0.870310
H105	H	1.241307	-0.027386	-0.738741
H106	H	1.298509	-0.063243	-0.553027
H107	H	1.229990	-0.145116	-0.498889
C108	C	1.584509	-0.133947	-1.111496
C109	C	1.574002	-0.084535	-1.078054
C110	C	1.654954	-0.049703	-1.117272
C111	C	1.746414	-0.064284	-1.189931
C112	C	1.756925	-0.113699	-1.223377
C113	C	1.675972	-0.148531	-1.184159
H114	H	1.506295	-0.073739	-1.024264
H115	H	1.647173	-0.013122	-1.092513
H116	H	1.806339	-0.038499	-1.218963
H117	H	1.824632	-0.124495	-1.277168
H118	H	1.683754	-0.185111	-1.208918
H119	H	0.941597	-0.146356	-0.448207
C120	C	1.133139	-0.192394	-0.316573
C121	C	1.053171	-0.200925	-0.226908
C122	C	1.092724	-0.211677	-0.114562
C123	C	1.212245	-0.213898	-0.091882
C124	C	1.292221	-0.205367	-0.181550
C125	C	1.252668	-0.194615	-0.293896
H126	H	0.964688	-0.199281	-0.243695
H127	H	1.033520	-0.217992	-0.048184
H128	H	1.241524	-0.221857	-0.008717
H129	H	1.380704	-0.207011	-0.164763
H130	H	1.311872	-0.188300	-0.360274
H131	H	0.940171	-0.189419	-0.346601
H132	H	1.722814	-0.688342	-0.320149
H133	H	1.423538	-0.157071	-1.103193
H134	H	1.706571	-0.205328	-1.101872
C135	C	1.674203	-0.479235	-0.368468
C136	C	1.665597	-0.472816	-0.247948
C137	C	1.740233	-0.498602	-0.173429
C138	C	1.823474	-0.530806	-0.219431
C139	C	1.832084	-0.537226	-0.339958
C140	C	1.757449	-0.511440	-0.414476
H141	H	1.603973	-0.448976	-0.213889
H142	H	1.733858	-0.493849	-0.084207
H143	H	1.878724	-0.549894	-0.164269
H144	H	1.893708	-0.561066	-0.374017
H145	H	1.763823	-0.516193	-0.503698
C146	C	1.728683	-0.196251	-0.910237
C147	C	1.822621	-0.213506	-0.844354
C148	C	1.907658	-0.180531	-0.805000
C149	C	1.898758	-0.130301	-0.831530
C150	C	1.804817	-0.113043	-0.897417
C151	C	1.719779	-0.146018	-0.936770
H152	H	1.829213	-0.250692	-0.824712
H153	H	1.977200	-0.193307	-0.756227
H154	H	1.961708	-0.105891	-0.802399
H155	H	1.798225	-0.075857	-0.917059
H156	H	1.650237	-0.133242	-0.985544
H157	H	1.418876	-0.159379	-0.920582
H158	H	1.722745	-0.603236	-0.320125
C159	C	1.133388	-0.299801	-0.557858
C160	C	1.206639	-0.286659	-0.650132
C161	C	1.246013	-0.322714	-0.727804
C162	C	1.212135	-0.371911	-0.713202
C163	C	1.138880	-0.385056	-0.620924
C164	C	1.099507	-0.349001	-0.543252
H165	H	1.231721	-0.250238	-0.660945
H166	H	1.300241	-0.312983	-0.796114
H167	H	1.241282	-0.398601	-0.770699
H168	H	1.113798	-0.421476	-0.610111
H169	H	1.045278	-0.358732	-0.474942
H170	H	1.340973	-0.603284	-0.701402
H171	H	1.123721	-0.146552	-0.448053
C172	C	1.135402	-0.277767	-0.370540
C173	C	1.057012	-0.287227	-0.280002
C174	C	1.098395	-0.301246	-0.170352
C175	C	1.218168	-0.305803	-0.151238
C176	C	1.296566	-0.296342	-0.241779
C177	C	1.255183	-0.282324	-0.351429
H178	H	0.968342	-0.283854	-0.294149
H179	H	1.040359	-0.308249	-0.103328
H180	H	1.248803	-0.316180	-0.070069
H181	H	1.385236	-0.299716	-0.227632
H182	H	1.313219	-0.275320	-0.418453
C183	C	1.674548	-0.953110	-0.368577
C184	C	1.665966	-0.959600	-0.248057
C185	C	1.740575	-0.933791	-0.173541
C186	C	1.823765	-0.901491	-0.219545
C187	C	1.832350	-0.895000	-0.340071
C188	C	1.757741	-0.920810	-0.414587
H189	H	1.604381	-0.983512	-0.213997
H190	H	1.734219	-0.938596	-0.084320
H191	H	1.878995	-0.882385	-0.164384
H192	H	1.893936	-0.871089	-0.374132
H193	H	1.764097	-0.916004	-0.503809
C194	C	0.929757	-0.158603	-0.660519
C195	C	0.810019	-0.151078	-0.673691
C196	C	0.768329	-0.105270	-0.711192
C197	C	0.846378	-0.066987	-0.735521
C198	C	0.966123	-0.074511	-0.722349
C199	C	1.007813	-0.120319	-0.684849
H200	H	0.752236	-0.179418	-0.655681
H201	H	0.679685	-0.099700	-0.720942
H202	H	0.815516	-0.033077	-0.763281
H203	H	1.023906	-0.046171	-0.740360
H204	H	1.096457	-0.125889	-0.675098
H205	H	1.556621	-0.141920	-0.919066
H206	H	0.942763	-0.273757	-0.397590
H207	H	1.655225	-1.044941	-0.387958
H208	H	1.408674	-0.472579	-0.633616
H209	H	1.408605	-0.387457	-0.633580
C210	C	1.389639	-0.953159	-0.653078
C211	C	1.269137	-0.959669	-0.644310
C212	C	1.194491	-0.933886	-0.718823
C213	C	1.240348	-0.901593	-0.802104
C214	C	1.360857	-0.895082	-0.810876
C215	C	1.435502	-0.920865	-0.736363
H216	H	1.235185	-0.983575	-0.582657
H217	H	1.105283	-0.938706	-0.712329
H218	H	1.185091	-0.882506	-0.857263
H219	H	1.394808	-0.871175	-0.872528
H220	H	1.524711	-0.916045	-0.742857
H221	H	1.409080	-1.044967	-0.633727
H222	H	1.722855	-0.743983	-0.320162
H223	H	0.942442	-0.229818	-0.683735
C224	C	1.321649	-0.695097	-0.720784
C225	C	1.201137	-0.688691	-0.712037
C226	C	1.126538	-0.714494	-0.786577
C227	C	1.172452	-0.746701	-0.869865
C228	C	1.292971	-0.753108	-0.878616
C229	C	1.367569	-0.727306	-0.804076
H230	H	1.167143	-0.664848	-0.650379
H231	H	1.037323	-0.709751	-0.780099
H232	H	1.117230	-0.765801	-0.925045
H233	H	1.326964	-0.776951	-0.940274
H234	H	1.456785	-0.732049	-0.810554
H235	H	1.367112	-0.243054	-0.919945
H236	H	1.722912	-0.829101	-0.320193
C237	C	1.474820	-0.298230	-1.114217
C238	C	1.569622	-0.305541	-1.188694
C239	C	1.594727	-0.352847	-1.230309
C240	C	1.525030	-0.392843	-1.197447
C241	C	1.430222	-0.385533	-1.122966
C242	C	1.405117	-0.338227	-1.081351
H243	H	1.621222	-0.275933	-1.213024
H244	H	1.664911	-0.358258	-1.285445
H245	H	1.543614	-0.427862	-1.228253
H246	H	1.378622	-0.415141	-1.098636
H247	H	1.334933	-0.332816	-1.026215
H248	H	1.366652	-0.242960	-1.102080
H249	H	1.124687	-0.226907	-0.686360
H250	H	1.341122	-0.829147	-0.701429
H251	H	1.341064	-0.744041	-0.701408
