data_functionalizedCrystal
_audit_creation_method	'MofGen! by Chris Wilmer'
_symmetry_space_group_name_H-M	'P1'
_symmetry_Int_Tables_number	1
_symmetry_cell_setting	triclinic
loop_
_symmetry_equiv_pos_as_xyz
  x,y,z
_cell_length_a	10.540539
_cell_length_b	19.188930
_cell_length_c	9.616153
_cell_angle_alpha	89.992615
_cell_angle_beta	89.995174
_cell_angle_gamma	83.835137
loop_
_atom_site_label
_atom_site_type_symbol
_atom_site_fract_x
_atom_site_fract_y
_atom_site_fract_z
O1	O	1.683724	0.098389	-0.115598
O2	O	1.314107	0.107659	-0.115617
O3	O	1.509582	0.001439	-0.115579
O4	O	1.488249	0.204608	-0.115635
O5	O	1.509555	0.001441	0.115712
O6	O	1.314080	0.107661	0.115675
O7	O	1.683697	0.098391	0.115694
Zn8	Zn	1.498885	0.103026	0.152407
Zn9	Zn	1.498920	0.103023	-0.152330
O10	O	1.488222	0.204610	0.115657
C11	C	1.266806	0.106965	0.000027
C12	C	1.125904	0.104885	0.000021
C13	C	0.944233	0.025184	0.000583
C14	C	1.090805	0.027292	0.000047
C15	C	1.063423	0.142224	-0.132063
C16	C	0.916937	0.139576	-0.132158
C17	C	0.916384	0.141157	0.130863
C18	C	1.063350	0.141872	0.132594
C19	C	1.508878	-0.024575	0.000070
C20	C	1.506804	-0.102094	0.000082
C21	C	1.621502	-0.146253	0.000095
C22	C	1.619554	-0.219090	0.000072
C23	C	1.502901	-0.247764	0.000065
C24	C	1.388187	-0.203595	0.000045
C25	C	1.390139	-0.130760	0.000053
N26	N	1.413724	-0.356363	0.078774
N27	N	1.411878	-0.425554	0.078769
C28	C	1.497014	-0.467212	0.000037
N29	N	1.584085	-0.437067	-0.078672
N30	N	1.585935	-0.367870	-0.078661
C31	C	1.500772	-0.326741	0.000055
C32	C	1.609608	-0.590350	0.000023
C33	C	1.607655	-0.663188	-0.000008
C34	C	1.376285	-0.647691	-0.000021
C35	C	1.378241	-0.574855	-0.000004
C36	C	1.494906	-0.546189	0.000025
C37	C	1.730998	0.099085	0.000047
C38	C	1.871901	0.101165	0.000044
C39	C	1.488927	0.230625	0.000004
C40	C	1.491000	0.308143	-0.000017
N41	N	1.498870	0.103028	0.360381
N42	N	1.498945	0.103016	-0.360304
C43	C	1.393992	0.159658	0.580731
C44	C	1.394216	0.159870	0.419564
C45	C	1.631228	0.119601	0.418832
C46	C	1.630655	0.120002	0.580050
C47	C	1.472715	0.029640	0.580311
C48	C	1.469658	0.030115	0.419084
H49	H	1.106595	0.116284	-0.230348
Br50	Br	1.162899	-0.021678	0.157860
Br51	Br	1.421462	0.249884	0.648176
H52	H	1.293208	-0.226946	0.000036
H53	H	1.378326	0.013866	0.621048
H54	H	1.653830	0.173535	0.617625
H55	H	0.885379	0.116047	0.230981
H56	H	0.914709	-0.005341	-0.093599
H57	H	1.711167	0.079472	0.380494
H58	H	1.295819	0.149898	0.380047
Br59	Br	0.897692	-0.025908	0.158469
H60	H	0.867922	0.197202	0.131740
H61	H	1.711170	0.080409	0.619052
H62	H	1.654959	0.172529	0.378429
H63	H	0.889346	0.111977	-0.230877
Br64	Br	1.234464	-0.070825	0.000033
Br65	Br	1.222570	-0.514920	-0.000020
H66	H	1.704603	-0.567009	0.000040
Br67	Br	1.098624	0.237192	-0.140318
Br68	Br	1.307380	0.009175	0.355419
Br69	Br	0.834930	0.232582	-0.142174
H70	H	1.541158	-0.014059	0.378804
Br71	Br	1.779832	-0.107352	0.000095
Br72	Br	1.217966	-0.686598	-0.000045
H73	H	1.133213	-0.002297	-0.094785
Br74	Br	1.132428	0.096328	0.295461
Br75	Br	1.775227	-0.279032	0.000083
H76	H	1.701060	-0.699142	-0.000005
Br77	Br	1.229457	0.143282	0.645374
Br78	Br	1.101637	0.236164	0.145862
Br79	Br	1.600287	-0.040628	0.643861
Br80	Br	1.421989	0.250615	0.355225
