data_functionalizedCrystal
_audit_creation_method	'MofGen! by Chris Wilmer'
_symmetry_space_group_name_H-M	'P1'
_symmetry_Int_Tables_number	1
_symmetry_cell_setting	triclinic
loop_
_symmetry_equiv_pos_as_xyz
  x,y,z
_cell_length_a	14.044191
_cell_length_b	13.101039
_cell_length_c	14.044202
_cell_angle_alpha	93.660779
_cell_angle_beta	86.807761
_cell_angle_gamma	93.662449
loop_
_atom_site_label
_atom_site_type_symbol
_atom_site_fract_x
_atom_site_fract_y
_atom_site_fract_z
O1	O	1.281986	0.085198	-0.225376
O2	O	1.781986	0.585198	0.274624
O3	O	1.005314	0.085210	-0.217063
O4	O	1.505314	0.585210	0.282937
O5	O	1.139491	0.085176	-0.082885
O6	O	1.639491	0.585176	0.417115
O7	O	1.147809	0.085232	-0.359554
O8	O	1.647809	0.585232	0.140446
O9	O	1.129865	-0.085251	-0.092530
O10	O	1.629865	0.414749	0.407470
O11	O	0.995688	-0.085218	-0.226708
O12	O	1.495688	0.414782	0.273292
O13	O	1.272360	-0.085229	-0.235021
O14	O	1.772360	0.414771	0.264979
Zn15	Zn	1.132496	-0.112282	-0.232396
Zn16	Zn	1.632496	0.387718	0.267604
Zn17	Zn	1.145178	0.112263	-0.219688
Zn18	Zn	1.645178	0.612263	0.280312
O19	O	1.138183	-0.085196	-0.369199
O20	O	1.638183	0.414804	0.130801
C21	C	0.964879	-0.000003	-0.218249
C22	C	1.464879	0.499997	0.281751
C23	C	0.858735	0.000000	-0.207401
C24	C	1.358735	0.500000	0.292599
C25	C	0.613279	0.000002	-0.264502
C26	C	1.113279	0.500002	0.235498
C27	C	0.664401	-0.000012	-0.187586
C28	C	1.164401	0.499988	0.312414
C29	C	0.772539	-0.000005	-0.198614
C30	C	1.272539	0.499995	0.301386
C31	C	0.505131	-0.000005	-0.253475
C32	C	1.005131	0.499995	0.246525
N33	N	1.123847	-0.265529	-0.241068
N34	N	1.623847	0.234471	0.258932
C35	C	1.112082	-0.474568	-0.252875
C36	C	1.612082	0.025432	0.247125
C37	C	1.165596	-0.525457	-0.199205
C38	C	1.665596	-0.025457	0.300795
C39	C	1.159049	-0.641774	-0.205774
C40	C	1.659049	-0.141774	0.294226
C41	C	1.118627	-0.358241	-0.246307
C42	C	1.618627	0.141759	0.253693
C43	C	1.312795	-0.000014	-0.233835
C44	C	1.812795	0.499986	0.266165
C45	C	1.418939	-0.000011	-0.244682
C46	C	1.918939	0.499989	0.255318
C47	C	1.131041	-0.000042	-0.052086
C48	C	1.631041	0.499958	0.447914
C49	C	1.120192	-0.000057	0.054057
C50	C	1.620192	0.499943	0.554057
N51	N	1.153833	0.265509	-0.211009
N52	N	1.653833	0.765509	0.288991
C53	C	1.177292	-0.000033	0.299515
C54	C	1.677292	0.499967	0.799515
C55	C	1.100375	-0.000033	0.248392
C56	C	1.600375	0.499967	0.748392
C57	C	1.111404	-0.000046	0.140254
C58	C	1.611404	0.499954	0.640254
C59	C	1.166265	-0.000020	0.407663
C60	C	1.666265	0.499980	0.907663
C61	C	1.146630	0.000011	0.600001
C62	C	1.646630	0.500011	1.100001
C63	C	1.157471	-0.000009	0.493856
C64	C	1.657471	0.499991	0.993856
H65	H	0.626958	0.000045	-0.113450
H66	H	1.126958	0.500045	0.386550
N67	N	1.007366	-0.000042	0.295343
N68	N	1.507366	0.499958	0.795343
N69	N	0.935044	-0.000053	0.247337
N70	N	1.435044	0.499947	0.747337
H71	H	0.869358	-0.000063	0.280498
H72	H	1.369358	0.499937	0.780498
N73	N	1.229233	-0.470517	-0.135373
N74	N	1.729233	0.029483	0.364627
N75	N	1.234531	-0.374736	-0.130058
N76	N	1.734531	0.125264	0.369942
H77	H	1.279474	-0.335929	-0.084981
H78	H	1.779474	0.164071	0.415019
H79	H	1.251418	-0.000044	0.262072
H80	H	1.751418	0.499956	0.762072
N81	N	1.048459	-0.529490	-0.316723
N82	N	1.548459	-0.029490	0.183277
N83	N	1.058044	-0.517592	-0.404412
N84	N	1.558044	-0.017592	0.095588
H85	H	1.013113	-0.556390	-0.449507
H86	H	1.513113	-0.056390	0.050493
H87	H	0.650724	0.000020	-0.338628
H88	H	1.150724	0.500020	0.161372
