data_functionalizedCrystal
_audit_creation_method	'MofGen! by Chris Wilmer'
_symmetry_space_group_name_H-M	'P1'
_symmetry_Int_Tables_number	1
_symmetry_cell_setting	triclinic
loop_
_symmetry_equiv_pos_as_xyz
  x,y,z
_cell_length_a	8.497374
_cell_length_b	11.169417
_cell_length_c	11.169409
_cell_angle_alpha	90.019824
_cell_angle_beta	90.026041
_cell_angle_gamma	89.996290
loop_
_atom_site_label
_atom_site_type_symbol
_atom_site_fract_x
_atom_site_fract_y
_atom_site_fract_z
Zn1	Zn	-0.627891	1.835087	0.678595
Zn2	Zn	-0.294558	2.168420	1.011929
Zn3	Zn	0.038775	2.501753	1.345262
Zn4	Zn	-0.891756	1.835028	0.477934
Zn5	Zn	-0.558422	2.168362	0.811268
Zn6	Zn	-0.225089	2.501695	1.144601
Zn7	Zn	-0.627987	1.634373	0.477930
Zn8	Zn	-0.294654	1.967706	0.811263
Zn9	Zn	0.038679	2.301039	1.144596
Zn10	Zn	-0.891627	1.634432	0.678579
Zn11	Zn	-0.558294	1.967766	1.011912
Zn12	Zn	-0.224961	2.301099	1.345246
O13	O	-0.759815	1.734730	0.578260
O14	O	-0.426482	2.068063	0.911593
O15	O	-0.093149	2.401397	1.244926
O16	O	-0.662907	2.003029	0.651986
O17	O	-0.329574	2.336362	0.985319
O18	O	0.003760	2.669695	1.318653
O19	O	-0.856860	1.808362	0.309984
O20	O	-0.523527	2.141695	0.643317
O21	O	-0.190193	2.475028	0.976651
O22	O	-0.407212	1.660997	0.504553
O23	O	-0.073879	1.994331	0.837887
O24	O	0.259454	2.327664	1.171220
O25	O	-0.856767	2.002986	0.504561
O26	O	-0.523434	2.336319	0.837894
O27	O	-0.190100	2.669653	1.171228
O28	O	-0.407142	1.808461	0.651981
O29	O	-0.073808	2.141794	0.985315
O30	O	0.259525	2.475128	1.318648
O31	O	-0.663071	1.660941	0.309980
O32	O	-0.329737	1.994274	0.643314
O33	O	0.003596	2.327607	0.976647
O34	O	-0.662946	1.466431	0.504538
O35	O	-0.329613	1.799764	0.837871
O36	O	0.003720	2.133098	1.171204
O37	O	-0.856548	1.661099	0.846531
O38	O	-0.523215	1.994432	1.179864
O39	O	-0.189881	2.327766	1.513198
O40	O	-0.856641	1.466475	0.651954
O41	O	-0.523308	1.799808	0.985287
O42	O	-0.189975	2.133141	1.318621
O43	O	-0.662782	1.808519	0.846543
O44	O	-0.329449	2.141852	1.179876
O45	O	0.003884	2.475186	1.513210
O46	O	-1.112501	1.808420	0.504545
O47	O	-0.779168	2.141753	0.837879
O48	O	-0.445834	2.475086	1.171212
O49	O	-1.112407	1.661043	0.651958
O50	O	-0.779073	1.994376	0.985292
O51	O	-0.445740	2.327709	1.318625
C52	C	-0.759791	1.422905	0.578244
C53	C	-0.426458	1.756239	0.911577
C54	C	-0.093125	2.089572	1.244911
C55	C	-0.759819	1.289505	0.578266
C56	C	-0.426486	1.622839	0.911599
C57	C	-0.093153	1.956172	1.244933
C58	C	-0.759640	1.734822	0.891302
C59	C	-0.426307	2.068156	1.224636
C60	C	-0.092973	2.401489	1.557969
C61	C	-0.759566	1.734861	1.024702
C62	C	-0.426232	2.068195	1.358036
C63	C	-0.092899	2.401528	1.691369
C64	C	-0.348335	1.734720	0.578265
C65	C	-0.015002	2.068054	0.911599
C66	C	0.318332	2.401387	1.244932
C67	C	-0.169691	1.734720	0.578269
C68	C	0.163642	2.068054	0.911602
C69	C	0.496976	2.401387	1.244936
C70	C	-0.759840	2.047772	0.578276
C71	C	-0.426507	2.381106	0.911609
C72	C	-0.093174	2.714439	1.244942
C73	C	-0.759851	2.181172	0.578283
C74	C	-0.426518	2.514506	0.911616
C75	C	-0.093185	2.847839	1.244949
C76	C	-0.759876	1.734707	0.266435
C77	C	-0.426543	2.068041	0.599768
C78	C	-0.093209	2.401374	0.933102
C79	C	-0.759506	1.734901	0.133035
C80	C	-0.426173	2.068234	0.466369
C81	C	-0.092840	2.401567	0.799702
