data_functionalizedCrystal
_audit_creation_method	'MofGen! by Chris Wilmer'
_symmetry_space_group_name_H-M	'P1'
_symmetry_Int_Tables_number	1
_symmetry_cell_setting	triclinic
loop_
_symmetry_equiv_pos_as_xyz
  x,y,z
_cell_length_a	10.540539
_cell_length_b	17.038272
_cell_length_c	9.016244
_cell_angle_alpha	89.997742
_cell_angle_beta	89.994699
_cell_angle_gamma	87.818524
loop_
_atom_site_label
_atom_site_type_symbol
_atom_site_fract_x
_atom_site_fract_y
_atom_site_fract_z
O1	O	1.696177	0.110247	-0.123272
O2	O	1.327733	0.120634	-0.123290
O3	O	1.509765	0.001613	-0.123269
O4	O	1.514144	0.229268	-0.123293
O5	O	1.509737	0.001615	0.123411
O6	O	1.327704	0.120637	0.123390
O7	O	1.696149	0.110249	0.123409
Cu8	Cu	1.511924	0.115443	0.145924
Cu9	Cu	1.511957	0.115440	-0.145805
O10	O	1.514116	0.229271	0.123388
C11	C	1.280343	0.119857	0.000048
C12	C	1.139177	0.117526	0.000041
C13	C	0.947420	0.028219	0.000626
C14	C	1.094259	0.030581	0.000055
C15	C	1.081424	0.159366	-0.140824
C16	C	0.934603	0.156399	-0.140927
C17	C	0.934247	0.158170	0.139595
C18	C	1.081304	0.158971	0.141442
C19	C	1.505768	-0.027537	0.000071
C20	C	1.493883	-0.114398	0.000070
C21	C	1.602994	-0.163886	0.000077
C22	C	1.591820	-0.245501	0.000062
C23	C	1.471534	-0.277626	0.000051
C24	C	1.362416	-0.228133	0.000039
C25	C	1.373591	-0.146519	0.000044
C26	C	1.432055	-0.523611	0.000029
C27	C	1.420888	-0.605231	0.000029
C28	C	1.650293	-0.622593	0.000049
C29	C	1.661457	-0.540977	0.000062
C30	C	1.552339	-0.491491	0.000042
C31	C	1.460110	-0.361050	0.000041
C32	C	1.563764	-0.408069	0.000042
C33	C	1.743538	0.111027	0.000068
C34	C	1.884704	0.113358	0.000065
C35	C	1.518114	0.258421	0.000045
C36	C	1.529998	0.345282	0.000036
N37	N	1.511910	0.115445	0.351110
N38	N	1.511981	0.115432	-0.350991
C39	C	1.414197	0.178900	0.586131
C40	C	1.414449	0.179138	0.414240
C41	C	1.646365	0.134015	0.413453
C42	C	1.645841	0.134465	0.585397
C43	C	1.476465	0.033212	0.585660
C44	C	1.473470	0.033745	0.413706
H45	H	0.915619	-0.006128	0.101649
H46	H	0.892467	0.218928	-0.147327
H47	H	1.362173	-0.387215	0.000035
H48	H	0.903520	0.125473	-0.246219
Cl49	Cl	1.125167	0.257938	-0.148965
Cl50	Cl	1.586397	-0.039723	0.648437
H51	H	1.661700	-0.381909	0.000018
Cl52	Cl	1.236418	-0.084306	0.000029
H53	H	0.892878	0.220970	0.140540
Cl54	Cl	1.260565	0.161938	0.349161
H55	H	1.322932	-0.631384	0.000044
H56	H	1.759406	-0.514827	0.000071
Cl57	Cl	0.895869	-0.024596	-0.154456
Cl58	Cl	1.143002	0.114490	-0.302678
Cl59	Cl	1.728994	-0.307710	0.000075
H60	H	1.380079	0.015538	0.629105
Cl61	Cl	1.259867	0.161905	0.649998
Cl62	Cl	0.881481	0.114727	0.304449
Cl63	Cl	1.787461	-0.684808	0.000068
Cl64	Cl	1.153939	-0.020385	-0.156375
H65	H	1.119403	0.128406	0.245654
H66	H	1.675791	0.194450	0.625482
Cl67	Cl	1.693352	0.225582	0.346942
H68	H	1.437522	0.239555	0.629319
H69	H	1.111442	0.222360	0.149940
Cl70	Cl	1.211199	-0.268519	0.000007
Cl71	Cl	1.294875	-0.461410	0.000001
Cl72	Cl	1.754217	-0.123508	0.000106
Cl73	Cl	1.450820	0.273327	0.350694
Cl74	Cl	1.762135	0.065792	0.649618
Cl75	Cl	1.761950	0.064594	0.350322
Cl76	Cl	1.320696	0.012009	0.350801
Cl77	Cl	1.575242	-0.042680	0.347391
H78	H	1.133790	-0.002340	0.101034
