data_functionalizedCrystal
_audit_creation_method	'MofGen! by Chris Wilmer'
_symmetry_space_group_name_H-M	'P1'
_symmetry_Int_Tables_number	1
_symmetry_cell_setting	triclinic
loop_
_symmetry_equiv_pos_as_xyz
  x,y,z
_cell_length_a	6.394989
_cell_length_b	14.971486
_cell_length_c	13.448316
_cell_angle_alpha	90.001801
_cell_angle_beta	90.003556
_cell_angle_gamma	85.055920
loop_
_atom_site_label
_atom_site_type_symbol
_atom_site_fract_x
_atom_site_fract_y
_atom_site_fract_z
O1	O	-0.272213	-1.189891	-0.082571
O2	O	-0.304810	-0.929844	-0.082597
O3	O	0.015543	-1.063559	-0.082584
O4	O	-0.592567	-1.056176	-0.082583
O5	O	0.015563	-1.063541	0.082800
O6	O	-0.304791	-0.929826	0.082787
O7	O	-0.272193	-1.189874	0.082813
Cu8	Cu	-0.288490	-1.059848	0.097901
Cu9	Cu	-0.288513	-1.059869	-0.097685
O10	O	-0.592547	-1.056159	0.082800
C11	C	-0.303343	-0.896494	0.000091
C12	C	-0.298974	-0.797150	0.000081
C13	C	-0.273661	-1.223223	0.000122
C14	C	-0.278029	-1.322567	0.000126
N15	N	-0.288472	-1.059840	0.235465
C16	C	0.093378	-1.062090	0.000104
C17	C	0.329624	-1.057629	0.000102
N18	N	-0.288515	-1.059884	-0.235249
C19	C	-0.487173	-0.741960	0.000083
C20	C	-0.483056	-0.648616	0.000098
C21	C	-0.290737	-0.610464	0.000104
C22	C	-0.102524	-0.665661	0.000105
C23	C	-0.106643	-0.759003	0.000097
C24	C	-0.093951	-0.471106	0.000119
C25	C	-0.089830	-0.377757	0.000125
C26	C	-0.470364	-0.360719	0.000119
C27	C	-0.474483	-0.454061	0.000111
C28	C	-0.286268	-0.509252	0.000111
C29	C	-0.146678	-1.119069	0.287511
C30	C	-0.146676	-1.119074	0.391614
C31	C	-0.288480	-1.059855	0.443670
C32	C	-0.430282	-1.000620	0.391616
C33	C	-0.430272	-1.000611	0.287515
C34	C	-0.430296	-1.000645	0.608596
C35	C	-0.430309	-1.000655	0.712705
C36	C	-0.146700	-1.119109	0.712696
C37	C	-0.146690	-1.119099	0.608594
C38	C	-0.288495	-1.059865	0.556548
H39	H	-0.643782	-0.773016	0.000077
H40	H	0.066773	-0.346697	0.000131
O41	O	-0.665934	-0.595046	-0.000081
C42	C	-0.989972	-0.551963	-0.085740
C43	C	-0.782908	-0.612666	-0.085675
H44	H	-1.084624	-0.566201	-0.154924
H45	H	-0.954137	-0.478678	-0.085792
H46	H	-1.084518	-0.566116	-0.016502
H47	H	-0.688261	-0.598593	-0.154901
H48	H	-0.818891	-0.685932	-0.085570
H49	H	-0.623615	-0.315778	0.000124
O50	O	-0.568131	-0.943230	0.557927
C51	C	-0.853406	-0.927397	0.440425
C52	C	-0.697393	-0.992511	0.497729
H53	H	-0.957983	-0.967215	0.391757
H54	H	-0.763159	-0.881708	0.391631
H55	H	-0.954673	-0.885055	0.495527
H56	H	-0.596086	-1.034911	0.442698
H57	H	-0.787767	-1.038139	0.546538
H58	H	-0.631086	-0.485121	0.000097
O59	O	0.088933	-0.524684	-0.000062
C60	C	0.412941	-0.567771	-0.085728
C61	C	0.205894	-0.507057	-0.085650
H62	H	0.507582	-0.553528	-0.154908
H63	H	0.377082	-0.641054	-0.085800
H64	H	0.507509	-0.553635	-0.016485
H65	H	0.111224	-0.521114	-0.154881
H66	H	0.241900	-0.433793	-0.085527
O67	O	0.076035	-0.812711	-0.000041
C68	C	0.292275	-0.927950	-0.085755
C69	C	0.085289	-0.867195	-0.085716
H70	H	0.299844	-0.972002	-0.155027
H71	H	0.299890	-0.972140	-0.016592
H72	H	0.430407	-0.884633	-0.085703
H73	H	-0.052960	-0.910442	-0.085803
H74	H	0.077857	-0.823000	-0.154874
H75	H	-0.031239	-1.167339	0.755078
H76	H	-0.031233	-1.167324	0.566211
O77	O	-0.567742	-0.943054	0.442292
C78	C	-0.611737	-0.821378	0.559801
C79	C	-0.455828	-0.886531	0.502493
H80	H	-0.521316	-0.775650	0.608472
H81	H	-0.716215	-0.861126	0.608593
H82	H	-0.713123	-0.779082	0.504701
H83	H	-0.354304	-0.928842	0.557521
H84	H	-0.351496	-0.846730	0.453687
O85	O	-0.008882	-1.176705	0.442017
C86	C	0.272449	-1.294179	0.431022
C87	C	0.116481	-1.228968	0.373818
H88	H	0.373875	-1.336438	0.375909
H89	H	0.182165	-1.339934	0.479717
H90	H	0.376874	-1.254391	0.479803
H91	H	0.012017	-1.268683	0.324984
H92	H	0.206895	-1.183212	0.325187
H93	H	-0.031213	-1.167296	0.245135
O94	O	-0.567818	-0.942997	0.763235
C95	C	-0.689601	-0.788844	0.795082
C96	C	-0.533736	-0.854044	0.737810
H97	H	-0.662130	-0.716913	0.774532
H98	H	-0.665233	-0.798956	0.878436
H99	H	-0.856951	-0.802405	0.774626
H100	H	-0.366324	-0.840523	0.758183
H101	H	-0.558287	-0.843918	0.654470
O102	O	-0.568305	-0.943171	0.236999
C103	C	-0.931306	-0.894802	0.205176
C104	C	-0.775220	-0.959924	0.262428
H105	H	-1.098630	-0.908311	0.225731
H106	H	-0.907120	-0.904966	0.121820
H107	H	-0.903698	-0.822864	0.225646
H108	H	-0.802732	-1.031887	0.242042
H109	H	-0.799442	-0.949682	0.345771
H110	H	0.054066	-0.634590	0.000124
