data_functionalizedCrystal
_audit_creation_method	'MofGen! by Chris Wilmer'
_symmetry_space_group_name_H-M	'P1'
_symmetry_Int_Tables_number	1
_symmetry_cell_setting	triclinic
loop_
_symmetry_equiv_pos_as_xyz
  x,y,z
_cell_length_a	12.759401
_cell_length_b	29.839131
_cell_length_c	12.759393
_cell_angle_alpha	89.962110
_cell_angle_beta	89.981504
_cell_angle_gamma	90.041581
loop_
_atom_site_label
_atom_site_type_symbol
_atom_site_fract_x
_atom_site_fract_y
_atom_site_fract_z
Zn1	Zn	1.606060	-0.178825	-0.593935
Zn2	Zn	1.605873	-0.253963	-0.418236
Zn3	Zn	1.430362	-0.178848	-0.418275
Zn4	Zn	1.430269	-0.253929	-0.593877
O5	O	1.518141	-0.216391	-0.506081
O6	O	1.753056	-0.188797	-0.570636
O7	O	1.582551	-0.244024	-0.271220
O8	O	1.453787	-0.115978	-0.441617
O9	O	1.752919	-0.244001	-0.441551
O10	O	1.582871	-0.115961	-0.570674
O11	O	1.453605	-0.188837	-0.271248
O12	O	1.283329	-0.188803	-0.441561
O13	O	1.453628	-0.243942	-0.740906
O14	O	1.283260	-0.243965	-0.570575
O15	O	1.582781	-0.188763	-0.740949
O16	O	1.582461	-0.316826	-0.441495
O17	O	1.453446	-0.316801	-0.570538
C18	C	1.245174	-0.216383	-0.506066
C19	C	1.128397	-0.216390	-0.506085
C20	C	1.517951	-0.333114	-0.506029
C21	C	1.517966	-0.383048	-0.506041
C22	C	1.073527	-0.245159	-0.573152
C23	C	0.963803	-0.245165	-0.573163
C24	C	0.963829	-0.187632	-0.439032
C25	C	1.073551	-0.187624	-0.439027
C26	C	1.073511	-0.278376	-0.650588
C27	C	0.963787	-0.278382	-0.650600
C28	C	1.585441	-0.692692	-0.438986
C29	C	1.585571	-0.880365	-0.439027
O30	O	1.642790	-0.904631	-0.381974
N31	N	1.518359	-0.903833	-0.506160
C32	C	1.451114	-0.880380	-0.573292
O33	O	1.393957	-0.904648	-0.630402
C34	C	1.450991	-0.692708	-0.573256
C35	C	1.518200	-0.669243	-0.506111
C36	C	1.652646	-0.669227	-0.371848
C37	C	1.652609	-0.622311	-0.371834
C38	C	1.585367	-0.598861	-0.438959
C39	C	1.518163	-0.622327	-0.506098
C40	C	1.383752	-0.669256	-0.640393
C41	C	1.383729	-0.622335	-0.640380
C42	C	1.450938	-0.598869	-0.573235
C43	C	1.450884	-0.551962	-0.573209
N44	N	1.518096	-0.528494	-0.506076
C45	C	1.585338	-0.551944	-0.438951
C46	C	1.451183	-0.978911	-0.573305
C47	C	1.451212	-1.025829	-0.573313
C48	C	1.585670	-1.025811	-0.439049
C49	C	1.585635	-0.978892	-0.439036
C50	C	1.518395	-0.955443	-0.506172
C51	C	1.585254	-0.453418	-0.438927
C52	C	1.585208	-0.406498	-0.438916
C53	C	1.450754	-0.406521	-0.573184
C54	C	1.450796	-0.453436	-0.573191
C55	C	1.518054	-0.476884	-0.506059
O56	O	1.393703	-0.527668	-0.630240
O57	O	1.642503	-0.527668	-0.381867
C58	C	1.585479	-0.739608	-0.439000
C59	C	1.518274	-0.763073	-0.506138
C60	C	1.451033	-0.739624	-0.573263
C61	C	1.518304	-0.809991	-0.506146
C62	C	1.585545	-0.833441	-0.439021
C63	C	1.652757	-0.809973	-0.371888
C64	C	1.652720	-0.763058	-0.371875
C65	C	1.383820	-0.763092	-0.640396
C66	C	1.383862	-0.810007	-0.640404
C67	C	1.451104	-0.833457	-0.573279
C68	C	1.792174	-0.216400	-0.506096
C69	C	1.908951	-0.216404	-0.506102
C70	C	1.518215	-0.216346	-0.780114
C71	C	1.518246	-0.216327	-0.896891
C72	C	1.518360	-0.099213	-0.506156
C73	C	1.518454	-0.049279	-0.506188
C74	C	1.585505	-0.187593	-0.951777
C75	C	1.585530	-0.187576	-1.061501
C76	C	1.451034	-0.245032	-1.061444
C77	C	1.451004	-0.245046	-0.951722
C78	C	1.663159	-0.154422	-0.951811
C79	C	1.663184	-0.154406	-1.061535
C80	C	1.518128	-0.216404	-0.233113
C81	C	1.518301	-0.216297	-0.116337
H82	H	1.118222	-0.164195	-0.384422
H83	H	1.396072	-0.472543	-0.627869
H84	H	1.641428	-0.119630	-0.922064
C85	C	1.377070	-0.276621	-1.121768
N86	N	1.321359	-0.300415	-1.167202
H87	H	1.396474	-1.044931	-0.627979
C88	C	1.773093	-0.166999	-1.101766
N89	N	1.855872	-0.176486	-1.132067
C90	C	1.309873	-0.737303	-0.714272
N91	N	1.254179	-0.717881	-0.769927
H92	H	1.103329	-0.269097	-0.731998
C93	C	1.726618	-0.695014	-0.297992
N94	N	1.782332	-0.714434	-0.242352
H95	H	1.107489	-0.311410	-0.621295
H96	H	0.929803	-0.265962	-0.727955
C97	C	1.377236	-0.953123	-0.647193
N98	N	1.321546	-0.933701	-0.702854
C99	C	1.767541	-0.171259	-0.905820
N100	N	1.846165	-0.183939	-0.871179
H101	H	1.634107	-0.121348	-1.095591
H102	H	1.707505	-0.829074	-0.317230
H103	H	1.396232	-0.268443	-0.907038
C104	C	0.923478	-0.325373	-0.620950
N105	N	0.893118	-0.360766	-0.598616
H106	H	1.329123	-0.829109	-0.695080
H107	H	0.919160	-0.164212	-0.384437
C108	C	1.659141	-0.380689	-0.365044
N109	N	1.714826	-0.361251	-0.309403
C110	C	1.659236	-0.479203	-0.365072
N111	N	1.714953	-0.498625	-0.309438
H112	H	1.707339	-0.603208	-0.317162
C113	C	1.659573	-0.953084	-0.365176
N114	N	1.715267	-0.933648	-0.309542
H115	H	1.640422	-1.044911	-0.384393
C116	C	1.309758	-0.596544	-0.714237
N117	N	1.254041	-0.577119	-0.769865
H118	H	1.329018	-0.688354	-0.695065
C119	C	1.376796	-0.380717	-0.647022
N120	N	1.321096	-0.361280	-0.702644
H121	H	1.707448	-0.743955	-0.317199
