data_functionalizedCrystal
_audit_creation_method	'MofGen! by Chris Wilmer'
_symmetry_space_group_name_H-M	'P1'
_symmetry_Int_Tables_number	1
_symmetry_cell_setting	triclinic
loop_
_symmetry_equiv_pos_as_xyz
  x,y,z
_cell_length_a	17.699083
_cell_length_b	10.654550
_cell_length_c	9.730223
_cell_angle_alpha	90.000193
_cell_angle_beta	89.994169
_cell_angle_gamma	83.883959
loop_
_atom_site_label
_atom_site_type_symbol
_atom_site_fract_x
_atom_site_fract_y
_atom_site_fract_z
O1	O	-1.005081	-0.158800	-0.114094
O2	O	-0.784834	-0.179462	-0.114138
O3	O	-0.900021	0.013697	-0.114110
O4	O	-0.889894	-0.351959	-0.114122
O5	O	-0.900020	0.013692	0.114470
O6	O	-0.784833	-0.179467	0.114442
O7	O	-1.005080	-0.158805	0.114486
Zn8	Zn	-0.894956	-0.169137	0.150756
Zn9	Zn	-0.894958	-0.169130	-0.150408
O10	O	-0.889892	-0.351964	0.114458
C11	C	-0.756632	-0.178724	0.000146
C12	C	-0.672599	-0.176503	0.000129
C13	C	-0.899277	0.060479	0.000178
C14	C	-0.897052	0.199884	0.000173
C15	C	-1.033282	-0.159543	0.000199
C16	C	-1.117314	-0.161764	0.000207
C17	C	-0.624699	-0.289883	0.000126
C18	C	-0.545743	-0.287788	0.000144
C19	C	-0.514688	-0.172313	0.000155
C20	C	-0.562594	-0.058924	0.000162
C21	C	-0.641549	-0.061020	0.000154
C22	C	-0.244177	-0.050470	0.000197
C23	C	-0.165216	-0.048383	0.000201
C24	C	-0.148371	-0.277239	0.000186
C25	C	-0.227326	-0.279334	0.000178
C26	C	-0.275225	-0.165946	0.000193
C27	C	-0.360839	-0.168219	0.000176
C28	C	-0.429076	-0.170039	0.000162
C29	C	-0.890637	-0.398746	0.000167
C30	C	-0.892861	-0.538151	0.000163
N31	N	-0.894960	-0.169140	0.356292
C32	C	-0.964873	0.280557	0.000191
C33	C	-0.962778	0.411541	0.000181
C34	C	-0.825036	0.381166	0.000141
C35	C	-0.827132	0.250185	0.000141
C36	C	-1.044397	0.298094	0.000220
C37	C	-1.042302	0.429078	0.000210
N38	N	-0.894959	-0.169117	-0.355944
C39	C	-0.945979	-0.083638	0.428231
C40	C	-0.945977	-0.083623	0.572114
C41	C	-0.843936	-0.254623	0.572107
C42	C	-0.843935	-0.254631	0.428227
C43	C	-1.004893	0.015084	0.428236
C44	C	-1.004891	0.015099	0.572119
H45	H	-0.649978	-0.383916	0.000115
Br46	Br	-0.706558	0.092859	0.000171
H47	H	-0.252606	-0.373366	0.000162
H48	H	-0.802391	-0.324226	0.630691
H49	H	-0.991971	0.111390	0.389182
Br50	Br	-1.096241	0.250060	-0.159191
Br51	Br	-0.083360	-0.431126	0.000167
Br52	Br	-0.730148	0.449440	0.000089
H53	H	-1.069720	0.262908	0.098922
Br54	Br	-1.096472	-0.034318	0.353859
Br55	Br	-0.974234	0.166592	0.646495
Br56	Br	-0.520449	0.097796	0.000192
Br57	Br	-0.480737	-0.441668	0.000134
Br58	Br	-0.774681	-0.370650	0.330592
Br59	Br	-1.082356	0.505871	-0.164274
H60	H	-1.072265	0.471361	0.095875
Br61	Br	-1.101827	-0.019053	0.637239
H62	H	-0.139935	0.045657	0.000212
H63	H	-0.283168	0.041858	0.000210
H64	H	-0.771905	0.184504	0.000108
