data_functionalizedCrystal
_audit_creation_method	'MofGen! by Chris Wilmer'
_symmetry_space_group_name_H-M	'P1'
_symmetry_Int_Tables_number	1
_symmetry_cell_setting	triclinic
loop_
_symmetry_equiv_pos_as_xyz
  x,y,z
_cell_length_a	16.992694
_cell_length_b	9.130307
_cell_length_c	16.992695
_cell_angle_alpha	89.996281
_cell_angle_beta	89.331777
_cell_angle_gamma	89.995907
loop_
_atom_site_label
_atom_site_type_symbol
_atom_site_fract_x
_atom_site_fract_y
_atom_site_fract_z
O1	O	1.050847	0.121617	-0.166915
O2	O	0.822447	0.121660	-0.165084
O3	O	0.935732	0.121627	-0.051799
O4	O	0.937563	0.121650	-0.280200
O5	O	0.935728	-0.121972	-0.051798
O6	O	0.822443	-0.121939	-0.165082
O7	O	1.050843	-0.121982	-0.166914
Cu8	Cu	0.936643	-0.144203	-0.165998
Cu9	Cu	0.936648	0.143881	-0.166000
O10	O	0.937559	-0.121949	-0.280198
C11	C	0.793085	-0.000134	-0.162727
C12	C	0.705600	-0.000118	-0.155699
N13	N	0.936645	-0.346826	-0.165997
C14	C	0.659610	-0.000112	-0.223517
C15	C	0.577409	-0.000133	-0.216908
C16	C	0.541201	-0.000149	-0.142480
C17	C	0.587198	-0.000159	-0.074657
C18	C	0.669397	-0.000148	-0.081267
C19	C	0.295886	-0.000191	-0.115086
C20	C	0.213681	-0.000197	-0.108481
C21	C	0.203898	-0.000173	-0.250732
C22	C	0.286099	-0.000154	-0.257336
C23	C	0.332089	-0.000172	-0.189512
N24	N	0.457178	-0.000166	-0.135723
N25	N	0.416110	-0.000166	-0.196270
C26	C	1.037004	-0.346845	-0.065717
C27	C	1.087189	-0.423521	-0.015579
C28	C	1.087196	-0.576855	-0.015579
C29	C	1.037013	-0.653515	-0.065720
C30	C	0.986828	-0.576839	-0.115858
C31	C	0.986827	-0.423502	-0.115854
C32	C	0.886466	-0.576820	-0.216132
C33	C	0.886461	-0.423486	-0.216138
C34	C	0.836282	-0.653480	-0.266273
C35	C	0.786101	-0.576804	-0.316416
C36	C	0.786095	-0.423461	-0.316415
C37	C	0.836277	-0.346810	-0.266275
C38	C	1.080205	-0.000184	-0.169270
C39	C	1.167690	-0.000191	-0.176299
C40	C	0.933374	-0.000172	-0.022439
C41	C	0.926345	-0.000170	0.065046
N42	N	0.936651	0.346504	-0.165995
C43	C	0.939917	-0.000147	-0.309559
C44	C	0.946945	-0.000139	-0.397044
C45	C	0.994163	-0.000184	0.111037
C46	C	0.987554	-0.000169	0.193238
C47	C	0.913127	-0.000150	0.229446
C48	C	0.845303	-0.000131	0.183449
C49	C	0.851913	-0.000136	0.101250
C50	C	0.885732	-0.000125	0.474760
C51	C	0.879127	-0.000124	0.556966
C52	C	1.021379	-0.000159	0.566749
C53	C	1.027982	-0.000173	0.484547
C54	C	0.960159	-0.000146	0.438558
N55	N	0.906369	-0.000139	0.313468
N56	N	0.966917	-0.000147	0.354537
H57	H	0.539966	-0.000126	-0.272133
H58	H	0.315574	-0.000124	-0.317942
H59	H	0.830505	-0.000104	0.437325
O60	O	0.159106	-0.000233	-0.316531
C61	C	0.078791	-0.000209	-0.294743
H62	H	0.071771	-0.046333	-0.232714
H63	H	0.044432	-0.070933	-0.337655
H64	H	0.055223	0.116655	-0.296241
H65	H	0.745241	-0.639230	-0.357234
H66	H	1.088589	-0.000189	0.455073
H67	H	0.184203	-0.000208	-0.047870
O68	O	0.340437	-0.000137	-0.049125
C69	C	0.290848	-0.000186	0.017981
H70	H	0.230819	0.045936	0.001838
H71	H	0.318015	0.070528	0.065819
H72	H	0.283614	-0.117057	0.040550
O73	O	0.806884	-0.000167	0.592266
C74	C	0.815598	-0.000142	0.674679
H75	H	0.875820	-0.046278	0.690107
H76	H	0.767663	-0.070854	0.702798
H77	H	0.810358	0.116724	0.697773
O78	O	1.037146	-0.197898	-0.065726
C79	C	1.112861	-0.146677	-0.086484
H80	H	1.158232	-0.235045	-0.073289
H81	H	1.126692	-0.044097	-0.050991
H82	H	1.114883	-0.119471	-0.151955
O83	O	0.551901	-0.000112	-0.002418
C84	C	0.469487	-0.000153	-0.011124
H85	H	0.454051	0.045974	-0.071346
H86	H	0.441369	0.070561	0.036812
H87	H	0.446400	-0.117022	-0.005878
H88	H	0.706842	-0.000152	-0.026042
H89	H	1.128047	-0.361091	0.025247
H90	H	1.037015	-0.778367	-0.065710
O91	O	1.087314	0.000025	0.611341
C92	C	1.132187	0.126200	0.594237
H93	H	1.116760	0.168257	0.533162
H94	H	1.197479	0.097818	0.595902
H95	H	1.118608	0.214548	0.639817
H96	H	1.128058	-0.639285	0.025250
H97	H	0.784703	-0.000107	0.212936
O98	O	0.737320	-0.349209	-0.365194
C99	C	0.693018	-0.449758	-0.409428
H100	H	0.725351	-0.559060	-0.412360
H101	H	0.684934	-0.405454	-0.471535
H102	H	0.632946	-0.466066	-0.380161
H103	H	0.836280	-0.221958	-0.266272
O104	O	1.066524	-0.000134	0.075994
C105	C	1.124963	-0.000175	0.134218
H106	H	1.099399	0.045946	0.191375
H107	H	1.176616	0.070543	0.113890
H108	H	1.146130	-0.117044	0.144470
H109	H	0.796688	-0.000124	0.063804
H110	H	1.042779	-0.000184	0.230680
O111	O	0.694652	-0.000159	-0.295877
C112	C	0.636428	-0.000124	-0.354317
H113	H	0.579273	-0.046253	-0.328753
H114	H	0.656760	-0.070839	-0.405970
H115	H	0.626172	0.116743	-0.375483
H116	H	0.836287	-0.778332	-0.266268
